=
 OpenBabel10232411273D

 36 39  0  0  1  0  0  0  0  0999 V2000
  184.9300  178.6350  144.8410 C   0  0  0  0  0  0  0  0  0  0  0  0
  187.7630  178.2030  141.7750 C   0  0  0  0  0  3  0  0  0  0  0  0
  186.1080  178.6000  140.1100 N   0  0  0  0  0  0  0  0  0  0  0  0
  185.4510  178.6570  142.4140 C   0  0  0  0  0  0  0  0  0  0  0  0
  187.3990  178.3290  140.4340 C   0  0  0  0  0  0  0  0  0  0  0  0
  187.1930  178.1970  144.1450 N   0  0  0  0  0  0  0  0  0  0  0  0
  185.2180  178.4160  147.0050 N   0  0  0  0  0  0  0  0  0  0  0  0
  186.3040  178.3410  145.0730 C   0  0  0  0  0  0  0  0  0  0  0  0
  184.3690  178.8420  143.4730 C   0  0  0  0  0  2  0  0  0  0  0  0
  186.7990  178.3550  142.7700 C   0  0  0  0  0  0  0  0  0  0  0  0
  184.2970  178.6790  145.9670 N   0  0  0  0  0  0  0  0  0  0  0  0
  185.1350  178.7890  141.0480 C   0  0  0  0  0  0  0  0  0  0  0  0
  186.4000  178.2110  146.5050 C   0  0  0  0  0  0  0  0  0  0  0  0
  182.8590  177.9920  140.6540 N   0  0  0  0  0  2  0  0  0  0  0  0
  183.7240  179.7340  139.2050 C   0  0  0  0  0  2  0  0  0  0  0  0
  183.7390  179.1590  140.6110 C   0  0  2  0  0  3  0  0  0  0  0  0
  183.1480  178.6340  138.3530 C   0  0  0  0  0  2  0  0  0  0  0  0
  182.3180  177.8050  139.3070 C   0  0  2  0  0  3  0  0  0  0  0  0
  180.2680  178.1560  140.5740 N   0  0  0  0  0  1  0  0  0  0  0  0
  180.8690  178.2680  139.2550 C   0  0  0  0  0  2  0  0  0  0  0  0
  187.5990  177.9080  147.2960 C   0  0  0  0  0  0  0  0  0  0  0  0
  188.7000  177.2190  146.6970 N   0  0  0  0  0  2  0  0  0  0  0  0
  187.6500  178.2530  148.5090 O   0  0  0  0  0  0  0  0  0  0  0  0
  189.9450  176.9630  147.4100 C   0  0  0  0  0  2  0  0  0  0  0  0
  192.1430  176.3830  146.7760 O   0  0  0  0  0  0  0  0  0  0  0  0
  190.9360  177.4580  145.0710 C   0  0  0  0  0  1  0  0  0  0  0  0
  191.0890  176.9050  146.4460 C   0  0  0  0  0  0  0  0  0  0  0  0
  188.1850  178.7400  138.1920 N   0  0  0  0  0  0  0  0  0  0  0  0
  188.3900  178.2230  139.3590 C   0  0  0  0  0  3  0  0  0  0  0  0
  189.1720  178.6070  137.1290 C   0  0  0  0  0  2  0  0  0  0  0  0
  188.9310  177.3370  136.3170 C   0  0  0  0  0  2  0  0  0  0  0  0
  185.1820  176.3630  136.0810 C   0  0  0  0  0  1  0  0  0  0  0  0
  187.1030  175.1200  137.0900 C   0  0  0  0  0  1  0  0  0  0  0  0
  187.1180  178.1000  134.9780 O   0  0  0  0  0  0  0  0  0  0  0  0
  187.5090  177.2690  135.8420 C   0  0  0  0  0  0  0  0  0  0  0  0
  186.6110  176.2640  136.3360 N   0  0  0  0  0  0  0  0  0  0  0  0
  1  8  1  0  0  0  0
  1 11  2  0  0  0  0
  2 10  1  0  0  0  0
  3  5  1  0  0  0  0
  3 12  2  0  0  0  0
  4 10  2  0  0  0  0
  4  9  1  0  0  0  0
  5  2  2  0  0  0  0
  6  8  2  0  0  0  0
  8 13  1  0  0  0  0
  9  1  1  0  0  0  0
 10  6  1  0  0  0  0
 11  7  1  0  0  0  0
 12  4  1  0  0  0  0
 13  7  2  0  0  0  0
 13 21  1  0  0  0  0
 15 16  1  0  0  0  0
 16 14  1  0  0  0  0
 16 12  1  6  0  0  0
 17 15  1  0  0  0  0
 17 18  1  0  0  0  0
 18 20  1  1  0  0  0
 18 14  1  0  0  0  0
 20 19  1  0  0  0  0
 21 23  2  0  0  0  0
 22 21  1  0  0  0  0
 22 24  1  0  0  0  0
 26 27  1  0  0  0  0
 27 25  2  0  0  0  0
 27 24  1  0  0  0  0
 28 29  2  0  0  0  0
 29  5  1  0  0  0  0
 30 28  1  0  0  0  0
 31 30  1  0  0  0  0
 32 36  1  0  0  0  0
 34 35  2  0  0  0  0
 35 31  1  0  0  0  0
 35 36  1  0  0  0  0
 36 33  1  0  0  0  0
M  END
>  <MODEL>
1

>  <REMARK>
 VINA RESULT:      -8.5      0.000      0.000
  Name = 
  9 active torsions:
  status: ('A' for Active; 'I' for Inactive)
    1  A    between atoms: N_6  and  C_30
    2  A    between atoms: C_9  and  C_10
    3  A    between atoms: C_11  and  C_20
    4  A    between atoms: C_11  and  N_27
    5  A    between atoms: C_12  and  C_32
    6  A    between atoms: C_15  and  C_35
    7  A    between atoms: C_24  and  C_29
    8  A    between atoms: C_24  and  C_30
    9  A    between atoms: C_31  and  C_33
                            x       y       z     vdW  Elec       q    Type
                         _______ _______ _______ _____ _____    ______ ____

>  <TORSDO>
F 9

$$$$
=
 OpenBabel10232411273D

 36 39  0  0  1  0  0  0  0  0999 V2000
  185.2670  178.5620  144.8620 C   0  0  0  0  0  0  0  0  0  0  0  0
  188.1180  177.9660  141.8410 C   0  0  0  0  0  3  0  0  0  0  0  0
  186.5150  178.4560  140.1490 N   0  0  0  0  0  0  0  0  0  0  0  0
  185.8260  178.5520  142.4430 C   0  0  0  0  0  0  0  0  0  0  0  0
  187.7830  178.1110  140.4940 C   0  0  0  0  0  0  0  0  0  0  0  0
  187.5120  177.9950  144.2020 N   0  0  0  0  0  0  0  0  0  0  0  0
  185.5070  178.3290  147.0300 N   0  0  0  0  0  0  0  0  0  0  0  0
  186.6180  178.1900  145.1150 C   0  0  0  0  0  0  0  0  0  0  0  0
  184.7400  178.7990  143.4850 C   0  0  0  0  0  2  0  0  0  0  0  0
  187.1490  178.1740  142.8210 C   0  0  0  0  0  0  0  0  0  0  0  0
  184.6200  178.6430  145.9770 N   0  0  0  0  0  0  0  0  0  0  0  0
  185.5390  178.7000  141.0720 C   0  0  0  0  0  0  0  0  0  0  0  0
  186.6840  178.0570  146.5490 C   0  0  0  0  0  0  0  0  0  0  0  0
  183.1980  178.0710  140.7690 N   0  0  0  0  0  2  0  0  0  0  0  0
  184.1870  179.5930  139.1600 C   0  0  0  0  0  2  0  0  0  0  0  0
  184.1740  179.1490  140.6140 C   0  0  2  0  0  3  0  0  0  0  0  0
  183.5060  178.4750  138.4170 C   0  0  0  0  0  2  0  0  0  0  0  0
  182.6230  177.8100  139.4490 C   0  0  2  0  0  3  0  0  0  0  0  0
  180.8730  178.6500  137.9780 N   0  0  0  0  0  1  0  0  0  0  0  0
  181.2180  178.3910  139.3660 C   0  0  0  0  0  2  0  0  0  0  0  0
  187.8510  177.6870  147.3590 C   0  0  0  0  0  0  0  0  0  0  0  0
  189.0410  177.2080  146.7260 N   0  0  0  0  0  2  0  0  0  0  0  0
  187.7950  177.7870  148.6150 O   0  0  0  0  0  0  0  0  0  0  0  0
  190.2560  176.9020  147.4730 C   0  0  0  0  0  2  0  0  0  0  0  0
  192.2910  175.8740  146.8670 O   0  0  0  0  0  0  0  0  0  0  0  0
  191.3850  177.2180  145.1660 C   0  0  0  0  0  1  0  0  0  0  0  0
  191.3820  176.6180  146.5300 C   0  0  0  0  0  0  0  0  0  0  0  0
  189.8630  177.2600  139.6200 N   0  0  0  0  0  0  0  0  0  0  0  0
  188.7830  177.9480  139.4350 C   0  0  0  0  0  3  0  0  0  0  0  0
  190.8570  177.1260  138.5630 C   0  0  0  0  0  2  0  0  0  0  0  0
  190.2210  176.5930  137.2820 C   0  0  0  0  0  2  0  0  0  0  0  0
  188.6120  173.0910  136.8370 C   0  0  0  0  0  1  0  0  0  0  0  0
  187.5580  175.3580  136.8030 C   0  0  0  0  0  1  0  0  0  0  0  0
  190.9330  174.3820  137.7970 O   0  0  0  0  0  0  0  0  0  0  0  0
  189.9980  175.1120  137.3710 C   0  0  0  0  0  0  0  0  0  0  0  0
  188.7380  174.5300  137.0040 N   0  0  0  0  0  0  0  0  0  0  0  0
  1  8  1  0  0  0  0
  1 11  2  0  0  0  0
  2 10  1  0  0  0  0
  3  5  1  0  0  0  0
  3 12  2  0  0  0  0
  4 10  2  0  0  0  0
  4  9  1  0  0  0  0
  5  2  2  0  0  0  0
  6  8  2  0  0  0  0
  8 13  1  0  0  0  0
  9  1  1  0  0  0  0
 10  6  1  0  0  0  0
 11  7  1  0  0  0  0
 12  4  1  0  0  0  0
 13  7  2  0  0  0  0
 13 21  1  0  0  0  0
 15 16  1  0  0  0  0
 16 14  1  0  0  0  0
 16 12  1  6  0  0  0
 17 15  1  0  0  0  0
 17 18  1  0  0  0  0
 18 20  1  1  0  0  0
 18 14  1  0  0  0  0
 19 20  1  0  0  0  0
 21 23  2  0  0  0  0
 22 21  1  0  0  0  0
 22 24  1  0  0  0  0
 26 27  1  0  0  0  0
 27 25  2  0  0  0  0
 27 24  1  0  0  0  0
 29 28  2  0  0  0  0
 29  5  1  0  0  0  0
 30 28  1  0  0  0  0
 31 35  1  0  0  0  0
 31 30  1  0  0  0  0
 32 36  1  0  0  0  0
 33 36  1  0  0  0  0
 35 34  2  0  0  0  0
 36 35  1  0  0  0  0
M  END
>  <MODEL>
2

>  <REMARK>
 VINA RESULT:      -8.3      1.558      1.747
  Name = 
  9 active torsions:
  status: ('A' for Active; 'I' for Inactive)
    1  A    between atoms: N_6  and  C_30
    2  A    between atoms: C_9  and  C_10
    3  A    between atoms: C_11  and  C_20
    4  A    between atoms: C_11  and  N_27
    5  A    between atoms: C_12  and  C_32
    6  A    between atoms: C_15  and  C_35
    7  A    between atoms: C_24  and  C_29
    8  A    between atoms: C_24  and  C_30
    9  A    between atoms: C_31  and  C_33
                            x       y       z     vdW  Elec       q    Type
                         _______ _______ _______ _____ _____    ______ ____

>  <TORSDO>
F 9

$$$$
=
 OpenBabel10232411273D

 36 39  0  0  1  0  0  0  0  0999 V2000
  185.8210  178.5340  145.5410 C   0  0  0  0  0  0  0  0  0  0  0  0
  188.2660  177.3340  142.3490 C   0  0  0  0  0  3  0  0  0  0  0  0
  190.1620  177.1810  143.7810 N   0  0  0  0  0  0  0  0  0  0  0  0
  188.0600  177.8310  144.7290 C   0  0  0  0  0  0  0  0  0  0  0  0
  189.6220  177.0620  142.5410 C   0  0  0  0  0  0  0  0  0  0  0  0
  186.0910  178.0270  143.2030 N   0  0  0  0  0  0  0  0  0  0  0  0
  183.6990  179.0890  145.5000 N   0  0  0  0  0  0  0  0  0  0  0  0
  185.3560  178.3880  144.2030 C   0  0  0  0  0  0  0  0  0  0  0  0
  187.2310  178.2480  145.9400 C   0  0  0  0  0  2  0  0  0  0  0  0
  187.4800  177.7270  143.4300 C   0  0  0  0  0  0  0  0  0  0  0  0
  184.8560  178.9420  146.2960 N   0  0  0  0  0  0  0  0  0  0  0  0
  189.4280  177.5320  144.8770 C   0  0  0  0  0  0  0  0  0  0  0  0
  183.9680  178.7740  144.2680 C   0  0  0  0  0  0  0  0  0  0  0  0
  191.5220  177.3220  146.1190 N   0  0  0  0  0  2  0  0  0  0  0  0
  189.4830  176.5460  147.1800 C   0  0  0  0  0  2  0  0  0  0  0  0
  190.0850  177.5720  146.2340 C   0  0  2  0  0  3  0  0  0  0  0  0
  190.5230  175.4620  147.2740 C   0  0  0  0  0  2  0  0  0  0  0  0
  191.8270  176.1520  146.9430 C   0  0  2  0  0  3  0  0  0  0  0  0
  193.2820  175.4770  148.7760 N   0  0  0  0  0  1  0  0  0  0  0  0
  192.5150  176.5840  148.2310 C   0  0  0  0  0  2  0  0  0  0  0  0
  182.9990  178.8120  143.1660 C   0  0  0  0  0  0  0  0  0  0  0  0
  183.4470  178.6990  141.8120 N   0  0  0  0  0  2  0  0  0  0  0  0
  181.7710  178.9520  143.4190 O   0  0  0  0  0  0  0  0  0  0  0  0
  182.5240  178.6500  140.6840 C   0  0  0  0  0  2  0  0  0  0  0  0
  184.2310  179.8430  139.5760 O   0  0  0  0  0  0  0  0  0  0  0  0
  182.3060  179.5410  138.2640 C   0  0  0  0  0  1  0  0  0  0  0  0
  183.1000  179.3870  139.5150 C   0  0  0  0  0  0  0  0  0  0  0  0
  190.5170  177.2220  140.3070 N   0  0  0  0  0  0  0  0  0  0  0  0
  190.4720  176.6000  141.4410 C   0  0  0  0  0  3  0  0  0  0  0  0
  191.3520  176.7370  139.2170 C   0  0  0  0  0  2  0  0  0  0  0  0
  190.6230  176.8510  137.8810 C   0  0  0  0  0  2  0  0  0  0  0  0
  187.5410  174.7020  136.9110 C   0  0  0  0  0  1  0  0  0  0  0  0
  187.6700  177.0980  137.6180 C   0  0  0  0  0  1  0  0  0  0  0  0
  190.2440  174.5080  137.7090 O   0  0  0  0  0  0  0  0  0  0  0  0
  189.7380  175.6610  137.6510 C   0  0  0  0  0  0  0  0  0  0  0  0
  188.3350  175.8220  137.3930 N   0  0  0  0  0  0  0  0  0  0  0  0
  1  9  1  0  0  0  0
  1 11  2  0  0  0  0
  2  5  2  0  0  0  0
  2 10  1  0  0  0  0
  3 12  2  0  0  0  0
  4 12  1  0  0  0  0
  4  9  1  0  0  0  0
  5  3  1  0  0  0  0
  6 10  1  0  0  0  0
  6  8  2  0  0  0  0
  7 11  1  0  0  0  0
  8 13  1  0  0  0  0
  8  1  1  0  0  0  0
 10  4  2  0  0  0  0
 13  7  2  0  0  0  0
 14 16  1  0  0  0  0
 14 18  1  0  0  0  0
 15 17  1  0  0  0  0
 16 12  1  6  0  0  0
 16 15  1  0  0  0  0
 18 17  1  0  0  0  0
 18 20  1  1  0  0  0
 20 19  1  0  0  0  0
 21 23  2  0  0  0  0
 21 13  1  0  0  0  0
 22 21  1  0  0  0  0
 24 22  1  0  0  0  0
 26 27  1  0  0  0  0
 27 25  2  0  0  0  0
 27 24  1  0  0  0  0
 28 29  2  0  0  0  0
 29  5  1  0  0  0  0
 30 28  1  0  0  0  0
 31 30  1  0  0  0  0
 32 36  1  0  0  0  0
 35 34  2  0  0  0  0
 35 31  1  0  0  0  0
 36 33  1  0  0  0  0
 36 35  1  0  0  0  0
M  END
>  <MODEL>
3

>  <REMARK>
 VINA RESULT:      -8.0      2.855      7.268
  Name = 
  9 active torsions:
  status: ('A' for Active; 'I' for Inactive)
    1  A    between atoms: N_6  and  C_30
    2  A    between atoms: C_9  and  C_10
    3  A    between atoms: C_11  and  C_20
    4  A    between atoms: C_11  and  N_27
    5  A    between atoms: C_12  and  C_32
    6  A    between atoms: C_15  and  C_35
    7  A    between atoms: C_24  and  C_29
    8  A    between atoms: C_24  and  C_30
    9  A    between atoms: C_31  and  C_33
                            x       y       z     vdW  Elec       q    Type
                         _______ _______ _______ _____ _____    ______ ____

>  <TORSDO>
F 9

$$$$
=
 OpenBabel10232411273D

 36 39  0  0  1  0  0  0  0  0999 V2000
  190.4980  177.2560  141.7850 C   0  0  0  0  0  0  0  0  0  0  0  0
  186.5040  178.4770  142.1980 C   0  0  0  0  0  3  0  0  0  0  0  0
  186.2530  178.6540  139.8360 N   0  0  0  0  0  0  0  0  0  0  0  0
  188.3650  177.9380  140.7130 C   0  0  0  0  0  0  0  0  0  0  0  0
  185.7200  178.7700  141.0810 C   0  0  0  0  0  0  0  0  0  0  0  0
  188.6230  177.7990  143.1950 N   0  0  0  0  0  0  0  0  0  0  0  0
  191.9580  176.8100  143.3610 N   0  0  0  0  0  0  0  0  0  0  0  0
  189.8490  177.4180  143.0430 C   0  0  2  0  0  3  0  0  0  0  0  0
  189.8040  177.4860  140.4840 C   0  0  0  0  0  3  0  0  0  0  0  0
  187.8270  178.0710  142.0270 C   0  0  0  0  0  0  0  0  0  0  0  0
  191.7270  176.9020  141.9710 N   0  0  0  0  0  0  0  0  0  0  0  0
  187.5310  178.2300  139.6160 C   0  0  0  0  0  0  0  0  0  0  0  0
  190.8730  177.1120  144.0100 C   0  0  0  0  0  0  0  0  0  0  0  0
  187.2020  178.8230  137.2690 N   0  0  0  0  0  2  0  0  0  0  0  0
  188.0210  176.5980  137.7790 C   0  0  0  0  0  2  0  0  0  0  0  0
  188.0280  178.0570  138.2020 C   0  0  2  0  0  3  0  0  0  0  0  0
  186.8510  176.4820  136.8400 C   0  0  0  0  0  2  0  0  0  0  0  0
  186.6570  177.8780  136.2930 C   0  0  2  0  0  3  0  0  0  0  0  0
  187.5330  176.7060  134.3470 N   0  0  0  0  0  1  0  0  0  0  0  0
  187.3930  178.0120  134.9670 C   0  0  0  0  0  2  0  0  0  0  0  0
  190.7510  177.1220  145.4730 C   0  0  0  0  0  0  0  0  0  0  0  0
  189.4660  176.9870  146.0870 N   0  0  0  0  0  2  0  0  0  0  0  0
  191.7840  177.2560  146.1840 O   0  0  0  0  0  0  0  0  0  0  0  0
  189.2940  176.9100  147.5340 C   0  0  0  0  0  2  0  0  0  0  0  0
  187.9910  178.1090  149.0920 O   0  0  0  0  0  0  0  0  0  0  0  0
  187.0000  177.9650  146.9660 C   0  0  0  0  0  1  0  0  0  0  0  0
  188.0830  177.6850  147.9500 C   0  0  0  0  0  0  0  0  0  0  0  0
  183.4470  178.3800  141.7840 N   0  0  0  0  0  0  0  0  0  0  0  0
  184.3130  179.1540  141.2140 C   0  0  0  0  0  3  0  0  0  0  0  0
  182.0470  178.7690  141.8880 C   0  0  0  0  0  2  0  0  0  0  0  0
  181.1950  178.0150  140.8720 C   0  0  0  0  0  2  0  0  0  0  0  0
  181.8240  178.3740  137.0600 C   0  0  0  0  0  1  0  0  0  0  0  0
  182.6900  176.6740  138.6770 C   0  0  0  0  0  1  0  0  0  0  0  0
  180.9130  179.7980  139.3220 O   0  0  0  0  0  0  0  0  0  0  0  0
  181.3280  178.6220  139.5060 C   0  0  0  0  0  0  0  0  0  0  0  0
  181.9370  177.8950  138.4290 N   0  0  0  0  0  0  0  0  0  0  0  0
  1 11  2  0  0  0  0
  3  5  1  0  0  0  0
  4 10  1  0  0  0  0
  5 29  1  0  0  0  0
  5  2  2  0  0  0  0
  7 13  2  0  0  0  0
  8  1  1  6  0  0  0
  8  6  1  0  0  0  0
  8 13  1  0  0  0  0
  9  4  2  0  0  0  0
  9  1  1  0  0  0  0
 10  2  1  0  0  0  0
 10  6  2  0  0  0  0
 11  7  1  0  0  0  0
 12  3  2  0  0  0  0
 12  4  1  0  0  0  0
 13 21  1  0  0  0  0
 14 16  1  0  0  0  0
 15 16  1  0  0  0  0
 16 12  1  1  0  0  0
 17 15  1  0  0  0  0
 18 20  1  6  0  0  0
 18 17  1  0  0  0  0
 18 14  1  0  0  0  0
 19 20  1  0  0  0  0
 21 22  1  0  0  0  0
 21 23  2  0  0  0  0
 22 24  1  0  0  0  0
 24 27  1  0  0  0  0
 26 27  1  0  0  0  0
 27 25  2  0  0  0  0
 28 30  1  0  0  0  0
 29 28  2  0  0  0  0
 31 30  1  0  0  0  0
 32 36  1  0  0  0  0
 34 35  2  0  0  0  0
 35 31  1  0  0  0  0
 36 33  1  0  0  0  0
 36 35  1  0  0  0  0
M  END
>  <MODEL>
4

>  <REMARK>
 VINA RESULT:      -7.7      2.213      5.460
  Name = 
  9 active torsions:
  status: ('A' for Active; 'I' for Inactive)
    1  A    between atoms: N_6  and  C_30
    2  A    between atoms: C_9  and  C_10
    3  A    between atoms: C_11  and  C_20
    4  A    between atoms: C_11  and  N_27
    5  A    between atoms: C_12  and  C_32
    6  A    between atoms: C_15  and  C_35
    7  A    between atoms: C_24  and  C_29
    8  A    between atoms: C_24  and  C_30
    9  A    between atoms: C_31  and  C_33
                            x       y       z     vdW  Elec       q    Type
                         _______ _______ _______ _____ _____    ______ ____

>  <TORSDO>
F 9

$$$$
=
 OpenBabel10232411273D

 36 39  0  0  1  0  0  0  0  0999 V2000
  187.3610  177.5020  137.3530 C   0  0  0  0  0  0  0  0  0  0  0  0
  189.4780  177.7210  140.9690 C   0  0  0  0  0  3  0  0  0  0  0  0
  191.3860  176.6930  139.9830 N   0  0  0  0  0  0  0  0  0  0  0  0
  189.4560  177.0760  138.6150 C   0  0  0  0  0  0  0  0  0  0  0  0
  190.7840  177.2380  141.0710 C   0  0  1  0  0  3  0  0  0  0  0  0
  187.4480  178.1170  139.6790 N   0  0  0  0  0  0  0  0  0  0  0  0
  185.2930  178.1110  136.9430 N   0  0  0  0  0  0  0  0  0  0  0  0
  186.8180  178.0450  138.5520 C   0  0  0  0  0  0  0  0  0  0  0  0
  188.7550  176.9750  137.2640 C   0  0  0  0  0  3  0  0  0  0  0  0
  188.8020  177.6360  139.7530 C   0  0  0  0  0  0  0  0  0  0  0  0
  186.4720  177.5400  136.4150 N   0  0  0  0  0  0  0  0  0  0  0  0
  190.7790  176.6160  138.7630 C   0  0  0  0  0  0  0  0  0  0  0  0
  185.4710  178.4110  138.1950 C   0  0  0  0  0  0  0  0  0  0  0  0
  191.5670  174.6010  137.6280 N   0  0  0  0  0  2  0  0  0  0  0  0
  192.9680  176.5800  137.5440 C   0  0  0  0  0  2  0  0  0  0  0  0
  191.5400  176.0630  137.5830 C   0  0  2  0  0  3  0  0  0  0  0  0
  193.8060  175.4090  137.9830 C   0  0  0  0  0  2  0  0  0  0  0  0
  192.9720  174.1930  137.6470 C   0  0  2  0  0  3  0  0  0  0  0  0
  192.2360  173.0450  135.6290 N   0  0  0  0  0  1  0  0  0  0  0  0
  193.3800  173.6580  136.2810 C   0  0  0  0  0  2  0  0  0  0  0  0
  184.4520  179.0210  139.0590 C   0  0  0  0  0  0  0  0  0  0  0  0
  183.7390  178.2190  140.0040 N   0  0  0  0  0  2  0  0  0  0  0  0
  184.2050  180.2540  138.9580 O   0  0  0  0  0  0  0  0  0  0  0  0
  182.7750  178.7840  140.9410 C   0  0  0  0  0  2  0  0  0  0  0  0
  182.6280  179.0890  143.2760 O   0  0  0  0  0  0  0  0  0  0  0  0
  184.6880  178.1970  142.5830 C   0  0  0  0  0  1  0  0  0  0  0  0
  183.3170  178.7250  142.3360 C   0  0  0  0  0  0  0  0  0  0  0  0
  190.9630  177.3460  143.4740 N   0  0  0  0  0  0  0  0  0  0  0  0
  191.5450  177.3510  142.3180 C   0  0  0  0  0  3  0  0  0  0  0  0
  191.7340  177.4800  144.7020 C   0  0  0  0  0  2  0  0  0  0  0  0
  191.3200  176.4240  145.7230 C   0  0  0  0  0  2  0  0  0  0  0  0
  188.8870  177.7840  148.4220 C   0  0  0  0  0  1  0  0  0  0  0  0
  188.5290  177.4220  145.9740 C   0  0  0  0  0  1  0  0  0  0  0  0
  191.6240  177.3150  147.9080 O   0  0  0  0  0  0  0  0  0  0  0  0
  190.8090  177.0660  146.9800 C   0  0  0  0  0  0  0  0  0  0  0  0
  189.4240  177.4150  147.1220 N   0  0  0  0  0  0  0  0  0  0  0  0
  1  8  1  0  0  0  0
  2  5  1  0  0  0  0
  3  5  1  0  0  0  0
  4 12  1  0  0  0  0
  4 10  1  0  0  0  0
  5 29  1  6  0  0  0
  6 10  1  0  0  0  0
  7 13  2  0  0  0  0
  8  6  2  0  0  0  0
  9  1  1  0  0  0  0
  9  4  2  0  0  0  0
 10  2  2  0  0  0  0
 11  7  1  0  0  0  0
 11  1  2  0  0  0  0
 12  3  2  0  0  0  0
 13  8  1  0  0  0  0
 13 21  1  0  0  0  0
 14 18  1  0  0  0  0
 15 16  1  0  0  0  0
 15 17  1  0  0  0  0
 16 14  1  0  0  0  0
 16 12  1  1  0  0  0
 18 20  1  6  0  0  0
 18 17  1  0  0  0  0
 19 20  1  0  0  0  0
 21 22  1  0  0  0  0
 22 24  1  0  0  0  0
 23 21  2  0  0  0  0
 24 27  1  0  0  0  0
 27 26  1  0  0  0  0
 27 25  2  0  0  0  0
 28 30  1  0  0  0  0
 29 28  2  0  0  0  0
 30 31  1  0  0  0  0
 31 35  1  0  0  0  0
 33 36  1  0  0  0  0
 35 36  1  0  0  0  0
 35 34  2  0  0  0  0
 36 32  1  0  0  0  0
M  END
>  <MODEL>
5

>  <REMARK>
 VINA RESULT:      -7.6      3.246      9.145
  Name = 
  9 active torsions:
  status: ('A' for Active; 'I' for Inactive)
    1  A    between atoms: N_6  and  C_30
    2  A    between atoms: C_9  and  C_10
    3  A    between atoms: C_11  and  C_20
    4  A    between atoms: C_11  and  N_27
    5  A    between atoms: C_12  and  C_32
    6  A    between atoms: C_15  and  C_35
    7  A    between atoms: C_24  and  C_29
    8  A    between atoms: C_24  and  C_30
    9  A    between atoms: C_31  and  C_33
                            x       y       z     vdW  Elec       q    Type
                         _______ _______ _______ _____ _____    ______ ____

>  <TORSDO>
F 9

$$$$
=
 OpenBabel10232411273D

 36 39  0  0  1  0  0  0  0  0999 V2000
  184.6320  178.1600  144.1270 C   0  0  0  0  0  0  0  0  0  0  0  0
  186.7040  178.5550  140.4990 C   0  0  0  0  0  3  0  0  0  0  0  0
  188.7100  177.7380  141.4880 N   0  0  0  0  0  0  0  0  0  0  0  0
  186.7430  177.8940  142.8480 C   0  0  0  0  0  0  0  0  0  0  0  0
  188.0540  178.2130  140.3980 C   0  0  0  0  0  0  0  0  0  0  0  0
  184.6590  178.7920  141.8030 N   0  0  0  0  0  0  0  0  0  0  0  0
  182.5500  178.6900  144.5740 N   0  0  0  0  0  0  0  0  0  0  0  0
  184.0390  178.6560  142.9300 C   0  0  0  0  0  0  0  0  0  0  0  0
  186.0540  177.7100  144.1960 C   0  0  0  0  0  2  0  0  0  0  0  0
  186.0430  178.4090  141.7170 C   0  0  0  0  0  0  0  0  0  0  0  0
  183.7640  178.1810  145.0840 N   0  0  0  0  0  0  0  0  0  0  0  0
  188.1000  177.5490  142.6940 C   0  0  0  0  0  0  0  0  0  0  0  0
  182.6880  178.9790  143.3130 C   0  0  0  0  0  0  0  0  0  0  0  0
  189.6640  177.9770  144.5220 N   0  0  0  0  0  2  0  0  0  0  0  0
  189.8150  175.8490  143.3670 C   0  0  0  0  0  2  0  0  0  0  0  0
  188.8790  176.9490  143.8390 C   0  0  2  0  0  3  0  0  0  0  0  0
  191.1860  176.4670  143.4280 C   0  0  0  0  0  2  0  0  0  0  0  0
  191.0670  177.5640  144.4630 C   0  0  2  0  0  3  0  0  0  0  0  0
  190.4260  177.1510  146.7760 N   0  0  0  0  0  1  0  0  0  0  0  0
  191.5130  177.0340  145.8190 C   0  0  0  0  0  2  0  0  0  0  0  0
  181.6270  179.5320  142.4640 C   0  0  0  0  0  0  0  0  0  0  0  0
  181.5350  179.1490  141.0880 N   0  0  0  0  0  2  0  0  0  0  0  0
  180.8000  180.3520  142.9510 O   0  0  0  0  0  0  0  0  0  0  0  0
  180.4560  179.6030  140.2190 C   0  0  0  0  0  2  0  0  0  0  0  0
  180.3420  181.7340  139.2120 O   0  0  0  0  0  0  0  0  0  0  0  0
  182.2020  180.4760  138.5200 C   0  0  0  0  0  1  0  0  0  0  0  0
  180.9510  180.6790  139.3030 C   0  0  0  0  0  0  0  0  0  0  0  0
  188.2270  178.8220  138.0710 N   0  0  0  0  0  0  0  0  0  0  0  0
  188.7730  178.3060  139.1240 C   0  0  0  0  0  3  0  0  0  0  0  0
  188.9490  178.8870  136.8080 C   0  0  0  0  0  2  0  0  0  0  0  0
  188.7470  177.6090  135.9990 C   0  0  0  0  0  2  0  0  0  0  0  0
  185.0640  176.3870  136.0290 C   0  0  0  0  0  1  0  0  0  0  0  0
  187.1260  175.2930  136.9270 C   0  0  0  0  0  1  0  0  0  0  0  0
  186.8040  178.2240  134.7720 O   0  0  0  0  0  0  0  0  0  0  0  0
  187.3050  177.4380  135.6200 C   0  0  0  0  0  0  0  0  0  0  0  0
  186.5100  176.3870  136.1890 N   0  0  0  0  0  0  0  0  0  0  0  0
  1  9  1  0  0  0  0
  1 11  2  0  0  0  0
  2 10  1  0  0  0  0
  3 12  2  0  0  0  0
  4  9  1  0  0  0  0
  5  2  2  0  0  0  0
  5  3  1  0  0  0  0
  6  8  2  0  0  0  0
  7 11  1  0  0  0  0
  8 13  1  0  0  0  0
  8  1  1  0  0  0  0
 10  6  1  0  0  0  0
 10  4  2  0  0  0  0
 12  4  1  0  0  0  0
 13  7  2  0  0  0  0
 15 17  1  0  0  0  0
 15 16  1  0  0  0  0
 16 12  1  6  0  0  0
 16 14  1  0  0  0  0
 17 18  1  0  0  0  0
 18 14  1  0  0  0  0
 18 20  1  1  0  0  0
 20 19  1  0  0  0  0
 21 23  2  0  0  0  0
 21 13  1  0  0  0  0
 22 21  1  0  0  0  0
 24 22  1  0  0  0  0
 25 27  2  0  0  0  0
 26 27  1  0  0  0  0
 27 24  1  0  0  0  0
 28 29  2  0  0  0  0
 29  5  1  0  0  0  0
 30 28  1  0  0  0  0
 31 30  1  0  0  0  0
 32 36  1  0  0  0  0
 34 35  2  0  0  0  0
 35 31  1  0  0  0  0
 35 36  1  0  0  0  0
 36 33  1  0  0  0  0
M  END
>  <MODEL>
6

>  <REMARK>
 VINA RESULT:      -7.4      3.001      6.810
  Name = 
  9 active torsions:
  status: ('A' for Active; 'I' for Inactive)
    1  A    between atoms: N_6  and  C_30
    2  A    between atoms: C_9  and  C_10
    3  A    between atoms: C_11  and  C_20
    4  A    between atoms: C_11  and  N_27
    5  A    between atoms: C_12  and  C_32
    6  A    between atoms: C_15  and  C_35
    7  A    between atoms: C_24  and  C_29
    8  A    between atoms: C_24  and  C_30
    9  A    between atoms: C_31  and  C_33
                            x       y       z     vdW  Elec       q    Type
                         _______ _______ _______ _____ _____    ______ ____

>  <TORSDO>
F 9

$$$$
=
 OpenBabel10232411273D

 36 39  0  0  1  0  0  0  0  0999 V2000
  190.4380  177.2580  142.0270 C   0  0  0  0  0  0  0  0  0  0  0  0
  186.6130  178.3840  140.7190 C   0  0  0  0  0  3  0  0  0  0  0  0
  187.2850  178.2390  138.4390 N   0  0  0  0  0  0  0  0  0  0  0  0
  188.8890  177.7180  140.1420 C   0  0  0  0  0  0  0  0  0  0  0  0
  186.3200  178.5000  139.3590 C   0  0  0  0  0  0  0  0  0  0  0  0
  188.1770  177.9170  142.5290 N   0  0  0  0  0  0  0  0  0  0  0  0
  191.1770  177.0750  144.0840 N   0  0  0  0  0  0  0  0  0  0  0  0
  189.3610  177.5610  142.9080 C   0  0  2  0  0  3  0  0  0  0  0  0
  190.2980  177.2900  140.5400 C   0  0  0  0  0  3  0  0  0  0  0  0
  187.8920  178.0050  141.1210 C   0  0  0  0  0  0  0  0  0  0  0  0
  191.4960  176.9740  142.7120 N   0  0  0  0  0  0  0  0  0  0  0  0
  188.5420  177.8340  138.7810 C   0  0  0  0  0  0  0  0  0  0  0  0
  189.9320  177.4220  144.2240 C   0  0  0  0  0  0  0  0  0  0  0  0
  189.1130  178.0490  136.4150 N   0  0  0  0  0  2  0  0  0  0  0  0
  189.7120  175.9910  137.5510 C   0  0  0  0  0  2  0  0  0  0  0  0
  189.5370  177.4930  137.7000 C   0  0  2  0  0  3  0  0  0  0  0  0
  188.9840  175.6500  136.2790 C   0  0  0  0  0  2  0  0  0  0  0  0
  188.9900  176.9320  135.4770 C   0  0  2  0  0  3  0  0  0  0  0  0
  190.9550  175.7170  134.7060 N   0  0  0  0  0  1  0  0  0  0  0  0
  190.1690  176.9250  134.5140 C   0  0  0  0  0  2  0  0  0  0  0  0
  189.2620  177.6200  145.5140 C   0  0  0  0  0  0  0  0  0  0  0  0
  187.8360  177.7280  145.5740 N   0  0  0  0  0  2  0  0  0  0  0  0
  189.9490  177.7030  146.5690 O   0  0  0  0  0  0  0  0  0  0  0  0
  187.1120  177.8460  146.8340 C   0  0  0  0  0  2  0  0  0  0  0  0
  185.6030  179.5440  147.4680 O   0  0  0  0  0  0  0  0  0  0  0  0
  185.0260  178.4950  145.4460 C   0  0  0  0  0  1  0  0  0  0  0  0
  185.8870  178.6850  146.6480 C   0  0  0  0  0  0  0  0  0  0  0  0
  184.3700  179.9170  139.3030 N   0  0  0  0  0  0  0  0  0  0  0  0
  184.9750  178.8500  138.8930 C   0  0  0  0  0  3  0  0  0  0  0  0
  183.0250  180.2380  138.8460 C   0  0  0  0  0  2  0  0  0  0  0  0
  182.0800  179.0600  139.0640 C   0  0  0  0  0  2  0  0  0  0  0  0
  180.7710  179.5400  142.6850 C   0  0  0  0  0  1  0  0  0  0  0  0
  182.7380  178.2440  141.8480 C   0  0  0  0  0  1  0  0  0  0  0  0
  180.0030  179.7790  139.9770 O   0  0  0  0  0  0  0  0  0  0  0  0
  181.1540  179.3230  140.2160 C   0  0  0  0  0  0  0  0  0  0  0  0
  181.5540  179.0410  141.5660 N   0  0  0  0  0  0  0  0  0  0  0  0
  1 11  2  0  0  0  0
  2 10  1  0  0  0  0
  3 12  2  0  0  0  0
  3  5  1  0  0  0  0
  4  9  2  0  0  0  0
  4 10  1  0  0  0  0
  5  2  2  0  0  0  0
  6  8  1  0  0  0  0
  7 13  2  0  0  0  0
  8  1  1  6  0  0  0
  8 13  1  0  0  0  0
  9  1  1  0  0  0  0
 10  6  2  0  0  0  0
 11  7  1  0  0  0  0
 12  4  1  0  0  0  0
 13 21  1  0  0  0  0
 14 16  1  0  0  0  0
 15 16  1  0  0  0  0
 16 12  1  1  0  0  0
 17 15  1  0  0  0  0
 18 20  1  6  0  0  0
 18 17  1  0  0  0  0
 18 14  1  0  0  0  0
 20 19  1  0  0  0  0
 21 22  1  0  0  0  0
 21 23  2  0  0  0  0
 22 24  1  0  0  0  0
 26 27  1  0  0  0  0
 27 24  1  0  0  0  0
 27 25  2  0  0  0  0
 29 28  2  0  0  0  0
 29  5  1  0  0  0  0
 30 31  1  0  0  0  0
 30 28  1  0  0  0  0
 31 35  1  0  0  0  0
 34 35  2  0  0  0  0
 35 36  1  0  0  0  0
 36 33  1  0  0  0  0
 36 32  1  0  0  0  0
M  END
>  <MODEL>
7

>  <REMARK>
 VINA RESULT:      -7.4      2.565      6.267
  Name = 
  9 active torsions:
  status: ('A' for Active; 'I' for Inactive)
    1  A    between atoms: N_6  and  C_30
    2  A    between atoms: C_9  and  C_10
    3  A    between atoms: C_11  and  C_20
    4  A    between atoms: C_11  and  N_27
    5  A    between atoms: C_12  and  C_32
    6  A    between atoms: C_15  and  C_35
    7  A    between atoms: C_24  and  C_29
    8  A    between atoms: C_24  and  C_30
    9  A    between atoms: C_31  and  C_33
                            x       y       z     vdW  Elec       q    Type
                         _______ _______ _______ _____ _____    ______ ____

>  <TORSDO>
F 9

$$$$
=
 OpenBabel10232411273D

 36 39  0  0  1  0  0  0  0  0999 V2000
  185.7140  178.1520  142.5500 C   0  0  0  0  0  0  0  0  0  0  0  0
  189.0710  177.8920  140.0450 C   0  0  0  0  0  3  0  0  0  0  0  0
  190.4060  177.0410  141.8240 N   0  0  0  0  0  0  0  0  0  0  0  0
  188.1030  177.5410  142.2580 C   0  0  0  0  0  0  0  0  0  0  0  0
  190.2960  177.4250  140.5260 C   0  0  0  0  0  0  0  0  0  0  0  0
  186.7290  178.4720  140.3900 N   0  0  0  0  0  0  0  0  0  0  0  0
  183.7120  178.9130  142.0740 N   0  0  0  0  0  0  0  0  0  0  0  0
  185.7070  178.5370  141.1790 C   0  0  0  0  0  0  0  0  0  0  0  0
  186.9240  177.5930  143.2240 C   0  0  0  0  0  2  0  0  0  0  0  0
  187.9740  177.9640  140.9020 C   0  0  0  0  0  0  0  0  0  0  0  0
  184.5520  178.3710  143.0710 N   0  0  0  0  0  0  0  0  0  0  0  0
  189.3540  177.0630  142.6930 C   0  0  0  0  0  0  0  0  0  0  0  0
  184.3680  179.0230  140.9570 C   0  0  0  0  0  0  0  0  0  0  0  0
  189.1920  177.5890  145.0740 N   0  0  0  0  0  2  0  0  0  0  0  0
  190.9670  176.1010  144.3520 C   0  0  0  0  0  2  0  0  0  0  0  0
  189.5380  176.5520  144.1010 C   0  0  2  0  0  3  0  0  0  0  0  0
  191.5600  177.1840  145.2130 C   0  0  0  0  0  2  0  0  0  0  0  0
  190.3740  177.8160  145.9060 C   0  0  2  0  0  3  0  0  0  0  0  0
  188.9690  177.6820  147.8910 N   0  0  0  0  0  1  0  0  0  0  0  0
  190.1830  177.1750  147.2740 C   0  0  0  0  0  2  0  0  0  0  0  0
  183.8050  179.5500  139.7080 C   0  0  0  0  0  0  0  0  0  0  0  0
  182.4670  179.2180  139.3270 N   0  0  0  0  0  2  0  0  0  0  0  0
  184.5090  180.2920  138.9700 O   0  0  0  0  0  0  0  0  0  0  0  0
  181.8290  179.7760  138.1400 C   0  0  0  0  0  2  0  0  0  0  0  0
  180.2960  178.6380  136.7540 O   0  0  0  0  0  0  0  0  0  0  0  0
  182.4250  177.6450  136.7980 C   0  0  0  0  0  1  0  0  0  0  0  0
  181.4300  178.6770  137.2050 C   0  0  0  0  0  0  0  0  0  0  0  0
  191.4440  176.5180  138.6090 N   0  0  0  0  0  0  0  0  0  0  0  0
  191.4600  177.2900  139.6470 C   0  0  0  0  0  3  0  0  0  0  0  0
  192.6180  176.3790  137.7590 C   0  0  0  0  0  2  0  0  0  0  0  0
  192.9850  174.9100  137.5720 C   0  0  0  0  0  2  0  0  0  0  0  0
  196.5170  173.3450  137.9380 C   0  0  0  0  0  1  0  0  0  0  0  0
  194.4260  172.3800  136.9610 C   0  0  0  0  0  1  0  0  0  0  0  0
  194.8850  175.4390  138.9030 O   0  0  0  0  0  0  0  0  0  0  0  0
  194.3700  174.6350  138.0790 C   0  0  0  0  0  0  0  0  0  0  0  0
  195.0940  173.4680  137.6600 N   0  0  0  0  0  0  0  0  0  0  0  0
  1 11  2  0  0  0  0
  1  9  1  0  0  0  0
  2  5  2  0  0  0  0
  2 10  1  0  0  0  0
  3 12  2  0  0  0  0
  4 12  1  0  0  0  0
  4  9  1  0  0  0  0
  5  3  1  0  0  0  0
  6 10  1  0  0  0  0
  6  8  2  0  0  0  0
  7 11  1  0  0  0  0
  8  1  1  0  0  0  0
 10  4  2  0  0  0  0
 13  8  1  0  0  0  0
 13  7  2  0  0  0  0
 14 18  1  0  0  0  0
 15 17  1  0  0  0  0
 16 12  1  6  0  0  0
 16 15  1  0  0  0  0
 16 14  1  0  0  0  0
 17 18  1  0  0  0  0
 18 20  1  1  0  0  0
 20 19  1  0  0  0  0
 21 13  1  0  0  0  0
 22 21  1  0  0  0  0
 23 21  2  0  0  0  0
 24 22  1  0  0  0  0
 25 27  2  0  0  0  0
 26 27  1  0  0  0  0
 27 24  1  0  0  0  0
 28 29  2  0  0  0  0
 29  5  1  0  0  0  0
 30 28  1  0  0  0  0
 31 30  1  0  0  0  0
 31 35  1  0  0  0  0
 33 36  1  0  0  0  0
 35 34  2  0  0  0  0
 36 32  1  0  0  0  0
 36 35  1  0  0  0  0
M  END
>  <MODEL>
8

>  <REMARK>
 VINA RESULT:      -7.2      3.849      8.169
  Name = 
  9 active torsions:
  status: ('A' for Active; 'I' for Inactive)
    1  A    between atoms: N_6  and  C_30
    2  A    between atoms: C_9  and  C_10
    3  A    between atoms: C_11  and  C_20
    4  A    between atoms: C_11  and  N_27
    5  A    between atoms: C_12  and  C_32
    6  A    between atoms: C_15  and  C_35
    7  A    between atoms: C_24  and  C_29
    8  A    between atoms: C_24  and  C_30
    9  A    between atoms: C_31  and  C_33
                            x       y       z     vdW  Elec       q    Type
                         _______ _______ _______ _____ _____    ______ ____

>  <TORSDO>
F 9

$$$$
=
 OpenBabel10232411273D

 36 39  0  0  1  0  0  0  0  0999 V2000
  186.7520  178.1460  142.4600 C   0  0  0  0  0  0  0  0  0  0  0  0
  190.5540  177.0250  141.0810 C   0  0  0  0  0  3  0  0  0  0  0  0
  189.8890  177.3380  138.8160 N   0  0  0  0  0  0  0  0  0  0  0  0
  188.2940  177.7780  140.5490 C   0  0  0  0  0  0  0  0  0  0  0  0
  190.8460  176.9940  139.7170 C   0  0  0  0  0  0  0  0  0  0  0  0
  188.9970  177.4040  142.9180 N   0  0  0  0  0  0  0  0  0  0  0  0
  186.0130  178.2070  144.5250 N   0  0  0  0  0  0  0  0  0  0  0  0
  187.8210  177.7600  143.3190 C   0  0  2  0  0  3  0  0  0  0  0  0
  186.8940  178.2100  140.9750 C   0  0  0  0  0  3  0  0  0  0  0  0
  189.2820  177.4040  141.5080 C   0  0  0  0  0  0  0  0  0  0  0  0
  185.7000  178.4060  143.1630 N   0  0  0  0  0  0  0  0  0  0  0  0
  188.6400  177.7460  139.1840 C   0  0  0  0  0  0  0  0  0  0  0  0
  187.2500  177.8240  144.6420 C   0  0  0  0  0  0  0  0  0  0  0  0
  186.9120  177.0320  137.6120 N   0  0  0  0  0  2  0  0  0  0  0  0
  188.3460  178.8790  136.9690 C   0  0  0  0  0  2  0  0  0  0  0  0
  187.6550  178.1810  138.1280 C   0  0  2  0  0  3  0  0  0  0  0  0
  188.3210  177.8720  135.8510 C   0  0  0  0  0  2  0  0  0  0  0  0
  187.1440  176.9760  136.1680 C   0  0  2  0  0  3  0  0  0  0  0  0
  185.1630  176.3390  134.9040 N   0  0  0  0  0  1  0  0  0  0  0  0
  185.9130  177.4710  135.4210 C   0  0  0  0  0  2  0  0  0  0  0  0
  187.9140  177.5240  145.9160 C   0  0  0  0  0  0  0  0  0  0  0  0
  189.2530  177.0210  145.9270 N   0  0  0  0  0  2  0  0  0  0  0  0
  187.2950  177.7060  147.0010 O   0  0  0  0  0  0  0  0  0  0  0  0
  189.9890  176.7810  147.1640 C   0  0  0  0  0  2  0  0  0  0  0  0
  191.9450  177.1320  145.8920 O   0  0  0  0  0  0  0  0  0  0  0  0
  192.2940  175.7790  147.7810 C   0  0  0  0  0  1  0  0  0  0  0  0
  191.4440  176.5950  146.8690 C   0  0  0  0  0  0  0  0  0  0  0  0
  192.3680  176.1350  138.0550 N   0  0  0  0  0  0  0  0  0  0  0  0
  192.1840  176.6460  139.2290 C   0  0  0  0  0  3  0  0  0  0  0  0
  193.7030  175.7750  137.5950 C   0  0  0  0  0  2  0  0  0  0  0  0
  193.9440  174.2760  137.7450 C   0  0  0  0  0  2  0  0  0  0  0  0
  196.8480  172.5970  135.7940 C   0  0  0  0  0  1  0  0  0  0  0  0
  196.8430  173.6780  138.0490 C   0  0  0  0  0  1  0  0  0  0  0  0
  194.2670  173.6950  135.4600 O   0  0  0  0  0  0  0  0  0  0  0  0
  194.7770  173.7520  136.6120 C   0  0  0  0  0  0  0  0  0  0  0  0
  196.1380  173.3450  136.8200 N   0  0  0  0  0  0  0  0  0  0  0  0
  1 11  2  0  0  0  0
  2 10  1  0  0  0  0
  3 12  2  0  0  0  0
  3  5  1  0  0  0  0
  4  9  2  0  0  0  0
  4 10  1  0  0  0  0
  5  2  2  0  0  0  0
  6  8  1  0  0  0  0
  7 13  2  0  0  0  0
  8  1  1  6  0  0  0
  8 13  1  0  0  0  0
  9  1  1  0  0  0  0
 10  6  2  0  0  0  0
 11  7  1  0  0  0  0
 12  4  1  0  0  0  0
 13 21  1  0  0  0  0
 14 16  1  0  0  0  0
 15 16  1  0  0  0  0
 16 12  1  1  0  0  0
 17 18  1  0  0  0  0
 17 15  1  0  0  0  0
 18 20  1  6  0  0  0
 18 14  1  0  0  0  0
 19 20  1  0  0  0  0
 21 22  1  0  0  0  0
 21 23  2  0  0  0  0
 22 24  1  0  0  0  0
 25 27  2  0  0  0  0
 27 24  1  0  0  0  0
 27 26  1  0  0  0  0
 28 29  2  0  0  0  0
 29  5  1  0  0  0  0
 30 31  1  0  0  0  0
 30 28  1  0  0  0  0
 32 36  1  0  0  0  0
 34 35  2  0  0  0  0
 35 36  1  0  0  0  0
 35 31  1  0  0  0  0
 36 33  1  0  0  0  0
M  END
>  <MODEL>
9

>  <REMARK>
 VINA RESULT:      -7.2      3.896      5.238
  Name = 
  9 active torsions:
  status: ('A' for Active; 'I' for Inactive)
    1  A    between atoms: N_6  and  C_30
    2  A    between atoms: C_9  and  C_10
    3  A    between atoms: C_11  and  C_20
    4  A    between atoms: C_11  and  N_27
    5  A    between atoms: C_12  and  C_32
    6  A    between atoms: C_15  and  C_35
    7  A    between atoms: C_24  and  C_29
    8  A    between atoms: C_24  and  C_30
    9  A    between atoms: C_31  and  C_33
                            x       y       z     vdW  Elec       q    Type
                         _______ _______ _______ _____ _____    ______ ____

>  <TORSDO>
F 9

$$$$
