=
 OpenBabel10222422063D

 31 34  0  0  1  0  0  0  0  0999 V2000
  188.9620  176.6530  142.5320 C   0  0  2  0  0  3  0  0  0  0  0  0
  189.4370  177.5380  141.4650 N   0  0  0  0  0  2  0  0  0  0  0  0
  186.0570  178.9740  142.0780 C   0  0  0  0  0  0  0  0  0  0  0  0
  187.6230  177.1710  143.0090 C   0  0  0  0  0  2  0  0  0  0  0  0
  185.8400  179.7910  141.1410 O   0  0  0  0  0  0  0  0  0  0  0  0
  187.2580  178.1780  142.0430 N   0  0  0  0  0  0  0  0  0  0  0  0
  188.2980  178.3500  141.0470 C   0  0  2  0  0  3  0  0  0  0  0  0
  182.8250  178.6990  143.9940 N   0  0  0  0  0  0  0  0  0  0  0  0
  185.0700  178.8720  143.1850 C   0  0  0  0  0  0  0  0  0  0  0  0
  183.1690  178.6730  141.6180 N   0  0  0  0  0  1  0  0  0  0  0  0
  183.6860  178.7580  142.9440 C   0  0  0  0  0  0  0  0  0  0  0  0
  184.5730  178.8680  145.5490 C   0  0  0  0  0  0  0  0  0  0  0  0
  185.5010  178.9330  144.5150 C   0  0  0  0  0  3  0  0  0  0  0  0
  183.2520  178.7530  145.2580 N   0  0  0  0  0  0  0  0  0  0  0  0
  185.0040  178.9260  146.9040 N   0  0  0  0  0  1  0  0  0  0  0  0
  187.8040  177.8730  139.6880 C   0  0  0  0  0  2  0  0  0  0  0  0
  188.9190  177.9620  138.6580 C   0  0  1  0  0  3  0  0  0  0  0  0
  189.0380  176.6430  137.9170 C   0  0  1  0  0  3  0  0  0  0  0  0
  188.4070  178.6250  137.3910 C   0  0  0  0  0  2  0  0  0  0  0  0
  188.5370  177.3090  136.6470 C   0  0  0  0  0  2  0  0  0  0  0  0
  194.3670  176.8030  136.2190 O   0  0  0  0  0  0  0  0  0  0  0  0
  190.9880  176.0930  136.5660 C   0  0  0  0  0  3  0  0  0  0  0  0
  191.2630  175.9570  138.9500 N   0  0  0  0  0  2  0  0  0  0  0  0
  193.5430  176.5030  138.3680 N   0  0  0  0  0  2  0  0  0  0  0  0
  192.4240  176.7770  139.2630 C   0  0  0  0  0  2  0  0  0  0  0  0
  190.4740  176.2300  137.7870 C   0  0  0  0  0  0  0  0  0  0  0  0
  193.4470  176.3530  136.9480 C   0  0  0  0  0  0  0  0  0  0  0  0
  192.3570  175.5460  136.3180 C   0  0  0  0  0  2  0  0  0  0  0  0
  189.9490  176.6420  143.6850 C   0  0  0  0  0  2  0  0  0  0  0  0
  189.5790  177.3810  146.2790 S   0  0  0  0  0  1  0  0  0  0  0  0
  189.7610  177.8760  144.5440 C   0  0  0  0  0  2  0  0  0  0  0  0
  1  4  1  0  0  0  0
  1 29  1  1  0  0  0
  2  1  1  0  0  0  0
  3  9  1  0  0  0  0
  5  3  2  0  0  0  0
  6  3  1  0  0  0  0
  6  4  1  0  0  0  0
  7 16  1  6  0  0  0
  7  2  1  0  0  0  0
  7  6  1  0  0  0  0
  8 14  1  0  0  0  0
  9 13  2  0  0  0  0
 10 11  1  0  0  0  0
 11  9  1  0  0  0  0
 11  8  2  0  0  0  0
 12 15  1  0  0  0  0
 13 12  1  0  0  0  0
 14 12  2  0  0  0  0
 17 16  1  1  0  0  0
 18 26  1  6  0  0  0
 18 17  1  0  0  0  0
 19 17  1  0  0  0  0
 20 19  1  0  0  0  0
 20 18  1  0  0  0  0
 21 27  2  0  0  0  0
 22 26  2  0  0  0  0
 23 25  1  0  0  0  0
 24 25  1  0  0  0  0
 26 23  1  0  0  0  0
 27 24  1  0  0  0  0
 28 22  1  0  0  0  0
 28 27  1  0  0  0  0
 29 31  1  0  0  0  0
 31 30  1  0  0  0  0
M  END
>  <MODEL>
1

>  <REMARK>
 VINA RESULT:      -8.6      0.000      0.000
  Name = 
  6 active torsions:
  status: ('A' for Active; 'I' for Inactive)
    1  A    between atoms: C_1  and  C_10
    2  A    between atoms: C_1  and  C_29
    3  A    between atoms: C_2  and  C_16
    4  A    between atoms: C_5  and  C_8
    5  A    between atoms: C_11  and  C_26
    6  A    between atoms: C_14  and  C_16
                            x       y       z     vdW  Elec       q    Type
                         _______ _______ _______ _____ _____    ______ ____

>  <TORSDO>
F 6

$$$$
=
 OpenBabel10222422063D

 31 34  0  0  1  0  0  0  0  0999 V2000
  183.8750  178.4300  143.0260 C   0  0  2  0  0  3  0  0  0  0  0  0
  185.1450  179.1610  143.0190 N   0  0  0  0  0  2  0  0  0  0  0  0
  184.5680  178.7740  139.3610 C   0  0  0  0  0  0  0  0  0  0  0  0
  183.4070  178.2890  141.5950 C   0  0  0  0  0  2  0  0  0  0  0  0
  185.6380  179.1250  138.7910 O   0  0  0  0  0  0  0  0  0  0  0  0
  184.5340  178.7160  140.8010 N   0  0  0  0  0  0  0  0  0  0  0  0
  185.6290  179.1580  141.6420 C   0  0  2  0  0  3  0  0  0  0  0  0
  181.3040  179.0270  137.4980 N   0  0  0  0  0  0  0  0  0  0  0  0
  183.3840  178.4420  138.5260 C   0  0  0  0  0  0  0  0  0  0  0  0
  182.4870  180.7400  138.6930 N   0  0  0  0  0  1  0  0  0  0  0  0
  182.3810  179.3920  138.2420 C   0  0  0  0  0  0  0  0  0  0  0  0
  182.0910  176.8280  137.2770 C   0  0  0  0  0  0  0  0  0  0  0  0
  183.2160  177.1440  138.0330 C   0  0  0  0  0  3  0  0  0  0  0  0
  181.1600  177.7850  137.0310 N   0  0  0  0  0  0  0  0  0  0  0  0
  181.9150  175.5100  136.7700 N   0  0  0  0  0  1  0  0  0  0  0  0
  186.8050  178.1980  141.5170 C   0  0  0  0  0  2  0  0  0  0  0  0
  187.7320  178.3380  142.7130 C   0  0  1  0  0  3  0  0  0  0  0  0
  187.9720  176.9760  143.3370 C   0  0  1  0  0  3  0  0  0  0  0  0
  189.1780  178.3780  142.2500 C   0  0  0  0  0  2  0  0  0  0  0  0
  189.4210  177.0210  142.8830 C   0  0  0  0  0  2  0  0  0  0  0  0
  189.0310  178.6850  148.5580 O   0  0  0  0  0  0  0  0  0  0  0  0
  188.9800  176.9490  145.5530 C   0  0  0  0  0  3  0  0  0  0  0  0
  186.5890  177.1750  145.4650 N   0  0  0  0  0  2  0  0  0  0  0  0
  186.9740  178.3710  147.5280 N   0  0  0  0  0  2  0  0  0  0  0  0
  186.2720  178.3600  146.2500 C   0  0  0  0  0  2  0  0  0  0  0  0
  187.8650  177.0450  144.8310 C   0  0  0  0  0  0  0  0  0  0  0  0
  188.3550  178.0420  147.7150 C   0  0  0  0  0  0  0  0  0  0  0  0
  188.9750  176.8580  147.0450 C   0  0  0  0  0  2  0  0  0  0  0  0
  182.8360  179.1890  143.8330 C   0  0  0  0  0  2  0  0  0  0  0  0
  180.2020  178.5170  143.9930 S   0  0  0  0  0  1  0  0  0  0  0  0
  181.5420  179.2940  143.0500 C   0  0  0  0  0  2  0  0  0  0  0  0
  1 29  1  1  0  0  0
  2  1  1  0  0  0  0
  3  6  1  0  0  0  0
  4  1  1  0  0  0  0
  5  3  2  0  0  0  0
  6  4  1  0  0  0  0
  6  7  1  0  0  0  0
  7 16  1  1  0  0  0
  7  2  1  0  0  0  0
  8 11  1  0  0  0  0
  9  3  1  0  0  0  0
 11  9  2  0  0  0  0
 11 10  1  0  0  0  0
 12 13  2  0  0  0  0
 13  9  1  0  0  0  0
 14 12  1  0  0  0  0
 14  8  2  0  0  0  0
 15 12  1  0  0  0  0
 17 16  1  6  0  0  0
 17 18  1  0  0  0  0
 18 26  1  1  0  0  0
 19 17  1  0  0  0  0
 19 20  1  0  0  0  0
 20 18  1  0  0  0  0
 22 28  1  0  0  0  0
 23 25  1  0  0  0  0
 24 27  1  0  0  0  0
 25 24  1  0  0  0  0
 26 23  1  0  0  0  0
 26 22  2  0  0  0  0
 27 21  2  0  0  0  0
 28 27  1  0  0  0  0
 31 29  1  0  0  0  0
 31 30  1  0  0  0  0
M  END
>  <MODEL>
2

>  <REMARK>
 VINA RESULT:      -8.3      4.683      7.547
  Name = 
  6 active torsions:
  status: ('A' for Active; 'I' for Inactive)
    1  A    between atoms: C_1  and  C_10
    2  A    between atoms: C_1  and  C_29
    3  A    between atoms: C_2  and  C_16
    4  A    between atoms: C_5  and  C_8
    5  A    between atoms: C_11  and  C_26
    6  A    between atoms: C_14  and  C_16
                            x       y       z     vdW  Elec       q    Type
                         _______ _______ _______ _____ _____    ______ ____

>  <TORSDO>
F 6

$$$$
=
 OpenBabel10222422063D

 31 34  0  0  1  0  0  0  0  0999 V2000
  187.7120  177.7160  137.9870 C   0  0  2  0  0  3  0  0  0  0  0  0
  187.8710  178.4340  139.2550 N   0  0  0  0  0  2  0  0  0  0  0  0
  191.1890  176.7630  139.0060 C   0  0  0  0  0  0  0  0  0  0  0  0
  189.0350  177.0640  137.6490 C   0  0  0  0  0  2  0  0  0  0  0  0
  191.7550  176.9220  140.1230 O   0  0  0  0  0  0  0  0  0  0  0  0
  189.8300  177.2170  138.8430 N   0  0  0  0  0  0  0  0  0  0  0  0
  189.1120  177.9600  139.8590 C   0  0  2  0  0  3  0  0  0  0  0  0
  192.3240  174.3190  136.3730 N   0  0  0  0  0  0  0  0  0  0  0  0
  191.9490  176.1230  137.9000 C   0  0  0  0  0  0  0  0  0  0  0  0
  190.4070  174.1930  137.8130 N   0  0  0  0  0  1  0  0  0  0  0  0
  191.5750  174.8740  137.3620 C   0  0  0  0  0  0  0  0  0  0  0  0
  193.8260  176.1210  136.3800 C   0  0  0  0  0  0  0  0  0  0  0  0
  193.0990  176.7370  137.3940 C   0  0  0  0  0  3  0  0  0  0  0  0
  193.4160  174.9210  135.8960 N   0  0  0  0  0  0  0  0  0  0  0  0
  194.9950  176.7420  135.8570 N   0  0  0  0  0  1  0  0  0  0  0  0
  188.7890  177.0530  141.0400 C   0  0  0  0  0  2  0  0  0  0  0  0
  188.5390  177.8800  142.2900 C   0  0  1  0  0  3  0  0  0  0  0  0
  187.6670  177.0990  143.2550 C   0  0  1  0  0  3  0  0  0  0  0  0
  189.7110  177.7480  143.2460 C   0  0  0  0  0  2  0  0  0  0  0  0
  188.8370  176.9760  144.2160 C   0  0  0  0  0  2  0  0  0  0  0  0
  182.4930  178.7750  144.5730 O   0  0  0  0  0  0  0  0  0  0  0  0
  185.5680  178.3140  143.0310 C   0  0  0  0  0  3  0  0  0  0  0  0
  186.6580  178.4410  145.1690 N   0  0  0  0  0  2  0  0  0  0  0  0
  184.3790  178.7020  145.9250 N   0  0  0  0  0  2  0  0  0  0  0  0
  185.6590  178.0400  146.1490 C   0  0  0  0  0  2  0  0  0  0  0  0
  186.5840  177.9670  143.8210 C   0  0  0  0  0  0  0  0  0  0  0  0
  183.7450  178.8660  144.6530 C   0  0  0  0  0  0  0  0  0  0  0  0
  184.5160  179.2910  143.4430 C   0  0  0  0  0  2  0  0  0  0  0  0
  187.3170  178.6790  136.8830 C   0  0  0  0  0  2  0  0  0  0  0  0
  185.9580  177.0390  135.1860 S   0  0  0  0  0  1  0  0  0  0  0  0
  187.4520  178.0070  135.5310 C   0  0  0  0  0  2  0  0  0  0  0  0
  1 29  1  6  0  0  0
  1  2  1  0  0  0  0
  2  7  1  0  0  0  0
  3  5  2  0  0  0  0
  4  1  1  0  0  0  0
  4  6  1  0  0  0  0
  6  3  1  0  0  0  0
  6  7  1  0  0  0  0
  7 16  1  1  0  0  0
  8 11  1  0  0  0  0
  9  3  1  0  0  0  0
 11 10  1  0  0  0  0
 11  9  2  0  0  0  0
 12 13  2  0  0  0  0
 13  9  1  0  0  0  0
 14  8  2  0  0  0  0
 14 12  1  0  0  0  0
 15 12  1  0  0  0  0
 17 16  1  6  0  0  0
 17 19  1  0  0  0  0
 17 18  1  0  0  0  0
 18 26  1  1  0  0  0
 18 20  1  0  0  0  0
 19 20  1  0  0  0  0
 21 27  2  0  0  0  0
 22 28  1  0  0  0  0
 22 26  2  0  0  0  0
 23 25  1  0  0  0  0
 24 25  1  0  0  0  0
 26 23  1  0  0  0  0
 27 24  1  0  0  0  0
 28 27  1  0  0  0  0
 30 31  1  0  0  0  0
 31 29  1  0  0  0  0
M  END
>  <MODEL>
3

>  <REMARK>
 VINA RESULT:      -8.3      2.941      9.325
  Name = 
  6 active torsions:
  status: ('A' for Active; 'I' for Inactive)
    1  A    between atoms: C_1  and  C_10
    2  A    between atoms: C_1  and  C_29
    3  A    between atoms: C_2  and  C_16
    4  A    between atoms: C_5  and  C_8
    5  A    between atoms: C_11  and  C_26
    6  A    between atoms: C_14  and  C_16
                            x       y       z     vdW  Elec       q    Type
                         _______ _______ _______ _____ _____    ______ ____

>  <TORSDO>
F 6

$$$$
=
 OpenBabel10222422063D

 31 34  0  0  1  0  0  0  0  0999 V2000
  183.8050  178.4130  143.0340 C   0  0  2  0  0  3  0  0  0  0  0  0
  185.1460  179.0050  143.0400 N   0  0  0  0  0  2  0  0  0  0  0  0
  184.4620  178.9160  139.3810 C   0  0  0  0  0  0  0  0  0  0  0  0
  183.2980  178.4130  141.6090 C   0  0  0  0  0  2  0  0  0  0  0  0
  185.5520  179.1890  138.8060 O   0  0  0  0  0  0  0  0  0  0  0  0
  184.4490  178.7700  140.8150 N   0  0  0  0  0  0  0  0  0  0  0  0
  185.6000  179.0390  141.6530 C   0  0  2  0  0  3  0  0  0  0  0  0
  181.8240  177.5030  137.0920 N   0  0  0  0  0  0  0  0  0  0  0  0
  183.2340  178.7650  138.5570 C   0  0  0  0  0  0  0  0  0  0  0  0
  183.7930  176.4340  137.9540 N   0  0  0  0  0  1  0  0  0  0  0  0
  182.9460  177.5760  137.8550 C   0  0  0  0  0  0  0  0  0  0  0  0
  181.2110  179.7030  137.6260 C   0  0  0  0  0  0  0  0  0  0  0  0
  182.3450  179.8360  138.4220 C   0  0  0  0  0  3  0  0  0  0  0  0
  180.9830  178.5330  136.9780 N   0  0  0  0  0  0  0  0  0  0  0  0
  180.3010  180.7880  137.4880 N   0  0  0  0  0  1  0  0  0  0  0  0
  186.6650  177.9710  141.4390 C   0  0  0  0  0  2  0  0  0  0  0  0
  187.8400  178.1990  142.3760 C   0  0  1  0  0  3  0  0  0  0  0  0
  187.9460  177.0420  143.3530 C   0  0  1  0  0  3  0  0  0  0  0  0
  189.1300  177.7540  141.7120 C   0  0  0  0  0  2  0  0  0  0  0  0
  189.2430  176.6040  142.6950 C   0  0  0  0  0  2  0  0  0  0  0  0
  187.7760  177.1380  148.9450 O   0  0  0  0  0  0  0  0  0  0  0  0
  187.1400  177.6430  145.5700 C   0  0  0  0  0  3  0  0  0  0  0  0
  189.4930  177.9290  145.1720 N   0  0  0  0  0  2  0  0  0  0  0  0
  189.5930  177.5020  147.5470 N   0  0  0  0  0  2  0  0  0  0  0  0
  190.1680  177.2060  146.2390 C   0  0  0  0  0  2  0  0  0  0  0  0
  188.1820  177.5400  144.7470 C   0  0  0  0  0  0  0  0  0  0  0  0
  188.1930  177.5660  147.8380 C   0  0  0  0  0  0  0  0  0  0  0  0
  187.2350  178.2640  146.9270 C   0  0  0  0  0  2  0  0  0  0  0  0
  182.8690  179.2230  143.9120 C   0  0  0  0  0  2  0  0  0  0  0  0
  180.2620  178.4510  144.0620 S   0  0  0  0  0  1  0  0  0  0  0  0
  181.5380  179.4200  143.2140 C   0  0  0  0  0  2  0  0  0  0  0  0
  1  2  1  0  0  0  0
  1 29  1  1  0  0  0
  3  6  1  0  0  0  0
  4  1  1  0  0  0  0
  5  3  2  0  0  0  0
  6  4  1  0  0  0  0
  6  7  1  0  0  0  0
  7 16  1  1  0  0  0
  7  2  1  0  0  0  0
  8 11  1  0  0  0  0
  9  3  1  0  0  0  0
 11 10  1  0  0  0  0
 11  9  2  0  0  0  0
 12 13  2  0  0  0  0
 13  9  1  0  0  0  0
 14  8  2  0  0  0  0
 14 12  1  0  0  0  0
 15 12  1  0  0  0  0
 17 16  1  6  0  0  0
 17 18  1  0  0  0  0
 18 26  1  1  0  0  0
 19 17  1  0  0  0  0
 19 20  1  0  0  0  0
 20 18  1  0  0  0  0
 22 28  1  0  0  0  0
 23 25  1  0  0  0  0
 24 27  1  0  0  0  0
 25 24  1  0  0  0  0
 26 23  1  0  0  0  0
 26 22  2  0  0  0  0
 27 21  2  0  0  0  0
 28 27  1  0  0  0  0
 31 29  1  0  0  0  0
 31 30  1  0  0  0  0
M  END
>  <MODEL>
4

>  <REMARK>
 VINA RESULT:      -8.2      4.413      7.457
  Name = 
  6 active torsions:
  status: ('A' for Active; 'I' for Inactive)
    1  A    between atoms: C_1  and  C_10
    2  A    between atoms: C_1  and  C_29
    3  A    between atoms: C_2  and  C_16
    4  A    between atoms: C_5  and  C_8
    5  A    between atoms: C_11  and  C_26
    6  A    between atoms: C_14  and  C_16
                            x       y       z     vdW  Elec       q    Type
                         _______ _______ _______ _____ _____    ______ ____

>  <TORSDO>
F 6

$$$$
=
 OpenBabel10222422063D

 31 34  0  0  1  0  0  0  0  0999 V2000
  189.0830  176.5160  142.5660 C   0  0  2  0  0  3  0  0  0  0  0  0
  189.5430  177.3470  141.4510 N   0  0  0  0  0  2  0  0  0  0  0  0
  186.1870  178.8390  142.0650 C   0  0  0  0  0  0  0  0  0  0  0  0
  187.7580  177.0670  143.0460 C   0  0  0  0  0  2  0  0  0  0  0  0
  185.9570  179.6140  141.0960 O   0  0  0  0  0  0  0  0  0  0  0  0
  187.3810  178.0320  142.0420 N   0  0  0  0  0  0  0  0  0  0  0  0
  188.4020  178.1490  141.0190 C   0  0  2  0  0  3  0  0  0  0  0  0
  182.9900  178.7620  144.0560 N   0  0  0  0  0  0  0  0  0  0  0  0
  185.2230  178.7960  143.1950 C   0  0  0  0  0  0  0  0  0  0  0  0
  183.2760  178.7180  141.6740 N   0  0  0  0  0  1  0  0  0  0  0  0
  183.8280  178.7700  142.9860 C   0  0  0  0  0  0  0  0  0  0  0  0
  184.7820  178.8200  145.5700 C   0  0  0  0  0  0  0  0  0  0  0  0
  185.6870  178.8290  144.5140 C   0  0  0  0  0  3  0  0  0  0  0  0
  183.4500  178.7880  145.3100 N   0  0  0  0  0  0  0  0  0  0  0  0
  185.2470  178.8490  146.9150 N   0  0  0  0  0  1  0  0  0  0  0  0
  187.8770  177.6150  139.6930 C   0  0  0  0  0  2  0  0  0  0  0  0
  188.8490  177.9370  138.5700 C   0  0  1  0  0  3  0  0  0  0  0  0
  189.1340  176.6820  137.7650 C   0  0  1  0  0  3  0  0  0  0  0  0
  188.1020  178.5240  137.3860 C   0  0  0  0  0  2  0  0  0  0  0  0
  188.3970  177.2750  136.5770 C   0  0  0  0  0  2  0  0  0  0  0  0
  194.3320  174.6390  138.1020 O   0  0  0  0  0  0  0  0  0  0  0  0
  191.4450  176.5200  138.5160 C   0  0  0  0  0  3  0  0  0  0  0  0
  191.0850  176.4870  136.1400 N   0  0  0  0  0  2  0  0  0  0  0  0
  193.1050  175.1640  136.2030 N   0  0  0  0  0  2  0  0  0  0  0  0
  191.7610  175.2930  135.6520 C   0  0  0  0  0  2  0  0  0  0  0  0
  190.6010  176.5480  137.4850 C   0  0  0  0  0  0  0  0  0  0  0  0
  193.4600  175.3740  137.5740 C   0  0  0  0  0  0  0  0  0  0  0  0
  192.9300  176.5380  138.3500 C   0  0  0  0  0  2  0  0  0  0  0  0
  190.0930  176.5490  143.6990 C   0  0  0  0  0  2  0  0  0  0  0  0
  191.2790  178.9680  144.0980 S   0  0  0  0  0  1  0  0  0  0  0  0
  191.3140  177.3470  143.2860 C   0  0  0  0  0  2  0  0  0  0  0  0
  1  4  1  0  0  0  0
  1 29  1  1  0  0  0
  2  1  1  0  0  0  0
  3  9  1  0  0  0  0
  5  3  2  0  0  0  0
  6  3  1  0  0  0  0
  6  4  1  0  0  0  0
  7 16  1  6  0  0  0
  7  2  1  0  0  0  0
  7  6  1  0  0  0  0
  8 14  1  0  0  0  0
  9 13  2  0  0  0  0
 10 11  1  0  0  0  0
 11  9  1  0  0  0  0
 11  8  2  0  0  0  0
 12 15  1  0  0  0  0
 13 12  1  0  0  0  0
 14 12  2  0  0  0  0
 17 16  1  1  0  0  0
 18 26  1  6  0  0  0
 18 17  1  0  0  0  0
 19 17  1  0  0  0  0
 20 19  1  0  0  0  0
 20 18  1  0  0  0  0
 23 26  1  0  0  0  0
 24 27  1  0  0  0  0
 25 23  1  0  0  0  0
 25 24  1  0  0  0  0
 26 22  2  0  0  0  0
 27 21  2  0  0  0  0
 27 28  1  0  0  0  0
 28 22  1  0  0  0  0
 31 29  1  0  0  0  0
 31 30  1  0  0  0  0
M  END
>  <MODEL>
5

>  <REMARK>
 VINA RESULT:      -8.1      1.161      1.451
  Name = 
  6 active torsions:
  status: ('A' for Active; 'I' for Inactive)
    1  A    between atoms: C_1  and  C_10
    2  A    between atoms: C_1  and  C_29
    3  A    between atoms: C_2  and  C_16
    4  A    between atoms: C_5  and  C_8
    5  A    between atoms: C_11  and  C_26
    6  A    between atoms: C_14  and  C_16
                            x       y       z     vdW  Elec       q    Type
                         _______ _______ _______ _____ _____    ______ ____

>  <TORSDO>
F 6

$$$$
=
 OpenBabel10222422063D

 31 34  0  0  1  0  0  0  0  0999 V2000
  189.2550  176.5330  139.5250 C   0  0  2  0  0  3  0  0  0  0  0  0
  189.5760  177.6490  140.4190 N   0  0  0  0  0  2  0  0  0  0  0  0
  192.9700  176.8150  139.1360 C   0  0  0  0  0  0  0  0  0  0  0  0
  190.5220  176.1340  138.8010 C   0  0  0  0  0  2  0  0  0  0  0  0
  193.7900  177.4650  139.8420 O   0  0  0  0  0  0  0  0  0  0  0  0
  191.5710  176.8570  139.4770 N   0  0  0  0  0  0  0  0  0  0  0  0
  191.0310  177.7080  140.5200 C   0  0  2  0  0  3  0  0  0  0  0  0
  195.0390  174.5180  136.9810 N   0  0  0  0  0  0  0  0  0  0  0  0
  193.4800  176.0380  137.9750 C   0  0  0  0  0  0  0  0  0  0  0  0
  195.2510  174.9690  139.3290 N   0  0  0  0  0  1  0  0  0  0  0  0
  194.5950  175.1810  138.0820 C   0  0  0  0  0  0  0  0  0  0  0  0
  193.3790  175.4760  135.6280 C   0  0  0  0  0  0  0  0  0  0  0  0
  192.8810  176.1810  136.7200 C   0  0  0  0  0  3  0  0  0  0  0  0
  194.4510  174.6610  135.7910 N   0  0  0  0  0  0  0  0  0  0  0  0
  192.7710  175.6140  134.3480 N   0  0  0  0  0  1  0  0  0  0  0  0
  191.4670  177.1980  141.8880 C   0  0  0  0  0  2  0  0  0  0  0  0
  190.6750  177.8870  142.9870 C   0  0  1  0  0  3  0  0  0  0  0  0
  190.3510  176.8920  144.0860 C   0  0  1  0  0  3  0  0  0  0  0  0
  191.6160  178.6170  143.9290 C   0  0  0  0  0  2  0  0  0  0  0  0
  191.2840  177.6290  145.0310 C   0  0  0  0  0  2  0  0  0  0  0  0
  185.7260  179.2870  146.1310 O   0  0  0  0  0  0  0  0  0  0  0  0
  188.6670  177.4850  145.7410 C   0  0  0  0  0  3  0  0  0  0  0  0
  187.8570  176.6180  143.6520 N   0  0  0  0  0  2  0  0  0  0  0  0
  185.9650  178.0130  144.2040 N   0  0  0  0  0  2  0  0  0  0  0  0
  186.8950  177.5940  143.1620 C   0  0  0  0  0  2  0  0  0  0  0  0
  188.9220  177.0200  144.5190 C   0  0  0  0  0  0  0  0  0  0  0  0
  186.3270  178.3480  145.5480 C   0  0  0  0  0  0  0  0  0  0  0  0
  187.2930  177.5150  146.3290 C   0  0  0  0  0  2  0  0  0  0  0  0
  188.1990  176.9520  138.5190 C   0  0  0  0  0  2  0  0  0  0  0  0
  188.9880  179.0540  136.9790 S   0  0  0  0  0  1  0  0  0  0  0  0
  188.8440  177.2580  137.1820 C   0  0  0  0  0  2  0  0  0  0  0  0
  1 29  1  6  0  0  0
  1  2  1  0  0  0  0
  2  7  1  0  0  0  0
  3  6  1  0  0  0  0
  3  5  2  0  0  0  0
  4  6  1  0  0  0  0
  4  1  1  0  0  0  0
  6  7  1  0  0  0  0
  7 16  1  1  0  0  0
  8 11  1  0  0  0  0
  9 11  2  0  0  0  0
  9  3  1  0  0  0  0
 11 10  1  0  0  0  0
 12 14  1  0  0  0  0
 12 13  2  0  0  0  0
 13  9  1  0  0  0  0
 14  8  2  0  0  0  0
 15 12  1  0  0  0  0
 17 16  1  6  0  0  0
 17 19  1  0  0  0  0
 17 18  1  0  0  0  0
 18 26  1  1  0  0  0
 18 20  1  0  0  0  0
 19 20  1  0  0  0  0
 22 28  1  0  0  0  0
 23 26  1  0  0  0  0
 24 27  1  0  0  0  0
 25 23  1  0  0  0  0
 25 24  1  0  0  0  0
 26 22  2  0  0  0  0
 27 21  2  0  0  0  0
 27 28  1  0  0  0  0
 30 31  1  0  0  0  0
 31 29  1  0  0  0  0
M  END
>  <MODEL>
6

>  <REMARK>
 VINA RESULT:      -8.1      2.769      9.427
  Name = 
  6 active torsions:
  status: ('A' for Active; 'I' for Inactive)
    1  A    between atoms: C_1  and  C_10
    2  A    between atoms: C_1  and  C_29
    3  A    between atoms: C_2  and  C_16
    4  A    between atoms: C_5  and  C_8
    5  A    between atoms: C_11  and  C_26
    6  A    between atoms: C_14  and  C_16
                            x       y       z     vdW  Elec       q    Type
                         _______ _______ _______ _____ _____    ______ ____

>  <TORSDO>
F 6

$$$$
=
 OpenBabel10222422063D

 31 34  0  0  1  0  0  0  0  0999 V2000
  186.9140  178.8090  141.1890 C   0  0  2  0  0  3  0  0  0  0  0  0
  186.6740  177.9460  142.3490 N   0  0  0  0  0  2  0  0  0  0  0  0
  183.1880  178.4220  141.1290 C   0  0  0  0  0  0  0  0  0  0  0  0
  185.5960  179.0110  140.4750 C   0  0  0  0  0  2  0  0  0  0  0  0
  182.4290  177.9620  142.0260 O   0  0  0  0  0  0  0  0  0  0  0  0
  184.6070  178.4720  141.3760 N   0  0  0  0  0  0  0  0  0  0  0  0
  185.2300  177.9080  142.5580 C   0  0  2  0  0  3  0  0  0  0  0  0
  181.9810  178.5340  137.5620 N   0  0  0  0  0  0  0  0  0  0  0  0
  182.5900  178.8860  139.8490 C   0  0  0  0  0  0  0  0  0  0  0  0
  182.9440  176.6930  138.7640 N   0  0  0  0  0  1  0  0  0  0  0  0
  182.5100  178.0500  138.7170 C   0  0  0  0  0  0  0  0  0  0  0  0
  181.5950  180.6410  138.5200 C   0  0  0  0  0  0  0  0  0  0  0  0
  182.1270  180.2000  139.7280 C   0  0  0  0  0  3  0  0  0  0  0  0
  181.5380  179.7900  137.4640 N   0  0  0  0  0  0  0  0  0  0  0  0
  181.1190  181.9750  138.3910 N   0  0  0  0  0  1  0  0  0  0  0  0
  184.8700  178.7370  143.7840 C   0  0  0  0  0  2  0  0  0  0  0  0
  185.3800  178.0620  145.0470 C   0  0  1  0  0  3  0  0  0  0  0  0
  186.4980  178.8900  145.6540 C   0  0  1  0  0  3  0  0  0  0  0  0
  184.4860  178.4130  146.2230 C   0  0  0  0  0  2  0  0  0  0  0  0
  185.6060  179.2310  146.8360 C   0  0  0  0  0  2  0  0  0  0  0  0
  191.7950  177.1830  146.2380 O   0  0  0  0  0  0  0  0  0  0  0  0
  188.5340  177.6550  145.1460 C   0  0  0  0  0  3  0  0  0  0  0  0
  187.7610  177.5590  147.4200 N   0  0  0  0  0  2  0  0  0  0  0  0
  190.1220  177.2850  147.8450 N   0  0  0  0  0  2  0  0  0  0  0  0
  188.8920  177.9610  148.2420 C   0  0  0  0  0  2  0  0  0  0  0  0
  187.6450  178.0180  146.0690 C   0  0  0  0  0  0  0  0  0  0  0  0
  190.5670  177.1030  146.4970 C   0  0  0  0  0  0  0  0  0  0  0  0
  189.6280  176.6730  145.4150 C   0  0  0  0  0  2  0  0  0  0  0  0
  187.9130  178.1600  140.2480 C   0  0  0  0  0  2  0  0  0  0  0  0
  190.3260  176.9440  139.9100 S   0  0  0  0  0  1  0  0  0  0  0  0
  189.0220  177.4980  141.0420 C   0  0  0  0  0  2  0  0  0  0  0  0
  1 29  1  6  0  0  0
  1  2  1  0  0  0  0
  2  7  1  0  0  0  0
  3  6  1  0  0  0  0
  3  5  2  0  0  0  0
  4  1  1  0  0  0  0
  4  6  1  0  0  0  0
  6  7  1  0  0  0  0
  7 16  1  1  0  0  0
  8 11  1  0  0  0  0
  9  3  1  0  0  0  0
 11 10  1  0  0  0  0
 11  9  2  0  0  0  0
 12 13  2  0  0  0  0
 13  9  1  0  0  0  0
 14  8  2  0  0  0  0
 14 12  1  0  0  0  0
 15 12  1  0  0  0  0
 17 16  1  6  0  0  0
 17 18  1  0  0  0  0
 17 19  1  0  0  0  0
 18 26  1  1  0  0  0
 18 20  1  0  0  0  0
 19 20  1  0  0  0  0
 21 27  2  0  0  0  0
 22 28  1  0  0  0  0
 22 26  2  0  0  0  0
 23 25  1  0  0  0  0
 24 25  1  0  0  0  0
 26 23  1  0  0  0  0
 27 24  1  0  0  0  0
 28 27  1  0  0  0  0
 29 31  1  0  0  0  0
 30 31  1  0  0  0  0
M  END
>  <MODEL>
7

>  <REMARK>
 VINA RESULT:      -8.0      4.016      7.195
  Name = 
  6 active torsions:
  status: ('A' for Active; 'I' for Inactive)
    1  A    between atoms: C_1  and  C_10
    2  A    between atoms: C_1  and  C_29
    3  A    between atoms: C_2  and  C_16
    4  A    between atoms: C_5  and  C_8
    5  A    between atoms: C_11  and  C_26
    6  A    between atoms: C_14  and  C_16
                            x       y       z     vdW  Elec       q    Type
                         _______ _______ _______ _____ _____    ______ ____

>  <TORSDO>
F 6

$$$$
=
 OpenBabel10222422063D

 31 34  0  0  1  0  0  0  0  0999 V2000
  184.5510  178.2530  142.9130 C   0  0  2  0  0  3  0  0  0  0  0  0
  185.8130  178.9450  142.6370 N   0  0  0  0  0  2  0  0  0  0  0  0
  184.1960  179.1310  139.2880 C   0  0  0  0  0  0  0  0  0  0  0  0
  183.6880  178.3420  141.6740 C   0  0  0  0  0  2  0  0  0  0  0  0
  185.0800  179.5380  138.4850 O   0  0  0  0  0  0  0  0  0  0  0  0
  184.5680  178.8570  140.6540 N   0  0  0  0  0  0  0  0  0  0  0  0
  185.8840  179.1390  141.1920 C   0  0  2  0  0  3  0  0  0  0  0  0
  180.6600  179.8380  138.1960 N   0  0  0  0  0  0  0  0  0  0  0  0
  182.8030  178.9590  138.7970 C   0  0  0  0  0  0  0  0  0  0  0  0
  182.3710  181.3920  138.8440 N   0  0  0  0  0  1  0  0  0  0  0  0
  181.9340  180.0540  138.6190 C   0  0  0  0  0  0  0  0  0  0  0  0
  180.9920  177.5170  138.1080 C   0  0  0  0  0  0  0  0  0  0  0  0
  182.3050  177.6780  138.5390 C   0  0  0  0  0  3  0  0  0  0  0  0
  180.2010  178.6090  137.9490 N   0  0  0  0  0  0  0  0  0  0  0  0
  180.4790  176.2170  137.8400 N   0  0  0  0  0  1  0  0  0  0  0  0
  186.9090  178.1800  140.5990 C   0  0  0  0  0  2  0  0  0  0  0  0
  188.2710  178.3990  141.2370 C   0  0  1  0  0  3  0  0  0  0  0  0
  188.6890  177.1500  141.9910 C   0  0  1  0  0  3  0  0  0  0  0  0
  189.3700  178.1490  140.2200 C   0  0  0  0  0  2  0  0  0  0  0  0
  189.7950  176.9070  140.9800 C   0  0  0  0  0  2  0  0  0  0  0  0
  190.1330  176.4980  147.3580 O   0  0  0  0  0  0  0  0  0  0  0  0
  188.4840  177.3070  144.4130 C   0  0  0  0  0  3  0  0  0  0  0  0
  190.5580  178.0620  143.4610 N   0  0  0  0  0  2  0  0  0  0  0  0
  191.3990  177.3610  145.6140 N   0  0  0  0  0  2  0  0  0  0  0  0
  191.6060  177.3430  144.1700 C   0  0  0  0  0  2  0  0  0  0  0  0
  189.2470  177.5000  143.3380 C   0  0  0  0  0  0  0  0  0  0  0  0
  190.1490  177.1330  146.2720 C   0  0  0  0  0  0  0  0  0  0  0  0
  188.8810  177.7560  145.7820 C   0  0  0  0  0  2  0  0  0  0  0  0
  183.8390  178.9070  144.0830 C   0  0  0  0  0  2  0  0  0  0  0  0
  185.1760  178.4170  146.4040 S   0  0  0  0  0  1  0  0  0  0  0  0
  184.8470  179.5410  145.0200 C   0  0  0  0  0  2  0  0  0  0  0  0
  1 29  1  1  0  0  0
  2  1  1  0  0  0  0
  3  6  1  0  0  0  0
  4  1  1  0  0  0  0
  5  3  2  0  0  0  0
  6  7  1  0  0  0  0
  6  4  1  0  0  0  0
  7 16  1  6  0  0  0
  7  2  1  0  0  0  0
  8 11  1  0  0  0  0
  9  3  1  0  0  0  0
 11  9  2  0  0  0  0
 11 10  1  0  0  0  0
 12 13  2  0  0  0  0
 13  9  1  0  0  0  0
 14 12  1  0  0  0  0
 14  8  2  0  0  0  0
 15 12  1  0  0  0  0
 17 16  1  6  0  0  0
 17 18  1  0  0  0  0
 18 26  1  1  0  0  0
 19 20  1  0  0  0  0
 19 17  1  0  0  0  0
 20 18  1  0  0  0  0
 22 28  1  0  0  0  0
 23 25  1  0  0  0  0
 24 27  1  0  0  0  0
 25 24  1  0  0  0  0
 26 23  1  0  0  0  0
 26 22  2  0  0  0  0
 27 21  2  0  0  0  0
 28 27  1  0  0  0  0
 29 31  1  0  0  0  0
 31 30  1  0  0  0  0
M  END
>  <MODEL>
8

>  <REMARK>
 VINA RESULT:      -8.0      3.552      6.196
  Name = 
  6 active torsions:
  status: ('A' for Active; 'I' for Inactive)
    1  A    between atoms: C_1  and  C_10
    2  A    between atoms: C_1  and  C_29
    3  A    between atoms: C_2  and  C_16
    4  A    between atoms: C_5  and  C_8
    5  A    between atoms: C_11  and  C_26
    6  A    between atoms: C_14  and  C_16
                            x       y       z     vdW  Elec       q    Type
                         _______ _______ _______ _____ _____    ______ ____

>  <TORSDO>
F 6

$$$$
=
 OpenBabel10222422063D

 31 34  0  0  1  0  0  0  0  0999 V2000
  186.7500  178.1890  141.1060 C   0  0  2  0  0  3  0  0  0  0  0  0
  187.7390  178.9200  141.9020 N   0  0  0  0  0  2  0  0  0  0  0  0
  189.9220  177.5230  139.2280 C   0  0  0  0  0  0  0  0  0  0  0  0
  187.4450  177.6460  139.8770 C   0  0  0  0  0  2  0  0  0  0  0  0
  191.1120  177.7290  139.5930 O   0  0  0  0  0  0  0  0  0  0  0  0
  188.8490  177.8650  140.1270 N   0  0  0  0  0  0  0  0  0  0  0  0
  189.0550  178.5480  141.3890 C   0  0  2  0  0  3  0  0  0  0  0  0
  189.0130  177.1550  135.5900 N   0  0  0  0  0  0  0  0  0  0  0  0
  189.6740  176.9460  137.8810 C   0  0  0  0  0  0  0  0  0  0  0  0
  189.1110  179.1520  136.9190 N   0  0  0  0  0  1  0  0  0  0  0  0
  189.2550  177.7400  136.7930 C   0  0  0  0  0  0  0  0  0  0  0  0
  189.5460  175.0260  136.4190 C   0  0  0  0  0  0  0  0  0  0  0  0
  189.8080  175.5690  137.6730 C   0  0  0  0  0  3  0  0  0  0  0  0
  189.1520  175.8400  135.4070 N   0  0  0  0  0  0  0  0  0  0  0  0
  189.6850  173.6270  136.2000 N   0  0  0  0  0  1  0  0  0  0  0  0
  189.7440  177.6200  142.3800 C   0  0  0  0  0  2  0  0  0  0  0  0
  189.5050  178.0930  143.8050 C   0  0  1  0  0  3  0  0  0  0  0  0
  188.9980  176.9390  144.6490 C   0  0  1  0  0  3  0  0  0  0  0  0
  190.8080  178.0870  144.5830 C   0  0  0  0  0  2  0  0  0  0  0  0
  190.2980  176.9400  145.4350 C   0  0  0  0  0  2  0  0  0  0  0  0
  185.8940  180.2420  147.9300 O   0  0  0  0  0  0  0  0  0  0  0  0
  188.0960  177.8480  146.7210 C   0  0  0  0  0  3  0  0  0  0  0  0
  186.4980  177.2320  145.0350 N   0  0  0  0  0  2  0  0  0  0  0  0
  185.2280  178.9960  146.0880 N   0  0  0  0  0  2  0  0  0  0  0  0
  185.6660  178.4080  144.8270 C   0  0  0  0  0  2  0  0  0  0  0  0
  187.8430  177.3680  145.5040 C   0  0  0  0  0  0  0  0  0  0  0  0
  186.0600  179.2090  147.2330 C   0  0  0  0  0  0  0  0  0  0  0  0
  187.0200  178.1650  147.7080 C   0  0  0  0  0  2  0  0  0  0  0  0
  185.6210  179.1160  140.6900 C   0  0  0  0  0  2  0  0  0  0  0  0
  183.4270  179.4610  139.1160 S   0  0  0  0  0  1  0  0  0  0  0  0
  185.0370  178.6660  139.3660 C   0  0  0  0  0  2  0  0  0  0  0  0
  1 29  1  6  0  0  0
  1  2  1  0  0  0  0
  3  5  2  0  0  0  0
  3  6  1  0  0  0  0
  4  6  1  0  0  0  0
  4  1  1  0  0  0  0
  6  7  1  0  0  0  0
  7  2  1  0  0  0  0
  7 16  1  1  0  0  0
  8 11  1  0  0  0  0
  9  3  1  0  0  0  0
 11 10  1  0  0  0  0
 11  9  2  0  0  0  0
 12 13  2  0  0  0  0
 13  9  1  0  0  0  0
 14  8  2  0  0  0  0
 14 12  1  0  0  0  0
 15 12  1  0  0  0  0
 17 16  1  6  0  0  0
 17 19  1  0  0  0  0
 17 18  1  0  0  0  0
 18 20  1  0  0  0  0
 18 26  1  1  0  0  0
 19 20  1  0  0  0  0
 22 28  1  0  0  0  0
 23 26  1  0  0  0  0
 24 27  1  0  0  0  0
 25 23  1  0  0  0  0
 25 24  1  0  0  0  0
 26 22  2  0  0  0  0
 27 28  1  0  0  0  0
 27 21  2  0  0  0  0
 30 31  1  0  0  0  0
 31 29  1  0  0  0  0
M  END
>  <MODEL>
9

>  <REMARK>
 VINA RESULT:      -7.8      3.113      8.610
  Name = 
  6 active torsions:
  status: ('A' for Active; 'I' for Inactive)
    1  A    between atoms: C_1  and  C_10
    2  A    between atoms: C_1  and  C_29
    3  A    between atoms: C_2  and  C_16
    4  A    between atoms: C_5  and  C_8
    5  A    between atoms: C_11  and  C_26
    6  A    between atoms: C_14  and  C_16
                            x       y       z     vdW  Elec       q    Type
                         _______ _______ _______ _____ _____    ______ ____

>  <TORSDO>
F 6

$$$$
