=
 OpenBabel10232409203D

 30 34  0  0  1  0  0  0  0  0999 V2000
  185.3710  175.6740  137.3050 C   0  0  2  0  0  3  0  0  0  0  0  0
  183.5260  174.9680  135.8200 N   0  0  0  0  0  0  0  0  0  0  0  0
  185.0510  179.1490  140.4330 C   0  0  2  0  0  3  0  0  0  0  0  0
  186.0500  177.4650  134.5880 C   0  0  0  0  0  2  0  0  0  0  0  0
  184.6790  179.7640  139.2360 O   0  0  0  0  0  1  0  0  0  0  0  0
  182.5420  177.8790  139.1180 C   0  0  0  0  0  3  0  0  0  0  0  0
  184.1260  176.5370  137.5360 C   0  0  0  0  0  0  0  0  0  0  0  0
  183.6880  177.3380  134.3580 N   0  0  0  0  0  2  0  0  0  0  0  0
  182.4920  176.6000  134.4590 N   0  0  0  0  0  2  0  0  0  0  0  0
  186.1820  178.1600  140.2170 C   0  0  0  0  0  2  0  0  0  0  0  0
  184.7120  177.0610  135.1130 C   0  0  1  0  0  3  0  0  0  0  0  0
  186.4670  176.5640  137.6750 N   0  0  0  0  0  2  0  0  0  0  0  0
  188.9820  177.9450  138.2910 C   0  0  0  0  0  0  0  0  0  0  0  0
  188.8610  176.8500  137.2520 C   0  0  2  0  0  3  0  0  0  0  0  0
  182.5170  175.3020  135.0730 C   0  0  0  0  0  3  0  0  0  0  0  0
  182.7950  178.0100  140.5610 C   0  0  0  0  0  3  0  0  0  0  0  0
  187.3050  178.8240  139.7160 O   0  0  0  0  0  0  0  0  0  0  0  0
  189.6400  178.9450  138.0360 O   0  0  0  0  0  0  0  0  0  0  0  0
  184.5280  175.9780  136.1700 C   0  0  1  0  0  0  0  0  0  0  0  0
  183.8850  178.5160  141.1630 C   0  0  0  0  0  0  0  0  0  0  0  0
  188.2890  177.8360  139.6170 C   0  0  0  0  0  2  0  0  0  0  0  0
  187.4530  176.7740  136.6330 C   0  0  2  0  0  3  0  0  0  0  0  0
  187.0540  178.3380  135.8070 S   0  0  0  0  0  0  0  0  0  0  0  0
  183.3430  177.2180  138.3260 C   0  0  0  0  0  0  0  0  0  0  0  0
  190.7370  173.6620  137.1750 N   0  0  0  0  0  1  0  0  0  0  0  0
  189.2940  175.4830  137.7870 C   0  0  1  0  0  3  0  0  0  0  0  0
  190.5810  175.1040  137.1530 C   0  0  1  0  0  3  0  0  0  0  0  0
  190.5210  175.5890  138.4760 O   0  0  0  0  0  0  0  0  0  0  0  0
  183.9190  178.4380  142.5600 O   0  0  0  0  0  0  0  0  0  0  0  0
  184.6410  179.3650  143.3600 C   0  0  0  0  0  1  0  0  0  0  0  0
  1  7  1  1  0  0  0
  1 12  1  0  0  0  0
  3  5  1  6  0  0  0
  3 20  1  0  0  0  0
  4 23  1  0  0  0  0
  6 16  1  0  0  0  0
  7 24  2  0  0  0  0
  8  9  1  0  0  0  0
  8 11  1  0  0  0  0
  9 15  1  0  0  0  0
 10  3  1  0  0  0  0
 11  4  1  6  0  0  0
 11 19  1  0  0  0  0
 13 21  1  0  0  0  0
 14 26  1  0  0  0  0
 14 13  1  1  0  0  0
 15  2  2  0  0  0  0
 16 20  2  0  0  0  0
 17 10  1  0  0  0  0
 18 13  2  0  0  0  0
 19  2  1  6  0  0  0
 19  1  1  0  0  0  0
 19  7  1  0  0  0  0
 20 29  1  0  0  0  0
 21 17  1  0  0  0  0
 22 23  1  1  0  0  0
 22 14  1  0  0  0  0
 22 12  1  0  0  0  0
 24  6  2  0  0  0  0
 26 28  1  1  0  0  0
 27 25  1  1  0  0  0
 27 26  1  0  0  0  0
 27 28  1  0  0  0  0
 29 30  1  0  0  0  0
M  END
>  <MODEL>
1

>  <REMARK>
 VINA RESULT:      -5.9      0.000      0.000
  Name = 
  2 active torsions:
  status: ('A' for Active; 'I' for Inactive)
    1  A    between atoms: O_6  and  C_25
    2  A    between atoms: C_16  and  C_19
                            x       y       z     vdW  Elec       q    Type
                         _______ _______ _______ _____ _____    ______ ____

>  <TORSDO>
F 2

$$$$
=
 OpenBabel10232409203D

 30 34  0  0  1  0  0  0  0  0999 V2000
  184.0000  174.9170  137.6790 C   0  0  2  0  0  3  0  0  0  0  0  0
  181.8610  173.6810  137.6180 N   0  0  0  0  0  0  0  0  0  0  0  0
  184.5180  179.1940  139.5250 C   0  0  2  0  0  3  0  0  0  0  0  0
  182.8850  175.7690  134.6660 C   0  0  0  0  0  2  0  0  0  0  0  0
  183.4930  179.3720  138.5930 O   0  0  0  0  0  1  0  0  0  0  0  0
  182.0150  177.4460  140.0910 C   0  0  0  0  0  3  0  0  0  0  0  0
  182.8740  175.7470  138.3060 C   0  0  0  0  0  0  0  0  0  0  0  0
  180.7940  175.4590  135.7530 N   0  0  0  0  0  2  0  0  0  0  0  0
  179.9820  174.7350  136.6480 N   0  0  0  0  0  2  0  0  0  0  0  0
  185.5810  178.2450  139.0010 C   0  0  0  0  0  2  0  0  0  0  0  0
  182.0880  175.4900  135.8970 C   0  0  1  0  0  3  0  0  0  0  0  0
  184.9240  175.9310  137.1820 N   0  0  0  0  0  2  0  0  0  0  0  0
  187.0700  177.5590  136.0160 C   0  0  0  0  0  0  0  0  0  0  0  0
  186.6920  176.1840  135.5080 C   0  0  2  0  0  3  0  0  0  0  0  0
  180.5720  173.7070  137.4570 C   0  0  0  0  0  3  0  0  0  0  0  0
  182.9020  178.0470  141.0980 C   0  0  0  0  0  3  0  0  0  0  0  0
  186.1520  178.7660  137.8370 O   0  0  0  0  0  0  0  0  0  0  0  0
  187.2960  178.4550  135.2130 O   0  0  0  0  0  0  0  0  0  0  0  0
  182.6710  174.7980  137.1240 C   0  0  1  0  0  0  0  0  0  0  0  0
  184.0140  178.7730  140.8890 C   0  0  0  0  0  0  0  0  0  0  0  0
  187.1470  177.8490  137.4860 C   0  0  0  0  0  2  0  0  0  0  0  0
  185.2120  175.8430  135.7640 C   0  0  2  0  0  3  0  0  0  0  0  0
  184.1460  177.0360  134.9120 S   0  0  0  0  0  0  0  0  0  0  0  0
  182.4500  176.6060  139.1910 C   0  0  0  0  0  0  0  0  0  0  0  0
  188.6920  173.0770  135.3060 N   0  0  0  0  0  1  0  0  0  0  0  0
  187.6050  175.0840  136.0580 C   0  0  1  0  0  3  0  0  0  0  0  0
  188.2900  174.4160  134.9220 C   0  0  1  0  0  3  0  0  0  0  0  0
  188.9520  175.3570  135.7370 O   0  0  0  0  0  0  0  0  0  0  0  0
  184.7370  179.1510  142.0260 O   0  0  0  0  0  0  0  0  0  0  0  0
  184.7210  178.3940  143.2290 C   0  0  0  0  0  1  0  0  0  0  0  0
  1 12  1  6  0  0  0
  1  7  1  0  0  0  0
  3  5  1  6  0  0  0
  3 20  1  0  0  0  0
  4 23  1  0  0  0  0
  6 16  1  0  0  0  0
  7 24  2  0  0  0  0
  8 11  1  0  0  0  0
  8  9  1  0  0  0  0
  9 15  1  0  0  0  0
 10  3  1  0  0  0  0
 11  4  1  6  0  0  0
 11 19  1  0  0  0  0
 13 21  1  0  0  0  0
 14 22  1  0  0  0  0
 14 13  1  1  0  0  0
 14 26  1  0  0  0  0
 15  2  2  0  0  0  0
 17 10  1  0  0  0  0
 18 13  2  0  0  0  0
 19  2  1  1  0  0  0
 19  1  1  0  0  0  0
 19  7  1  0  0  0  0
 20 16  2  0  0  0  0
 20 29  1  0  0  0  0
 21 17  1  0  0  0  0
 22 23  1  6  0  0  0
 22 12  1  0  0  0  0
 24  6  2  0  0  0  0
 26 28  1  1  0  0  0
 27 25  1  1  0  0  0
 27 28  1  0  0  0  0
 27 26  1  0  0  0  0
 29 30  1  0  0  0  0
M  END
>  <MODEL>
2

>  <REMARK>
 VINA RESULT:      -5.2      2.076      2.518
  Name = 
  2 active torsions:
  status: ('A' for Active; 'I' for Inactive)
    1  A    between atoms: O_6  and  C_25
    2  A    between atoms: C_16  and  C_19
                            x       y       z     vdW  Elec       q    Type
                         _______ _______ _______ _____ _____    ______ ____

>  <TORSDO>
F 2

$$$$
=
 OpenBabel10232409203D

 30 34  0  0  1  0  0  0  0  0999 V2000
  185.4530  173.9060  137.6700 C   0  0  2  0  0  3  0  0  0  0  0  0
  184.0040  171.9310  137.3410 N   0  0  0  0  0  0  0  0  0  0  0  0
  183.8580  178.2510  138.4070 C   0  0  2  0  0  3  0  0  0  0  0  0
  185.2680  173.8260  134.3530 C   0  0  0  0  0  2  0  0  0  0  0  0
  183.2320  177.8810  137.2150 O   0  0  0  0  0  1  0  0  0  0  0  0
  182.0340  175.7550  138.6910 C   0  0  0  0  0  3  0  0  0  0  0  0
  183.9740  174.3030  137.7220 C   0  0  0  0  0  0  0  0  0  0  0  0
  183.1510  172.8710  134.8580 N   0  0  0  0  0  2  0  0  0  0  0  0
  182.3580  172.0160  135.6480 N   0  0  0  0  0  2  0  0  0  0  0  0
  185.2850  177.7350  138.4650 C   0  0  0  0  0  2  0  0  0  0  0  0
  184.2230  173.4290  135.3430 C   0  0  1  0  0  3  0  0  0  0  0  0
  186.1090  175.1230  137.2030 N   0  0  0  0  0  2  0  0  0  0  0  0
  187.8720  177.2870  136.2960 C   0  0  0  0  0  0  0  0  0  0  0  0
  188.1700  175.8180  136.0800 C   0  0  2  0  0  3  0  0  0  0  0  0
  182.9230  171.4260  136.8290 C   0  0  0  0  0  3  0  0  0  0  0  0
  182.2580  176.7890  139.7120 C   0  0  0  0  0  3  0  0  0  0  0  0
  186.0280  178.2730  137.4120 O   0  0  0  0  0  0  0  0  0  0  0  0
  188.0630  178.0790  135.3840 O   0  0  0  0  0  0  0  0  0  0  0  0
  184.5240  173.1980  136.8190 C   0  0  1  0  0  0  0  0  0  0  0  0
  183.0700  177.8570  139.6390 C   0  0  0  0  0  0  0  0  0  0  0  0
  187.3230  177.7830  137.6020 C   0  0  0  0  0  2  0  0  0  0  0  0
  186.8930  174.9610  135.9950 C   0  0  2  0  0  3  0  0  0  0  0  0
  185.8720  175.5080  134.6000 S   0  0  0  0  0  0  0  0  0  0  0  0
  183.0080  175.0380  138.1980 C   0  0  0  0  0  0  0  0  0  0  0  0
  190.9950  173.7410  137.2610 N   0  0  0  0  0  1  0  0  0  0  0  0
  189.1330  175.2540  137.1280 C   0  0  1  0  0  3  0  0  0  0  0  0
  190.3460  174.7460  136.4410 C   0  0  1  0  0  3  0  0  0  0  0  0
  190.3440  175.9790  137.1240 O   0  0  0  0  0  0  0  0  0  0  0  0
  183.1760  178.6420  140.7920 O   0  0  0  0  0  0  0  0  0  0  0  0
  184.0890  178.3420  141.8400 C   0  0  0  0  0  1  0  0  0  0  0  0
  1 12  1  6  0  0  0
  1  7  1  0  0  0  0
  3  5  1  6  0  0  0
  3 10  1  0  0  0  0
  3 20  1  0  0  0  0
  4 23  1  0  0  0  0
  6 16  1  0  0  0  0
  7 24  2  0  0  0  0
  8 11  1  0  0  0  0
  8  9  1  0  0  0  0
  9 15  1  0  0  0  0
 11  4  1  6  0  0  0
 11 19  1  0  0  0  0
 13 21  1  0  0  0  0
 14 13  1  1  0  0  0
 14 26  1  0  0  0  0
 15  2  2  0  0  0  0
 17 21  1  0  0  0  0
 17 10  1  0  0  0  0
 18 13  2  0  0  0  0
 19  2  1  1  0  0  0
 19  1  1  0  0  0  0
 19  7  1  0  0  0  0
 20 16  2  0  0  0  0
 20 29  1  0  0  0  0
 22 23  1  6  0  0  0
 22 14  1  0  0  0  0
 22 12  1  0  0  0  0
 24  6  2  0  0  0  0
 26 28  1  1  0  0  0
 27 28  1  0  0  0  0
 27 26  1  0  0  0  0
 27 25  1  1  0  0  0
 29 30  1  0  0  0  0
M  END
>  <MODEL>
3

>  <REMARK>
 VINA RESULT:      -5.2      2.209      2.657
  Name = 
  2 active torsions:
  status: ('A' for Active; 'I' for Inactive)
    1  A    between atoms: O_6  and  C_25
    2  A    between atoms: C_16  and  C_19
                            x       y       z     vdW  Elec       q    Type
                         _______ _______ _______ _____ _____    ______ ____

>  <TORSDO>
F 2

$$$$
=
 OpenBabel10232409203D

 30 34  0  0  1  0  0  0  0  0999 V2000
  195.8420  173.8420  138.1750 C   0  0  2  0  0  3  0  0  0  0  0  0
  198.1340  174.4800  138.8440 N   0  0  0  0  0  0  0  0  0  0  0  0
  194.7940  170.0100  135.6890 C   0  0  2  0  0  3  0  0  0  0  0  0
  196.6630  175.8840  135.6840 C   0  0  0  0  0  2  0  0  0  0  0  0
  195.7320  170.6620  134.8870 O   0  0  0  0  0  1  0  0  0  0  0  0
  197.5530  170.3790  137.0640 C   0  0  0  0  0  3  0  0  0  0  0  0
  196.8640  172.8270  137.6510 C   0  0  0  0  0  0  0  0  0  0  0  0
  198.8300  175.0580  136.2050 N   0  0  0  0  0  2  0  0  0  0  0  0
  199.7850  174.6630  137.1630 N   0  0  0  0  0  2  0  0  0  0  0  0
  193.8570  170.9990  136.3590 C   0  0  0  0  0  2  0  0  0  0  0  0
  197.5550  174.9670  136.4540 C   0  0  1  0  0  3  0  0  0  0  0  0
  194.7540  173.7510  137.2060 N   0  0  0  0  0  2  0  0  0  0  0  0
  192.3340  173.9380  135.5560 C   0  0  0  0  0  0  0  0  0  0  0  0
  192.8840  175.0900  136.3690 C   0  0  2  0  0  3  0  0  0  0  0  0
  199.3950  174.5540  138.5400 C   0  0  0  0  0  3  0  0  0  0  0  0
  196.6400  169.2400  137.2390 C   0  0  0  0  0  3  0  0  0  0  0  0
  193.1560  171.7210  135.3890 O   0  0  0  0  0  0  0  0  0  0  0  0
  191.9380  174.1420  134.4170 O   0  0  0  0  0  0  0  0  0  0  0  0
  197.1440  174.3260  137.7740 C   0  0  1  0  0  0  0  0  0  0  0  0
  195.4240  169.0670  136.6930 C   0  0  0  0  0  0  0  0  0  0  0  0
  192.2910  172.5460  136.1150 C   0  0  0  0  0  2  0  0  0  0  0  0
  194.4100  175.0030  136.5640 C   0  0  2  0  0  3  0  0  0  0  0  0
  195.2430  175.0430  134.9550 S   0  0  0  0  0  0  0  0  0  0  0  0
  197.2010  171.6050  137.3460 C   0  0  0  0  0  0  0  0  0  0  0  0
  191.2340  176.9900  139.0820 N   0  0  0  0  0  1  0  0  0  0  0  0
  192.1730  175.2510  137.7160 C   0  0  1  0  0  3  0  0  0  0  0  0
  191.4350  176.5380  137.7190 C   0  0  1  0  0  3  0  0  0  0  0  0
  190.7750  175.3060  137.5300 O   0  0  0  0  0  0  0  0  0  0  0  0
  194.7130  167.9330  137.0980 O   0  0  0  0  0  0  0  0  0  0  0  0
  193.8630  167.9280  138.2380 C   0  0  0  0  0  1  0  0  0  0  0  0
  1 12  1  6  0  0  0
  3  5  1  1  0  0  0
  3 10  1  0  0  0  0
  3 20  1  0  0  0  0
  6 16  1  0  0  0  0
  6 24  2  0  0  0  0
  7  1  1  0  0  0  0
  8 11  1  0  0  0  0
  8  9  1  0  0  0  0
  9 15  1  0  0  0  0
 11  4  1  1  0  0  0
 11 19  1  0  0  0  0
 13 21  1  0  0  0  0
 14 13  1  1  0  0  0
 14 22  1  0  0  0  0
 14 26  1  0  0  0  0
 15  2  2  0  0  0  0
 17 21  1  0  0  0  0
 17 10  1  0  0  0  0
 18 13  2  0  0  0  0
 19  7  1  6  0  0  0
 19  1  1  0  0  0  0
 19  2  1  0  0  0  0
 20 29  1  0  0  0  0
 20 16  2  0  0  0  0
 22 23  1  6  0  0  0
 22 12  1  0  0  0  0
 23  4  1  0  0  0  0
 24  7  2  0  0  0  0
 26 28  1  6  0  0  0
 26 27  1  0  0  0  0
 27 25  1  1  0  0  0
 28 27  1  0  0  0  0
 29 30  1  0  0  0  0
M  END
>  <MODEL>
4

>  <REMARK>
 VINA RESULT:      -5.0      6.877     12.085
  Name = 
  2 active torsions:
  status: ('A' for Active; 'I' for Inactive)
    1  A    between atoms: O_6  and  C_25
    2  A    between atoms: C_16  and  C_19
                            x       y       z     vdW  Elec       q    Type
                         _______ _______ _______ _____ _____    ______ ____

>  <TORSDO>
F 2

$$$$
=
 OpenBabel10232409203D

 30 34  0  0  1  0  0  0  0  0999 V2000
  182.6490  176.3970  139.5780 C   0  0  2  0  0  3  0  0  0  0  0  0
  181.0810  177.5500  141.1010 N   0  0  0  0  0  0  0  0  0  0  0  0
  186.8840  178.0380  138.4220 C   0  0  2  0  0  3  0  0  0  0  0  0
  180.8060  178.0920  137.3920 C   0  0  0  0  0  2  0  0  0  0  0  0
  186.0320  179.0900  138.0800 O   0  0  0  0  0  1  0  0  0  0  0  0
  185.2810  179.1630  140.8310 C   0  0  0  0  0  3  0  0  0  0  0  0
  183.2440  177.7210  140.0710 C   0  0  0  0  0  0  0  0  0  0  0  0
  180.6390  179.5790  139.2390 N   0  0  0  0  0  2  0  0  0  0  0  0
  180.4950  179.7890  140.6250 N   0  0  0  0  0  2  0  0  0  0  0  0
  186.2590  176.6930  138.0960 C   0  0  0  0  0  2  0  0  0  0  0  0
  181.1880  178.4910  138.7800 C   0  0  1  0  0  3  0  0  0  0  0  0
  183.2890  176.2060  138.2810 N   0  0  0  0  0  2  0  0  0  0  0  0
  184.2890  175.3790  135.6480 C   0  0  0  0  0  0  0  0  0  0  0  0
  182.9150  175.0200  136.1720 C   0  0  2  0  0  3  0  0  0  0  0  0
  180.5610  178.6660  141.5160 C   0  0  0  0  0  3  0  0  0  0  0  0
  186.6520  178.6320  140.8700 C   0  0  0  0  0  3  0  0  0  0  0  0
  186.0080  176.6070  136.7240 O   0  0  0  0  0  0  0  0  0  0  0  0
  184.4130  175.7440  134.4870 O   0  0  0  0  0  0  0  0  0  0  0  0
  181.7530  177.5100  139.7990 C   0  0  1  0  0  0  0  0  0  0  0  0
  187.3590  178.1010  139.8580 C   0  0  0  0  0  0  0  0  0  0  0  0
  185.4980  175.3180  136.5360 C   0  0  0  0  0  2  0  0  0  0  0  0
  182.3710  176.0600  137.1690 C   0  0  2  0  0  3  0  0  0  0  0  0
  182.2260  177.6770  136.3610 S   0  0  0  0  0  0  0  0  0  0  0  0
  184.2650  178.4430  140.4380 C   0  0  0  0  0  0  0  0  0  0  0  0
  181.3790  171.7280  136.8750 N   0  0  0  0  0  1  0  0  0  0  0  0
  182.8650  173.6130  136.7750 C   0  0  1  0  0  3  0  0  0  0  0  0
  181.8580  172.8100  136.0370 C   0  0  1  0  0  3  0  0  0  0  0  0
  183.2410  172.6520  135.8120 O   0  0  0  0  0  0  0  0  0  0  0  0
  188.6160  177.5770  140.1810 O   0  0  0  0  0  0  0  0  0  0  0  0
  189.7310  177.6680  139.3050 C   0  0  0  0  0  1  0  0  0  0  0  0
  1 12  1  6  0  0  0
  1 19  1  0  0  0  0
  1  7  1  0  0  0  0
  2 15  2  0  0  0  0
  3  5  1  1  0  0  0
  3 20  1  0  0  0  0
  6 16  1  0  0  0  0
  7 24  2  0  0  0  0
  8  9  1  0  0  0  0
  9 15  1  0  0  0  0
 10  3  1  0  0  0  0
 11  4  1  1  0  0  0
 11  8  1  0  0  0  0
 11 19  1  0  0  0  0
 13 21  1  0  0  0  0
 14 13  1  1  0  0  0
 14 26  1  0  0  0  0
 14 22  1  0  0  0  0
 17 10  1  0  0  0  0
 18 13  2  0  0  0  0
 19  7  1  1  0  0  0
 19  2  1  0  0  0  0
 20 29  1  0  0  0  0
 20 16  2  0  0  0  0
 21 17  1  0  0  0  0
 22 23  1  6  0  0  0
 22 12  1  0  0  0  0
 23  4  1  0  0  0  0
 24  6  2  0  0  0  0
 26 28  1  6  0  0  0
 27 26  1  0  0  0  0
 27 25  1  1  0  0  0
 28 27  1  0  0  0  0
 30 29  1  0  0  0  0
M  END
>  <MODEL>
5

>  <REMARK>
 VINA RESULT:      -4.9      3.418      5.632
  Name = 
  2 active torsions:
  status: ('A' for Active; 'I' for Inactive)
    1  A    between atoms: O_6  and  C_25
    2  A    between atoms: C_16  and  C_19
                            x       y       z     vdW  Elec       q    Type
                         _______ _______ _______ _____ _____    ______ ____

>  <TORSDO>
F 2

$$$$
=
 OpenBabel10232409203D

 30 34  0  0  1  0  0  0  0  0999 V2000
  183.1190  177.1420  140.1680 C   0  0  2  0  0  3  0  0  0  0  0  0
  180.8460  177.4100  141.1000 N   0  0  0  0  0  0  0  0  0  0  0  0
  187.0010  178.8490  142.1630 C   0  0  2  0  0  3  0  0  0  0  0  0
  182.1100  179.8650  138.5510 C   0  0  0  0  0  2  0  0  0  0  0  0
  186.1890  179.9760  142.0330 O   0  0  0  0  0  1  0  0  0  0  0  0
  184.3180  178.6220  143.7070 C   0  0  0  0  0  3  0  0  0  0  0  0
  183.1560  177.9530  141.4670 C   0  0  0  0  0  0  0  0  0  0  0  0
  180.8560  180.1440  140.5510 N   0  0  0  0  0  2  0  0  0  0  0  0
  180.0840  179.5920  141.5910 N   0  0  0  0  0  2  0  0  0  0  0  0
  186.8700  177.9320  140.9590 C   0  0  0  0  0  2  0  0  0  0  0  0
  181.7590  179.4340  139.9370 C   0  0  1  0  0  3  0  0  0  0  0  0
  184.2850  177.6290  139.4370 N   0  0  0  0  0  2  0  0  0  0  0  0
  186.4760  178.2670  137.5930 C   0  0  0  0  0  0  0  0  0  0  0  0
  185.1170  177.7800  137.1400 C   0  0  2  0  0  3  0  0  0  0  0  0
  179.9820  178.1650  141.7090 C   0  0  0  0  0  3  0  0  0  0  0  0
  185.6110  178.0590  144.1230 C   0  0  0  0  0  3  0  0  0  0  0  0
  187.2650  178.6090  139.8020 O   0  0  0  0  0  0  0  0  0  0  0  0
  187.0170  179.1860  136.9920 O   0  0  0  0  0  0  0  0  0  0  0  0
  182.0110  178.0240  140.4560 C   0  0  1  0  0  0  0  0  0  0  0  0
  186.7800  178.1020  143.4620 C   0  0  0  0  0  0  0  0  0  0  0  0
  187.1610  177.6590  138.7810 C   0  0  0  0  0  2  0  0  0  0  0  0
  183.9930  178.1630  138.1220 C   0  0  2  0  0  3  0  0  0  0  0  0
  183.8890  179.9660  138.2720 S   0  0  0  0  0  0  0  0  0  0  0  0
  183.7450  178.2960  142.5800 C   0  0  0  0  0  0  0  0  0  0  0  0
  184.1730  174.7420  135.2500 N   0  0  0  0  0  1  0  0  0  0  0  0
  185.0970  176.2760  136.8520 C   0  0  1  0  0  3  0  0  0  0  0  0
  184.7410  176.0640  135.4270 C   0  0  1  0  0  3  0  0  0  0  0  0
  186.0700  175.9480  135.8840 O   0  0  0  0  0  0  0  0  0  0  0  0
  187.8470  177.4010  144.0320 O   0  0  0  0  0  0  0  0  0  0  0  0
  188.2710  177.6100  145.3730 C   0  0  0  0  0  1  0  0  0  0  0  0
  1 12  1  6  0  0  0
  1 19  1  0  0  0  0
  1  7  1  0  0  0  0
  2 15  2  0  0  0  0
  3  5  1  6  0  0  0
  3 20  1  0  0  0  0
  6 16  1  0  0  0  0
  7 24  2  0  0  0  0
  8  9  1  0  0  0  0
  9 15  1  0  0  0  0
 10  3  1  0  0  0  0
 11  4  1  6  0  0  0
 11 19  1  0  0  0  0
 11  8  1  0  0  0  0
 13 21  1  0  0  0  0
 14 13  1  1  0  0  0
 14 22  1  0  0  0  0
 17 10  1  0  0  0  0
 18 13  2  0  0  0  0
 19  2  1  1  0  0  0
 19  7  1  0  0  0  0
 20 29  1  0  0  0  0
 20 16  2  0  0  0  0
 21 17  1  0  0  0  0
 22 23  1  1  0  0  0
 22 12  1  0  0  0  0
 23  4  1  0  0  0  0
 24  6  2  0  0  0  0
 26 28  1  6  0  0  0
 26 14  1  0  0  0  0
 27 25  1  1  0  0  0
 27 28  1  0  0  0  0
 27 26  1  0  0  0  0
 29 30  1  0  0  0  0
M  END
>  <MODEL>
6

>  <REMARK>
 VINA RESULT:      -4.8      3.243      4.831
  Name = 
  2 active torsions:
  status: ('A' for Active; 'I' for Inactive)
    1  A    between atoms: O_6  and  C_25
    2  A    between atoms: C_16  and  C_19
                            x       y       z     vdW  Elec       q    Type
                         _______ _______ _______ _____ _____    ______ ____

>  <TORSDO>
F 2

$$$$
=
 OpenBabel10232409203D

 30 34  0  0  1  0  0  0  0  0999 V2000
  187.5990  174.1590  137.4280 C   0  0  2  0  0  3  0  0  0  0  0  0
  187.9950  171.8700  136.5870 N   0  0  0  0  0  0  0  0  0  0  0  0
  184.7410  177.2600  135.3830 C   0  0  2  0  0  3  0  0  0  0  0  0
  190.3200  174.6450  135.5830 C   0  0  0  0  0  2  0  0  0  0  0  0
  185.6130  176.9030  134.3520 O   0  0  0  0  0  1  0  0  0  0  0  0
  184.6610  174.2350  134.6870 C   0  0  0  0  0  3  0  0  0  0  0  0
  186.8000  173.9060  136.1450 C   0  0  0  0  0  0  0  0  0  0  0  0
  189.3730  172.8380  134.3640 N   0  0  0  0  0  2  0  0  0  0  0  0
  188.6970  171.6020  134.3460 N   0  0  0  0  0  2  0  0  0  0  0  0
  185.4700  177.3640  136.7110 C   0  0  0  0  0  2  0  0  0  0  0  0
  189.2080  173.6780  135.3450 C   0  0  1  0  0  3  0  0  0  0  0  0
  187.8160  175.6020  137.4060 N   0  0  0  0  0  2  0  0  0  0  0  0
  188.5120  178.4240  137.8170 C   0  0  0  0  0  0  0  0  0  0  0  0
  189.3510  177.2720  138.3280 C   0  0  2  0  0  3  0  0  0  0  0  0
  188.1610  171.0780  135.5700 C   0  0  0  0  0  3  0  0  0  0  0  0
  183.5240  175.0560  135.1300 C   0  0  0  0  0  3  0  0  0  0  0  0
  186.4600  178.3480  136.6330 O   0  0  0  0  0  0  0  0  0  0  0  0
  189.0630  179.3840  137.2960 O   0  0  0  0  0  0  0  0  0  0  0  0
  188.1840  173.3120  136.4130 C   0  0  1  0  0  0  0  0  0  0  0  0
  183.5310  176.3540  135.4780 C   0  0  0  0  0  0  0  0  0  0  0  0
  187.0150  178.3960  137.9150 C   0  0  0  0  0  2  0  0  0  0  0  0
  189.2070  176.0050  137.4640 C   0  0  2  0  0  3  0  0  0  0  0  0
  189.7500  176.3470  135.7680 S   0  0  0  0  0  0  0  0  0  0  0  0
  185.7360  174.0820  135.4130 C   0  0  0  0  0  0  0  0  0  0  0  0
  190.2820  176.2780  141.7680 N   0  0  0  0  0  1  0  0  0  0  0  0
  189.0800  176.9570  139.8020 C   0  0  1  0  0  3  0  0  0  0  0  0
  190.3500  177.0760  140.5600 C   0  0  1  0  0  3  0  0  0  0  0  0
  189.3640  178.0820  140.6050 O   0  0  0  0  0  0  0  0  0  0  0  0
  182.3270  176.8790  135.9580 O   0  0  0  0  0  0  0  0  0  0  0  0
  181.7220  176.4290  137.1630 C   0  0  0  0  0  1  0  0  0  0  0  0
  1  7  1  6  0  0  0
  3  5  1  6  0  0  0
  3 20  1  0  0  0  0
  3 10  1  0  0  0  0
  4 23  1  0  0  0  0
  6 16  1  0  0  0  0
  6 24  2  0  0  0  0
  8 11  1  0  0  0  0
  9  8  1  0  0  0  0
  9 15  1  0  0  0  0
 11  4  1  1  0  0  0
 11 19  1  0  0  0  0
 12  1  1  0  0  0  0
 12 22  1  0  0  0  0
 13 21  1  0  0  0  0
 14 13  1  6  0  0  0
 14 26  1  0  0  0  0
 15  2  2  0  0  0  0
 16 20  2  0  0  0  0
 17 10  1  0  0  0  0
 17 21  1  0  0  0  0
 18 13  2  0  0  0  0
 19  7  1  6  0  0  0
 19  2  1  0  0  0  0
 19  1  1  0  0  0  0
 20 29  1  0  0  0  0
 22 23  1  6  0  0  0
 22 14  1  0  0  0  0
 24  7  2  0  0  0  0
 26 27  1  0  0  0  0
 26 28  1  1  0  0  0
 27 28  1  0  0  0  0
 27 25  1  1  0  0  0
 29 30  1  0  0  0  0
M  END
>  <MODEL>
7

>  <REMARK>
 VINA RESULT:      -4.8      3.158      4.881
  Name = 
  2 active torsions:
  status: ('A' for Active; 'I' for Inactive)
    1  A    between atoms: O_6  and  C_25
    2  A    between atoms: C_16  and  C_19
                            x       y       z     vdW  Elec       q    Type
                         _______ _______ _______ _____ _____    ______ ____

>  <TORSDO>
F 2

$$$$
=
 OpenBabel10232409203D

 30 34  0  0  1  0  0  0  0  0999 V2000
  183.8890  175.6150  137.5280 C   0  0  2  0  0  3  0  0  0  0  0  0
  181.5800  176.4610  137.7700 N   0  0  0  0  0  0  0  0  0  0  0  0
  187.7260  178.1000  138.5620 C   0  0  2  0  0  3  0  0  0  0  0  0
  183.3280  176.7550  134.4570 C   0  0  0  0  0  2  0  0  0  0  0  0
  187.0530  178.9190  137.6540 O   0  0  0  0  0  1  0  0  0  0  0  0
  184.9010  178.9520  139.5260 C   0  0  0  0  0  3  0  0  0  0  0  0
  183.8900  177.0590  138.0410 C   0  0  0  0  0  0  0  0  0  0  0  0
  181.9290  178.2530  135.6610 N   0  0  0  0  0  2  0  0  0  0  0  0
  181.0090  178.4900  136.7010 N   0  0  0  0  0  2  0  0  0  0  0  0
  187.6120  176.6350  138.1740 C   0  0  0  0  0  2  0  0  0  0  0  0
  182.8060  177.2930  135.7480 C   0  0  1  0  0  3  0  0  0  0  0  0
  185.1630  175.5110  136.8230 N   0  0  0  0  0  2  0  0  0  0  0  0
  187.5720  174.8040  135.3030 C   0  0  0  0  0  0  0  0  0  0  0  0
  186.2170  174.1740  135.0640 C   0  0  2  0  0  3  0  0  0  0  0  0
  180.7470  177.4520  137.6580 C   0  0  0  0  0  3  0  0  0  0  0  0
  186.0830  178.7410  140.3750 C   0  0  0  0  0  3  0  0  0  0  0  0
  188.1820  176.4310  136.9150 O   0  0  0  0  0  0  0  0  0  0  0  0
  188.2600  175.1330  134.3460 O   0  0  0  0  0  0  0  0  0  0  0  0
  182.8580  176.5100  137.0550 C   0  0  1  0  0  0  0  0  0  0  0  0
  187.3070  178.3330  139.9980 C   0  0  0  0  0  0  0  0  0  0  0  0
  188.0750  175.0550  136.6940 C   0  0  0  0  0  2  0  0  0  0  0  0
  185.0530  175.1130  135.4330 C   0  0  2  0  0  3  0  0  0  0  0  0
  185.1260  176.6180  134.4240 S   0  0  0  0  0  0  0  0  0  0  0  0
  184.4050  178.0070  138.7740 C   0  0  0  0  0  0  0  0  0  0  0  0
  185.1010  170.6590  135.3570 N   0  0  0  0  0  1  0  0  0  0  0  0
  186.0660  172.8210  135.7640 C   0  0  1  0  0  3  0  0  0  0  0  0
  185.7850  171.7800  134.7440 C   0  0  1  0  0  3  0  0  0  0  0  0
  187.0620  171.9250  135.3220 O   0  0  0  0  0  0  0  0  0  0  0  0
  188.2370  178.1170  141.0200 O   0  0  0  0  0  0  0  0  0  0  0  0
  187.8610  177.6580  142.3120 C   0  0  0  0  0  1  0  0  0  0  0  0
  1 12  1  6  0  0  0
  1  7  1  0  0  0  0
  3  5  1  6  0  0  0
  3 20  1  0  0  0  0
  6 16  1  0  0  0  0
  7 24  2  0  0  0  0
  8 11  1  0  0  0  0
  8  9  1  0  0  0  0
  9 15  1  0  0  0  0
 10  3  1  0  0  0  0
 11  4  1  6  0  0  0
 11 19  1  0  0  0  0
 13 21  1  0  0  0  0
 14 13  1  1  0  0  0
 14 22  1  0  0  0  0
 14 26  1  0  0  0  0
 15  2  2  0  0  0  0
 17 10  1  0  0  0  0
 18 13  2  0  0  0  0
 19  1  1  0  0  0  0
 19  2  1  1  0  0  0
 19  7  1  0  0  0  0
 20 16  2  0  0  0  0
 20 29  1  0  0  0  0
 21 17  1  0  0  0  0
 22 23  1  6  0  0  0
 22 12  1  0  0  0  0
 23  4  1  0  0  0  0
 24  6  2  0  0  0  0
 26 28  1  6  0  0  0
 27 28  1  0  0  0  0
 27 25  1  1  0  0  0
 27 26  1  0  0  0  0
 29 30  1  0  0  0  0
M  END
>  <MODEL>
8

>  <REMARK>
 VINA RESULT:      -4.7      2.665      3.745
  Name = 
  2 active torsions:
  status: ('A' for Active; 'I' for Inactive)
    1  A    between atoms: O_6  and  C_25
    2  A    between atoms: C_16  and  C_19
                            x       y       z     vdW  Elec       q    Type
                         _______ _______ _______ _____ _____    ______ ____

>  <TORSDO>
F 2

$$$$
=
 OpenBabel10232409203D

 30 34  0  0  1  0  0  0  0  0999 V2000
  187.1650  173.9710  137.5500 C   0  0  2  0  0  3  0  0  0  0  0  0
  187.8760  171.7020  136.8760 N   0  0  0  0  0  0  0  0  0  0  0  0
  183.4300  176.1910  135.7930 C   0  0  2  0  0  3  0  0  0  0  0  0
  189.3800  174.6990  135.1810 C   0  0  0  0  0  2  0  0  0  0  0  0
  184.1700  175.8660  134.6550 O   0  0  0  0  0  1  0  0  0  0  0  0
  183.8570  173.1380  135.4250 C   0  0  0  0  0  3  0  0  0  0  0  0
  186.2320  173.4060  136.4740 C   0  0  0  0  0  0  0  0  0  0  0  0
  188.6330  172.6020  134.3470 N   0  0  0  0  0  2  0  0  0  0  0  0
  188.2320  171.2710  134.5810 N   0  0  0  0  0  2  0  0  0  0  0  0
  184.3340  176.6040  136.9420 C   0  0  0  0  0  2  0  0  0  0  0  0
  188.4650  173.5210  135.2550 C   0  0  1  0  0  3  0  0  0  0  0  0
  187.0740  175.4130  137.3460 N   0  0  0  0  0  2  0  0  0  0  0  0
  187.2350  178.3440  137.3380 C   0  0  0  0  0  0  0  0  0  0  0  0
  188.3660  177.4450  137.7900 C   0  0  2  0  0  3  0  0  0  0  0  0
  188.0280  170.8250  135.9300 C   0  0  0  0  0  3  0  0  0  0  0  0
  182.6660  173.7870  135.9950 C   0  0  0  0  0  3  0  0  0  0  0  0
  185.0730  177.7340  136.5800 O   0  0  0  0  0  0  0  0  0  0  0  0
  187.4820  179.3100  136.6300 O   0  0  0  0  0  0  0  0  0  0  0  0
  187.7330  173.1180  136.5300 C   0  0  1  0  0  0  0  0  0  0  0  0
  182.4650  175.0990  136.2060 C   0  0  0  0  0  0  0  0  0  0  0  0
  185.8140  178.0550  137.7220 C   0  0  0  0  0  2  0  0  0  0  0  0
  188.3420  176.0690  137.0970 C   0  0  2  0  0  3  0  0  0  0  0  0
  188.5120  176.2750  135.3040 S   0  0  0  0  0  0  0  0  0  0  0  0
  185.0460  173.2840  135.9440 C   0  0  0  0  0  0  0  0  0  0  0  0
  190.0450  177.0920  141.0680 N   0  0  0  0  0  1  0  0  0  0  0  0
  188.4170  177.2850  139.3120 C   0  0  1  0  0  3  0  0  0  0  0  0
  189.7490  177.7230  139.7970 C   0  0  1  0  0  3  0  0  0  0  0  0
  188.6070  178.5390  139.9320 O   0  0  0  0  0  0  0  0  0  0  0  0
  181.2760  175.4520  136.8540 O   0  0  0  0  0  0  0  0  0  0  0  0
  181.0380  175.1670  138.2260 C   0  0  0  0  0  1  0  0  0  0  0  0
  1  7  1  6  0  0  0
  3  5  1  6  0  0  0
  3 20  1  0  0  0  0
  3 10  1  0  0  0  0
  4 23  1  0  0  0  0
  6 24  2  0  0  0  0
  6 16  1  0  0  0  0
  8  9  1  0  0  0  0
  8 11  1  0  0  0  0
  9 15  1  0  0  0  0
 11  4  1  1  0  0  0
 11 19  1  0  0  0  0
 12  1  1  0  0  0  0
 13 21  1  0  0  0  0
 14 13  1  1  0  0  0
 14 26  1  0  0  0  0
 15  2  2  0  0  0  0
 16 20  2  0  0  0  0
 17 10  1  0  0  0  0
 17 21  1  0  0  0  0
 18 13  2  0  0  0  0
 19  7  1  6  0  0  0
 19  2  1  0  0  0  0
 19  1  1  0  0  0  0
 20 29  1  0  0  0  0
 22 23  1  6  0  0  0
 22 12  1  0  0  0  0
 22 14  1  0  0  0  0
 24  7  2  0  0  0  0
 26 27  1  0  0  0  0
 26 28  1  1  0  0  0
 27 28  1  0  0  0  0
 27 25  1  1  0  0  0
 29 30  1  0  0  0  0
M  END
>  <MODEL>
9

>  <REMARK>
 VINA RESULT:      -4.5      3.038      4.887
  Name = 
  2 active torsions:
  status: ('A' for Active; 'I' for Inactive)
    1  A    between atoms: O_6  and  C_25
    2  A    between atoms: C_16  and  C_19
                            x       y       z     vdW  Elec       q    Type
                         _______ _______ _______ _____ _____    ______ ____

>  <TORSDO>
F 2

$$$$
