=
 OpenBabel10232410503D

 35 37  0  0  1  0  0  0  0  0999 V2000
  189.8560  177.4350  144.8650 C   0  0  0  0  0  0  0  0  0  0  0  0
  187.8650  177.2000  146.2430 C   0  0  0  0  0  3  0  0  0  0  0  0
  189.2450  177.0610  146.0790 C   0  0  0  0  0  0  0  0  0  0  0  0
  191.9380  177.5410  143.6910 O   0  0  0  0  0  0  0  0  0  0  0  0
  187.6760  178.0890  144.0110 C   0  0  0  0  0  3  0  0  0  0  0  0
  191.5190  176.4310  147.0000 C   0  0  0  0  0  0  0  0  0  0  0  0
  192.3860  175.9450  148.1050 C   0  0  0  0  0  1  0  0  0  0  0  0
  187.0740  177.7110  145.2160 C   0  0  0  0  0  0  0  0  0  0  0  0
  189.0590  177.9590  143.8170 C   0  0  0  0  0  0  0  0  0  0  0  0
  192.0660  176.7720  145.8720 N   0  0  0  0  0  0  0  0  0  0  0  0
  191.3230  177.2600  144.7530 C   0  0  0  0  0  0  0  0  0  0  0  0
  190.0320  176.4890  147.2260 C   0  0  0  0  0  2  0  0  0  0  0  0
  189.6620  178.3610  142.5750 N   0  0  0  0  0  2  0  0  0  0  0  0
  189.3360  177.9070  141.2540 C   0  0  0  0  0  0  0  0  0  0  0  0
  188.7630  176.9940  138.7130 C   0  0  0  0  0  0  0  0  0  0  0  0
  189.8360  176.5040  139.3960 N   0  0  0  0  0  0  0  0  0  0  0  0
  187.9610  177.9680  139.3190 C   0  0  0  0  0  3  0  0  0  0  0  0
  188.2650  178.4000  140.5710 N   0  0  0  0  0  0  0  0  0  0  0  0
  190.1390  176.9390  140.6490 C   0  0  0  0  0  3  0  0  0  0  0  0
  186.8170  175.4010  135.7860 C   0  0  0  0  0  1  0  0  0  0  0  0
  189.3030  176.6050  136.4350 O   0  0  0  0  0  0  0  0  0  0  0  0
  187.1870  175.8840  137.1070 N   0  0  0  0  0  2  0  0  0  0  0  0
  188.4540  176.4940  137.3640 C   0  0  0  0  0  0  0  0  0  0  0  0
  185.6950  177.8390  145.4180 O   0  0  0  0  0  0  0  0  0  0  0  0
  185.0620  179.0980  145.5870 C   0  0  0  0  0  2  0  0  0  0  0  0
  183.9110  179.2190  144.6130 C   0  0  0  0  0  2  0  0  0  0  0  0
  184.0960  178.2990  143.5460 O   0  0  0  0  0  0  0  0  0  0  0  0
  185.2380  179.5490  142.0030 O   0  0  0  0  0  0  0  0  0  0  0  0
  184.3200  178.7170  142.2330 C   0  0  0  0  0  0  0  0  0  0  0  0
  182.2860  178.8630  141.0210 O   0  0  0  0  0  1  0  0  0  0  0  0
  183.5030  178.1800  141.0970 C   0  0  1  0  0  3  0  0  0  0  0  0
  184.2640  178.3220  139.7880 C   0  0  0  0  0  2  0  0  0  0  0  0
  184.1240  180.5650  138.9980 O   0  0  0  0  0  1  0  0  0  0  0  0
  183.6590  179.3950  138.9520 C   0  0  0  0  0  0  0  0  0  0  0  0
  182.6070  179.0980  138.0910 O   0  0  0  0  0  0  0  0  0  0  0  0
  1  3  1  0  0  0  0
  3  2  2  0  0  0  0
  3 12  1  0  0  0  0
  4 11  2  0  0  0  0
  5  8  2  0  0  0  0
  6 12  1  0  0  0  0
  6  7  1  0  0  0  0
  8 24  1  0  0  0  0
  8  2  1  0  0  0  0
  9  5  1  0  0  0  0
  9  1  2  0  0  0  0
 10  6  2  0  0  0  0
 11  1  1  0  0  0  0
 11 10  1  0  0  0  0
 13  9  1  0  0  0  0
 14 13  1  0  0  0  0
 15 17  2  0  0  0  0
 15 16  1  0  0  0  0
 16 19  2  0  0  0  0
 17 18  1  0  0  0  0
 18 14  2  0  0  0  0
 19 14  1  0  0  0  0
 20 22  1  0  0  0  0
 21 23  2  0  0  0  0
 22 23  1  0  0  0  0
 23 15  1  0  0  0  0
 24 25  1  0  0  0  0
 26 25  1  0  0  0  0
 27 26  1  0  0  0  0
 28 29  2  0  0  0  0
 29 27  1  0  0  0  0
 31 30  1  6  0  0  0
 31 29  1  0  0  0  0
 32 31  1  0  0  0  0
 34 33  1  0  0  0  0
 34 32  1  0  0  0  0
 35 34  2  0  0  0  0
M  END
>  <MODEL>
1

>  <REMARK>
 VINA RESULT:      -8.2      0.000      0.000
  Name = 
  11 active torsions:
  status: ('A' for Active; 'I' for Inactive)
    1  A    between atoms: C_5  and  N_22
    2  A    between atoms: C_7  and  C_18
    3  A    between atoms: O_12  and  C_32
    4  A    between atoms: O_12  and  C_34
    5  A    between atoms: C_14  and  C_28
    6  A    between atoms: C_16  and  C_32
    7  A    between atoms: C_16  and  O_33
    8  A    between atoms: C_17  and  O_33
    9  A    between atoms: C_18  and  C_24
   10  A    between atoms: N_22  and  C_23
   11  A    between atoms: C_24  and  C_34
                            x       y       z     vdW  Elec       q    Type
                         _______ _______ _______ _____ _____    ______ ____

>  <TORSDO>
F 11

$$$$
=
 OpenBabel10232410503D

 35 37  0  0  1  0  0  0  0  0999 V2000
  189.1870  177.3080  145.3630 C   0  0  0  0  0  0  0  0  0  0  0  0
  190.5910  177.1840  143.3800 C   0  0  0  0  0  3  0  0  0  0  0  0
  190.4280  177.0240  144.7570 C   0  0  0  0  0  0  0  0  0  0  0  0
  188.0150  177.3820  147.4480 O   0  0  0  0  0  0  0  0  0  0  0  0
  188.2980  177.8990  143.1790 C   0  0  0  0  0  3  0  0  0  0  0  0
  191.3480  176.3500  147.0190 C   0  0  0  0  0  0  0  0  0  0  0  0
  192.4460  175.8270  147.8740 C   0  0  0  0  0  1  0  0  0  0  0  0
  189.5340  177.6220  142.5840 C   0  0  0  0  0  0  0  0  0  0  0  0
  188.1060  177.7490  144.5600 C   0  0  0  0  0  0  0  0  0  0  0  0
  190.2000  176.6230  147.5630 N   0  0  0  0  0  0  0  0  0  0  0  0
  189.0800  177.1210  146.8280 C   0  0  0  0  0  0  0  0  0  0  0  0
  191.6180  176.5620  145.5540 C   0  0  0  0  0  2  0  0  0  0  0  0
  186.8270  178.0310  145.1540 N   0  0  0  0  0  2  0  0  0  0  0  0
  185.5860  178.2920  144.4820 C   0  0  0  0  0  0  0  0  0  0  0  0
  183.1730  178.8130  143.2490 C   0  0  0  0  0  0  0  0  0  0  0  0
  183.3420  179.0830  144.5750 N   0  0  0  0  0  0  0  0  0  0  0  0
  184.2390  178.2660  142.5270 C   0  0  0  0  0  3  0  0  0  0  0  0
  185.4170  178.0180  143.1580 N   0  0  0  0  0  0  0  0  0  0  0  0
  184.5220  178.8330  145.2050 C   0  0  0  0  0  3  0  0  0  0  0  0
  180.2710  178.6610  140.7100 C   0  0  0  0  0  1  0  0  0  0  0  0
  181.0940  179.9490  143.0990 O   0  0  0  0  0  0  0  0  0  0  0  0
  181.5400  178.4330  141.3820 N   0  0  0  0  0  2  0  0  0  0  0  0
  181.8890  179.1070  142.5930 C   0  0  0  0  0  0  0  0  0  0  0  0
  189.7330  177.7680  141.2070 O   0  0  0  0  0  0  0  0  0  0  0  0
  188.6700  177.6880  140.2690 C   0  0  0  0  0  2  0  0  0  0  0  0
  189.0630  178.4090  138.9980 C   0  0  0  0  0  2  0  0  0  0  0  0
  187.8920  178.7940  138.2920 O   0  0  0  0  0  0  0  0  0  0  0  0
  187.8060  177.1110  136.7420 O   0  0  0  0  0  0  0  0  0  0  0  0
  187.1750  177.9000  137.4940 C   0  0  0  0  0  0  0  0  0  0  0  0
  185.2340  176.5620  137.2360 O   0  0  0  0  0  1  0  0  0  0  0  0
  185.6780  177.8530  137.5320 C   0  0  1  0  0  3  0  0  0  0  0  0
  185.1730  178.2790  138.9010 C   0  0  0  0  0  2  0  0  0  0  0  0
  184.2150  180.4530  139.0890 O   0  0  0  0  0  1  0  0  0  0  0  0
  184.0510  179.2480  138.7600 C   0  0  0  0  0  0  0  0  0  0  0  0
  182.8340  178.8320  138.2290 O   0  0  0  0  0  0  0  0  0  0  0  0
  1 11  1  0  0  0  0
  2  3  2  0  0  0  0
  3  1  1  0  0  0  0
  3 12  1  0  0  0  0
  5  9  1  0  0  0  0
  6 10  2  0  0  0  0
  6  7  1  0  0  0  0
  8  5  2  0  0  0  0
  8  2  1  0  0  0  0
  9 13  1  0  0  0  0
  9  1  2  0  0  0  0
 11  4  2  0  0  0  0
 11 10  1  0  0  0  0
 12  6  1  0  0  0  0
 14 13  1  0  0  0  0
 14 19  1  0  0  0  0
 15 16  1  0  0  0  0
 16 19  2  0  0  0  0
 17 18  1  0  0  0  0
 17 15  2  0  0  0  0
 18 14  2  0  0  0  0
 20 22  1  0  0  0  0
 22 23  1  0  0  0  0
 23 21  2  0  0  0  0
 23 15  1  0  0  0  0
 24  8  1  0  0  0  0
 25 24  1  0  0  0  0
 26 25  1  0  0  0  0
 27 26  1  0  0  0  0
 28 29  2  0  0  0  0
 29 31  1  0  0  0  0
 29 27  1  0  0  0  0
 31 30  1  1  0  0  0
 31 32  1  0  0  0  0
 34 32  1  0  0  0  0
 34 33  1  0  0  0  0
 35 34  2  0  0  0  0
M  END
>  <MODEL>
2

>  <REMARK>
 VINA RESULT:      -8.2      2.530      5.301
  Name = 
  11 active torsions:
  status: ('A' for Active; 'I' for Inactive)
    1  A    between atoms: C_5  and  N_22
    2  A    between atoms: C_7  and  C_18
    3  A    between atoms: O_12  and  C_32
    4  A    between atoms: O_12  and  C_34
    5  A    between atoms: C_14  and  C_28
    6  A    between atoms: C_16  and  C_32
    7  A    between atoms: C_16  and  O_33
    8  A    between atoms: C_17  and  O_33
    9  A    between atoms: C_18  and  C_24
   10  A    between atoms: N_22  and  C_23
   11  A    between atoms: C_24  and  C_34
                            x       y       z     vdW  Elec       q    Type
                         _______ _______ _______ _____ _____    ______ ____

>  <TORSDO>
F 11

$$$$
=
 OpenBabel10232410503D

 35 37  0  0  1  0  0  0  0  0999 V2000
  185.4580  178.5950  141.5580 C   0  0  0  0  0  0  0  0  0  0  0  0
  185.4780  177.9940  143.9150 C   0  0  0  0  0  3  0  0  0  0  0  0
  184.7730  178.3640  142.7680 C   0  0  0  0  0  0  0  0  0  0  0  0
  185.1940  179.2420  139.2690 O   0  0  0  0  0  0  0  0  0  0  0  0
  187.5470  178.0660  142.6830 C   0  0  0  0  0  3  0  0  0  0  0  0
  182.5850  178.8570  141.5920 C   0  0  0  0  0  0  0  0  0  0  0  0
  181.1020  178.9630  141.5940 C   0  0  0  0  0  1  0  0  0  0  0  0
  186.8630  177.8440  143.8820 C   0  0  0  0  0  0  0  0  0  0  0  0
  186.8660  178.4400  141.5150 C   0  0  0  0  0  0  0  0  0  0  0  0
  183.2310  179.0740  140.4860 N   0  0  0  0  0  0  0  0  0  0  0  0
  184.6540  178.9880  140.3780 C   0  0  0  0  0  0  0  0  0  0  0  0
  183.2810  178.5210  142.8830 C   0  0  0  0  0  2  0  0  0  0  0  0
  187.5850  178.6570  140.2880 N   0  0  0  0  0  2  0  0  0  0  0  0
  188.5920  177.8200  139.7020 C   0  0  0  0  0  0  0  0  0  0  0  0
  190.4850  176.1920  138.5260 C   0  0  0  0  0  0  0  0  0  0  0  0
  189.2600  176.3530  137.9490 N   0  0  0  0  0  0  0  0  0  0  0  0
  190.7640  176.8610  139.7230 C   0  0  0  0  0  3  0  0  0  0  0  0
  189.8140  177.6560  140.2820 N   0  0  0  0  0  0  0  0  0  0  0  0
  188.3110  177.1500  138.5110 C   0  0  0  0  0  3  0  0  0  0  0  0
  193.7810  175.0920  136.8470 C   0  0  0  0  0  1  0  0  0  0  0  0
  191.2710  174.1010  137.7230 O   0  0  0  0  0  0  0  0  0  0  0  0
  192.7360  175.8990  137.4550 N   0  0  0  0  0  2  0  0  0  0  0  0
  191.4960  175.3340  137.8870 C   0  0  0  0  0  0  0  0  0  0  0  0
  187.5350  177.4690  145.0500 O   0  0  0  0  0  0  0  0  0  0  0  0
  187.1940  177.9870  146.3280 C   0  0  0  0  0  2  0  0  0  0  0  0
  188.1250  177.4110  147.3720 C   0  0  0  0  0  2  0  0  0  0  0  0
  189.1870  176.7210  146.7280 O   0  0  0  0  0  0  0  0  0  0  0  0
  190.8170  177.3840  148.1930 O   0  0  0  0  0  0  0  0  0  0  0  0
  190.5270  176.9540  147.0460 C   0  0  0  0  0  0  0  0  0  0  0  0
  192.2940  175.5080  146.4010 O   0  0  0  0  0  1  0  0  0  0  0  0
  191.6180  176.6820  146.0550 C   0  0  1  0  0  3  0  0  0  0  0  0
  191.0390  176.5570  144.6550 C   0  0  0  0  0  2  0  0  0  0  0  0
  191.9870  177.8530  142.8940 O   0  0  0  0  0  0  0  0  0  0  0  0
  191.2300  177.8270  143.9020 C   0  0  0  0  0  0  0  0  0  0  0  0
  190.5450  178.9750  144.2860 O   0  0  0  0  0  1  0  0  0  0  0  0
  1  3  1  0  0  0  0
  3 12  1  0  0  0  0
  3  2  2  0  0  0  0
  4 11  2  0  0  0  0
  5  8  2  0  0  0  0
  6  7  1  0  0  0  0
  6 12  1  0  0  0  0
  8  2  1  0  0  0  0
  8 24  1  0  0  0  0
  9  1  2  0  0  0  0
  9  5  1  0  0  0  0
 10  6  2  0  0  0  0
 11 10  1  0  0  0  0
 11  1  1  0  0  0  0
 13  9  1  0  0  0  0
 14 18  2  0  0  0  0
 14 13  1  0  0  0  0
 15 17  2  0  0  0  0
 16 19  2  0  0  0  0
 16 15  1  0  0  0  0
 17 18  1  0  0  0  0
 19 14  1  0  0  0  0
 20 22  1  0  0  0  0
 21 23  2  0  0  0  0
 22 23  1  0  0  0  0
 23 15  1  0  0  0  0
 24 25  1  0  0  0  0
 25 26  1  0  0  0  0
 27 29  1  0  0  0  0
 27 26  1  0  0  0  0
 29 28  2  0  0  0  0
 31 30  1  1  0  0  0
 31 29  1  0  0  0  0
 32 31  1  0  0  0  0
 33 34  2  0  0  0  0
 34 35  1  0  0  0  0
 34 32  1  0  0  0  0
M  END
>  <MODEL>
3

>  <REMARK>
 VINA RESULT:      -8.1      2.355      6.831
  Name = 
  11 active torsions:
  status: ('A' for Active; 'I' for Inactive)
    1  A    between atoms: C_5  and  N_22
    2  A    between atoms: C_7  and  C_18
    3  A    between atoms: O_12  and  C_32
    4  A    between atoms: O_12  and  C_34
    5  A    between atoms: C_14  and  C_28
    6  A    between atoms: C_16  and  C_32
    7  A    between atoms: C_16  and  O_33
    8  A    between atoms: C_17  and  O_33
    9  A    between atoms: C_18  and  C_24
   10  A    between atoms: N_22  and  C_23
   11  A    between atoms: C_24  and  C_34
                            x       y       z     vdW  Elec       q    Type
                         _______ _______ _______ _____ _____    ______ ____

>  <TORSDO>
F 11

$$$$
=
 OpenBabel10232410503D

 35 37  0  0  1  0  0  0  0  0999 V2000
  189.2080  177.3050  145.3570 C   0  0  0  0  0  0  0  0  0  0  0  0
  190.6260  177.2210  143.3830 C   0  0  0  0  0  3  0  0  0  0  0  0
  190.4560  177.0440  144.7570 C   0  0  0  0  0  0  0  0  0  0  0  0
  188.0220  177.3410  147.4350 O   0  0  0  0  0  0  0  0  0  0  0  0
  188.3250  177.9080  143.1740 C   0  0  0  0  0  3  0  0  0  0  0  0
  191.3700  176.3580  147.0180 C   0  0  0  0  0  0  0  0  0  0  0  0
  192.4700  175.8400  147.8740 C   0  0  0  0  0  1  0  0  0  0  0  0
  189.5680  177.6530  142.5840 C   0  0  0  0  0  0  0  0  0  0  0  0
  188.1260  177.7400  144.5520 C   0  0  0  0  0  0  0  0  0  0  0  0
  190.2160  176.6110  147.5570 N   0  0  0  0  0  0  0  0  0  0  0  0
  189.0930  177.1010  146.8200 C   0  0  0  0  0  0  0  0  0  0  0  0
  191.6470  176.5890  145.5570 C   0  0  0  0  0  2  0  0  0  0  0  0
  186.8390  177.9990  145.1400 N   0  0  0  0  0  2  0  0  0  0  0  0
  185.6040  178.2700  144.4630 C   0  0  0  0  0  0  0  0  0  0  0  0
  183.2000  178.8110  143.2210 C   0  0  0  0  0  0  0  0  0  0  0  0
  183.3560  179.0500  144.5540 N   0  0  0  0  0  0  0  0  0  0  0  0
  184.2750  178.2840  142.4960 C   0  0  0  0  0  3  0  0  0  0  0  0
  185.4480  178.0270  143.1320 N   0  0  0  0  0  0  0  0  0  0  0  0
  184.5310  178.7910  145.1880 C   0  0  0  0  0  3  0  0  0  0  0  0
  180.3560  178.7650  140.6120 C   0  0  0  0  0  1  0  0  0  0  0  0
  181.0890  179.8910  143.1100 O   0  0  0  0  0  0  0  0  0  0  0  0
  181.6180  178.5240  141.2930 N   0  0  0  0  0  2  0  0  0  0  0  0
  181.9200  179.1140  142.5600 C   0  0  0  0  0  0  0  0  0  0  0  0
  189.7740  177.8160  141.2110 O   0  0  0  0  0  0  0  0  0  0  0  0
  190.7360  177.0610  140.4880 C   0  0  0  0  0  2  0  0  0  0  0  0
  190.1350  176.6030  139.1760 C   0  0  0  0  0  2  0  0  0  0  0  0
  190.0570  177.7050  138.2830 O   0  0  0  0  0  0  0  0  0  0  0  0
  188.9480  179.5850  137.5900 O   0  0  0  0  0  0  0  0  0  0  0  0
  188.8810  178.4380  138.1060 C   0  0  0  0  0  0  0  0  0  0  0  0
  187.0090  178.6220  139.5500 O   0  0  0  0  0  1  0  0  0  0  0  0
  187.5490  177.8760  138.4990 C   0  0  1  0  0  3  0  0  0  0  0  0
  186.6010  177.8860  137.3110 C   0  0  0  0  0  2  0  0  0  0  0  0
  187.0960  175.5550  137.2650 O   0  0  0  0  0  1  0  0  0  0  0  0
  186.4800  176.5180  136.7350 C   0  0  0  0  0  0  0  0  0  0  0  0
  185.6560  176.2950  135.6360 O   0  0  0  0  0  0  0  0  0  0  0  0
  1 11  1  0  0  0  0
  2  3  2  0  0  0  0
  3  1  1  0  0  0  0
  3 12  1  0  0  0  0
  5  9  1  0  0  0  0
  6 10  2  0  0  0  0
  6  7  1  0  0  0  0
  8  5  2  0  0  0  0
  8  2  1  0  0  0  0
  9 13  1  0  0  0  0
  9  1  2  0  0  0  0
 11  4  2  0  0  0  0
 11 10  1  0  0  0  0
 12  6  1  0  0  0  0
 14 13  1  0  0  0  0
 14 19  1  0  0  0  0
 15 16  1  0  0  0  0
 16 19  2  0  0  0  0
 17 18  1  0  0  0  0
 17 15  2  0  0  0  0
 18 14  2  0  0  0  0
 20 22  1  0  0  0  0
 22 23  1  0  0  0  0
 23 21  2  0  0  0  0
 23 15  1  0  0  0  0
 24  8  1  0  0  0  0
 25 24  1  0  0  0  0
 26 25  1  0  0  0  0
 27 26  1  0  0  0  0
 28 29  2  0  0  0  0
 29 27  1  0  0  0  0
 29 31  1  0  0  0  0
 31 30  1  1  0  0  0
 32 31  1  0  0  0  0
 34 33  1  0  0  0  0
 34 32  1  0  0  0  0
 35 34  2  0  0  0  0
M  END
>  <MODEL>
4

>  <REMARK>
 VINA RESULT:      -8.1      2.667      5.675
  Name = 
  11 active torsions:
  status: ('A' for Active; 'I' for Inactive)
    1  A    between atoms: C_5  and  N_22
    2  A    between atoms: C_7  and  C_18
    3  A    between atoms: O_12  and  C_32
    4  A    between atoms: O_12  and  C_34
    5  A    between atoms: C_14  and  C_28
    6  A    between atoms: C_16  and  C_32
    7  A    between atoms: C_16  and  O_33
    8  A    between atoms: C_17  and  O_33
    9  A    between atoms: C_18  and  C_24
   10  A    between atoms: N_22  and  C_23
   11  A    between atoms: C_24  and  C_34
                            x       y       z     vdW  Elec       q    Type
                         _______ _______ _______ _____ _____    ______ ____

>  <TORSDO>
F 11

$$$$
=
 OpenBabel10232410503D

 35 37  0  0  1  0  0  0  0  0999 V2000
  189.7640  177.4720  144.9370 C   0  0  0  0  0  0  0  0  0  0  0  0
  187.7980  177.2570  146.3530 C   0  0  0  0  0  3  0  0  0  0  0  0
  189.1740  177.1130  146.1660 C   0  0  0  0  0  0  0  0  0  0  0  0
  191.8240  177.5600  143.7240 O   0  0  0  0  0  0  0  0  0  0  0  0
  187.5700  178.1240  144.1160 C   0  0  0  0  0  3  0  0  0  0  0  0
  191.4620  176.4850  147.0500 C   0  0  0  0  0  0  0  0  0  0  0  0
  192.3480  176.0070  148.1450 C   0  0  0  0  0  1  0  0  0  0  0  0
  186.9890  177.7600  145.3360 C   0  0  0  0  0  0  0  0  0  0  0  0
  188.9490  177.9880  143.8980 C   0  0  0  0  0  0  0  0  0  0  0  0
  191.9900  176.8130  145.9090 N   0  0  0  0  0  0  0  0  0  0  0  0
  191.2270  177.2920  144.7990 C   0  0  0  0  0  0  0  0  0  0  0  0
  189.9810  176.5500  147.3040 C   0  0  0  0  0  2  0  0  0  0  0  0
  189.5300  178.3750  142.6410 N   0  0  0  0  0  2  0  0  0  0  0  0
  189.0710  178.0450  141.3230 C   0  0  0  0  0  0  0  0  0  0  0  0
  188.1320  177.4510  138.7970 C   0  0  0  0  0  0  0  0  0  0  0  0
  187.4760  178.3520  139.5810 N   0  0  0  0  0  0  0  0  0  0  0  0
  189.2840  176.8310  139.2940 C   0  0  0  0  0  3  0  0  0  0  0  0
  189.7250  177.1410  140.5420 N   0  0  0  0  0  0  0  0  0  0  0  0
  187.9190  178.6600  140.8310 C   0  0  0  0  0  3  0  0  0  0  0  0
  187.6320  175.6260  135.4330 C   0  0  0  0  0  1  0  0  0  0  0  0
  186.7880  177.9060  136.8950 O   0  0  0  0  0  0  0  0  0  0  0  0
  188.1130  175.9890  136.7570 N   0  0  0  0  0  2  0  0  0  0  0  0
  187.6350  177.1480  137.4450 C   0  0  0  0  0  0  0  0  0  0  0  0
  185.6150  177.8940  145.5610 O   0  0  0  0  0  0  0  0  0  0  0  0
  184.9230  179.1170  145.3540 C   0  0  0  0  0  2  0  0  0  0  0  0
  183.5100  178.8250  144.8980 C   0  0  0  0  0  2  0  0  0  0  0  0
  183.2750  179.4650  143.6510 O   0  0  0  0  0  0  0  0  0  0  0  0
  181.0240  179.4140  143.2350 O   0  0  0  0  0  0  0  0  0  0  0  0
  182.1870  179.1370  142.8400 C   0  0  0  0  0  0  0  0  0  0  0  0
  181.7130  179.2090  140.5160 O   0  0  0  0  0  1  0  0  0  0  0  0
  182.3820  178.4830  141.5060 C   0  0  1  0  0  3  0  0  0  0  0  0
  183.8630  178.3930  141.1750 C   0  0  0  0  0  2  0  0  0  0  0  0
  184.4690  179.9900  139.5130 O   0  0  0  0  0  1  0  0  0  0  0  0
  184.1050  178.8100  139.7660 C   0  0  0  0  0  0  0  0  0  0  0  0
  183.9670  177.8880  138.7330 O   0  0  0  0  0  0  0  0  0  0  0  0
  1  3  1  0  0  0  0
  3  2  2  0  0  0  0
  3 12  1  0  0  0  0
  4 11  2  0  0  0  0
  5  8  2  0  0  0  0
  6 12  1  0  0  0  0
  6  7  1  0  0  0  0
  8 24  1  0  0  0  0
  8  2  1  0  0  0  0
  9  5  1  0  0  0  0
  9  1  2  0  0  0  0
 10  6  2  0  0  0  0
 11  1  1  0  0  0  0
 11 10  1  0  0  0  0
 13  9  1  0  0  0  0
 14 13  1  0  0  0  0
 15 17  2  0  0  0  0
 15 16  1  0  0  0  0
 16 19  2  0  0  0  0
 17 18  1  0  0  0  0
 18 14  2  0  0  0  0
 19 14  1  0  0  0  0
 20 22  1  0  0  0  0
 21 23  2  0  0  0  0
 22 23  1  0  0  0  0
 23 15  1  0  0  0  0
 25 24  1  0  0  0  0
 26 25  1  0  0  0  0
 27 26  1  0  0  0  0
 29 28  2  0  0  0  0
 29 27  1  0  0  0  0
 31 30  1  6  0  0  0
 31 29  1  0  0  0  0
 32 31  1  0  0  0  0
 33 34  1  0  0  0  0
 34 32  1  0  0  0  0
 35 34  2  0  0  0  0
M  END
>  <MODEL>
5

>  <REMARK>
 VINA RESULT:      -8.0      1.073      1.441
  Name = 
  11 active torsions:
  status: ('A' for Active; 'I' for Inactive)
    1  A    between atoms: C_5  and  N_22
    2  A    between atoms: C_7  and  C_18
    3  A    between atoms: O_12  and  C_32
    4  A    between atoms: O_12  and  C_34
    5  A    between atoms: C_14  and  C_28
    6  A    between atoms: C_16  and  C_32
    7  A    between atoms: C_16  and  O_33
    8  A    between atoms: C_17  and  O_33
    9  A    between atoms: C_18  and  C_24
   10  A    between atoms: N_22  and  C_23
   11  A    between atoms: C_24  and  C_34
                            x       y       z     vdW  Elec       q    Type
                         _______ _______ _______ _____ _____    ______ ____

>  <TORSDO>
F 11

$$$$
=
 OpenBabel10232410503D

 35 37  0  0  1  0  0  0  0  0999 V2000
  189.1880  177.3050  145.3150 C   0  0  0  0  0  0  0  0  0  0  0  0
  190.5590  177.1050  143.3160 C   0  0  0  0  0  3  0  0  0  0  0  0
  190.4120  176.9760  144.6980 C   0  0  0  0  0  0  0  0  0  0  0  0
  188.0480  177.4520  147.4140 O   0  0  0  0  0  0  0  0  0  0  0  0
  188.2830  177.8750  143.1310 C   0  0  0  0  0  3  0  0  0  0  0  0
  191.3460  176.3250  146.9600 C   0  0  0  0  0  0  0  0  0  0  0  0
  192.4430  175.7910  147.8100 C   0  0  0  0  0  1  0  0  0  0  0  0
  189.5020  177.5530  142.5250 C   0  0  0  0  0  0  0  0  0  0  0  0
  188.1070  177.7580  144.5180 C   0  0  0  0  0  0  0  0  0  0  0  0
  190.2140  176.6400  147.5150 N   0  0  0  0  0  0  0  0  0  0  0  0
  189.0970  177.1510  146.7850 C   0  0  0  0  0  0  0  0  0  0  0  0
  191.6010  176.5000  145.4870 C   0  0  0  0  0  2  0  0  0  0  0  0
  186.8440  178.0850  145.1230 N   0  0  0  0  0  2  0  0  0  0  0  0
  185.5900  178.3200  144.4660 C   0  0  0  0  0  0  0  0  0  0  0  0
  183.1520  178.7880  143.2620 C   0  0  0  0  0  0  0  0  0  0  0  0
  183.3160  179.0140  144.5960 N   0  0  0  0  0  0  0  0  0  0  0  0
  184.2360  178.3130  142.5160 C   0  0  0  0  0  3  0  0  0  0  0  0
  185.4260  178.0900  143.1330 N   0  0  0  0  0  0  0  0  0  0  0  0
  184.5090  178.7890  145.2120 C   0  0  0  0  0  3  0  0  0  0  0  0
  180.1660  178.4810  140.8360 C   0  0  0  0  0  1  0  0  0  0  0  0
  181.0940  179.9560  143.0740 O   0  0  0  0  0  0  0  0  0  0  0  0
  181.4510  178.2820  141.4870 N   0  0  0  0  0  2  0  0  0  0  0  0
  181.8530  179.0530  142.6220 C   0  0  0  0  0  0  0  0  0  0  0  0
  189.6850  177.6660  141.1430 O   0  0  0  0  0  0  0  0  0  0  0  0
  188.6500  178.0900  140.2680 C   0  0  0  0  0  2  0  0  0  0  0  0
  188.6800  177.2540  139.0080 C   0  0  0  0  0  2  0  0  0  0  0  0
  189.8620  177.5460  138.2750 O   0  0  0  0  0  0  0  0  0  0  0  0
  190.2130  176.8650  136.1170 O   0  0  0  0  0  0  0  0  0  0  0  0
  190.4010  176.6560  137.3450 C   0  0  0  0  0  0  0  0  0  0  0  0
  190.4330  174.3150  137.7250 O   0  0  0  0  0  1  0  0  0  0  0  0
  191.2120  175.4730  137.7810 C   0  0  1  0  0  3  0  0  0  0  0  0
  192.4390  175.3200  136.8960 C   0  0  0  0  0  2  0  0  0  0  0  0
  194.2040  176.8930  136.5960 O   0  0  0  0  0  0  0  0  0  0  0  0
  193.5490  176.1760  137.3990 C   0  0  0  0  0  0  0  0  0  0  0  0
  193.8380  176.2130  138.7590 O   0  0  0  0  0  1  0  0  0  0  0  0
  1 11  1  0  0  0  0
  2  3  2  0  0  0  0
  3  1  1  0  0  0  0
  3 12  1  0  0  0  0
  5  9  1  0  0  0  0
  6 10  2  0  0  0  0
  6  7  1  0  0  0  0
  8  5  2  0  0  0  0
  8  2  1  0  0  0  0
  9 13  1  0  0  0  0
  9  1  2  0  0  0  0
 11  4  2  0  0  0  0
 11 10  1  0  0  0  0
 12  6  1  0  0  0  0
 14 13  1  0  0  0  0
 14 19  1  0  0  0  0
 15 16  1  0  0  0  0
 16 19  2  0  0  0  0
 17 18  1  0  0  0  0
 17 15  2  0  0  0  0
 18 14  2  0  0  0  0
 20 22  1  0  0  0  0
 22 23  1  0  0  0  0
 23 21  2  0  0  0  0
 23 15  1  0  0  0  0
 24  8  1  0  0  0  0
 25 24  1  0  0  0  0
 26 25  1  0  0  0  0
 27 26  1  0  0  0  0
 28 29  2  0  0  0  0
 29 31  1  0  0  0  0
 29 27  1  0  0  0  0
 31 30  1  6  0  0  0
 32 34  1  0  0  0  0
 32 31  1  0  0  0  0
 33 34  2  0  0  0  0
 34 35  1  0  0  0  0
M  END
>  <MODEL>
6

>  <REMARK>
 VINA RESULT:      -7.7      2.937      6.850
  Name = 
  11 active torsions:
  status: ('A' for Active; 'I' for Inactive)
    1  A    between atoms: C_5  and  N_22
    2  A    between atoms: C_7  and  C_18
    3  A    between atoms: O_12  and  C_32
    4  A    between atoms: O_12  and  C_34
    5  A    between atoms: C_14  and  C_28
    6  A    between atoms: C_16  and  C_32
    7  A    between atoms: C_16  and  O_33
    8  A    between atoms: C_17  and  O_33
    9  A    between atoms: C_18  and  C_24
   10  A    between atoms: N_22  and  C_23
   11  A    between atoms: C_24  and  C_34
                            x       y       z     vdW  Elec       q    Type
                         _______ _______ _______ _____ _____    ______ ____

>  <TORSDO>
F 11

$$$$
=
 OpenBabel10232410503D

 35 37  0  0  1  0  0  0  0  0999 V2000
  186.5350  178.0720  144.9840 C   0  0  0  0  0  0  0  0  0  0  0  0
  188.6270  177.1900  144.1090 C   0  0  0  0  0  3  0  0  0  0  0  0
  187.8560  177.6230  145.1890 C   0  0  0  0  0  0  0  0  0  0  0  0
  184.5980  178.9650  146.0670 O   0  0  0  0  0  0  0  0  0  0  0  0
  186.7940  177.6290  142.6070 C   0  0  0  0  0  3  0  0  0  0  0  0
  187.5780  178.0250  147.6740 C   0  0  0  0  0  0  0  0  0  0  0  0
  188.0980  177.9740  149.0670 C   0  0  0  0  0  1  0  0  0  0  0  0
  188.1060  177.1900  142.8160 C   0  0  0  0  0  0  0  0  0  0  0  0
  185.9960  178.0720  143.6740 C   0  0  0  0  0  0  0  0  0  0  0  0
  186.3660  178.4440  147.4680 N   0  0  0  0  0  0  0  0  0  0  0  0
  185.7710  178.5210  146.1710 C   0  0  0  0  0  0  0  0  0  0  0  0
  188.4910  177.6070  146.5530 C   0  0  0  0  0  2  0  0  0  0  0  0
  184.6470  178.5120  143.4420 N   0  0  0  0  0  2  0  0  0  0  0  0
  184.0050  178.7450  142.1800 C   0  0  0  0  0  0  0  0  0  0  0  0
  182.8280  179.2170  139.7290 C   0  0  0  0  0  0  0  0  0  0  0  0
  184.1650  179.4210  139.9030 N   0  0  0  0  0  0  0  0  0  0  0  0
  182.0640  178.7700  140.8130 C   0  0  0  0  0  3  0  0  0  0  0  0
  182.6680  178.5460  142.0100 N   0  0  0  0  0  0  0  0  0  0  0  0
  184.7670  179.1960  141.1020 C   0  0  0  0  0  3  0  0  0  0  0  0
  180.8990  180.9780  136.8880 C   0  0  0  0  0  1  0  0  0  0  0  0
  182.3020  178.5900  137.5020 O   0  0  0  0  0  0  0  0  0  0  0  0
  181.5030  180.6760  138.1760 N   0  0  0  0  0  2  0  0  0  0  0  0
  182.2090  179.4570  138.4160 C   0  0  0  0  0  0  0  0  0  0  0  0
  188.9060  176.7460  141.7590 O   0  0  0  0  0  0  0  0  0  0  0  0
  189.8410  177.5900  141.1030 C   0  0  0  0  0  2  0  0  0  0  0  0
  191.0710  176.7900  140.7330 C   0  0  0  0  0  2  0  0  0  0  0  0
  191.4290  177.0670  139.3870 O   0  0  0  0  0  0  0  0  0  0  0  0
  191.0570  175.0720  138.3260 O   0  0  0  0  0  0  0  0  0  0  0  0
  190.9280  176.3250  138.3150 C   0  0  0  0  0  0  0  0  0  0  0  0
  190.5030  176.3070  135.9820 O   0  0  0  0  0  1  0  0  0  0  0  0
  190.2280  176.9900  137.1690 C   0  0  1  0  0  3  0  0  0  0  0  0
  188.7290  177.0250  137.4170 C   0  0  0  0  0  2  0  0  0  0  0  0
  187.3880  178.4760  138.7490 O   0  0  0  0  0  1  0  0  0  0  0  0
  188.3150  178.3700  137.9030 C   0  0  0  0  0  0  0  0  0  0  0  0
  188.9780  179.5070  137.4520 O   0  0  0  0  0  0  0  0  0  0  0  0
  1  3  1  0  0  0  0
  1 11  1  0  0  0  0
  2  3  2  0  0  0  0
  3 12  1  0  0  0  0
  4 11  2  0  0  0  0
  5  8  2  0  0  0  0
  5  9  1  0  0  0  0
  6  7  1  0  0  0  0
  8  2  1  0  0  0  0
  9  1  2  0  0  0  0
 10  6  2  0  0  0  0
 11 10  1  0  0  0  0
 12  6  1  0  0  0  0
 13  9  1  0  0  0  0
 14 13  1  0  0  0  0
 15 16  1  0  0  0  0
 15 17  2  0  0  0  0
 16 19  2  0  0  0  0
 17 18  1  0  0  0  0
 18 14  2  0  0  0  0
 19 14  1  0  0  0  0
 20 22  1  0  0  0  0
 21 23  2  0  0  0  0
 22 23  1  0  0  0  0
 23 15  1  0  0  0  0
 24  8  1  0  0  0  0
 25 24  1  0  0  0  0
 26 25  1  0  0  0  0
 27 26  1  0  0  0  0
 29 28  2  0  0  0  0
 29 27  1  0  0  0  0
 31 30  1  6  0  0  0
 31 32  1  0  0  0  0
 31 29  1  0  0  0  0
 32 34  1  0  0  0  0
 34 33  1  0  0  0  0
 35 34  2  0  0  0  0
M  END
>  <MODEL>
7

>  <REMARK>
 VINA RESULT:      -7.7      2.898      6.106
  Name = 
  11 active torsions:
  status: ('A' for Active; 'I' for Inactive)
    1  A    between atoms: C_5  and  N_22
    2  A    between atoms: C_7  and  C_18
    3  A    between atoms: O_12  and  C_32
    4  A    between atoms: O_12  and  C_34
    5  A    between atoms: C_14  and  C_28
    6  A    between atoms: C_16  and  C_32
    7  A    between atoms: C_16  and  O_33
    8  A    between atoms: C_17  and  O_33
    9  A    between atoms: C_18  and  C_24
   10  A    between atoms: N_22  and  C_23
   11  A    between atoms: C_24  and  C_34
                            x       y       z     vdW  Elec       q    Type
                         _______ _______ _______ _____ _____    ______ ____

>  <TORSDO>
F 11

$$$$
=
 OpenBabel10232410503D

 35 37  0  0  1  0  0  0  0  0999 V2000
  187.8190  177.7550  144.6540 C   0  0  0  0  0  0  0  0  0  0  0  0
  185.4660  178.2990  144.9450 C   0  0  0  0  0  3  0  0  0  0  0  0
  186.7270  178.0590  145.4930 C   0  0  0  0  0  0  0  0  0  0  0  0
  190.1460  177.1990  144.6200 O   0  0  0  0  0  0  0  0  0  0  0  0
  186.3470  177.9510  142.7290 C   0  0  0  0  0  3  0  0  0  0  0  0
  188.2640  177.9140  147.5010 C   0  0  0  0  0  0  0  0  0  0  0  0
  188.5080  178.0260  148.9630 C   0  0  0  0  0  1  0  0  0  0  0  0
  185.2660  178.2460  143.5670 C   0  0  0  0  0  0  0  0  0  0  0  0
  187.6250  177.7030  143.2510 C   0  0  0  0  0  0  0  0  0  0  0  0
  189.2580  177.6270  146.7160 N   0  0  0  0  0  0  0  0  0  0  0  0
  189.1300  177.5070  145.2970 C   0  0  0  0  0  0  0  0  0  0  0  0
  186.8640  178.1190  146.9900 C   0  0  0  0  0  2  0  0  0  0  0  0
  188.7270  177.4080  142.3750 N   0  0  0  0  0  2  0  0  0  0  0  0
  188.7550  177.4900  140.9430 C   0  0  0  0  0  0  0  0  0  0  0  0
  188.7580  177.6920  138.1910 C   0  0  0  0  0  0  0  0  0  0  0  0
  187.9090  178.4540  138.9370 N   0  0  0  0  0  0  0  0  0  0  0  0
  189.6230  176.8050  138.8420 C   0  0  0  0  0  3  0  0  0  0  0  0
  189.6010  176.7250  140.1990 N   0  0  0  0  0  0  0  0  0  0  0  0
  187.8890  178.3710  140.2950 C   0  0  0  0  0  3  0  0  0  0  0  0
  189.7690  177.1570  134.5050 C   0  0  0  0  0  1  0  0  0  0  0  0
  187.9160  178.5470  136.1430 O   0  0  0  0  0  0  0  0  0  0  0  0
  189.7360  177.0970  135.9580 N   0  0  0  0  0  2  0  0  0  0  0  0
  188.7650  177.8140  136.7240 C   0  0  0  0  0  0  0  0  0  0  0  0
  183.9890  178.4960  143.0540 O   0  0  0  0  0  0  0  0  0  0  0  0
  182.9220  178.9740  143.8600 C   0  0  0  0  0  2  0  0  0  0  0  0
  181.6620  179.0660  143.0270 C   0  0  0  0  0  2  0  0  0  0  0  0
  181.9610  178.7300  141.6790 O   0  0  0  0  0  0  0  0  0  0  0  0
  180.1560  179.8620  140.8420 O   0  0  0  0  0  0  0  0  0  0  0  0
  181.2080  179.2110  140.6070 C   0  0  0  0  0  0  0  0  0  0  0  0
  180.5500  179.1370  138.3290 O   0  0  0  0  0  1  0  0  0  0  0  0
  181.6400  178.9820  139.1900 C   0  0  1  0  0  3  0  0  0  0  0  0
  182.7450  179.9550  138.8130 C   0  0  0  0  0  2  0  0  0  0  0  0
  184.7800  179.7720  140.0400 O   0  0  0  0  0  1  0  0  0  0  0  0
  184.0800  179.3500  139.0810 C   0  0  0  0  0  0  0  0  0  0  0  0
  184.5360  178.2950  138.2980 O   0  0  0  0  0  0  0  0  0  0  0  0
  1 11  1  0  0  0  0
  1  3  1  0  0  0  0
  2  3  2  0  0  0  0
  3 12  1  0  0  0  0
  4 11  2  0  0  0  0
  5  9  1  0  0  0  0
  5  8  2  0  0  0  0
  6  7  1  0  0  0  0
  8  2  1  0  0  0  0
  9  1  2  0  0  0  0
 10  6  2  0  0  0  0
 11 10  1  0  0  0  0
 12  6  1  0  0  0  0
 13  9  1  0  0  0  0
 14 13  1  0  0  0  0
 15 17  2  0  0  0  0
 15 16  1  0  0  0  0
 16 19  2  0  0  0  0
 17 18  1  0  0  0  0
 18 14  2  0  0  0  0
 19 14  1  0  0  0  0
 20 22  1  0  0  0  0
 21 23  2  0  0  0  0
 22 23  1  0  0  0  0
 23 15  1  0  0  0  0
 24  8  1  0  0  0  0
 24 25  1  0  0  0  0
 26 25  1  0  0  0  0
 27 26  1  0  0  0  0
 29 28  2  0  0  0  0
 29 27  1  0  0  0  0
 31 30  1  6  0  0  0
 31 29  1  0  0  0  0
 32 34  1  0  0  0  0
 32 31  1  0  0  0  0
 34 33  1  0  0  0  0
 35 34  2  0  0  0  0
M  END
>  <MODEL>
8

>  <REMARK>
 VINA RESULT:      -7.7      1.941      2.716
  Name = 
  11 active torsions:
  status: ('A' for Active; 'I' for Inactive)
    1  A    between atoms: C_5  and  N_22
    2  A    between atoms: C_7  and  C_18
    3  A    between atoms: O_12  and  C_32
    4  A    between atoms: O_12  and  C_34
    5  A    between atoms: C_14  and  C_28
    6  A    between atoms: C_16  and  C_32
    7  A    between atoms: C_16  and  O_33
    8  A    between atoms: C_17  and  O_33
    9  A    between atoms: C_18  and  C_24
   10  A    between atoms: N_22  and  C_23
   11  A    between atoms: C_24  and  C_34
                            x       y       z     vdW  Elec       q    Type
                         _______ _______ _______ _____ _____    ______ ____

>  <TORSDO>
F 11

$$$$
=
 OpenBabel10232410503D

 35 37  0  0  1  0  0  0  0  0999 V2000
  183.9990  178.6580  142.2790 C   0  0  0  0  0  0  0  0  0  0  0  0
  185.1820  178.8400  140.1620 C   0  0  0  0  0  3  0  0  0  0  0  0
  183.9860  178.8390  140.8810 C   0  0  0  0  0  0  0  0  0  0  0  0
  182.6210  178.4760  144.2270 O   0  0  0  0  0  0  0  0  0  0  0  0
  186.4230  178.4930  142.1980 C   0  0  0  0  0  3  0  0  0  0  0  0
  181.4640  179.0690  140.9620 C   0  0  0  0  0  0  0  0  0  0  0  0
  180.1580  179.3120  140.2940 C   0  0  0  0  0  1  0  0  0  0  0  0
  186.4030  178.6680  140.8100 C   0  0  0  0  0  0  0  0  0  0  0  0
  185.2370  178.4850  142.9470 C   0  0  0  0  0  0  0  0  0  0  0  0
  181.4930  178.8920  142.2480 N   0  0  0  0  0  0  0  0  0  0  0  0
  182.6960  178.6620  142.9840 C   0  0  0  0  0  0  0  0  0  0  0  0
  182.7050  179.0160  140.1120 C   0  0  0  0  0  2  0  0  0  0  0  0
  185.2760  178.3130  144.3740 N   0  0  0  0  0  2  0  0  0  0  0  0
  186.4240  178.0580  145.1960 C   0  0  0  0  0  0  0  0  0  0  0  0
  188.6600  177.5320  146.7250 C   0  0  0  0  0  0  0  0  0  0  0  0
  188.6010  177.1220  145.4270 N   0  0  0  0  0  0  0  0  0  0  0  0
  187.5690  178.2190  147.2700 C   0  0  0  0  0  3  0  0  0  0  0  0
  186.4790  178.4640  146.4950 N   0  0  0  0  0  0  0  0  0  0  0  0
  187.5090  177.3680  144.6540 C   0  0  0  0  0  3  0  0  0  0  0  0
  192.0440  176.0300  147.8140 C   0  0  0  0  0  1  0  0  0  0  0  0
  190.0410  177.8670  148.6270 O   0  0  0  0  0  0  0  0  0  0  0  0
  190.8260  176.3120  147.0720 N   0  0  0  0  0  2  0  0  0  0  0  0
  189.8600  177.2610  147.5320 C   0  0  0  0  0  0  0  0  0  0  0  0
  187.5820  178.6780  140.0570 O   0  0  0  0  0  0  0  0  0  0  0  0
  187.7660  177.8530  138.9160 C   0  0  0  0  0  2  0  0  0  0  0  0
  189.2360  177.8050  138.5600 C   0  0  0  0  0  2  0  0  0  0  0  0
  189.8920  176.8530  139.3860 O   0  0  0  0  0  0  0  0  0  0  0  0
  191.9940  177.4760  140.0480 O   0  0  0  0  0  0  0  0  0  0  0  0
  190.8030  177.2280  140.3750 C   0  0  0  0  0  0  0  0  0  0  0  0
  189.4950  176.3320  142.1390 O   0  0  0  0  0  1  0  0  0  0  0  0
  190.3840  177.3580  141.8080 C   0  0  1  0  0  3  0  0  0  0  0  0
  191.6000  177.3090  142.7190 C   0  0  0  0  0  2  0  0  0  0  0  0
  192.1430  178.1830  144.8680 O   0  0  0  0  0  1  0  0  0  0  0  0
  191.4680  178.3110  143.8120 C   0  0  0  0  0  0  0  0  0  0  0  0
  190.6300  179.4100  143.6520 O   0  0  0  0  0  0  0  0  0  0  0  0
  1  9  1  0  0  0  0
  1 11  1  0  0  0  0
  2  8  2  0  0  0  0
  2  3  1  0  0  0  0
  3  1  2  0  0  0  0
  5  9  2  0  0  0  0
  6 10  2  0  0  0  0
  7  6  1  0  0  0  0
  8  5  1  0  0  0  0
  9 13  1  0  0  0  0
 10 11  1  0  0  0  0
 11  4  2  0  0  0  0
 12  3  1  0  0  0  0
 12  6  1  0  0  0  0
 13 14  1  0  0  0  0
 14 18  2  0  0  0  0
 15 17  2  0  0  0  0
 15 23  1  0  0  0  0
 16 15  1  0  0  0  0
 18 17  1  0  0  0  0
 19 14  1  0  0  0  0
 19 16  2  0  0  0  0
 22 23  1  0  0  0  0
 22 20  1  0  0  0  0
 23 21  2  0  0  0  0
 24  8  1  0  0  0  0
 25 24  1  0  0  0  0
 26 25  1  0  0  0  0
 26 27  1  0  0  0  0
 27 29  1  0  0  0  0
 28 29  2  0  0  0  0
 29 31  1  0  0  0  0
 31 30  1  1  0  0  0
 31 32  1  0  0  0  0
 32 34  1  0  0  0  0
 34 33  1  0  0  0  0
 35 34  2  0  0  0  0
M  END
>  <MODEL>
9

>  <REMARK>
 VINA RESULT:      -7.4      2.830      8.525
  Name = 
  11 active torsions:
  status: ('A' for Active; 'I' for Inactive)
    1  A    between atoms: C_5  and  N_22
    2  A    between atoms: C_7  and  C_18
    3  A    between atoms: O_12  and  C_32
    4  A    between atoms: O_12  and  C_34
    5  A    between atoms: C_14  and  C_28
    6  A    between atoms: C_16  and  C_32
    7  A    between atoms: C_16  and  O_33
    8  A    between atoms: C_17  and  O_33
    9  A    between atoms: C_18  and  C_24
   10  A    between atoms: N_22  and  C_23
   11  A    between atoms: C_24  and  C_34
                            x       y       z     vdW  Elec       q    Type
                         _______ _______ _______ _____ _____    ______ ____

>  <TORSDO>
F 11

$$$$
