=
 OpenBabel10232411123D

 54 60  0  0  1  0  0  0  0  0999 V2000
  182.8810  178.8740  141.9720 C   0  0  0  0  0  0  0  0  0  0  0  0
  183.3830  178.7170  144.3410 C   0  0  0  0  0  3  0  0  0  0  0  0
  185.1620  178.4790  142.7070 C   0  0  0  0  0  0  0  0  0  0  0  0
  184.2330  178.6620  141.6780 C   0  0  0  0  0  3  0  0  0  0  0  0
  182.4580  178.9120  143.3110 C   0  0  0  0  0  0  0  0  0  0  0  0
  185.6370  178.3080  145.0830 O   0  0  0  0  0  1  0  0  0  0  0  0
  184.7320  178.4970  144.0450 C   0  0  0  0  0  0  0  0  0  0  0  0
  181.1250  179.1480  143.6290 O   0  0  0  0  0  1  0  0  0  0  0  0
  186.5970  178.2680  142.3670 C   0  0  0  0  0  2  0  0  0  0  0  0
  186.8210  178.5760  140.9640 N   0  0  0  0  0  2  0  0  0  0  0  0
  188.9480  177.9980  142.0250 C   0  0  0  0  0  2  0  0  0  0  0  0
  189.9380  176.9440  141.7770 N   0  0  0  0  0  0  0  0  0  0  0  0
  189.8310  177.5460  139.3800 C   0  0  0  0  0  2  0  0  0  0  0  0
  188.4630  177.4730  139.7170 O   0  0  0  0  0  0  0  0  0  0  0  0
  188.2470  178.4260  140.7260 C   0  0  1  0  0  3  0  0  0  0  0  0
  190.7380  177.2830  140.5990 C   0  0  0  0  0  2  0  0  0  0  0  0
  190.9970  176.8920  143.1510 S   0  0  0  0  0  0  0  0  0  0  0  0
  192.3170  177.5100  142.7850 O   0  0  0  0  0  0  0  0  0  0  0  0
  191.2210  175.4660  143.5750 O   0  0  0  0  0  0  0  0  0  0  0  0
  190.2880  177.8020  144.5150 C   0  0  0  0  0  2  0  0  0  0  0  0
  187.9650  176.8900  148.4760 C   0  0  0  0  0  1  0  0  0  0  0  0
  190.8650  176.8800  146.5880 C   0  0  0  0  0  2  0  0  0  0  0  0
  189.1320  178.9230  148.0490 O   0  0  0  0  0  1  0  0  0  0  0  0
  189.0370  177.5840  147.6610 C   0  0  2  0  0  0  0  0  0  0  0  0
  188.7000  177.5000  146.1940 C   0  0  0  0  0  2  0  0  0  0  0  0
  190.2670  176.9470  147.8630 O   0  0  0  0  0  0  0  0  0  0  0  0
  189.8400  176.8850  145.5540 N   0  0  0  0  0  0  0  0  0  0  0  0
  181.7280  179.1420  140.6210 S   0  0  0  0  0  0  0  0  0  0  0  0
  183.7520  178.7120  138.7480 C   0  0  0  0  0  0  0  0  0  0  0  0
  182.6750  178.1570  139.4570 C   0  0  0  0  0  0  0  0  0  0  0  0
  183.0980  176.0040  138.3990 C   0  0  0  0  0  0  0  0  0  0  0  0
  182.3570  176.8060  139.2830 C   0  0  0  0  0  3  0  0  0  0  0  0
  184.4930  177.9170  137.8680 C   0  0  0  0  0  3  0  0  0  0  0  0
  184.1740  176.5620  137.6900 C   0  0  0  0  0  0  0  0  0  0  0  0
  184.1030  180.0450  138.9230 O   0  0  0  0  0  1  0  0  0  0  0  0
  184.9080  175.7530  136.8160 O   0  0  0  0  0  0  0  0  0  0  0  0
  185.4090  176.2190  135.5670 C   0  0  0  0  0  2  0  0  0  0  0  0
  186.6110  175.3940  135.1560 C   0  0  0  0  0  2  0  0  0  0  0  0
  187.7950  176.2450  135.0980 N   0  0  0  0  0  0  0  0  0  0  0  0
  187.8080  177.0040  136.3680 C   0  0  1  0  0  3  0  0  0  0  0  0
  188.5880  174.6440  136.9640 C   0  0  0  0  0  2  0  0  0  0  0  0
  190.8220  173.9380  136.2300 N   0  0  0  0  0  2  0  0  0  0  0  0
  188.7910  175.9350  136.1570 C   0  0  0  0  0  0  0  0  0  0  0  0
  189.4230  173.5250  136.3410 C   0  0  0  0  0  2  0  0  0  0  0  0
  190.2220  176.2670  135.7280 C   0  0  0  0  0  2  0  0  0  0  0  0
  190.9080  174.9960  135.2230 C   0  0  0  0  0  2  0  0  0  0  0  0
  188.3410  178.4070  136.1090 C   0  0  0  0  0  2  0  0  0  0  0  0
  187.7450  179.3030  136.9940 O   0  0  0  0  0  1  0  0  0  0  0  0
  182.7880  174.6520  138.2130 O   0  0  0  0  0  0  0  0  0  0  0  0
  181.7240  174.2120  137.3760 C   0  0  0  0  0  2  0  0  0  0  0  0
  182.1760  173.0260  136.5340 C   0  0  0  0  0  2  0  0  0  0  0  0
  183.6710  171.0610  136.6230 C   0  0  0  0  0  2  0  0  0  0  0  0
  184.3540  172.1310  135.7970 C   0  0  0  0  0  2  0  0  0  0  0  0
  183.5280  172.5230  137.0060 C   0  0  0  0  0  3  0  0  0  0  0  0
  1  5  1  0  0  0  0
  3  7  2  0  0  0  0
  4  1  2  0  0  0  0
  4  3  1  0  0  0  0
  5  8  1  0  0  0  0
  5  2  2  0  0  0  0
  7  2  1  0  0  0  0
  7  6  1  0  0  0  0
  9  3  1  0  0  0  0
 10  9  1  0  0  0  0
 12 11  1  0  0  0  0
 12 17  1  0  0  0  0
 13 14  1  0  0  0  0
 13 16  1  0  0  0  0
 14 15  1  0  0  0  0
 15 10  1  1  0  0  0
 15 11  1  0  0  0  0
 16 12  1  0  0  0  0
 17 19  2  0  0  0  0
 17 20  1  0  0  0  0
 18 17  2  0  0  0  0
 20 27  1  0  0  0  0
 22 26  1  0  0  0  0
 24 26  1  0  0  0  0
 24 23  1  0  0  0  0
 24 21  1  1  0  0  0
 25 24  1  0  0  0  0
 27 25  1  0  0  0  0
 27 22  1  0  0  0  0
 28  1  1  0  0  0  0
 29 35  1  0  0  0  0
 29 30  1  0  0  0  0
 30 28  1  0  0  0  0
 31 32  1  0  0  0  0
 32 30  2  0  0  0  0
 33 29  2  0  0  0  0
 34 33  1  0  0  0  0
 34 31  2  0  0  0  0
 36 34  1  0  0  0  0
 37 36  1  0  0  0  0
 38 37  1  0  0  0  0
 39 38  1  0  0  0  0
 39 43  1  0  0  0  0
 39 40  1  0  0  0  0
 40 47  1  6  0  0  0
 42 44  1  0  0  0  0
 43 40  1  0  0  0  0
 43 41  1  0  0  0  0
 44 41  1  0  0  0  0
 45 43  1  0  0  0  0
 46 45  1  0  0  0  0
 46 42  1  0  0  0  0
 47 48  1  0  0  0  0
 49 31  1  0  0  0  0
 50 49  1  0  0  0  0
 51 54  1  0  0  0  0
 51 50  1  0  0  0  0
 52 54  1  0  0  0  0
 53 52  1  0  0  0  0
 53 54  1  0  0  0  0
M  END
>  <MODEL>
1

>  <REMARK>
 VINA RESULT:      -7.8      0.000      0.000
  Name = 
  17 active torsions:
  status: ('A' for Active; 'I' for Inactive)
    1  A    between atoms: C_1  and  O_6
    2  A    between atoms: C_1  and  C_24
    3  A    between atoms: C_3  and  C_27
    4  A    between atoms: C_5  and  S_45
    5  A    between atoms: O_6  and  C_39
    6  A    between atoms: C_8  and  C_18
    7  A    between atoms: C_8  and  O_20
    8  A    between atoms: C_9  and  S_45
    9  A    between atoms: C_10  and  O_20
   10  A    between atoms: N_11  and  C_24
   11  A    between atoms: C_14  and  C_23
   12  A    between atoms: N_15  and  S_26
   13  A    between atoms: C_18  and  C_22
   14  A    between atoms: N_19  and  C_23
   15  A    between atoms: N_19  and  C_50
   16  A    between atoms: S_26  and  C_53
   17  A    between atoms: N_47  and  C_53
                            x       y       z     vdW  Elec       q    Type
                         _______ _______ _______ _____ _____    ______ ____

>  <TORSDO>
F 17

$$$$
=
 OpenBabel10232411123D

 54 60  0  0  1  0  0  0  0  0999 V2000
  187.5080  177.6830  145.9780 C   0  0  0  0  0  0  0  0  0  0  0  0
  185.6170  179.0280  146.6860 C   0  0  0  0  0  3  0  0  0  0  0  0
  185.6510  178.0620  144.4600 C   0  0  0  0  0  0  0  0  0  0  0  0
  186.8980  177.4920  144.7320 C   0  0  0  0  0  3  0  0  0  0  0  0
  186.8580  178.4470  146.9620 C   0  0  0  0  0  0  0  0  0  0  0  0
  183.7770  179.4280  145.1850 O   0  0  0  0  0  1  0  0  0  0  0  0
  185.0130  178.8430  145.4390 C   0  0  0  0  0  0  0  0  0  0  0  0
  187.4320  178.6280  148.2150 O   0  0  0  0  0  1  0  0  0  0  0  0
  185.0170  177.8330  143.1300 C   0  0  0  0  0  2  0  0  0  0  0  0
  185.1030  179.0430  142.3290 N   0  0  0  0  0  2  0  0  0  0  0  0
  184.1040  178.2300  140.2490 C   0  0  0  0  0  2  0  0  0  0  0  0
  182.9170  177.4190  139.9580 N   0  0  0  0  0  0  0  0  0  0  0  0
  181.6540  178.8990  141.4850 C   0  0  0  0  0  2  0  0  0  0  0  0
  182.8050  178.6160  142.2500 O   0  0  0  0  0  0  0  0  0  0  0  0
  183.9030  179.0860  141.5100 C   0  0  1  0  0  3  0  0  0  0  0  0
  181.7120  178.2390  140.0930 C   0  0  0  0  0  2  0  0  0  0  0  0
  183.0340  176.9020  138.3050 S   0  0  0  0  0  0  0  0  0  0  0  0
  184.4010  177.2320  137.7760 O   0  0  0  0  0  0  0  0  0  0  0  0
  181.9990  177.6070  137.4710 O   0  0  0  0  0  0  0  0  0  0  0  0
  182.7750  175.1390  138.1870 C   0  0  0  0  0  2  0  0  0  0  0  0
  183.6920  171.7620  135.0760 C   0  0  0  0  0  1  0  0  0  0  0  0
  184.6440  173.8190  137.6920 C   0  0  0  0  0  2  0  0  0  0  0  0
  182.8780  171.3640  137.2800 O   0  0  0  0  0  1  0  0  0  0  0  0
  183.5330  172.3060  136.4820 C   0  0  2  0  0  0  0  0  0  0  0  0
  182.7390  173.5870  136.4490 C   0  0  0  0  0  2  0  0  0  0  0  0
  184.7930  172.5880  137.0220 O   0  0  0  0  0  0  0  0  0  0  0  0
  183.5610  174.5860  137.0930 N   0  0  0  0  0  0  0  0  0  0  0  0
  189.0930  176.9010  146.2990 S   0  0  0  0  0  0  0  0  0  0  0  0
  191.0860  177.4750  144.4330 C   0  0  0  0  0  0  0  0  0  0  0  0
  189.7230  177.2200  144.6490 C   0  0  0  0  0  0  0  0  0  0  0  0
  189.3180  177.3960  142.2540 C   0  0  0  0  0  0  0  0  0  0  0  0
  188.8480  177.1770  143.5600 C   0  0  0  0  0  3  0  0  0  0  0  0
  191.5590  177.6920  143.1350 C   0  0  0  0  0  3  0  0  0  0  0  0
  190.6810  177.6520  142.0400 C   0  0  0  0  0  0  0  0  0  0  0  0
  191.9800  177.4980  145.4970 O   0  0  0  0  0  1  0  0  0  0  0  0
  191.1400  177.8640  140.7350 O   0  0  0  0  0  0  0  0  0  0  0  0
  191.9230  176.9090  140.0270 C   0  0  0  0  0  2  0  0  0  0  0  0
  191.0550  176.1800  139.0210 C   0  0  0  0  0  2  0  0  0  0  0  0
  191.6010  176.3570  137.6800 N   0  0  0  0  0  0  0  0  0  0  0  0
  192.5030  175.2050  137.4560 C   0  0  1  0  0  3  0  0  0  0  0  0
  190.1310  174.2870  137.2030 C   0  0  0  0  0  2  0  0  0  0  0  0
  188.8470  174.9170  135.2080 N   0  0  0  0  0  2  0  0  0  0  0  0
  191.2210  175.2660  136.7440 C   0  0  0  0  0  0  0  0  0  0  0  0
  188.7780  174.7480  136.6590 C   0  0  0  0  0  2  0  0  0  0  0  0
  191.1610  175.7380  135.2900 C   0  0  0  0  0  2  0  0  0  0  0  0
  189.7110  176.0620  134.9210 C   0  0  0  0  0  2  0  0  0  0  0  0
  193.7010  175.6580  136.6330 C   0  0  0  0  0  2  0  0  0  0  0  0
  194.8150  175.7850  137.4610 O   0  0  0  0  0  1  0  0  0  0  0  0
  188.4510  177.3580  141.1550 O   0  0  0  0  0  0  0  0  0  0  0  0
  188.3080  178.4450  140.2470 C   0  0  0  0  0  2  0  0  0  0  0  0
  187.4390  178.0300  139.0670 C   0  0  0  0  0  2  0  0  0  0  0  0
  187.7740  178.7620  136.7310 C   0  0  0  0  0  2  0  0  0  0  0  0
  189.0110  179.1380  137.5210 C   0  0  0  0  0  2  0  0  0  0  0  0
  188.2880  177.8400  137.8230 C   0  0  0  0  0  3  0  0  0  0  0  0
  1 28  1  0  0  0  0
  1  5  1  0  0  0  0
  2  5  2  0  0  0  0
  3  4  1  0  0  0  0
  3  7  2  0  0  0  0
  4  1  2  0  0  0  0
  5  8  1  0  0  0  0
  6  7  1  0  0  0  0
  7  2  1  0  0  0  0
  9  3  1  0  0  0  0
 10  9  1  0  0  0  0
 11 15  1  0  0  0  0
 12 16  1  0  0  0  0
 12 11  1  0  0  0  0
 13 14  1  0  0  0  0
 15 14  1  0  0  0  0
 15 10  1  1  0  0  0
 16 13  1  0  0  0  0
 17 12  1  0  0  0  0
 18 17  2  0  0  0  0
 19 17  2  0  0  0  0
 20 17  1  0  0  0  0
 24 21  1  6  0  0  0
 24 26  1  0  0  0  0
 24 23  1  0  0  0  0
 25 24  1  0  0  0  0
 25 27  1  0  0  0  0
 26 22  1  0  0  0  0
 27 22  1  0  0  0  0
 27 20  1  0  0  0  0
 29 30  1  0  0  0  0
 29 35  1  0  0  0  0
 30 28  1  0  0  0  0
 31 32  1  0  0  0  0
 32 30  2  0  0  0  0
 33 29  2  0  0  0  0
 34 31  2  0  0  0  0
 34 33  1  0  0  0  0
 36 34  1  0  0  0  0
 37 36  1  0  0  0  0
 38 37  1  0  0  0  0
 39 38  1  0  0  0  0
 40 47  1  6  0  0  0
 40 39  1  0  0  0  0
 42 44  1  0  0  0  0
 43 41  1  0  0  0  0
 43 40  1  0  0  0  0
 43 39  1  0  0  0  0
 44 41  1  0  0  0  0
 45 43  1  0  0  0  0
 46 42  1  0  0  0  0
 46 45  1  0  0  0  0
 47 48  1  0  0  0  0
 49 31  1  0  0  0  0
 50 49  1  0  0  0  0
 51 50  1  0  0  0  0
 52 53  1  0  0  0  0
 52 54  1  0  0  0  0
 53 54  1  0  0  0  0
 54 51  1  0  0  0  0
M  END
>  <MODEL>
2

>  <REMARK>
 VINA RESULT:      -7.1      2.240      7.915
  Name = 
  17 active torsions:
  status: ('A' for Active; 'I' for Inactive)
    1  A    between atoms: C_1  and  O_6
    2  A    between atoms: C_1  and  C_24
    3  A    between atoms: C_3  and  C_27
    4  A    between atoms: C_5  and  S_45
    5  A    between atoms: O_6  and  C_39
    6  A    between atoms: C_8  and  C_18
    7  A    between atoms: C_8  and  O_20
    8  A    between atoms: C_9  and  S_45
    9  A    between atoms: C_10  and  O_20
   10  A    between atoms: N_11  and  C_24
   11  A    between atoms: C_14  and  C_23
   12  A    between atoms: N_15  and  S_26
   13  A    between atoms: C_18  and  C_22
   14  A    between atoms: N_19  and  C_23
   15  A    between atoms: N_19  and  C_50
   16  A    between atoms: S_26  and  C_53
   17  A    between atoms: N_47  and  C_53
                            x       y       z     vdW  Elec       q    Type
                         _______ _______ _______ _____ _____    ______ ____

>  <TORSDO>
F 17

$$$$
=
 OpenBabel10232411123D

 54 60  0  0  1  0  0  0  0  0999 V2000
  188.8630  177.6820  146.5820 C   0  0  0  0  0  0  0  0  0  0  0  0
  186.8780  178.4380  147.7560 C   0  0  0  0  0  3  0  0  0  0  0  0
  186.7210  177.7360  145.4380 C   0  0  0  0  0  0  0  0  0  0  0  0
  188.0930  177.4700  145.4310 C   0  0  0  0  0  3  0  0  0  0  0  0
  188.2480  178.1590  147.7520 C   0  0  0  0  0  0  0  0  0  0  0  0
  184.7520  178.5140  146.6290 O   0  0  0  0  0  1  0  0  0  0  0  0
  186.1130  178.2320  146.6040 C   0  0  0  0  0  0  0  0  0  0  0  0
  188.9850  178.3520  148.9140 O   0  0  0  0  0  1  0  0  0  0  0  0
  185.9230  177.4890  144.2040 C   0  0  0  0  0  2  0  0  0  0  0  0
  186.0800  178.6040  143.2850 N   0  0  0  0  0  2  0  0  0  0  0  0
  184.5900  179.2030  141.4390 C   0  0  0  0  0  2  0  0  0  0  0  0
  183.2990  178.6770  140.9830 N   0  0  0  0  0  0  0  0  0  0  0  0
  182.5330  178.7980  143.3320 C   0  0  0  0  0  2  0  0  0  0  0  0
  183.7900  178.1740  143.4740 O   0  0  0  0  0  0  0  0  0  0  0  0
  184.7430  179.0720  142.9630 C   0  0  1  0  0  3  0  0  0  0  0  0
  182.2310  179.1550  141.8630 C   0  0  0  0  0  2  0  0  0  0  0  0
  183.0120  179.3110  139.3930 S   0  0  0  0  0  0  0  0  0  0  0  0
  184.1990  180.1240  138.9610 O   0  0  0  0  0  0  0  0  0  0  0  0
  181.7900  180.1880  139.4020 O   0  0  0  0  0  0  0  0  0  0  0  0
  182.7650  177.9790  138.2290 C   0  0  0  0  0  2  0  0  0  0  0  0
  185.2610  174.2220  136.9780 C   0  0  0  0  0  1  0  0  0  0  0  0
  182.7850  175.7280  138.8690 C   0  0  0  0  0  2  0  0  0  0  0  0
  183.1910  174.8440  135.9760 O   0  0  0  0  0  1  0  0  0  0  0  0
  183.9750  175.0100  137.1210 C   0  0  2  0  0  0  0  0  0  0  0  0
  184.2900  176.4720  137.3170 C   0  0  0  0  0  2  0  0  0  0  0  0
  183.2710  174.5610  138.2440 O   0  0  0  0  0  0  0  0  0  0  0  0
  183.6410  176.8610  138.5480 N   0  0  0  0  0  0  0  0  0  0  0  0
  190.6150  177.2900  146.5410 S   0  0  0  0  0  0  0  0  0  0  0  0
  191.3520  175.9810  144.1900 C   0  0  0  0  0  0  0  0  0  0  0  0
  190.6440  177.0500  144.7630 C   0  0  0  0  0  0  0  0  0  0  0  0
  189.9040  177.7380  142.5470 C   0  0  0  0  0  0  0  0  0  0  0  0
  189.9210  177.9190  143.9410 C   0  0  0  0  0  3  0  0  0  0  0  0
  191.3360  175.7970  142.8040 C   0  0  0  0  0  3  0  0  0  0  0  0
  190.6130  176.6700  141.9760 C   0  0  0  0  0  0  0  0  0  0  0  0
  192.0570  175.0890  144.9880 O   0  0  0  0  0  1  0  0  0  0  0  0
  190.5850  176.4970  140.5880 O   0  0  0  0  0  0  0  0  0  0  0  0
  191.6610  176.8820  139.7390 C   0  0  0  0  0  2  0  0  0  0  0  0
  191.3110  176.5780  138.2960 C   0  0  0  0  0  2  0  0  0  0  0  0
  191.3790  175.1390  138.0660 N   0  0  0  0  0  0  0  0  0  0  0  0
  190.5660  174.8860  136.8560 C   0  0  1  0  0  3  0  0  0  0  0  0
  192.7570  175.9010  136.0180 C   0  0  0  0  0  2  0  0  0  0  0  0
  194.7900  174.5290  136.1280 N   0  0  0  0  0  2  0  0  0  0  0  0
  192.0280  174.7830  136.7770 C   0  0  0  0  0  0  0  0  0  0  0  0
  194.2440  175.8630  136.3740 C   0  0  0  0  0  2  0  0  0  0  0  0
  192.7140  173.4160  136.8270 C   0  0  0  0  0  2  0  0  0  0  0  0
  194.2070  173.6080  137.1040 C   0  0  0  0  0  2  0  0  0  0  0  0
  189.8490  173.5510  137.0020 C   0  0  0  0  0  2  0  0  0  0  0  0
  189.3890  173.1290  135.7560 O   0  0  0  0  0  1  0  0  0  0  0  0
  189.1870  178.6040  141.7130 O   0  0  0  0  0  0  0  0  0  0  0  0
  188.1270  178.1630  140.8710 C   0  0  0  0  0  2  0  0  0  0  0  0
  188.3920  178.5850  139.4310 C   0  0  0  0  0  2  0  0  0  0  0  0
  187.7290  178.2350  137.0770 C   0  0  0  0  0  2  0  0  0  0  0  0
  187.7680  176.8820  137.7590 C   0  0  0  0  0  2  0  0  0  0  0  0
  187.2790  178.0980  138.5220 C   0  0  0  0  0  3  0  0  0  0  0  0
  1  5  1  0  0  0  0
  3  7  2  0  0  0  0
  4  3  1  0  0  0  0
  4  1  2  0  0  0  0
  5  2  2  0  0  0  0
  5  8  1  0  0  0  0
  7  6  1  0  0  0  0
  7  2  1  0  0  0  0
  9  3  1  0  0  0  0
 10  9  1  0  0  0  0
 11 15  1  0  0  0  0
 12 11  1  0  0  0  0
 12 16  1  0  0  0  0
 13 14  1  0  0  0  0
 15 10  1  6  0  0  0
 15 14  1  0  0  0  0
 16 13  1  0  0  0  0
 17 19  2  0  0  0  0
 17 12  1  0  0  0  0
 18 17  2  0  0  0  0
 20 27  1  0  0  0  0
 20 17  1  0  0  0  0
 23 24  1  0  0  0  0
 24 21  1  6  0  0  0
 24 25  1  0  0  0  0
 24 26  1  0  0  0  0
 25 27  1  0  0  0  0
 26 22  1  0  0  0  0
 27 22  1  0  0  0  0
 28  1  1  0  0  0  0
 29 30  1  0  0  0  0
 29 35  1  0  0  0  0
 30 28  1  0  0  0  0
 31 32  1  0  0  0  0
 32 30  2  0  0  0  0
 33 29  2  0  0  0  0
 34 31  2  0  0  0  0
 34 33  1  0  0  0  0
 36 34  1  0  0  0  0
 37 36  1  0  0  0  0
 38 37  1  0  0  0  0
 39 38  1  0  0  0  0
 40 47  1  1  0  0  0
 40 39  1  0  0  0  0
 41 44  1  0  0  0  0
 41 43  1  0  0  0  0
 42 44  1  0  0  0  0
 42 46  1  0  0  0  0
 43 45  1  0  0  0  0
 43 40  1  0  0  0  0
 43 39  1  0  0  0  0
 45 46  1  0  0  0  0
 48 47  1  0  0  0  0
 49 31  1  0  0  0  0
 50 49  1  0  0  0  0
 51 50  1  0  0  0  0
 52 53  1  0  0  0  0
 52 54  1  0  0  0  0
 53 54  1  0  0  0  0
 54 51  1  0  0  0  0
M  END
>  <MODEL>
3

>  <REMARK>
 VINA RESULT:      -7.1      2.168      7.859
  Name = 
  17 active torsions:
  status: ('A' for Active; 'I' for Inactive)
    1  A    between atoms: C_1  and  O_6
    2  A    between atoms: C_1  and  C_24
    3  A    between atoms: C_3  and  C_27
    4  A    between atoms: C_5  and  S_45
    5  A    between atoms: O_6  and  C_39
    6  A    between atoms: C_8  and  C_18
    7  A    between atoms: C_8  and  O_20
    8  A    between atoms: C_9  and  S_45
    9  A    between atoms: C_10  and  O_20
   10  A    between atoms: N_11  and  C_24
   11  A    between atoms: C_14  and  C_23
   12  A    between atoms: N_15  and  S_26
   13  A    between atoms: C_18  and  C_22
   14  A    between atoms: N_19  and  C_23
   15  A    between atoms: N_19  and  C_50
   16  A    between atoms: S_26  and  C_53
   17  A    between atoms: N_47  and  C_53
                            x       y       z     vdW  Elec       q    Type
                         _______ _______ _______ _____ _____    ______ ____

>  <TORSDO>
F 17

$$$$
=
 OpenBabel10232411123D

 54 60  0  0  1  0  0  0  0  0999 V2000
  189.8900  177.5880  138.2450 C   0  0  0  0  0  0  0  0  0  0  0  0
  191.3940  176.5900  139.8670 C   0  0  0  0  0  3  0  0  0  0  0  0
  189.3500  177.6650  140.6120 C   0  0  0  0  0  0  0  0  0  0  0  0
  189.0340  177.9710  139.2850 C   0  0  0  0  0  3  0  0  0  0  0  0
  191.0710  176.8850  138.5390 C   0  0  0  0  0  0  0  0  0  0  0  0
  190.8800  176.6750  142.2180 O   0  0  0  0  0  1  0  0  0  0  0  0
  190.5420  176.9800  140.9040 C   0  0  0  0  0  0  0  0  0  0  0  0
  191.9230  176.4710  137.5220 O   0  0  0  0  0  1  0  0  0  0  0  0
  188.4150  178.0730  141.6980 C   0  0  0  0  0  2  0  0  0  0  0  0
  187.1860  178.5930  141.1210 N   0  0  0  0  0  2  0  0  0  0  0  0
  186.7790  178.0470  143.4700 C   0  0  0  0  0  2  0  0  0  0  0  0
  186.1390  178.7740  144.5720 N   0  0  0  0  0  0  0  0  0  0  0  0
  184.2640  179.2550  143.0310 C   0  0  0  0  0  2  0  0  0  0  0  0
  185.3800  179.5790  142.2320 O   0  0  0  0  0  0  0  0  0  0  0  0
  186.1450  178.4060  142.1170 C   0  0  1  0  0  3  0  0  0  0  0  0
  184.6840  178.7260  144.4170 C   0  0  0  0  0  2  0  0  0  0  0  0
  186.5520  177.9550  146.0450 S   0  0  0  0  0  0  0  0  0  0  0  0
  186.3910  176.4740  145.8510 O   0  0  0  0  0  0  0  0  0  0  0  0
  185.6450  178.4080  147.1570 O   0  0  0  0  0  0  0  0  0  0  0  0
  188.2450  178.3030  146.4950 C   0  0  0  0  0  2  0  0  0  0  0  0
  191.7820  175.3320  147.2560 C   0  0  0  0  0  1  0  0  0  0  0  0
  190.2500  177.8120  145.3910 C   0  0  0  0  0  2  0  0  0  0  0  0
  191.7290  177.5780  148.0500 O   0  0  0  0  0  1  0  0  0  0  0  0
  191.1810  176.7140  147.0980 C   0  0  2  0  0  0  0  0  0  0  0  0
  189.6850  176.6450  147.2740 C   0  0  0  0  0  2  0  0  0  0  0  0
  191.4470  177.1980  145.8130 O   0  0  0  0  0  0  0  0  0  0  0  0
  189.1130  177.2120  146.0740 N   0  0  0  0  0  0  0  0  0  0  0  0
  189.4270  177.9680  136.5520 S   0  0  0  0  0  0  0  0  0  0  0  0
  186.6510  178.0250  136.8280 C   0  0  0  0  0  0  0  0  0  0  0  0
  187.7990  177.2270  136.7020 C   0  0  0  0  0  0  0  0  0  0  0  0
  186.4060  175.2300  136.7440 C   0  0  0  0  0  0  0  0  0  0  0  0
  187.6700  175.8360  136.6560 C   0  0  0  0  0  3  0  0  0  0  0  0
  185.3900  177.4260  136.9140 C   0  0  0  0  0  3  0  0  0  0  0  0
  185.2590  176.0290  136.8710 C   0  0  0  0  0  0  0  0  0  0  0  0
  186.7500  179.4110  136.8510 O   0  0  0  0  0  1  0  0  0  0  0  0
  184.0040  175.4150  136.9530 O   0  0  0  0  0  0  0  0  0  0  0  0
  183.4700  174.9080  138.1710 C   0  0  0  0  0  2  0  0  0  0  0  0
  182.3340  175.7930  138.6410 C   0  0  0  0  0  2  0  0  0  0  0  0
  182.0170  176.7750  137.6110 N   0  0  0  0  0  0  0  0  0  0  0  0
  180.6070  176.5240  137.2350 C   0  0  1  0  0  3  0  0  0  0  0  0
  180.5200  177.7230  139.4910 C   0  0  0  0  0  2  0  0  0  0  0  0
  181.0960  180.1080  139.5630 N   0  0  0  0  0  2  0  0  0  0  0  0
  180.9430  177.7210  138.0150 C   0  0  0  0  0  0  0  0  0  0  0  0
  181.2830  178.8210  140.2320 C   0  0  0  0  0  2  0  0  0  0  0  0
  181.0760  179.0830  137.3300 C   0  0  0  0  0  2  0  0  0  0  0  0
  181.7850  180.0580  138.2740 C   0  0  0  0  0  2  0  0  0  0  0  0
  180.4330  176.7740  135.7440 C   0  0  0  0  0  2  0  0  0  0  0  0
  181.5680  176.3390  135.0610 O   0  0  0  0  0  1  0  0  0  0  0  0
  186.2650  173.8380  136.7030 O   0  0  0  0  0  0  0  0  0  0  0  0
  185.6090  173.1590  135.6370 C   0  0  0  0  0  2  0  0  0  0  0  0
  185.0550  171.8270  136.1270 C   0  0  0  0  0  2  0  0  0  0  0  0
  183.1660  170.2400  136.0090 C   0  0  0  0  0  2  0  0  0  0  0  0
  182.7460  171.4020  136.8850 C   0  0  0  0  0  2  0  0  0  0  0  0
  183.6180  171.6490  135.6700 C   0  0  0  0  0  3  0  0  0  0  0  0
  1  5  2  0  0  0  0
  1  4  1  0  0  0  0
  2  7  2  0  0  0  0
  3  7  1  0  0  0  0
  3  9  1  0  0  0  0
  4  3  2  0  0  0  0
  5  2  1  0  0  0  0
  7  6  1  0  0  0  0
  8  5  1  0  0  0  0
 10  9  1  0  0  0  0
 11 12  1  0  0  0  0
 12 17  1  0  0  0  0
 13 16  1  0  0  0  0
 14 13  1  0  0  0  0
 15 10  1  6  0  0  0
 15 14  1  0  0  0  0
 15 11  1  0  0  0  0
 16 12  1  0  0  0  0
 17 20  1  0  0  0  0
 17 19  2  0  0  0  0
 18 17  2  0  0  0  0
 22 26  1  0  0  0  0
 22 27  1  0  0  0  0
 24 21  1  1  0  0  0
 24 25  1  0  0  0  0
 24 23  1  0  0  0  0
 26 24  1  0  0  0  0
 27 20  1  0  0  0  0
 27 25  1  0  0  0  0
 28 30  1  0  0  0  0
 28  1  1  0  0  0  0
 29 35  1  0  0  0  0
 29 33  1  0  0  0  0
 30 29  2  0  0  0  0
 31 34  1  0  0  0  0
 32 30  1  0  0  0  0
 32 31  2  0  0  0  0
 34 33  2  0  0  0  0
 34 36  1  0  0  0  0
 36 37  1  0  0  0  0
 37 38  1  0  0  0  0
 39 43  1  0  0  0  0
 39 38  1  0  0  0  0
 40 47  1  6  0  0  0
 40 39  1  0  0  0  0
 40 43  1  0  0  0  0
 41 44  1  0  0  0  0
 42 44  1  0  0  0  0
 43 41  1  0  0  0  0
 45 43  1  0  0  0  0
 45 46  1  0  0  0  0
 46 42  1  0  0  0  0
 48 47  1  0  0  0  0
 49 31  1  0  0  0  0
 50 51  1  0  0  0  0
 50 49  1  0  0  0  0
 52 53  1  0  0  0  0
 54 52  1  0  0  0  0
 54 51  1  0  0  0  0
 54 53  1  0  0  0  0
M  END
>  <MODEL>
4

>  <REMARK>
 VINA RESULT:      -7.0      2.563      6.095
  Name = 
  17 active torsions:
  status: ('A' for Active; 'I' for Inactive)
    1  A    between atoms: C_1  and  O_6
    2  A    between atoms: C_1  and  C_24
    3  A    between atoms: C_3  and  C_27
    4  A    between atoms: C_5  and  S_45
    5  A    between atoms: O_6  and  C_39
    6  A    between atoms: C_8  and  C_18
    7  A    between atoms: C_8  and  O_20
    8  A    between atoms: C_9  and  S_45
    9  A    between atoms: C_10  and  O_20
   10  A    between atoms: N_11  and  C_24
   11  A    between atoms: C_14  and  C_23
   12  A    between atoms: N_15  and  S_26
   13  A    between atoms: C_18  and  C_22
   14  A    between atoms: N_19  and  C_23
   15  A    between atoms: N_19  and  C_50
   16  A    between atoms: S_26  and  C_53
   17  A    between atoms: N_47  and  C_53
                            x       y       z     vdW  Elec       q    Type
                         _______ _______ _______ _____ _____    ______ ____

>  <TORSDO>
F 17

$$$$
=
 OpenBabel10232411123D

 54 60  0  0  1  0  0  0  0  0999 V2000
  189.5090  178.0660  138.5410 C   0  0  0  0  0  0  0  0  0  0  0  0
  190.9350  176.7250  139.9740 C   0  0  0  0  0  3  0  0  0  0  0  0
  188.9590  177.7940  140.8910 C   0  0  0  0  0  0  0  0  0  0  0  0
  188.6720  178.3300  139.6330 C   0  0  0  0  0  3  0  0  0  0  0  0
  190.6400  177.2510  138.7130 C   0  0  0  0  0  0  0  0  0  0  0  0
  190.4130  176.4610  142.3090 O   0  0  0  0  0  1  0  0  0  0  0  0
  190.1030  176.9950  141.0640 C   0  0  0  0  0  0  0  0  0  0  0  0
  191.4700  176.9530  137.6390 O   0  0  0  0  0  1  0  0  0  0  0  0
  188.0460  178.0800  142.0330 C   0  0  0  0  0  2  0  0  0  0  0  0
  186.7230  178.4180  141.5330 N   0  0  0  0  0  2  0  0  0  0  0  0
  186.6010  177.9760  143.9360 C   0  0  0  0  0  2  0  0  0  0  0  0
  186.1700  178.7840  145.0830 N   0  0  0  0  0  0  0  0  0  0  0  0
  184.1430  179.3610  143.7870 C   0  0  0  0  0  2  0  0  0  0  0  0
  185.1610  179.5740  142.8330 O   0  0  0  0  0  0  0  0  0  0  0  0
  185.8160  178.3420  142.6650 C   0  0  1  0  0  3  0  0  0  0  0  0
  184.7080  178.8430  145.1250 C   0  0  0  0  0  2  0  0  0  0  0  0
  186.7190  177.9800  146.5190 S   0  0  0  0  0  0  0  0  0  0  0  0
  186.4760  176.5040  146.3860 O   0  0  0  0  0  0  0  0  0  0  0  0
  185.9680  178.4980  147.7170 O   0  0  0  0  0  0  0  0  0  0  0  0
  188.4660  178.2630  146.7600 C   0  0  0  0  0  2  0  0  0  0  0  0
  191.8730  175.0680  147.0730 C   0  0  0  0  0  1  0  0  0  0  0  0
  190.3530  177.7370  145.4790 C   0  0  0  0  0  2  0  0  0  0  0  0
  192.0080  177.2600  147.9980 O   0  0  0  0  0  1  0  0  0  0  0  0
  191.3420  176.4870  147.0420 C   0  0  2  0  0  0  0  0  0  0  0  0
  189.8620  176.4860  147.3280 C   0  0  0  0  0  2  0  0  0  0  0  0
  191.5400  177.0360  145.7700 O   0  0  0  0  0  0  0  0  0  0  0  0
  189.2360  177.1560  146.2110 N   0  0  0  0  0  0  0  0  0  0  0  0
  189.0810  178.7440  136.9340 S   0  0  0  0  0  0  0  0  0  0  0  0
  186.4470  177.8250  136.9490 C   0  0  0  0  0  0  0  0  0  0  0  0
  187.7850  177.5390  136.6350 C   0  0  0  0  0  0  0  0  0  0  0  0
  187.1100  175.3630  135.7760 C   0  0  0  0  0  0  0  0  0  0  0  0
  188.1090  176.3130  136.0470 C   0  0  0  0  0  3  0  0  0  0  0  0
  185.4500  176.8820  136.6790 C   0  0  0  0  0  3  0  0  0  0  0  0
  185.7730  175.6490  136.0920 C   0  0  0  0  0  0  0  0  0  0  0  0
  186.0960  179.0470  137.5110 O   0  0  0  0  0  1  0  0  0  0  0  0
  184.7860  174.6970  135.8140 O   0  0  0  0  0  0  0  0  0  0  0  0
  184.3270  173.7560  136.7780 C   0  0  0  0  0  2  0  0  0  0  0  0
  183.6260  174.4820  137.9090 C   0  0  0  0  0  2  0  0  0  0  0  0
  182.4880  175.2280  137.3840 N   0  0  0  0  0  0  0  0  0  0  0  0
  181.3020  174.7160  138.1070 C   0  0  1  0  0  3  0  0  0  0  0  0
  182.5190  176.2360  139.7620 C   0  0  0  0  0  2  0  0  0  0  0  0
  182.4530  178.6600  139.3800 N   0  0  0  0  0  2  0  0  0  0  0  0
  181.8090  176.0590  138.4130 C   0  0  0  0  0  0  0  0  0  0  0  0
  183.3190  177.5390  139.7430 C   0  0  0  0  0  2  0  0  0  0  0  0
  181.1390  177.2980  137.8140 C   0  0  0  0  0  2  0  0  0  0  0  0
  182.0650  178.5050  137.9780 C   0  0  0  0  0  2  0  0  0  0  0  0
  180.1090  174.6950  137.1620 C   0  0  0  0  0  2  0  0  0  0  0  0
  180.1420  173.5320  136.3930 O   0  0  0  0  0  1  0  0  0  0  0  0
  187.4230  174.1300  135.1910 O   0  0  0  0  0  0  0  0  0  0  0  0
  188.7230  173.8120  134.7070 C   0  0  0  0  0  2  0  0  0  0  0  0
  189.7590  174.0440  135.7990 C   0  0  0  0  0  2  0  0  0  0  0  0
  192.1640  174.1630  135.2450 C   0  0  0  0  0  2  0  0  0  0  0  0
  192.0300  173.5200  136.6110 C   0  0  0  0  0  2  0  0  0  0  0  0
  191.0070  173.2220  135.5320 C   0  0  0  0  0  3  0  0  0  0  0  0
  1  5  2  0  0  0  0
  1  4  1  0  0  0  0
  2  7  2  0  0  0  0
  3  7  1  0  0  0  0
  3  9  1  0  0  0  0
  4  3  2  0  0  0  0
  5  2  1  0  0  0  0
  7  6  1  0  0  0  0
  8  5  1  0  0  0  0
 10  9  1  0  0  0  0
 11 12  1  0  0  0  0
 12 16  1  0  0  0  0
 12 17  1  0  0  0  0
 13 16  1  0  0  0  0
 14 13  1  0  0  0  0
 15 10  1  6  0  0  0
 15 14  1  0  0  0  0
 15 11  1  0  0  0  0
 17 20  1  0  0  0  0
 17 19  2  0  0  0  0
 18 17  2  0  0  0  0
 22 26  1  0  0  0  0
 22 27  1  0  0  0  0
 24 21  1  1  0  0  0
 24 25  1  0  0  0  0
 24 23  1  0  0  0  0
 26 24  1  0  0  0  0
 27 20  1  0  0  0  0
 27 25  1  0  0  0  0
 28  1  1  0  0  0  0
 29 35  1  0  0  0  0
 30 28  1  0  0  0  0
 30 29  2  0  0  0  0
 31 32  2  0  0  0  0
 31 34  1  0  0  0  0
 32 30  1  0  0  0  0
 33 29  1  0  0  0  0
 34 33  2  0  0  0  0
 36 34  1  0  0  0  0
 36 37  1  0  0  0  0
 37 38  1  0  0  0  0
 39 38  1  0  0  0  0
 39 40  1  0  0  0  0
 39 43  1  0  0  0  0
 40 47  1  6  0  0  0
 40 43  1  0  0  0  0
 42 44  1  0  0  0  0
 43 41  1  0  0  0  0
 44 41  1  0  0  0  0
 45 46  1  0  0  0  0
 45 43  1  0  0  0  0
 46 42  1  0  0  0  0
 48 47  1  0  0  0  0
 49 31  1  0  0  0  0
 50 49  1  0  0  0  0
 50 51  1  0  0  0  0
 52 54  1  0  0  0  0
 52 53  1  0  0  0  0
 54 51  1  0  0  0  0
 54 53  1  0  0  0  0
M  END
>  <MODEL>
5

>  <REMARK>
 VINA RESULT:      -6.6      2.571      6.327
  Name = 
  17 active torsions:
  status: ('A' for Active; 'I' for Inactive)
    1  A    between atoms: C_1  and  O_6
    2  A    between atoms: C_1  and  C_24
    3  A    between atoms: C_3  and  C_27
    4  A    between atoms: C_5  and  S_45
    5  A    between atoms: O_6  and  C_39
    6  A    between atoms: C_8  and  C_18
    7  A    between atoms: C_8  and  O_20
    8  A    between atoms: C_9  and  S_45
    9  A    between atoms: C_10  and  O_20
   10  A    between atoms: N_11  and  C_24
   11  A    between atoms: C_14  and  C_23
   12  A    between atoms: N_15  and  S_26
   13  A    between atoms: C_18  and  C_22
   14  A    between atoms: N_19  and  C_23
   15  A    between atoms: N_19  and  C_50
   16  A    between atoms: S_26  and  C_53
   17  A    between atoms: N_47  and  C_53
                            x       y       z     vdW  Elec       q    Type
                         _______ _______ _______ _____ _____    ______ ____

>  <TORSDO>
F 17

$$$$
=
 OpenBabel10232411123D

 54 60  0  0  1  0  0  0  0  0999 V2000
  188.1060  175.6560  135.4080 C   0  0  0  0  0  0  0  0  0  0  0  0
  188.7950  173.3510  135.0880 C   0  0  0  0  0  3  0  0  0  0  0  0
  186.4940  173.8590  135.6700 C   0  0  0  0  0  0  0  0  0  0  0  0
  186.8050  175.2210  135.6900 C   0  0  0  0  0  3  0  0  0  0  0  0
  189.1020  174.7150  135.0950 C   0  0  0  0  0  0  0  0  0  0  0  0
  187.2110  171.5580  135.3630 O   0  0  0  0  0  1  0  0  0  0  0  0
  187.4970  172.9190  135.3770 C   0  0  0  0  0  0  0  0  0  0  0  0
  190.3940  175.1240  134.7850 O   0  0  0  0  0  1  0  0  0  0  0  0
  185.0990  173.4240  135.9620 C   0  0  0  0  0  2  0  0  0  0  0  0
  184.6360  174.0460  137.1920 N   0  0  0  0  0  2  0  0  0  0  0  0
  182.8730  175.5110  138.0460 C   0  0  0  0  0  2  0  0  0  0  0  0
  182.2060  176.6990  137.5000 N   0  0  0  0  0  0  0  0  0  0  0  0
  181.9080  175.4390  135.3920 C   0  0  0  0  0  2  0  0  0  0  0  0
  183.2650  175.1900  135.6830 O   0  0  0  0  0  0  0  0  0  0  0  0
  183.2960  174.5430  136.9300 C   0  0  1  0  0  3  0  0  0  0  0  0
  181.2330  176.2960  136.4820 C   0  0  0  0  0  2  0  0  0  0  0  0
  181.3410  177.4530  138.8030 S   0  0  0  0  0  0  0  0  0  0  0  0
  179.9820  176.8240  138.9270 O   0  0  0  0  0  0  0  0  0  0  0  0
  181.1820  178.9240  138.5300 O   0  0  0  0  0  0  0  0  0  0  0  0
  182.2250  177.2380  140.3400 C   0  0  0  0  0  2  0  0  0  0  0  0
  185.8410  179.5670  142.1880 C   0  0  0  0  0  1  0  0  0  0  0  0
  182.4700  178.7880  142.0760 C   0  0  0  0  0  2  0  0  0  0  0  0
  185.0640  177.4590  142.9810 O   0  0  0  0  0  1  0  0  0  0  0  0
  184.6880  178.5850  142.2440 C   0  0  2  0  0  0  0  0  0  0  0  0
  184.2970  178.1740  140.8470 C   0  0  0  0  0  2  0  0  0  0  0  0
  183.5800  179.1940  142.8450 O   0  0  0  0  0  0  0  0  0  0  0  0
  182.8900  178.4760  140.7170 N   0  0  0  0  0  0  0  0  0  0  0  0
  188.4540  177.4180  135.4070 S   0  0  0  0  0  0  0  0  0  0  0  0
  187.5810  178.0400  137.9830 C   0  0  0  0  0  0  0  0  0  0  0  0
  188.6130  177.5110  137.1920 C   0  0  0  0  0  0  0  0  0  0  0  0
  189.9080  177.0500  139.2030 C   0  0  0  0  0  0  0  0  0  0  0  0
  189.7680  177.0160  137.8050 C   0  0  0  0  0  3  0  0  0  0  0  0
  187.7160  178.0750  139.3750 C   0  0  0  0  0  3  0  0  0  0  0  0
  188.8760  177.5810  139.9920 C   0  0  0  0  0  0  0  0  0  0  0  0
  186.4130  178.5160  137.3990 O   0  0  0  0  0  1  0  0  0  0  0  0
  189.0240  177.6070  141.3830 O   0  0  0  0  0  0  0  0  0  0  0  0
  189.0110  176.4290  142.1830 C   0  0  0  0  0  2  0  0  0  0  0  0
  188.3130  176.7100  143.4990 C   0  0  0  0  0  2  0  0  0  0  0  0
  189.2890  176.7150  144.5820 N   0  0  0  0  0  0  0  0  0  0  0  0
  189.9600  178.0330  144.5150 C   0  0  1  0  0  3  0  0  0  0  0  0
  187.6640  178.4760  145.5480 C   0  0  0  0  0  2  0  0  0  0  0  0
  187.2550  177.7100  147.8440 N   0  0  0  0  0  2  0  0  0  0  0  0
  189.0190  177.7580  145.6080 C   0  0  0  0  0  0  0  0  0  0  0  0
  186.6860  177.7850  146.4990 C   0  0  0  0  0  2  0  0  0  0  0  0
  189.5340  177.3610  146.9930 C   0  0  0  0  0  2  0  0  0  0  0  0
  188.3810  176.7760  147.8140 C   0  0  0  0  0  2  0  0  0  0  0  0
  191.4260  177.8710  144.8910 C   0  0  0  0  0  2  0  0  0  0  0  0
  191.8510  176.5830  144.5670 O   0  0  0  0  0  1  0  0  0  0  0  0
  191.0600  176.5600  139.8290 O   0  0  0  0  0  0  0  0  0  0  0  0
  192.2270  177.3510  140.0280 C   0  0  0  0  0  2  0  0  0  0  0  0
  193.3630  176.8390  139.1520 C   0  0  0  0  0  2  0  0  0  0  0  0
  193.9510  175.9420  136.9270 C   0  0  0  0  0  2  0  0  0  0  0  0
  193.4370  174.7950  137.7720 C   0  0  0  0  0  2  0  0  0  0  0  0
  192.8130  176.1700  137.9060 C   0  0  0  0  0  3  0  0  0  0  0  0
  1  4  1  0  0  0  0
  2  5  1  0  0  0  0
  2  7  2  0  0  0  0
  3  4  2  0  0  0  0
  3  9  1  0  0  0  0
  5  1  2  0  0  0  0
  6  7  1  0  0  0  0
  7  3  1  0  0  0  0
  8  5  1  0  0  0  0
  9 10  1  0  0  0  0
 12 11  1  0  0  0  0
 12 17  1  0  0  0  0
 13 14  1  0  0  0  0
 13 16  1  0  0  0  0
 14 15  1  0  0  0  0
 15 10  1  1  0  0  0
 15 11  1  0  0  0  0
 16 12  1  0  0  0  0
 17 18  2  0  0  0  0
 17 20  1  0  0  0  0
 19 17  2  0  0  0  0
 20 27  1  0  0  0  0
 22 26  1  0  0  0  0
 24 21  1  6  0  0  0
 24 26  1  0  0  0  0
 24 23  1  0  0  0  0
 25 24  1  0  0  0  0
 27 25  1  0  0  0  0
 27 22  1  0  0  0  0
 28  1  1  0  0  0  0
 28 30  1  0  0  0  0
 29 33  1  0  0  0  0
 30 32  1  0  0  0  0
 30 29  2  0  0  0  0
 31 49  1  0  0  0  0
 31 34  1  0  0  0  0
 32 31  2  0  0  0  0
 33 34  2  0  0  0  0
 34 36  1  0  0  0  0
 35 29  1  0  0  0  0
 36 37  1  0  0  0  0
 37 38  1  0  0  0  0
 38 39  1  0  0  0  0
 39 43  1  0  0  0  0
 40 39  1  0  0  0  0
 40 47  1  1  0  0  0
 40 43  1  0  0  0  0
 41 43  1  0  0  0  0
 41 44  1  0  0  0  0
 43 45  1  0  0  0  0
 44 42  1  0  0  0  0
 45 46  1  0  0  0  0
 46 42  1  0  0  0  0
 48 47  1  0  0  0  0
 49 50  1  0  0  0  0
 51 50  1  0  0  0  0
 52 53  1  0  0  0  0
 52 54  1  0  0  0  0
 53 54  1  0  0  0  0
 54 51  1  0  0  0  0
M  END
>  <MODEL>
6

>  <REMARK>
 VINA RESULT:      -6.6      2.656      9.257
  Name = 
  17 active torsions:
  status: ('A' for Active; 'I' for Inactive)
    1  A    between atoms: C_1  and  O_6
    2  A    between atoms: C_1  and  C_24
    3  A    between atoms: C_3  and  C_27
    4  A    between atoms: C_5  and  S_45
    5  A    between atoms: O_6  and  C_39
    6  A    between atoms: C_8  and  C_18
    7  A    between atoms: C_8  and  O_20
    8  A    between atoms: C_9  and  S_45
    9  A    between atoms: C_10  and  O_20
   10  A    between atoms: N_11  and  C_24
   11  A    between atoms: C_14  and  C_23
   12  A    between atoms: N_15  and  S_26
   13  A    between atoms: C_18  and  C_22
   14  A    between atoms: N_19  and  C_23
   15  A    between atoms: N_19  and  C_50
   16  A    between atoms: S_26  and  C_53
   17  A    between atoms: N_47  and  C_53
                            x       y       z     vdW  Elec       q    Type
                         _______ _______ _______ _____ _____    ______ ____

>  <TORSDO>
F 17

$$$$
=
 OpenBabel10232411123D

 54 60  0  0  1  0  0  0  0  0999 V2000
  187.1320  177.7270  145.3050 C   0  0  0  0  0  0  0  0  0  0  0  0
  185.2520  179.1870  145.7740 C   0  0  0  0  0  3  0  0  0  0  0  0
  185.4110  178.0670  143.6260 C   0  0  0  0  0  0  0  0  0  0  0  0
  186.6090  177.4720  144.0310 C   0  0  0  0  0  3  0  0  0  0  0  0
  186.4430  178.5810  146.1830 C   0  0  0  0  0  0  0  0  0  0  0  0
  183.5460  179.5470  144.1120 O   0  0  0  0  0  1  0  0  0  0  0  0
  184.7340  178.9370  144.4990 C   0  0  0  0  0  0  0  0  0  0  0  0
  186.9290  178.8280  147.4610 O   0  0  0  0  0  1  0  0  0  0  0  0
  184.8680  177.7690  142.2710 C   0  0  0  0  0  2  0  0  0  0  0  0
  185.0710  178.9130  141.3960 N   0  0  0  0  0  2  0  0  0  0  0  0
  183.9340  178.3190  139.3140 C   0  0  0  0  0  2  0  0  0  0  0  0
  182.6880  177.6000  139.0220 N   0  0  0  0  0  0  0  0  0  0  0  0
  181.5860  179.0270  140.7160 C   0  0  0  0  0  2  0  0  0  0  0  0
  182.7510  178.6220  141.3990 O   0  0  0  0  0  0  0  0  0  0  0  0
  183.8410  179.0850  140.6430 C   0  0  1  0  0  3  0  0  0  0  0  0
  181.5410  178.4740  139.2770 C   0  0  0  0  0  2  0  0  0  0  0  0
  182.7000  177.2060  137.3320 S   0  0  0  0  0  0  0  0  0  0  0  0
  184.0560  177.5070  136.7610 O   0  0  0  0  0  0  0  0  0  0  0  0
  181.6660  178.0230  136.6060 O   0  0  0  0  0  0  0  0  0  0  0  0
  182.3420  175.4720  137.0970 C   0  0  0  0  0  2  0  0  0  0  0  0
  184.5450  171.5780  135.7190 C   0  0  0  0  0  1  0  0  0  0  0  0
  184.2120  174.2840  137.8510 C   0  0  0  0  0  2  0  0  0  0  0  0
  182.8040  171.6240  137.3460 O   0  0  0  0  0  1  0  0  0  0  0  0
  183.7640  172.4170  136.7110 C   0  0  2  0  0  0  0  0  0  0  0  0
  183.0900  173.5600  135.9950 C   0  0  0  0  0  2  0  0  0  0  0  0
  184.6380  172.9530  137.6630 O   0  0  0  0  0  0  0  0  0  0  0  0
  183.5360  174.7660  136.6550 N   0  0  0  0  0  0  0  0  0  0  0  0
  188.6550  176.9120  145.7990 S   0  0  0  0  0  0  0  0  0  0  0  0
  190.8420  177.4730  144.1600 C   0  0  0  0  0  0  0  0  0  0  0  0
  189.4660  177.2060  144.2250 C   0  0  0  0  0  0  0  0  0  0  0  0
  189.3360  177.3280  141.7960 C   0  0  0  0  0  0  0  0  0  0  0  0
  188.7210  177.1300  143.0440 C   0  0  0  0  0  3  0  0  0  0  0  0
  191.4580  177.6690  142.9200 C   0  0  0  0  0  3  0  0  0  0  0  0
  190.7120  177.5970  141.7330 C   0  0  0  0  0  0  0  0  0  0  0  0
  191.6090  177.5280  145.3180 O   0  0  0  0  0  1  0  0  0  0  0  0
  191.3140  177.7880  140.4850 O   0  0  0  0  0  0  0  0  0  0  0  0
  192.0490  176.7670  139.8170 C   0  0  0  0  0  2  0  0  0  0  0  0
  191.4570  176.5230  138.4440 C   0  0  0  0  0  2  0  0  0  0  0  0
  191.5830  175.1120  138.0980 N   0  0  0  0  0  0  0  0  0  0  0  0
  190.7320  174.9130  136.9030 C   0  0  1  0  0  3  0  0  0  0  0  0
  192.8360  176.0990  136.0660 C   0  0  0  0  0  2  0  0  0  0  0  0
  194.9340  174.8270  135.9870 N   0  0  0  0  0  2  0  0  0  0  0  0
  192.1920  174.8910  136.7600 C   0  0  0  0  0  0  0  0  0  0  0  0
  194.3360  176.1090  136.3600 C   0  0  0  0  0  2  0  0  0  0  0  0
  192.9440  173.5600  136.6740 C   0  0  0  0  0  2  0  0  0  0  0  0
  194.4370  173.8050  136.9080 C   0  0  0  0  0  2  0  0  0  0  0  0
  190.0860  173.5370  136.9700 C   0  0  0  0  0  2  0  0  0  0  0  0
  189.4890  173.2410  135.7450 O   0  0  0  0  0  1  0  0  0  0  0  0
  188.6000  177.2590  140.6070 O   0  0  0  0  0  0  0  0  0  0  0  0
  188.2040  178.4130  139.8750 C   0  0  0  0  0  2  0  0  0  0  0  0
  188.4640  178.2060  138.3880 C   0  0  0  0  0  2  0  0  0  0  0  0
  187.5670  177.3070  136.2690 C   0  0  0  0  0  2  0  0  0  0  0  0
  187.4280  176.2330  137.3290 C   0  0  0  0  0  2  0  0  0  0  0  0
  187.2160  177.6890  137.6970 C   0  0  0  0  0  3  0  0  0  0  0  0
  1 28  1  0  0  0  0
  1  5  1  0  0  0  0
  2  5  2  0  0  0  0
  3  4  1  0  0  0  0
  3  7  2  0  0  0  0
  4  1  2  0  0  0  0
  5  8  1  0  0  0  0
  6  7  1  0  0  0  0
  7  2  1  0  0  0  0
  9  3  1  0  0  0  0
 10  9  1  0  0  0  0
 11 15  1  0  0  0  0
 12 16  1  0  0  0  0
 12 11  1  0  0  0  0
 13 14  1  0  0  0  0
 15 10  1  1  0  0  0
 15 14  1  0  0  0  0
 16 13  1  0  0  0  0
 17 12  1  0  0  0  0
 18 17  2  0  0  0  0
 19 17  2  0  0  0  0
 20 17  1  0  0  0  0
 24 21  1  6  0  0  0
 24 23  1  0  0  0  0
 24 26  1  0  0  0  0
 25 27  1  0  0  0  0
 25 24  1  0  0  0  0
 26 22  1  0  0  0  0
 27 20  1  0  0  0  0
 27 22  1  0  0  0  0
 29 30  1  0  0  0  0
 29 35  1  0  0  0  0
 30 28  1  0  0  0  0
 31 32  1  0  0  0  0
 32 30  2  0  0  0  0
 33 29  2  0  0  0  0
 34 31  2  0  0  0  0
 34 33  1  0  0  0  0
 36 34  1  0  0  0  0
 37 36  1  0  0  0  0
 38 37  1  0  0  0  0
 39 38  1  0  0  0  0
 40 47  1  1  0  0  0
 40 39  1  0  0  0  0
 41 44  1  0  0  0  0
 41 43  1  0  0  0  0
 42 44  1  0  0  0  0
 42 46  1  0  0  0  0
 43 40  1  0  0  0  0
 43 39  1  0  0  0  0
 45 43  1  0  0  0  0
 45 46  1  0  0  0  0
 48 47  1  0  0  0  0
 49 31  1  0  0  0  0
 50 49  1  0  0  0  0
 51 50  1  0  0  0  0
 52 53  1  0  0  0  0
 52 54  1  0  0  0  0
 53 54  1  0  0  0  0
 54 51  1  0  0  0  0
M  END
>  <MODEL>
7

>  <REMARK>
 VINA RESULT:      -6.4      2.388      7.842
  Name = 
  17 active torsions:
  status: ('A' for Active; 'I' for Inactive)
    1  A    between atoms: C_1  and  O_6
    2  A    between atoms: C_1  and  C_24
    3  A    between atoms: C_3  and  C_27
    4  A    between atoms: C_5  and  S_45
    5  A    between atoms: O_6  and  C_39
    6  A    between atoms: C_8  and  C_18
    7  A    between atoms: C_8  and  O_20
    8  A    between atoms: C_9  and  S_45
    9  A    between atoms: C_10  and  O_20
   10  A    between atoms: N_11  and  C_24
   11  A    between atoms: C_14  and  C_23
   12  A    between atoms: N_15  and  S_26
   13  A    between atoms: C_18  and  C_22
   14  A    between atoms: N_19  and  C_23
   15  A    between atoms: N_19  and  C_50
   16  A    between atoms: S_26  and  C_53
   17  A    between atoms: N_47  and  C_53
                            x       y       z     vdW  Elec       q    Type
                         _______ _______ _______ _____ _____    ______ ____

>  <TORSDO>
F 17

$$$$
=
 OpenBabel10232411123D

 54 60  0  0  1  0  0  0  0  0999 V2000
  190.3920  176.1310  137.5970 C   0  0  0  0  0  0  0  0  0  0  0  0
  192.4640  176.7050  138.7210 C   0  0  0  0  0  3  0  0  0  0  0  0
  190.3400  177.0390  139.8490 C   0  0  0  0  0  0  0  0  0  0  0  0
  189.6720  176.5470  138.7240 C   0  0  0  0  0  3  0  0  0  0  0  0
  191.7950  176.2020  137.6020 C   0  0  0  0  0  0  0  0  0  0  0  0
  192.4270  177.6230  140.9470 O   0  0  0  0  0  1  0  0  0  0  0  0
  191.7430  177.1270  139.8430 C   0  0  0  0  0  0  0  0  0  0  0  0
  192.5320  175.7700  136.5060 O   0  0  0  0  0  1  0  0  0  0  0  0
  189.5510  177.4630  141.0400 C   0  0  0  0  0  2  0  0  0  0  0  0
  189.4520  176.3600  141.9820 N   0  0  0  0  0  2  0  0  0  0  0  0
  189.0370  177.1450  144.2620 C   0  0  0  0  0  2  0  0  0  0  0  0
  189.4040  176.6230  145.5830 N   0  0  0  0  0  0  0  0  0  0  0  0
  191.7090  176.3540  144.7260 C   0  0  0  0  0  2  0  0  0  0  0  0
  190.9490  175.7850  143.6830 O   0  0  0  0  0  0  0  0  0  0  0  0
  190.1000  176.7980  143.2070 C   0  0  1  0  0  3  0  0  0  0  0  0
  190.8150  176.9080  145.8530 C   0  0  0  0  0  2  0  0  0  0  0  0
  188.4490  177.4700  146.7590 S   0  0  0  0  0  0  0  0  0  0  0  0
  189.3580  178.2120  147.6970 O   0  0  0  0  0  0  0  0  0  0  0  0
  187.6180  176.4930  147.5470 O   0  0  0  0  0  0  0  0  0  0  0  0
  187.3650  178.6390  145.9530 C   0  0  0  0  0  2  0  0  0  0  0  0
  183.2340  178.4170  143.7610 C   0  0  0  0  0  1  0  0  0  0  0  0
  185.1300  178.8020  146.6300 C   0  0  0  0  0  2  0  0  0  0  0  0
  184.4330  180.4390  144.1520 O   0  0  0  0  0  1  0  0  0  0  0  0
  184.2990  179.1160  144.5820 C   0  0  2  0  0  0  0  0  0  0  0  0
  185.6150  178.3960  144.4330 C   0  0  0  0  0  2  0  0  0  0  0  0
  183.9400  179.0940  145.9340 O   0  0  0  0  0  0  0  0  0  0  0  0
  186.0420  178.0580  145.7720 N   0  0  0  0  0  0  0  0  0  0  0  0
  189.4950  175.4700  136.1880 S   0  0  0  0  0  0  0  0  0  0  0  0
  187.8130  177.6620  136.5720 C   0  0  0  0  0  0  0  0  0  0  0  0
  187.9520  176.2670  136.6400 C   0  0  0  0  0  0  0  0  0  0  0  0
  185.6350  176.0780  137.3640 C   0  0  0  0  0  0  0  0  0  0  0  0
  186.8630  175.4820  137.0310 C   0  0  0  0  0  3  0  0  0  0  0  0
  186.5910  178.2580  136.9020 C   0  0  0  0  0  3  0  0  0  0  0  0
  185.4970  177.4730  137.2970 C   0  0  0  0  0  0  0  0  0  0  0  0
  188.8730  178.4610  136.1620 O   0  0  0  0  0  1  0  0  0  0  0  0
  184.2680  178.0540  137.6270 O   0  0  0  0  0  0  0  0  0  0  0  0
  183.9760  178.5600  138.9250 C   0  0  0  0  0  2  0  0  0  0  0  0
  182.9300  179.6520  138.8270 C   0  0  0  0  0  2  0  0  0  0  0  0
  181.9570  179.3100  137.7970 N   0  0  0  0  0  0  0  0  0  0  0  0
  180.7260  178.9160  138.5180 C   0  0  1  0  0  3  0  0  0  0  0  0
  180.8280  181.4670  138.6610 C   0  0  0  0  0  2  0  0  0  0  0  0
  180.3870  182.7640  136.6240 N   0  0  0  0  0  2  0  0  0  0  0  0
  180.7630  180.1970  137.8010 C   0  0  0  0  0  0  0  0  0  0  0  0
  181.2640  182.6440  137.7880 C   0  0  0  0  0  2  0  0  0  0  0  0
  180.1290  180.3290  136.4150 C   0  0  0  0  0  2  0  0  0  0  0  0
  180.6270  181.6150  135.7500 C   0  0  0  0  0  2  0  0  0  0  0  0
  180.0360  177.7910  137.7600 C   0  0  0  0  0  2  0  0  0  0  0  0
  180.5280  176.5630  138.1980 O   0  0  0  0  0  1  0  0  0  0  0  0
  184.5380  175.3030  137.7600 O   0  0  0  0  0  0  0  0  0  0  0  0
  183.4560  174.9930  136.8890 C   0  0  0  0  0  2  0  0  0  0  0  0
  183.1120  173.5120  136.9890 C   0  0  0  0  0  2  0  0  0  0  0  0
  183.8980  171.2050  136.5870 C   0  0  0  0  0  2  0  0  0  0  0  0
  184.1040  171.9980  135.3120 C   0  0  0  0  0  2  0  0  0  0  0  0
  184.3240  172.6610  136.6580 C   0  0  0  0  0  3  0  0  0  0  0  0
  1  5  2  0  0  0  0
  1  4  1  0  0  0  0
  2  7  2  0  0  0  0
  3  9  1  0  0  0  0
  4  3  2  0  0  0  0
  5  2  1  0  0  0  0
  7  3  1  0  0  0  0
  7  6  1  0  0  0  0
  8  5  1  0  0  0  0
  9 10  1  0  0  0  0
 11 12  1  0  0  0  0
 12 16  1  0  0  0  0
 12 17  1  0  0  0  0
 13 16  1  0  0  0  0
 14 13  1  0  0  0  0
 15 10  1  6  0  0  0
 15 14  1  0  0  0  0
 15 11  1  0  0  0  0
 17 19  2  0  0  0  0
 17 18  2  0  0  0  0
 20 17  1  0  0  0  0
 23 24  1  0  0  0  0
 24 21  1  6  0  0  0
 24 26  1  0  0  0  0
 25 24  1  0  0  0  0
 25 27  1  0  0  0  0
 26 22  1  0  0  0  0
 27 20  1  0  0  0  0
 27 22  1  0  0  0  0
 28 30  1  0  0  0  0
 28  1  1  0  0  0  0
 29 30  2  0  0  0  0
 29 33  1  0  0  0  0
 30 32  1  0  0  0  0
 31 49  1  0  0  0  0
 32 31  2  0  0  0  0
 33 34  2  0  0  0  0
 34 31  1  0  0  0  0
 34 36  1  0  0  0  0
 35 29  1  0  0  0  0
 36 37  1  0  0  0  0
 38 37  1  0  0  0  0
 39 43  1  0  0  0  0
 39 40  1  0  0  0  0
 39 38  1  0  0  0  0
 40 47  1  6  0  0  0
 42 44  1  0  0  0  0
 43 40  1  0  0  0  0
 43 41  1  0  0  0  0
 44 41  1  0  0  0  0
 45 43  1  0  0  0  0
 46 45  1  0  0  0  0
 46 42  1  0  0  0  0
 47 48  1  0  0  0  0
 50 51  1  0  0  0  0
 50 49  1  0  0  0  0
 52 54  1  0  0  0  0
 53 52  1  0  0  0  0
 53 54  1  0  0  0  0
 54 51  1  0  0  0  0
M  END
>  <MODEL>
8

>  <REMARK>
 VINA RESULT:      -6.3      2.870      6.887
  Name = 
  17 active torsions:
  status: ('A' for Active; 'I' for Inactive)
    1  A    between atoms: C_1  and  O_6
    2  A    between atoms: C_1  and  C_24
    3  A    between atoms: C_3  and  C_27
    4  A    between atoms: C_5  and  S_45
    5  A    between atoms: O_6  and  C_39
    6  A    between atoms: C_8  and  C_18
    7  A    between atoms: C_8  and  O_20
    8  A    between atoms: C_9  and  S_45
    9  A    between atoms: C_10  and  O_20
   10  A    between atoms: N_11  and  C_24
   11  A    between atoms: C_14  and  C_23
   12  A    between atoms: N_15  and  S_26
   13  A    between atoms: C_18  and  C_22
   14  A    between atoms: N_19  and  C_23
   15  A    between atoms: N_19  and  C_50
   16  A    between atoms: S_26  and  C_53
   17  A    between atoms: N_47  and  C_53
                            x       y       z     vdW  Elec       q    Type
                         _______ _______ _______ _____ _____    ______ ____

>  <TORSDO>
F 17

$$$$
=
 OpenBabel10232411123D

 54 60  0  0  1  0  0  0  0  0999 V2000
  182.3940  178.9050  141.8510 C   0  0  0  0  0  0  0  0  0  0  0  0
  183.0980  178.8330  144.1720 C   0  0  0  0  0  3  0  0  0  0  0  0
  184.6750  178.2870  142.4100 C   0  0  0  0  0  0  0  0  0  0  0  0
  183.6800  178.5150  141.4560 C   0  0  0  0  0  3  0  0  0  0  0  0
  182.1070  179.0740  143.2160 C   0  0  0  0  0  0  0  0  0  0  0  0
  185.3520  178.2050  144.7420 O   0  0  0  0  0  1  0  0  0  0  0  0
  184.3800  178.4370  143.7760 C   0  0  0  0  0  0  0  0  0  0  0  0
  180.8470  179.4860  143.6320 O   0  0  0  0  0  1  0  0  0  0  0  0
  186.0390  177.8860  141.9620 C   0  0  0  0  0  2  0  0  0  0  0  0
  186.8810  179.0650  141.8310 N   0  0  0  0  0  2  0  0  0  0  0  0
  189.0720  178.1930  142.4800 C   0  0  0  0  0  2  0  0  0  0  0  0
  189.7800  176.9420  142.1860 N   0  0  0  0  0  0  0  0  0  0  0  0
  189.1990  177.2900  139.8060 C   0  0  0  0  0  2  0  0  0  0  0  0
  187.9610  177.5280  140.4390 O   0  0  0  0  0  0  0  0  0  0  0  0
  188.1600  178.6090  141.3150 C   0  0  1  0  0  3  0  0  0  0  0  0
  190.3160  176.9850  140.8240 C   0  0  0  0  0  2  0  0  0  0  0  0
  191.1150  176.8290  143.2880 S   0  0  0  0  0  0  0  0  0  0  0  0
  192.3500  177.3790  142.6310 O   0  0  0  0  0  0  0  0  0  0  0  0
  191.3550  175.3910  143.6610 O   0  0  0  0  0  0  0  0  0  0  0  0
  190.7780  177.7670  144.7700 C   0  0  0  0  0  2  0  0  0  0  0  0
  187.8300  176.9120  148.3050 C   0  0  0  0  0  1  0  0  0  0  0  0
  191.0310  177.1280  147.0070 C   0  0  0  0  0  2  0  0  0  0  0  0
  188.8130  179.0390  147.8690 O   0  0  0  0  0  1  0  0  0  0  0  0
  188.9550  177.6690  147.6300 C   0  0  2  0  0  0  0  0  0  0  0  0
  188.9320  177.4050  146.1450 C   0  0  0  0  0  2  0  0  0  0  0  0
  190.1850  177.2280  148.1310 O   0  0  0  0  0  0  0  0  0  0  0  0
  190.2410  176.8960  145.8070 N   0  0  0  0  0  0  0  0  0  0  0  0
  181.1560  179.2250  140.5900 S   0  0  0  0  0  0  0  0  0  0  0  0
  181.0720  176.6490  139.5220 C   0  0  0  0  0  0  0  0  0  0  0  0
  181.7190  177.8940  139.5260 C   0  0  0  0  0  0  0  0  0  0  0  0
  183.2410  177.1010  137.7980 C   0  0  0  0  0  0  0  0  0  0  0  0
  182.7960  178.1150  138.6620 C   0  0  0  0  0  3  0  0  0  0  0  0
  181.5120  175.6370  138.6620 C   0  0  0  0  0  3  0  0  0  0  0  0
  182.5940  175.8550  137.7960 C   0  0  0  0  0  0  0  0  0  0  0  0
  179.9840  176.4130  140.3530 O   0  0  0  0  0  1  0  0  0  0  0  0
  183.0420  174.8540  136.9280 O   0  0  0  0  0  0  0  0  0  0  0  0
  182.3080  174.4390  135.7810 C   0  0  0  0  0  2  0  0  0  0  0  0
  183.1340  173.4640  134.9680 C   0  0  0  0  0  2  0  0  0  0  0  0
  183.8550  172.5650  135.8620 N   0  0  0  0  0  0  0  0  0  0  0  0
  184.2160  171.3860  135.0430 C   0  0  1  0  0  3  0  0  0  0  0  0
  185.8360  173.2360  134.3460 C   0  0  0  0  0  2  0  0  0  0  0  0
  187.5950  173.8970  135.9260 N   0  0  0  0  0  2  0  0  0  0  0  0
  185.2630  172.3310  135.4460 C   0  0  0  0  0  0  0  0  0  0  0  0
  186.5880  174.4000  134.9920 C   0  0  0  0  0  2  0  0  0  0  0  0
  186.1780  172.0180  136.6330 C   0  0  0  0  0  2  0  0  0  0  0  0
  186.9020  173.2950  137.0650 C   0  0  0  0  0  2  0  0  0  0  0  0
  184.1350  170.1330  135.9030 C   0  0  0  0  0  2  0  0  0  0  0  0
  184.8520  169.1020  135.2950 O   0  0  0  0  0  1  0  0  0  0  0  0
  184.3200  177.3090  136.9300 O   0  0  0  0  0  0  0  0  0  0  0  0
  185.6510  176.9120  137.2430 C   0  0  0  0  0  2  0  0  0  0  0  0
  186.5970  178.0980  137.1060 C   0  0  0  0  0  2  0  0  0  0  0  0
  188.9970  178.3130  136.5620 C   0  0  0  0  0  2  0  0  0  0  0  0
  188.6630  176.8360  136.6270 C   0  0  0  0  0  2  0  0  0  0  0  0
  187.6550  177.8140  136.0550 C   0  0  0  0  0  3  0  0  0  0  0  0
  1  5  1  0  0  0  0
  3  7  2  0  0  0  0
  4  1  2  0  0  0  0
  4  3  1  0  0  0  0
  5  8  1  0  0  0  0
  5  2  2  0  0  0  0
  7  2  1  0  0  0  0
  7  6  1  0  0  0  0
  9  3  1  0  0  0  0
 10  9  1  0  0  0  0
 12 11  1  0  0  0  0
 12 17  1  0  0  0  0
 13 14  1  0  0  0  0
 13 16  1  0  0  0  0
 14 15  1  0  0  0  0
 15 10  1  1  0  0  0
 15 11  1  0  0  0  0
 16 12  1  0  0  0  0
 17 19  2  0  0  0  0
 17 20  1  0  0  0  0
 18 17  2  0  0  0  0
 20 27  1  0  0  0  0
 22 26  1  0  0  0  0
 24 23  1  0  0  0  0
 24 26  1  0  0  0  0
 24 21  1  1  0  0  0
 25 24  1  0  0  0  0
 27 25  1  0  0  0  0
 27 22  1  0  0  0  0
 28  1  1  0  0  0  0
 29 30  1  0  0  0  0
 29 35  1  0  0  0  0
 30 28  1  0  0  0  0
 31 32  1  0  0  0  0
 32 30  2  0  0  0  0
 33 29  2  0  0  0  0
 34 31  2  0  0  0  0
 34 33  1  0  0  0  0
 36 34  1  0  0  0  0
 37 36  1  0  0  0  0
 38 37  1  0  0  0  0
 38 39  1  0  0  0  0
 40 43  1  0  0  0  0
 40 39  1  0  0  0  0
 40 47  1  1  0  0  0
 41 44  1  0  0  0  0
 41 43  1  0  0  0  0
 42 46  1  0  0  0  0
 43 39  1  0  0  0  0
 43 45  1  0  0  0  0
 44 42  1  0  0  0  0
 45 46  1  0  0  0  0
 48 47  1  0  0  0  0
 49 50  1  0  0  0  0
 49 31  1  0  0  0  0
 51 50  1  0  0  0  0
 52 53  1  0  0  0  0
 54 52  1  0  0  0  0
 54 53  1  0  0  0  0
 54 51  1  0  0  0  0
M  END
>  <MODEL>
9

>  <REMARK>
 VINA RESULT:      -6.3      1.656      3.736
  Name = 
  17 active torsions:
  status: ('A' for Active; 'I' for Inactive)
    1  A    between atoms: C_1  and  O_6
    2  A    between atoms: C_1  and  C_24
    3  A    between atoms: C_3  and  C_27
    4  A    between atoms: C_5  and  S_45
    5  A    between atoms: O_6  and  C_39
    6  A    between atoms: C_8  and  C_18
    7  A    between atoms: C_8  and  O_20
    8  A    between atoms: C_9  and  S_45
    9  A    between atoms: C_10  and  O_20
   10  A    between atoms: N_11  and  C_24
   11  A    between atoms: C_14  and  C_23
   12  A    between atoms: N_15  and  S_26
   13  A    between atoms: C_18  and  C_22
   14  A    between atoms: N_19  and  C_23
   15  A    between atoms: N_19  and  C_50
   16  A    between atoms: S_26  and  C_53
   17  A    between atoms: N_47  and  C_53
                            x       y       z     vdW  Elec       q    Type
                         _______ _______ _______ _____ _____    ______ ____

>  <TORSDO>
F 17

$$$$
