=
 OpenBabel10232407543D

 26 30  0  0  1  0  0  0  0  0999 V2000
  185.8490  179.3390  141.7920 C   0  0  2  0  0  3  0  0  0  0  0  0
  184.9760  179.6590  143.0080 C   0  0  0  0  0  2  0  0  0  0  0  0
  184.0480  178.4990  143.3460 C   0  0  0  0  0  2  0  0  0  0  0  0
  181.5720  176.1990  138.6620 C   0  0  0  0  0  2  0  0  0  0  0  0
  183.8060  177.3560  138.5550 C   0  0  0  0  0  0  0  0  0  0  0  0
  185.0810  178.6880  140.6750 C   0  0  0  0  0  0  0  0  0  0  0  0
  183.8020  178.0620  140.9330 N   0  0  0  0  0  0  0  0  0  0  0  0
  183.1700  177.3940  139.8360 C   0  0  0  0  0  0  0  0  0  0  0  0
  183.0830  178.2720  142.1900 C   0  0  0  0  0  2  0  0  0  0  0  0
  182.0250  176.8090  139.9110 N   0  0  0  0  0  0  0  0  0  0  0  0
  184.9880  177.9550  138.3760 C   0  0  0  0  0  0  0  0  0  0  0  0
  185.6210  178.6200  139.4870 N   0  0  0  0  0  0  0  0  0  0  0  0
  182.8370  176.4810  137.3480 S   0  0  0  0  0  0  0  0  0  0  0  0
  185.6690  177.9360  137.0520 C   0  0  0  0  0  1  0  0  0  0  0  0
  189.3460  177.8040  142.1290 C   0  0  0  0  0  2  0  0  0  0  0  0
  187.0240  178.5540  142.1740 N   0  0  0  0  0  0  0  0  0  0  0  0
  188.5190  177.1260  145.8250 C   0  0  0  0  0  0  0  0  0  0  0  0
  186.6210  178.0690  144.6160 C   0  0  0  0  0  3  0  0  0  0  0  0
  189.0510  176.6420  147.0140 O   0  0  0  0  0  1  0  0  0  0  0  0
  188.7200  177.6590  143.4810 C   0  0  0  0  0  0  0  0  0  0  0  0
  188.2540  178.7470  140.1680 O   0  0  0  0  0  0  0  0  0  0  0  0
  187.4120  178.1030  143.4660 C   0  0  0  0  0  0  0  0  0  0  0  0
  190.7170  176.6910  144.6610 C   0  0  0  0  0  1  0  0  0  0  0  0
  188.1960  178.4010  141.3760 C   0  0  0  0  0  0  0  0  0  0  0  0
  189.3020  177.1640  144.6530 C   0  0  0  0  0  0  0  0  0  0  0  0
  187.1850  177.5760  145.8000 C   0  0  0  0  0  3  0  0  0  0  0  0
  1 16  1  1  0  0  0
  1  2  1  0  0  0  0
  2  3  1  0  0  0  0
  4 10  1  0  0  0  0
  5  8  1  0  0  0  0
  6  7  1  0  0  0  0
  6  1  1  0  0  0  0
  7  9  1  0  0  0  0
  8 10  2  0  0  0  0
  8  7  1  0  0  0  0
  9  3  1  0  0  0  0
 11  5  2  0  0  0  0
 11 12  1  0  0  0  0
 12  6  2  0  0  0  0
 13  5  1  0  0  0  0
 13  4  1  0  0  0  0
 14 11  1  0  0  0  0
 15 20  1  0  0  0  0
 16 22  1  0  0  0  0
 17 19  1  0  0  0  0
 18 26  2  0  0  0  0
 20 25  1  0  0  0  0
 21 24  2  0  0  0  0
 22 20  2  0  0  0  0
 22 18  1  0  0  0  0
 24 15  1  0  0  0  0
 24 16  1  0  0  0  0
 25 23  1  0  0  0  0
 25 17  2  0  0  0  0
 26 17  1  0  0  0  0
M  END
>  <MODEL>
1

>  <REMARK>
 VINA RESULT:      -8.6      0.000      0.000
  Name = 
  1 active torsions:
  status: ('A' for Active; 'I' for Inactive)
    1  A    between atoms: C_1  and  N_4
                            x       y       z     vdW  Elec       q    Type
                         _______ _______ _______ _____ _____    ______ ____

>  <TORSDO>
F 1

$$$$
=
 OpenBabel10232407543D

 26 30  0  0  1  0  0  0  0  0999 V2000
  190.1050  177.7870  139.0640 C   0  0  2  0  0  3  0  0  0  0  0  0
  188.9940  178.8400  139.0270 C   0  0  0  0  0  2  0  0  0  0  0  0
  187.6180  178.2020  139.1720 C   0  0  0  0  0  2  0  0  0  0  0  0
  187.0380  173.4240  135.9800 C   0  0  0  0  0  2  0  0  0  0  0  0
  189.2800  174.1930  136.8310 C   0  0  0  0  0  0  0  0  0  0  0  0
  189.7870  176.5730  138.2360 C   0  0  0  0  0  0  0  0  0  0  0  0
  188.4230  176.2890  137.8440 N   0  0  0  0  0  0  0  0  0  0  0  0
  188.1910  175.0740  137.1240 C   0  0  0  0  0  0  0  0  0  0  0  0
  187.3600  177.2850  137.9850 C   0  0  0  0  0  2  0  0  0  0  0  0
  187.0360  174.7000  136.6960 N   0  0  0  0  0  0  0  0  0  0  0  0
  190.5200  174.5090  137.2170 C   0  0  0  0  0  0  0  0  0  0  0  0
  190.7440  175.7320  137.9460 N   0  0  0  0  0  0  0  0  0  0  0  0
  188.7560  172.7540  135.9270 S   0  0  0  0  0  0  0  0  0  0  0  0
  191.6720  173.6140  136.9190 C   0  0  0  0  0  1  0  0  0  0  0  0
  191.8200  177.2900  142.4570 C   0  0  0  0  0  2  0  0  0  0  0  0
  190.4520  177.4290  140.4420 N   0  0  0  0  0  0  0  0  0  0  0  0
  188.3190  177.3160  144.0530 C   0  0  0  0  0  0  0  0  0  0  0  0
  188.2210  177.4480  141.6180 C   0  0  0  0  0  3  0  0  0  0  0  0
  187.6500  177.2730  145.2700 O   0  0  0  0  0  1  0  0  0  0  0  0
  190.3530  177.3170  142.7570 C   0  0  0  0  0  0  0  0  0  0  0  0
  192.8040  177.4450  140.2360 O   0  0  0  0  0  0  0  0  0  0  0  0
  189.6160  177.4050  141.5920 C   0  0  0  0  0  0  0  0  0  0  0  0
  190.5320  177.1790  145.2600 C   0  0  0  0  0  1  0  0  0  0  0  0
  191.7780  177.3890  140.9620 C   0  0  0  0  0  0  0  0  0  0  0  0
  189.7270  177.2710  144.0070 C   0  0  0  0  0  0  0  0  0  0  0  0
  187.5750  177.4030  142.8610 C   0  0  0  0  0  3  0  0  0  0  0  0
  1  2  1  1  0  0  0
  1 16  1  0  0  0  0
  2  3  1  0  0  0  0
  4 10  1  0  0  0  0
  5  8  1  0  0  0  0
  5 11  2  0  0  0  0
  6  1  1  0  0  0  0
  7  9  1  0  0  0  0
  7  6  1  0  0  0  0
  8  7  1  0  0  0  0
  9  3  1  0  0  0  0
 10  8  2  0  0  0  0
 11 12  1  0  0  0  0
 12  6  2  0  0  0  0
 13  4  1  0  0  0  0
 13  5  1  0  0  0  0
 14 11  1  0  0  0  0
 15 20  1  0  0  0  0
 16 24  1  0  0  0  0
 16 22  1  0  0  0  0
 17 19  1  0  0  0  0
 18 26  1  0  0  0  0
 20 25  2  0  0  0  0
 21 24  2  0  0  0  0
 22 18  2  0  0  0  0
 22 20  1  0  0  0  0
 24 15  1  0  0  0  0
 25 17  1  0  0  0  0
 25 23  1  0  0  0  0
 26 17  2  0  0  0  0
M  END
>  <MODEL>
2

>  <REMARK>
 VINA RESULT:      -8.4      3.842      4.993
  Name = 
  1 active torsions:
  status: ('A' for Active; 'I' for Inactive)
    1  A    between atoms: C_1  and  N_4
                            x       y       z     vdW  Elec       q    Type
                         _______ _______ _______ _____ _____    ______ ____

>  <TORSDO>
F 1

$$$$
=
 OpenBabel10232407543D

 26 30  0  0  1  0  0  0  0  0999 V2000
  189.6790  176.8500  136.9120 C   0  0  2  0  0  3  0  0  0  0  0  0
  189.3720  178.2970  136.5200 C   0  0  0  0  0  2  0  0  0  0  0  0
  188.1150  178.8060  137.2140 C   0  0  0  0  0  2  0  0  0  0  0  0
  183.8300  174.9350  137.1670 C   0  0  0  0  0  2  0  0  0  0  0  0
  186.2500  174.2430  137.0830 C   0  0  0  0  0  0  0  0  0  0  0  0
  188.4580  175.9730  136.9150 C   0  0  0  0  0  0  0  0  0  0  0  0
  187.1350  176.5580  136.9740 N   0  0  0  0  0  0  0  0  0  0  0  0
  186.0270  175.6560  137.0530 C   0  0  0  0  0  0  0  0  0  0  0  0
  186.9170  177.9880  136.7520 C   0  0  0  0  0  2  0  0  0  0  0  0
  184.7950  176.0310  137.0930 N   0  0  0  0  0  0  0  0  0  0  0  0
  187.4950  173.7610  137.0240 C   0  0  0  0  0  0  0  0  0  0  0  0
  188.6070  174.6760  136.9500 N   0  0  0  0  0  0  0  0  0  0  0  0
  184.7310  173.3240  137.1780 S   0  0  0  0  0  0  0  0  0  0  0  0
  187.7560  172.2950  137.0470 C   0  0  0  0  0  1  0  0  0  0  0  0
  192.2860  176.9670  139.7200 C   0  0  0  0  0  2  0  0  0  0  0  0
  190.3980  176.7860  138.1870 N   0  0  0  0  0  0  0  0  0  0  0  0
  189.4050  177.7570  142.1460 C   0  0  0  0  0  0  0  0  0  0  0  0
  188.6090  177.3290  139.8790 C   0  0  0  0  0  3  0  0  0  0  0  0
  189.1190  178.0740  143.4680 O   0  0  0  0  0  1  0  0  0  0  0  0
  190.9730  177.2270  140.3910 C   0  0  0  0  0  0  0  0  0  0  0  0
  192.5860  176.4880  137.3520 O   0  0  0  0  0  0  0  0  0  0  0  0
  189.9330  177.1250  139.4870 C   0  0  0  0  0  0  0  0  0  0  0  0
  191.8660  177.6560  142.7000 C   0  0  0  0  0  1  0  0  0  0  0  0
  191.8150  176.7190  138.3200 C   0  0  0  0  0  0  0  0  0  0  0  0
  190.7360  177.5450  141.7330 C   0  0  0  0  0  0  0  0  0  0  0  0
  188.3510  177.6470  141.2200 C   0  0  0  0  0  3  0  0  0  0  0  0
  1  2  1  1  0  0  0
  1  6  1  0  0  0  0
  1 16  1  0  0  0  0
  2  3  1  0  0  0  0
  4 13  1  0  0  0  0
  5 13  1  0  0  0  0
  6 12  2  0  0  0  0
  6  7  1  0  0  0  0
  7  8  1  0  0  0  0
  8  5  1  0  0  0  0
  8 10  2  0  0  0  0
  9  7  1  0  0  0  0
  9  3  1  0  0  0  0
 10  4  1  0  0  0  0
 11 14  1  0  0  0  0
 11  5  2  0  0  0  0
 12 11  1  0  0  0  0
 15 20  1  0  0  0  0
 16 24  1  0  0  0  0
 16 22  1  0  0  0  0
 17 19  1  0  0  0  0
 18 26  1  0  0  0  0
 20 25  2  0  0  0  0
 21 24  2  0  0  0  0
 22 18  2  0  0  0  0
 22 20  1  0  0  0  0
 24 15  1  0  0  0  0
 25 17  1  0  0  0  0
 25 23  1  0  0  0  0
 26 17  2  0  0  0  0
M  END
>  <MODEL>
3

>  <REMARK>
 VINA RESULT:      -8.1      3.621      5.087
  Name = 
  1 active torsions:
  status: ('A' for Active; 'I' for Inactive)
    1  A    between atoms: C_1  and  N_4
                            x       y       z     vdW  Elec       q    Type
                         _______ _______ _______ _____ _____    ______ ____

>  <TORSDO>
F 1

$$$$
=
 OpenBabel10232407543D

 26 30  0  0  1  0  0  0  0  0999 V2000
  184.5330  179.1850  140.0430 C   0  0  2  0  0  3  0  0  0  0  0  0
  183.0260  179.1110  140.2990 C   0  0  0  0  0  2  0  0  0  0  0  0
  182.4810  177.7170  140.0180 C   0  0  0  0  0  2  0  0  0  0  0  0
  184.5920  175.4500  135.1440 C   0  0  0  0  0  2  0  0  0  0  0  0
  185.8740  177.1540  136.4840 C   0  0  0  0  0  0  0  0  0  0  0  0
  184.9440  178.4990  138.7690 C   0  0  0  0  0  0  0  0  0  0  0  0
  184.0670  177.5330  138.1410 N   0  0  0  0  0  0  0  0  0  0  0  0
  184.5610  176.8650  136.9750 C   0  0  0  0  0  0  0  0  0  0  0  0
  182.6670  177.3910  138.5430 C   0  0  0  0  0  2  0  0  0  0  0  0
  183.8880  175.9970  136.3030 N   0  0  0  0  0  0  0  0  0  0  0  0
  186.6370  178.0580  137.1050 C   0  0  0  0  0  0  0  0  0  0  0  0
  186.1350  178.7220  138.2810 N   0  0  0  0  0  0  0  0  0  0  0  0
  186.2680  176.2120  135.0280 S   0  0  0  0  0  0  0  0  0  0  0  0
  188.0040  178.3820  136.6100 C   0  0  0  0  0  1  0  0  0  0  0  0
  187.2500  178.2630  142.5850 C   0  0  0  0  0  2  0  0  0  0  0  0
  185.2930  178.6920  141.1940 N   0  0  0  0  0  0  0  0  0  0  0  0
  184.5590  178.5320  145.3210 C   0  0  0  0  0  0  0  0  0  0  0  0
  183.6340  178.8540  143.0860 C   0  0  0  0  0  3  0  0  0  0  0  0
  184.3580  178.4680  146.6950 O   0  0  0  0  0  1  0  0  0  0  0  0
  185.9960  178.4180  143.3880 C   0  0  0  0  0  0  0  0  0  0  0  0
  187.4080  178.4790  140.1650 O   0  0  0  0  0  0  0  0  0  0  0  0
  184.9160  178.6690  142.5650 C   0  0  0  0  0  0  0  0  0  0  0  0
  187.0200  178.0770  145.6580 C   0  0  0  0  0  1  0  0  0  0  0  0
  186.7020  178.4760  141.2070 C   0  0  0  0  0  0  0  0  0  0  0  0
  185.8460  178.3450  144.7770 C   0  0  0  0  0  0  0  0  0  0  0  0
  183.4620  178.7840  144.4760 C   0  0  0  0  0  3  0  0  0  0  0  0
  1  2  1  1  0  0  0
  1 16  1  0  0  0  0
  3  2  1  0  0  0  0
  4 10  1  0  0  0  0
  5  8  1  0  0  0  0
  5 11  2  0  0  0  0
  6  1  1  0  0  0  0
  7  9  1  0  0  0  0
  7  6  1  0  0  0  0
  8  7  1  0  0  0  0
  9  3  1  0  0  0  0
 10  8  2  0  0  0  0
 11 12  1  0  0  0  0
 12  6  2  0  0  0  0
 13  4  1  0  0  0  0
 13  5  1  0  0  0  0
 14 11  1  0  0  0  0
 15 20  1  0  0  0  0
 16 24  1  0  0  0  0
 16 22  1  0  0  0  0
 17 19  1  0  0  0  0
 18 26  1  0  0  0  0
 20 25  2  0  0  0  0
 21 24  2  0  0  0  0
 22 18  2  0  0  0  0
 22 20  1  0  0  0  0
 24 15  1  0  0  0  0
 25 17  1  0  0  0  0
 25 23  1  0  0  0  0
 26 17  2  0  0  0  0
M  END
>  <MODEL>
4

>  <REMARK>
 VINA RESULT:      -8.0      2.068      3.242
  Name = 
  1 active torsions:
  status: ('A' for Active; 'I' for Inactive)
    1  A    between atoms: C_1  and  N_4
                            x       y       z     vdW  Elec       q    Type
                         _______ _______ _______ _____ _____    ______ ____

>  <TORSDO>
F 1

$$$$
=
 OpenBabel10232407543D

 26 30  0  0  1  0  0  0  0  0999 V2000
  184.2470  178.8480  138.9150 C   0  0  2  0  0  3  0  0  0  0  0  0
  183.3070  180.0550  138.9670 C   0  0  0  0  0  2  0  0  0  0  0  0
  181.9370  179.6710  139.5110 C   0  0  0  0  0  2  0  0  0  0  0  0
  179.9820  174.7090  137.2960 C   0  0  0  0  0  2  0  0  0  0  0  0
  182.4440  175.1980  137.4970 C   0  0  0  0  0  0  0  0  0  0  0  0
  183.5830  177.6130  138.3730 C   0  0  0  0  0  0  0  0  0  0  0  0
  182.1390  177.5100  138.3440 N   0  0  0  0  0  0  0  0  0  0  0  0
  181.5830  176.2720  137.8880 C   0  0  0  0  0  0  0  0  0  0  0  0
  181.2810  178.6740  138.5650 C   0  0  0  0  0  2  0  0  0  0  0  0
  180.3200  176.0420  137.7910 N   0  0  0  0  0  0  0  0  0  0  0  0
  183.7710  175.3530  137.5430 C   0  0  0  0  0  0  0  0  0  0  0  0
  184.3230  176.6000  138.0090 N   0  0  0  0  0  0  0  0  0  0  0  0
  181.5340  173.7670  136.9630 S   0  0  0  0  0  0  0  0  0  0  0  0
  184.6900  174.2540  137.1350 C   0  0  0  0  0  1  0  0  0  0  0  0
  186.6230  178.6130  141.9140 C   0  0  0  0  0  2  0  0  0  0  0  0
  184.8700  178.6040  140.2170 N   0  0  0  0  0  0  0  0  0  0  0  0
  183.5240  178.8360  144.1840 C   0  0  0  0  0  0  0  0  0  0  0  0
  182.9290  178.7620  141.8190 C   0  0  0  0  0  3  0  0  0  0  0  0
  183.1200  178.9090  145.5120 O   0  0  0  0  0  1  0  0  0  0  0  0
  185.2490  178.6910  142.5050 C   0  0  0  0  0  0  0  0  0  0  0  0
  187.1290  178.5610  139.5340 O   0  0  0  0  0  0  0  0  0  0  0  0
  184.2880  178.6930  141.5120 C   0  0  0  0  0  0  0  0  0  0  0  0
  185.9380  178.7640  144.9210 C   0  0  0  0  0  1  0  0  0  0  0  0
  186.2750  178.5850  140.4570 C   0  0  0  0  0  0  0  0  0  0  0  0
  184.8930  178.7630  143.8560 C   0  0  0  0  0  0  0  0  0  0  0  0
  182.5510  178.8340  143.1670 C   0  0  0  0  0  3  0  0  0  0  0  0
  1  2  1  1  0  0  0
  1 16  1  0  0  0  0
  2  3  1  0  0  0  0
  4 10  1  0  0  0  0
  5 11  2  0  0  0  0
  5  8  1  0  0  0  0
  6  1  1  0  0  0  0
  7  6  1  0  0  0  0
  7  9  1  0  0  0  0
  8  7  1  0  0  0  0
  9  3  1  0  0  0  0
 10  8  2  0  0  0  0
 11 12  1  0  0  0  0
 12  6  2  0  0  0  0
 13  4  1  0  0  0  0
 13  5  1  0  0  0  0
 14 11  1  0  0  0  0
 15 20  1  0  0  0  0
 16 24  1  0  0  0  0
 16 22  1  0  0  0  0
 17 19  1  0  0  0  0
 18 26  1  0  0  0  0
 20 25  2  0  0  0  0
 21 24  2  0  0  0  0
 22 18  2  0  0  0  0
 22 20  1  0  0  0  0
 24 15  1  0  0  0  0
 25 17  1  0  0  0  0
 25 23  1  0  0  0  0
 26 17  2  0  0  0  0
M  END
>  <MODEL>
5

>  <REMARK>
 VINA RESULT:      -7.8      2.497      3.833
  Name = 
  1 active torsions:
  status: ('A' for Active; 'I' for Inactive)
    1  A    between atoms: C_1  and  N_4
                            x       y       z     vdW  Elec       q    Type
                         _______ _______ _______ _____ _____    ______ ____

>  <TORSDO>
F 1

$$$$
=
 OpenBabel10232407543D

 26 30  0  0  1  0  0  0  0  0999 V2000
  188.6360  178.2740  138.9390 C   0  0  2  0  0  3  0  0  0  0  0  0
  190.1350  178.0380  138.7400 C   0  0  0  0  0  2  0  0  0  0  0  0
  190.6300  176.8650  139.5760 C   0  0  0  0  0  2  0  0  0  0  0  0
  188.5050  176.9130  144.9460 C   0  0  0  0  0  2  0  0  0  0  0  0
  187.2710  177.9590  143.0170 C   0  0  0  0  0  0  0  0  0  0  0  0
  188.2180  178.1960  140.3820 C   0  0  0  0  0  0  0  0  0  0  0  0
  189.0660  177.5430  141.3560 N   0  0  0  0  0  0  0  0  0  0  0  0
  188.5640  177.4390  142.6920 C   0  0  0  0  0  0  0  0  0  0  0  0
  190.4530  177.1890  141.0540 C   0  0  0  0  0  2  0  0  0  0  0  0
  189.2120  176.9020  143.6660 N   0  0  0  0  0  0  0  0  0  0  0  0
  186.5330  178.5550  142.0740 C   0  0  0  0  0  0  0  0  0  0  0  0
  187.0440  178.6500  140.7300 N   0  0  0  0  0  0  0  0  0  0  0  0
  186.8620  177.7240  144.7310 S   0  0  0  0  0  0  0  0  0  0  0  0
  185.1870  179.1110  142.3860 C   0  0  0  0  0  1  0  0  0  0  0  0
  186.1820  176.7430  136.4240 C   0  0  0  0  0  2  0  0  0  0  0  0
  187.8410  177.3800  138.0950 N   0  0  0  0  0  0  0  0  0  0  0  0
  188.6730  173.8410  136.0000 C   0  0  0  0  0  0  0  0  0  0  0  0
  189.3920  175.4290  137.7070 C   0  0  0  0  0  3  0  0  0  0  0  0
  188.9090  172.6730  135.2860 O   0  0  0  0  0  1  0  0  0  0  0  0
  187.3190  175.7730  136.5040 C   0  0  0  0  0  0  0  0  0  0  0  0
  185.9820  178.7880  137.7280 O   0  0  0  0  0  0  0  0  0  0  0  0
  188.2400  176.1740  137.4530 C   0  0  0  0  0  0  0  0  0  0  0  0
  186.5150  174.1810  134.7330 C   0  0  0  0  0  1  0  0  0  0  0  0
  186.6180  177.7360  137.4560 C   0  0  0  0  0  0  0  0  0  0  0  0
  187.5130  174.6050  135.7580 C   0  0  0  0  0  0  0  0  0  0  0  0
  189.6040  174.2550  136.9710 C   0  0  0  0  0  3  0  0  0  0  0  0
  1 16  1  6  0  0  0
  1  6  1  0  0  0  0
  2  1  1  0  0  0  0
  2  3  1  0  0  0  0
  3  9  1  0  0  0  0
  5 13  1  0  0  0  0
  6 12  2  0  0  0  0
  6  7  1  0  0  0  0
  7  8  1  0  0  0  0
  8  5  1  0  0  0  0
  8 10  2  0  0  0  0
  9  7  1  0  0  0  0
 10  4  1  0  0  0  0
 11 14  1  0  0  0  0
 11  5  2  0  0  0  0
 12 11  1  0  0  0  0
 13  4  1  0  0  0  0
 15 20  1  0  0  0  0
 15 24  1  0  0  0  0
 17 26  1  0  0  0  0
 19 17  1  0  0  0  0
 20 22  2  0  0  0  0
 22 18  1  0  0  0  0
 22 16  1  0  0  0  0
 23 25  1  0  0  0  0
 24 21  2  0  0  0  0
 24 16  1  0  0  0  0
 25 17  2  0  0  0  0
 25 20  1  0  0  0  0
 26 18  2  0  0  0  0
M  END
>  <MODEL>
6

>  <REMARK>
 VINA RESULT:      -7.7      3.604      7.289
  Name = 
  1 active torsions:
  status: ('A' for Active; 'I' for Inactive)
    1  A    between atoms: C_1  and  N_4
                            x       y       z     vdW  Elec       q    Type
                         _______ _______ _______ _____ _____    ______ ____

>  <TORSDO>
F 1

$$$$
=
 OpenBabel10232407543D

 26 30  0  0  1  0  0  0  0  0999 V2000
  188.0720  178.4030  138.6080 C   0  0  2  0  0  3  0  0  0  0  0  0
  189.3320  178.4260  137.7390 C   0  0  0  0  0  2  0  0  0  0  0  0
  190.2360  177.2370  138.0370 C   0  0  0  0  0  2  0  0  0  0  0  0
  190.7720  176.2190  143.6960 C   0  0  0  0  0  2  0  0  0  0  0  0
  188.7260  177.3240  142.7310 C   0  0  0  0  0  0  0  0  0  0  0  0
  188.3590  178.0640  140.0450 C   0  0  0  0  0  0  0  0  0  0  0  0
  189.6020  177.4170  140.4110 N   0  0  0  0  0  0  0  0  0  0  0  0
  189.7670  177.0550  141.7860 C   0  0  0  0  0  0  0  0  0  0  0  0
  190.7240  177.3220  139.4770 C   0  0  0  0  0  2  0  0  0  0  0  0
  190.8230  176.4910  142.2600 N   0  0  0  0  0  0  0  0  0  0  0  0
  187.6010  177.9270  142.3340 C   0  0  0  0  0  0  0  0  0  0  0  0
  187.4400  178.2830  140.9460 N   0  0  0  0  0  0  0  0  0  0  0  0
  189.1550  176.7940  144.3730 S   0  0  0  0  0  0  0  0  0  0  0  0
  186.5050  178.2250  143.2970 C   0  0  0  0  0  1  0  0  0  0  0  0
  184.9610  176.9220  136.9290 C   0  0  0  0  0  2  0  0  0  0  0  0
  187.0490  177.5250  138.0370 N   0  0  0  0  0  0  0  0  0  0  0  0
  187.1660  173.9800  135.7960 C   0  0  0  0  0  0  0  0  0  0  0  0
  188.3830  175.5500  137.2130 C   0  0  0  0  0  3  0  0  0  0  0  0
  187.1620  172.8100  135.0470 O   0  0  0  0  0  1  0  0  0  0  0  0
  186.0550  175.9330  136.6730 C   0  0  0  0  0  0  0  0  0  0  0  0
  185.1890  178.9670  138.2300 O   0  0  0  0  0  0  0  0  0  0  0  0
  187.2200  176.3160  137.3080 C   0  0  0  0  0  0  0  0  0  0  0  0
  184.7380  174.3610  135.2200 C   0  0  0  0  0  1  0  0  0  0  0  0
  185.6980  177.9050  137.7860 C   0  0  0  0  0  0  0  0  0  0  0  0
  186.0000  174.7640  135.9060 C   0  0  0  0  0  0  0  0  0  0  0  0
  188.3490  174.3750  136.4500 C   0  0  0  0  0  3  0  0  0  0  0  0
  1  2  1  6  0  0  0
  1  6  1  0  0  0  0
  2  3  1  0  0  0  0
  3  9  1  0  0  0  0
  4 13  1  0  0  0  0
  5 13  1  0  0  0  0
  6  7  1  0  0  0  0
  6 12  2  0  0  0  0
  7  8  1  0  0  0  0
  8 10  2  0  0  0  0
  8  5  1  0  0  0  0
  9  7  1  0  0  0  0
 10  4  1  0  0  0  0
 11  5  2  0  0  0  0
 11 14  1  0  0  0  0
 12 11  1  0  0  0  0
 15 24  1  0  0  0  0
 16  1  1  0  0  0  0
 17 25  2  0  0  0  0
 17 26  1  0  0  0  0
 18 22  1  0  0  0  0
 19 17  1  0  0  0  0
 20 15  1  0  0  0  0
 20 22  2  0  0  0  0
 22 16  1  0  0  0  0
 23 25  1  0  0  0  0
 24 16  1  0  0  0  0
 24 21  2  0  0  0  0
 25 20  1  0  0  0  0
 26 18  2  0  0  0  0
M  END
>  <MODEL>
7

>  <REMARK>
 VINA RESULT:      -7.7      3.665      7.696
  Name = 
  1 active torsions:
  status: ('A' for Active; 'I' for Inactive)
    1  A    between atoms: C_1  and  N_4
                            x       y       z     vdW  Elec       q    Type
                         _______ _______ _______ _____ _____    ______ ____

>  <TORSDO>
F 1

$$$$
=
 OpenBabel10232407543D

 26 30  0  0  1  0  0  0  0  0999 V2000
  185.3870  179.5420  142.5430 C   0  0  2  0  0  3  0  0  0  0  0  0
  184.4740  179.8920  143.7210 C   0  0  0  0  0  2  0  0  0  0  0  0
  183.4580  178.7880  143.9840 C   0  0  0  0  0  2  0  0  0  0  0  0
  181.0870  176.7510  139.1280 C   0  0  0  0  0  2  0  0  0  0  0  0
  183.3920  177.7620  139.1610 C   0  0  0  0  0  0  0  0  0  0  0  0
  184.6380  178.9650  141.3740 C   0  0  0  0  0  0  0  0  0  0  0  0
  183.3100  178.4180  141.5520 N   0  0  0  0  0  0  0  0  0  0  0  0
  182.6950  177.8150  140.4090 C   0  0  0  0  0  0  0  0  0  0  0  0
  182.5420  178.6480  142.7760 C   0  0  0  0  0  2  0  0  0  0  0  0
  181.5130  177.3040  140.4130 N   0  0  0  0  0  0  0  0  0  0  0  0
  184.6170  178.2870  139.0560 C   0  0  0  0  0  0  0  0  0  0  0  0
  185.2330  178.8870  140.2130 N   0  0  0  0  0  0  0  0  0  0  0  0
  182.4330  176.9770  137.8860 S   0  0  0  0  0  0  0  0  0  0  0  0
  185.3640  178.2520  137.7670 C   0  0  0  0  0  1  0  0  0  0  0  0
  187.6000  176.8660  144.1680 C   0  0  0  0  0  2  0  0  0  0  0  0
  186.4890  178.6740  142.9640 N   0  0  0  0  0  0  0  0  0  0  0  0
  189.7650  176.9510  140.9880 C   0  0  0  0  0  0  0  0  0  0  0  0
  187.9810  178.6150  140.9310 C   0  0  0  0  0  3  0  0  0  0  0  0
  190.8570  176.3560  140.3690 O   0  0  0  0  0  1  0  0  0  0  0  0
  188.2350  177.1510  142.8420 C   0  0  0  0  0  0  0  0  0  0  0  0
  185.6290  177.9870  145.0530 O   0  0  0  0  0  0  0  0  0  0  0  0
  187.5720  178.1720  142.1900 C   0  0  0  0  0  0  0  0  0  0  0  0
  190.0480  175.4140  142.9710 C   0  0  0  0  0  1  0  0  0  0  0  0
  186.4880  177.8700  144.1410 C   0  0  0  0  0  0  0  0  0  0  0  0
  189.3400  176.5190  142.2610 C   0  0  0  0  0  0  0  0  0  0  0  0
  189.0860  177.9950  140.3320 C   0  0  0  0  0  3  0  0  0  0  0  0
  1 16  1  1  0  0  0
  1  2  1  0  0  0  0
  2  3  1  0  0  0  0
  4 10  1  0  0  0  0
  5  8  1  0  0  0  0
  6  7  1  0  0  0  0
  6  1  1  0  0  0  0
  7  9  1  0  0  0  0
  8 10  2  0  0  0  0
  8  7  1  0  0  0  0
  9  3  1  0  0  0  0
 11  5  2  0  0  0  0
 11 12  1  0  0  0  0
 12  6  2  0  0  0  0
 13  4  1  0  0  0  0
 13  5  1  0  0  0  0
 14 11  1  0  0  0  0
 16 24  1  0  0  0  0
 17 25  1  0  0  0  0
 18 22  2  0  0  0  0
 19 17  1  0  0  0  0
 20 15  1  0  0  0  0
 22 20  1  0  0  0  0
 22 16  1  0  0  0  0
 24 15  1  0  0  0  0
 24 21  2  0  0  0  0
 25 20  2  0  0  0  0
 25 23  1  0  0  0  0
 26 18  1  0  0  0  0
 26 17  2  0  0  0  0
M  END
>  <MODEL>
8

>  <REMARK>
 VINA RESULT:      -7.5      1.525      2.755
  Name = 
  1 active torsions:
  status: ('A' for Active; 'I' for Inactive)
    1  A    between atoms: C_1  and  N_4
                            x       y       z     vdW  Elec       q    Type
                         _______ _______ _______ _____ _____    ______ ____

>  <TORSDO>
F 1

$$$$
=
 OpenBabel10232407543D

 26 30  0  0  1  0  0  0  0  0999 V2000
  188.3940  177.9400  136.4700 C   0  0  2  0  0  3  0  0  0  0  0  0
  189.7030  177.6110  135.7480 C   0  0  0  0  0  2  0  0  0  0  0  0
  190.3740  176.3820  136.3460 C   0  0  0  0  0  2  0  0  0  0  0  0
  190.3050  176.4030  142.1210 C   0  0  0  0  0  2  0  0  0  0  0  0
  188.5470  177.5900  140.7640 C   0  0  0  0  0  0  0  0  0  0  0  0
  188.5110  177.8460  137.9660 C   0  0  0  0  0  0  0  0  0  0  0  0
  189.5990  177.1060  138.5700 N   0  0  0  0  0  0  0  0  0  0  0  0
  189.5980  176.9950  139.9970 C   0  0  0  0  0  0  0  0  0  0  0  0
  190.7580  176.6690  137.7910 C   0  0  0  0  0  2  0  0  0  0  0  0
  190.5080  176.3840  140.6730 N   0  0  0  0  0  0  0  0  0  0  0  0
  187.5690  178.2640  140.1500 C   0  0  0  0  0  0  0  0  0  0  0  0
  187.5740  178.3660  138.7120 N   0  0  0  0  0  0  0  0  0  0  0  0
  188.7570  177.3290  142.5100 S   0  0  0  0  0  0  0  0  0  0  0  0
  186.4660  178.8990  140.9240 C   0  0  0  0  0  1  0  0  0  0  0  0
  185.5990  176.3630  134.3730 C   0  0  0  0  0  2  0  0  0  0  0  0
  187.2870  177.1290  135.9590 N   0  0  0  0  0  0  0  0  0  0  0  0
  186.2780  173.0660  136.2370 C   0  0  0  0  0  0  0  0  0  0  0  0
  187.6410  174.9020  137.0880 C   0  0  0  0  0  3  0  0  0  0  0  0
  185.9130  171.7270  136.2980 O   0  0  0  0  0  1  0  0  0  0  0  0
  186.0800  175.2690  135.2750 C   0  0  0  0  0  0  0  0  0  0  0  0
  186.4210  178.6540  134.3790 O   0  0  0  0  0  0  0  0  0  0  0  0
  187.0400  175.7410  136.1490 C   0  0  0  0  0  0  0  0  0  0  0  0
  184.6440  173.4270  134.3460 C   0  0  0  0  0  1  0  0  0  0  0  0
  186.4410  177.4970  134.8730 C   0  0  0  0  0  0  0  0  0  0  0  0
  185.6790  173.9290  135.2960 C   0  0  0  0  0  0  0  0  0  0  0  0
  187.2530  173.5560  137.1270 C   0  0  0  0  0  3  0  0  0  0  0  0
  1  2  1  6  0  0  0
  1  6  1  0  0  0  0
  2  3  1  0  0  0  0
  3  9  1  0  0  0  0
  4 13  1  0  0  0  0
  5 13  1  0  0  0  0
  6  7  1  0  0  0  0
  6 12  2  0  0  0  0
  7  8  1  0  0  0  0
  8 10  2  0  0  0  0
  8  5  1  0  0  0  0
  9  7  1  0  0  0  0
 10  4  1  0  0  0  0
 11  5  2  0  0  0  0
 11 14  1  0  0  0  0
 12 11  1  0  0  0  0
 15 24  1  0  0  0  0
 15 20  1  0  0  0  0
 16 22  1  0  0  0  0
 16  1  1  0  0  0  0
 17 19  1  0  0  0  0
 17 26  1  0  0  0  0
 18 26  2  0  0  0  0
 20 25  1  0  0  0  0
 20 22  2  0  0  0  0
 21 24  2  0  0  0  0
 22 18  1  0  0  0  0
 23 25  1  0  0  0  0
 24 16  1  0  0  0  0
 25 17  2  0  0  0  0
M  END
>  <MODEL>
9

>  <REMARK>
 VINA RESULT:      -7.4      4.474      8.084
  Name = 
  1 active torsions:
  status: ('A' for Active; 'I' for Inactive)
    1  A    between atoms: C_1  and  N_4
                            x       y       z     vdW  Elec       q    Type
                         _______ _______ _______ _____ _____    ______ ____

>  <TORSDO>
F 1

$$$$
