=
 OpenBabel10232412083D

 39 43  0  0  1  0  0  0  0  0999 V2000
  186.0120  177.1800  137.0260 O   0  0  0  0  0  0  0  0  0  0  0  0
  188.2780  178.2650  140.6190 O   0  0  0  0  0  0  0  0  0  0  0  0
  183.6990  177.5840  137.7460 C   0  0  0  0  0  3  0  0  0  0  0  0
  186.1930  177.9020  139.1840 C   0  0  2  0  0  3  0  0  0  0  0  0
  187.6210  178.1570  139.5500 C   0  0  0  0  0  0  0  0  0  0  0  0
  184.6220  176.9750  136.9650 C   0  0  0  0  0  3  0  0  0  0  0  0
  187.9590  178.1010  138.1120 N   0  0  0  0  0  0  0  0  0  0  0  0
  186.5420  178.2020  137.8450 C   0  0  1  0  0  3  0  0  0  0  0  0
  183.8610  178.5750  138.8730 C   0  0  0  0  0  0  0  0  0  0  0  0
  185.0410  178.7960  139.5140 C   0  0  0  0  0  0  0  0  0  0  0  0
  182.2260  180.4440  138.5610 C   0  0  0  0  0  3  0  0  0  0  0  0
  181.0750  181.0820  138.8980 N   0  0  0  0  0  0  0  0  0  0  0  0
  180.3040  180.6430  139.8930 N   0  0  0  0  0  0  0  0  0  0  0  0
  181.8040  178.8490  140.3070 C   0  0  0  0  0  3  0  0  0  0  0  0
  180.6350  179.5390  140.6120 C   0  0  0  0  0  3  0  0  0  0  0  0
  182.6280  179.3060  139.2700 C   0  0  0  0  0  0  0  0  0  0  0  0
  189.1860  178.1570  137.3330 C   0  0  0  0  0  2  0  0  0  0  0  0
  189.7450  176.7580  137.1120 C   0  0  0  0  0  2  0  0  0  0  0  0
  191.3000  177.4620  138.9740 N   0  0  0  0  0  2  0  0  0  0  0  0
  190.7780  176.4260  138.1380 C   0  0  0  0  0  0  0  0  0  0  0  0
  191.1140  175.1920  138.3270 N   0  0  0  0  0  2  0  0  0  0  0  0
  191.2810  177.3020  141.4030 C   0  0  0  0  0  1  0  0  0  0  0  0
  192.1210  177.1910  140.1440 C   0  0  0  0  0  2  0  0  0  0  0  0
  185.1460  179.8280  140.4550 O   0  0  0  0  0  0  0  0  0  0  0  0
  185.7960  179.6720  141.6150 O   0  0  0  0  0  0  0  0  0  0  0  0
  184.8280  179.1910  142.4990 C   0  0  2  0  0  3  0  0  0  0  0  0
  184.8100  179.9850  143.6450 O   0  0  0  0  0  1  0  0  0  0  0  0
  185.1470  177.7600  142.8910 C   0  0  0  0  0  2  0  0  0  0  0  0
  186.8600  177.6800  144.9410 C   0  0  0  0  0  0  0  0  0  0  0  0
  186.0870  177.7240  144.0160 C   0  0  0  0  0  0  0  0  0  0  0  0
  187.7810  177.6220  146.0430 C   0  0  0  0  0  0  0  0  0  0  0  0
  191.8770  176.7390  146.4450 N   0  0  0  0  0  0  0  0  0  0  0  0
  189.6730  177.3540  147.3230 C   0  0  0  0  0  0  0  0  0  0  0  0
  189.1920  177.3070  145.9750 C   0  0  0  0  0  0  0  0  0  0  0  0
  188.6770  177.6650  148.1420 C   0  0  0  0  0  3  0  0  0  0  0  0
  191.1040  177.0740  147.6590 C   0  0  0  0  0  3  0  0  0  0  0  0
  189.9740  177.0000  144.9450 C   0  0  0  0  0  3  0  0  0  0  0  0
  191.3960  176.7010  145.2290 C   0  0  0  0  0  3  0  0  0  0  0  0
  187.4600  177.8330  147.3160 C   0  0  0  0  0  2  0  0  0  0  0  0
  3  9  1  0  0  0  0
  4 10  1  1  0  0  0
  4  5  1  0  0  0  0
  5  2  2  0  0  0  0
  6  1  1  0  0  0  0
  6  3  2  0  0  0  0
  7  5  1  0  0  0  0
  8  1  1  6  0  0  0
  8  7  1  0  0  0  0
  8  4  1  0  0  0  0
  9 16  1  0  0  0  0
  9 10  2  0  0  0  0
 10 24  1  0  0  0  0
 11 12  2  0  0  0  0
 11 16  1  0  0  0  0
 12 13  1  0  0  0  0
 13 15  2  0  0  0  0
 14 15  1  0  0  0  0
 16 14  2  0  0  0  0
 17  7  1  0  0  0  0
 18 17  1  0  0  0  0
 18 20  1  0  0  0  0
 19 23  1  0  0  0  0
 20 21  2  0  0  0  0
 20 19  1  0  0  0  0
 23 22  1  0  0  0  0
 24 25  1  0  0  0  0
 25 26  1  0  0  0  0
 26 28  1  0  0  0  0
 26 27  1  1  0  0  0
 28 30  1  0  0  0  0
 29 31  1  0  0  0  0
 30 29  3  0  0  0  0
 31 39  1  0  0  0  0
 32 36  2  0  0  0  0
 33 36  1  0  0  0  0
 33 35  2  0  0  0  0
 34 31  2  0  0  0  0
 34 33  1  0  0  0  0
 37 38  2  0  0  0  0
 37 34  1  0  0  0  0
 38 32  1  0  0  0  0
 39 35  1  0  0  0  0
M  END
>  <MODEL>
1

>  <REMARK>
 VINA RESULT:      -9.0      0.000      0.000
  Name = 
  11 active torsions:
  status: ('A' for Active; 'I' for Inactive)
    1  A    between atoms: C_1  and  C_5
    2  A    between atoms: N_7  and  C_26
    3  A    between atoms: C_8  and  C_15
    4  A    between atoms: C_8  and  O_17
    5  A    between atoms: C_10  and  C_38
    6  A    between atoms: C_15  and  C_19
    7  A    between atoms: O_17  and  O_37
    8  A    between atoms: C_24  and  N_30
    9  A    between atoms: C_24  and  C_38
   10  A    between atoms: C_32  and  C_34
   11  A    between atoms: C_35  and  O_37
                            x       y       z     vdW  Elec       q    Type
                         _______ _______ _______ _____ _____    ______ ____

>  <TORSDO>
F 11

$$$$
=
 OpenBabel10232412083D

 39 43  0  0  1  0  0  0  0  0999 V2000
  187.6570  178.7680  138.0590 O   0  0  0  0  0  0  0  0  0  0  0  0
  188.5540  178.7850  142.3500 O   0  0  0  0  0  0  0  0  0  0  0  0
  189.7430  177.8830  137.1090 C   0  0  0  0  0  3  0  0  0  0  0  0
  189.0100  178.4080  139.8620 C   0  0  2  0  0  3  0  0  0  0  0  0
  188.2570  178.5780  141.1440 C   0  0  0  0  0  0  0  0  0  0  0  0
  188.5970  178.5990  137.0260 C   0  0  0  0  0  3  0  0  0  0  0  0
  187.0000  178.5280  140.3670 N   0  0  0  0  0  0  0  0  0  0  0  0
  187.7850  178.0330  139.2590 C   0  0  1  0  0  3  0  0  0  0  0  0
  190.3480  177.1250  138.2660 C   0  0  0  0  0  0  0  0  0  0  0  0
  189.9680  177.3000  139.5600 C   0  0  0  0  0  0  0  0  0  0  0  0
  192.7680  176.5070  138.0970 C   0  0  0  0  0  3  0  0  0  0  0  0
  193.7460  175.6070  137.8130 N   0  0  0  0  0  0  0  0  0  0  0  0
  193.4570  174.3860  137.3640 N   0  0  0  0  0  0  0  0  0  0  0  0
  191.1330  174.8710  137.4470 C   0  0  0  0  0  3  0  0  0  0  0  0
  192.1720  173.9880  137.1720 C   0  0  0  0  0  3  0  0  0  0  0  0
  191.4250  176.1610  137.9100 C   0  0  0  0  0  0  0  0  0  0  0  0
  185.5870  178.6860  140.6720 C   0  0  0  0  0  2  0  0  0  0  0  0
  184.7590  178.6850  139.3940 C   0  0  0  0  0  2  0  0  0  0  0  0
  182.8170  180.1930  138.8120 N   0  0  0  0  0  2  0  0  0  0  0  0
  183.3750  179.1790  139.6530 C   0  0  0  0  0  0  0  0  0  0  0  0
  182.6590  178.6160  140.5710 N   0  0  0  0  0  2  0  0  0  0  0  0
  181.0600  181.3850  137.6210 C   0  0  0  0  0  1  0  0  0  0  0  0
  181.4090  180.5560  138.8440 C   0  0  0  0  0  2  0  0  0  0  0  0
  190.4770  176.4640  140.5610 O   0  0  0  0  0  0  0  0  0  0  0  0
  191.1670  176.9380  141.6050 O   0  0  0  0  0  0  0  0  0  0  0  0
  191.1120  175.9180  142.5560 C   0  0  2  0  0  3  0  0  0  0  0  0
  189.7880  175.5230  142.7370 O   0  0  0  0  0  1  0  0  0  0  0  0
  191.6670  176.4110  143.8800 C   0  0  0  0  0  2  0  0  0  0  0  0
  189.6980  177.1920  145.5090 C   0  0  0  0  0  0  0  0  0  0  0  0
  190.5860  176.8320  144.7760 C   0  0  0  0  0  0  0  0  0  0  0  0
  188.6410  177.6260  146.3810 C   0  0  0  0  0  0  0  0  0  0  0  0
  184.6040  178.6920  145.8480 N   0  0  0  0  0  0  0  0  0  0  0  0
  186.6150  178.3400  147.2040 C   0  0  0  0  0  0  0  0  0  0  0  0
  187.2800  177.9370  146.0010 C   0  0  0  0  0  0  0  0  0  0  0  0
  187.4640  178.2870  148.2220 C   0  0  0  0  0  3  0  0  0  0  0  0
  185.1760  178.7490  147.2090 C   0  0  0  0  0  3  0  0  0  0  0  0
  186.6710  177.9130  144.8200 C   0  0  0  0  0  3  0  0  0  0  0  0
  185.2490  178.3220  144.7720 C   0  0  0  0  0  3  0  0  0  0  0  0
  188.7680  177.8290  147.6890 C   0  0  0  0  0  2  0  0  0  0  0  0
  3  9  1  0  0  0  0
  4 10  1  1  0  0  0
  4  5  1  0  0  0  0
  5  2  2  0  0  0  0
  6  3  2  0  0  0  0
  6  1  1  0  0  0  0
  7 17  1  0  0  0  0
  7  5  1  0  0  0  0
  8  1  1  6  0  0  0
  8  4  1  0  0  0  0
  8  7  1  0  0  0  0
  9 10  2  0  0  0  0
 10 24  1  0  0  0  0
 12 11  2  0  0  0  0
 13 12  1  0  0  0  0
 14 16  2  0  0  0  0
 15 13  2  0  0  0  0
 15 14  1  0  0  0  0
 16 11  1  0  0  0  0
 16  9  1  0  0  0  0
 18 20  1  0  0  0  0
 18 17  1  0  0  0  0
 19 23  1  0  0  0  0
 19 20  1  0  0  0  0
 20 21  2  0  0  0  0
 22 23  1  0  0  0  0
 24 25  1  0  0  0  0
 25 26  1  0  0  0  0
 26 27  1  1  0  0  0
 26 28  1  0  0  0  0
 28 30  1  0  0  0  0
 29 31  1  0  0  0  0
 30 29  3  0  0  0  0
 31 39  1  0  0  0  0
 32 36  2  0  0  0  0
 33 36  1  0  0  0  0
 33 35  2  0  0  0  0
 34 31  2  0  0  0  0
 34 33  1  0  0  0  0
 37 34  1  0  0  0  0
 38 37  2  0  0  0  0
 38 32  1  0  0  0  0
 39 35  1  0  0  0  0
M  END
>  <MODEL>
2

>  <REMARK>
 VINA RESULT:      -8.5      2.278      7.229
  Name = 
  11 active torsions:
  status: ('A' for Active; 'I' for Inactive)
    1  A    between atoms: C_1  and  C_5
    2  A    between atoms: N_7  and  C_26
    3  A    between atoms: C_8  and  C_15
    4  A    between atoms: C_8  and  O_17
    5  A    between atoms: C_10  and  C_38
    6  A    between atoms: C_15  and  C_19
    7  A    between atoms: O_17  and  O_37
    8  A    between atoms: C_24  and  N_30
    9  A    between atoms: C_24  and  C_38
   10  A    between atoms: C_32  and  C_34
   11  A    between atoms: C_35  and  O_37
                            x       y       z     vdW  Elec       q    Type
                         _______ _______ _______ _____ _____    ______ ____

>  <TORSDO>
F 11

$$$$
=
 OpenBabel10232412083D

 39 43  0  0  1  0  0  0  0  0999 V2000
  187.9310  177.3750  135.9120 O   0  0  0  0  0  0  0  0  0  0  0  0
  188.0540  178.8260  140.0460 O   0  0  0  0  0  0  0  0  0  0  0  0
  190.2710  176.7280  135.5330 C   0  0  0  0  0  3  0  0  0  0  0  0
  188.9930  177.8540  137.8760 C   0  0  2  0  0  3  0  0  0  0  0  0
  188.0110  178.2200  138.9440 C   0  0  0  0  0  0  0  0  0  0  0  0
  189.0510  177.1230  135.0980 C   0  0  0  0  0  3  0  0  0  0  0  0
  186.9350  177.6760  138.0880 N   0  0  0  0  0  0  0  0  0  0  0  0
  187.9730  177.0640  137.2900 C   0  0  1  0  0  3  0  0  0  0  0  0
  190.7880  176.4870  136.9300 C   0  0  0  0  0  0  0  0  0  0  0  0
  190.1640  176.9420  138.0510 C   0  0  0  0  0  0  0  0  0  0  0  0
  193.2820  176.3940  137.1240 C   0  0  0  0  0  3  0  0  0  0  0  0
  194.4360  175.6890  137.2530 N   0  0  0  0  0  0  0  0  0  0  0  0
  194.4350  174.3570  137.2950 N   0  0  0  0  0  0  0  0  0  0  0  0
  192.0700  174.3200  137.0780 C   0  0  0  0  0  3  0  0  0  0  0  0
  193.2800  173.6460  137.2120 C   0  0  0  0  0  3  0  0  0  0  0  0
  192.0590  175.7190  137.0230 C   0  0  0  0  0  0  0  0  0  0  0  0
  185.4850  177.6050  138.1670 C   0  0  0  0  0  2  0  0  0  0  0  0
  184.8970  178.9770  138.4710 C   0  0  0  0  0  2  0  0  0  0  0  0
  182.6440  179.2390  139.5840 N   0  0  0  0  0  2  0  0  0  0  0  0
  184.0360  178.9300  139.6900 C   0  0  0  0  0  0  0  0  0  0  0  0
  184.5360  178.5120  140.8080 N   0  0  0  0  0  2  0  0  0  0  0  0
  181.0920  177.6060  140.5060 C   0  0  0  0  0  1  0  0  0  0  0  0
  181.6970  178.9890  140.6600 C   0  0  0  0  0  2  0  0  0  0  0  0
  190.6280  176.5630  139.3160 O   0  0  0  0  0  0  0  0  0  0  0  0
  191.5980  177.2310  139.9510 O   0  0  0  0  0  0  0  0  0  0  0  0
  191.1070  177.4220  141.2440 C   0  0  2  0  0  3  0  0  0  0  0  0
  192.1380  177.2380  142.1640 O   0  0  0  0  0  1  0  0  0  0  0  0
  190.0010  176.4230  141.5320 C   0  0  0  0  0  2  0  0  0  0  0  0
  188.6780  177.0640  143.7640 C   0  0  0  0  0  0  0  0  0  0  0  0
  189.2790  176.7810  142.7570 C   0  0  0  0  0  0  0  0  0  0  0  0
  187.9580  177.3970  144.9620 C   0  0  0  0  0  0  0  0  0  0  0  0
  184.1140  178.9000  145.7950 N   0  0  0  0  0  0  0  0  0  0  0  0
  186.3390  178.0970  146.4390 C   0  0  0  0  0  0  0  0  0  0  0  0
  186.6020  177.8980  145.0450 C   0  0  0  0  0  0  0  0  0  0  0  0
  187.4080  177.7580  147.1480 C   0  0  0  0  0  3  0  0  0  0  0  0
  185.0240  178.6200  146.9250 C   0  0  0  0  0  3  0  0  0  0  0  0
  185.7090  178.1760  144.1010 C   0  0  0  0  0  3  0  0  0  0  0  0
  184.3970  178.7090  144.5320 C   0  0  0  0  0  3  0  0  0  0  0  0
  188.4480  177.3100  146.1940 C   0  0  0  0  0  2  0  0  0  0  0  0
  3  9  1  0  0  0  0
  4 10  1  1  0  0  0
  4  5  1  0  0  0  0
  5  2  2  0  0  0  0
  6  3  2  0  0  0  0
  6  1  1  0  0  0  0
  7 17  1  0  0  0  0
  7  5  1  0  0  0  0
  8  1  1  6  0  0  0
  8  4  1  0  0  0  0
  8  7  1  0  0  0  0
  9 16  1  0  0  0  0
  9 10  2  0  0  0  0
 10 24  1  0  0  0  0
 11 12  1  0  0  0  0
 12 13  2  0  0  0  0
 14 15  2  0  0  0  0
 15 13  1  0  0  0  0
 16 14  1  0  0  0  0
 16 11  2  0  0  0  0
 17 18  1  0  0  0  0
 18 20  1  0  0  0  0
 19 20  1  0  0  0  0
 19 23  1  0  0  0  0
 20 21  2  0  0  0  0
 22 23  1  0  0  0  0
 24 25  1  0  0  0  0
 25 26  1  0  0  0  0
 26 28  1  0  0  0  0
 26 27  1  1  0  0  0
 28 30  1  0  0  0  0
 29 31  1  0  0  0  0
 30 29  3  0  0  0  0
 31 34  2  0  0  0  0
 31 39  1  0  0  0  0
 32 36  2  0  0  0  0
 33 36  1  0  0  0  0
 33 35  2  0  0  0  0
 34 33  1  0  0  0  0
 37 38  2  0  0  0  0
 37 34  1  0  0  0  0
 38 32  1  0  0  0  0
 39 35  1  0  0  0  0
M  END
>  <MODEL>
3

>  <REMARK>
 VINA RESULT:      -8.4      2.421      7.380
  Name = 
  11 active torsions:
  status: ('A' for Active; 'I' for Inactive)
    1  A    between atoms: C_1  and  C_5
    2  A    between atoms: N_7  and  C_26
    3  A    between atoms: C_8  and  C_15
    4  A    between atoms: C_8  and  O_17
    5  A    between atoms: C_10  and  C_38
    6  A    between atoms: C_15  and  C_19
    7  A    between atoms: O_17  and  O_37
    8  A    between atoms: C_24  and  N_30
    9  A    between atoms: C_24  and  C_38
   10  A    between atoms: C_32  and  C_34
   11  A    between atoms: C_35  and  O_37
                            x       y       z     vdW  Elec       q    Type
                         _______ _______ _______ _____ _____    ______ ____

>  <TORSDO>
F 11

$$$$
=
 OpenBabel10232412083D

 39 43  0  0  1  0  0  0  0  0999 V2000
  190.8100  177.5600  140.5270 O   0  0  0  0  0  0  0  0  0  0  0  0
  186.6930  178.8950  141.2250 O   0  0  0  0  0  0  0  0  0  0  0  0
  191.7310  177.5470  142.8050 C   0  0  0  0  0  3  0  0  0  0  0  0
  189.0860  178.2500  141.8550 C   0  0  2  0  0  3  0  0  0  0  0  0
  187.8070  178.3250  141.0820 C   0  0  0  0  0  0  0  0  0  0  0  0
  191.8610  177.6240  141.4590 C   0  0  0  0  0  3  0  0  0  0  0  0
  188.4550  177.5420  140.0080 N   0  0  0  0  0  0  0  0  0  0  0  0
  189.5030  177.2380  140.9560 C   0  0  1  0  0  3  0  0  0  0  0  0
  190.5000  177.4140  143.6680 C   0  0  0  0  0  0  0  0  0  0  0  0
  189.2390  177.6660  143.2230 C   0  0  0  0  0  0  0  0  0  0  0  0
  191.7840  176.1110  145.3770 C   0  0  0  0  0  3  0  0  0  0  0  0
  192.0310  175.7700  146.6680 N   0  0  0  0  0  0  0  0  0  0  0  0
  191.3060  176.2670  147.6700 N   0  0  0  0  0  0  0  0  0  0  0  0
  189.9940  177.5210  146.1370 C   0  0  0  0  0  3  0  0  0  0  0  0
  190.2880  177.1390  147.4420 C   0  0  0  0  0  3  0  0  0  0  0  0
  190.7430  176.9980  145.0760 C   0  0  0  0  0  0  0  0  0  0  0  0
  188.0740  177.0980  138.6770 C   0  0  0  0  0  2  0  0  0  0  0  0
  188.6420  178.0330  137.6170 C   0  0  0  0  0  2  0  0  0  0  0  0
  190.8860  176.9020  137.3560 N   0  0  0  0  0  2  0  0  0  0  0  0
  189.6540  177.3320  136.7720 C   0  0  0  0  0  0  0  0  0  0  0  0
  189.3630  177.0310  135.5480 N   0  0  0  0  0  2  0  0  0  0  0  0
  193.1690  176.0580  137.3520 C   0  0  0  0  0  1  0  0  0  0  0  0
  191.8130  176.0110  136.6750 C   0  0  0  0  0  2  0  0  0  0  0  0
  188.1360  177.3890  144.0410 O   0  0  0  0  0  0  0  0  0  0  0  0
  187.1910  178.3010  144.2980 O   0  0  0  0  0  0  0  0  0  0  0  0
  186.8150  178.0540  145.6190 C   0  0  2  0  0  3  0  0  0  0  0  0
  186.2980  176.7630  145.7210 O   0  0  0  0  0  1  0  0  0  0  0  0
  185.7530  179.0480  146.0520 C   0  0  0  0  0  2  0  0  0  0  0  0
  183.6020  178.8970  144.4740 C   0  0  0  0  0  0  0  0  0  0  0  0
  184.5710  178.9590  145.1900 C   0  0  0  0  0  0  0  0  0  0  0  0
  182.4500  178.8290  143.6170 C   0  0  0  0  0  0  0  0  0  0  0  0
  181.8540  178.3660  139.4760 N   0  0  0  0  0  0  0  0  0  0  0  0
  181.0740  178.6640  141.7800 C   0  0  0  0  0  0  0  0  0  0  0  0
  182.4500  178.6460  142.1810 C   0  0  0  0  0  0  0  0  0  0  0  0
  180.3020  178.8380  142.8450 C   0  0  0  0  0  3  0  0  0  0  0  0
  180.6700  178.5080  140.3490 C   0  0  0  0  0  3  0  0  0  0  0  0
  183.4470  178.5050  141.3140 C   0  0  0  0  0  3  0  0  0  0  0  0
  183.0970  178.3590  139.8830 C   0  0  0  0  0  3  0  0  0  0  0  0
  181.1900  178.9470  144.0250 C   0  0  0  0  0  2  0  0  0  0  0  0
  1  6  1  0  0  0  0
  3  9  1  0  0  0  0
  4  5  1  6  0  0  0
  4 10  1  0  0  0  0
  5  2  2  0  0  0  0
  6  3  2  0  0  0  0
  7  8  1  0  0  0  0
  7  5  1  0  0  0  0
  8  1  1  6  0  0  0
  8  4  1  0  0  0  0
  9 16  1  0  0  0  0
 10  9  2  0  0  0  0
 10 24  1  0  0  0  0
 11 12  1  0  0  0  0
 12 13  2  0  0  0  0
 14 15  2  0  0  0  0
 15 13  1  0  0  0  0
 16 11  2  0  0  0  0
 16 14  1  0  0  0  0
 17  7  1  0  0  0  0
 18 17  1  0  0  0  0
 20 19  1  0  0  0  0
 20 18  1  0  0  0  0
 21 20  2  0  0  0  0
 23 22  1  0  0  0  0
 23 19  1  0  0  0  0
 24 25  1  0  0  0  0
 25 26  1  0  0  0  0
 26 27  1  6  0  0  0
 26 28  1  0  0  0  0
 29 30  3  0  0  0  0
 30 28  1  0  0  0  0
 31 39  1  0  0  0  0
 31 29  1  0  0  0  0
 32 38  1  0  0  0  0
 32 36  2  0  0  0  0
 33 34  1  0  0  0  0
 33 35  2  0  0  0  0
 34 31  2  0  0  0  0
 35 39  1  0  0  0  0
 36 33  1  0  0  0  0
 37 34  1  0  0  0  0
 38 37  2  0  0  0  0
M  END
>  <MODEL>
4

>  <REMARK>
 VINA RESULT:      -8.1      2.046      7.606
  Name = 
  11 active torsions:
  status: ('A' for Active; 'I' for Inactive)
    1  A    between atoms: C_1  and  C_5
    2  A    between atoms: N_7  and  C_26
    3  A    between atoms: C_8  and  C_15
    4  A    between atoms: C_8  and  O_17
    5  A    between atoms: C_10  and  C_38
    6  A    between atoms: C_15  and  C_19
    7  A    between atoms: O_17  and  O_37
    8  A    between atoms: C_24  and  N_30
    9  A    between atoms: C_24  and  C_38
   10  A    between atoms: C_32  and  C_34
   11  A    between atoms: C_35  and  O_37
                            x       y       z     vdW  Elec       q    Type
                         _______ _______ _______ _____ _____    ______ ____

>  <TORSDO>
F 11

$$$$
=
 OpenBabel10232412083D

 39 43  0  0  1  0  0  0  0  0999 V2000
  191.4060  176.9780  138.4750 O   0  0  0  0  0  0  0  0  0  0  0  0
  187.2420  178.2270  139.0370 O   0  0  0  0  0  0  0  0  0  0  0  0
  192.3460  177.3290  140.7170 C   0  0  0  0  0  3  0  0  0  0  0  0
  189.6650  177.7790  139.7170 C   0  0  2  0  0  3  0  0  0  0  0  0
  188.3770  177.6890  138.9600 C   0  0  0  0  0  0  0  0  0  0  0  0
  192.4620  177.2190  139.3720 C   0  0  0  0  0  3  0  0  0  0  0  0
  189.0490  176.7890  137.9980 N   0  0  0  0  0  0  0  0  0  0  0  0
  190.1180  176.6670  138.9640 C   0  0  1  0  0  3  0  0  0  0  0  0
  191.1300  177.2700  141.6090 C   0  0  0  0  0  0  0  0  0  0  0  0
  189.8560  177.4040  141.1510 C   0  0  0  0  0  0  0  0  0  0  0  0
  191.6060  178.1740  143.8950 C   0  0  0  0  0  3  0  0  0  0  0  0
  191.8110  177.9880  145.2240 N   0  0  0  0  0  0  0  0  0  0  0  0
  191.8170  176.7680  145.7630 N   0  0  0  0  0  0  0  0  0  0  0  0
  191.4030  175.7940  143.6370 C   0  0  0  0  0  3  0  0  0  0  0  0
  191.6170  175.6590  145.0040 C   0  0  0  0  0  3  0  0  0  0  0  0
  191.4040  177.0690  143.0580 C   0  0  0  0  0  0  0  0  0  0  0  0
  188.6760  176.1440  136.7500 C   0  0  0  0  0  2  0  0  0  0  0  0
  188.2250  174.7110  137.0010 C   0  0  0  0  0  2  0  0  0  0  0  0
  186.1130  173.3740  137.3720 N   0  0  0  0  0  2  0  0  0  0  0  0
  186.7360  174.6210  137.0490 C   0  0  0  0  0  0  0  0  0  0  0  0
  186.0270  175.6920  136.8970 N   0  0  0  0  0  2  0  0  0  0  0  0
  184.1170  172.0390  136.9730 C   0  0  0  0  0  1  0  0  0  0  0  0
  184.6950  173.2560  137.6720 C   0  0  0  0  0  2  0  0  0  0  0  0
  188.7740  177.2000  142.0160 O   0  0  0  0  0  0  0  0  0  0  0  0
  188.4570  178.0720  142.9810 O   0  0  0  0  0  0  0  0  0  0  0  0
  188.2120  177.2810  144.1040 C   0  0  2  0  0  3  0  0  0  0  0  0
  187.5650  176.1100  143.7150 O   0  0  0  0  0  1  0  0  0  0  0  0
  187.3310  178.0310  145.0870 C   0  0  0  0  0  2  0  0  0  0  0  0
  184.8860  178.4130  144.0780 C   0  0  0  0  0  0  0  0  0  0  0  0
  185.9880  178.2330  144.5360 C   0  0  0  0  0  0  0  0  0  0  0  0
  183.5740  178.6320  143.5320 C   0  0  0  0  0  0  0  0  0  0  0  0
  182.0020  179.0020  139.6450 N   0  0  0  0  0  0  0  0  0  0  0  0
  181.8140  178.9620  142.0880 C   0  0  0  0  0  0  0  0  0  0  0  0
  183.2240  178.7150  142.1300 C   0  0  0  0  0  0  0  0  0  0  0  0
  181.3350  179.0250  143.3240 C   0  0  0  0  0  3  0  0  0  0  0  0
  181.0800  179.1160  140.7940 C   0  0  0  0  0  3  0  0  0  0  0  0
  183.9680  178.6230  141.0330 C   0  0  0  0  0  3  0  0  0  0  0  0
  183.2890  178.7820  139.7270 C   0  0  0  0  0  3  0  0  0  0  0  0
  182.4710  178.8150  144.2510 C   0  0  0  0  0  2  0  0  0  0  0  0
  1  6  1  0  0  0  0
  3  9  1  0  0  0  0
  4  5  1  1  0  0  0
  4 10  1  0  0  0  0
  5  2  2  0  0  0  0
  6  3  2  0  0  0  0
  7  5  1  0  0  0  0
  7  8  1  0  0  0  0
  8  1  1  6  0  0  0
  8  4  1  0  0  0  0
  9 16  1  0  0  0  0
 10  9  2  0  0  0  0
 10 24  1  0  0  0  0
 11 12  1  0  0  0  0
 12 13  2  0  0  0  0
 14 15  2  0  0  0  0
 15 13  1  0  0  0  0
 16 14  1  0  0  0  0
 16 11  2  0  0  0  0
 17 18  1  0  0  0  0
 17  7  1  0  0  0  0
 18 20  1  0  0  0  0
 19 23  1  0  0  0  0
 20 19  1  0  0  0  0
 21 20  2  0  0  0  0
 22 23  1  0  0  0  0
 24 25  1  0  0  0  0
 25 26  1  0  0  0  0
 26 27  1  6  0  0  0
 26 28  1  0  0  0  0
 29 30  3  0  0  0  0
 30 28  1  0  0  0  0
 31 29  1  0  0  0  0
 31 39  1  0  0  0  0
 32 38  1  0  0  0  0
 32 36  2  0  0  0  0
 33 34  1  0  0  0  0
 33 35  2  0  0  0  0
 34 31  2  0  0  0  0
 35 39  1  0  0  0  0
 36 33  1  0  0  0  0
 37 34  1  0  0  0  0
 38 37  2  0  0  0  0
M  END
>  <MODEL>
5

>  <REMARK>
 VINA RESULT:      -8.1      2.305      7.596
  Name = 
  11 active torsions:
  status: ('A' for Active; 'I' for Inactive)
    1  A    between atoms: C_1  and  C_5
    2  A    between atoms: N_7  and  C_26
    3  A    between atoms: C_8  and  C_15
    4  A    between atoms: C_8  and  O_17
    5  A    between atoms: C_10  and  C_38
    6  A    between atoms: C_15  and  C_19
    7  A    between atoms: O_17  and  O_37
    8  A    between atoms: C_24  and  N_30
    9  A    between atoms: C_24  and  C_38
   10  A    between atoms: C_32  and  C_34
   11  A    between atoms: C_35  and  O_37
                            x       y       z     vdW  Elec       q    Type
                         _______ _______ _______ _____ _____    ______ ____

>  <TORSDO>
F 11

$$$$
=
 OpenBabel10232412083D

 39 43  0  0  1  0  0  0  0  0999 V2000
  190.9550  177.4730  140.5270 O   0  0  0  0  0  0  0  0  0  0  0  0
  186.8100  178.7960  141.0550 O   0  0  0  0  0  0  0  0  0  0  0  0
  191.8040  177.5340  142.8320 C   0  0  0  0  0  3  0  0  0  0  0  0
  189.1850  178.1880  141.7800 C   0  0  2  0  0  3  0  0  0  0  0  0
  187.9310  178.2310  140.9650 C   0  0  0  0  0  0  0  0  0  0  0  0
  191.9760  177.5730  141.4890 C   0  0  0  0  0  3  0  0  0  0  0  0
  188.6180  177.4220  139.9350 N   0  0  0  0  0  0  0  0  0  0  0  0
  189.6370  177.1540  140.9240 C   0  0  1  0  0  3  0  0  0  0  0  0
  190.5470  177.4170  143.6600 C   0  0  0  0  0  0  0  0  0  0  0  0
  189.2990  177.6470  143.1680 C   0  0  0  0  0  0  0  0  0  0  0  0
  191.7700  176.1550  145.4430 C   0  0  0  0  0  3  0  0  0  0  0  0
  191.9790  175.8530  146.7510 N   0  0  0  0  0  0  0  0  0  0  0  0
  191.2350  176.3920  147.7160 N   0  0  0  0  0  0  0  0  0  0  0  0
  189.9800  177.6120  146.1100 C   0  0  0  0  0  3  0  0  0  0  0  0
  190.2350  177.2690  147.4340 C   0  0  0  0  0  3  0  0  0  0  0  0
  190.7490  177.0440  145.0860 C   0  0  0  0  0  0  0  0  0  0  0  0
  188.2820  176.9360  138.6060 C   0  0  0  0  0  2  0  0  0  0  0  0
  187.9140  178.0950  137.6890 C   0  0  0  0  0  2  0  0  0  0  0  0
  185.7990  177.0980  136.7300 N   0  0  0  0  0  2  0  0  0  0  0  0
  186.4390  178.1470  137.4620 C   0  0  0  0  0  0  0  0  0  0  0  0
  185.7420  179.0860  138.0140 N   0  0  0  0  0  2  0  0  0  0  0  0
  183.9150  175.7940  137.5510 C   0  0  0  0  0  1  0  0  0  0  0  0
  184.3530  176.9480  136.6690 C   0  0  0  0  0  2  0  0  0  0  0  0
  188.1730  177.3850  143.9590 O   0  0  0  0  0  0  0  0  0  0  0  0
  187.2640  178.3260  144.2400 O   0  0  0  0  0  0  0  0  0  0  0  0
  186.8350  178.0260  145.5340 C   0  0  2  0  0  3  0  0  0  0  0  0
  186.2870  176.7440  145.5560 O   0  0  0  0  0  1  0  0  0  0  0  0
  185.7820  179.0240  145.9780 C   0  0  0  0  0  2  0  0  0  0  0  0
  183.6000  178.8670  144.4430 C   0  0  0  0  0  0  0  0  0  0  0  0
  184.5890  178.9370  145.1300 C   0  0  0  0  0  0  0  0  0  0  0  0
  182.4180  178.7830  143.6300 C   0  0  0  0  0  0  0  0  0  0  0  0
  181.6730  178.4590  139.4990 N   0  0  0  0  0  0  0  0  0  0  0  0
  180.9770  178.6330  141.8430 C   0  0  0  0  0  0  0  0  0  0  0  0
  182.3660  178.6570  142.1890 C   0  0  0  0  0  0  0  0  0  0  0  0
  180.2410  178.7310  142.9430 C   0  0  0  0  0  3  0  0  0  0  0  0
  180.5210  178.5170  140.4230 C   0  0  0  0  0  3  0  0  0  0  0  0
  183.3320  178.5930  141.2780 C   0  0  0  0  0  3  0  0  0  0  0  0
  182.9310  178.4900  139.8570 C   0  0  0  0  0  3  0  0  0  0  0  0
  181.1710  178.8310  144.0910 C   0  0  0  0  0  2  0  0  0  0  0  0
  1  6  1  0  0  0  0
  3  9  1  0  0  0  0
  4  5  1  6  0  0  0
  4 10  1  0  0  0  0
  5  2  2  0  0  0  0
  6  3  2  0  0  0  0
  7  8  1  0  0  0  0
  7  5  1  0  0  0  0
  8  1  1  6  0  0  0
  8  4  1  0  0  0  0
  9 16  1  0  0  0  0
 10  9  2  0  0  0  0
 10 24  1  0  0  0  0
 11 12  1  0  0  0  0
 12 13  2  0  0  0  0
 14 15  2  0  0  0  0
 15 13  1  0  0  0  0
 16 11  2  0  0  0  0
 16 14  1  0  0  0  0
 17  7  1  0  0  0  0
 18 17  1  0  0  0  0
 19 20  1  0  0  0  0
 20 18  1  0  0  0  0
 20 21  2  0  0  0  0
 23 19  1  0  0  0  0
 23 22  1  0  0  0  0
 24 25  1  0  0  0  0
 25 26  1  0  0  0  0
 26 27  1  6  0  0  0
 26 28  1  0  0  0  0
 29 30  3  0  0  0  0
 30 28  1  0  0  0  0
 31 39  1  0  0  0  0
 31 29  1  0  0  0  0
 32 38  1  0  0  0  0
 32 36  2  0  0  0  0
 33 34  1  0  0  0  0
 33 35  2  0  0  0  0
 34 31  2  0  0  0  0
 35 39  1  0  0  0  0
 36 33  1  0  0  0  0
 37 34  1  0  0  0  0
 38 37  2  0  0  0  0
M  END
>  <MODEL>
6

>  <REMARK>
 VINA RESULT:      -8.1      2.005      7.940
  Name = 
  11 active torsions:
  status: ('A' for Active; 'I' for Inactive)
    1  A    between atoms: C_1  and  C_5
    2  A    between atoms: N_7  and  C_26
    3  A    between atoms: C_8  and  C_15
    4  A    between atoms: C_8  and  O_17
    5  A    between atoms: C_10  and  C_38
    6  A    between atoms: C_15  and  C_19
    7  A    between atoms: O_17  and  O_37
    8  A    between atoms: C_24  and  N_30
    9  A    between atoms: C_24  and  C_38
   10  A    between atoms: C_32  and  C_34
   11  A    between atoms: C_35  and  O_37
                            x       y       z     vdW  Elec       q    Type
                         _______ _______ _______ _____ _____    ______ ____

>  <TORSDO>
F 11

$$$$
=
 OpenBabel10232412083D

 39 43  0  0  1  0  0  0  0  0999 V2000
  184.9140  177.0660  135.5330 O   0  0  0  0  0  0  0  0  0  0  0  0
  185.6330  179.1410  139.3270 O   0  0  0  0  0  0  0  0  0  0  0  0
  187.1860  176.3910  134.8870 C   0  0  0  0  0  3  0  0  0  0  0  0
  186.2530  177.8540  137.2060 C   0  0  2  0  0  3  0  0  0  0  0  0
  185.4380  178.3710  138.3490 C   0  0  0  0  0  0  0  0  0  0  0  0
  185.9000  176.7020  134.5980 C   0  0  0  0  0  3  0  0  0  0  0  0
  184.2610  177.6910  137.7690 N   0  0  0  0  0  0  0  0  0  0  0  0
  185.1820  176.9730  136.9170 C   0  0  1  0  0  3  0  0  0  0  0  0
  187.9230  176.3740  136.2040 C   0  0  0  0  0  0  0  0  0  0  0  0
  187.4670  176.9910  137.3280 C   0  0  0  0  0  0  0  0  0  0  0  0
  190.3770  176.2610  135.7210 C   0  0  0  0  0  3  0  0  0  0  0  0
  191.5660  175.6050  135.7670 N   0  0  0  0  0  0  0  0  0  0  0  0
  191.6630  174.3770  136.2760 N   0  0  0  0  0  0  0  0  0  0  0  0
  189.3350  174.3550  136.7480 C   0  0  0  0  0  3  0  0  0  0  0  0
  190.5760  173.7280  136.7720 C   0  0  0  0  0  3  0  0  0  0  0  0
  189.2190  175.6420  136.2070 C   0  0  0  0  0  0  0  0  0  0  0  0
  182.8440  177.6190  138.0880 C   0  0  0  0  0  2  0  0  0  0  0  0
  182.6270  176.8610  139.3920 C   0  0  0  0  0  2  0  0  0  0  0  0
  183.7160  177.7530  141.4900 N   0  0  0  0  0  2  0  0  0  0  0  0
  182.6320  177.7920  140.5590 C   0  0  0  0  0  0  0  0  0  0  0  0
  181.7080  178.6920  140.6590 N   0  0  0  0  0  2  0  0  0  0  0  0
  185.2300  178.5270  143.2320 C   0  0  0  0  0  1  0  0  0  0  0  0
  183.9200  178.7730  142.5070 C   0  0  0  0  0  2  0  0  0  0  0  0
  188.1360  176.8160  138.5460 O   0  0  0  0  0  0  0  0  0  0  0  0
  188.8630  177.7900  139.1070 O   0  0  0  0  0  0  0  0  0  0  0  0
  188.7470  177.5680  140.4800 C   0  0  2  0  0  3  0  0  0  0  0  0
  188.4270  178.7650  141.1180 O   0  0  0  0  0  1  0  0  0  0  0  0
  190.0600  177.0460  141.0350 C   0  0  0  0  0  2  0  0  0  0  0  0
  190.0450  177.0700  143.7070 C   0  0  0  0  0  0  0  0  0  0  0  0
  190.0480  177.0530  142.5010 C   0  0  0  0  0  0  0  0  0  0  0  0
  190.0450  177.0960  145.1440 C   0  0  0  0  0  0  0  0  0  0  0  0
  187.2300  178.1400  148.0950 N   0  0  0  0  0  0  0  0  0  0  0  0
  189.4310  177.3640  147.3450 C   0  0  0  0  0  0  0  0  0  0  0  0
  188.9450  177.4810  146.0030 C   0  0  1  0  0  3  0  0  0  0  0  0
  190.6920  176.9510  147.3290 C   0  0  0  0  0  3  0  0  0  0  0  0
  188.5700  177.6870  148.5250 C   0  0  0  0  0  3  0  0  0  0  0  0
  187.7140  177.8940  145.7200 C   0  0  0  0  0  3  0  0  0  0  0  0
  186.8280  178.2380  146.8540 C   0  0  0  0  0  3  0  0  0  0  0  0
  191.0850  176.7820  145.9110 C   0  0  0  0  0  3  0  0  0  0  0  0
  3  9  1  0  0  0  0
  4 10  1  1  0  0  0
  4  5  1  0  0  0  0
  5  2  2  0  0  0  0
  6  3  2  0  0  0  0
  6  1  1  0  0  0  0
  7 17  1  0  0  0  0
  7  5  1  0  0  0  0
  8  1  1  6  0  0  0
  8  4  1  0  0  0  0
  8  7  1  0  0  0  0
  9 16  1  0  0  0  0
  9 10  2  0  0  0  0
 10 24  1  0  0  0  0
 11 12  2  0  0  0  0
 11 16  1  0  0  0  0
 12 13  1  0  0  0  0
 13 15  2  0  0  0  0
 14 15  1  0  0  0  0
 16 14  2  0  0  0  0
 17 18  1  0  0  0  0
 18 20  1  0  0  0  0
 19 23  1  0  0  0  0
 20 21  2  0  0  0  0
 20 19  1  0  0  0  0
 23 22  1  0  0  0  0
 24 25  1  0  0  0  0
 25 26  1  0  0  0  0
 26 28  1  0  0  0  0
 26 27  1  1  0  0  0
 28 30  1  0  0  0  0
 29 31  1  0  0  0  0
 30 29  3  0  0  0  0
 31 39  2  0  0  0  0
 31 34  1  0  0  0  0
 32 36  2  0  0  0  0
 33 36  1  0  0  0  0
 34 37  1  6  0  0  0
 34 33  1  0  0  0  0
 35 33  2  0  0  0  0
 37 38  2  0  0  0  0
 38 32  1  0  0  0  0
 39 35  1  0  0  0  0
M  END
>  <MODEL>
7

>  <REMARK>
 VINA RESULT:      -7.9      2.054      6.271
  Name = 
  11 active torsions:
  status: ('A' for Active; 'I' for Inactive)
    1  A    between atoms: C_1  and  C_5
    2  A    between atoms: N_7  and  C_26
    3  A    between atoms: C_8  and  C_15
    4  A    between atoms: C_8  and  O_17
    5  A    between atoms: C_10  and  C_38
    6  A    between atoms: C_15  and  C_19
    7  A    between atoms: O_17  and  O_37
    8  A    between atoms: C_24  and  N_30
    9  A    between atoms: C_24  and  C_38
   10  A    between atoms: C_32  and  C_34
   11  A    between atoms: C_35  and  O_37
                            x       y       z     vdW  Elec       q    Type
                         _______ _______ _______ _____ _____    ______ ____

>  <TORSDO>
F 11

$$$$
=
 OpenBabel10232412083D

 39 43  0  0  1  0  0  0  0  0999 V2000
  192.3320  175.3160  134.6910 O   0  0  0  0  0  0  0  0  0  0  0  0
  194.3310  175.5900  138.5830 O   0  0  0  0  0  0  0  0  0  0  0  0
  189.9830  175.6950  135.3010 C   0  0  0  0  0  3  0  0  0  0  0  0
  192.3590  175.6100  136.9550 C   0  0  2  0  0  3  0  0  0  0  0  0
  193.7610  175.7190  137.4670 C   0  0  0  0  0  0  0  0  0  0  0  0
  190.9450  175.1980  134.4890 C   0  0  0  0  0  3  0  0  0  0  0  0
  194.2140  175.9170  136.0740 N   0  0  0  0  0  0  0  0  0  0  0  0
  192.8290  176.1380  135.7270 C   0  0  1  0  0  3  0  0  0  0  0  0
  190.0870  176.4480  136.6060 C   0  0  0  0  0  0  0  0  0  0  0  0
  191.2170  176.4840  137.3630 C   0  0  0  0  0  0  0  0  0  0  0  0
  188.7560  178.5450  136.9200 C   0  0  0  0  0  3  0  0  0  0  0  0
  187.6100  179.1790  137.2780 N   0  0  0  0  0  0  0  0  0  0  0  0
  186.5570  178.5040  137.7410 N   0  0  0  0  0  0  0  0  0  0  0  0
  187.7360  176.4540  137.5210 C   0  0  0  0  0  3  0  0  0  0  0  0
  186.5860  177.1520  137.8740 C   0  0  0  0  0  3  0  0  0  0  0  0
  188.8520  177.1530  137.0430 C   0  0  0  0  0  0  0  0  0  0  0  0
  195.5020  176.0560  135.4140 C   0  0  0  0  0  2  0  0  0  0  0  0
  196.1240  174.6890  135.1600 C   0  0  0  0  0  2  0  0  0  0  0  0
  198.2340  173.4060  135.6950 N   0  0  0  0  0  2  0  0  0  0  0  0
  197.3640  174.5070  135.9710 C   0  0  0  0  0  0  0  0  0  0  0  0
  197.6900  175.4020  136.8460 N   0  0  0  0  0  2  0  0  0  0  0  0
  199.5810  172.2090  137.3320 C   0  0  0  0  0  1  0  0  0  0  0  0
  199.5660  173.2910  136.2680 C   0  0  0  0  0  2  0  0  0  0  0  0
  191.2810  177.3140  138.4900 O   0  0  0  0  0  0  0  0  0  0  0  0
  191.7330  176.8790  139.6720 O   0  0  0  0  0  0  0  0  0  0  0  0
  190.9230  177.5150  140.6140 C   0  0  2  0  0  3  0  0  0  0  0  0
  191.6010  177.5970  141.8290 O   0  0  0  0  0  1  0  0  0  0  0  0
  189.6400  176.7280  140.8130 C   0  0  0  0  0  2  0  0  0  0  0  0
  188.6070  177.1800  143.2360 C   0  0  0  0  0  0  0  0  0  0  0  0
  189.0790  176.9720  142.1450 C   0  0  0  0  0  0  0  0  0  0  0  0
  188.0400  177.4300  144.5320 C   0  0  0  0  0  0  0  0  0  0  0  0
  184.3130  178.8030  145.9270 N   0  0  0  0  0  0  0  0  0  0  0  0
  186.6120  178.0140  146.2390 C   0  0  0  0  0  0  0  0  0  0  0  0
  186.6990  177.8980  144.8140 C   0  0  0  0  0  0  0  0  0  0  0  0
  187.7670  177.6580  146.7870 C   0  0  0  0  0  3  0  0  0  0  0  0
  185.3630  178.4810  146.9160 C   0  0  0  0  0  3  0  0  0  0  0  0
  185.6900  178.2080  144.0070 C   0  0  0  0  0  3  0  0  0  0  0  0
  184.4350  178.6880  144.6300 C   0  0  0  0  0  3  0  0  0  0  0  0
  188.6840  177.2860  145.6860 C   0  0  0  0  0  2  0  0  0  0  0  0
  3  9  1  0  0  0  0
  4 10  1  1  0  0  0
  4  5  1  0  0  0  0
  5  2  2  0  0  0  0
  6  1  1  0  0  0  0
  6  3  2  0  0  0  0
  7  5  1  0  0  0  0
  8  1  1  6  0  0  0
  8  7  1  0  0  0  0
  8  4  1  0  0  0  0
  9 16  1  0  0  0  0
  9 10  2  0  0  0  0
 10 24  1  0  0  0  0
 11 16  2  0  0  0  0
 11 12  1  0  0  0  0
 12 13  2  0  0  0  0
 13 15  1  0  0  0  0
 14 15  2  0  0  0  0
 16 14  1  0  0  0  0
 17  7  1  0  0  0  0
 18 17  1  0  0  0  0
 18 20  1  0  0  0  0
 19 20  1  0  0  0  0
 19 23  1  0  0  0  0
 20 21  2  0  0  0  0
 23 22  1  0  0  0  0
 24 25  1  0  0  0  0
 25 26  1  0  0  0  0
 26 28  1  0  0  0  0
 26 27  1  1  0  0  0
 28 30  1  0  0  0  0
 29 31  1  0  0  0  0
 30 29  3  0  0  0  0
 31 34  2  0  0  0  0
 31 39  1  0  0  0  0
 32 36  2  0  0  0  0
 33 35  2  0  0  0  0
 33 36  1  0  0  0  0
 34 33  1  0  0  0  0
 37 38  2  0  0  0  0
 37 34  1  0  0  0  0
 38 32  1  0  0  0  0
 39 35  1  0  0  0  0
M  END
>  <MODEL>
8

>  <REMARK>
 VINA RESULT:      -7.8      4.214      6.562
  Name = 
  11 active torsions:
  status: ('A' for Active; 'I' for Inactive)
    1  A    between atoms: C_1  and  C_5
    2  A    between atoms: N_7  and  C_26
    3  A    between atoms: C_8  and  C_15
    4  A    between atoms: C_8  and  O_17
    5  A    between atoms: C_10  and  C_38
    6  A    between atoms: C_15  and  C_19
    7  A    between atoms: O_17  and  O_37
    8  A    between atoms: C_24  and  N_30
    9  A    between atoms: C_24  and  C_38
   10  A    between atoms: C_32  and  C_34
   11  A    between atoms: C_35  and  O_37
                            x       y       z     vdW  Elec       q    Type
                         _______ _______ _______ _____ _____    ______ ____

>  <TORSDO>
F 11

$$$$
=
 OpenBabel10232412083D

 39 43  0  0  1  0  0  0  0  0999 V2000
  193.1010  173.9070  135.1840 O   0  0  0  0  0  0  0  0  0  0  0  0
  193.8210  176.3670  138.7410 O   0  0  0  0  0  0  0  0  0  0  0  0
  190.8730  172.9820  135.6510 C   0  0  0  0  0  3  0  0  0  0  0  0
  192.5260  174.7720  137.2180 C   0  0  2  0  0  3  0  0  0  0  0  0
  193.5010  175.8210  137.6520 C   0  0  0  0  0  0  0  0  0  0  0  0
  192.0840  172.9460  135.0460 C   0  0  0  0  0  3  0  0  0  0  0  0
  194.0240  175.8530  136.2700 N   0  0  0  0  0  0  0  0  0  0  0  0
  192.8470  175.1100  135.8800 C   0  0  1  0  0  3  0  0  0  0  0  0
  190.2900  173.9760  136.6270 C   0  0  0  0  0  0  0  0  0  0  0  0
  191.0390  174.8770  137.3190 C   0  0  0  0  0  0  0  0  0  0  0  0
  188.2010  172.6840  137.1120 C   0  0  0  0  0  3  0  0  0  0  0  0
  186.8610  172.6330  137.3240 N   0  0  0  0  0  0  0  0  0  0  0  0
  186.1050  173.7300  137.2610 N   0  0  0  0  0  0  0  0  0  0  0  0
  188.0130  175.0520  136.7580 C   0  0  0  0  0  3  0  0  0  0  0  0
  186.6440  174.9460  136.9830 C   0  0  0  0  0  3  0  0  0  0  0  0
  188.8150  173.9060  136.8110 C   0  0  0  0  0  0  0  0  0  0  0  0
  195.1150  176.5340  135.5910 C   0  0  0  0  0  2  0  0  0  0  0  0
  196.0780  175.5250  134.9790 C   0  0  0  0  0  2  0  0  0  0  0  0
  197.3720  175.2580  137.1330 N   0  0  0  0  0  2  0  0  0  0  0  0
  196.6830  174.6570  136.0330 C   0  0  0  0  0  0  0  0  0  0  0  0
  196.4920  173.3790  135.9930 N   0  0  0  0  0  2  0  0  0  0  0  0
  196.7300  174.6490  139.4010 C   0  0  0  0  0  1  0  0  0  0  0  0
  197.7770  174.5090  138.3120 C   0  0  0  0  0  2  0  0  0  0  0  0
  190.4130  175.8570  138.1000 O   0  0  0  0  0  0  0  0  0  0  0  0
  190.4990  175.8670  139.4360 O   0  0  0  0  0  0  0  0  0  0  0  0
  190.2960  177.2010  139.7910 C   0  0  2  0  0  3  0  0  0  0  0  0
  190.9220  177.4570  141.0100 O   0  0  0  0  0  1  0  0  0  0  0  0
  188.8110  177.4830  139.9280 C   0  0  0  0  0  2  0  0  0  0  0  0
  188.0800  177.5830  142.4960 C   0  0  0  0  0  0  0  0  0  0  0  0
  188.4170  177.5370  141.3390 C   0  0  0  0  0  0  0  0  0  0  0  0
  187.6720  177.6380  143.8730 C   0  0  0  0  0  0  0  0  0  0  0  0
  184.1720  178.8270  145.8880 N   0  0  0  0  0  0  0  0  0  0  0  0
  186.4660  177.9690  145.8050 C   0  0  0  0  0  0  0  0  0  0  0  0
  186.3870  178.0730  144.3780 C   0  0  0  0  0  0  0  0  0  0  0  0
  187.6650  177.5180  146.1530 C   0  0  0  0  0  3  0  0  0  0  0  0
  185.3170  178.3430  146.6860 C   0  0  0  0  0  3  0  0  0  0  0  0
  185.3030  178.5180  143.7520 C   0  0  0  0  0  3  0  0  0  0  0  0
  184.1430  178.9120  144.5820 C   0  0  0  0  0  3  0  0  0  0  0  0
  188.4390  177.3090  144.9080 C   0  0  0  0  0  2  0  0  0  0  0  0
  3  9  1  0  0  0  0
  4 10  1  6  0  0  0
  4  5  1  0  0  0  0
  5  2  2  0  0  0  0
  6  1  1  0  0  0  0
  6  3  2  0  0  0  0
  7  5  1  0  0  0  0
  8  1  1  6  0  0  0
  8  7  1  0  0  0  0
  8  4  1  0  0  0  0
  9 16  1  0  0  0  0
  9 10  2  0  0  0  0
 10 24  1  0  0  0  0
 11 12  1  0  0  0  0
 13 12  2  0  0  0  0
 14 16  1  0  0  0  0
 14 15  2  0  0  0  0
 15 13  1  0  0  0  0
 16 11  2  0  0  0  0
 17  7  1  0  0  0  0
 18 17  1  0  0  0  0
 18 20  1  0  0  0  0
 19 23  1  0  0  0  0
 20 19  1  0  0  0  0
 21 20  2  0  0  0  0
 23 22  1  0  0  0  0
 24 25  1  0  0  0  0
 25 26  1  0  0  0  0
 26 28  1  0  0  0  0
 26 27  1  1  0  0  0
 28 30  1  0  0  0  0
 29 31  1  0  0  0  0
 30 29  3  0  0  0  0
 31 34  2  0  0  0  0
 31 39  1  0  0  0  0
 32 36  2  0  0  0  0
 33 35  2  0  0  0  0
 33 36  1  0  0  0  0
 34 33  1  0  0  0  0
 37 34  1  0  0  0  0
 37 38  2  0  0  0  0
 38 32  1  0  0  0  0
 39 35  1  0  0  0  0
M  END
>  <MODEL>
9

>  <REMARK>
 VINA RESULT:      -7.8      4.125      6.835
  Name = 
  11 active torsions:
  status: ('A' for Active; 'I' for Inactive)
    1  A    between atoms: C_1  and  C_5
    2  A    between atoms: N_7  and  C_26
    3  A    between atoms: C_8  and  C_15
    4  A    between atoms: C_8  and  O_17
    5  A    between atoms: C_10  and  C_38
    6  A    between atoms: C_15  and  C_19
    7  A    between atoms: O_17  and  O_37
    8  A    between atoms: C_24  and  N_30
    9  A    between atoms: C_24  and  C_38
   10  A    between atoms: C_32  and  C_34
   11  A    between atoms: C_35  and  O_37
                            x       y       z     vdW  Elec       q    Type
                         _______ _______ _______ _____ _____    ______ ____

>  <TORSDO>
F 11

$$$$
