=
 OpenBabel10232408553D

 51 54  0  0  1  0  0  0  0  0999 V2000
  184.0920  178.3250  142.4380 C   0  0  1  0  0  3  0  0  0  0  0  0
  184.2550  180.3890  138.8350 O   0  0  0  0  0  0  0  0  0  0  0  0
  185.3840  179.0420  140.3940 C   0  0  0  0  0  2  0  0  0  0  0  0
  181.5180  178.9630  143.4950 Cl  0  0  0  0  0  0  0  0  0  0  0  0
  182.9170  178.6290  139.6440 C   0  0  2  0  0  3  0  0  0  0  0  0
  184.1950  179.4120  139.5640 C   0  0  0  0  0  0  0  0  0  0  0  0
  182.6500  178.7180  142.1710 C   0  0  0  0  0  0  0  0  0  0  0  0
  185.1260  179.3110  141.8690 C   0  0  0  0  0  2  0  0  0  0  0  0
  182.1570  178.8440  140.9280 C   0  0  0  0  0  3  0  0  0  0  0  0
  183.0920  177.1820  139.3000 C   0  0  0  0  0  0  0  0  0  0  0  0
  183.6580  176.7990  138.0440 N   0  0  0  0  0  2  0  0  0  0  0  0
  182.7350  176.3050  140.1290 O   0  0  0  0  0  0  0  0  0  0  0  0
  183.7870  175.4100  137.6300 C   0  0  2  0  0  3  0  0  0  0  0  0
  184.5510  175.3350  136.3100 C   0  0  1  0  0  3  0  0  0  0  0  0
  184.5310  176.6290  135.6420 N   0  0  0  0  0  2  0  0  0  0  0  0
  185.9960  175.0560  136.5630 C   0  0  0  0  0  2  0  0  0  0  0  0
  186.6250  176.4050  136.3360 C   0  0  1  0  0  3  0  0  0  0  0  0
  185.6070  177.3430  136.0830 O   0  0  0  0  0  0  0  0  0  0  0  0
  187.4300  176.8100  137.4910 N   0  0  0  0  0  2  0  0  0  0  0  0
  188.3260  177.8200  137.0920 N   0  0  0  0  0  0  0  0  0  0  0  0
  188.5250  178.6260  138.1620 O   0  0  0  0  0  1  0  0  0  0  0  0
  189.6020  177.1920  136.7440 C   0  0  0  0  0  2  0  0  0  0  0  0
  189.9790  176.1640  137.7120 N   0  0  0  0  0  0  0  0  0  0  0  0
  190.5710  175.0710  136.9540 C   0  0  0  0  0  3  0  0  0  0  0  0
  189.6180  173.8880  136.9300 C   0  0  0  0  0  2  0  0  0  0  0  0
  189.7310  174.7880  135.7210 C   0  0  0  0  0  2  0  0  0  0  0  0
  191.0440  176.7370  138.5230 C   0  0  0  0  0  2  0  0  0  0  0  0
  192.3510  176.0050  138.2710 C   0  0  0  0  0  2  0  0  0  0  0  0
  194.2360  176.3970  137.3300 O   0  0  0  0  0  1  0  0  0  0  0  0
  193.4040  176.9180  138.2050 O   0  0  0  0  0  0  0  0  0  0  0  0
  182.3990  174.8020  137.4610 C   0  0  0  0  0  2  0  0  0  0  0  0
  181.5690  175.6200  136.4900 C   0  0  0  0  0  1  0  0  0  0  0  0
  184.3420  177.9290  143.7730 O   0  0  0  0  0  0  0  0  0  0  0  0
  184.6660  179.0600  144.5450 C   0  0  0  0  0  2  0  0  0  0  0  0
  184.5770  178.7290  146.0230 C   0  0  0  0  0  2  0  0  0  0  0  0
  185.9160  178.9580  146.6970 C   0  0  0  0  0  2  0  0  0  0  0  0
  188.0580  177.4440  147.2370 O   0  0  0  0  0  0  0  0  0  0  0  0
  187.0960  177.7540  146.1240 S   0  0  0  0  0  0  0  0  0  0  0  0
  186.3800  176.4990  145.7150 O   0  0  0  0  0  0  0  0  0  0  0  0
  187.9490  178.3990  144.7620 N   0  0  0  0  0  2  0  0  0  0  0  0
  188.8500  177.7860  142.5290 C   0  0  0  0  0  0  0  0  0  0  0  0
  188.3950  177.1280  141.2390 C   0  0  0  0  0  1  0  0  0  0  0  0
  189.5010  176.8880  143.5720 C   0  0  2  0  0  0  0  0  0  0  0  0
  189.6100  175.5390  143.2250 O   0  0  0  0  0  1  0  0  0  0  0  0
  189.2900  179.2450  142.4600 C   0  0  0  0  0  1  0  0  0  0  0  0
  188.0490  177.3430  143.7610 C   0  0  1  0  0  3  0  0  0  0  0  0
  190.5860  177.4710  144.4830 C   0  0  2  0  0  3  0  0  0  0  0  0
  192.1610  176.9440  142.7700 O   0  0  0  0  0  1  0  0  0  0  0  0
  191.7700  177.9440  143.6580 C   0  0  0  0  0  2  0  0  0  0  0  0
  191.9800  177.0480  146.2020 O   0  0  0  0  0  1  0  0  0  0  0  0
  191.0190  176.4700  145.4440 N   0  0  0  0  0  2  0  0  0  0  0  0
  1 33  1  1  0  0  0
  2  6  2  0  0  0  0
  3  8  1  0  0  0  0
  5 10  1  1  0  0  0
  5  9  1  0  0  0  0
  6  5  1  0  0  0  0
  6  3  1  0  0  0  0
  7  1  1  0  0  0  0
  7  4  1  0  0  0  0
  8  1  1  0  0  0  0
  9  7  2  0  0  0  0
 10 12  2  0  0  0  0
 11 10  1  0  0  0  0
 13 31  1  6  0  0  0
 13 11  1  0  0  0  0
 14 16  1  0  0  0  0
 14 13  1  1  0  0  0
 15 18  1  0  0  0  0
 15 14  1  0  0  0  0
 17 16  1  0  0  0  0
 17 19  1  1  0  0  0
 18 17  1  0  0  0  0
 20 19  1  0  0  0  0
 20 21  1  0  0  0  0
 22 20  1  0  0  0  0
 22 23  1  0  0  0  0
 23 27  1  0  0  0  0
 24 23  1  0  0  0  0
 25 24  1  0  0  0  0
 26 25  1  0  0  0  0
 26 24  1  0  0  0  0
 28 27  1  0  0  0  0
 29 30  1  0  0  0  0
 30 28  1  0  0  0  0
 32 31  1  0  0  0  0
 33 34  1  0  0  0  0
 34 35  1  0  0  0  0
 35 36  1  0  0  0  0
 38 36  1  0  0  0  0
 38 37  2  0  0  0  0
 39 38  2  0  0  0  0
 40 38  1  0  0  0  0
 41 43  1  0  0  0  0
 41 46  1  0  0  0  0
 42 41  1  0  0  0  0
 43 44  1  6  0  0  0
 43 46  1  0  0  0  0
 43 47  1  0  0  0  0
 45 41  1  0  0  0  0
 46 40  1  1  0  0  0
 47 49  1  6  0  0  0
 47 51  1  0  0  0  0
 48 49  1  0  0  0  0
 51 50  1  0  0  0  0
M  END
>  <MODEL>
1

>  <REMARK>
 VINA RESULT:      -6.0      0.000      0.000
  Name = 
  22 active torsions:
  status: ('A' for Active; 'I' for Inactive)
    1  A    between atoms: C_2  and  C_14
    2  A    between atoms: C_2  and  N_21
    3  A    between atoms: C_2  and  C_40
    4  A    between atoms: C_3  and  C_28
    5  A    between atoms: C_5  and  N_23
    6  A    between atoms: O_7  and  C_8
    7  A    between atoms: O_7  and  C_19
    8  A    between atoms: O_11  and  C_37
    9  A    between atoms: C_12  and  C_24
   10  A    between atoms: C_12  and  S_36
   11  A    between atoms: C_15  and  C_42
   12  A    between atoms: C_18  and  N_23
   13  A    between atoms: C_18  and  N_31
   14  A    between atoms: C_19  and  C_24
   15  A    between atoms: N_20  and  N_31
   16  A    between atoms: N_20  and  C_38
   17  A    between atoms: N_23  and  C_27
   18  A    between atoms: C_27  and  C_37
   19  A    between atoms: C_29  and  C_42
   20  A    between atoms: N_35  and  C_42
   21  A    between atoms: S_36  and  N_44
   22  A    between atoms: N_44  and  C_51
                            x       y       z     vdW  Elec       q    Type
                         _______ _______ _______ _____ _____    ______ ____

>  <TORSDO>
F 22

$$$$
=
 OpenBabel10232408553D

 51 54  0  0  1  0  0  0  0  0999 V2000
  184.1640  178.2280  142.3550 C   0  0  1  0  0  3  0  0  0  0  0  0
  184.0470  180.5730  138.9280 O   0  0  0  0  0  0  0  0  0  0  0  0
  185.2600  179.0450  140.2360 C   0  0  0  0  0  2  0  0  0  0  0  0
  181.7680  178.9070  143.7510 Cl  0  0  0  0  0  0  0  0  0  0  0  0
  182.7040  178.8230  139.7500 C   0  0  2  0  0  3  0  0  0  0  0  0
  184.0110  179.5440  139.5820 C   0  0  0  0  0  0  0  0  0  0  0  0
  182.7270  178.7150  142.2890 C   0  0  0  0  0  0  0  0  0  0  0  0
  185.1860  179.2030  141.7470 C   0  0  0  0  0  2  0  0  0  0  0  0
  182.1080  178.9700  141.1250 C   0  0  0  0  0  3  0  0  0  0  0  0
  182.7510  177.4020  139.2770 C   0  0  0  0  0  0  0  0  0  0  0  0
  182.7290  177.1030  137.8790 N   0  0  0  0  0  2  0  0  0  0  0  0
  182.8110  176.4740  140.1250 O   0  0  0  0  0  0  0  0  0  0  0  0
  182.7020  175.7410  137.3670 C   0  0  2  0  0  3  0  0  0  0  0  0
  183.3940  175.6900  136.0060 C   0  0  1  0  0  3  0  0  0  0  0  0
  184.1910  176.8910  135.8000 N   0  0  0  0  0  2  0  0  0  0  0  0
  184.3770  174.5660  135.9670 C   0  0  0  0  0  2  0  0  0  0  0  0
  185.6910  175.2870  136.1080 C   0  0  1  0  0  3  0  0  0  0  0  0
  185.4370  176.6570  136.3040 O   0  0  0  0  0  0  0  0  0  0  0  0
  186.4740  174.7390  137.2170 N   0  0  0  0  0  2  0  0  0  0  0  0
  187.8440  174.8990  136.9320 N   0  0  0  0  0  0  0  0  0  0  0  0
  187.9370  175.3890  135.6730 O   0  0  0  0  0  1  0  0  0  0  0  0
  188.3920  175.8940  137.8560 C   0  0  0  0  0  2  0  0  0  0  0  0
  189.6310  176.4790  137.3450 N   0  0  0  0  0  0  0  0  0  0  0  0
  189.7580  177.7920  137.9600 C   0  0  0  0  0  3  0  0  0  0  0  0
  189.0810  178.8350  137.0870 C   0  0  0  0  0  2  0  0  0  0  0  0
  188.3840  178.3230  138.3270 C   0  0  0  0  0  2  0  0  0  0  0  0
  190.7160  175.6620  137.8720 C   0  0  0  0  0  2  0  0  0  0  0  0
  191.9480  176.5150  138.1160 C   0  0  0  0  0  2  0  0  0  0  0  0
  193.9410  176.9120  137.4350 O   0  0  0  0  0  1  0  0  0  0  0  0
  193.0580  175.9390  137.4980 O   0  0  0  0  0  0  0  0  0  0  0  0
  181.2560  175.2790  137.2320 C   0  0  0  0  0  2  0  0  0  0  0  0
  180.7750  175.4350  135.8010 C   0  0  0  0  0  1  0  0  0  0  0  0
  184.5370  177.7090  143.6180 O   0  0  0  0  0  0  0  0  0  0  0  0
  185.2810  178.6760  144.3200 C   0  0  0  0  0  2  0  0  0  0  0  0
  185.6750  178.1440  145.6860 C   0  0  0  0  0  2  0  0  0  0  0  0
  186.8390  178.9380  146.2470 C   0  0  0  0  0  2  0  0  0  0  0  0
  188.6640  178.6390  148.1820 O   0  0  0  0  0  0  0  0  0  0  0  0
  187.9480  177.8540  147.1200 S   0  0  0  0  0  0  0  0  0  0  0  0
  187.1680  176.7400  147.7580 O   0  0  0  0  0  0  0  0  0  0  0  0
  189.0890  177.1880  146.0000 N   0  0  0  0  0  2  0  0  0  0  0  0
  191.0120  178.0230  144.6660 C   0  0  0  0  0  0  0  0  0  0  0  0
  191.8310  179.2880  144.4830 C   0  0  0  0  0  1  0  0  0  0  0  0
  189.8280  177.8240  143.7290 C   0  0  2  0  0  0  0  0  0  0  0  0
  189.6200  178.8400  142.7920 O   0  0  0  0  0  1  0  0  0  0  0  0
  191.7320  176.7840  145.1870 C   0  0  0  0  0  1  0  0  0  0  0  0
  189.5860  178.2820  145.1720 C   0  0  1  0  0  3  0  0  0  0  0  0
  189.4290  176.4010  143.3250 C   0  0  2  0  0  3  0  0  0  0  0  0
  191.1810  176.7230  141.7370 O   0  0  0  0  0  1  0  0  0  0  0  0
  189.9630  176.0760  141.9400 C   0  0  0  0  0  2  0  0  0  0  0  0
  187.5100  177.0050  142.3120 O   0  0  0  0  0  1  0  0  0  0  0  0
  187.9820  176.2660  143.3430 N   0  0  0  0  0  2  0  0  0  0  0  0
  1 33  1  1  0  0  0
  2  6  2  0  0  0  0
  3  8  1  0  0  0  0
  5 10  1  1  0  0  0
  5  9  1  0  0  0  0
  6  5  1  0  0  0  0
  6  3  1  0  0  0  0
  7  1  1  0  0  0  0
  7  4  1  0  0  0  0
  8  1  1  0  0  0  0
  9  7  2  0  0  0  0
 10 12  2  0  0  0  0
 11 10  1  0  0  0  0
 13 31  1  6  0  0  0
 13 11  1  0  0  0  0
 14 13  1  1  0  0  0
 15 14  1  0  0  0  0
 15 18  1  0  0  0  0
 16 14  1  0  0  0  0
 16 17  1  0  0  0  0
 17 18  1  0  0  0  0
 17 19  1  1  0  0  0
 20 19  1  0  0  0  0
 20 22  1  0  0  0  0
 21 20  1  0  0  0  0
 23 22  1  0  0  0  0
 23 27  1  0  0  0  0
 23 24  1  0  0  0  0
 24 26  1  0  0  0  0
 25 24  1  0  0  0  0
 25 26  1  0  0  0  0
 27 28  1  0  0  0  0
 29 30  1  0  0  0  0
 30 28  1  0  0  0  0
 32 31  1  0  0  0  0
 33 34  1  0  0  0  0
 34 35  1  0  0  0  0
 35 36  1  0  0  0  0
 36 38  1  0  0  0  0
 38 39  2  0  0  0  0
 38 37  2  0  0  0  0
 40 38  1  0  0  0  0
 41 46  1  0  0  0  0
 41 45  1  0  0  0  0
 42 41  1  0  0  0  0
 43 44  1  6  0  0  0
 43 41  1  0  0  0  0
 43 46  1  0  0  0  0
 46 40  1  1  0  0  0
 47 49  1  6  0  0  0
 47 51  1  0  0  0  0
 47 43  1  0  0  0  0
 48 49  1  0  0  0  0
 50 51  1  0  0  0  0
M  END
>  <MODEL>
2

>  <REMARK>
 VINA RESULT:      -5.8      1.488      2.270
  Name = 
  22 active torsions:
  status: ('A' for Active; 'I' for Inactive)
    1  A    between atoms: C_2  and  C_14
    2  A    between atoms: C_2  and  N_21
    3  A    between atoms: C_2  and  C_40
    4  A    between atoms: C_3  and  C_28
    5  A    between atoms: C_5  and  N_23
    6  A    between atoms: O_7  and  C_8
    7  A    between atoms: O_7  and  C_19
    8  A    between atoms: O_11  and  C_37
    9  A    between atoms: C_12  and  C_24
   10  A    between atoms: C_12  and  S_36
   11  A    between atoms: C_15  and  C_42
   12  A    between atoms: C_18  and  N_23
   13  A    between atoms: C_18  and  N_31
   14  A    between atoms: C_19  and  C_24
   15  A    between atoms: N_20  and  N_31
   16  A    between atoms: N_20  and  C_38
   17  A    between atoms: N_23  and  C_27
   18  A    between atoms: C_27  and  C_37
   19  A    between atoms: C_29  and  C_42
   20  A    between atoms: N_35  and  C_42
   21  A    between atoms: S_36  and  N_44
   22  A    between atoms: N_44  and  C_51
                            x       y       z     vdW  Elec       q    Type
                         _______ _______ _______ _____ _____    ______ ____

>  <TORSDO>
F 22

$$$$
=
 OpenBabel10232408553D

 51 54  0  0  1  0  0  0  0  0999 V2000
  182.8380  178.8600  140.4420 C   0  0  1  0  0  3  0  0  0  0  0  0
  180.2640  178.6930  137.1860 O   0  0  0  0  0  0  0  0  0  0  0  0
  182.4530  179.0550  137.9580 C   0  0  0  0  0  2  0  0  0  0  0  0
  181.1320  178.5040  142.7030 Cl  0  0  0  0  0  0  0  0  0  0  0  0
  180.9080  177.1390  138.8330 C   0  0  2  0  0  3  0  0  0  0  0  0
  181.1530  178.3140  137.9300 C   0  0  0  0  0  0  0  0  0  0  0  0
  181.5580  178.2750  141.0130 C   0  0  0  0  0  0  0  0  0  0  0  0
  182.6180  179.8200  139.2620 C   0  0  0  0  0  2  0  0  0  0  0  0
  180.7250  177.5190  140.2790 C   0  0  0  0  0  3  0  0  0  0  0  0
  181.8970  176.0310  138.6360 C   0  0  0  0  0  0  0  0  0  0  0  0
  182.1180  175.4800  137.3350 N   0  0  0  0  0  2  0  0  0  0  0  0
  182.5310  175.5890  139.6300 O   0  0  0  0  0  0  0  0  0  0  0  0
  183.0140  174.3570  137.0990 C   0  0  2  0  0  3  0  0  0  0  0  0
  183.8580  174.6270  135.8540 C   0  0  1  0  0  3  0  0  0  0  0  0
  183.5230  175.9260  135.2890 N   0  0  0  0  0  2  0  0  0  0  0  0
  185.3020  174.7280  136.2200 C   0  0  0  0  0  2  0  0  0  0  0  0
  185.5430  176.2130  136.1580 C   0  0  1  0  0  3  0  0  0  0  0  0
  184.3230  176.8580  135.8830 O   0  0  0  0  0  0  0  0  0  0  0  0
  186.1210  176.7040  137.4100 N   0  0  0  0  0  2  0  0  0  0  0  0
  186.2000  178.1080  137.3570 N   0  0  0  0  0  0  0  0  0  0  0  0
  185.9190  178.5740  138.5980 O   0  0  0  0  0  1  0  0  0  0  0  0
  187.5780  178.4790  137.0270 C   0  0  0  0  0  2  0  0  0  0  0  0
  188.5400  177.5350  137.5920 N   0  0  0  0  0  0  0  0  0  0  0  0
  189.5880  177.3590  136.5970 C   0  0  0  0  0  3  0  0  0  0  0  0
  189.5100  175.9590  136.0130 C   0  0  0  0  0  2  0  0  0  0  0  0
  188.9650  177.1320  135.2310 C   0  0  0  0  0  2  0  0  0  0  0  0
  189.1520  178.2070  138.7310 C   0  0  0  0  0  2  0  0  0  0  0  0
  189.3580  177.2270  139.8730 C   0  0  0  0  0  2  0  0  0  0  0  0
  191.4990  177.2310  139.7790 O   0  0  0  0  0  1  0  0  0  0  0  0
  190.5110  177.5570  140.5840 O   0  0  0  0  0  0  0  0  0  0  0  0
  182.1930  173.0880  136.9050 C   0  0  0  0  0  2  0  0  0  0  0  0
  180.7290  173.4220  136.6910 C   0  0  0  0  0  1  0  0  0  0  0  0
  183.7360  179.3430  141.4240 O   0  0  0  0  0  0  0  0  0  0  0  0
  184.5570  178.2890  141.8660 C   0  0  0  0  0  2  0  0  0  0  0  0
  185.2790  178.6860  143.1400 C   0  0  0  0  0  2  0  0  0  0  0  0
  184.3430  178.5920  144.3300 C   0  0  0  0  0  2  0  0  0  0  0  0
  185.6490  180.0490  146.1570 O   0  0  0  0  0  0  0  0  0  0  0  0
  185.2810  178.6260  145.8430 S   0  0  0  0  0  0  0  0  0  0  0  0
  184.4540  178.0610  146.9630 O   0  0  0  0  0  0  0  0  0  0  0  0
  186.7110  177.6710  145.6450 N   0  0  0  0  0  2  0  0  0  0  0  0
  188.7580  177.6280  147.0540 C   0  0  0  0  0  0  0  0  0  0  0  0
  189.4330  178.4490  148.1380 C   0  0  0  0  0  1  0  0  0  0  0  0
  189.1720  177.9090  145.6160 C   0  0  2  0  0  0  0  0  0  0  0  0
  190.1380  178.9040  145.4470 O   0  0  0  0  0  1  0  0  0  0  0  0
  188.3140  176.2140  147.4120 C   0  0  0  0  0  1  0  0  0  0  0  0
  187.8380  178.4530  146.1420 C   0  0  1  0  0  3  0  0  0  0  0  0
  189.1560  176.7620  144.6000 C   0  0  2  0  0  3  0  0  0  0  0  0
  190.5660  175.4390  143.2020 O   0  0  0  0  0  1  0  0  0  0  0  0
  190.5740  176.3180  144.2830 C   0  0  0  0  0  2  0  0  0  0  0  0
  187.6940  176.1580  142.9960 O   0  0  0  0  0  1  0  0  0  0  0  0
  188.4850  177.1860  143.3820 N   0  0  0  0  0  2  0  0  0  0  0  0
  1  7  1  0  0  0  0
  1 33  1  1  0  0  0
  2  6  2  0  0  0  0
  3  8  1  0  0  0  0
  5 10  1  1  0  0  0
  5  9  1  0  0  0  0
  6  3  1  0  0  0  0
  6  5  1  0  0  0  0
  7  4  1  0  0  0  0
  8  1  1  0  0  0  0
  9  7  2  0  0  0  0
 10 12  2  0  0  0  0
 11 10  1  0  0  0  0
 13 31  1  6  0  0  0
 13 11  1  0  0  0  0
 14 16  1  0  0  0  0
 14 13  1  1  0  0  0
 15 14  1  0  0  0  0
 15 18  1  0  0  0  0
 17 16  1  0  0  0  0
 17 19  1  1  0  0  0
 18 17  1  0  0  0  0
 20 19  1  0  0  0  0
 20 21  1  0  0  0  0
 22 20  1  0  0  0  0
 22 23  1  0  0  0  0
 23 27  1  0  0  0  0
 24 23  1  0  0  0  0
 25 24  1  0  0  0  0
 26 25  1  0  0  0  0
 26 24  1  0  0  0  0
 27 28  1  0  0  0  0
 28 30  1  0  0  0  0
 29 30  1  0  0  0  0
 32 31  1  0  0  0  0
 33 34  1  0  0  0  0
 34 35  1  0  0  0  0
 35 36  1  0  0  0  0
 36 38  1  0  0  0  0
 38 37  2  0  0  0  0
 38 39  2  0  0  0  0
 40 38  1  0  0  0  0
 41 45  1  0  0  0  0
 41 42  1  0  0  0  0
 43 44  1  6  0  0  0
 43 46  1  0  0  0  0
 43 41  1  0  0  0  0
 46 40  1  6  0  0  0
 46 41  1  0  0  0  0
 47 49  1  6  0  0  0
 47 43  1  0  0  0  0
 48 49  1  0  0  0  0
 50 51  1  0  0  0  0
 51 47  1  0  0  0  0
M  END
>  <MODEL>
3

>  <REMARK>
 VINA RESULT:      -5.7      2.045      2.957
  Name = 
  22 active torsions:
  status: ('A' for Active; 'I' for Inactive)
    1  A    between atoms: C_2  and  C_14
    2  A    between atoms: C_2  and  N_21
    3  A    between atoms: C_2  and  C_40
    4  A    between atoms: C_3  and  C_28
    5  A    between atoms: C_5  and  N_23
    6  A    between atoms: O_7  and  C_8
    7  A    between atoms: O_7  and  C_19
    8  A    between atoms: O_11  and  C_37
    9  A    between atoms: C_12  and  C_24
   10  A    between atoms: C_12  and  S_36
   11  A    between atoms: C_15  and  C_42
   12  A    between atoms: C_18  and  N_23
   13  A    between atoms: C_18  and  N_31
   14  A    between atoms: C_19  and  C_24
   15  A    between atoms: N_20  and  N_31
   16  A    between atoms: N_20  and  C_38
   17  A    between atoms: N_23  and  C_27
   18  A    between atoms: C_27  and  C_37
   19  A    between atoms: C_29  and  C_42
   20  A    between atoms: N_35  and  C_42
   21  A    between atoms: S_36  and  N_44
   22  A    between atoms: N_44  and  C_51
                            x       y       z     vdW  Elec       q    Type
                         _______ _______ _______ _____ _____    ______ ____

>  <TORSDO>
F 22

$$$$
=
 OpenBabel10232408553D

 51 54  0  0  1  0  0  0  0  0999 V2000
  183.0340  178.8360  140.2310 C   0  0  1  0  0  3  0  0  0  0  0  0
  180.4530  178.7920  136.9750 O   0  0  0  0  0  0  0  0  0  0  0  0
  182.6370  179.1520  137.7610 C   0  0  0  0  0  2  0  0  0  0  0  0
  181.3410  178.3340  142.4740 Cl  0  0  0  0  0  0  0  0  0  0  0  0
  181.1290  177.1670  138.5390 C   0  0  2  0  0  3  0  0  0  0  0  0
  181.3510  178.3910  137.6980 C   0  0  0  0  0  0  0  0  0  0  0  0
  181.7660  178.2000  140.7730 C   0  0  0  0  0  0  0  0  0  0  0  0
  182.7930  179.8520  139.1020 C   0  0  0  0  0  2  0  0  0  0  0  0
  180.9430  177.4680  140.0030 C   0  0  0  0  0  3  0  0  0  0  0  0
  182.1360  176.0870  138.2830 C   0  0  0  0  0  0  0  0  0  0  0  0
  182.3790  175.6250  136.9530 N   0  0  0  0  0  2  0  0  0  0  0  0
  182.7660  175.5930  139.2540 O   0  0  0  0  0  0  0  0  0  0  0  0
  183.2940  174.5320  136.6550 C   0  0  2  0  0  3  0  0  0  0  0  0
  183.5930  174.5060  135.1580 C   0  0  1  0  0  3  0  0  0  0  0  0
  183.9560  175.8370  134.6920 N   0  0  0  0  0  2  0  0  0  0  0  0
  184.7950  173.6620  134.8840 C   0  0  0  0  0  2  0  0  0  0  0  0
  185.8570  174.6970  134.6230 C   0  0  1  0  0  3  0  0  0  0  0  0
  185.3060  175.9740  134.8330 O   0  0  0  0  0  0  0  0  0  0  0  0
  187.0200  174.4830  135.4870 N   0  0  0  0  0  2  0  0  0  0  0  0
  187.3100  175.6810  136.1680 N   0  0  0  0  0  0  0  0  0  0  0  0
  187.2090  175.4240  137.4930 O   0  0  0  0  0  1  0  0  0  0  0  0
  188.6960  176.0540  135.8750 C   0  0  0  0  0  2  0  0  0  0  0  0
  189.3740  176.5790  137.0580 N   0  0  0  0  0  0  0  0  0  0  0  0
  190.7920  176.2930  136.8890 C   0  0  0  0  0  3  0  0  0  0  0  0
  191.2820  175.4340  138.0420 C   0  0  0  0  0  2  0  0  0  0  0  0
  190.9960  174.8010  136.7000 C   0  0  0  0  0  2  0  0  0  0  0  0
  189.2280  178.0270  137.0030 C   0  0  0  0  0  2  0  0  0  0  0  0
  188.6780  178.5520  138.3180 C   0  0  0  0  0  2  0  0  0  0  0  0
  187.2000  179.3140  136.9670 O   0  0  0  0  0  1  0  0  0  0  0  0
  187.3190  178.8380  138.1870 O   0  0  0  0  0  0  0  0  0  0  0  0
  182.6610  173.2120  137.0820 C   0  0  0  0  0  2  0  0  0  0  0  0
  181.6220  172.7640  136.0710 C   0  0  0  0  0  1  0  0  0  0  0  0
  183.9260  179.2830  141.2340 O   0  0  0  0  0  0  0  0  0  0  0  0
  185.0070  178.3880  141.3330 C   0  0  0  0  0  2  0  0  0  0  0  0
  185.2100  177.9680  142.7770 C   0  0  0  0  0  2  0  0  0  0  0  0
  186.4510  178.6260  143.3490 C   0  0  0  0  0  2  0  0  0  0  0  0
  186.7300  177.2390  145.6220 O   0  0  0  0  0  0  0  0  0  0  0  0
  187.3890  177.4380  144.2860 S   0  0  0  0  0  0  0  0  0  0  0  0
  187.4310  176.1310  143.5470 O   0  0  0  0  0  0  0  0  0  0  0  0
  189.0020  178.0300  144.5000 N   0  0  0  0  0  2  0  0  0  0  0  0
  191.2500  177.8610  143.4520 C   0  0  0  0  0  0  0  0  0  0  0  0
  191.8820  177.4750  142.1280 C   0  0  0  0  0  1  0  0  0  0  0  0
  191.1270  176.7680  144.5060 C   0  0  2  0  0  0  0  0  0  0  0  0
  191.6160  175.5130  144.1340 O   0  0  0  0  0  1  0  0  0  0  0  0
  191.4250  179.3000  143.9260 C   0  0  0  0  0  1  0  0  0  0  0  0
  189.8910  177.1910  143.7040 C   0  0  1  0  0  3  0  0  0  0  0  0
  191.2170  177.1490  145.9870 C   0  0  2  0  0  3  0  0  0  0  0  0
  192.5310  176.6560  147.9170 O   0  0  0  0  0  1  0  0  0  0  0  0
  191.9970  176.0970  146.7570 C   0  0  0  0  0  2  0  0  0  0  0  0
  189.6640  176.1840  147.3040 O   0  0  0  0  0  1  0  0  0  0  0  0
  189.8830  177.2850  146.5470 N   0  0  0  0  0  2  0  0  0  0  0  0
  1  7  1  0  0  0  0
  1 33  1  1  0  0  0
  2  6  2  0  0  0  0
  3  8  1  0  0  0  0
  5 10  1  1  0  0  0
  5  9  1  0  0  0  0
  6  3  1  0  0  0  0
  6  5  1  0  0  0  0
  7  4  1  0  0  0  0
  8  1  1  0  0  0  0
  9  7  2  0  0  0  0
 10 12  2  0  0  0  0
 11 10  1  0  0  0  0
 13 11  1  0  0  0  0
 13 31  1  6  0  0  0
 14 13  1  1  0  0  0
 15 18  1  0  0  0  0
 15 14  1  0  0  0  0
 16 14  1  0  0  0  0
 17 18  1  0  0  0  0
 17 16  1  0  0  0  0
 17 19  1  1  0  0  0
 19 20  1  0  0  0  0
 20 21  1  0  0  0  0
 22 20  1  0  0  0  0
 22 23  1  0  0  0  0
 24 23  1  0  0  0  0
 24 25  1  0  0  0  0
 26 24  1  0  0  0  0
 26 25  1  0  0  0  0
 27 23  1  0  0  0  0
 27 28  1  0  0  0  0
 29 30  1  0  0  0  0
 30 28  1  0  0  0  0
 32 31  1  0  0  0  0
 33 34  1  0  0  0  0
 34 35  1  0  0  0  0
 35 36  1  0  0  0  0
 36 38  1  0  0  0  0
 38 40  1  0  0  0  0
 38 37  2  0  0  0  0
 39 38  2  0  0  0  0
 41 46  1  0  0  0  0
 41 45  1  0  0  0  0
 41 43  1  0  0  0  0
 42 41  1  0  0  0  0
 43 44  1  6  0  0  0
 43 47  1  0  0  0  0
 46 40  1  1  0  0  0
 46 43  1  0  0  0  0
 47 51  1  0  0  0  0
 47 49  1  1  0  0  0
 49 48  1  0  0  0  0
 51 50  1  0  0  0  0
M  END
>  <MODEL>
4

>  <REMARK>
 VINA RESULT:      -5.5      2.181      2.947
  Name = 
  22 active torsions:
  status: ('A' for Active; 'I' for Inactive)
    1  A    between atoms: C_2  and  C_14
    2  A    between atoms: C_2  and  N_21
    3  A    between atoms: C_2  and  C_40
    4  A    between atoms: C_3  and  C_28
    5  A    between atoms: C_5  and  N_23
    6  A    between atoms: O_7  and  C_8
    7  A    between atoms: O_7  and  C_19
    8  A    between atoms: O_11  and  C_37
    9  A    between atoms: C_12  and  C_24
   10  A    between atoms: C_12  and  S_36
   11  A    between atoms: C_15  and  C_42
   12  A    between atoms: C_18  and  N_23
   13  A    between atoms: C_18  and  N_31
   14  A    between atoms: C_19  and  C_24
   15  A    between atoms: N_20  and  N_31
   16  A    between atoms: N_20  and  C_38
   17  A    between atoms: N_23  and  C_27
   18  A    between atoms: C_27  and  C_37
   19  A    between atoms: C_29  and  C_42
   20  A    between atoms: N_35  and  C_42
   21  A    between atoms: S_36  and  N_44
   22  A    between atoms: N_44  and  C_51
                            x       y       z     vdW  Elec       q    Type
                         _______ _______ _______ _____ _____    ______ ____

>  <TORSDO>
F 22

$$$$
=
 OpenBabel10232408553D

 51 54  0  0  1  0  0  0  0  0999 V2000
  182.9770  178.3930  140.7900 C   0  0  1  0  0  3  0  0  0  0  0  0
  181.5030  180.7340  137.6910 O   0  0  0  0  0  0  0  0  0  0  0  0
  183.2400  179.3620  138.4770 C   0  0  0  0  0  2  0  0  0  0  0  0
  181.0840  178.7460  142.8970 Cl  0  0  0  0  0  0  0  0  0  0  0  0
  180.7070  178.8190  138.8060 C   0  0  2  0  0  3  0  0  0  0  0  0
  181.7980  179.7030  138.2720 C   0  0  0  0  0  0  0  0  0  0  0  0
  181.5470  178.6920  141.2020 C   0  0  0  0  0  0  0  0  0  0  0  0
  183.6300  179.4960  139.9420 C   0  0  0  0  0  2  0  0  0  0  0  0
  180.5640  178.8760  140.3040 C   0  0  0  0  0  3  0  0  0  0  0  0
  180.7700  177.4210  138.2730 C   0  0  0  0  0  0  0  0  0  0  0  0
  181.7120  177.0750  137.2550 N   0  0  0  0  0  2  0  0  0  0  0  0
  179.9830  176.5520  138.7320 O   0  0  0  0  0  0  0  0  0  0  0  0
  181.7690  175.7510  136.6530 C   0  0  2  0  0  3  0  0  0  0  0  0
  182.8050  174.8980  137.3840 C   0  0  1  0  0  3  0  0  0  0  0  0
  183.6120  174.1540  136.4270 N   0  0  0  0  0  2  0  0  0  0  0  0
  183.7760  175.7720  138.1090 C   0  0  0  0  0  2  0  0  0  0  0  0
  184.9930  175.6940  137.2250 C   0  0  1  0  0  3  0  0  0  0  0  0
  184.6770  174.9340  136.0840 O   0  0  0  0  0  0  0  0  0  0  0  0
  185.4540  177.0320  136.8480 N   0  0  0  0  0  2  0  0  0  0  0  0
  186.8600  177.0620  136.8970 N   0  0  0  0  0  0  0  0  0  0  0  0
  187.3130  176.6840  135.6780 O   0  0  0  0  0  1  0  0  0  0  0  0
  187.2830  178.4440  137.1380 C   0  0  0  0  0  2  0  0  0  0  0  0
  188.3890  178.5110  138.0910 N   0  0  0  0  0  0  0  0  0  0  0  0
  188.0220  177.6650  139.2180 C   0  0  0  0  0  3  0  0  0  0  0  0
  188.3420  178.3790  140.5200 C   0  0  0  0  0  2  0  0  0  0  0  0
  186.9160  178.3280  140.0190 C   0  0  0  0  0  2  0  0  0  0  0  0
  189.5270  177.8760  137.4420 C   0  0  0  0  0  2  0  0  0  0  0  0
  190.0800  176.7650  138.3170 C   0  0  0  0  0  2  0  0  0  0  0  0
  190.8720  174.7910  138.0530 O   0  0  0  0  0  1  0  0  0  0  0  0
  189.8290  175.5240  137.7300 O   0  0  0  0  0  0  0  0  0  0  0  0
  182.1480  175.8790  135.1820 C   0  0  0  0  0  2  0  0  0  0  0  0
  181.1400  176.7370  134.4410 C   0  0  0  0  0  1  0  0  0  0  0  0
  183.7900  177.9140  141.8450 O   0  0  0  0  0  0  0  0  0  0  0  0
  184.5420  178.9780  142.3760 C   0  0  0  0  0  2  0  0  0  0  0  0
  185.0460  178.6230  143.7630 C   0  0  0  0  0  2  0  0  0  0  0  0
  186.5350  178.8960  143.8700 C   0  0  0  0  0  2  0  0  0  0  0  0
  186.6760  176.9670  145.7210 O   0  0  0  0  0  0  0  0  0  0  0  0
  187.3730  177.4490  144.4800 S   0  0  0  0  0  0  0  0  0  0  0  0
  187.3420  176.3690  143.4350 O   0  0  0  0  0  0  0  0  0  0  0  0
  189.0170  177.8540  144.8390 N   0  0  0  0  0  2  0  0  0  0  0  0
  191.2270  177.7530  143.7060 C   0  0  0  0  0  0  0  0  0  0  0  0
  191.8110  177.4700  142.3340 C   0  0  0  0  0  1  0  0  0  0  0  0
  191.1280  176.5790  144.6710 C   0  0  2  0  0  0  0  0  0  0  0  0
  191.5900  175.3540  144.1830 O   0  0  0  0  0  1  0  0  0  0  0  0
  191.4340  179.1470  144.2880 C   0  0  0  0  0  1  0  0  0  0  0  0
  189.8700  177.0750  143.9480 C   0  0  1  0  0  3  0  0  0  0  0  0
  191.2700  176.8370  146.1750 C   0  0  2  0  0  3  0  0  0  0  0  0
  192.4950  176.2090  148.1240 O   0  0  0  0  0  1  0  0  0  0  0  0
  192.3310  175.9260  146.7690 C   0  0  0  0  0  2  0  0  0  0  0  0
  189.7830  177.6880  147.6370 O   0  0  0  0  0  1  0  0  0  0  0  0
  189.9970  176.6160  146.8400 N   0  0  0  0  0  2  0  0  0  0  0  0
  1  7  1  0  0  0  0
  1 33  1  1  0  0  0
  2  6  2  0  0  0  0
  3  8  1  0  0  0  0
  5 10  1  1  0  0  0
  5  9  1  0  0  0  0
  6  3  1  0  0  0  0
  6  5  1  0  0  0  0
  7  4  1  0  0  0  0
  8  1  1  0  0  0  0
  9  7  2  0  0  0  0
 10 12  2  0  0  0  0
 11 10  1  0  0  0  0
 13 31  1  6  0  0  0
 13 11  1  0  0  0  0
 14 13  1  6  0  0  0
 14 16  1  0  0  0  0
 15 14  1  0  0  0  0
 17 19  1  6  0  0  0
 17 16  1  0  0  0  0
 18 15  1  0  0  0  0
 18 17  1  0  0  0  0
 19 20  1  0  0  0  0
 20 22  1  0  0  0  0
 21 20  1  0  0  0  0
 22 23  1  0  0  0  0
 23 24  1  0  0  0  0
 24 26  1  0  0  0  0
 24 25  1  0  0  0  0
 26 25  1  0  0  0  0
 27 23  1  0  0  0  0
 27 28  1  0  0  0  0
 30 29  1  0  0  0  0
 30 28  1  0  0  0  0
 32 31  1  0  0  0  0
 33 34  1  0  0  0  0
 34 35  1  0  0  0  0
 35 36  1  0  0  0  0
 36 38  1  0  0  0  0
 38 40  1  0  0  0  0
 38 37  2  0  0  0  0
 39 38  2  0  0  0  0
 41 46  1  0  0  0  0
 41 45  1  0  0  0  0
 41 43  1  0  0  0  0
 42 41  1  0  0  0  0
 43 44  1  6  0  0  0
 43 47  1  0  0  0  0
 46 43  1  0  0  0  0
 46 40  1  1  0  0  0
 47 49  1  1  0  0  0
 47 51  1  0  0  0  0
 49 48  1  0  0  0  0
 51 50  1  0  0  0  0
M  END
>  <MODEL>
5

>  <REMARK>
 VINA RESULT:      -5.4      1.919      2.852
  Name = 
  22 active torsions:
  status: ('A' for Active; 'I' for Inactive)
    1  A    between atoms: C_2  and  C_14
    2  A    between atoms: C_2  and  N_21
    3  A    between atoms: C_2  and  C_40
    4  A    between atoms: C_3  and  C_28
    5  A    between atoms: C_5  and  N_23
    6  A    between atoms: O_7  and  C_8
    7  A    between atoms: O_7  and  C_19
    8  A    between atoms: O_11  and  C_37
    9  A    between atoms: C_12  and  C_24
   10  A    between atoms: C_12  and  S_36
   11  A    between atoms: C_15  and  C_42
   12  A    between atoms: C_18  and  N_23
   13  A    between atoms: C_18  and  N_31
   14  A    between atoms: C_19  and  C_24
   15  A    between atoms: N_20  and  N_31
   16  A    between atoms: N_20  and  C_38
   17  A    between atoms: N_23  and  C_27
   18  A    between atoms: C_27  and  C_37
   19  A    between atoms: C_29  and  C_42
   20  A    between atoms: N_35  and  C_42
   21  A    between atoms: S_36  and  N_44
   22  A    between atoms: N_44  and  C_51
                            x       y       z     vdW  Elec       q    Type
                         _______ _______ _______ _____ _____    ______ ____

>  <TORSDO>
F 22

$$$$
=
 OpenBabel10232408553D

 51 54  0  0  1  0  0  0  0  0999 V2000
  183.0160  178.4410  141.2080 C   0  0  1  0  0  3  0  0  0  0  0  0
  181.4580  180.8180  138.1780 O   0  0  0  0  0  0  0  0  0  0  0  0
  183.1630  179.3550  138.8620 C   0  0  0  0  0  2  0  0  0  0  0  0
  181.3110  178.9440  143.4410 Cl  0  0  0  0  0  0  0  0  0  0  0  0
  180.6340  178.9740  139.3870 C   0  0  2  0  0  3  0  0  0  0  0  0
  181.7330  179.7800  138.7570 C   0  0  0  0  0  0  0  0  0  0  0  0
  181.6410  178.8340  141.7170 C   0  0  0  0  0  0  0  0  0  0  0  0
  183.6690  179.4880  140.2910 C   0  0  0  0  0  2  0  0  0  0  0  0
  180.6070  179.0630  140.8910 C   0  0  0  0  0  3  0  0  0  0  0  0
  180.5730  177.5650  138.8800 C   0  0  0  0  0  0  0  0  0  0  0  0
  181.1070  177.2340  137.5970 N   0  0  0  0  0  2  0  0  0  0  0  0
  180.0450  176.6760  139.5990 O   0  0  0  0  0  0  0  0  0  0  0  0
  181.0130  175.8970  137.0270 C   0  0  2  0  0  3  0  0  0  0  0  0
  181.6460  174.8860  137.9810 C   0  0  1  0  0  3  0  0  0  0  0  0
  181.8130  173.6020  137.3150 N   0  0  0  0  0  2  0  0  0  0  0  0
  183.0310  175.3130  138.3430 C   0  0  0  0  0  2  0  0  0  0  0  0
  183.8770  174.3870  137.5120 C   0  0  1  0  0  3  0  0  0  0  0  0
  183.0330  173.6030  136.7040 O   0  0  0  0  0  0  0  0  0  0  0  0
  184.8290  175.1400  136.6920 N   0  0  0  0  0  2  0  0  0  0  0  0
  186.1140  175.0160  137.2540 N   0  0  0  0  0  0  0  0  0  0  0  0
  186.2850  173.7130  137.5830 O   0  0  0  0  0  1  0  0  0  0  0  0
  187.1000  175.3660  136.2300 C   0  0  0  0  0  2  0  0  0  0  0  0
  188.4050  175.6660  136.8180 N   0  0  0  0  0  0  0  0  0  0  0  0
  189.3810  174.8500  136.1090 C   0  0  0  0  0  3  0  0  0  0  0  0
  190.6290  174.6910  136.9600 C   0  0  0  0  0  2  0  0  0  0  0  0
  189.6270  173.5630  136.8760 C   0  0  0  0  0  2  0  0  0  0  0  0
  188.6950  177.0530  136.4820 C   0  0  0  0  0  2  0  0  0  0  0  0
  188.3860  177.9570  137.6630 C   0  0  0  0  0  2  0  0  0  0  0  0
  186.4050  178.3820  138.3630 O   0  0  0  0  0  1  0  0  0  0  0  0
  187.2410  178.7100  137.4010 O   0  0  0  0  0  0  0  0  0  0  0  0
  181.7340  175.8680  135.6840 C   0  0  0  0  0  2  0  0  0  0  0  0
  182.3670  177.2140  135.3860 C   0  0  0  0  0  1  0  0  0  0  0  0
  183.8750  177.9310  142.2100 O   0  0  0  0  0  0  0  0  0  0  0  0
  184.3500  178.9920  143.0040 C   0  0  0  0  0  2  0  0  0  0  0  0
  184.7420  178.4830  144.3790 C   0  0  0  0  0  2  0  0  0  0  0  0
  186.1700  178.8780  144.7010 C   0  0  0  0  0  2  0  0  0  0  0  0
  187.0180  176.3790  144.2530 O   0  0  0  0  0  0  0  0  0  0  0  0
  187.3030  177.7990  143.8530 S   0  0  0  0  0  0  0  0  0  0  0  0
  187.1280  177.9480  142.3680 O   0  0  0  0  0  0  0  0  0  0  0  0
  188.9250  178.2250  144.2860 N   0  0  0  0  0  2  0  0  0  0  0  0
  191.2700  177.7920  143.5860 C   0  0  0  0  0  0  0  0  0  0  0  0
  192.0450  177.3240  142.3680 C   0  0  0  0  0  1  0  0  0  0  0  0
  190.8680  176.7300  144.6010 C   0  0  2  0  0  0  0  0  0  0  0  0
  191.2610  175.4240  144.2970 O   0  0  0  0  0  1  0  0  0  0  0  0
  191.5350  179.2060  144.0910 C   0  0  0  0  0  1  0  0  0  0  0  0
  189.8210  177.2830  143.6260 C   0  0  1  0  0  3  0  0  0  0  0  0
  190.7770  177.1120  146.0820 C   0  0  2  0  0  3  0  0  0  0  0  0
  191.6150  175.4550  147.5800 O   0  0  0  0  0  1  0  0  0  0  0  0
  191.9810  176.5780  146.8390 C   0  0  0  0  0  2  0  0  0  0  0  0
  188.9020  177.6290  147.2170 O   0  0  0  0  0  1  0  0  0  0  0  0
  189.5530  176.5830  146.6580 N   0  0  0  0  0  2  0  0  0  0  0  0
  1  7  1  0  0  0  0
  1 33  1  1  0  0  0
  2  6  2  0  0  0  0
  3  8  1  0  0  0  0
  5 10  1  1  0  0  0
  5  9  1  0  0  0  0
  6  3  1  0  0  0  0
  6  5  1  0  0  0  0
  7  4  1  0  0  0  0
  8  1  1  0  0  0  0
  9  7  2  0  0  0  0
 10 12  2  0  0  0  0
 11 10  1  0  0  0  0
 13 31  1  6  0  0  0
 13 11  1  0  0  0  0
 14 13  1  6  0  0  0
 14 16  1  0  0  0  0
 15 14  1  0  0  0  0
 17 19  1  6  0  0  0
 17 16  1  0  0  0  0
 18 15  1  0  0  0  0
 18 17  1  0  0  0  0
 19 20  1  0  0  0  0
 20 21  1  0  0  0  0
 22 23  1  0  0  0  0
 22 20  1  0  0  0  0
 24 23  1  0  0  0  0
 24 26  1  0  0  0  0
 24 25  1  0  0  0  0
 26 25  1  0  0  0  0
 27 23  1  0  0  0  0
 27 28  1  0  0  0  0
 30 28  1  0  0  0  0
 30 29  1  0  0  0  0
 32 31  1  0  0  0  0
 33 34  1  0  0  0  0
 34 35  1  0  0  0  0
 35 36  1  0  0  0  0
 38 37  2  0  0  0  0
 38 40  1  0  0  0  0
 38 36  1  0  0  0  0
 39 38  2  0  0  0  0
 41 46  1  0  0  0  0
 41 45  1  0  0  0  0
 41 43  1  0  0  0  0
 42 41  1  0  0  0  0
 43 44  1  6  0  0  0
 43 47  1  0  0  0  0
 46 40  1  1  0  0  0
 46 43  1  0  0  0  0
 47 51  1  0  0  0  0
 47 49  1  1  0  0  0
 49 48  1  0  0  0  0
 51 50  1  0  0  0  0
M  END
>  <MODEL>
6

>  <REMARK>
 VINA RESULT:      -4.9      2.149      3.139
  Name = 
  22 active torsions:
  status: ('A' for Active; 'I' for Inactive)
    1  A    between atoms: C_2  and  C_14
    2  A    between atoms: C_2  and  N_21
    3  A    between atoms: C_2  and  C_40
    4  A    between atoms: C_3  and  C_28
    5  A    between atoms: C_5  and  N_23
    6  A    between atoms: O_7  and  C_8
    7  A    between atoms: O_7  and  C_19
    8  A    between atoms: O_11  and  C_37
    9  A    between atoms: C_12  and  C_24
   10  A    between atoms: C_12  and  S_36
   11  A    between atoms: C_15  and  C_42
   12  A    between atoms: C_18  and  N_23
   13  A    between atoms: C_18  and  N_31
   14  A    between atoms: C_19  and  C_24
   15  A    between atoms: N_20  and  N_31
   16  A    between atoms: N_20  and  C_38
   17  A    between atoms: N_23  and  C_27
   18  A    between atoms: C_27  and  C_37
   19  A    between atoms: C_29  and  C_42
   20  A    between atoms: N_35  and  C_42
   21  A    between atoms: S_36  and  N_44
   22  A    between atoms: N_44  and  C_51
                            x       y       z     vdW  Elec       q    Type
                         _______ _______ _______ _____ _____    ______ ____

>  <TORSDO>
F 22

$$$$
=
 OpenBabel10232408553D

 51 54  0  0  1  0  0  0  0  0999 V2000
  189.3560  177.9860  144.3480 C   0  0  1  0  0  3  0  0  0  0  0  0
  192.0350  174.9680  143.3590 O   0  0  0  0  0  0  0  0  0  0  0  0
  189.8250  175.5480  143.9050 C   0  0  0  0  0  2  0  0  0  0  0  0
  190.9830  180.3200  144.5790 Cl  0  0  0  0  0  0  0  0  0  0  0  0
  191.3230  176.9330  142.2750 C   0  0  2  0  0  3  0  0  0  0  0  0
  191.1180  175.7540  143.1820 C   0  0  0  0  0  0  0  0  0  0  0  0
  190.6110  178.7290  143.9270 C   0  0  0  0  0  0  0  0  0  0  0  0
  189.6230  176.6090  144.9770 C   0  0  0  0  0  2  0  0  0  0  0  0
  191.4620  178.2410  143.0100 C   0  0  0  0  0  3  0  0  0  0  0  0
  190.3330  176.9910  141.1520 C   0  0  0  0  0  0  0  0  0  0  0  0
  190.6180  176.3610  139.9010 N   0  0  0  0  0  2  0  0  0  0  0  0
  189.2440  177.6000  141.3240 O   0  0  0  0  0  0  0  0  0  0  0  0
  189.7230  176.4450  138.7560 C   0  0  2  0  0  3  0  0  0  0  0  0
  190.1890  175.4790  137.6680 C   0  0  1  0  0  3  0  0  0  0  0  0
  190.4830  176.2060  136.4410 N   0  0  0  0  0  2  0  0  0  0  0  0
  191.4840  174.8440  138.0590 C   0  0  0  0  0  2  0  0  0  0  0  0
  192.4730  175.5860  137.1990 C   0  0  1  0  0  3  0  0  0  0  0  0
  191.7920  176.5900  136.4880 O   0  0  0  0  0  0  0  0  0  0  0  0
  193.5470  176.1610  138.0120 N   0  0  0  0  0  2  0  0  0  0  0  0
  194.7620  175.5380  137.6700 N   0  0  0  0  0  0  0  0  0  0  0  0
  195.2490  174.9620  138.7950 O   0  0  0  0  0  1  0  0  0  0  0  0
  194.4800  174.4810  136.6960 C   0  0  0  0  0  2  0  0  0  0  0  0
  195.5910  173.5380  136.5870 N   0  0  0  0  0  0  0  0  0  0  0  0
  195.1130  172.4180  135.7890 C   0  0  0  0  0  3  0  0  0  0  0  0
  194.8730  171.2160  136.6860 C   0  0  0  0  0  2  0  0  0  0  0  0
  193.7030  172.0500  136.2150 C   0  0  0  0  0  2  0  0  0  0  0  0
  196.6180  174.2070  135.7980 C   0  0  0  0  0  2  0  0  0  0  0  0
  197.9780  174.0390  136.4530 C   0  0  0  0  0  2  0  0  0  0  0  0
  199.6600  175.0570  135.6000 O   0  0  0  0  0  1  0  0  0  0  0  0
  198.6670  175.2520  136.4400 O   0  0  0  0  0  0  0  0  0  0  0  0
  189.7220  177.8710  138.2190 C   0  0  0  0  0  2  0  0  0  0  0  0
  188.3070  178.3330  137.9250 C   0  0  0  0  0  1  0  0  0  0  0  0
  188.4310  178.7810  145.0650 O   0  0  0  0  0  0  0  0  0  0  0  0
  187.3890  177.9670  145.5480 C   0  0  0  0  0  2  0  0  0  0  0  0
  186.0430  178.5550  145.1660 C   0  0  0  0  0  2  0  0  0  0  0  0
  185.4490  177.7980  143.9940 C   0  0  0  0  0  2  0  0  0  0  0  0
  183.6670  179.7780  143.7210 O   0  0  0  0  0  0  0  0  0  0  0  0
  184.6040  178.9280  142.9090 S   0  0  0  0  0  0  0  0  0  0  0  0
  185.6050  179.8070  142.2150 O   0  0  0  0  0  0  0  0  0  0  0  0
  183.7160  178.0250  141.7280 N   0  0  0  0  0  2  0  0  0  0  0  0
  183.4420  177.7820  139.2700 C   0  0  0  0  0  0  0  0  0  0  0  0
  184.2430  177.9650  137.9940 C   0  0  0  0  0  1  0  0  0  0  0  0
  182.6000  178.9630  139.7330 C   0  0  2  0  0  0  0  0  0  0  0  0
  182.6560  180.1010  138.9230 O   0  0  0  0  0  1  0  0  0  0  0  0
  182.9540  176.3760  139.6030 C   0  0  0  0  0  1  0  0  0  0  0  0
  183.9300  178.6600  140.4320 C   0  0  1  0  0  3  0  0  0  0  0  0
  181.2900  178.6950  140.4810 C   0  0  2  0  0  3  0  0  0  0  0  0
  179.9930  177.2880  139.0560 O   0  0  0  0  0  1  0  0  0  0  0  0
  180.1320  178.6010  139.5020 C   0  0  0  0  0  2  0  0  0  0  0  0
  180.5960  179.1590  142.5730 O   0  0  0  0  0  1  0  0  0  0  0  0
  181.0410  179.7560  141.4430 N   0  0  0  0  0  2  0  0  0  0  0  0
  1  8  1  0  0  0  0
  1 33  1  1  0  0  0
  3  8  1  0  0  0  0
  5 10  1  6  0  0  0
  5  9  1  0  0  0  0
  5  6  1  0  0  0  0
  6  2  2  0  0  0  0
  6  3  1  0  0  0  0
  7  1  1  0  0  0  0
  7  4  1  0  0  0  0
  9  7  2  0  0  0  0
 10 12  2  0  0  0  0
 11 10  1  0  0  0  0
 13 31  1  6  0  0  0
 13 11  1  0  0  0  0
 14 16  1  0  0  0  0
 14 13  1  1  0  0  0
 15 18  1  0  0  0  0
 15 14  1  0  0  0  0
 17 19  1  1  0  0  0
 17 16  1  0  0  0  0
 18 17  1  0  0  0  0
 20 19  1  0  0  0  0
 20 21  1  0  0  0  0
 22 20  1  0  0  0  0
 23 22  1  0  0  0  0
 24 26  1  0  0  0  0
 24 23  1  0  0  0  0
 24 25  1  0  0  0  0
 26 25  1  0  0  0  0
 27 28  1  0  0  0  0
 27 23  1  0  0  0  0
 29 30  1  0  0  0  0
 30 28  1  0  0  0  0
 32 31  1  0  0  0  0
 33 34  1  0  0  0  0
 35 34  1  0  0  0  0
 36 35  1  0  0  0  0
 38 37  2  0  0  0  0
 38 36  1  0  0  0  0
 39 38  2  0  0  0  0
 40 38  1  0  0  0  0
 41 45  1  0  0  0  0
 41 43  1  0  0  0  0
 41 46  1  0  0  0  0
 42 41  1  0  0  0  0
 43 44  1  6  0  0  0
 43 46  1  0  0  0  0
 43 47  1  0  0  0  0
 46 40  1  1  0  0  0
 47 49  1  6  0  0  0
 47 51  1  0  0  0  0
 48 49  1  0  0  0  0
 51 50  1  0  0  0  0
M  END
>  <MODEL>
7

>  <REMARK>
 VINA RESULT:      -4.6      3.346      7.299
  Name = 
  22 active torsions:
  status: ('A' for Active; 'I' for Inactive)
    1  A    between atoms: C_2  and  C_14
    2  A    between atoms: C_2  and  N_21
    3  A    between atoms: C_2  and  C_40
    4  A    between atoms: C_3  and  C_28
    5  A    between atoms: C_5  and  N_23
    6  A    between atoms: O_7  and  C_8
    7  A    between atoms: O_7  and  C_19
    8  A    between atoms: O_11  and  C_37
    9  A    between atoms: C_12  and  C_24
   10  A    between atoms: C_12  and  S_36
   11  A    between atoms: C_15  and  C_42
   12  A    between atoms: C_18  and  N_23
   13  A    between atoms: C_18  and  N_31
   14  A    between atoms: C_19  and  C_24
   15  A    between atoms: N_20  and  N_31
   16  A    between atoms: N_20  and  C_38
   17  A    between atoms: N_23  and  C_27
   18  A    between atoms: C_27  and  C_37
   19  A    between atoms: C_29  and  C_42
   20  A    between atoms: N_35  and  C_42
   21  A    between atoms: S_36  and  N_44
   22  A    between atoms: N_44  and  C_51
                            x       y       z     vdW  Elec       q    Type
                         _______ _______ _______ _____ _____    ______ ____

>  <TORSDO>
F 22

$$$$
=
 OpenBabel10232408553D

 51 54  0  0  1  0  0  0  0  0999 V2000
  189.8390  177.9750  143.2030 C   0  0  1  0  0  3  0  0  0  0  0  0
  189.0130  177.2100  147.2020 O   0  0  0  0  0  0  0  0  0  0  0  0
  189.6140  178.7950  145.5770 C   0  0  0  0  0  2  0  0  0  0  0  0
  189.7520  175.4040  141.9650 Cl  0  0  0  0  0  0  0  0  0  0  0  0
  187.7790  176.9740  145.2110 C   0  0  2  0  0  3  0  0  0  0  0  0
  188.8070  177.6400  146.0790 C   0  0  0  0  0  0  0  0  0  0  0  0
  189.2810  176.5620  143.2020 C   0  0  0  0  0  0  0  0  0  0  0  0
  190.5850  178.3530  144.4930 C   0  0  0  0  0  2  0  0  0  0  0  0
  188.3730  176.1470  144.1000 C   0  0  0  0  0  3  0  0  0  0  0  0
  186.7100  177.9120  144.7400 C   0  0  0  0  0  0  0  0  0  0  0  0
  186.1970  177.8160  143.4100 N   0  0  0  0  0  2  0  0  0  0  0  0
  186.2680  178.7860  145.5310 O   0  0  0  0  0  0  0  0  0  0  0  0
  185.2090  178.7450  142.8790 C   0  0  2  0  0  3  0  0  0  0  0  0
  183.8370  178.0750  142.8500 C   0  0  1  0  0  3  0  0  0  0  0  0
  182.8080  179.0150  143.2710 N   0  0  0  0  0  2  0  0  0  0  0  0
  183.4700  177.7040  141.4510 C   0  0  0  0  0  2  0  0  0  0  0  0
  182.4640  178.7660  141.0940 C   0  0  1  0  0  3  0  0  0  0  0  0
  182.3700  179.6780  142.1620 O   0  0  0  0  0  0  0  0  0  0  0  0
  182.8390  179.4510  139.8560 N   0  0  0  0  0  2  0  0  0  0  0  0
  181.8530  179.2070  138.8820 N   0  0  0  0  0  0  0  0  0  0  0  0
  181.3410  180.4080  138.5190 O   0  0  0  0  0  1  0  0  0  0  0  0
  182.5000  178.6100  137.7110 C   0  0  0  0  0  2  0  0  0  0  0  0
  182.5850  177.1550  137.8260 N   0  0  0  0  0  0  0  0  0  0  0  0
  182.1740  176.6090  136.5410 C   0  0  0  0  0  3  0  0  0  0  0  0
  180.7420  176.1090  136.6310 C   0  0  0  0  0  2  0  0  0  0  0  0
  181.0360  177.4360  135.9720 C   0  0  0  0  0  2  0  0  0  0  0  0
  183.9980  176.8400  137.9840 C   0  0  0  0  0  2  0  0  0  0  0  0
  184.8040  177.4470  136.8480 C   0  0  0  0  0  2  0  0  0  0  0  0
  186.1870  178.7160  137.8820 O   0  0  0  0  0  1  0  0  0  0  0  0
  186.1400  177.5770  137.2260 O   0  0  0  0  0  0  0  0  0  0  0  0
  185.6130  179.1620  141.4690 C   0  0  0  0  0  2  0  0  0  0  0  0
  187.0560  178.7860  141.1910 C   0  0  0  0  0  1  0  0  0  0  0  0
  190.5210  178.3240  142.0140 O   0  0  0  0  0  0  0  0  0  0  0  0
  191.7640  177.6650  141.9760 C   0  0  0  0  0  2  0  0  0  0  0  0
  192.1550  177.3630  140.5410 C   0  0  0  0  0  2  0  0  0  0  0  0
  190.9730  177.5740  139.6160 C   0  0  0  0  0  2  0  0  0  0  0  0
  190.2580  175.2740  138.4480 O   0  0  0  0  0  0  0  0  0  0  0  0
  191.1050  176.4920  138.2080 S   0  0  0  0  0  0  0  0  0  0  0  0
  190.6230  177.2040  136.9760 O   0  0  0  0  0  0  0  0  0  0  0  0
  192.7610  176.0350  137.9980 N   0  0  0  0  0  2  0  0  0  0  0  0
  193.4130  174.4520  136.1950 C   0  0  0  0  0  0  0  0  0  0  0  0
  192.8350  173.2860  135.4160 C   0  0  0  0  0  1  0  0  0  0  0  0
  194.2210  174.1190  137.4420 C   0  0  2  0  0  0  0  0  0  0  0  0
  194.3440  172.7590  137.7380 O   0  0  0  0  0  1  0  0  0  0  0  0
  193.7810  175.7100  135.4160 C   0  0  0  0  0  1  0  0  0  0  0  0
  192.7850  174.6360  137.5850 C   0  0  1  0  0  3  0  0  0  0  0  0
  195.3830  175.0350  137.8440 C   0  0  2  0  0  3  0  0  0  0  0  0
  197.5160  175.6430  136.9650 O   0  0  0  0  0  1  0  0  0  0  0  0
  196.6760  174.5570  137.2080 C   0  0  0  0  0  2  0  0  0  0  0  0
  196.4790  174.1560  139.6050 O   0  0  0  0  0  1  0  0  0  0  0  0
  195.5200  175.0580  139.2910 N   0  0  0  0  0  2  0  0  0  0  0  0
  1 33  1  6  0  0  0
  1  8  1  0  0  0  0
  3  6  1  0  0  0  0
  4  7  1  0  0  0  0
  5 10  1  6  0  0  0
  5  6  1  0  0  0  0
  6  2  2  0  0  0  0
  7  1  1  0  0  0  0
  7  9  2  0  0  0  0
  8  3  1  0  0  0  0
  9  5  1  0  0  0  0
 10 12  2  0  0  0  0
 11 10  1  0  0  0  0
 13 31  1  6  0  0  0
 13 11  1  0  0  0  0
 14 13  1  6  0  0  0
 14 15  1  0  0  0  0
 16 14  1  0  0  0  0
 17 19  1  6  0  0  0
 17 16  1  0  0  0  0
 17 18  1  0  0  0  0
 18 15  1  0  0  0  0
 20 19  1  0  0  0  0
 21 20  1  0  0  0  0
 22 23  1  0  0  0  0
 22 20  1  0  0  0  0
 23 27  1  0  0  0  0
 24 25  1  0  0  0  0
 24 23  1  0  0  0  0
 26 24  1  0  0  0  0
 26 25  1  0  0  0  0
 28 30  1  0  0  0  0
 28 27  1  0  0  0  0
 30 29  1  0  0  0  0
 32 31  1  0  0  0  0
 34 33  1  0  0  0  0
 35 34  1  0  0  0  0
 36 35  1  0  0  0  0
 38 37  2  0  0  0  0
 38 36  1  0  0  0  0
 39 38  2  0  0  0  0
 40 38  1  0  0  0  0
 41 43  1  0  0  0  0
 41 46  1  0  0  0  0
 42 41  1  0  0  0  0
 43 46  1  0  0  0  0
 43 44  1  1  0  0  0
 43 47  1  0  0  0  0
 45 41  1  0  0  0  0
 46 40  1  1  0  0  0
 47 49  1  6  0  0  0
 47 51  1  0  0  0  0
 48 49  1  0  0  0  0
 51 50  1  0  0  0  0
M  END
>  <MODEL>
8

>  <REMARK>
 VINA RESULT:      -4.5      3.082      7.858
  Name = 
  22 active torsions:
  status: ('A' for Active; 'I' for Inactive)
    1  A    between atoms: C_2  and  C_14
    2  A    between atoms: C_2  and  N_21
    3  A    between atoms: C_2  and  C_40
    4  A    between atoms: C_3  and  C_28
    5  A    between atoms: C_5  and  N_23
    6  A    between atoms: O_7  and  C_8
    7  A    between atoms: O_7  and  C_19
    8  A    between atoms: O_11  and  C_37
    9  A    between atoms: C_12  and  C_24
   10  A    between atoms: C_12  and  S_36
   11  A    between atoms: C_15  and  C_42
   12  A    between atoms: C_18  and  N_23
   13  A    between atoms: C_18  and  N_31
   14  A    between atoms: C_19  and  C_24
   15  A    between atoms: N_20  and  N_31
   16  A    between atoms: N_20  and  C_38
   17  A    between atoms: N_23  and  C_27
   18  A    between atoms: C_27  and  C_37
   19  A    between atoms: C_29  and  C_42
   20  A    between atoms: N_35  and  C_42
   21  A    between atoms: S_36  and  N_44
   22  A    between atoms: N_44  and  C_51
                            x       y       z     vdW  Elec       q    Type
                         _______ _______ _______ _____ _____    ______ ____

>  <TORSDO>
F 22

$$$$
=
 OpenBabel10232408553D

 51 54  0  0  1  0  0  0  0  0999 V2000
  189.6740  177.6540  144.0470 C   0  0  1  0  0  3  0  0  0  0  0  0
  186.5460  177.3180  146.7600 O   0  0  0  0  0  0  0  0  0  0  0  0
  188.2460  178.6670  145.8620 C   0  0  0  0  0  2  0  0  0  0  0  0
  189.8910  175.0490  142.9010 Cl  0  0  0  0  0  0  0  0  0  0  0  0
  186.6950  177.1410  144.4170 C   0  0  2  0  0  3  0  0  0  0  0  0
  187.1150  177.6940  145.7490 C   0  0  0  0  0  0  0  0  0  0  0  0
  188.9920  176.3530  143.6650 C   0  0  0  0  0  0  0  0  0  0  0  0
  189.5750  177.9990  145.5420 C   0  0  0  0  0  2  0  0  0  0  0  0
  187.6750  176.1530  143.8390 C   0  0  0  0  0  3  0  0  0  0  0  0
  186.2840  178.2020  143.4430 C   0  0  0  0  0  0  0  0  0  0  0  0
  186.3160  177.9460  142.0370 N   0  0  0  0  0  2  0  0  0  0  0  0
  185.9100  179.3230  143.8760 O   0  0  0  0  0  0  0  0  0  0  0  0
  185.9950  178.9610  141.0450 C   0  0  2  0  0  3  0  0  0  0  0  0
  184.4810  179.0370  140.8590 C   0  0  1  0  0  3  0  0  0  0  0  0
  184.1540  179.8790  139.7160 N   0  0  0  0  0  2  0  0  0  0  0  0
  183.9330  177.6910  140.5130 C   0  0  0  0  0  2  0  0  0  0  0  0
  183.6720  177.8240  139.0360 C   0  0  1  0  0  3  0  0  0  0  0  0
  184.1270  179.0850  138.6070 O   0  0  0  0  0  0  0  0  0  0  0  0
  184.3310  176.7510  138.2880 N   0  0  0  0  0  2  0  0  0  0  0  0
  183.4230  175.6900  138.1150 N   0  0  0  0  0  0  0  0  0  0  0  0
  182.2230  176.2350  137.8040 O   0  0  0  0  0  1  0  0  0  0  0  0
  183.8700  174.8820  136.9780 C   0  0  0  0  0  2  0  0  0  0  0  0
  184.4370  173.6070  137.4120 N   0  0  0  0  0  0  0  0  0  0  0  0
  184.0850  172.6250  136.3970 C   0  0  0  0  0  3  0  0  0  0  0  0
  183.1020  171.6210  136.9740 C   0  0  0  0  0  2  0  0  0  0  0  0
  182.6060  172.7280  136.0740 C   0  0  0  0  0  2  0  0  0  0  0  0
  185.8840  173.7640  137.3600 C   0  0  0  0  0  2  0  0  0  0  0  0
  186.3970  173.4640  135.9630 C   0  0  0  0  0  2  0  0  0  0  0  0
  187.8020  172.4280  137.2060 O   0  0  0  0  0  1  0  0  0  0  0  0
  187.7110  173.0010  136.0260 O   0  0  0  0  0  0  0  0  0  0  0  0
  186.6630  178.6060  139.7220 C   0  0  0  0  0  2  0  0  0  0  0  0
  188.0540  178.0480  139.9560 C   0  0  0  0  0  1  0  0  0  0  0  0
  190.9710  177.8040  143.5020 O   0  0  0  0  0  0  0  0  0  0  0  0
  190.8720  178.0430  142.1180 C   0  0  0  0  0  2  0  0  0  0  0  0
  191.7250  177.0490  141.3520 C   0  0  0  0  0  2  0  0  0  0  0  0
  192.1980  177.6560  140.0450 C   0  0  0  0  0  2  0  0  0  0  0  0
  191.0030  175.4110  139.2100 O   0  0  0  0  0  0  0  0  0  0  0  0
  191.6220  176.6730  138.6780 S   0  0  0  0  0  0  0  0  0  0  0  0
  190.5970  177.4450  137.8960 O   0  0  0  0  0  0  0  0  0  0  0  0
  192.9610  176.2910  137.6490 N   0  0  0  0  0  2  0  0  0  0  0  0
  193.6940  174.4860  136.1060 C   0  0  0  0  0  0  0  0  0  0  0  0
  193.1190  173.2900  135.3690 C   0  0  0  0  0  1  0  0  0  0  0  0
  194.3080  174.2250  137.4750 C   0  0  2  0  0  0  0  0  0  0  0  0
  194.2750  172.8980  137.9100 O   0  0  0  0  0  1  0  0  0  0  0  0
  194.2630  175.6250  135.2670 C   0  0  0  0  0  1  0  0  0  0  0  0
  192.9150  174.8580  137.3760 C   0  0  1  0  0  3  0  0  0  0  0  0
  195.4850  175.0900  137.9390 C   0  0  2  0  0  3  0  0  0  0  0  0
  197.5970  175.5490  136.9290 O   0  0  0  0  0  1  0  0  0  0  0  0
  196.7950  174.5210  137.4220 C   0  0  0  0  0  2  0  0  0  0  0  0
  196.4530  174.2750  139.8030 O   0  0  0  0  0  1  0  0  0  0  0  0
  195.5110  175.1560  139.3910 N   0  0  0  0  0  2  0  0  0  0  0  0
  1 33  1  1  0  0  0
  1  8  1  0  0  0  0
  4  7  1  0  0  0  0
  5 10  1  6  0  0  0
  5  6  1  0  0  0  0
  6  3  1  0  0  0  0
  6  2  2  0  0  0  0
  7  9  2  0  0  0  0
  7  1  1  0  0  0  0
  8  3  1  0  0  0  0
  9  5  1  0  0  0  0
 10 12  2  0  0  0  0
 11 10  1  0  0  0  0
 13 31  1  6  0  0  0
 13 11  1  0  0  0  0
 14 13  1  6  0  0  0
 15 14  1  0  0  0  0
 16 14  1  0  0  0  0
 17 19  1  6  0  0  0
 17 16  1  0  0  0  0
 18 17  1  0  0  0  0
 18 15  1  0  0  0  0
 20 19  1  0  0  0  0
 21 20  1  0  0  0  0
 22 23  1  0  0  0  0
 22 20  1  0  0  0  0
 24 25  1  0  0  0  0
 24 23  1  0  0  0  0
 26 24  1  0  0  0  0
 26 25  1  0  0  0  0
 27 23  1  0  0  0  0
 28 30  1  0  0  0  0
 28 27  1  0  0  0  0
 30 29  1  0  0  0  0
 31 32  1  0  0  0  0
 34 33  1  0  0  0  0
 35 34  1  0  0  0  0
 36 35  1  0  0  0  0
 38 37  2  0  0  0  0
 38 36  1  0  0  0  0
 39 38  2  0  0  0  0
 40 38  1  0  0  0  0
 41 46  1  0  0  0  0
 41 43  1  0  0  0  0
 42 41  1  0  0  0  0
 43 44  1  1  0  0  0
 43 47  1  0  0  0  0
 45 41  1  0  0  0  0
 46 43  1  0  0  0  0
 46 40  1  6  0  0  0
 47 49  1  1  0  0  0
 47 51  1  0  0  0  0
 48 49  1  0  0  0  0
 51 50  1  0  0  0  0
M  END
>  <MODEL>
9

>  <REMARK>
 VINA RESULT:      -4.4      3.195      7.179
  Name = 
  22 active torsions:
  status: ('A' for Active; 'I' for Inactive)
    1  A    between atoms: C_2  and  C_14
    2  A    between atoms: C_2  and  N_21
    3  A    between atoms: C_2  and  C_40
    4  A    between atoms: C_3  and  C_28
    5  A    between atoms: C_5  and  N_23
    6  A    between atoms: O_7  and  C_8
    7  A    between atoms: O_7  and  C_19
    8  A    between atoms: O_11  and  C_37
    9  A    between atoms: C_12  and  C_24
   10  A    between atoms: C_12  and  S_36
   11  A    between atoms: C_15  and  C_42
   12  A    between atoms: C_18  and  N_23
   13  A    between atoms: C_18  and  N_31
   14  A    between atoms: C_19  and  C_24
   15  A    between atoms: N_20  and  N_31
   16  A    between atoms: N_20  and  C_38
   17  A    between atoms: N_23  and  C_27
   18  A    between atoms: C_27  and  C_37
   19  A    between atoms: C_29  and  C_42
   20  A    between atoms: N_35  and  C_42
   21  A    between atoms: S_36  and  N_44
   22  A    between atoms: N_44  and  C_51
                            x       y       z     vdW  Elec       q    Type
                         _______ _______ _______ _____ _____    ______ ____

>  <TORSDO>
F 22

$$$$
