=
 OpenBabel10232409143D

 57 63  0  0  1  0  0  0  0  0999 V2000
  185.9900  178.8540  146.3080 C   0  0  0  0  0  0  0  0  0  0  0  0
  186.4830  177.9340  144.1050 C   0  0  0  0  0  0  0  0  0  0  0  0
  186.8980  178.3150  145.3860 C   0  0  0  0  0  3  0  0  0  0  0  0
  182.6360  179.0600  142.8050 C   0  0  0  0  0  3  0  0  0  0  0  0
  184.2220  178.6480  144.6580 C   0  0  0  0  0  0  0  0  0  0  0  0
  184.6260  177.6590  142.3800 C   0  0  0  0  0  2  0  0  0  0  0  0
  185.1320  178.0970  143.7360 C   0  0  0  0  0  0  0  0  0  0  0  0
  182.7820  178.8080  144.2810 C   0  0  0  0  0  2  0  0  0  0  0  0
  184.6500  179.0170  145.9340 C   0  0  0  0  0  3  0  0  0  0  0  0
  183.4750  178.5190  141.9080 C   0  0  0  0  0  0  0  0  0  0  0  0
  188.3130  176.3700  143.5610 C   0  0  0  0  0  3  0  0  0  0  0  0
  187.4930  177.4280  143.1600 C   0  0  0  0  0  0  0  0  0  0  0  0
  190.1150  174.8830  143.1400 F   0  0  0  0  0  0  0  0  0  0  0  0
  186.8590  179.2070  141.4930 C   0  0  0  0  0  1  0  0  0  0  0  0
  189.3140  175.8930  142.7180 C   0  0  0  0  0  0  0  0  0  0  0  0
  188.7130  177.5560  141.0460 C   0  0  0  0  0  0  0  0  0  0  0  0
  187.6890  178.0290  141.8970 C   0  0  0  0  0  0  0  0  0  0  0  0
  189.5220  176.4810  141.4690 C   0  0  0  0  0  0  0  0  0  0  0  0
  190.5200  176.0090  140.6790 F   0  0  0  0  0  0  0  0  0  0  0  0
  187.7310  178.3790  138.8570 C   0  0  0  0  0  1  0  0  0  0  0  0
  188.9690  178.2590  139.7320 C   0  0  2  0  0  3  0  0  0  0  0  0
  190.0760  177.2960  137.7280 C   0  0  0  0  0  3  0  0  0  0  0  0
  190.1520  177.6970  138.9980 C   0  0  0  0  0  3  0  0  0  0  0  0
  191.2710  176.7260  137.0450 C   0  0  0  0  0  2  0  0  0  0  0  0
  192.1240  175.9660  138.0490 C   0  0  2  0  0  3  0  0  0  0  0  0
  193.5950  176.3400  137.8840 C   0  0  1  0  0  3  0  0  0  0  0  0
  194.3950  175.2390  138.1910 O   0  0  0  0  0  1  0  0  0  0  0  0
  194.8210  175.8440  136.1060 C   0  0  0  0  0  1  0  0  0  0  0  0
  193.8420  176.7280  136.5640 O   0  0  0  0  0  0  0  0  0  0  0  0
  191.9430  174.5340  137.8480 N   0  0  0  0  0  2  0  0  0  0  0  0
  190.1180  173.5750  136.8560 C   0  0  0  0  0  1  0  0  0  0  0  0
  192.1280  173.6050  135.8470 O   0  0  0  0  0  1  0  0  0  0  0  0
  191.3080  174.3680  136.6090 N   0  0  0  0  0  0  0  0  0  0  0  0
  187.4030  178.4690  148.3530 N   0  0  0  0  0  1  0  0  0  0  0  0
  185.9730  180.2850  148.2000 O   0  0  0  0  0  0  0  0  0  0  0  0
  186.4410  179.2510  147.6520 C   0  0  0  0  0  0  0  0  0  0  0  0
  184.3590  179.1610  139.6660 C   0  0  0  0  0  1  0  0  0  0  0  0
  183.2530  178.7100  140.4990 N   0  0  0  0  0  0  0  0  0  0  0  0
  181.4660  176.1870  136.5290 C   0  0  0  0  0  0  0  0  0  0  0  0
  181.5120  178.2210  137.5600 C   0  0  0  0  0  0  0  0  0  0  0  0
  181.0000  177.3130  135.3220 S   0  0  0  0  0  0  0  0  0  0  0  0
  181.1150  178.6650  136.3320 C   0  0  0  0  0  0  0  0  0  0  0  0
  181.6450  179.0150  138.6490 C   0  0  0  0  0  0  0  0  0  0  0  0
  181.3720  180.3870  138.5170 C   0  0  0  0  0  3  0  0  0  0  0  0
  182.0120  178.2290  139.8810 C   0  0  1  0  0  3  0  0  0  0  0  0
  180.9820  180.8880  137.2450 C   0  0  0  0  0  0  0  0  0  0  0  0
  180.8370  180.0190  136.1310 C   0  0  0  0  0  3  0  0  0  0  0  0
  180.6970  182.3370  137.0860 C   0  0  0  0  0  1  0  0  0  0  0  0
  181.7150  176.8960  137.7060 C   0  0  0  0  0  0  0  0  0  0  0  0
  182.1830  176.4390  139.3670 S   0  0  0  0  0  0  0  0  0  0  0  0
  180.5660  174.0330  135.5310 C   0  0  0  0  0  3  0  0  0  0  0  0
  181.4920  174.7630  136.3700 N   0  0  0  0  0  0  0  0  0  0  0  0
  181.7470  172.5000  136.8710 C   0  0  2  0  0  3  0  0  0  0  0  0
  180.7960  172.6070  135.7620 N   0  0  0  0  0  0  0  0  0  0  0  0
  182.2990  173.8800  137.1720 C   0  0  0  0  0  2  0  0  0  0  0  0
  184.2400  172.0510  136.8780 C   0  0  0  0  0  1  0  0  0  0  0  0
  182.8580  171.5030  136.5500 C   0  0  0  0  0  2  0  0  0  0  0  0
  1 36  1  0  0  0  0
  2  3  1  0  0  0  0
  3  1  2  0  0  0  0
  4  8  1  0  0  0  0
  5  9  2  0  0  0  0
  6  7  1  0  0  0  0
  7  2  2  0  0  0  0
  7  5  1  0  0  0  0
  8  5  1  0  0  0  0
  9  1  1  0  0  0  0
 10  6  1  0  0  0  0
 10  4  2  0  0  0  0
 12 11  1  0  0  0  0
 12  2  1  0  0  0  0
 14 17  1  0  0  0  0
 15 13  1  0  0  0  0
 15 11  2  0  0  0  0
 16 18  2  0  0  0  0
 16 17  1  0  0  0  0
 17 12  2  0  0  0  0
 18 15  1  0  0  0  0
 19 18  1  0  0  0  0
 21 20  1  6  0  0  0
 21 16  1  0  0  0  0
 22 23  2  0  0  0  0
 23 21  1  0  0  0  0
 24 22  1  0  0  0  0
 25 24  1  6  0  0  0
 26 25  1  0  0  0  0
 26 27  1  6  0  0  0
 28 29  1  0  0  0  0
 29 26  1  0  0  0  0
 30 25  1  0  0  0  0
 32 33  1  0  0  0  0
 33 31  1  0  0  0  0
 33 30  1  0  0  0  0
 36 35  2  0  0  0  0
 36 34  1  0  0  0  0
 37 38  1  0  0  0  0
 38 10  1  0  0  0  0
 39 49  2  0  0  0  0
 40 49  1  0  0  0  0
 40 43  1  0  0  0  0
 41 42  1  0  0  0  0
 41 39  1  0  0  0  0
 42 40  2  0  0  0  0
 43 45  1  0  0  0  0
 44 43  2  0  0  0  0
 45 38  1  6  0  0  0
 46 44  1  0  0  0  0
 47 42  1  0  0  0  0
 47 46  2  0  0  0  0
 48 46  1  0  0  0  0
 49 50  1  0  0  0  0
 50 45  1  0  0  0  0
 51 54  2  0  0  0  0
 51 52  1  0  0  0  0
 52 39  1  0  0  0  0
 52 55  1  0  0  0  0
 53 57  1  6  0  0  0
 53 55  1  0  0  0  0
 54 53  1  0  0  0  0
 57 56  1  0  0  0  0
M  END
>  <MODEL>
1

>  <REMARK>
 VINA RESULT:      -9.0      0.000      0.000
  Name = 
  14 active torsions:
  status: ('A' for Active; 'I' for Inactive)
    1  A    between atoms: C_1  and  N_15
    2  A    between atoms: C_3  and  C_17
    3  A    between atoms: C_7  and  C_9
    4  A    between atoms: O_8  and  C_40
    5  A    between atoms: C_20  and  C_57
    6  A    between atoms: N_25  and  C_44
    7  A    between atoms: N_25  and  C_54
    8  A    between atoms: C_26  and  C_33
    9  A    between atoms: C_28  and  C_50
   10  A    between atoms: C_34  and  C_50
   11  A    between atoms: N_39  and  N_52
   12  A    between atoms: C_40  and  C_48
   13  A    between atoms: C_48  and  N_52
   14  A    between atoms: C_48  and  C_57
                            x       y       z     vdW  Elec       q    Type
                         _______ _______ _______ _____ _____    ______ ____

>  <TORSDO>
F 14

$$$$
=
 OpenBabel10232409143D

 57 63  0  0  1  0  0  0  0  0999 V2000
  190.8520  177.3240  139.2580 C   0  0  0  0  0  0  0  0  0  0  0  0
  188.5090  177.7060  139.8110 C   0  0  0  0  0  0  0  0  0  0  0  0
  189.8490  177.5910  140.2000 C   0  0  0  0  0  3  0  0  0  0  0  0
  187.4270  176.5550  135.9050 C   0  0  0  0  0  3  0  0  0  0  0  0
  189.1690  177.2680  137.5100 C   0  0  0  0  0  0  0  0  0  0  0  0
  186.7370  177.7070  137.9790 C   0  0  0  0  0  2  0  0  0  0  0  0
  188.1640  177.5480  138.4540 C   0  0  0  0  0  0  0  0  0  0  0  0
  188.8140  177.1160  136.0630 C   0  0  0  0  0  2  0  0  0  0  0  0
  190.5020  177.1630  137.9110 C   0  0  0  0  0  3  0  0  0  0  0  0
  186.4470  176.8350  136.7780 C   0  0  0  0  0  0  0  0  0  0  0  0
  186.4060  178.7600  140.5590 C   0  0  0  0  0  3  0  0  0  0  0  0
  187.4920  177.9310  140.8530 C   0  0  0  0  0  0  0  0  0  0  0  0
  184.4160  179.8690  141.2300 F   0  0  0  0  0  0  0  0  0  0  0  0
  188.8260  176.5530  142.4860 C   0  0  0  0  0  1  0  0  0  0  0  0
  185.4470  179.0400  141.5300 C   0  0  0  0  0  0  0  0  0  0  0  0
  186.6650  177.6780  143.1390 C   0  0  0  0  0  0  0  0  0  0  0  0
  187.6280  177.3850  142.1480 C   0  0  0  0  0  0  0  0  0  0  0  0
  185.5720  178.5100  142.8160 C   0  0  0  0  0  0  0  0  0  0  0  0
  184.6340  178.8180  143.7470 F   0  0  0  0  0  0  0  0  0  0  0  0
  185.7340  177.5280  145.4940 C   0  0  0  0  0  1  0  0  0  0  0  0
  186.8630  177.1570  144.5440 C   0  0  2  0  0  3  0  0  0  0  0  0
  188.4540  177.5780  146.4040 C   0  0  0  0  0  3  0  0  0  0  0  0
  188.2210  177.4850  145.0950 C   0  0  0  0  0  3  0  0  0  0  0  0
  189.8140  177.9250  146.9060 C   0  0  0  0  0  2  0  0  0  0  0  0
  190.8550  177.0720  146.1980 C   0  0  2  0  0  3  0  0  0  0  0  0
  191.3930  176.0000  147.1430 C   0  0  1  0  0  3  0  0  0  0  0  0
  192.2630  175.1590  146.4490 O   0  0  0  0  0  1  0  0  0  0  0  0
  193.0990  175.6980  148.5240 C   0  0  0  0  0  1  0  0  0  0  0  0
  192.0850  176.6010  148.1990 O   0  0  0  0  0  0  0  0  0  0  0  0
  191.9420  177.9260  145.7340 N   0  0  0  0  0  2  0  0  0  0  0  0
  191.0890  178.9540  143.8770 C   0  0  0  0  0  1  0  0  0  0  0  0
  191.3160  176.7200  143.9870 O   0  0  0  0  0  1  0  0  0  0  0  0
  191.9400  177.8710  144.3330 N   0  0  0  0  0  0  0  0  0  0  0  0
  193.2310  176.6440  138.8040 N   0  0  0  0  0  1  0  0  0  0  0  0
  192.6120  177.5910  140.8260 O   0  0  0  0  0  0  0  0  0  0  0  0
  192.2570  177.2050  139.6810 C   0  0  0  0  0  0  0  0  0  0  0  0
  184.3910  176.8120  135.3660 C   0  0  0  0  0  1  0  0  0  0  0  0
  185.1100  176.3530  136.5470 N   0  0  0  0  0  0  0  0  0  0  0  0
  181.4650  172.8880  136.6840 C   0  0  0  0  0  0  0  0  0  0  0  0
  182.2880  174.7490  137.7150 C   0  0  0  0  0  0  0  0  0  0  0  0
  180.1670  173.4880  137.6330 S   0  0  0  0  0  0  0  0  0  0  0  0
  181.0350  174.8010  138.2530 C   0  0  0  0  0  0  0  0  0  0  0  0
  183.2890  175.6040  138.0360 C   0  0  0  0  0  0  0  0  0  0  0  0
  183.0300  176.6190  138.9710 C   0  0  0  0  0  3  0  0  0  0  0  0
  184.5800  175.2450  137.3490 C   0  0  1  0  0  3  0  0  0  0  0  0
  181.7270  176.7190  139.5320 C   0  0  0  0  0  0  0  0  0  0  0  0
  180.7100  175.7920  139.1820 C   0  0  0  0  0  3  0  0  0  0  0  0
  181.4340  177.7920  140.5160 C   0  0  0  0  0  1  0  0  0  0  0  0
  182.5580  173.7380  136.8640 C   0  0  0  0  0  0  0  0  0  0  0  0
  184.2410  173.7550  136.2700 S   0  0  0  0  0  0  0  0  0  0  0  0
  180.3290  171.2550  135.1080 C   0  0  0  0  0  3  0  0  0  0  0  0
  181.4470  171.6720  135.9270 N   0  0  0  0  0  0  0  0  0  0  0  0
  181.8250  169.4510  135.3260 C   0  0  2  0  0  3  0  0  0  0  0  0
  180.6110  169.8990  134.6390 N   0  0  0  0  0  0  0  0  0  0  0  0
  182.4380  170.6350  136.0470 C   0  0  0  0  0  2  0  0  0  0  0  0
  184.2560  169.1430  134.6840 C   0  0  0  0  0  1  0  0  0  0  0  0
  182.8080  168.8120  134.3480 C   0  0  0  0  0  2  0  0  0  0  0  0
  1 36  1  0  0  0  0
  1  3  1  0  0  0  0
  2  3  2  0  0  0  0
  2 12  1  0  0  0  0
  4  8  1  0  0  0  0
  4 10  2  0  0  0  0
  5  9  1  0  0  0  0
  5  7  2  0  0  0  0
  6  7  1  0  0  0  0
  7  2  1  0  0  0  0
  8  5  1  0  0  0  0
  9  1  2  0  0  0  0
 10  6  1  0  0  0  0
 11 12  2  0  0  0  0
 11 15  1  0  0  0  0
 12 17  1  0  0  0  0
 13 15  1  0  0  0  0
 15 18  2  0  0  0  0
 16 21  1  0  0  0  0
 17 14  1  0  0  0  0
 17 16  2  0  0  0  0
 18 16  1  0  0  0  0
 18 19  1  0  0  0  0
 21 23  1  0  0  0  0
 21 20  1  1  0  0  0
 22 24  1  0  0  0  0
 23 22  2  0  0  0  0
 25 24  1  1  0  0  0
 25 26  1  0  0  0  0
 26 27  1  6  0  0  0
 26 29  1  0  0  0  0
 29 28  1  0  0  0  0
 30 25  1  0  0  0  0
 31 33  1  0  0  0  0
 32 33  1  0  0  0  0
 33 30  1  0  0  0  0
 34 36  1  0  0  0  0
 36 35  2  0  0  0  0
 37 38  1  0  0  0  0
 38 10  1  0  0  0  0
 39 49  2  0  0  0  0
 39 41  1  0  0  0  0
 40 43  2  0  0  0  0
 40 42  1  0  0  0  0
 41 42  1  0  0  0  0
 42 47  2  0  0  0  0
 43 44  1  0  0  0  0
 44 46  2  0  0  0  0
 45 38  1  6  0  0  0
 45 43  1  0  0  0  0
 46 48  1  0  0  0  0
 47 46  1  0  0  0  0
 49 40  1  0  0  0  0
 50 49  1  0  0  0  0
 50 45  1  0  0  0  0
 51 52  1  0  0  0  0
 52 55  1  0  0  0  0
 52 39  1  0  0  0  0
 53 57  1  6  0  0  0
 53 55  1  0  0  0  0
 54 51  2  0  0  0  0
 54 53  1  0  0  0  0
 57 56  1  0  0  0  0
M  END
>  <MODEL>
2

>  <REMARK>
 VINA RESULT:      -8.7      3.378      6.782
  Name = 
  14 active torsions:
  status: ('A' for Active; 'I' for Inactive)
    1  A    between atoms: C_1  and  N_15
    2  A    between atoms: C_3  and  C_17
    3  A    between atoms: C_7  and  C_9
    4  A    between atoms: O_8  and  C_40
    5  A    between atoms: C_20  and  C_57
    6  A    between atoms: N_25  and  C_44
    7  A    between atoms: N_25  and  C_54
    8  A    between atoms: C_26  and  C_33
    9  A    between atoms: C_28  and  C_50
   10  A    between atoms: C_34  and  C_50
   11  A    between atoms: N_39  and  N_52
   12  A    between atoms: C_40  and  C_48
   13  A    between atoms: C_48  and  N_52
   14  A    between atoms: C_48  and  C_57
                            x       y       z     vdW  Elec       q    Type
                         _______ _______ _______ _____ _____    ______ ____

>  <TORSDO>
F 14

$$$$
=
 OpenBabel10232409143D

 57 63  0  0  1  0  0  0  0  0999 V2000
  192.8890  176.2860  137.2060 C   0  0  0  0  0  0  0  0  0  0  0  0
  190.4600  176.2750  137.4080 C   0  0  0  0  0  0  0  0  0  0  0  0
  191.6170  176.1720  136.6270 C   0  0  0  0  0  3  0  0  0  0  0  0
  190.8140  177.6210  141.3850 C   0  0  0  0  0  3  0  0  0  0  0  0
  191.8530  176.6250  139.3730 C   0  0  0  0  0  0  0  0  0  0  0  0
  189.3570  176.5730  139.6870 C   0  0  0  0  0  2  0  0  0  0  0  0
  190.5760  176.5000  138.7950 C   0  0  0  0  0  0  0  0  0  0  0  0
  191.9860  176.8460  140.8490 C   0  0  0  0  0  2  0  0  0  0  0  0
  192.9980  176.5130  138.5830 C   0  0  0  0  0  3  0  0  0  0  0  0
  189.5820  177.4930  140.8670 C   0  0  0  0  0  0  0  0  0  0  0  0
  188.5230  177.3960  136.3690 C   0  0  0  0  0  3  0  0  0  0  0  0
  189.1510  176.2040  136.7370 C   0  0  0  0  0  0  0  0  0  0  0  0
  186.6600  178.5490  135.4510 F   0  0  0  0  0  0  0  0  0  0  0  0
  189.1360  173.6960  136.9810 C   0  0  0  0  0  1  0  0  0  0  0  0
  187.2620  177.3780  135.7760 C   0  0  0  0  0  0  0  0  0  0  0  0
  187.2120  174.9490  135.9360 C   0  0  0  0  0  0  0  0  0  0  0  0
  188.4960  174.9710  136.5240 C   0  0  0  0  0  0  0  0  0  0  0  0
  186.6020  176.1660  135.5640 C   0  0  0  0  0  0  0  0  0  0  0  0
  185.3650  176.1810  135.0050 F   0  0  0  0  0  0  0  0  0  0  0  0
  186.1430  173.2870  134.3470 C   0  0  0  0  0  1  0  0  0  0  0  0
  186.4850  173.6320  135.7880 C   0  0  2  0  0  3  0  0  0  0  0  0
  184.6520  174.5830  137.1690 C   0  0  0  0  0  3  0  0  0  0  0  0
  185.3080  173.5150  136.7130 C   0  0  0  0  0  3  0  0  0  0  0  0
  183.5010  174.4210  138.1000 C   0  0  0  0  0  2  0  0  0  0  0  0
  182.8930  175.7810  138.4070 C   0  0  2  0  0  3  0  0  0  0  0  0
  181.3830  175.7490  138.1840 C   0  0  1  0  0  3  0  0  0  0  0  0
  181.1130  175.7010  136.8160 O   0  0  0  0  0  1  0  0  0  0  0  0
  180.3360  175.0730  140.0170 C   0  0  0  0  0  1  0  0  0  0  0  0
  180.8360  174.6160  138.7960 O   0  0  0  0  0  0  0  0  0  0  0  0
  183.5080  176.7880  137.5510 N   0  0  0  0  0  2  0  0  0  0  0  0
  182.7760  178.9480  137.7190 C   0  0  0  0  0  1  0  0  0  0  0  0
  184.9130  178.3930  138.1410 O   0  0  0  0  0  1  0  0  0  0  0  0
  183.6450  177.9530  138.3190 N   0  0  0  0  0  0  0  0  0  0  0  0
  195.3600  175.8780  136.9640 N   0  0  0  0  0  1  0  0  0  0  0  0
  194.0310  176.3520  135.1270 O   0  0  0  0  0  0  0  0  0  0  0  0
  194.0980  176.1760  136.3720 C   0  0  0  0  0  0  0  0  0  0  0  0
  188.2750  179.5950  141.1660 C   0  0  0  0  0  1  0  0  0  0  0  0
  188.4680  178.1820  141.4620 N   0  0  0  0  0  0  0  0  0  0  0  0
  184.0500  178.6790  143.8180 C   0  0  0  0  0  0  0  0  0  0  0  0
  186.2410  178.1090  144.0960 C   0  0  0  0  0  0  0  0  0  0  0  0
  184.3330  178.7930  145.5060 S   0  0  0  0  0  0  0  0  0  0  0  0
  185.9580  178.3310  145.4130 C   0  0  0  0  0  0  0  0  0  0  0  0
  187.4340  177.6550  143.6420 C   0  0  0  0  0  0  0  0  0  0  0  0
  188.4550  177.4040  144.5720 C   0  0  0  0  0  3  0  0  0  0  0  0
  187.4200  177.4240  142.1530 C   0  0  1  0  0  3  0  0  0  0  0  0
  188.2030  177.6490  145.9490 C   0  0  0  0  0  0  0  0  0  0  0  0
  186.9330  178.1100  146.3880 C   0  0  0  0  0  3  0  0  0  0  0  0
  189.2750  177.3970  146.9460 C   0  0  0  0  0  1  0  0  0  0  0  0
  185.2440  178.2890  143.2060 C   0  0  0  0  0  0  0  0  0  0  0  0
  185.7280  177.9200  141.5290 S   0  0  0  0  0  0  0  0  0  0  0  0
  181.5670  179.2040  143.8810 C   0  0  0  0  0  3  0  0  0  0  0  0
  182.7820  178.8580  143.1750 N   0  0  0  0  0  0  0  0  0  0  0  0
  181.0140  178.5650  141.6840 C   0  0  2  0  0  3  0  0  0  0  0  0
  180.4660  179.1260  142.9220 N   0  0  0  0  0  0  0  0  0  0  0  0
  182.5240  178.5210  141.7990 C   0  0  0  0  0  2  0  0  0  0  0  0
  180.0120  180.7370  140.8500 C   0  0  0  0  0  1  0  0  0  0  0  0
  180.5610  179.3690  140.4680 C   0  0  0  0  0  2  0  0  0  0  0  0
  1  9  1  0  0  0  0
  2  7  2  0  0  0  0
  3  1  2  0  0  0  0
  3  2  1  0  0  0  0
  5  8  1  0  0  0  0
  6 10  1  0  0  0  0
  7  5  1  0  0  0  0
  7  6  1  0  0  0  0
  8  4  1  0  0  0  0
  9  5  2  0  0  0  0
 10  4  2  0  0  0  0
 10 38  1  0  0  0  0
 11 12  1  0  0  0  0
 12  2  1  0  0  0  0
 13 15  1  0  0  0  0
 15 11  2  0  0  0  0
 16 17  1  0  0  0  0
 17 12  2  0  0  0  0
 17 14  1  0  0  0  0
 18 15  1  0  0  0  0
 18 16  2  0  0  0  0
 19 18  1  0  0  0  0
 21 20  1  6  0  0  0
 21 16  1  0  0  0  0
 21 23  1  0  0  0  0
 22 24  1  0  0  0  0
 23 22  2  0  0  0  0
 25 24  1  6  0  0  0
 26 27  1  6  0  0  0
 26 25  1  0  0  0  0
 26 29  1  0  0  0  0
 29 28  1  0  0  0  0
 30 33  1  0  0  0  0
 30 25  1  0  0  0  0
 31 33  1  0  0  0  0
 32 33  1  0  0  0  0
 35 36  2  0  0  0  0
 36 34  1  0  0  0  0
 36  1  1  0  0  0  0
 37 38  1  0  0  0  0
 39 41  1  0  0  0  0
 40 42  1  0  0  0  0
 42 41  1  0  0  0  0
 42 47  2  0  0  0  0
 43 40  2  0  0  0  0
 43 44  1  0  0  0  0
 44 46  2  0  0  0  0
 45 38  1  6  0  0  0
 45 43  1  0  0  0  0
 46 47  1  0  0  0  0
 46 48  1  0  0  0  0
 49 39  2  0  0  0  0
 49 40  1  0  0  0  0
 50 45  1  0  0  0  0
 50 49  1  0  0  0  0
 52 39  1  0  0  0  0
 52 51  1  0  0  0  0
 53 57  1  6  0  0  0
 53 55  1  0  0  0  0
 53 54  1  0  0  0  0
 54 51  2  0  0  0  0
 55 52  1  0  0  0  0
 57 56  1  0  0  0  0
M  END
>  <MODEL>
3

>  <REMARK>
 VINA RESULT:      -8.6      3.652      9.365
  Name = 
  14 active torsions:
  status: ('A' for Active; 'I' for Inactive)
    1  A    between atoms: C_1  and  N_15
    2  A    between atoms: C_3  and  C_17
    3  A    between atoms: C_7  and  C_9
    4  A    between atoms: O_8  and  C_40
    5  A    between atoms: C_20  and  C_57
    6  A    between atoms: N_25  and  C_44
    7  A    between atoms: N_25  and  C_54
    8  A    between atoms: C_26  and  C_33
    9  A    between atoms: C_28  and  C_50
   10  A    between atoms: C_34  and  C_50
   11  A    between atoms: N_39  and  N_52
   12  A    between atoms: C_40  and  C_48
   13  A    between atoms: C_48  and  N_52
   14  A    between atoms: C_48  and  C_57
                            x       y       z     vdW  Elec       q    Type
                         _______ _______ _______ _____ _____    ______ ____

>  <TORSDO>
F 14

$$$$
=
 OpenBabel10232409143D

 57 63  0  0  1  0  0  0  0  0999 V2000
  193.1400  176.2340  136.8730 C   0  0  0  0  0  0  0  0  0  0  0  0
  190.8590  175.9590  137.6890 C   0  0  0  0  0  0  0  0  0  0  0  0
  191.7940  175.9110  136.6480 C   0  0  0  0  0  3  0  0  0  0  0  0
  191.9790  177.7460  141.3360 C   0  0  0  0  0  3  0  0  0  0  0  0
  192.6260  176.6730  139.2030 C   0  0  0  0  0  0  0  0  0  0  0  0
  190.3140  176.3630  140.1460 C   0  0  0  0  0  2  0  0  0  0  0  0
  191.2770  176.3400  138.9800 C   0  0  0  0  0  0  0  0  0  0  0  0
  193.0820  177.0620  140.5760 C   0  0  0  0  0  2  0  0  0  0  0  0
  193.5480  176.6140  138.1570 C   0  0  0  0  0  3  0  0  0  0  0  0
  190.6900  177.4200  141.1600 C   0  0  0  0  0  0  0  0  0  0  0  0
  189.0800  174.3410  137.1370 C   0  0  0  0  0  3  0  0  0  0  0  0
  189.4490  175.6660  137.3810 C   0  0  0  0  0  0  0  0  0  0  0  0
  187.4380  172.7340  136.5350 F   0  0  0  0  0  0  0  0  0  0  0  0
  188.8980  178.1230  137.4550 C   0  0  0  0  0  1  0  0  0  0  0  0
  187.7670  174.0240  136.7940 C   0  0  0  0  0  0  0  0  0  0  0  0
  187.1610  176.3790  136.9020 C   0  0  0  0  0  0  0  0  0  0  0  0
  188.4900  176.6950  137.2630 C   0  0  0  0  0  0  0  0  0  0  0  0
  186.8090  175.0330  136.6690 C   0  0  0  0  0  0  0  0  0  0  0  0
  185.5440  174.6960  136.3120 F   0  0  0  0  0  0  0  0  0  0  0  0
  185.4930  177.9540  137.9840 C   0  0  0  0  0  1  0  0  0  0  0  0
  186.1620  177.4960  136.6970 C   0  0  2  0  0  3  0  0  0  0  0  0
  183.8610  177.2680  135.7910 C   0  0  0  0  0  3  0  0  0  0  0  0
  185.1790  177.1970  135.6020 C   0  0  0  0  0  3  0  0  0  0  0  0
  182.9210  176.9440  134.6810 C   0  0  0  0  0  2  0  0  0  0  0  0
  181.5360  176.6660  135.2450 C   0  0  2  0  0  3  0  0  0  0  0  0
  180.7260  177.9590  135.3200 C   0  0  1  0  0  3  0  0  0  0  0  0
  180.8850  178.5380  136.5800 O   0  0  0  0  0  1  0  0  0  0  0  0
  180.5150  180.0550  134.6320 C   0  0  0  0  0  1  0  0  0  0  0  0
  181.1730  178.8570  134.3460 O   0  0  0  0  0  0  0  0  0  0  0  0
  181.6650  176.0750  136.5720 N   0  0  0  0  0  2  0  0  0  0  0  0
  180.2370  174.2990  136.3830 C   0  0  0  0  0  1  0  0  0  0  0  0
  182.1630  174.1440  137.5310 O   0  0  0  0  0  1  0  0  0  0  0  0
  181.6360  174.6830  136.4060 N   0  0  0  0  0  0  0  0  0  0  0  0
  195.2290  177.0660  135.7440 N   0  0  0  0  0  1  0  0  0  0  0  0
  193.9650  175.3530  134.8300 O   0  0  0  0  0  0  0  0  0  0  0  0
  194.1130  176.1790  135.7690 C   0  0  0  0  0  0  0  0  0  0  0  0
  189.6460  179.4840  142.0920 C   0  0  0  0  0  1  0  0  0  0  0  0
  189.6690  178.0330  141.9690 N   0  0  0  0  0  0  0  0  0  0  0  0
  184.9670  178.3850  143.7250 C   0  0  0  0  0  0  0  0  0  0  0  0
  187.1020  177.7900  144.2620 C   0  0  0  0  0  0  0  0  0  0  0  0
  185.0160  178.3830  145.4390 S   0  0  0  0  0  0  0  0  0  0  0  0
  186.6410  177.9230  145.5390 C   0  0  0  0  0  0  0  0  0  0  0  0
  188.3490  177.3640  143.9460 C   0  0  0  0  0  0  0  0  0  0  0  0
  189.2350  177.0470  144.9880 C   0  0  0  0  0  3  0  0  0  0  0  0
  188.5410  177.2330  142.4570 C   0  0  1  0  0  3  0  0  0  0  0  0
  188.7950  177.2000  146.3310 C   0  0  0  0  0  0  0  0  0  0  0  0
  187.4750  177.6340  146.6220 C   0  0  0  0  0  3  0  0  0  0  0  0
  189.7220  176.8780  147.4460 C   0  0  0  0  0  1  0  0  0  0  0  0
  186.2360  178.0330  143.2580 C   0  0  0  0  0  0  0  0  0  0  0  0
  186.9480  177.7760  141.6420 S   0  0  0  0  0  0  0  0  0  0  0  0
  182.5660  179.1610  143.4500 C   0  0  0  0  0  3  0  0  0  0  0  0
  183.7980  178.6110  142.9280 N   0  0  0  0  0  0  0  0  0  0  0  0
  182.1650  178.3180  141.2890 C   0  0  2  0  0  3  0  0  0  0  0  0
  181.5640  179.0790  142.3880 N   0  0  0  0  0  0  0  0  0  0  0  0
  183.6420  178.1360  141.5780 C   0  0  0  0  0  2  0  0  0  0  0  0
  183.1570  179.7720  139.4690 C   0  0  0  0  0  1  0  0  0  0  0  0
  181.9300  179.0090  139.9490 C   0  0  0  0  0  2  0  0  0  0  0  0
  1  9  1  0  0  0  0
  2  7  2  0  0  0  0
  3  1  2  0  0  0  0
  3  2  1  0  0  0  0
  5  8  1  0  0  0  0
  6 10  1  0  0  0  0
  7  5  1  0  0  0  0
  7  6  1  0  0  0  0
  8  4  1  0  0  0  0
  9  5  2  0  0  0  0
 10  4  2  0  0  0  0
 10 38  1  0  0  0  0
 11 12  1  0  0  0  0
 12  2  1  0  0  0  0
 13 15  1  0  0  0  0
 15 11  2  0  0  0  0
 16 17  1  0  0  0  0
 17 12  2  0  0  0  0
 17 14  1  0  0  0  0
 18 15  1  0  0  0  0
 18 16  2  0  0  0  0
 19 18  1  0  0  0  0
 21 16  1  0  0  0  0
 21 20  1  1  0  0  0
 23 22  2  0  0  0  0
 23 21  1  0  0  0  0
 24 22  1  0  0  0  0
 25 24  1  1  0  0  0
 25 26  1  0  0  0  0
 25 30  1  0  0  0  0
 26 27  1  1  0  0  0
 29 28  1  0  0  0  0
 29 26  1  0  0  0  0
 31 33  1  0  0  0  0
 33 30  1  0  0  0  0
 33 32  1  0  0  0  0
 34 36  1  0  0  0  0
 35 36  2  0  0  0  0
 36  1  1  0  0  0  0
 38 37  1  0  0  0  0
 39 41  1  0  0  0  0
 40 42  1  0  0  0  0
 41 42  1  0  0  0  0
 42 47  2  0  0  0  0
 43 40  2  0  0  0  0
 43 44  1  0  0  0  0
 44 46  2  0  0  0  0
 45 38  1  6  0  0  0
 45 43  1  0  0  0  0
 46 47  1  0  0  0  0
 46 48  1  0  0  0  0
 49 39  2  0  0  0  0
 49 40  1  0  0  0  0
 50 45  1  0  0  0  0
 50 49  1  0  0  0  0
 52 51  1  0  0  0  0
 52 39  1  0  0  0  0
 53 57  1  6  0  0  0
 53 55  1  0  0  0  0
 53 54  1  0  0  0  0
 54 51  2  0  0  0  0
 55 52  1  0  0  0  0
 56 57  1  0  0  0  0
M  END
>  <MODEL>
4

>  <REMARK>
 VINA RESULT:      -8.6      3.738      9.570
  Name = 
  14 active torsions:
  status: ('A' for Active; 'I' for Inactive)
    1  A    between atoms: C_1  and  N_15
    2  A    between atoms: C_3  and  C_17
    3  A    between atoms: C_7  and  C_9
    4  A    between atoms: O_8  and  C_40
    5  A    between atoms: C_20  and  C_57
    6  A    between atoms: N_25  and  C_44
    7  A    between atoms: N_25  and  C_54
    8  A    between atoms: C_26  and  C_33
    9  A    between atoms: C_28  and  C_50
   10  A    between atoms: C_34  and  C_50
   11  A    between atoms: N_39  and  N_52
   12  A    between atoms: C_40  and  C_48
   13  A    between atoms: C_48  and  N_52
   14  A    between atoms: C_48  and  C_57
                            x       y       z     vdW  Elec       q    Type
                         _______ _______ _______ _____ _____    ______ ____

>  <TORSDO>
F 14

$$$$
=
 OpenBabel10232409143D

 57 63  0  0  1  0  0  0  0  0999 V2000
  193.2380  175.9750  136.7050 C   0  0  0  0  0  0  0  0  0  0  0  0
  190.8990  175.6780  137.3220 C   0  0  0  0  0  0  0  0  0  0  0  0
  191.9300  175.5880  136.3810 C   0  0  0  0  0  3  0  0  0  0  0  0
  191.6090  177.7660  140.9120 C   0  0  0  0  0  3  0  0  0  0  0  0
  192.4890  176.5650  138.9370 C   0  0  0  0  0  0  0  0  0  0  0  0
  190.1080  176.2400  139.6790 C   0  0  0  0  0  2  0  0  0  0  0  0
  191.1790  176.1670  138.6140 C   0  0  0  0  0  0  0  0  0  0  0  0
  192.8000  177.0690  140.3120 C   0  0  0  0  0  2  0  0  0  0  0  0
  193.5090  176.4640  137.9890 C   0  0  0  0  0  3  0  0  0  0  0  0
  190.3520  177.3820  140.6410 C   0  0  0  0  0  0  0  0  0  0  0  0
  189.1500  173.9700  136.9830 C   0  0  0  0  0  3  0  0  0  0  0  0
  189.5340  175.3110  136.9070 C   0  0  0  0  0  0  0  0  0  0  0  0
  187.5440  172.2600  136.6120 F   0  0  0  0  0  0  0  0  0  0  0  0
  189.0750  177.6940  136.2300 C   0  0  0  0  0  1  0  0  0  0  0  0
  187.8850  173.5710  136.5540 C   0  0  0  0  0  0  0  0  0  0  0  0
  187.3630  175.8650  135.9290 C   0  0  0  0  0  0  0  0  0  0  0  0
  188.6410  176.2690  136.3770 C   0  0  0  0  0  0  0  0  0  0  0  0
  186.9940  174.5070  136.0240 C   0  0  0  0  0  0  0  0  0  0  0  0
  185.7780  174.0850  135.5940 F   0  0  0  0  0  0  0  0  0  0  0  0
  187.0310  178.2870  135.2510 C   0  0  0  0  0  1  0  0  0  0  0  0
  186.4470  176.8820  135.2870 C   0  0  2  0  0  3  0  0  0  0  0  0
  184.7770  177.2560  137.0880 C   0  0  0  0  0  3  0  0  0  0  0  0
  185.0560  176.8430  135.8510 C   0  0  0  0  0  3  0  0  0  0  0  0
  183.3850  177.1810  137.6130 C   0  0  0  0  0  2  0  0  0  0  0  0
  183.1300  175.7990  138.1960 C   0  0  2  0  0  3  0  0  0  0  0  0
  182.2450  174.9830  137.2560 C   0  0  1  0  0  3  0  0  0  0  0  0
  181.8100  175.7900  136.2050 O   0  0  0  0  0  1  0  0  0  0  0  0
  182.1320  172.8010  136.8830 C   0  0  0  0  0  1  0  0  0  0  0  0
  182.9710  173.9070  136.7350 O   0  0  0  0  0  0  0  0  0  0  0  0
  182.4900  175.9360  139.4980 N   0  0  0  0  0  2  0  0  0  0  0  0
  180.5000  177.0570  139.6330 C   0  0  0  0  0  1  0  0  0  0  0  0
  180.6760  174.8940  140.2220 O   0  0  0  0  0  1  0  0  0  0  0  0
  181.1100  175.7840  139.2970 N   0  0  0  0  0  0  0  0  0  0  0  0
  195.5390  176.5800  135.8880 N   0  0  0  0  0  1  0  0  0  0  0  0
  194.1590  175.1720  134.6710 O   0  0  0  0  0  0  0  0  0  0  0  0
  194.3140  175.8760  135.7040 C   0  0  0  0  0  0  0  0  0  0  0  0
  188.9420  179.4070  140.9980 C   0  0  0  0  0  1  0  0  0  0  0  0
  189.2410  178.0140  141.3010 N   0  0  0  0  0  0  0  0  0  0  0  0
  185.1760  178.3360  144.2490 C   0  0  0  0  0  0  0  0  0  0  0  0
  187.3820  177.7600  144.1970 C   0  0  0  0  0  0  0  0  0  0  0  0
  185.6810  178.3410  145.8880 S   0  0  0  0  0  0  0  0  0  0  0  0
  187.2770  177.8950  145.5510 C   0  0  0  0  0  0  0  0  0  0  0  0
  188.5020  177.3420  143.5600 C   0  0  0  0  0  0  0  0  0  0  0  0
  189.6380  177.0370  144.3290 C   0  0  0  0  0  3  0  0  0  0  0  0
  188.2910  177.2080  142.0750 C   0  0  1  0  0  3  0  0  0  0  0  0
  189.5710  177.1910  145.7400 C   0  0  0  0  0  0  0  0  0  0  0  0
  188.3720  177.6160  146.3720 C   0  0  0  0  0  3  0  0  0  0  0  0
  190.7650  176.8800  146.5670 C   0  0  0  0  0  1  0  0  0  0  0  0
  186.2770  177.9920  143.4610 C   0  0  0  0  0  0  0  0  0  0  0  0
  186.5330  177.7350  141.7130 S   0  0  0  0  0  0  0  0  0  0  0  0
  183.4420  178.4840  142.4010 C   0  0  0  0  0  3  0  0  0  0  0  0
  183.8350  178.5500  143.7920 N   0  0  0  0  0  0  0  0  0  0  0  0
  181.6750  179.4160  143.6460 C   0  0  2  0  0  3  0  0  0  0  0  0
  182.0500  178.9250  142.3170 N   0  0  0  0  0  0  0  0  0  0  0  0
  182.7720  179.0500  144.6250 C   0  0  0  0  0  2  0  0  0  0  0  0
  180.0250  177.5060  143.4450 C   0  0  0  0  0  1  0  0  0  0  0  0
  180.3210  178.8580  144.0770 C   0  0  0  0  0  2  0  0  0  0  0  0
  1  9  1  0  0  0  0
  2  7  2  0  0  0  0
  3  1  2  0  0  0  0
  3  2  1  0  0  0  0
  5  8  1  0  0  0  0
  6 10  1  0  0  0  0
  7  5  1  0  0  0  0
  7  6  1  0  0  0  0
  8  4  1  0  0  0  0
  9  5  2  0  0  0  0
 10  4  2  0  0  0  0
 10 38  1  0  0  0  0
 12 11  1  0  0  0  0
 12  2  1  0  0  0  0
 14 17  1  0  0  0  0
 15 13  1  0  0  0  0
 15 11  2  0  0  0  0
 16 18  2  0  0  0  0
 16 17  1  0  0  0  0
 17 12  2  0  0  0  0
 18 15  1  0  0  0  0
 19 18  1  0  0  0  0
 21 20  1  1  0  0  0
 21 23  1  0  0  0  0
 21 16  1  0  0  0  0
 22 24  1  0  0  0  0
 23 22  2  0  0  0  0
 25 24  1  6  0  0  0
 25 30  1  0  0  0  0
 26 27  1  6  0  0  0
 26 25  1  0  0  0  0
 29 28  1  0  0  0  0
 29 26  1  0  0  0  0
 33 30  1  0  0  0  0
 33 31  1  0  0  0  0
 33 32  1  0  0  0  0
 35 36  2  0  0  0  0
 36 34  1  0  0  0  0
 36  1  1  0  0  0  0
 37 38  1  0  0  0  0
 39 41  1  0  0  0  0
 40 42  1  0  0  0  0
 42 41  1  0  0  0  0
 42 47  2  0  0  0  0
 43 40  2  0  0  0  0
 43 44  1  0  0  0  0
 44 46  2  0  0  0  0
 45 38  1  6  0  0  0
 45 43  1  0  0  0  0
 46 47  1  0  0  0  0
 46 48  1  0  0  0  0
 49 40  1  0  0  0  0
 49 39  2  0  0  0  0
 50 45  1  0  0  0  0
 50 49  1  0  0  0  0
 51 52  1  0  0  0  0
 52 39  1  0  0  0  0
 52 55  1  0  0  0  0
 53 57  1  1  0  0  0
 53 55  1  0  0  0  0
 54 51  2  0  0  0  0
 54 53  1  0  0  0  0
 56 57  1  0  0  0  0
M  END
>  <MODEL>
5

>  <REMARK>
 VINA RESULT:      -8.3      3.681      9.669
  Name = 
  14 active torsions:
  status: ('A' for Active; 'I' for Inactive)
    1  A    between atoms: C_1  and  N_15
    2  A    between atoms: C_3  and  C_17
    3  A    between atoms: C_7  and  C_9
    4  A    between atoms: O_8  and  C_40
    5  A    between atoms: C_20  and  C_57
    6  A    between atoms: N_25  and  C_44
    7  A    between atoms: N_25  and  C_54
    8  A    between atoms: C_26  and  C_33
    9  A    between atoms: C_28  and  C_50
   10  A    between atoms: C_34  and  C_50
   11  A    between atoms: N_39  and  N_52
   12  A    between atoms: C_40  and  C_48
   13  A    between atoms: C_48  and  N_52
   14  A    between atoms: C_48  and  C_57
                            x       y       z     vdW  Elec       q    Type
                         _______ _______ _______ _____ _____    ______ ____

>  <TORSDO>
F 14

$$$$
=
 OpenBabel10232409143D

 57 63  0  0  1  0  0  0  0  0999 V2000
  188.1250  177.9890  144.9180 C   0  0  0  0  0  0  0  0  0  0  0  0
  187.9100  177.8750  142.4930 C   0  0  0  0  0  0  0  0  0  0  0  0
  188.7050  177.9130  143.6450 C   0  0  0  0  0  3  0  0  0  0  0  0
  183.7910  178.6850  142.8490 C   0  0  0  0  0  3  0  0  0  0  0  0
  185.9250  178.0000  143.8960 C   0  0  0  0  0  0  0  0  0  0  0  0
  185.6050  177.8290  141.4060 C   0  0  0  0  0  2  0  0  0  0  0  0
  186.5070  177.9140  142.6170 C   0  0  0  0  0  0  0  0  0  0  0  0
  184.4340  178.0260  144.0380 C   0  0  0  0  0  2  0  0  0  0  0  0
  186.7300  178.0320  145.0350 C   0  0  0  0  0  3  0  0  0  0  0  0
  184.3130  178.5880  141.6160 C   0  0  0  0  0  0  0  0  0  0  0  0
  187.8910  178.3660  140.0740 C   0  0  0  0  0  3  0  0  0  0  0  0
  188.5760  177.8540  141.1790 C   0  0  0  0  0  0  0  0  0  0  0  0
  187.7680  178.8000  137.7430 F   0  0  0  0  0  0  0  0  0  0  0  0
  190.5570  176.6590  142.1770 C   0  0  0  0  0  1  0  0  0  0  0  0
  188.4630  178.3210  138.8050 C   0  0  0  0  0  0  0  0  0  0  0  0
  190.4280  177.2120  139.7190 C   0  0  0  0  0  0  0  0  0  0  0  0
  189.8510  177.2720  141.0070 C   0  0  0  0  0  0  0  0  0  0  0  0
  189.7210  177.7440  138.6200 C   0  0  0  0  0  0  0  0  0  0  0  0
  190.2430  177.6950  137.3680 F   0  0  0  0  0  0  0  0  0  0  0  0
  192.9550  177.4090  139.8020 C   0  0  0  0  0  1  0  0  0  0  0  0
  191.7550  176.5130  139.5320 C   0  0  2  0  0  3  0  0  0  0  0  0
  192.8910  175.9370  137.3990 C   0  0  0  0  0  3  0  0  0  0  0  0
  191.8480  175.7930  138.2180 C   0  0  0  0  0  3  0  0  0  0  0  0
  192.9320  175.2170  136.0950 C   0  0  0  0  0  2  0  0  0  0  0  0
  194.3450  174.7240  135.8260 C   0  0  2  0  0  3  0  0  0  0  0  0
  194.5660  173.3650  136.4860 C   0  0  1  0  0  3  0  0  0  0  0  0
  195.6640  172.7330  135.9010 O   0  0  0  0  0  1  0  0  0  0  0  0
  195.9990  172.8380  138.0920 C   0  0  0  0  0  1  0  0  0  0  0  0
  194.8140  173.5360  137.8520 O   0  0  0  0  0  0  0  0  0  0  0  0
  195.3010  175.6960  136.3400 N   0  0  0  0  0  2  0  0  0  0  0  0
  197.0130  176.5290  135.0710 C   0  0  0  0  0  1  0  0  0  0  0  0
  195.3190  177.8340  135.7660 O   0  0  0  0  0  1  0  0  0  0  0  0
  195.5810  176.5910  135.2970 N   0  0  0  0  0  0  0  0  0  0  0  0
  190.3940  178.0460  146.0050 N   0  0  0  0  0  1  0  0  0  0  0  0
  188.4520  178.0430  147.2680 O   0  0  0  0  0  0  0  0  0  0  0  0
  188.9740  178.0290  146.1220 C   0  0  0  0  0  0  0  0  0  0  0  0
  184.3870  179.9060  139.5000 C   0  0  0  0  0  1  0  0  0  0  0  0
  183.6230  179.1570  140.4890 N   0  0  0  0  0  0  0  0  0  0  0  0
  180.7120  176.5620  137.3090 C   0  0  0  0  0  0  0  0  0  0  0  0
  181.2030  178.6510  138.0810 C   0  0  0  0  0  0  0  0  0  0  0  0
  180.0930  177.6370  136.1240 S   0  0  0  0  0  0  0  0  0  0  0  0
  180.5780  179.0410  136.9330 C   0  0  0  0  0  0  0  0  0  0  0  0
  181.6680  179.5090  139.0220 C   0  0  0  0  0  0  0  0  0  0  0  0
  181.5120  180.8880  138.8090 C   0  0  0  0  0  3  0  0  0  0  0  0
  182.2300  178.7850  140.2170 C   0  0  1  0  0  3  0  0  0  0  0  0
  180.8880  181.3300  137.6110 C   0  0  0  0  0  0  0  0  0  0  0  0
  180.4000  180.3990  136.6560 C   0  0  0  0  0  3  0  0  0  0  0  0
  180.7220  182.7850  137.3660 C   0  0  0  0  0  1  0  0  0  0  0  0
  181.3000  177.3280  138.3190 C   0  0  0  0  0  0  0  0  0  0  0  0
  182.0940  176.9520  139.8730 S   0  0  0  0  0  0  0  0  0  0  0  0
  179.9820  174.3880  138.3980 C   0  0  0  0  0  3  0  0  0  0  0  0
  180.5560  175.1380  137.3010 N   0  0  0  0  0  0  0  0  0  0  0  0
  180.9830  172.8830  136.8890 C   0  0  2  0  0  3  0  0  0  0  0  0
  180.1510  172.9680  138.0940 N   0  0  0  0  0  0  0  0  0  0  0  0
  181.1280  174.2730  136.3020 C   0  0  0  0  0  2  0  0  0  0  0  0
  181.1780  171.8680  134.5780 C   0  0  0  0  0  1  0  0  0  0  0  0
  180.3920  171.9000  135.8810 C   0  0  0  0  0  2  0  0  0  0  0  0
  1  9  1  0  0  0  0
  1 36  1  0  0  0  0
  2  7  2  0  0  0  0
  2  3  1  0  0  0  0
  3  1  2  0  0  0  0
  4  8  1  0  0  0  0
  5  8  1  0  0  0  0
  5  9  2  0  0  0  0
  6 10  1  0  0  0  0
  6  7  1  0  0  0  0
  7  5  1  0  0  0  0
 10  4  2  0  0  0  0
 11 12  1  0  0  0  0
 12  2  1  0  0  0  0
 13 15  1  0  0  0  0
 15 11  2  0  0  0  0
 16 17  1  0  0  0  0
 17 12  2  0  0  0  0
 17 14  1  0  0  0  0
 18 15  1  0  0  0  0
 18 16  2  0  0  0  0
 19 18  1  0  0  0  0
 21 16  1  0  0  0  0
 21 20  1  6  0  0  0
 22 23  2  0  0  0  0
 23 21  1  0  0  0  0
 24 22  1  0  0  0  0
 25 24  1  1  0  0  0
 25 30  1  0  0  0  0
 25 26  1  0  0  0  0
 26 27  1  6  0  0  0
 26 29  1  0  0  0  0
 29 28  1  0  0  0  0
 31 33  1  0  0  0  0
 33 32  1  0  0  0  0
 33 30  1  0  0  0  0
 34 36  1  0  0  0  0
 36 35  2  0  0  0  0
 37 38  1  0  0  0  0
 38 10  1  0  0  0  0
 39 49  2  0  0  0  0
 40 49  1  0  0  0  0
 40 43  1  0  0  0  0
 41 42  1  0  0  0  0
 41 39  1  0  0  0  0
 42 40  2  0  0  0  0
 43 45  1  0  0  0  0
 44 43  2  0  0  0  0
 45 38  1  6  0  0  0
 46 44  1  0  0  0  0
 47 42  1  0  0  0  0
 47 46  2  0  0  0  0
 48 46  1  0  0  0  0
 49 50  1  0  0  0  0
 50 45  1  0  0  0  0
 52 39  1  0  0  0  0
 52 51  1  0  0  0  0
 53 57  1  6  0  0  0
 53 54  1  0  0  0  0
 54 51  2  0  0  0  0
 55 53  1  0  0  0  0
 55 52  1  0  0  0  0
 56 57  1  0  0  0  0
M  END
>  <MODEL>
6

>  <REMARK>
 VINA RESULT:      -7.9      1.981      3.044
  Name = 
  14 active torsions:
  status: ('A' for Active; 'I' for Inactive)
    1  A    between atoms: C_1  and  N_15
    2  A    between atoms: C_3  and  C_17
    3  A    between atoms: C_7  and  C_9
    4  A    between atoms: O_8  and  C_40
    5  A    between atoms: C_20  and  C_57
    6  A    between atoms: N_25  and  C_44
    7  A    between atoms: N_25  and  C_54
    8  A    between atoms: C_26  and  C_33
    9  A    between atoms: C_28  and  C_50
   10  A    between atoms: C_34  and  C_50
   11  A    between atoms: N_39  and  N_52
   12  A    between atoms: C_40  and  C_48
   13  A    between atoms: C_48  and  N_52
   14  A    between atoms: C_48  and  C_57
                            x       y       z     vdW  Elec       q    Type
                         _______ _______ _______ _____ _____    ______ ____

>  <TORSDO>
F 14

$$$$
=
 OpenBabel10232409143D

 57 63  0  0  1  0  0  0  0  0999 V2000
  185.6850  178.6010  145.3500 C   0  0  0  0  0  0  0  0  0  0  0  0
  186.0450  178.3050  142.9580 C   0  0  0  0  0  0  0  0  0  0  0  0
  186.5480  178.4640  144.2550 C   0  0  0  0  0  3  0  0  0  0  0  0
  181.9330  178.9360  142.2900 C   0  0  0  0  0  3  0  0  0  0  0  0
  183.7850  178.4330  143.8510 C   0  0  0  0  0  0  0  0  0  0  0  0
  184.0600  178.0700  141.3770 C   0  0  0  0  0  2  0  0  0  0  0  0
  184.6510  178.2850  142.7520 C   0  0  0  0  0  0  0  0  0  0  0  0
  182.3020  178.3960  143.6440 C   0  0  0  0  0  2  0  0  0  0  0  0
  184.3010  178.5840  145.1390 C   0  0  0  0  0  3  0  0  0  0  0  0
  182.7320  178.7790  141.2230 C   0  0  0  0  0  0  0  0  0  0  0  0
  186.5470  178.5230  140.5520 C   0  0  0  0  0  3  0  0  0  0  0  0
  186.9990  178.2230  141.8390 C   0  0  0  0  0  0  0  0  0  0  0  0
  186.9340  178.6830  138.2140 F   0  0  0  0  0  0  0  0  0  0  0  0
  188.7960  177.3980  143.4010 C   0  0  0  0  0  1  0  0  0  0  0  0
  187.4020  178.4120  139.4580 C   0  0  0  0  0  0  0  0  0  0  0  0
  189.1940  177.6600  140.9230 C   0  0  0  0  0  0  0  0  0  0  0  0
  188.3280  177.7870  142.0320 C   0  0  0  0  0  0  0  0  0  0  0  0
  188.7180  177.9770  139.6340 C   0  0  0  0  0  0  0  0  0  0  0  0
  189.5210  177.8570  138.5470 F   0  0  0  0  0  0  0  0  0  0  0  0
  191.2710  177.6490  142.3800 C   0  0  0  0  0  1  0  0  0  0  0  0
  190.5890  177.1130  141.1300 C   0  0  2  0  0  3  0  0  0  0  0  0
  191.8870  176.1660  139.2360 C   0  0  0  0  0  3  0  0  0  0  0  0
  191.4440  177.2330  139.9010 C   0  0  0  0  0  3  0  0  0  0  0  0
  192.7500  176.3320  138.0320 C   0  0  0  0  0  2  0  0  0  0  0  0
  192.8750  175.0030  137.3030 C   0  0  2  0  0  3  0  0  0  0  0  0
  194.1550  174.9750  136.4710 C   0  0  1  0  0  3  0  0  0  0  0  0
  194.8230  176.1930  136.5990 O   0  0  0  0  0  1  0  0  0  0  0  0
  196.1980  174.5770  137.2320 C   0  0  0  0  0  1  0  0  0  0  0  0
  194.9910  173.9480  136.9190 O   0  0  0  0  0  0  0  0  0  0  0  0
  191.7120  174.8120  136.4460 N   0  0  0  0  0  2  0  0  0  0  0  0
  190.9310  173.0000  135.2890 C   0  0  0  0  0  1  0  0  0  0  0  0
  190.1530  173.5150  137.3350 O   0  0  0  0  0  1  0  0  0  0  0  0
  191.2960  173.4820  136.6080 N   0  0  0  0  0  0  0  0  0  0  0  0
  185.8790  179.9060  147.4930 N   0  0  0  0  0  1  0  0  0  0  0  0
  187.0130  177.9090  147.1910 O   0  0  0  0  0  0  0  0  0  0  0  0
  186.2280  178.7680  146.7090 C   0  0  0  0  0  0  0  0  0  0  0  0
  183.1030  180.2360  139.2330 C   0  0  0  0  0  1  0  0  0  0  0  0
  182.3060  179.2310  139.9240 N   0  0  0  0  0  0  0  0  0  0  0  0
  181.4570  175.6820  136.4600 C   0  0  0  0  0  0  0  0  0  0  0  0
  181.2400  177.9050  136.9220 C   0  0  0  0  0  0  0  0  0  0  0  0
  181.2340  176.4390  134.9370 S   0  0  0  0  0  0  0  0  0  0  0  0
  181.1040  178.0030  135.5680 C   0  0  0  0  0  0  0  0  0  0  0  0
  181.1220  178.9510  137.7750 C   0  0  0  0  0  0  0  0  0  0  0  0
  180.8550  180.2240  137.2440 C   0  0  0  0  0  3  0  0  0  0  0  0
  181.2360  178.5230  139.2150 C   0  0  1  0  0  3  0  0  0  0  0  0
  180.7330  180.3660  135.8350 C   0  0  0  0  0  0  0  0  0  0  0  0
  180.8460  179.2410  134.9760 C   0  0  0  0  0  3  0  0  0  0  0  0
  180.4580  181.7060  135.2560 C   0  0  0  0  0  1  0  0  0  0  0  0
  181.4350  176.6760  137.4410 C   0  0  0  0  0  0  0  0  0  0  0  0
  181.5490  176.6790  139.2230 S   0  0  0  0  0  0  0  0  0  0  0  0
  180.4190  173.4440  137.0590 C   0  0  0  0  0  3  0  0  0  0  0  0
  181.5460  174.2690  136.6800 N   0  0  0  0  0  0  0  0  0  0  0  0
  182.3960  172.1940  137.3180 C   0  0  2  0  0  3  0  0  0  0  0  0
  180.9340  172.1080  137.3570 N   0  0  0  0  0  0  0  0  0  0  0  0
  182.7880  173.5440  136.7510 C   0  0  0  0  0  2  0  0  0  0  0  0
  184.3400  171.4060  135.8990 C   0  0  0  0  0  1  0  0  0  0  0  0
  182.9940  171.0450  136.5110 C   0  0  0  0  0  2  0  0  0  0  0  0
  1 36  1  0  0  0  0
  2  3  1  0  0  0  0
  3  1  2  0  0  0  0
  4  8  1  0  0  0  0
  5  9  2  0  0  0  0
  6  7  1  0  0  0  0
  7  2  2  0  0  0  0
  7  5  1  0  0  0  0
  8  5  1  0  0  0  0
  9  1  1  0  0  0  0
 10  6  1  0  0  0  0
 10  4  2  0  0  0  0
 11 12  1  0  0  0  0
 12 17  2  0  0  0  0
 12  2  1  0  0  0  0
 13 15  1  0  0  0  0
 15 18  1  0  0  0  0
 15 11  2  0  0  0  0
 16 21  1  0  0  0  0
 16 17  1  0  0  0  0
 17 14  1  0  0  0  0
 18 16  2  0  0  0  0
 19 18  1  0  0  0  0
 21 20  1  1  0  0  0
 22 23  2  0  0  0  0
 23 21  1  0  0  0  0
 24 22  1  0  0  0  0
 25 24  1  6  0  0  0
 26 27  1  1  0  0  0
 26 29  1  0  0  0  0
 26 25  1  0  0  0  0
 29 28  1  0  0  0  0
 30 33  1  0  0  0  0
 30 25  1  0  0  0  0
 31 33  1  0  0  0  0
 33 32  1  0  0  0  0
 36 35  2  0  0  0  0
 36 34  1  0  0  0  0
 37 38  1  0  0  0  0
 38 10  1  0  0  0  0
 39 52  1  0  0  0  0
 39 49  2  0  0  0  0
 40 49  1  0  0  0  0
 40 43  1  0  0  0  0
 41 42  1  0  0  0  0
 41 39  1  0  0  0  0
 42 40  2  0  0  0  0
 43 45  1  0  0  0  0
 44 43  2  0  0  0  0
 45 50  1  0  0  0  0
 45 38  1  6  0  0  0
 46 44  1  0  0  0  0
 47 42  1  0  0  0  0
 47 46  2  0  0  0  0
 48 46  1  0  0  0  0
 49 50  1  0  0  0  0
 51 54  2  0  0  0  0
 52 55  1  0  0  0  0
 52 51  1  0  0  0  0
 53 57  1  6  0  0  0
 53 54  1  0  0  0  0
 55 53  1  0  0  0  0
 56 57  1  0  0  0  0
M  END
>  <MODEL>
7

>  <REMARK>
 VINA RESULT:      -7.9      1.492      2.095
  Name = 
  14 active torsions:
  status: ('A' for Active; 'I' for Inactive)
    1  A    between atoms: C_1  and  N_15
    2  A    between atoms: C_3  and  C_17
    3  A    between atoms: C_7  and  C_9
    4  A    between atoms: O_8  and  C_40
    5  A    between atoms: C_20  and  C_57
    6  A    between atoms: N_25  and  C_44
    7  A    between atoms: N_25  and  C_54
    8  A    between atoms: C_26  and  C_33
    9  A    between atoms: C_28  and  C_50
   10  A    between atoms: C_34  and  C_50
   11  A    between atoms: N_39  and  N_52
   12  A    between atoms: C_40  and  C_48
   13  A    between atoms: C_48  and  N_52
   14  A    between atoms: C_48  and  C_57
                            x       y       z     vdW  Elec       q    Type
                         _______ _______ _______ _____ _____    ______ ____

>  <TORSDO>
F 14

$$$$
=
 OpenBabel10232409143D

 57 63  0  0  1  0  0  0  0  0999 V2000
  180.8510  181.0890  137.8020 C   0  0  0  0  0  0  0  0  0  0  0  0
  181.8320  179.4170  139.2790 C   0  0  0  0  0  0  0  0  0  0  0  0
  181.4030  180.7270  139.0390 C   0  0  0  0  0  3  0  0  0  0  0  0
  182.0920  176.7430  136.0330 C   0  0  0  0  0  3  0  0  0  0  0  0
  181.1650  178.8140  137.0170 C   0  0  0  0  0  0  0  0  0  0  0  0
  182.1170  177.0100  138.4900 C   0  0  0  0  0  2  0  0  0  0  0  0
  181.7090  178.4480  138.2620 C   0  0  0  0  0  0  0  0  0  0  0  0
  181.0150  177.7880  135.9370 C   0  0  0  0  0  2  0  0  0  0  0  0
  180.7350  180.1240  136.7940 C   0  0  0  0  0  3  0  0  0  0  0  0
  182.6020  176.3580  137.2140 C   0  0  0  0  0  0  0  0  0  0  0  0
  181.6290  178.8740  141.6780 C   0  0  0  0  0  3  0  0  0  0  0  0
  182.4570  179.1090  140.5770 C   0  0  0  0  0  0  0  0  0  0  0  0
  181.3540  178.4280  143.9940 F   0  0  0  0  0  0  0  0  0  0  0  0
  184.7470  179.4330  139.5780 C   0  0  0  0  0  1  0  0  0  0  0  0
  182.1770  178.6270  142.9350 C   0  0  0  0  0  0  0  0  0  0  0  0
  184.4180  178.8770  142.0170 C   0  0  0  0  0  0  0  0  0  0  0  0
  183.8590  179.1130  140.7410 C   0  0  0  0  0  0  0  0  0  0  0  0
  183.5630  178.6330  143.1120 C   0  0  0  0  0  0  0  0  0  0  0  0
  184.0660  178.4120  144.3530 F   0  0  0  0  0  0  0  0  0  0  0  0
  186.6990  178.6830  140.9260 C   0  0  0  0  0  1  0  0  0  0  0  0
  185.9160  178.9660  142.1990 C   0  0  2  0  0  3  0  0  0  0  0  0
  187.6000  177.5800  143.3870 C   0  0  0  0  0  3  0  0  0  0  0  0
  186.4030  178.1680  143.3740 C   0  0  0  0  0  3  0  0  0  0  0  0
  188.0350  176.7810  144.5670 C   0  0  0  0  0  2  0  0  0  0  0  0
  188.9420  177.6230  145.4510 C   0  0  2  0  0  3  0  0  0  0  0  0
  190.4080  177.3160  145.1500 C   0  0  1  0  0  3  0  0  0  0  0  0
  190.7190  176.0330  145.6010 O   0  0  0  0  0  1  0  0  0  0  0  0
  191.4930  176.3170  143.4970 C   0  0  0  0  0  1  0  0  0  0  0  0
  190.6330  177.3820  143.7720 O   0  0  0  0  0  0  0  0  0  0  0  0
  188.6460  177.3440  146.8510 N   0  0  0  0  0  2  0  0  0  0  0  0
  188.2820  178.4810  148.8020 C   0  0  0  0  0  1  0  0  0  0  0  0
  186.6860  178.3000  147.2290 O   0  0  0  0  0  1  0  0  0  0  0  0
  188.0190  178.4840  147.3750 N   0  0  0  0  0  0  0  0  0  0  0  0
  180.1900  182.9420  136.2340 N   0  0  0  0  0  1  0  0  0  0  0  0
  180.2140  183.2560  138.5290 O   0  0  0  0  0  0  0  0  0  0  0  0
  180.4040  182.4720  137.5620 C   0  0  0  0  0  0  0  0  0  0  0  0
  183.4230  174.2690  138.3010 C   0  0  0  0  0  1  0  0  0  0  0  0
  183.5680  175.2930  137.2740 N   0  0  0  0  0  0  0  0  0  0  0  0
  187.7420  172.7990  135.9810 C   0  0  0  0  0  0  0  0  0  0  0  0
  186.8800  174.8670  136.4060 C   0  0  0  0  0  0  0  0  0  0  0  0
  189.1010  173.7970  136.2930 S   0  0  0  0  0  0  0  0  0  0  0  0
  188.1950  175.2000  136.5580 C   0  0  0  0  0  0  0  0  0  0  0  0
  185.8590  175.7550  136.4760 C   0  0  0  0  0  0  0  0  0  0  0  0
  186.1570  177.1030  136.7320 C   0  0  0  0  0  3  0  0  0  0  0  0
  184.5290  175.1100  136.1820 C   0  0  1  0  0  3  0  0  0  0  0  0
  187.5140  177.4800  136.9210 C   0  0  0  0  0  0  0  0  0  0  0  0
  188.5580  176.5230  136.8240 C   0  0  0  0  0  3  0  0  0  0  0  0
  187.8470  178.9010  137.2000 C   0  0  0  0  0  1  0  0  0  0  0  0
  186.5940  173.5860  136.1000 C   0  0  0  0  0  0  0  0  0  0  0  0
  184.8470  173.2920  135.8810 S   0  0  0  0  0  0  0  0  0  0  0  0
  189.0300  170.7070  135.3420 C   0  0  0  0  0  3  0  0  0  0  0  0
  187.7960  171.4270  135.5710 N   0  0  0  0  0  0  0  0  0  0  0  0
  187.2380  169.4260  134.5120 C   0  0  2  0  0  3  0  0  0  0  0  0
  188.6800  169.4050  134.7760 N   0  0  0  0  0  0  0  0  0  0  0  0
  186.6470  170.6690  135.1470 C   0  0  0  0  0  2  0  0  0  0  0  0
  185.0560  168.3070  135.1440 C   0  0  0  0  0  1  0  0  0  0  0  0
  186.5660  168.1540  135.0220 C   0  0  0  0  0  2  0  0  0  0  0  0
  1  3  1  0  0  0  0
  2 12  1  0  0  0  0
  3  2  2  0  0  0  0
  4 10  2  0  0  0  0
  5  7  2  0  0  0  0
  7  6  1  0  0  0  0
  7  2  1  0  0  0  0
  8  4  1  0  0  0  0
  8  5  1  0  0  0  0
  9  5  1  0  0  0  0
  9  1  2  0  0  0  0
 10 38  1  0  0  0  0
 10  6  1  0  0  0  0
 11 15  1  0  0  0  0
 12 17  1  0  0  0  0
 12 11  2  0  0  0  0
 14 17  1  0  0  0  0
 15 18  2  0  0  0  0
 15 13  1  0  0  0  0
 16 21  1  0  0  0  0
 16 18  1  0  0  0  0
 17 16  2  0  0  0  0
 18 19  1  0  0  0  0
 21 20  1  6  0  0  0
 21 23  1  0  0  0  0
 22 24  1  0  0  0  0
 23 22  2  0  0  0  0
 25 24  1  6  0  0  0
 25 30  1  0  0  0  0
 26 25  1  0  0  0  0
 26 27  1  6  0  0  0
 28 29  1  0  0  0  0
 29 26  1  0  0  0  0
 30 33  1  0  0  0  0
 32 33  1  0  0  0  0
 33 31  1  0  0  0  0
 34 36  1  0  0  0  0
 36  1  1  0  0  0  0
 36 35  2  0  0  0  0
 38 37  1  0  0  0  0
 39 49  2  0  0  0  0
 39 41  1  0  0  0  0
 40 43  2  0  0  0  0
 40 42  1  0  0  0  0
 41 42  1  0  0  0  0
 42 47  2  0  0  0  0
 43 44  1  0  0  0  0
 44 46  2  0  0  0  0
 45 43  1  0  0  0  0
 45 38  1  1  0  0  0
 46 48  1  0  0  0  0
 47 46  1  0  0  0  0
 49 40  1  0  0  0  0
 50 49  1  0  0  0  0
 50 45  1  0  0  0  0
 51 52  1  0  0  0  0
 52 39  1  0  0  0  0
 53 54  1  0  0  0  0
 53 57  1  1  0  0  0
 53 55  1  0  0  0  0
 54 51  2  0  0  0  0
 55 52  1  0  0  0  0
 57 56  1  0  0  0  0
M  END
>  <MODEL>
8

>  <REMARK>
 VINA RESULT:      -7.9      3.733      7.899
  Name = 
  14 active torsions:
  status: ('A' for Active; 'I' for Inactive)
    1  A    between atoms: C_1  and  N_15
    2  A    between atoms: C_3  and  C_17
    3  A    between atoms: C_7  and  C_9
    4  A    between atoms: O_8  and  C_40
    5  A    between atoms: C_20  and  C_57
    6  A    between atoms: N_25  and  C_44
    7  A    between atoms: N_25  and  C_54
    8  A    between atoms: C_26  and  C_33
    9  A    between atoms: C_28  and  C_50
   10  A    between atoms: C_34  and  C_50
   11  A    between atoms: N_39  and  N_52
   12  A    between atoms: C_40  and  C_48
   13  A    between atoms: C_48  and  N_52
   14  A    between atoms: C_48  and  C_57
                            x       y       z     vdW  Elec       q    Type
                         _______ _______ _______ _____ _____    ______ ____

>  <TORSDO>
F 14

$$$$
=
 OpenBabel10232409143D

 57 63  0  0  1  0  0  0  0  0999 V2000
  187.2570  178.1320  145.5320 C   0  0  0  0  0  0  0  0  0  0  0  0
  186.8290  177.9890  143.1370 C   0  0  0  0  0  0  0  0  0  0  0  0
  187.7230  178.0600  144.2120 C   0  0  0  0  0  3  0  0  0  0  0  0
  182.7370  178.6890  143.8540 C   0  0  0  0  0  3  0  0  0  0  0  0
  184.9740  178.0740  144.7110 C   0  0  0  0  0  0  0  0  0  0  0  0
  184.4390  177.8690  142.2610 C   0  0  0  0  0  2  0  0  0  0  0  0
  185.4420  177.9910  143.3860 C   0  0  0  0  0  0  0  0  0  0  0  0
  183.5020  178.0590  144.9860 C   0  0  0  0  0  2  0  0  0  0  0  0
  185.8770  178.1380  145.7730 C   0  0  0  0  0  3  0  0  0  0  0  0
  183.1500  178.5950  142.5800 C   0  0  0  0  0  0  0  0  0  0  0  0
  186.5660  178.4180  140.7210 C   0  0  0  0  0  3  0  0  0  0  0  0
  187.3750  177.9730  141.7690 C   0  0  0  0  0  0  0  0  0  0  0  0
  186.2110  178.7870  138.4020 F   0  0  0  0  0  0  0  0  0  0  0  0
  189.5040  176.9170  142.6060 C   0  0  0  0  0  1  0  0  0  0  0  0
  187.0240  178.3750  139.4060 C   0  0  0  0  0  0  0  0  0  0  0  0
  189.1240  177.4010  140.1600 C   0  0  0  0  0  0  0  0  0  0  0  0
  188.6610  177.4590  141.4940 C   0  0  0  0  0  0  0  0  0  0  0  0
  188.2920  177.8650  139.1190 C   0  0  0  0  0  0  0  0  0  0  0  0
  188.7020  177.8150  137.8260 F   0  0  0  0  0  0  0  0  0  0  0  0
  191.6450  177.6280  140.3110 C   0  0  0  0  0  1  0  0  0  0  0  0
  190.4680  176.7730  139.8670 C   0  0  2  0  0  3  0  0  0  0  0  0
  191.6770  176.5360  137.7110 C   0  0  0  0  0  3  0  0  0  0  0  0
  190.5890  176.3050  138.4450 C   0  0  0  0  0  3  0  0  0  0  0  0
  191.7470  176.0700  136.2970 C   0  0  0  0  0  2  0  0  0  0  0  0
  193.0990  175.4260  136.0350 C   0  0  2  0  0  3  0  0  0  0  0  0
  193.2620  174.1690  136.8870 C   0  0  1  0  0  3  0  0  0  0  0  0
  192.4720  173.1440  136.3650 O   0  0  0  0  0  1  0  0  0  0  0  0
  194.6150  172.5900  136.1210 C   0  0  0  0  0  1  0  0  0  0  0  0
  194.5990  173.7610  136.8820 O   0  0  0  0  0  0  0  0  0  0  0  0
  194.1560  176.3820  136.3410 N   0  0  0  0  0  2  0  0  0  0  0  0
  195.2810  176.0420  134.3780 C   0  0  0  0  0  1  0  0  0  0  0  0
  195.3540  178.0170  135.4500 O   0  0  0  0  0  1  0  0  0  0  0  0
  194.5070  177.0070  135.1350 N   0  0  0  0  0  0  0  0  0  0  0  0
  189.5220  177.6730  146.5260 N   0  0  0  0  0  1  0  0  0  0  0  0
  187.8660  178.7420  147.7430 O   0  0  0  0  0  0  0  0  0  0  0  0
  188.2080  178.2080  146.6540 C   0  0  0  0  0  0  0  0  0  0  0  0
  181.0300  179.6730  141.8300 C   0  0  0  0  0  1  0  0  0  0  0  0
  182.3460  179.1320  141.5150 N   0  0  0  0  0  0  0  0  0  0  0  0
  181.1800  180.1460  136.7260 C   0  0  0  0  0  0  0  0  0  0  0  0
  182.0660  178.5740  138.1210 C   0  0  0  0  0  0  0  0  0  0  0  0
  181.0950  178.6720  135.8540 S   0  0  0  0  0  0  0  0  0  0  0  0
  181.7930  177.7370  137.0790 C   0  0  0  0  0  0  0  0  0  0  0  0
  182.6950  178.1910  139.2590 C   0  0  0  0  0  0  0  0  0  0  0  0
  183.0850  176.8480  139.3900 C   0  0  0  0  0  3  0  0  0  0  0  0
  182.9350  179.3510  140.1900 C   0  0  1  0  0  3  0  0  0  0  0  0
  182.7930  175.9430  138.3340 C   0  0  0  0  0  0  0  0  0  0  0  0
  182.1460  176.3870  137.1510 C   0  0  0  0  0  3  0  0  0  0  0  0
  183.1920  174.5180  138.4610 C   0  0  0  0  0  1  0  0  0  0  0  0
  181.7480  179.8760  137.9730 C   0  0  0  0  0  0  0  0  0  0  0  0
  182.2000  180.8710  139.3850 S   0  0  0  0  0  0  0  0  0  0  0  0
  180.3200  181.6550  134.8750 C   0  0  0  0  0  3  0  0  0  0  0  0
  180.8220  181.4360  136.2140 N   0  0  0  0  0  0  0  0  0  0  0  0
  180.8530  183.7360  135.8360 C   0  0  2  0  0  3  0  0  0  0  0  0
  180.2350  183.1000  134.6690 N   0  0  0  0  0  0  0  0  0  0  0  0
  181.1060  182.6750  136.8890 C   0  0  0  0  0  2  0  0  0  0  0  0
  180.4270  185.3410  137.7490 C   0  0  0  0  0  1  0  0  0  0  0  0
  179.9820  184.8690  136.3710 C   0  0  0  0  0  2  0  0  0  0  0  0
  1  9  1  0  0  0  0
  1 36  1  0  0  0  0
  2  7  2  0  0  0  0
  2  3  1  0  0  0  0
  3  1  2  0  0  0  0
  4  8  1  0  0  0  0
  5  8  1  0  0  0  0
  5  9  2  0  0  0  0
  6 10  1  0  0  0  0
  6  7  1  0  0  0  0
  7  5  1  0  0  0  0
 10  4  2  0  0  0  0
 11 12  1  0  0  0  0
 12  2  1  0  0  0  0
 13 15  1  0  0  0  0
 15 11  2  0  0  0  0
 16 17  1  0  0  0  0
 17 12  2  0  0  0  0
 17 14  1  0  0  0  0
 18 15  1  0  0  0  0
 18 16  2  0  0  0  0
 19 18  1  0  0  0  0
 21 16  1  0  0  0  0
 21 20  1  6  0  0  0
 22 23  2  0  0  0  0
 23 21  1  0  0  0  0
 24 22  1  0  0  0  0
 25 24  1  1  0  0  0
 25 30  1  0  0  0  0
 25 26  1  0  0  0  0
 26 27  1  6  0  0  0
 28 29  1  0  0  0  0
 29 26  1  0  0  0  0
 31 33  1  0  0  0  0
 33 32  1  0  0  0  0
 33 30  1  0  0  0  0
 34 36  1  0  0  0  0
 36 35  2  0  0  0  0
 38 37  1  0  0  0  0
 38 10  1  0  0  0  0
 39 49  2  0  0  0  0
 40 43  1  0  0  0  0
 41 39  1  0  0  0  0
 41 42  1  0  0  0  0
 42 47  1  0  0  0  0
 42 40  2  0  0  0  0
 43 44  2  0  0  0  0
 43 45  1  0  0  0  0
 45 38  1  1  0  0  0
 46 48  1  0  0  0  0
 46 44  1  0  0  0  0
 47 46  2  0  0  0  0
 49 40  1  0  0  0  0
 49 50  1  0  0  0  0
 50 45  1  0  0  0  0
 51 52  1  0  0  0  0
 52 39  1  0  0  0  0
 52 55  1  0  0  0  0
 53 57  1  1  0  0  0
 53 55  1  0  0  0  0
 54 51  2  0  0  0  0
 54 53  1  0  0  0  0
 57 56  1  0  0  0  0
M  END
>  <MODEL>
9

>  <REMARK>
 VINA RESULT:      -7.9      2.455      4.846
  Name = 
  14 active torsions:
  status: ('A' for Active; 'I' for Inactive)
    1  A    between atoms: C_1  and  N_15
    2  A    between atoms: C_3  and  C_17
    3  A    between atoms: C_7  and  C_9
    4  A    between atoms: O_8  and  C_40
    5  A    between atoms: C_20  and  C_57
    6  A    between atoms: N_25  and  C_44
    7  A    between atoms: N_25  and  C_54
    8  A    between atoms: C_26  and  C_33
    9  A    between atoms: C_28  and  C_50
   10  A    between atoms: C_34  and  C_50
   11  A    between atoms: N_39  and  N_52
   12  A    between atoms: C_40  and  C_48
   13  A    between atoms: C_48  and  N_52
   14  A    between atoms: C_48  and  C_57
                            x       y       z     vdW  Elec       q    Type
                         _______ _______ _______ _____ _____    ______ ____

>  <TORSDO>
F 14

$$$$
