=
 OpenBabel10232408293D

 45 50  0  0  1  0  0  0  0  0999 V2000
  187.9290  174.8410  136.5940 C   0  0  0  0  0  0  0  0  0  0  0  0
  185.6370  173.8330  137.0620 C   0  0  1  0  0  3  0  0  0  0  0  0
  188.8700  178.3410  136.2960 O   0  0  0  0  0  0  0  0  0  0  0  0
  181.4210  173.6380  137.2460 C   0  0  0  0  0  2  0  0  0  0  0  0
  184.5640  172.5730  135.2170 C   0  0  0  0  0  2  0  0  0  0  0  0
  186.7010  177.4370  136.6910 C   0  0  0  0  0  2  0  0  0  0  0  0
  183.5280  174.8120  137.8320 N   0  0  0  0  0  0  0  0  0  0  0  0
  188.6060  173.6690  136.9930 O   0  0  0  0  0  0  0  0  0  0  0  0
  185.7100  172.5390  136.2250 C   0  0  1  0  0  3  0  0  0  0  0  0
  186.9460  172.4070  135.5710 O   0  0  0  0  0  0  0  0  0  0  0  0
  183.5090  173.5080  135.7920 C   0  0  2  0  0  3  0  0  0  0  0  0
  186.5690  174.9410  136.5590 C   0  0  0  0  0  0  0  0  0  0  0  0
  188.1600  177.3050  136.4110 C   0  0  0  0  0  0  0  0  0  0  0  0
  184.1970  174.1850  136.9270 C   0  0  0  0  0  0  0  0  0  0  0  0
  182.0920  174.9640  137.6820 C   0  0  2  0  0  3  0  0  0  0  0  0
  188.7330  175.9970  136.2580 N   0  0  0  0  0  0  0  0  0  0  0  0
  185.9600  176.2460  136.0860 C   0  0  2  0  0  3  0  0  0  0  0  0
  182.3110  172.7430  136.3570 C   0  0  0  0  0  2  0  0  0  0  0  0
  187.9830  172.5730  137.4540 O   0  0  0  0  0  0  0  0  0  0  0  0
  187.7680  171.7750  136.4090 O   0  0  0  0  0  0  0  0  0  0  0  0
  181.4280  176.9840  139.1850 C   0  0  0  0  0  2  0  0  0  0  0  0
  182.3360  176.1140  139.8330 O   0  0  0  0  0  0  0  0  0  0  0  0
  180.3560  174.7290  139.6530 C   0  0  0  0  0  1  0  0  0  0  0  0
  181.4250  175.5300  138.9380 C   0  0  2  0  0  0  0  0  0  0  0  0
  191.0490  175.8740  137.0580 C   0  0  0  0  0  0  0  0  0  0  0  0
  190.1520  175.8770  136.0590 C   0  0  0  0  0  3  0  0  0  0  0  0
  192.4580  175.8700  136.7850 N   0  0  0  0  0  2  0  0  0  0  0  0
  192.8820  173.5680  136.8850 O   0  0  0  0  0  0  0  0  0  0  0  0
  193.2670  174.7140  136.5400 C   0  0  0  0  0  0  0  0  0  0  0  0
  194.8770  176.5740  135.3130 S   0  0  0  0  0  0  0  0  0  0  0  0
  196.0080  175.0810  137.7870 O   0  0  0  0  0  1  0  0  0  0  0  0
  197.0230  174.0730  135.7860 C   0  0  0  0  0  0  0  0  0  0  0  0
  195.7560  174.2770  136.6650 C   0  0  2  0  0  3  0  0  0  0  0  0
  194.5830  174.8450  135.8520 C   0  0  1  0  0  3  0  0  0  0  0  0
  198.3120  174.3670  136.5530 C   0  0  0  0  0  1  0  0  0  0  0  0
  196.6380  176.3840  134.8240 C   0  0  0  0  0  2  0  0  0  0  0  0
  197.0730  172.6180  135.3580 C   0  0  0  0  0  1  0  0  0  0  0  0
  197.0030  174.9350  134.5120 C   0  0  0  0  0  2  0  0  0  0  0  0
  190.6130  175.8910  138.4860 C   0  0  0  0  0  2  0  0  0  0  0  0
  190.8310  177.2650  139.0930 C   0  0  0  0  0  2  0  0  0  0  0  0
  188.5790  178.0710  140.2770 C   0  0  0  0  0  3  0  0  0  0  0  0
  189.5990  177.7050  139.7440 C   0  0  0  0  0  0  0  0  0  0  0  0
  186.0040  176.3120  134.6900 O   0  0  0  0  0  0  0  0  0  0  0  0
  183.7100  176.8610  134.3790 C   0  0  0  0  0  1  0  0  0  0  0  0
  185.1410  177.3550  134.3530 C   0  0  0  0  0  2  0  0  0  0  0  0
  1  8  1  0  0  0  0
  2 12  1  6  0  0  0
  3 13  2  0  0  0  0
  8 19  1  0  0  0  0
  9  5  1  6  0  0  0
  9  2  1  0  0  0  0
 10  9  1  0  0  0  0
 10 20  1  0  0  0  0
 11  5  1  1  0  0  0
 11 18  1  0  0  0  0
 11 14  1  0  0  0  0
 12  1  2  0  0  0  0
 13  6  1  0  0  0  0
 14  2  1  0  0  0  0
 14  7  2  0  0  0  0
 15  4  1  1  0  0  0
 15  7  1  0  0  0  0
 15 24  1  0  0  0  0
 16 13  1  0  0  0  0
 16  1  1  0  0  0  0
 17 43  1  6  0  0  0
 17 12  1  0  0  0  0
 17  6  1  0  0  0  0
 18  4  1  0  0  0  0
 20 19  1  0  0  0  0
 21 22  1  0  0  0  0
 24 21  1  0  0  0  0
 24 23  1  1  0  0  0
 24 22  1  0  0  0  0
 25 39  1  0  0  0  0
 26 16  1  0  0  0  0
 26 25  2  0  0  0  0
 27 25  1  0  0  0  0
 29 27  1  0  0  0  0
 29 28  2  0  0  0  0
 30 34  1  0  0  0  0
 32 35  1  0  0  0  0
 32 33  1  0  0  0  0
 33 31  1  1  0  0  0
 34 29  1  1  0  0  0
 34 33  1  0  0  0  0
 36 30  1  0  0  0  0
 37 32  1  0  0  0  0
 38 36  1  0  0  0  0
 38 32  1  0  0  0  0
 39 40  1  0  0  0  0
 40 42  1  0  0  0  0
 42 41  3  0  0  0  0
 45 44  1  0  0  0  0
 45 43  1  0  0  0  0
M  END
>  <MODEL>
1

>  <REMARK>
 VINA RESULT:      -5.8      0.000      0.000
  Name = 
  9 active torsions:
  status: ('A' for Active; 'I' for Inactive)
    1  A    between atoms: C_6  and  N_7
    2  A    between atoms: C_6  and  C_10
    3  A    between atoms: C_8  and  C_10
    4  A    between atoms: C_8  and  C_36
    5  A    between atoms: C_23  and  C_31
    6  A    between atoms: C_26  and  C_34
    7  A    between atoms: C_29  and  O_41
    8  A    between atoms: N_37  and  C_45
    9  A    between atoms: C_39  and  O_41
                            x       y       z     vdW  Elec       q    Type
                         _______ _______ _______ _____ _____    ______ ____

>  <TORSDO>
F 9

$$$$
=
 OpenBabel10232408293D

 45 50  0  0  1  0  0  0  0  0999 V2000
  189.6370  174.7070  137.1180 C   0  0  0  0  0  0  0  0  0  0  0  0
  187.1620  175.0400  136.6160 C   0  0  1  0  0  3  0  0  0  0  0  0
  191.7870  176.5860  139.3700 O   0  0  0  0  0  0  0  0  0  0  0  0
  183.4720  177.0800  136.3480 C   0  0  0  0  0  2  0  0  0  0  0  0
  186.5710  175.8450  134.3490 C   0  0  0  0  0  2  0  0  0  0  0  0
  189.4810  176.9590  138.8960 C   0  0  0  0  0  2  0  0  0  0  0  0
  185.4190  176.3660  137.7130 N   0  0  0  0  0  0  0  0  0  0  0  0
  189.6280  173.3790  136.6430 O   0  0  0  0  0  0  0  0  0  0  0  0
  187.1090  174.6470  135.1260 C   0  0  1  0  0  3  0  0  0  0  0  0
  188.3700  174.2620  134.6410 O   0  0  0  0  0  0  0  0  0  0  0  0
  185.7790  176.6850  135.3410 C   0  0  2  0  0  3  0  0  0  0  0  0
  188.5430  175.5210  137.0750 C   0  0  0  0  0  0  0  0  0  0  0  0
  190.7770  176.2470  138.6960 C   0  0  0  0  0  0  0  0  0  0  0  0
  186.1300  176.1120  136.6710 C   0  0  0  0  0  0  0  0  0  0  0  0
  184.3260  177.3180  137.6180 C   0  0  2  0  0  3  0  0  0  0  0  0
  190.8600  175.1950  137.7210 N   0  0  0  0  0  0  0  0  0  0  0  0
  188.6860  176.9390  137.5930 C   0  0  2  0  0  3  0  0  0  0  0  0
  184.2690  176.5300  135.1470 C   0  0  0  0  0  2  0  0  0  0  0  0
  188.5290  172.7630  136.1810 O   0  0  0  0  0  0  0  0  0  0  0  0
  188.4940  172.9540  134.8630 O   0  0  0  0  0  0  0  0  0  0  0  0
  182.9540  178.6180  139.4090 C   0  0  0  0  0  2  0  0  0  0  0  0
  184.0700  177.9550  139.9720 O   0  0  0  0  0  0  0  0  0  0  0  0
  182.6790  176.0960  139.2760 C   0  0  0  0  0  1  0  0  0  0  0  0
  183.4500  177.3360  138.8730 C   0  0  2  0  0  0  0  0  0  0  0  0
  193.0730  174.8070  136.7350 C   0  0  0  0  0  0  0  0  0  0  0  0
  192.0920  174.4670  137.5850 C   0  0  0  0  0  3  0  0  0  0  0  0
  194.2270  173.9720  136.5640 N   0  0  0  0  0  2  0  0  0  0  0  0
  195.6700  174.9530  138.1270 O   0  0  0  0  0  0  0  0  0  0  0  0
  195.4000  173.9740  137.3860 C   0  0  0  0  0  0  0  0  0  0  0  0
  195.3810  171.2260  137.3530 S   0  0  0  0  0  0  0  0  0  0  0  0
  196.8270  172.6960  135.0350 O   0  0  0  0  0  1  0  0  0  0  0  0
  198.5540  171.8600  136.5730 C   0  0  0  0  0  0  0  0  0  0  0  0
  197.4000  172.8670  136.3040 C   0  0  2  0  0  3  0  0  0  0  0  0
  196.3200  172.8010  137.3940 C   0  0  1  0  0  3  0  0  0  0  0  0
  199.1100  171.2590  135.2830 C   0  0  0  0  0  1  0  0  0  0  0  0
  196.8020  170.0980  137.0660 C   0  0  0  0  0  2  0  0  0  0  0  0
  199.6880  172.6080  137.2500 C   0  0  0  0  0  1  0  0  0  0  0  0
  198.1300  170.7110  137.5050 C   0  0  0  0  0  2  0  0  0  0  0  0
  192.9900  176.0600  135.9250 C   0  0  0  0  0  2  0  0  0  0  0  0
  193.9010  175.9710  134.7140 C   0  0  0  0  0  2  0  0  0  0  0  0
  195.7580  177.8830  134.8620 C   0  0  0  0  0  3  0  0  0  0  0  0
  194.9170  177.0190  134.7980 C   0  0  0  0  0  0  0  0  0  0  0  0
  189.3190  177.7340  136.6320 O   0  0  0  0  0  0  0  0  0  0  0  0
  187.6040  179.3780  136.7530 C   0  0  0  0  0  1  0  0  0  0  0  0
  189.0560  179.0470  137.0230 C   0  0  0  0  0  2  0  0  0  0  0  0
  1 16  1  0  0  0  0
  2 14  1  6  0  0  0
  2 12  1  0  0  0  0
  8  1  1  0  0  0  0
  9  5  1  6  0  0  0
  9  2  1  0  0  0  0
 10 20  1  0  0  0  0
 10  9  1  0  0  0  0
 11  5  1  6  0  0  0
 11 14  1  0  0  0  0
 12  1  2  0  0  0  0
 12 17  1  0  0  0  0
 13  6  1  0  0  0  0
 13  3  2  0  0  0  0
 14  7  2  0  0  0  0
 15  4  1  6  0  0  0
 15  7  1  0  0  0  0
 15 24  1  0  0  0  0
 16 13  1  0  0  0  0
 17 43  1  6  0  0  0
 17  6  1  0  0  0  0
 18 11  1  0  0  0  0
 18  4  1  0  0  0  0
 19  8  1  0  0  0  0
 20 19  1  0  0  0  0
 21 22  1  0  0  0  0
 24 23  1  1  0  0  0
 24 21  1  0  0  0  0
 24 22  1  0  0  0  0
 25 26  2  0  0  0  0
 26 16  1  0  0  0  0
 27 25  1  0  0  0  0
 27 29  1  0  0  0  0
 29 28  2  0  0  0  0
 30 34  1  0  0  0  0
 32 37  1  0  0  0  0
 32 38  1  0  0  0  0
 33 31  1  6  0  0  0
 33 32  1  0  0  0  0
 33 34  1  0  0  0  0
 34 29  1  6  0  0  0
 35 32  1  0  0  0  0
 36 30  1  0  0  0  0
 36 38  1  0  0  0  0
 39 25  1  0  0  0  0
 40 42  1  0  0  0  0
 40 39  1  0  0  0  0
 42 41  3  0  0  0  0
 43 45  1  0  0  0  0
 44 45  1  0  0  0  0
M  END
>  <MODEL>
2

>  <REMARK>
 VINA RESULT:      -5.5      2.182      3.837
  Name = 
  9 active torsions:
  status: ('A' for Active; 'I' for Inactive)
    1  A    between atoms: C_6  and  N_7
    2  A    between atoms: C_6  and  C_10
    3  A    between atoms: C_8  and  C_10
    4  A    between atoms: C_8  and  C_36
    5  A    between atoms: C_23  and  C_31
    6  A    between atoms: C_26  and  C_34
    7  A    between atoms: C_29  and  O_41
    8  A    between atoms: N_37  and  C_45
    9  A    between atoms: C_39  and  O_41
                            x       y       z     vdW  Elec       q    Type
                         _______ _______ _______ _____ _____    ______ ____

>  <TORSDO>
F 9

$$$$
=
 OpenBabel10232408293D

 45 50  0  0  1  0  0  0  0  0999 V2000
  192.5680  172.2330  135.0340 C   0  0  0  0  0  0  0  0  0  0  0  0
  194.7820  171.0650  135.5030 C   0  0  1  0  0  3  0  0  0  0  0  0
  191.8740  175.7930  134.7630 O   0  0  0  0  0  0  0  0  0  0  0  0
  198.7460  170.6230  136.8970 C   0  0  0  0  0  2  0  0  0  0  0  0
  195.0040  169.9060  137.6820 C   0  0  0  0  0  2  0  0  0  0  0  0
  193.9560  174.7400  135.2480 C   0  0  0  0  0  2  0  0  0  0  0  0
  197.1000  171.8590  135.5100 N   0  0  0  0  0  0  0  0  0  0  0  0
  191.9900  171.0720  134.4810 O   0  0  0  0  0  0  0  0  0  0  0  0
  194.3050  169.8510  136.3270 C   0  0  1  0  0  3  0  0  0  0  0  0
  192.9090  169.8430  136.4850 O   0  0  0  0  0  0  0  0  0  0  0  0
  196.2690  170.7310  137.4840 C   0  0  2  0  0  3  0  0  0  0  0  0
  193.8260  172.2610  135.5620 C   0  0  0  0  0  0  0  0  0  0  0  0
  192.4890  174.7130  134.9770 C   0  0  0  0  0  0  0  0  0  0  0  0
  196.0990  171.3470  136.1380 C   0  0  0  0  0  0  0  0  0  0  0  0
  198.3900  171.9430  136.1690 C   0  0  2  0  0  3  0  0  0  0  0  0
  191.7940  173.4560  134.9840 N   0  0  0  0  0  0  0  0  0  0  0  0
  194.3260  173.5650  136.1500 C   0  0  2  0  0  3  0  0  0  0  0  0
  197.5240  169.8560  137.4450 C   0  0  0  0  0  2  0  0  0  0  0  0
  192.6450  169.9080  134.3470 O   0  0  0  0  0  0  0  0  0  0  0  0
  192.3990  169.1890  135.4420 O   0  0  0  0  0  0  0  0  0  0  0  0
  200.2310  173.6340  135.4380 C   0  0  0  0  0  2  0  0  0  0  0  0
  199.2040  173.5150  134.4730 O   0  0  0  0  0  0  0  0  0  0  0  0
  200.2300  171.3210  134.3850 C   0  0  0  0  0  1  0  0  0  0  0  0
  199.5120  172.3640  135.2170 C   0  0  2  0  0  0  0  0  0  0  0  0
  189.4110  173.6090  135.5460 C   0  0  0  0  0  0  0  0  0  0  0  0
  190.3960  173.4320  134.6510 C   0  0  0  0  0  3  0  0  0  0  0  0
  188.0350  173.4570  135.1700 N   0  0  0  0  0  2  0  0  0  0  0  0
  187.5620  171.4020  136.1890 O   0  0  0  0  0  0  0  0  0  0  0  0
  187.1330  172.4550  135.6530 C   0  0  0  0  0  0  0  0  0  0  0  0
  184.7670  171.0640  135.7930 S   0  0  0  0  0  0  0  0  0  0  0  0
  185.2020  173.3940  137.7940 O   0  0  0  0  0  1  0  0  0  0  0  0
  183.6860  174.2030  136.0350 C   0  0  0  0  0  0  0  0  0  0  0  0
  185.1230  173.7700  136.4450 C   0  0  2  0  0  3  0  0  0  0  0  0
  185.6590  172.6470  135.5440 C   0  0  1  0  0  3  0  0  0  0  0  0
  182.8280  174.5770  137.2420 C   0  0  0  0  0  1  0  0  0  0  0  0
  183.0660  171.7510  135.8940 C   0  0  0  0  0  2  0  0  0  0  0  0
  183.7970  175.4380  135.1580 C   0  0  0  0  0  1  0  0  0  0  0  0
  182.9510  173.1200  135.2260 C   0  0  0  0  0  2  0  0  0  0  0  0
  189.7140  173.9560  136.9660 C   0  0  0  0  0  2  0  0  0  0  0  0
  188.8820  175.1460  137.4120 C   0  0  0  0  0  2  0  0  0  0  0  0
  190.4440  176.8790  138.7080 C   0  0  0  0  0  3  0  0  0  0  0  0
  189.7400  176.0950  138.1200 C   0  0  0  0  0  0  0  0  0  0  0  0
  193.7830  173.7500  137.4260 O   0  0  0  0  0  0  0  0  0  0  0  0
  195.7380  173.8550  138.7770 C   0  0  0  0  0  1  0  0  0  0  0  0
  194.6550  174.6340  138.0620 C   0  0  0  0  0  2  0  0  0  0  0  0
  1 12  2  0  0  0  0
  2 12  1  1  0  0  0
  2 14  1  0  0  0  0
  2  9  1  0  0  0  0
  3 13  2  0  0  0  0
  4 18  1  0  0  0  0
  6 17  1  0  0  0  0
  7 14  2  0  0  0  0
  7 15  1  0  0  0  0
  8  1  1  0  0  0  0
  9 10  1  0  0  0  0
  9  5  1  1  0  0  0
 11 18  1  6  0  0  0
 11  5  1  0  0  0  0
 12 17  1  0  0  0  0
 13 16  1  0  0  0  0
 13  6  1  0  0  0  0
 14 11  1  0  0  0  0
 15  4  1  6  0  0  0
 16  1  1  0  0  0  0
 17 43  1  1  0  0  0
 19  8  1  0  0  0  0
 19 20  1  0  0  0  0
 20 10  1  0  0  0  0
 22 24  1  0  0  0  0
 22 21  1  0  0  0  0
 24 23  1  6  0  0  0
 24 21  1  0  0  0  0
 24 15  1  0  0  0  0
 25 39  1  0  0  0  0
 26 16  1  0  0  0  0
 26 25  2  0  0  0  0
 27 25  1  0  0  0  0
 27 29  1  0  0  0  0
 29 28  2  0  0  0  0
 30 36  1  0  0  0  0
 32 33  1  0  0  0  0
 32 35  1  0  0  0  0
 33 31  1  1  0  0  0
 34 29  1  1  0  0  0
 34 30  1  0  0  0  0
 34 33  1  0  0  0  0
 37 32  1  0  0  0  0
 38 36  1  0  0  0  0
 38 32  1  0  0  0  0
 39 40  1  0  0  0  0
 40 42  1  0  0  0  0
 42 41  3  0  0  0  0
 43 45  1  0  0  0  0
 45 44  1  0  0  0  0
M  END
>  <MODEL>
3

>  <REMARK>
 VINA RESULT:      -3.9      3.208     11.089
  Name = 
  9 active torsions:
  status: ('A' for Active; 'I' for Inactive)
    1  A    between atoms: C_6  and  N_7
    2  A    between atoms: C_6  and  C_10
    3  A    between atoms: C_8  and  C_10
    4  A    between atoms: C_8  and  C_36
    5  A    between atoms: C_23  and  C_31
    6  A    between atoms: C_26  and  C_34
    7  A    between atoms: C_29  and  O_41
    8  A    between atoms: N_37  and  C_45
    9  A    between atoms: C_39  and  O_41
                            x       y       z     vdW  Elec       q    Type
                         _______ _______ _______ _____ _____    ______ ____

>  <TORSDO>
F 9

$$$$
=
 OpenBabel10232408293D

 45 50  0  0  1  0  0  0  0  0999 V2000
  190.0480  175.1020  137.8000 C   0  0  0  0  0  0  0  0  0  0  0  0
  192.5410  174.7090  138.1410 C   0  0  1  0  0  3  0  0  0  0  0  0
  187.6790  173.1760  135.8230 O   0  0  0  0  0  0  0  0  0  0  0  0
  196.4160  173.2510  137.2980 C   0  0  0  0  0  2  0  0  0  0  0  0
  194.0880  176.3640  137.1370 C   0  0  0  0  0  2  0  0  0  0  0  0
  190.0180  172.7990  136.0810 C   0  0  0  0  0  2  0  0  0  0  0  0
  193.9980  172.8050  137.6370 N   0  0  0  0  0  0  0  0  0  0  0  0
  189.9430  175.9070  138.9530 O   0  0  0  0  0  0  0  0  0  0  0  0
  193.0550  176.1600  138.2410 C   0  0  1  0  0  3  0  0  0  0  0  0
  192.0120  177.0950  138.1280 O   0  0  0  0  0  0  0  0  0  0  0  0
  194.6190  174.9830  136.7800 C   0  0  2  0  0  3  0  0  0  0  0  0
  191.2280  174.5770  137.3620 C   0  0  0  0  0  0  0  0  0  0  0  0
  188.7680  173.5780  136.3170 C   0  0  0  0  0  0  0  0  0  0  0  0
  193.6850  174.0420  137.4610 C   0  0  0  0  0  0  0  0  0  0  0  0
  195.2260  172.2890  137.0600 C   0  0  2  0  0  3  0  0  0  0  0  0
  188.8260  174.7880  137.0890 N   0  0  0  0  0  0  0  0  0  0  0  0
  191.2140  173.7480  136.0920 C   0  0  2  0  0  3  0  0  0  0  0  0
  196.0210  174.7430  137.3440 C   0  0  0  0  0  2  0  0  0  0  0  0
  190.9740  176.1670  139.7730 O   0  0  0  0  0  0  0  0  0  0  0  0
  191.5340  177.3010  139.3540 O   0  0  0  0  0  0  0  0  0  0  0  0
  194.5550  169.8000  137.4240 C   0  0  0  0  0  2  0  0  0  0  0  0
  194.7830  170.4740  138.6470 O   0  0  0  0  0  0  0  0  0  0  0  0
  197.0010  170.4390  137.6730 C   0  0  0  0  0  1  0  0  0  0  0  0
  195.5570  170.8760  137.5450 C   0  0  2  0  0  0  0  0  0  0  0  0
  187.0670  176.4140  136.5570 C   0  0  0  0  0  0  0  0  0  0  0  0
  187.6050  175.4920  137.3720 C   0  0  0  0  0  3  0  0  0  0  0  0
  185.9100  177.1640  136.9520 N   0  0  0  0  0  2  0  0  0  0  0  0
  184.3010  176.1910  135.5550 O   0  0  0  0  0  0  0  0  0  0  0  0
  184.5580  176.9000  136.5610 C   0  0  0  0  0  0  0  0  0  0  0  0
  182.0210  177.9140  136.2640 S   0  0  0  0  0  0  0  0  0  0  0  0
  182.3730  175.3720  138.0080 O   0  0  0  0  0  1  0  0  0  0  0  0
  182.0850  177.2810  139.5310 C   0  0  0  0  0  0  0  0  0  0  0  0
  182.9840  176.5320  138.5070 C   0  0  2  0  0  3  0  0  0  0  0  0
  183.4200  177.4480  137.3540 C   0  0  1  0  0  3  0  0  0  0  0  0
  180.9940  176.3810  140.1100 C   0  0  0  0  0  1  0  0  0  0  0  0
  180.7760  178.2250  137.5780 C   0  0  0  0  0  2  0  0  0  0  0  0
  182.9580  177.7350  140.6860 C   0  0  0  0  0  1  0  0  0  0  0  0
  181.4200  178.5310  138.9290 C   0  0  0  0  0  2  0  0  0  0  0  0
  187.6630  176.7000  135.2180 C   0  0  0  0  0  2  0  0  0  0  0  0
  188.9800  177.4390  135.3690 C   0  0  0  0  0  2  0  0  0  0  0  0
  188.8290  179.0790  137.4690 C   0  0  0  0  0  3  0  0  0  0  0  0
  188.9000  178.3360  136.5210 C   0  0  0  0  0  0  0  0  0  0  0  0
  191.1710  174.5900  134.9760 O   0  0  0  0  0  0  0  0  0  0  0  0
  192.7730  172.9470  134.3460 C   0  0  0  0  0  1  0  0  0  0  0  0
  192.4050  174.4150  134.3470 C   0  0  0  0  0  2  0  0  0  0  0  0
  1  8  1  0  0  0  0
  2 12  1  6  0  0  0
  2  9  1  0  0  0  0
  3 13  2  0  0  0  0
  4 18  1  0  0  0  0
  6 17  1  0  0  0  0
  6 13  1  0  0  0  0
  8 19  1  0  0  0  0
  9  5  1  6  0  0  0
 10  9  1  0  0  0  0
 10 20  1  0  0  0  0
 11  5  1  1  0  0  0
 11 18  1  0  0  0  0
 11 14  1  0  0  0  0
 12  1  2  0  0  0  0
 13 16  1  0  0  0  0
 14  7  2  0  0  0  0
 14  2  1  0  0  0  0
 15  4  1  1  0  0  0
 15 24  1  0  0  0  0
 15  7  1  0  0  0  0
 16 26  1  0  0  0  0
 16  1  1  0  0  0  0
 17 43  1  6  0  0  0
 17 12  1  0  0  0  0
 20 19  1  0  0  0  0
 21 24  1  0  0  0  0
 21 22  1  0  0  0  0
 24 23  1  6  0  0  0
 24 22  1  0  0  0  0
 25 27  1  0  0  0  0
 25 26  2  0  0  0  0
 28 29  2  0  0  0  0
 29 27  1  0  0  0  0
 30 34  1  0  0  0  0
 30 36  1  0  0  0  0
 32 35  1  0  0  0  0
 32 37  1  0  0  0  0
 33 31  1  6  0  0  0
 33 32  1  0  0  0  0
 34 29  1  6  0  0  0
 34 33  1  0  0  0  0
 36 38  1  0  0  0  0
 38 32  1  0  0  0  0
 39 40  1  0  0  0  0
 39 25  1  0  0  0  0
 40 42  1  0  0  0  0
 42 41  3  0  0  0  0
 44 45  1  0  0  0  0
 45 43  1  0  0  0  0
M  END
>  <MODEL>
4

>  <REMARK>
 VINA RESULT:      -3.9      3.115     10.408
  Name = 
  9 active torsions:
  status: ('A' for Active; 'I' for Inactive)
    1  A    between atoms: C_6  and  N_7
    2  A    between atoms: C_6  and  C_10
    3  A    between atoms: C_8  and  C_10
    4  A    between atoms: C_8  and  C_36
    5  A    between atoms: C_23  and  C_31
    6  A    between atoms: C_26  and  C_34
    7  A    between atoms: C_29  and  O_41
    8  A    between atoms: N_37  and  C_45
    9  A    between atoms: C_39  and  O_41
                            x       y       z     vdW  Elec       q    Type
                         _______ _______ _______ _____ _____    ______ ____

>  <TORSDO>
F 9

$$$$
=
 OpenBabel10232408293D

 45 50  0  0  1  0  0  0  0  0999 V2000
  189.5740  174.9410  137.5620 C   0  0  0  0  0  0  0  0  0  0  0  0
  192.1030  174.6680  137.6870 C   0  0  1  0  0  3  0  0  0  0  0  0
  187.1710  173.0910  135.5550 O   0  0  0  0  0  0  0  0  0  0  0  0
  195.9770  173.5440  136.4290 C   0  0  0  0  0  2  0  0  0  0  0  0
  193.4810  176.5090  136.7650 C   0  0  0  0  0  2  0  0  0  0  0  0
  189.5390  172.8320  135.6100 C   0  0  0  0  0  2  0  0  0  0  0  0
  193.6170  172.9190  136.8820 N   0  0  0  0  0  0  0  0  0  0  0  0
  189.5130  175.6150  138.8000 O   0  0  0  0  0  0  0  0  0  0  0  0
  192.5450  176.1290  137.9080 C   0  0  1  0  0  3  0  0  0  0  0  0
  191.4480  177.0050  137.9680 O   0  0  0  0  0  0  0  0  0  0  0  0
  194.0570  175.2070  136.2250 C   0  0  2  0  0  3  0  0  0  0  0  0
  190.7450  174.5380  136.9900 C   0  0  0  0  0  0  0  0  0  0  0  0
  188.2700  173.5050  136.0140 C   0  0  0  0  0  0  0  0  0  0  0  0
  193.2270  174.1460  136.8630 C   0  0  0  0  0  0  0  0  0  0  0  0
  194.8250  172.5410  136.1700 C   0  0  2  0  0  3  0  0  0  0  0  0
  188.3210  174.6290  136.9070 N   0  0  0  0  0  0  0  0  0  0  0  0
  190.6810  173.8460  135.6420 C   0  0  2  0  0  3  0  0  0  0  0  0
  195.5080  174.9960  136.6630 C   0  0  0  0  0  2  0  0  0  0  0  0
  190.5860  175.8490  139.5710 O   0  0  0  0  0  0  0  0  0  0  0  0
  191.0530  177.0530  139.2400 O   0  0  0  0  0  0  0  0  0  0  0  0
  194.8610  170.0040  135.5850 C   0  0  0  0  0  2  0  0  0  0  0  0
  194.1970  170.2590  136.8080 O   0  0  0  0  0  0  0  0  0  0  0  0
  196.4830  170.8600  137.3430 C   0  0  0  0  0  1  0  0  0  0  0  0
  195.2660  171.1080  136.4760 C   0  0  2  0  0  0  0  0  0  0  0  0
  186.5220  176.2910  136.7600 C   0  0  0  0  0  0  0  0  0  0  0  0
  187.0890  175.2250  137.3470 C   0  0  0  0  0  3  0  0  0  0  0  0
  185.3530  176.9080  137.3190 N   0  0  0  0  0  2  0  0  0  0  0  0
  183.8790  176.6950  135.5110 O   0  0  0  0  0  0  0  0  0  0  0  0
  184.0460  176.9240  136.7360 C   0  0  0  0  0  0  0  0  0  0  0  0
  182.8430  176.1450  139.0810 S   0  0  0  0  0  0  0  0  0  0  0  0
  183.6530  179.1250  138.7860 O   0  0  0  0  0  1  0  0  0  0  0  0
  181.2230  178.9800  138.4360 C   0  0  0  0  0  0  0  0  0  0  0  0
  182.6540  178.6840  137.9040 C   0  0  2  0  0  3  0  0  0  0  0  0
  182.8460  177.1960  137.5780 C   0  0  1  0  0  3  0  0  0  0  0  0
  181.2180  180.0660  139.5110 C   0  0  0  0  0  1  0  0  0  0  0  0
  181.4520  176.9660  139.9550 C   0  0  0  0  0  2  0  0  0  0  0  0
  180.3830  179.4860  137.2770 C   0  0  0  0  0  1  0  0  0  0  0  0
  180.5330  177.7260  139.0010 C   0  0  0  0  0  2  0  0  0  0  0  0
  187.0960  176.8800  135.5130 C   0  0  0  0  0  2  0  0  0  0  0  0
  187.1340  178.3950  135.6100 C   0  0  0  0  0  2  0  0  0  0  0  0
  188.9810  179.1110  137.3990 C   0  0  0  0  0  3  0  0  0  0  0  0
  188.1440  178.7900  136.5900 C   0  0  0  0  0  0  0  0  0  0  0  0
  190.5090  174.7950  134.6290 O   0  0  0  0  0  0  0  0  0  0  0  0
  190.6640  177.1520  134.3470 C   0  0  0  0  0  1  0  0  0  0  0  0
  190.3680  176.0110  135.2970 C   0  0  0  0  0  2  0  0  0  0  0  0
  1  8  1  0  0  0  0
  2 14  1  6  0  0  0
  2  9  1  0  0  0  0
  3 13  2  0  0  0  0
  4 18  1  0  0  0  0
  6 17  1  0  0  0  0
  6 13  1  0  0  0  0
  8 19  1  0  0  0  0
  9  5  1  6  0  0  0
  9 10  1  0  0  0  0
 10 20  1  0  0  0  0
 11 18  1  1  0  0  0
 11  5  1  0  0  0  0
 11 14  1  0  0  0  0
 12  1  2  0  0  0  0
 12  2  1  0  0  0  0
 13 16  1  0  0  0  0
 14  7  2  0  0  0  0
 15  4  1  1  0  0  0
 15 24  1  0  0  0  0
 15  7  1  0  0  0  0
 16 26  1  0  0  0  0
 16  1  1  0  0  0  0
 17 43  1  6  0  0  0
 17 12  1  0  0  0  0
 20 19  1  0  0  0  0
 21 24  1  0  0  0  0
 21 22  1  0  0  0  0
 24 22  1  0  0  0  0
 24 23  1  1  0  0  0
 25 27  1  0  0  0  0
 25 26  2  0  0  0  0
 28 29  2  0  0  0  0
 29 27  1  0  0  0  0
 30 36  1  0  0  0  0
 32 38  1  0  0  0  0
 32 35  1  0  0  0  0
 33 32  1  0  0  0  0
 33 31  1  1  0  0  0
 34 29  1  1  0  0  0
 34 33  1  0  0  0  0
 34 30  1  0  0  0  0
 37 32  1  0  0  0  0
 38 36  1  0  0  0  0
 39 40  1  0  0  0  0
 39 25  1  0  0  0  0
 40 42  1  0  0  0  0
 42 41  3  0  0  0  0
 43 45  1  0  0  0  0
 44 45  1  0  0  0  0
M  END
>  <MODEL>
5

>  <REMARK>
 VINA RESULT:      -3.8      3.082     10.382
  Name = 
  9 active torsions:
  status: ('A' for Active; 'I' for Inactive)
    1  A    between atoms: C_6  and  N_7
    2  A    between atoms: C_6  and  C_10
    3  A    between atoms: C_8  and  C_10
    4  A    between atoms: C_8  and  C_36
    5  A    between atoms: C_23  and  C_31
    6  A    between atoms: C_26  and  C_34
    7  A    between atoms: C_29  and  O_41
    8  A    between atoms: N_37  and  C_45
    9  A    between atoms: C_39  and  O_41
                            x       y       z     vdW  Elec       q    Type
                         _______ _______ _______ _____ _____    ______ ____

>  <TORSDO>
F 9

$$$$
=
 OpenBabel10232408293D

 45 50  0  0  1  0  0  0  0  0999 V2000
  187.6580  174.7540  136.9470 C   0  0  0  0  0  0  0  0  0  0  0  0
  185.2350  173.9770  137.0520 C   0  0  1  0  0  3  0  0  0  0  0  0
  188.9710  178.1440  136.8630 O   0  0  0  0  0  0  0  0  0  0  0  0
  181.0390  174.2030  136.6120 C   0  0  0  0  0  2  0  0  0  0  0  0
  184.3290  172.8420  135.0450 C   0  0  0  0  0  2  0  0  0  0  0  0
  186.6890  177.4590  136.9170 C   0  0  0  0  0  2  0  0  0  0  0  0
  183.1410  175.1570  137.5250 N   0  0  0  0  0  0  0  0  0  0  0  0
  188.1500  173.5180  137.4170 O   0  0  0  0  0  0  0  0  0  0  0  0
  185.3040  172.6870  136.2080 C   0  0  1  0  0  3  0  0  0  0  0  0
  186.6040  172.4360  135.7400 O   0  0  0  0  0  0  0  0  0  0  0  0
  183.2970  173.8750  135.4780 C   0  0  2  0  0  3  0  0  0  0  0  0
  186.3350  174.9890  136.7150 C   0  0  0  0  0  0  0  0  0  0  0  0
  188.1540  177.1840  136.8510 C   0  0  0  0  0  0  0  0  0  0  0  0
  183.8720  174.4720  136.7160 C   0  0  0  0  0  0  0  0  0  0  0  0
  181.7650  175.4530  137.1690 C   0  0  2  0  0  3  0  0  0  0  0  0
  188.6130  175.8250  136.7560 N   0  0  0  0  0  0  0  0  0  0  0  0
  185.9340  176.3520  136.1850 C   0  0  2  0  0  3  0  0  0  0  0  0
  181.9590  173.2300  135.8450 C   0  0  0  0  0  2  0  0  0  0  0  0
  187.3620  172.4860  137.7580 O   0  0  0  0  0  0  0  0  0  0  0  0
  187.2270  171.7200  136.6760 O   0  0  0  0  0  0  0  0  0  0  0  0
  180.2650  177.3520  138.1310 C   0  0  0  0  0  2  0  0  0  0  0  0
  181.5230  177.2890  138.7760 O   0  0  0  0  0  0  0  0  0  0  0  0
  180.4990  175.2040  139.4690 C   0  0  0  0  0  1  0  0  0  0  0  0
  180.9780  176.0750  138.3250 C   0  0  2  0  0  0  0  0  0  0  0  0
  190.7110  175.1110  135.7050 C   0  0  0  0  0  0  0  0  0  0  0  0
  190.0270  175.5660  136.7660 C   0  0  0  0  0  2  0  0  0  0  0  0
  192.0990  174.7620  135.8140 N   0  0  0  0  0  0  0  0  0  0  0  0
  192.5520  175.5780  137.9630 O   0  0  0  0  0  0  0  0  0  0  0  0
  192.9020  174.8530  136.9970 C   0  0  0  0  0  0  0  0  0  0  0  0
  194.3800  172.9430  135.6850 S   0  0  0  0  0  0  0  0  0  0  0  0
  195.7050  175.6990  136.2060 O   0  0  0  0  0  1  0  0  0  0  0  0
  196.6180  174.1160  137.8520 C   0  0  0  0  0  0  0  0  0  0  0  0
  195.4040  174.9520  137.3550 C   0  0  2  0  0  3  0  0  0  0  0  0
  194.1670  174.0740  137.1140 C   0  0  1  0  0  3  0  0  0  0  0  0
  197.9440  174.6390  137.3030 C   0  0  0  0  0  1  0  0  0  0  0  0
  196.1100  172.4320  136.0290 C   0  0  0  0  0  2  0  0  0  0  0  0
  196.6800  174.2250  139.3640 C   0  0  0  0  0  1  0  0  0  0  0  0
  196.4930  172.6250  137.4950 C   0  0  0  0  0  2  0  0  0  0  0  0
  190.0500  174.9380  134.3770 C   0  0  0  0  0  2  0  0  0  0  0  0
  189.2280  173.6620  134.3540 C   0  0  0  0  0  2  0  0  0  0  0  0
  190.8630  171.5570  134.5030 C   0  0  0  0  0  3  0  0  0  0  0  0
  190.1260  172.5100  134.4340 C   0  0  0  0  0  0  0  0  0  0  0  0
  186.1900  176.4220  134.8120 O   0  0  0  0  0  0  0  0  0  0  0  0
  184.0090  177.3680  134.9140 C   0  0  0  0  0  1  0  0  0  0  0  0
  185.4110  177.4860  134.3560 C   0  0  0  0  0  2  0  0  0  0  0  0
  1  8  1  0  0  0  0
  2 12  1  6  0  0  0
  8 19  1  0  0  0  0
  9  5  1  6  0  0  0
  9  2  1  0  0  0  0
 10  9  1  0  0  0  0
 10 20  1  0  0  0  0
 11  5  1  1  0  0  0
 11 18  1  0  0  0  0
 11 14  1  0  0  0  0
 12  1  2  0  0  0  0
 13  3  2  0  0  0  0
 13  6  1  0  0  0  0
 14  2  1  0  0  0  0
 14  7  2  0  0  0  0
 15  4  1  1  0  0  0
 15  7  1  0  0  0  0
 15 24  1  0  0  0  0
 16 26  1  0  0  0  0
 16 13  1  0  0  0  0
 16  1  1  0  0  0  0
 17 43  1  6  0  0  0
 17 12  1  0  0  0  0
 17  6  1  0  0  0  0
 18  4  1  0  0  0  0
 20 19  1  0  0  0  0
 21 24  1  0  0  0  0
 21 22  1  0  0  0  0
 24 22  1  0  0  0  0
 24 23  1  1  0  0  0
 25 27  2  0  0  0  0
 25 26  1  0  0  0  0
 27 29  1  0  0  0  0
 29 28  2  0  0  0  0
 30 36  1  0  0  0  0
 30 34  1  0  0  0  0
 32 37  1  0  0  0  0
 33 31  1  6  0  0  0
 33 32  1  0  0  0  0
 34 29  1  6  0  0  0
 34 33  1  0  0  0  0
 35 32  1  0  0  0  0
 36 38  1  0  0  0  0
 38 32  1  0  0  0  0
 39 25  1  0  0  0  0
 40 39  1  0  0  0  0
 40 42  1  0  0  0  0
 42 41  3  0  0  0  0
 45 43  1  0  0  0  0
 45 44  1  0  0  0  0
M  END
>  <MODEL>
6

>  <REMARK>
 VINA RESULT:      -3.7      1.526      2.553
  Name = 
  9 active torsions:
  status: ('A' for Active; 'I' for Inactive)
    1  A    between atoms: C_6  and  N_7
    2  A    between atoms: C_6  and  C_10
    3  A    between atoms: C_8  and  C_10
    4  A    between atoms: C_8  and  C_36
    5  A    between atoms: C_23  and  C_31
    6  A    between atoms: C_26  and  C_34
    7  A    between atoms: C_29  and  O_41
    8  A    between atoms: N_37  and  C_45
    9  A    between atoms: C_39  and  O_41
                            x       y       z     vdW  Elec       q    Type
                         _______ _______ _______ _____ _____    ______ ____

>  <TORSDO>
F 9

$$$$
=
 OpenBabel10232408293D

 45 50  0  0  1  0  0  0  0  0999 V2000
  188.6510  176.8120  136.6200 C   0  0  0  0  0  0  0  0  0  0  0  0
  190.5860  175.5160  135.5890 C   0  0  1  0  0  3  0  0  0  0  0  0
  188.7210  179.3060  139.2660 O   0  0  0  0  0  0  0  0  0  0  0  0
  194.4350  173.7950  135.3310 C   0  0  0  0  0  2  0  0  0  0  0  0
  190.6780  173.0820  136.0410 C   0  0  0  0  0  2  0  0  0  0  0  0
  190.5540  178.0830  138.3580 C   0  0  0  0  0  2  0  0  0  0  0  0
  193.0160  175.7930  135.7220 N   0  0  0  0  0  0  0  0  0  0  0  0
  187.8060  176.5700  135.5170 O   0  0  0  0  0  0  0  0  0  0  0  0
  189.9070  174.1640  135.2900 C   0  0  1  0  0  3  0  0  0  0  0  0
  188.5530  174.1630  135.6650 O   0  0  0  0  0  0  0  0  0  0  0  0
  192.0760  173.6340  136.2810 C   0  0  2  0  0  3  0  0  0  0  0  0
  189.9130  176.3040  136.7180 C   0  0  0  0  0  0  0  0  0  0  0  0
  189.1020  178.4100  138.4640 C   0  0  0  0  0  0  0  0  0  0  0  0
  191.9660  175.0780  135.9340 C   0  0  0  0  0  0  0  0  0  0  0  0
  194.3300  175.2160  135.9390 C   0  0  2  0  0  3  0  0  0  0  0  0
  188.1550  177.6850  137.6630 N   0  0  0  0  0  0  0  0  0  0  0  0
  190.7130  176.6150  137.9670 C   0  0  2  0  0  3  0  0  0  0  0  0
  193.1100  173.0030  135.3460 C   0  0  0  0  0  2  0  0  0  0  0  0
  188.1870  175.8880  134.4250 O   0  0  0  0  0  0  0  0  0  0  0  0
  187.8560  174.6130  134.6220 O   0  0  0  0  0  0  0  0  0  0  0  0
  196.6610  175.5150  134.8170 C   0  0  0  0  0  2  0  0  0  0  0  0
  196.6530  175.9670  136.1580 O   0  0  0  0  0  0  0  0  0  0  0  0
  195.1780  177.5610  135.0830 C   0  0  0  0  0  1  0  0  0  0  0  0
  195.4600  176.1140  135.4310 C   0  0  2  0  0  0  0  0  0  0  0  0
  185.7550  177.1760  137.6760 C   0  0  0  0  0  0  0  0  0  0  0  0
  186.7670  178.0560  137.7190 C   0  0  0  0  0  3  0  0  0  0  0  0
  184.3920  177.6200  137.6180 N   0  0  0  0  0  2  0  0  0  0  0  0
  183.6640  176.9710  139.7480 O   0  0  0  0  0  0  0  0  0  0  0  0
  183.4670  177.6540  138.7110 C   0  0  0  0  0  0  0  0  0  0  0  0
  181.3940  178.5640  140.2680 S   0  0  0  0  0  0  0  0  0  0  0  0
  183.2960  180.6680  139.0100 O   0  0  0  0  0  1  0  0  0  0  0  0
  181.2260  180.6550  137.6830 C   0  0  0  0  0  0  0  0  0  0  0  0
  182.5350  179.9240  138.0960 C   0  0  2  0  0  3  0  0  0  0  0  0
  182.2550  178.5190  138.6490 C   0  0  1  0  0  3  0  0  0  0  0  0
  181.2860  182.1550  137.9670 C   0  0  0  0  0  1  0  0  0  0  0  0
  180.2070  179.9110  139.8800 C   0  0  0  0  0  2  0  0  0  0  0  0
  181.0400  180.4840  136.1870 C   0  0  0  0  0  1  0  0  0  0  0  0
  179.9820  180.0740  138.3780 C   0  0  0  0  0  2  0  0  0  0  0  0
  186.0120  175.7050  137.6710 C   0  0  0  0  0  2  0  0  0  0  0  0
  185.0650  175.0020  136.7160 C   0  0  0  0  0  2  0  0  0  0  0  0
  184.5730  172.5400  137.6200 C   0  0  0  0  0  3  0  0  0  0  0  0
  184.7970  173.6520  137.2090 C   0  0  0  0  0  0  0  0  0  0  0  0
  190.2960  175.7900  139.0160 O   0  0  0  0  0  0  0  0  0  0  0  0
  189.7710  176.4810  141.2310 C   0  0  0  0  0  1  0  0  0  0  0  0
  190.8390  176.3680  140.1650 C   0  0  0  0  0  2  0  0  0  0  0  0
  1 12  2  0  0  0  0
  1 16  1  0  0  0  0
  2 14  1  1  0  0  0
  2 12  1  0  0  0  0
  4 18  1  0  0  0  0
  5 11  1  0  0  0  0
  6 13  1  0  0  0  0
  7 14  2  0  0  0  0
  7 15  1  0  0  0  0
  8  1  1  0  0  0  0
  9  2  1  0  0  0  0
  9 10  1  0  0  0  0
  9  5  1  1  0  0  0
 11 18  1  6  0  0  0
 12 17  1  0  0  0  0
 13  3  2  0  0  0  0
 14 11  1  0  0  0  0
 15  4  1  6  0  0  0
 16 26  1  0  0  0  0
 16 13  1  0  0  0  0
 17  6  1  0  0  0  0
 17 43  1  1  0  0  0
 19 20  1  0  0  0  0
 19  8  1  0  0  0  0
 20 10  1  0  0  0  0
 21 24  1  0  0  0  0
 21 22  1  0  0  0  0
 24 23  1  6  0  0  0
 24 15  1  0  0  0  0
 24 22  1  0  0  0  0
 25 26  2  0  0  0  0
 27 25  1  0  0  0  0
 27 29  1  0  0  0  0
 29 28  2  0  0  0  0
 32 35  1  0  0  0  0
 32 33  1  0  0  0  0
 32 38  1  0  0  0  0
 33 34  1  0  0  0  0
 33 31  1  1  0  0  0
 34 29  1  1  0  0  0
 34 30  1  0  0  0  0
 36 30  1  0  0  0  0
 37 32  1  0  0  0  0
 38 36  1  0  0  0  0
 39 25  1  0  0  0  0
 40 42  1  0  0  0  0
 40 39  1  0  0  0  0
 42 41  3  0  0  0  0
 43 45  1  0  0  0  0
 45 44  1  0  0  0  0
M  END
>  <MODEL>
7

>  <REMARK>
 VINA RESULT:      -3.6      3.168     10.441
  Name = 
  9 active torsions:
  status: ('A' for Active; 'I' for Inactive)
    1  A    between atoms: C_6  and  N_7
    2  A    between atoms: C_6  and  C_10
    3  A    between atoms: C_8  and  C_10
    4  A    between atoms: C_8  and  C_36
    5  A    between atoms: C_23  and  C_31
    6  A    between atoms: C_26  and  C_34
    7  A    between atoms: C_29  and  O_41
    8  A    between atoms: N_37  and  C_45
    9  A    between atoms: C_39  and  O_41
                            x       y       z     vdW  Elec       q    Type
                         _______ _______ _______ _____ _____    ______ ____

>  <TORSDO>
F 9

$$$$
=
 OpenBabel10232408293D

 45 50  0  0  1  0  0  0  0  0999 V2000
  188.3820  177.0720  137.9750 C   0  0  0  0  0  0  0  0  0  0  0  0
  189.9510  175.6120  136.5990 C   0  0  1  0  0  3  0  0  0  0  0  0
  189.1940  179.4900  140.5670 O   0  0  0  0  0  0  0  0  0  0  0  0
  193.4910  173.5210  135.6250 C   0  0  0  0  0  2  0  0  0  0  0  0
  189.8770  173.1720  137.0220 C   0  0  0  0  0  2  0  0  0  0  0  0
  190.6930  178.1100  139.3320 C   0  0  0  0  0  2  0  0  0  0  0  0
  192.3790  175.6430  136.2770 N   0  0  0  0  0  0  0  0  0  0  0  0
  187.3270  176.9380  137.0480 O   0  0  0  0  0  0  0  0  0  0  0  0
  189.0940  174.3400  136.4300 C   0  0  1  0  0  3  0  0  0  0  0  0
  187.8400  174.4670  137.0500 O   0  0  0  0  0  0  0  0  0  0  0  0
  191.3440  173.5760  136.9980 C   0  0  2  0  0  3  0  0  0  0  0  0
  189.5820  176.4390  137.8350 C   0  0  0  0  0  0  0  0  0  0  0  0
  189.3270  178.5780  139.7070 C   0  0  0  0  0  0  0  0  0  0  0  0
  191.3190  175.0320  136.6800 C   0  0  0  0  0  0  0  0  0  0  0  0
  193.6450  174.9330  136.2450 C   0  0  2  0  0  3  0  0  0  0  0  0
  188.1800  177.9680  139.0950 N   0  0  0  0  0  0  0  0  0  0  0  0
  190.6280  176.6420  138.9140 C   0  0  2  0  0  3  0  0  0  0  0  0
  192.1180  172.8660  135.8850 C   0  0  0  0  0  2  0  0  0  0  0  0
  187.4290  176.2450  135.9030 O   0  0  0  0  0  0  0  0  0  0  0  0
  187.0120  175.0050  136.1560 O   0  0  0  0  0  0  0  0  0  0  0  0
  196.1350  175.2260  135.5430 C   0  0  0  0  0  2  0  0  0  0  0  0
  195.7060  176.2490  136.4200 O   0  0  0  0  0  0  0  0  0  0  0  0
  194.3880  176.7030  134.4370 C   0  0  0  0  0  1  0  0  0  0  0  0
  194.7470  175.7250  135.5370 C   0  0  2  0  0  0  0  0  0  0  0  0
  186.4270  178.6730  140.6600 C   0  0  0  0  0  0  0  0  0  0  0  0
  186.8710  178.4740  139.4090 C   0  0  0  0  0  3  0  0  0  0  0  0
  185.0700  179.0690  140.9070 N   0  0  0  0  0  2  0  0  0  0  0  0
  184.5260  179.9750  138.8170 O   0  0  0  0  0  0  0  0  0  0  0  0
  184.1350  179.5380  139.9290 C   0  0  0  0  0  0  0  0  0  0  0  0
  181.7040  179.7630  138.6670 S   0  0  0  0  0  0  0  0  0  0  0  0
  182.3290  177.1120  140.1520 O   0  0  0  0  0  1  0  0  0  0  0  0
  180.8010  178.4130  141.5730 C   0  0  0  0  0  0  0  0  0  0  0  0
  182.2250  178.2470  140.9700 C   0  0  2  0  0  3  0  0  0  0  0  0
  182.6700  179.5020  140.2040 C   0  0  1  0  0  3  0  0  0  0  0  0
  180.0040  177.1100  141.5420 C   0  0  0  0  0  1  0  0  0  0  0  0
  180.0470  179.3510  139.3430 C   0  0  0  0  0  2  0  0  0  0  0  0
  180.9470  178.8210  143.0270 C   0  0  0  0  0  1  0  0  0  0  0  0
  179.9820  179.5050  140.8610 C   0  0  0  0  0  2  0  0  0  0  0  0
  187.3230  178.4740  141.8370 C   0  0  0  0  0  2  0  0  0  0  0  0
  186.5360  177.9400  143.0210 C   0  0  0  0  0  2  0  0  0  0  0  0
  188.2010  177.4850  145.0570 C   0  0  0  0  0  3  0  0  0  0  0  0
  187.4500  177.6900  144.1340 C   0  0  0  0  0  0  0  0  0  0  0  0
  190.3300  175.8410  140.0210 O   0  0  0  0  0  0  0  0  0  0  0  0
  190.1620  176.1010  142.3800 C   0  0  0  0  0  1  0  0  0  0  0  0
  190.8750  176.5200  141.1120 C   0  0  0  0  0  2  0  0  0  0  0  0
  1 16  1  0  0  0  0
  2 14  1  1  0  0  0
  2 12  1  0  0  0  0
  4 18  1  0  0  0  0
  6 13  1  0  0  0  0
  7 14  2  0  0  0  0
  8  1  1  0  0  0  0
  9  2  1  0  0  0  0
  9  5  1  1  0  0  0
  9 10  1  0  0  0  0
 11 18  1  6  0  0  0
 11  5  1  0  0  0  0
 12  1  2  0  0  0  0
 12 17  1  0  0  0  0
 13  3  2  0  0  0  0
 14 11  1  0  0  0  0
 15  4  1  6  0  0  0
 15  7  1  0  0  0  0
 16 26  1  0  0  0  0
 16 13  1  0  0  0  0
 17  6  1  0  0  0  0
 17 43  1  1  0  0  0
 19 20  1  0  0  0  0
 19  8  1  0  0  0  0
 20 10  1  0  0  0  0
 21 22  1  0  0  0  0
 24 23  1  6  0  0  0
 24 21  1  0  0  0  0
 24 15  1  0  0  0  0
 24 22  1  0  0  0  0
 25 27  1  0  0  0  0
 25 39  1  0  0  0  0
 26 25  2  0  0  0  0
 28 29  2  0  0  0  0
 29 27  1  0  0  0  0
 30 36  1  0  0  0  0
 30 34  1  0  0  0  0
 32 37  1  0  0  0  0
 33 31  1  6  0  0  0
 33 32  1  0  0  0  0
 34 29  1  6  0  0  0
 34 33  1  0  0  0  0
 35 32  1  0  0  0  0
 36 38  1  0  0  0  0
 38 32  1  0  0  0  0
 39 40  1  0  0  0  0
 40 42  1  0  0  0  0
 42 41  3  0  0  0  0
 43 45  1  0  0  0  0
 45 44  1  0  0  0  0
M  END
>  <MODEL>
8

>  <REMARK>
 VINA RESULT:      -3.5      3.759     10.400
  Name = 
  9 active torsions:
  status: ('A' for Active; 'I' for Inactive)
    1  A    between atoms: C_6  and  N_7
    2  A    between atoms: C_6  and  C_10
    3  A    between atoms: C_8  and  C_10
    4  A    between atoms: C_8  and  C_36
    5  A    between atoms: C_23  and  C_31
    6  A    between atoms: C_26  and  C_34
    7  A    between atoms: C_29  and  O_41
    8  A    between atoms: N_37  and  C_45
    9  A    between atoms: C_39  and  O_41
                            x       y       z     vdW  Elec       q    Type
                         _______ _______ _______ _____ _____    ______ ____

>  <TORSDO>
F 9

$$$$
=
 OpenBabel10232408293D

 45 50  0  0  1  0  0  0  0  0999 V2000
  188.8870  174.8820  137.3240 C   0  0  0  0  0  0  0  0  0  0  0  0
  186.3600  175.1970  137.2610 C   0  0  1  0  0  3  0  0  0  0  0  0
  191.4460  177.1630  138.5390 O   0  0  0  0  0  0  0  0  0  0  0  0
  182.6840  177.2790  137.2220 C   0  0  0  0  0  2  0  0  0  0  0  0
  185.3110  175.4290  135.0280 C   0  0  0  0  0  2  0  0  0  0  0  0
  189.0910  177.5150  138.4570 C   0  0  0  0  0  2  0  0  0  0  0  0
  184.8740  176.8400  138.3060 N   0  0  0  0  0  0  0  0  0  0  0  0
  188.7870  173.4790  137.2180 O   0  0  0  0  0  0  0  0  0  0  0  0
  186.0040  174.4420  135.9630 C   0  0  1  0  0  3  0  0  0  0  0  0
  187.1390  173.8870  135.3510 O   0  0  0  0  0  0  0  0  0  0  0  0
  184.7360  176.5300  135.9090 C   0  0  2  0  0  3  0  0  0  0  0  0
  187.8040  175.7100  137.2940 C   0  0  0  0  0  0  0  0  0  0  0  0
  190.3200  176.7130  138.1910 C   0  0  0  0  0  0  0  0  0  0  0  0
  185.3570  176.2960  137.2430 C   0  0  0  0  0  0  0  0  0  0  0  0
  183.7810  177.7880  138.1900 C   0  0  2  0  0  3  0  0  0  0  0  0
  190.2050  175.4460  137.5230 N   0  0  0  0  0  0  0  0  0  0  0  0
  188.0440  177.2040  137.3890 C   0  0  2  0  0  3  0  0  0  0  0  0
  183.2190  176.4040  136.0680 C   0  0  0  0  0  2  0  0  0  0  0  0
  187.6190  172.8200  137.1610 O   0  0  0  0  0  0  0  0  0  0  0  0
  187.3130  172.6730  135.8730 O   0  0  0  0  0  0  0  0  0  0  0  0
  183.0560  179.5850  139.9300 C   0  0  0  0  0  2  0  0  0  0  0  0
  184.1090  178.7720  140.4110 O   0  0  0  0  0  0  0  0  0  0  0  0
  182.2780  177.1900  140.2730 C   0  0  0  0  0  1  0  0  0  0  0  0
  183.1820  178.1650  139.5470 C   0  0  2  0  0  0  0  0  0  0  0  0
  192.0900  174.6100  136.1930 C   0  0  0  0  0  0  0  0  0  0  0  0
  191.3870  174.6490  137.3360 C   0  0  0  0  0  3  0  0  0  0  0  0
  193.1910  173.7050  136.0330 N   0  0  0  0  0  2  0  0  0  0  0  0
  194.9270  175.2380  135.6820 O   0  0  0  0  0  0  0  0  0  0  0  0
  194.5760  174.0630  135.9610 C   0  0  0  0  0  0  0  0  0  0  0  0
  197.1620  173.8450  136.8640 S   0  0  0  0  0  0  0  0  0  0  0  0
  194.9440  172.3540  138.4400 O   0  0  0  0  0  1  0  0  0  0  0  0
  196.1350  170.6870  137.0800 C   0  0  0  0  0  0  0  0  0  0  0  0
  195.1600  171.8980  137.1300 C   0  0  2  0  0  3  0  0  0  0  0  0
  195.6350  173.0500  136.2320 C   0  0  1  0  0  3  0  0  0  0  0  0
  196.2540  169.9830  138.4310 C   0  0  0  0  0  1  0  0  0  0  0  0
  198.0560  172.3160  137.3490 C   0  0  0  0  0  2  0  0  0  0  0  0
  195.5830  169.6770  136.0900 C   0  0  0  0  0  1  0  0  0  0  0  0
  197.5440  171.0830  136.6070 C   0  0  0  0  0  2  0  0  0  0  0  0
  191.7410  175.4970  135.0430 C   0  0  0  0  0  2  0  0  0  0  0  0
  190.4860  174.9990  134.3490 C   0  0  0  0  0  2  0  0  0  0  0  0
  190.4860  172.3300  134.3490 C   0  0  0  0  0  3  0  0  0  0  0  0
  190.4850  173.5370  134.3460 C   0  0  0  0  0  0  0  0  0  0  0  0
  188.4610  177.6990  136.1500 O   0  0  0  0  0  0  0  0  0  0  0  0
  187.1090  178.4830  134.3550 C   0  0  0  0  0  1  0  0  0  0  0  0
  187.5060  178.6560  135.8060 C   0  0  0  0  0  2  0  0  0  0  0  0
  1 16  1  0  0  0  0
  2 14  1  6  0  0  0
  2 12  1  0  0  0  0
  8  1  1  0  0  0  0
  9  5  1  6  0  0  0
  9  2  1  0  0  0  0
 10 20  1  0  0  0  0
 10  9  1  0  0  0  0
 11  5  1  6  0  0  0
 11 18  1  0  0  0  0
 11 14  1  0  0  0  0
 12  1  2  0  0  0  0
 12 17  1  0  0  0  0
 13  6  1  0  0  0  0
 13  3  2  0  0  0  0
 14  7  2  0  0  0  0
 15  4  1  6  0  0  0
 15  7  1  0  0  0  0
 15 24  1  0  0  0  0
 16 13  1  0  0  0  0
 17 43  1  6  0  0  0
 17  6  1  0  0  0  0
 18  4  1  0  0  0  0
 19  8  1  0  0  0  0
 20 19  1  0  0  0  0
 21 22  1  0  0  0  0
 24 21  1  0  0  0  0
 24 23  1  1  0  0  0
 24 22  1  0  0  0  0
 25 26  2  0  0  0  0
 26 16  1  0  0  0  0
 27 25  1  0  0  0  0
 28 29  2  0  0  0  0
 29 27  1  0  0  0  0
 30 36  1  0  0  0  0
 32 33  1  0  0  0  0
 32 35  1  0  0  0  0
 33 31  1  1  0  0  0
 34 29  1  1  0  0  0
 34 30  1  0  0  0  0
 34 33  1  0  0  0  0
 37 32  1  0  0  0  0
 38 32  1  0  0  0  0
 38 36  1  0  0  0  0
 39 25  1  0  0  0  0
 40 39  1  0  0  0  0
 42 40  1  0  0  0  0
 42 41  3  0  0  0  0
 44 45  1  0  0  0  0
 45 43  1  0  0  0  0
M  END
>  <MODEL>
9

>  <REMARK>
 VINA RESULT:      -3.4      2.182      3.393
  Name = 
  9 active torsions:
  status: ('A' for Active; 'I' for Inactive)
    1  A    between atoms: C_6  and  N_7
    2  A    between atoms: C_6  and  C_10
    3  A    between atoms: C_8  and  C_10
    4  A    between atoms: C_8  and  C_36
    5  A    between atoms: C_23  and  C_31
    6  A    between atoms: C_26  and  C_34
    7  A    between atoms: C_29  and  O_41
    8  A    between atoms: N_37  and  C_45
    9  A    between atoms: C_39  and  O_41
                            x       y       z     vdW  Elec       q    Type
                         _______ _______ _______ _____ _____    ______ ____

>  <TORSDO>
F 9

$$$$
