=
 OpenBabel10232408363D

 28 30  0  0  1  0  0  0  0  0999 V2000
  190.0240  176.7320  143.7380 C   0  0  2  0  0  3  0  0  0  0  0  0
  188.9370  177.0360  144.7730 C   0  0  1  0  0  3  0  0  0  0  0  0
  189.5750  178.1600  143.9810 C   0  0  1  0  0  3  0  0  0  0  0  0
  191.7470  178.5050  144.1920 C   0  0  0  0  0  1  0  0  0  0  0  0
  190.5170  178.8100  144.7780 O   0  0  0  0  0  0  0  0  0  0  0  0
  187.5850  176.7860  144.2690 N   0  0  0  0  0  2  0  0  0  0  0  0
  186.7630  177.9990  144.3720 C   0  0  1  0  0  3  0  0  0  0  0  0
  184.7800  178.6320  145.7480 C   0  0  0  0  0  3  0  0  0  0  0  0
  186.5130  177.4660  146.8150 O   0  0  0  0  0  1  0  0  0  0  0  0
  183.6080  178.6800  142.3130 C   0  0  0  0  0  3  0  0  0  0  0  0
  184.5300  178.7160  143.2820 C   0  0  0  0  0  0  0  0  0  0  0  0
  185.9180  178.2140  143.1360 C   0  0  0  0  0  0  0  0  0  0  0  0
  186.4250  178.0190  141.9970 O   0  0  0  0  0  0  0  0  0  0  0  0
  184.1520  179.3460  144.5840 C   0  0  0  0  0  2  0  0  0  0  0  0
  185.9760  178.0410  145.6690 C   0  0  0  0  0  0  0  0  0  0  0  0
  183.8280  178.0890  140.9590 C   0  0  0  0  0  2  0  0  0  0  0  0
  184.2420  180.0030  139.2150 N   0  0  0  0  0  0  0  0  0  0  0  0
  184.0570  179.1580  139.9860 C   0  0  0  0  0  0  0  0  0  0  0  0
  189.5000  176.2690  142.3810 C   0  0  0  0  0  2  0  0  0  0  0  0
  189.6680  177.3700  141.3490 C   0  0  0  0  0  2  0  0  0  0  0  0
  190.1390  176.8010  140.0220 C   0  0  1  0  0  3  0  0  0  0  0  0
  189.7470  177.7060  138.9390 N   0  0  0  0  0  0  0  0  0  0  0  0
  189.0440  179.3870  137.4970 O   0  0  0  0  0  0  0  0  0  0  0  0
  188.7300  178.4490  138.2750 C   0  0  0  0  0  0  0  0  0  0  0  0
  191.0330  177.5850  139.4910 O   0  0  0  0  0  0  0  0  0  0  0  0
  187.3000  178.0720  138.4470 C   0  0  0  0  0  2  0  0  0  0  0  0
  186.6080  178.1880  137.1740 N   0  0  0  0  0  2  0  0  0  0  0  0
  186.6320  176.8700  136.5670 C   0  0  0  0  0  1  0  0  0  0  0  0
  1 19  1  6  0  0  0
  1  3  1  0  0  0  0
  1  2  1  0  0  0  0
  2  6  1  6  0  0  0
  3  2  1  0  0  0  0
  3  5  1  1  0  0  0
  4  5  1  0  0  0  0
  7  6  1  6  0  0  0
  7 15  1  0  0  0  0
 10 11  2  0  0  0  0
 11 14  1  0  0  0  0
 12 11  1  0  0  0  0
 12  7  1  0  0  0  0
 13 12  2  0  0  0  0
 14  8  1  0  0  0  0
 15  8  2  0  0  0  0
 15  9  1  0  0  0  0
 16 10  1  0  0  0  0
 17 18  3  0  0  0  0
 18 16  1  0  0  0  0
 20 19  1  0  0  0  0
 21 20  1  1  0  0  0
 22 25  1  0  0  0  0
 22 21  1  0  0  0  0
 23 24  2  0  0  0  0
 24 26  1  0  0  0  0
 24 22  1  0  0  0  0
 25 21  1  0  0  0  0
 27 26  1  0  0  0  0
 28 27  1  0  0  0  0
M  END
>  <MODEL>
1

>  <REMARK>
 VINA RESULT:      -7.3      0.000      0.000
  Name = 
  10 active torsions:
  status: ('A' for Active; 'I' for Inactive)
    1  A    between atoms: C_1  and  N_8
    2  A    between atoms: C_4  and  C_21
    3  A    between atoms: C_5  and  C_27
    4  A    between atoms: N_8  and  C_9
    5  A    between atoms: C_10  and  C_19
    6  A    between atoms: N_11  and  C_18
    7  A    between atoms: O_17  and  C_26
    8  A    between atoms: C_18  and  C_20
    9  A    between atoms: C_19  and  C_28
   10  A    between atoms: C_21  and  C_27
                            x       y       z     vdW  Elec       q    Type
                         _______ _______ _______ _____ _____    ______ ____

>  <TORSDO>
F 10

$$$$
=
 OpenBabel10232408363D

 28 30  0  0  1  0  0  0  0  0999 V2000
  189.9980  176.9110  142.6360 C   0  0  2  0  0  3  0  0  0  0  0  0
  189.5980  176.8310  144.1120 C   0  0  1  0  0  3  0  0  0  0  0  0
  189.9220  178.1700  143.4790 C   0  0  1  0  0  3  0  0  0  0  0  0
  191.6070  177.6060  144.7910 C   0  0  0  0  0  1  0  0  0  0  0  0
  191.2100  178.5560  143.8490 O   0  0  0  0  0  0  0  0  0  0  0  0
  188.1500  176.7160  144.3050 N   0  0  0  0  0  2  0  0  0  0  0  0
  187.6380  177.8610  145.0690 C   0  0  1  0  0  3  0  0  0  0  0  0
  186.7490  178.1360  147.3840 C   0  0  0  0  0  3  0  0  0  0  0  0
  188.6490  176.7900  147.1040 O   0  0  0  0  0  1  0  0  0  0  0  0
  183.9650  178.9330  145.1960 C   0  0  0  0  0  3  0  0  0  0  0  0
  185.2550  178.7660  145.5070 C   0  0  0  0  0  0  0  0  0  0  0  0
  186.2990  178.3330  144.5470 C   0  0  0  0  0  0  0  0  0  0  0  0
  186.1110  178.4070  143.3010 O   0  0  0  0  0  0  0  0  0  0  0  0
  185.6840  179.0820  146.9040 C   0  0  0  0  0  2  0  0  0  0  0  0
  187.6560  177.5980  146.5630 C   0  0  0  0  0  0  0  0  0  0  0  0
  183.3790  178.6650  143.8480 C   0  0  0  0  0  2  0  0  0  0  0  0
  180.7640  178.7840  143.9830 N   0  0  0  0  0  0  0  0  0  0  0  0
  181.9190  178.7290  143.9240 C   0  0  0  0  0  0  0  0  0  0  0  0
  188.8280  176.8960  141.6580 C   0  0  0  0  0  2  0  0  0  0  0  0
  189.0910  177.8520  140.5070 C   0  0  0  0  0  2  0  0  0  0  0  0
  189.2610  177.0950  139.2010 C   0  0  1  0  0  3  0  0  0  0  0  0
  188.5500  177.8030  138.1340 N   0  0  0  0  0  0  0  0  0  0  0  0
  187.3940  179.2090  136.6890 O   0  0  0  0  0  0  0  0  0  0  0  0
  187.3500  178.3960  137.6490 C   0  0  0  0  0  0  0  0  0  0  0  0
  189.9370  177.8140  138.3530 O   0  0  0  0  0  0  0  0  0  0  0  0
  186.0370  178.0040  138.2310 C   0  0  0  0  0  2  0  0  0  0  0  0
  185.7530  178.8280  139.3930 N   0  0  0  0  0  2  0  0  0  0  0  0
  184.3850  179.2930  139.2480 C   0  0  0  0  0  1  0  0  0  0  0  0
  1 19  1  6  0  0  0
  1  3  1  0  0  0  0
  1  2  1  0  0  0  0
  2  6  1  6  0  0  0
  3  5  1  1  0  0  0
  3  2  1  0  0  0  0
  5  4  1  0  0  0  0
  7  6  1  6  0  0  0
  7 15  1  0  0  0  0
 10 11  2  0  0  0  0
 11 14  1  0  0  0  0
 12  7  1  0  0  0  0
 12 11  1  0  0  0  0
 13 12  2  0  0  0  0
 14  8  1  0  0  0  0
 15  9  1  0  0  0  0
 15  8  2  0  0  0  0
 16 18  1  0  0  0  0
 16 10  1  0  0  0  0
 18 17  3  0  0  0  0
 20 19  1  0  0  0  0
 21 20  1  1  0  0  0
 22 25  1  0  0  0  0
 22 21  1  0  0  0  0
 23 24  2  0  0  0  0
 24 22  1  0  0  0  0
 24 26  1  0  0  0  0
 25 21  1  0  0  0  0
 26 27  1  0  0  0  0
 28 27  1  0  0  0  0
M  END
>  <MODEL>
2

>  <REMARK>
 VINA RESULT:      -7.2      1.749      2.346
  Name = 
  10 active torsions:
  status: ('A' for Active; 'I' for Inactive)
    1  A    between atoms: C_1  and  N_8
    2  A    between atoms: C_4  and  C_21
    3  A    between atoms: C_5  and  C_27
    4  A    between atoms: N_8  and  C_9
    5  A    between atoms: C_10  and  C_19
    6  A    between atoms: N_11  and  C_18
    7  A    between atoms: O_17  and  C_26
    8  A    between atoms: C_18  and  C_20
    9  A    between atoms: C_19  and  C_28
   10  A    between atoms: C_21  and  C_27
                            x       y       z     vdW  Elec       q    Type
                         _______ _______ _______ _____ _____    ______ ____

>  <TORSDO>
F 10

$$$$
=
 OpenBabel10232408363D

 28 30  0  0  1  0  0  0  0  0999 V2000
  188.6200  178.0270  143.2400 C   0  0  2  0  0  3  0  0  0  0  0  0
  187.4010  178.2820  142.3490 C   0  0  1  0  0  3  0  0  0  0  0  0
  188.4080  177.2120  141.9780 C   0  0  1  0  0  3  0  0  0  0  0  0
  188.3950  178.3870  140.1080 C   0  0  0  0  0  1  0  0  0  0  0  0
  189.2450  177.6950  140.9710 O   0  0  0  0  0  0  0  0  0  0  0  0
  186.1800  177.6510  142.8590 N   0  0  0  0  0  2  0  0  0  0  0  0
  185.0840  178.6270  142.9240 C   0  0  1  0  0  3  0  0  0  0  0  0
  183.1090  178.9090  144.4220 C   0  0  0  0  0  3  0  0  0  0  0  0
  185.1540  178.3450  145.4200 O   0  0  0  0  0  1  0  0  0  0  0  0
  181.7210  178.2540  141.1330 C   0  0  0  0  0  3  0  0  0  0  0  0
  182.6700  178.6320  141.9970 C   0  0  0  0  0  0  0  0  0  0  0  0
  184.1260  178.4760  141.7640 C   0  0  0  0  0  0  0  0  0  0  0  0
  184.5840  178.2770  140.6040 O   0  0  0  0  0  0  0  0  0  0  0  0
  182.2370  179.3010  143.2620 C   0  0  0  0  0  2  0  0  0  0  0  0
  184.4080  178.6270  144.2820 C   0  0  0  0  0  0  0  0  0  0  0  0
  181.9880  177.5780  139.8280 C   0  0  0  0  0  2  0  0  0  0  0  0
  180.5900  175.3650  139.6730 N   0  0  0  0  0  0  0  0  0  0  0  0
  181.2090  176.3420  139.7440 C   0  0  0  0  0  0  0  0  0  0  0  0
  188.3480  177.1440  144.4540 C   0  0  0  0  0  2  0  0  0  0  0  0
  188.6940  177.8860  145.7320 C   0  0  0  0  0  2  0  0  0  0  0  0
  188.6790  176.9460  146.9260 C   0  0  1  0  0  3  0  0  0  0  0  0
  190.0210  176.8790  147.5080 N   0  0  0  0  0  0  0  0  0  0  0  0
  192.2290  177.0690  148.2100 O   0  0  0  0  0  0  0  0  0  0  0  0
  191.4180  176.6620  147.3380 C   0  0  0  0  0  0  0  0  0  0  0  0
  188.9340  177.6070  148.0190 O   0  0  0  0  0  0  0  0  0  0  0  0
  191.9150  175.8940  146.1630 C   0  0  0  0  0  2  0  0  0  0  0  0
  191.8150  176.7120  144.9670 N   0  0  0  0  0  2  0  0  0  0  0  0
  191.6200  175.7990  143.8550 C   0  0  0  0  0  1  0  0  0  0  0  0
  1 19  1  1  0  0  0
  2  6  1  1  0  0  0
  2  1  1  0  0  0  0
  3  5  1  6  0  0  0
  3  2  1  0  0  0  0
  3  1  1  0  0  0  0
  4  5  1  0  0  0  0
  7  6  1  1  0  0  0
  7 15  1  0  0  0  0
 10 11  2  0  0  0  0
 11 14  1  0  0  0  0
 12 11  1  0  0  0  0
 12  7  1  0  0  0  0
 13 12  2  0  0  0  0
 14  8  1  0  0  0  0
 15  8  2  0  0  0  0
 15  9  1  0  0  0  0
 16 10  1  0  0  0  0
 17 18  3  0  0  0  0
 18 16  1  0  0  0  0
 19 20  1  0  0  0  0
 21 20  1  6  0  0  0
 21 22  1  0  0  0  0
 21 25  1  0  0  0  0
 22 25  1  0  0  0  0
 24 22  1  0  0  0  0
 24 23  2  0  0  0  0
 26 24  1  0  0  0  0
 27 26  1  0  0  0  0
 28 27  1  0  0  0  0
M  END
>  <MODEL>
3

>  <REMARK>
 VINA RESULT:      -6.9      2.662      5.597
  Name = 
  10 active torsions:
  status: ('A' for Active; 'I' for Inactive)
    1  A    between atoms: C_1  and  N_8
    2  A    between atoms: C_4  and  C_21
    3  A    between atoms: C_5  and  C_27
    4  A    between atoms: N_8  and  C_9
    5  A    between atoms: C_10  and  C_19
    6  A    between atoms: N_11  and  C_18
    7  A    between atoms: O_17  and  C_26
    8  A    between atoms: C_18  and  C_20
    9  A    between atoms: C_19  and  C_28
   10  A    between atoms: C_21  and  C_27
                            x       y       z     vdW  Elec       q    Type
                         _______ _______ _______ _____ _____    ______ ____

>  <TORSDO>
F 10

$$$$
=
 OpenBabel10232408363D

 28 30  0  0  1  0  0  0  0  0999 V2000
  190.0850  177.0790  142.5390 C   0  0  2  0  0  3  0  0  0  0  0  0
  189.6800  176.8770  144.0020 C   0  0  1  0  0  3  0  0  0  0  0  0
  189.9800  178.2660  143.4770 C   0  0  1  0  0  3  0  0  0  0  0  0
  191.6350  177.6820  144.8180 C   0  0  0  0  0  1  0  0  0  0  0  0
  191.2590  178.6480  143.8830 O   0  0  0  0  0  0  0  0  0  0  0  0
  188.2340  176.7190  144.1770 N   0  0  0  0  0  2  0  0  0  0  0  0
  187.6730  177.8680  144.9010 C   0  0  1  0  0  3  0  0  0  0  0  0
  186.6900  178.1650  147.1740 C   0  0  0  0  0  3  0  0  0  0  0  0
  188.6230  176.8500  146.9920 O   0  0  0  0  0  1  0  0  0  0  0  0
  183.9790  178.8750  144.8680 C   0  0  0  0  0  3  0  0  0  0  0  0
  185.2590  178.7370  145.2310 C   0  0  0  0  0  0  0  0  0  0  0  0
  186.3470  178.3070  144.3190 C   0  0  0  0  0  0  0  0  0  0  0  0
  186.2060  178.3560  143.0660 O   0  0  0  0  0  0  0  0  0  0  0  0
  185.6290  179.0840  146.6380 C   0  0  0  0  0  2  0  0  0  0  0  0
  187.6380  177.6300  146.3980 C   0  0  0  0  0  0  0  0  0  0  0  0
  183.4510  178.5740  143.5040 C   0  0  0  0  0  2  0  0  0  0  0  0
  180.9700  179.4010  143.3200 N   0  0  0  0  0  0  0  0  0  0  0  0
  182.0660  179.0350  143.3990 C   0  0  0  0  0  0  0  0  0  0  0  0
  188.9190  177.1170  141.5550 C   0  0  0  0  0  2  0  0  0  0  0  0
  189.4350  177.2270  140.1320 C   0  0  0  0  0  2  0  0  0  0  0  0
  188.8060  178.4110  139.4170 C   0  0  1  0  0  3  0  0  0  0  0  0
  187.7400  177.9350  138.5340 N   0  0  0  0  0  0  0  0  0  0  0  0
  186.0890  176.8490  137.3110 O   0  0  0  0  0  0  0  0  0  0  0  0
  187.3160  177.0630  137.4900 C   0  0  0  0  0  0  0  0  0  0  0  0
  187.5640  178.5470  139.7850 O   0  0  0  0  0  0  0  0  0  0  0  0
  188.3180  176.4590  136.5690 C   0  0  0  0  0  2  0  0  0  0  0  0
  188.8320  175.2290  137.1460 N   0  0  0  0  0  2  0  0  0  0  0  0
  190.2780  175.2950  137.0410 C   0  0  0  0  0  1  0  0  0  0  0  0
  1 19  1  6  0  0  0
  1  3  1  0  0  0  0
  1  2  1  0  0  0  0
  2  6  1  6  0  0  0
  3  5  1  1  0  0  0
  3  2  1  0  0  0  0
  5  4  1  0  0  0  0
  7  6  1  6  0  0  0
  7 15  1  0  0  0  0
 10 11  2  0  0  0  0
 11 14  1  0  0  0  0
 12  7  1  0  0  0  0
 12 11  1  0  0  0  0
 13 12  2  0  0  0  0
 14  8  1  0  0  0  0
 15  9  1  0  0  0  0
 15  8  2  0  0  0  0
 16 10  1  0  0  0  0
 17 18  3  0  0  0  0
 18 16  1  0  0  0  0
 20 19  1  0  0  0  0
 21 25  1  0  0  0  0
 21 20  1  1  0  0  0
 22 21  1  0  0  0  0
 22 25  1  0  0  0  0
 23 24  2  0  0  0  0
 24 22  1  0  0  0  0
 26 27  1  0  0  0  0
 26 24  1  0  0  0  0
 28 27  1  0  0  0  0
M  END
>  <MODEL>
4

>  <REMARK>
 VINA RESULT:      -6.8      1.955      2.494
  Name = 
  10 active torsions:
  status: ('A' for Active; 'I' for Inactive)
    1  A    between atoms: C_1  and  N_8
    2  A    between atoms: C_4  and  C_21
    3  A    between atoms: C_5  and  C_27
    4  A    between atoms: N_8  and  C_9
    5  A    between atoms: C_10  and  C_19
    6  A    between atoms: N_11  and  C_18
    7  A    between atoms: O_17  and  C_26
    8  A    between atoms: C_18  and  C_20
    9  A    between atoms: C_19  and  C_28
   10  A    between atoms: C_21  and  C_27
                            x       y       z     vdW  Elec       q    Type
                         _______ _______ _______ _____ _____    ______ ____

>  <TORSDO>
F 10

$$$$
=
 OpenBabel10232408363D

 28 30  0  0  1  0  0  0  0  0999 V2000
  188.5520  178.0140  144.6030 C   0  0  2  0  0  3  0  0  0  0  0  0
  189.5580  177.9330  143.4510 C   0  0  1  0  0  3  0  0  0  0  0  0
  189.6630  176.9820  144.6260 C   0  0  1  0  0  3  0  0  0  0  0  0
  190.3560  176.8550  146.7200 C   0  0  0  0  0  1  0  0  0  0  0  0
  190.6760  177.4140  145.4820 O   0  0  0  0  0  0  0  0  0  0  0  0
  189.0330  177.2180  142.2850 N   0  0  0  0  0  2  0  0  0  0  0  0
  189.2100  178.0190  141.0660 C   0  0  1  0  0  3  0  0  0  0  0  0
  187.8000  178.4310  139.0490 C   0  0  0  0  0  3  0  0  0  0  0  0
  186.7350  178.4400  141.1380 O   0  0  0  0  0  1  0  0  0  0  0  0
  190.7540  176.7240  137.8100 C   0  0  0  0  0  3  0  0  0  0  0  0
  190.0480  177.4470  138.6860 C   0  0  0  0  0  0  0  0  0  0  0  0
  190.2630  177.4300  140.1530 C   0  0  0  0  0  0  0  0  0  0  0  0
  191.3360  176.9860  140.6500 O   0  0  0  0  0  0  0  0  0  0  0  0
  189.0020  178.3710  138.1490 C   0  0  0  0  0  2  0  0  0  0  0  0
  187.8880  178.2990  140.3760 C   0  0  0  0  0  0  0  0  0  0  0  0
  191.8310  175.7600  138.1850 C   0  0  0  0  0  2  0  0  0  0  0  0
  194.1030  176.5210  137.1200 N   0  0  0  0  0  0  0  0  0  0  0  0
  193.0990  176.1830  137.5880 C   0  0  0  0  0  0  0  0  0  0  0  0
  187.2240  177.3100  144.3380 C   0  0  0  0  0  2  0  0  0  0  0  0
  186.3320  177.3920  145.5640 C   0  0  0  0  0  2  0  0  0  0  0  0
  185.8520  178.8160  145.7910 C   0  0  1  0  0  3  0  0  0  0  0  0
  184.4820  178.9510  145.2910 N   0  0  0  0  0  0  0  0  0  0  0  0
  182.3120  178.7890  144.4750 O   0  0  0  0  0  0  0  0  0  0  0  0
  183.5460  178.7900  144.2290 C   0  0  0  0  0  0  0  0  0  0  0  0
  184.8620  178.8240  146.6370 O   0  0  0  0  0  0  0  0  0  0  0  0
  184.0240  178.6930  142.8230 C   0  0  0  0  0  2  0  0  0  0  0  0
  182.8860  178.6520  141.9210 N   0  0  0  0  0  2  0  0  0  0  0  0
  183.2790  177.8260  140.7950 C   0  0  0  0  0  1  0  0  0  0  0  0
  1 19  1  6  0  0  0
  1  3  1  0  0  0  0
  2  6  1  6  0  0  0
  2  1  1  0  0  0  0
  2  3  1  0  0  0  0
  3  5  1  1  0  0  0
  5  4  1  0  0  0  0
  7  6  1  1  0  0  0
  8 15  2  0  0  0  0
 10 16  1  0  0  0  0
 10 11  2  0  0  0  0
 11 12  1  0  0  0  0
 12 13  2  0  0  0  0
 12  7  1  0  0  0  0
 14 11  1  0  0  0  0
 14  8  1  0  0  0  0
 15  7  1  0  0  0  0
 15  9  1  0  0  0  0
 17 18  3  0  0  0  0
 18 16  1  0  0  0  0
 19 20  1  0  0  0  0
 21 20  1  6  0  0  0
 21 25  1  0  0  0  0
 22 21  1  0  0  0  0
 22 25  1  0  0  0  0
 24 23  2  0  0  0  0
 24 22  1  0  0  0  0
 26 24  1  0  0  0  0
 27 26  1  0  0  0  0
 28 27  1  0  0  0  0
M  END
>  <MODEL>
5

>  <REMARK>
 VINA RESULT:      -6.8      2.213      6.575
  Name = 
  10 active torsions:
  status: ('A' for Active; 'I' for Inactive)
    1  A    between atoms: C_1  and  N_8
    2  A    between atoms: C_4  and  C_21
    3  A    between atoms: C_5  and  C_27
    4  A    between atoms: N_8  and  C_9
    5  A    between atoms: C_10  and  C_19
    6  A    between atoms: N_11  and  C_18
    7  A    between atoms: O_17  and  C_26
    8  A    between atoms: C_18  and  C_20
    9  A    between atoms: C_19  and  C_28
   10  A    between atoms: C_21  and  C_27
                            x       y       z     vdW  Elec       q    Type
                         _______ _______ _______ _____ _____    ______ ____

>  <TORSDO>
F 10

$$$$
=
 OpenBabel10232408363D

 28 30  0  0  1  0  0  0  0  0999 V2000
  190.3360  177.0590  143.0390 C   0  0  2  0  0  3  0  0  0  0  0  0
  189.4530  177.2710  144.2730 C   0  0  1  0  0  3  0  0  0  0  0  0
  189.7920  178.4370  143.3660 C   0  0  1  0  0  3  0  0  0  0  0  0
  191.7940  178.2810  144.2870 C   0  0  0  0  0  1  0  0  0  0  0  0
  190.7990  179.2020  143.9540 O   0  0  0  0  0  0  0  0  0  0  0  0
  188.0610  176.8670  144.0540 N   0  0  0  0  0  2  0  0  0  0  0  0
  187.1530  177.9980  144.2850 C   0  0  1  0  0  3  0  0  0  0  0  0
  185.2750  178.4100  145.8750 C   0  0  0  0  0  3  0  0  0  0  0  0
  187.2020  177.3730  146.7180 O   0  0  0  0  0  1  0  0  0  0  0  0
  183.7570  178.4540  142.5780 C   0  0  0  0  0  3  0  0  0  0  0  0
  184.7670  178.5440  143.4510 C   0  0  0  0  0  0  0  0  0  0  0  0
  186.1700  178.1730  143.1490 C   0  0  0  0  0  0  0  0  0  0  0  0
  186.5730  178.0570  141.9580 O   0  0  0  0  0  0  0  0  0  0  0  0
  184.4720  179.0990  144.8080 C   0  0  0  0  0  2  0  0  0  0  0  0
  186.5030  177.9310  145.6540 C   0  0  0  0  0  0  0  0  0  0  0  0
  183.8860  177.9260  141.1870 C   0  0  0  0  0  2  0  0  0  0  0  0
  184.3590  179.9010  139.5300 N   0  0  0  0  0  0  0  0  0  0  0  0
  184.1520  179.0290  140.2640 C   0  0  0  0  0  0  0  0  0  0  0  0
  189.6020  176.5110  141.8180 C   0  0  0  0  0  2  0  0  0  0  0  0
  190.4440  176.7020  140.5690 C   0  0  0  0  0  2  0  0  0  0  0  0
  189.7660  177.6510  139.5970 C   0  0  1  0  0  3  0  0  0  0  0  0
  189.1140  176.8780  138.5380 N   0  0  0  0  0  0  0  0  0  0  0  0
  188.1470  175.3510  137.0770 O   0  0  0  0  0  0  0  0  0  0  0  0
  189.1970  175.8800  137.5250 C   0  0  0  0  0  0  0  0  0  0  0  0
  188.4750  177.4810  139.6330 O   0  0  0  0  0  0  0  0  0  0  0  0
  190.5200  175.5110  136.9490 C   0  0  0  0  0  2  0  0  0  0  0  0
  191.1200  174.4530  137.7420 N   0  0  0  0  0  2  0  0  0  0  0  0
  192.5530  174.6840  137.7250 C   0  0  0  0  0  1  0  0  0  0  0  0
  1 19  1  6  0  0  0
  1  3  1  0  0  0  0
  1  2  1  0  0  0  0
  2  6  1  6  0  0  0
  3  5  1  1  0  0  0
  3  2  1  0  0  0  0
  5  4  1  0  0  0  0
  7  6  1  6  0  0  0
  7 15  1  0  0  0  0
 10 11  2  0  0  0  0
 11 14  1  0  0  0  0
 12 11  1  0  0  0  0
 12  7  1  0  0  0  0
 13 12  2  0  0  0  0
 14  8  1  0  0  0  0
 15  8  2  0  0  0  0
 15  9  1  0  0  0  0
 16 10  1  0  0  0  0
 17 18  3  0  0  0  0
 18 16  1  0  0  0  0
 20 19  1  0  0  0  0
 21 25  1  0  0  0  0
 21 20  1  1  0  0  0
 22 21  1  0  0  0  0
 22 25  1  0  0  0  0
 23 24  2  0  0  0  0
 24 22  1  0  0  0  0
 26 24  1  0  0  0  0
 26 27  1  0  0  0  0
 28 27  1  0  0  0  0
M  END
>  <MODEL>
6

>  <REMARK>
 VINA RESULT:      -6.8      1.692      2.201
  Name = 
  10 active torsions:
  status: ('A' for Active; 'I' for Inactive)
    1  A    between atoms: C_1  and  N_8
    2  A    between atoms: C_4  and  C_21
    3  A    between atoms: C_5  and  C_27
    4  A    between atoms: N_8  and  C_9
    5  A    between atoms: C_10  and  C_19
    6  A    between atoms: N_11  and  C_18
    7  A    between atoms: O_17  and  C_26
    8  A    between atoms: C_18  and  C_20
    9  A    between atoms: C_19  and  C_28
   10  A    between atoms: C_21  and  C_27
                            x       y       z     vdW  Elec       q    Type
                         _______ _______ _______ _____ _____    ______ ____

>  <TORSDO>
F 10

$$$$
=
 OpenBabel10232408363D

 28 30  0  0  1  0  0  0  0  0999 V2000
  189.1560  177.6290  143.6750 C   0  0  2  0  0  3  0  0  0  0  0  0
  189.7660  177.6650  142.2700 C   0  0  1  0  0  3  0  0  0  0  0  0
  190.0340  176.4910  143.1900 C   0  0  1  0  0  3  0  0  0  0  0  0
  191.6560  177.9540  143.5200 C   0  0  0  0  0  1  0  0  0  0  0  0
  191.3070  176.6220  143.7460 O   0  0  0  0  0  0  0  0  0  0  0  0
  188.8170  177.2650  141.2270 N   0  0  0  0  0  2  0  0  0  0  0  0
  189.0820  177.9950  139.9800 C   0  0  1  0  0  3  0  0  0  0  0  0
  187.8100  178.3100  137.8580 C   0  0  0  0  0  3  0  0  0  0  0  0
  186.6130  178.4450  139.8700 O   0  0  0  0  0  1  0  0  0  0  0  0
  190.8130  176.5070  136.9060 C   0  0  0  0  0  3  0  0  0  0  0  0
  190.0620  177.2850  137.6950 C   0  0  0  0  0  0  0  0  0  0  0  0
  190.1840  177.3460  139.1710 C   0  0  0  0  0  0  0  0  0  0  0  0
  191.2160  176.9190  139.7600 O   0  0  0  0  0  0  0  0  0  0  0  0
  189.0660  178.1880  137.0420 C   0  0  0  0  0  2  0  0  0  0  0  0
  187.8110  178.2500  139.1930 C   0  0  0  0  0  0  0  0  0  0  0  0
  191.8520  175.5550  137.4010 C   0  0  0  0  0  2  0  0  0  0  0  0
  194.2350  176.4400  136.7630 N   0  0  0  0  0  0  0  0  0  0  0  0
  193.1820  176.0500  137.0470 C   0  0  0  0  0  0  0  0  0  0  0  0
  187.7080  177.1520  143.7280 C   0  0  0  0  0  2  0  0  0  0  0  0
  186.8710  178.1060  144.5610 C   0  0  0  0  0  2  0  0  0  0  0  0
  186.2760  177.3960  145.7660 C   0  0  1  0  0  3  0  0  0  0  0  0
  187.1020  177.6660  146.9450 N   0  0  0  0  0  0  0  0  0  0  0  0
  188.5790  178.3570  148.6010 O   0  0  0  0  0  0  0  0  0  0  0  0
  188.3840  177.6710  147.5640 C   0  0  0  0  0  0  0  0  0  0  0  0
  185.8700  178.2680  146.6430 O   0  0  0  0  0  0  0  0  0  0  0  0
  189.4750  176.8130  147.0260 C   0  0  0  0  0  2  0  0  0  0  0  0
  190.7460  177.2230  147.5970 N   0  0  0  0  0  2  0  0  0  0  0  0
  191.7150  176.2070  147.2260 C   0  0  0  0  0  1  0  0  0  0  0  0
  1 19  1  6  0  0  0
  2  6  1  6  0  0  0
  2  3  1  0  0  0  0
  2  1  1  0  0  0  0
  3  1  1  0  0  0  0
  3  5  1  1  0  0  0
  4  5  1  0  0  0  0
  7  6  1  1  0  0  0
  8 15  2  0  0  0  0
 10 16  1  0  0  0  0
 10 11  2  0  0  0  0
 11 12  1  0  0  0  0
 12 13  2  0  0  0  0
 12  7  1  0  0  0  0
 14 11  1  0  0  0  0
 14  8  1  0  0  0  0
 15  9  1  0  0  0  0
 15  7  1  0  0  0  0
 17 18  3  0  0  0  0
 18 16  1  0  0  0  0
 19 20  1  0  0  0  0
 21 20  1  6  0  0  0
 21 25  1  0  0  0  0
 21 22  1  0  0  0  0
 22 24  1  0  0  0  0
 24 23  2  0  0  0  0
 25 22  1  0  0  0  0
 26 24  1  0  0  0  0
 26 27  1  0  0  0  0
 28 27  1  0  0  0  0
M  END
>  <MODEL>
7

>  <REMARK>
 VINA RESULT:      -6.7      2.548      7.562
  Name = 
  10 active torsions:
  status: ('A' for Active; 'I' for Inactive)
    1  A    between atoms: C_1  and  N_8
    2  A    between atoms: C_4  and  C_21
    3  A    between atoms: C_5  and  C_27
    4  A    between atoms: N_8  and  C_9
    5  A    between atoms: C_10  and  C_19
    6  A    between atoms: N_11  and  C_18
    7  A    between atoms: O_17  and  C_26
    8  A    between atoms: C_18  and  C_20
    9  A    between atoms: C_19  and  C_28
   10  A    between atoms: C_21  and  C_27
                            x       y       z     vdW  Elec       q    Type
                         _______ _______ _______ _____ _____    ______ ____

>  <TORSDO>
F 10

$$$$
=
 OpenBabel10232408363D

 28 30  0  0  1  0  0  0  0  0999 V2000
  189.6820  177.4520  143.2610 C   0  0  2  0  0  3  0  0  0  0  0  0
  190.5400  177.6590  142.0090 C   0  0  1  0  0  3  0  0  0  0  0  0
  191.0170  176.7460  143.1210 C   0  0  1  0  0  3  0  0  0  0  0  0
  191.6020  177.1630  145.2100 C   0  0  0  0  0  1  0  0  0  0  0  0
  191.9730  177.4120  143.8870 O   0  0  0  0  0  0  0  0  0  0  0  0
  190.0910  176.8530  140.8710 N   0  0  0  0  0  2  0  0  0  0  0  0
  190.1010  177.6510  139.6380 C   0  0  1  0  0  3  0  0  0  0  0  0
  188.3340  178.3690  138.0290 C   0  0  0  0  0  3  0  0  0  0  0  0
  187.8320  178.4920  140.3160 O   0  0  0  0  0  1  0  0  0  0  0  0
  190.5450  176.2190  136.1150 C   0  0  0  0  0  3  0  0  0  0  0  0
  190.2140  177.0240  137.1310 C   0  0  0  0  0  0  0  0  0  0  0  0
  190.7770  176.9200  138.4990 C   0  0  0  0  0  0  0  0  0  0  0  0
  191.8430  176.2810  138.7200 O   0  0  0  0  0  0  0  0  0  0  0  0
  189.2480  178.1320  136.8600 C   0  0  0  0  0  2  0  0  0  0  0  0
  188.7200  178.1790  139.2940 C   0  0  0  0  0  0  0  0  0  0  0  0
  191.4950  175.0710  136.2210 C   0  0  0  0  0  2  0  0  0  0  0  0
  193.6970  175.6180  134.9070 N   0  0  0  0  0  0  0  0  0  0  0  0
  192.7230  175.3790  135.4870 C   0  0  0  0  0  0  0  0  0  0  0  0
  188.5590  176.4300  143.1010 C   0  0  0  0  0  2  0  0  0  0  0  0
  187.4420  176.7190  144.0880 C   0  0  0  0  0  2  0  0  0  0  0  0
  187.8320  177.8380  145.0380 C   0  0  1  0  0  3  0  0  0  0  0  0
  186.6410  178.3140  145.7440 N   0  0  0  0  0  0  0  0  0  0  0  0
  184.5810  178.7620  146.7220 O   0  0  0  0  0  0  0  0  0  0  0  0
  185.3050  178.8050  145.6940 C   0  0  0  0  0  0  0  0  0  0  0  0
  187.6310  177.4680  146.2700 O   0  0  0  0  0  0  0  0  0  0  0  0
  184.7880  179.4310  144.4460 C   0  0  0  0  0  2  0  0  0  0  0  0
  184.2110  178.4100  143.5890 N   0  0  0  0  0  2  0  0  0  0  0  0
  184.7730  178.6120  142.2660 C   0  0  0  0  0  1  0  0  0  0  0  0
  1 19  1  6  0  0  0
  2  6  1  6  0  0  0
  2  3  1  0  0  0  0
  2  1  1  0  0  0  0
  3  1  1  0  0  0  0
  3  5  1  1  0  0  0
  5  4  1  0  0  0  0
  7  6  1  1  0  0  0
  8 15  2  0  0  0  0
 10 16  1  0  0  0  0
 10 11  2  0  0  0  0
 11 12  1  0  0  0  0
 12 13  2  0  0  0  0
 12  7  1  0  0  0  0
 14 11  1  0  0  0  0
 14  8  1  0  0  0  0
 15  7  1  0  0  0  0
 15  9  1  0  0  0  0
 17 18  3  0  0  0  0
 18 16  1  0  0  0  0
 19 20  1  0  0  0  0
 21 20  1  6  0  0  0
 21 22  1  0  0  0  0
 21 25  1  0  0  0  0
 22 25  1  0  0  0  0
 24 22  1  0  0  0  0
 24 23  2  0  0  0  0
 26 24  1  0  0  0  0
 27 26  1  0  0  0  0
 28 27  1  0  0  0  0
M  END
>  <MODEL>
8

>  <REMARK>
 VINA RESULT:      -6.7      2.451      7.002
  Name = 
  10 active torsions:
  status: ('A' for Active; 'I' for Inactive)
    1  A    between atoms: C_1  and  N_8
    2  A    between atoms: C_4  and  C_21
    3  A    between atoms: C_5  and  C_27
    4  A    between atoms: N_8  and  C_9
    5  A    between atoms: C_10  and  C_19
    6  A    between atoms: N_11  and  C_18
    7  A    between atoms: O_17  and  C_26
    8  A    between atoms: C_18  and  C_20
    9  A    between atoms: C_19  and  C_28
   10  A    between atoms: C_21  and  C_27
                            x       y       z     vdW  Elec       q    Type
                         _______ _______ _______ _____ _____    ______ ____

>  <TORSDO>
F 10

$$$$
=
 OpenBabel10232408363D

 28 30  0  0  1  0  0  0  0  0999 V2000
  189.1160  177.9400  138.4120 C   0  0  2  0  0  3  0  0  0  0  0  0
  188.6120  178.3860  139.7890 C   0  0  1  0  0  3  0  0  0  0  0  0
  187.6550  177.7740  138.7860 C   0  0  1  0  0  3  0  0  0  0  0  0
  186.8250  178.4140  136.8420 C   0  0  0  0  0  1  0  0  0  0  0  0
  186.9060  178.7860  138.1850 O   0  0  0  0  0  0  0  0  0  0  0  0
  188.9060  177.4130  140.8450 N   0  0  0  0  0  2  0  0  0  0  0  0
  189.4380  178.0890  142.0360 C   0  0  1  0  0  3  0  0  0  0  0  0
  191.2600  177.5570  143.6560 C   0  0  0  0  0  3  0  0  0  0  0  0
  191.6910  177.1920  141.3800 O   0  0  0  0  0  1  0  0  0  0  0  0
  188.2030  177.5030  145.6120 C   0  0  0  0  0  3  0  0  0  0  0  0
  188.9690  177.8330  144.5660 C   0  0  0  0  0  0  0  0  0  0  0  0
  188.4610  178.0480  143.1900 C   0  0  0  0  0  0  0  0  0  0  0  0
  187.2350  178.2560  142.9720 O   0  0  0  0  0  0  0  0  0  0  0  0
  190.4290  178.0460  144.8090 C   0  0  0  0  0  2  0  0  0  0  0  0
  190.8280  177.5980  142.3910 C   0  0  0  0  0  0  0  0  0  0  0  0
  186.7310  177.2590  145.5370 C   0  0  0  0  0  2  0  0  0  0  0  0
  185.4590  179.1620  146.8140 N   0  0  0  0  0  0  0  0  0  0  0  0
  186.0190  178.3210  146.2480 C   0  0  0  0  0  0  0  0  0  0  0  0
  189.7840  176.5690  138.3920 C   0  0  0  0  0  2  0  0  0  0  0  0
  190.8900  176.5380  137.3530 C   0  0  0  0  0  2  0  0  0  0  0  0
  191.2890  175.1090  137.0270 C   0  0  1  0  0  3  0  0  0  0  0  0
  192.7340  174.9560  137.2070 N   0  0  0  0  0  0  0  0  0  0  0  0
  195.0120  175.0500  137.6590 O   0  0  0  0  0  0  0  0  0  0  0  0
  194.0560  175.4030  136.9210 C   0  0  0  0  0  0  0  0  0  0  0  0
  191.7400  174.5160  138.0960 O   0  0  0  0  0  0  0  0  0  0  0  0
  194.3170  176.2320  135.7120 C   0  0  0  0  0  2  0  0  0  0  0  0
  195.6430  176.8190  135.7990 N   0  0  0  0  0  2  0  0  0  0  0  0
  195.7310  177.8040  134.7370 C   0  0  0  0  0  1  0  0  0  0  0  0
  1 19  1  1  0  0  0
  1  3  1  0  0  0  0
  1  2  1  0  0  0  0
  2  6  1  1  0  0  0
  3  5  1  6  0  0  0
  3  2  1  0  0  0  0
  4  5  1  0  0  0  0
  7  6  1  6  0  0  0
  7 15  1  0  0  0  0
  7 12  1  0  0  0  0
  8 14  1  0  0  0  0
  9 15  1  0  0  0  0
 11 14  1  0  0  0  0
 11 10  2  0  0  0  0
 12 11  1  0  0  0  0
 13 12  2  0  0  0  0
 15  8  2  0  0  0  0
 16 10  1  0  0  0  0
 16 18  1  0  0  0  0
 18 17  3  0  0  0  0
 20 19  1  0  0  0  0
 21 22  1  0  0  0  0
 21 20  1  1  0  0  0
 21 25  1  0  0  0  0
 22 25  1  0  0  0  0
 24 22  1  0  0  0  0
 24 23  2  0  0  0  0
 26 27  1  0  0  0  0
 26 24  1  0  0  0  0
 28 27  1  0  0  0  0
M  END
>  <MODEL>
9

>  <REMARK>
 VINA RESULT:      -6.6      3.270      6.070
  Name = 
  10 active torsions:
  status: ('A' for Active; 'I' for Inactive)
    1  A    between atoms: C_1  and  N_8
    2  A    between atoms: C_4  and  C_21
    3  A    between atoms: C_5  and  C_27
    4  A    between atoms: N_8  and  C_9
    5  A    between atoms: C_10  and  C_19
    6  A    between atoms: N_11  and  C_18
    7  A    between atoms: O_17  and  C_26
    8  A    between atoms: C_18  and  C_20
    9  A    between atoms: C_19  and  C_28
   10  A    between atoms: C_21  and  C_27
                            x       y       z     vdW  Elec       q    Type
                         _______ _______ _______ _____ _____    ______ ____

>  <TORSDO>
F 10

$$$$
