=
 OpenBabel10232409023D

 43 46  0  0  1  0  0  0  0  0999 V2000
  187.1220  175.8560  136.4870 C   0  0  2  0  0  3  0  0  0  0  0  0
  189.4340  175.4860  136.0850 N   0  0  0  0  0  0  0  0  0  0  0  0
  186.2080  173.5750  137.3380 C   0  0  0  0  0  2  0  0  0  0  0  0
  183.4170  174.5970  137.0990 C   0  0  0  0  0  2  0  0  0  0  0  0
  183.5460  172.3880  137.0160 C   0  0  0  0  0  2  0  0  0  0  0  0
  184.1660  177.5810  137.8190 C   0  0  1  0  0  3  0  0  0  0  0  0
  184.7730  171.7500  136.3630 C   0  0  0  0  0  2  0  0  0  0  0  0
  188.9120  177.5710  137.2840 C   0  0  2  0  0  3  0  0  0  0  0  0
  188.2840  175.0160  136.2420 N   0  0  0  0  0  0  0  0  0  0  0  0
  187.5060  177.0470  137.3330 C   0  0  0  0  0  0  0  0  0  0  0  0
  183.0340  177.1050  135.6830 O   0  0  0  0  0  1  0  0  0  0  0  0
  189.3240  177.6830  134.5910 Cl  0  0  0  0  0  0  0  0  0  0  0  0
  189.7090  176.9100  136.1500 C   0  0  2  0  0  3  0  0  0  0  0  0
  185.9380  175.0750  137.1240 C   0  0  2  0  0  3  0  0  0  0  0  0
  184.2030  176.9010  136.4240 C   0  0  2  0  0  3  0  0  0  0  0  0
  184.5590  175.4010  136.4750 C   0  0  2  0  0  3  0  0  0  0  0  0
  185.4110  178.3850  138.0410 C   0  0  0  0  0  3  0  0  0  0  0  0
  185.8950  172.7530  136.0940 C   0  0  0  0  0  2  0  0  0  0  0  0
  183.1180  173.4980  136.2880 O   0  0  0  0  0  0  0  0  0  0  0  0
  186.5390  177.8090  137.7460 C   0  0  0  0  0  0  0  0  0  0  0  0
  189.5990  177.4130  138.6080 C   0  0  0  0  0  0  0  0  0  0  0  0
  191.6010  177.0800  139.9380 C   0  0  0  0  0  3  0  0  0  0  0  0
  189.4480  177.2860  141.0230 C   0  0  0  0  0  3  0  0  0  0  0  0
  190.8320  177.1080  141.1110 C   0  0  0  0  0  0  0  0  0  0  0  0
  188.8330  177.4370  139.7780 C   0  0  0  0  0  3  0  0  0  0  0  0
  190.9870  177.2310  138.6920 C   0  0  0  0  0  3  0  0  0  0  0  0
  191.4150  178.0010  143.3430 C   0  0  0  0  0  1  0  0  0  0  0  0
  191.4150  176.9630  142.3720 O   0  0  0  0  0  0  0  0  0  0  0  0
  182.9440  178.4590  138.0720 C   0  0  0  0  0  2  0  0  0  0  0  0
  181.9720  177.7940  139.0360 C   0  0  0  0  0  2  0  0  0  0  0  0
  182.6510  177.4900  140.3590 C   0  0  0  0  0  2  0  0  0  0  0  0
  182.6450  178.7350  141.2220 C   0  0  0  0  0  2  0  0  0  0  0  0
  183.9120  178.8070  142.0630 C   0  0  2  0  0  3  0  0  0  0  0  0
  184.8830  178.0110  141.4560 O   0  0  0  0  0  1  0  0  0  0  0  0
  182.2890  178.4760  143.8080 O   0  0  0  0  0  1  0  0  0  0  0  0
  183.6480  178.3300  143.5020 C   0  0  2  0  0  3  0  0  0  0  0  0
  184.5020  179.0620  144.5590 C   0  0  0  0  0  0  0  0  0  0  0  0
  183.7330  179.2780  145.7070 O   0  0  0  0  0  1  0  0  0  0  0  0
  184.9260  180.2980  144.0650 O   0  0  0  0  0  1  0  0  0  0  0  0
  185.7240  178.2380  144.9060 C   0  0  0  0  0  0  0  0  0  0  0  0
  185.8750  177.8240  146.0860 O   0  0  0  0  0  0  0  0  0  0  0  0
  187.6900  176.9120  144.1730 C   0  0  0  0  0  1  0  0  0  0  0  0
  186.6960  177.9020  143.9550 O   0  0  0  0  0  0  0  0  0  0  0  0
  1  9  1  1  0  0  0
  1 14  1  0  0  0  0
  1 10  1  0  0  0  0
  2 13  1  0  0  0  0
  2  9  2  0  0  0  0
  6 17  1  0  0  0  0
  6 29  1  6  0  0  0
  7  5  1  0  0  0  0
  8 10  1  0  0  0  0
  8 21  1  1  0  0  0
 10 20  2  0  0  0  0
 13 12  1  6  0  0  0
 13  8  1  0  0  0  0
 14  3  1  6  0  0  0
 15 11  1  1  0  0  0
 15 16  1  0  0  0  0
 15  6  1  0  0  0  0
 16  4  1  1  0  0  0
 16 14  1  0  0  0  0
 18  7  1  0  0  0  0
 18  3  1  0  0  0  0
 19  5  1  0  0  0  0
 19  4  1  0  0  0  0
 20 17  2  0  0  0  0
 21 26  2  0  0  0  0
 21 25  1  0  0  0  0
 22 24  2  0  0  0  0
 23 24  1  0  0  0  0
 24 28  1  0  0  0  0
 25 23  2  0  0  0  0
 26 22  1  0  0  0  0
 28 27  1  0  0  0  0
 29 30  1  0  0  0  0
 30 31  1  0  0  0  0
 31 32  1  0  0  0  0
 32 33  1  0  0  0  0
 33 34  1  6  0  0  0
 33 36  1  0  0  0  0
 36 35  1  1  0  0  0
 36 37  1  0  0  0  0
 37 40  1  0  0  0  0
 37 38  1  0  0  0  0
 39 37  1  0  0  0  0
 40 41  2  0  0  0  0
 43 42  1  0  0  0  0
 43 40  1  0  0  0  0
M  END
>  <MODEL>
1

>  <REMARK>
 VINA RESULT:      -7.1      0.000      0.000
  Name = 
  11 active torsions:
  status: ('A' for Active; 'I' for Inactive)
    1  A    between atoms: C_1  and  C_25
    2  A    between atoms: C_1  and  C_39
    3  A    between atoms: C_2  and  C_16
    4  A    between atoms: C_2  and  O_18
    5  A    between atoms: C_4  and  C_14
    6  A    between atoms: C_11  and  C_30
    7  A    between atoms: C_16  and  C_39
    8  A    between atoms: C_22  and  O_32
    9  A    between atoms: C_25  and  C_27
   10  A    between atoms: C_27  and  C_41
   11  A    between atoms: C_30  and  C_41
                            x       y       z     vdW  Elec       q    Type
                         _______ _______ _______ _____ _____    ______ ____

>  <TORSDO>
F 11

$$$$
=
 OpenBabel10232409023D

 43 46  0  0  1  0  0  0  0  0999 V2000
  185.3700  177.2400  136.8050 C   0  0  2  0  0  3  0  0  0  0  0  0
  186.0970  176.6380  134.6250 N   0  0  0  0  0  0  0  0  0  0  0  0
  183.8040  175.3050  137.5570 C   0  0  0  0  0  2  0  0  0  0  0  0
  182.9360  176.9150  139.9130 C   0  0  0  0  0  2  0  0  0  0  0  0
  181.4630  175.3700  139.3210 C   0  0  0  0  0  2  0  0  0  0  0  0
  185.7200  178.3600  140.2860 C   0  0  1  0  0  3  0  0  0  0  0  0
  181.3180  175.0260  137.8380 C   0  0  0  0  0  2  0  0  0  0  0  0
  187.8710  177.4660  136.1160 C   0  0  2  0  0  3  0  0  0  0  0  0
  185.2700  176.5030  135.5560 N   0  0  0  0  0  0  0  0  0  0  0  0
  186.8200  177.4290  137.1870 C   0  0  0  0  0  0  0  0  0  0  0  0
  183.6910  179.7200  139.9600 O   0  0  0  0  0  1  0  0  0  0  0  0
  186.7410  179.2040  134.3460 Cl  0  0  0  0  0  0  0  0  0  0  0  0
  187.2370  177.5330  134.7200 C   0  0  2  0  0  3  0  0  0  0  0  0
  184.5690  176.5790  137.9620 C   0  0  2  0  0  3  0  0  0  0  0  0
  184.5440  178.7850  139.3650 C   0  0  2  0  0  3  0  0  0  0  0  0
  183.7390  177.5950  138.8020 C   0  0  2  0  0  3  0  0  0  0  0  0
  187.0220  178.4600  139.5490 C   0  0  0  0  0  3  0  0  0  0  0  0
  182.4320  175.6210  136.9760 C   0  0  0  0  0  2  0  0  0  0  0  0
  181.6110  176.7470  139.4980 O   0  0  0  0  0  0  0  0  0  0  0  0
  187.0560  177.9500  138.3530 C   0  0  0  0  0  0  0  0  0  0  0  0
  188.8150  176.3060  136.2390 C   0  0  0  0  0  0  0  0  0  0  0  0
  191.0580  175.3810  136.2450 C   0  0  0  0  0  3  0  0  0  0  0  0
  189.1500  173.9280  136.5680 C   0  0  0  0  0  3  0  0  0  0  0  0
  190.5350  174.0980  136.4650 C   0  0  0  0  0  0  0  0  0  0  0  0
  188.2930  175.0260  136.4550 C   0  0  0  0  0  3  0  0  0  0  0  0
  190.2020  176.4790  136.1320 C   0  0  0  0  0  3  0  0  0  0  0  0
  192.1150  172.4610  135.4970 C   0  0  0  0  0  1  0  0  0  0  0  0
  191.3620  172.9800  136.5850 O   0  0  0  0  0  0  0  0  0  0  0  0
  185.8200  179.1360  141.5970 C   0  0  0  0  0  2  0  0  0  0  0  0
  185.1690  178.3750  142.7420 C   0  0  0  0  0  2  0  0  0  0  0  0
  186.1920  178.0350  143.8110 C   0  0  0  0  0  2  0  0  0  0  0  0
  187.2950  177.1950  143.2000 C   0  0  0  0  0  2  0  0  0  0  0  0
  188.5200  177.1840  144.1030 C   0  0  2  0  0  3  0  0  0  0  0  0
  188.2430  177.9700  145.2220 O   0  0  0  0  0  1  0  0  0  0  0  0
  189.3640  178.3420  142.1710 O   0  0  0  0  0  1  0  0  0  0  0  0
  189.7580  177.7210  143.3620 C   0  0  2  0  0  3  0  0  0  0  0  0
  190.8120  176.6360  143.0610 C   0  0  0  0  0  0  0  0  0  0  0  0
  191.7450  177.1370  142.1470 O   0  0  0  0  0  1  0  0  0  0  0  0
  190.2000  175.5090  142.5050 O   0  0  0  0  0  1  0  0  0  0  0  0
  191.5150  176.2200  144.3360 C   0  0  0  0  0  0  0  0  0  0  0  0
  192.1660  175.1420  144.3610 O   0  0  0  0  0  0  0  0  0  0  0  0
  191.6020  176.4620  146.8060 C   0  0  0  0  0  1  0  0  0  0  0  0
  191.4840  177.0030  145.4980 O   0  0  0  0  0  0  0  0  0  0  0  0
  1  9  1  6  0  0  0
  1 10  1  0  0  0  0
  1 14  1  0  0  0  0
  2 13  1  0  0  0  0
  2  9  2  0  0  0  0
  5 19  1  0  0  0  0
  6 29  1  1  0  0  0
  7  5  1  0  0  0  0
  8 21  1  6  0  0  0
  8 10  1  0  0  0  0
 10 20  2  0  0  0  0
 13 12  1  1  0  0  0
 13  8  1  0  0  0  0
 14  3  1  6  0  0  0
 14 16  1  0  0  0  0
 15 11  1  1  0  0  0
 15  6  1  0  0  0  0
 16 15  1  0  0  0  0
 16  4  1  1  0  0  0
 17  6  1  0  0  0  0
 18  3  1  0  0  0  0
 18  7  1  0  0  0  0
 19  4  1  0  0  0  0
 20 17  2  0  0  0  0
 21 25  1  0  0  0  0
 22 24  2  0  0  0  0
 24 23  1  0  0  0  0
 24 28  1  0  0  0  0
 25 23  2  0  0  0  0
 26 21  2  0  0  0  0
 26 22  1  0  0  0  0
 27 28  1  0  0  0  0
 29 30  1  0  0  0  0
 30 31  1  0  0  0  0
 32 31  1  0  0  0  0
 32 33  1  0  0  0  0
 33 34  1  1  0  0  0
 36 35  1  6  0  0  0
 36 33  1  0  0  0  0
 37 36  1  0  0  0  0
 37 40  1  0  0  0  0
 38 37  1  0  0  0  0
 39 37  1  0  0  0  0
 40 41  2  0  0  0  0
 40 43  1  0  0  0  0
 43 42  1  0  0  0  0
M  END
>  <MODEL>
2

>  <REMARK>
 VINA RESULT:      -6.5      2.522      4.928
  Name = 
  11 active torsions:
  status: ('A' for Active; 'I' for Inactive)
    1  A    between atoms: C_1  and  C_25
    2  A    between atoms: C_1  and  C_39
    3  A    between atoms: C_2  and  C_16
    4  A    between atoms: C_2  and  O_18
    5  A    between atoms: C_4  and  C_14
    6  A    between atoms: C_11  and  C_30
    7  A    between atoms: C_16  and  C_39
    8  A    between atoms: C_22  and  O_32
    9  A    between atoms: C_25  and  C_27
   10  A    between atoms: C_27  and  C_41
   11  A    between atoms: C_30  and  C_41
                            x       y       z     vdW  Elec       q    Type
                         _______ _______ _______ _____ _____    ______ ____

>  <TORSDO>
F 11

$$$$
=
 OpenBabel10232409023D

 43 46  0  0  1  0  0  0  0  0999 V2000
  183.4280  177.7060  137.3440 C   0  0  2  0  0  3  0  0  0  0  0  0
  181.1070  177.5790  136.8560 N   0  0  0  0  0  0  0  0  0  0  0  0
  183.5940  177.4500  139.9270 C   0  0  0  0  0  2  0  0  0  0  0  0
  186.4750  178.2130  139.8240 C   0  0  0  0  0  2  0  0  0  0  0  0
  185.5440  178.5850  141.7990 C   0  0  0  0  0  2  0  0  0  0  0  0
  186.9950  176.9000  136.9980 C   0  0  1  0  0  3  0  0  0  0  0  0
  184.0740  179.0050  141.8480 C   0  0  0  0  0  2  0  0  0  0  0  0
  182.5520  176.2520  135.3700 C   0  0  2  0  0  3  0  0  0  0  0  0
  182.0190  177.7800  137.6910 N   0  0  0  0  0  0  0  0  0  0  0  0
  183.6580  176.6260  136.3130 C   0  0  0  0  0  0  0  0  0  0  0  0
  187.4780  179.2950  137.3210 O   0  0  0  0  0  1  0  0  0  0  0  0
  181.7350  178.7150  134.5340 Cl  0  0  0  0  0  0  0  0  0  0  0  0
  181.3810  177.2400  135.4710 C   0  0  2  0  0  3  0  0  0  0  0  0
  184.3440  177.5010  138.5830 C   0  0  2  0  0  3  0  0  0  0  0  0
  186.4670  178.3290  137.3000 C   0  0  2  0  0  3  0  0  0  0  0  0
  185.6080  178.4120  138.5800 C   0  0  2  0  0  3  0  0  0  0  0  0
  186.1850  176.2640  135.9080 C   0  0  0  0  0  3  0  0  0  0  0  0
  183.3620  178.8400  140.5060 C   0  0  0  0  0  2  0  0  0  0  0  0
  186.2060  179.2250  140.7500 O   0  0  0  0  0  0  0  0  0  0  0  0
  184.8920  176.3550  136.0120 C   0  0  0  0  0  0  0  0  0  0  0  0
  182.1020  174.8380  135.5910 C   0  0  0  0  0  0  0  0  0  0  0  0
  181.9610  172.8430  136.9650 C   0  0  0  0  0  3  0  0  0  0  0  0
  180.9700  172.8640  134.7570 C   0  0  0  0  0  3  0  0  0  0  0  0
  181.2490  172.1870  135.9490 C   0  0  0  0  0  0  0  0  0  0  0  0
  181.3960  174.1830  134.5780 C   0  0  0  0  0  3  0  0  0  0  0  0
  182.3870  174.1610  136.7860 C   0  0  0  0  0  3  0  0  0  0  0  0
  180.0720  170.1900  135.0890 C   0  0  0  0  0  1  0  0  0  0  0  0
  180.8070  170.8710  136.0960 O   0  0  0  0  0  0  0  0  0  0  0  0
  188.4760  176.8280  136.6360 C   0  0  0  0  0  2  0  0  0  0  0  0
  189.2810  176.1420  137.7290 C   0  0  0  0  0  2  0  0  0  0  0  0
  189.8480  177.1630  138.7000 C   0  0  0  0  0  2  0  0  0  0  0  0
  190.3960  176.4460  139.9170 C   0  0  0  0  0  2  0  0  0  0  0  0
  191.0790  177.4320  140.8530 C   0  0  2  0  0  3  0  0  0  0  0  0
  192.3810  177.6390  140.3940 O   0  0  0  0  0  1  0  0  0  0  0  0
  190.4570  175.6580  142.3530 O   0  0  0  0  0  1  0  0  0  0  0  0
  191.0960  176.9020  142.2980 C   0  0  2  0  0  3  0  0  0  0  0  0
  190.4510  177.8660  143.3140 C   0  0  0  0  0  0  0  0  0  0  0  0
  189.1900  178.2550  142.8480 O   0  0  0  0  0  1  0  0  0  0  0  0
  191.2430  179.0070  143.4680 O   0  0  0  0  0  1  0  0  0  0  0  0
  190.3140  177.1910  144.6630 C   0  0  0  0  0  0  0  0  0  0  0  0
  189.1660  176.9190  145.1040 O   0  0  0  0  0  0  0  0  0  0  0  0
  191.3450  176.5520  146.8290 C   0  0  0  0  0  1  0  0  0  0  0  0
  191.4240  176.8390  145.4400 O   0  0  0  0  0  0  0  0  0  0  0  0
  1 10  1  6  0  0  0
  1  9  1  0  0  0  0
  1 14  1  0  0  0  0
  2  9  2  0  0  0  0
  3 18  1  0  0  0  0
  4 19  1  0  0  0  0
  5  7  1  0  0  0  0
  6 29  1  6  0  0  0
  6 15  1  0  0  0  0
  8 13  1  0  0  0  0
  8 21  1  1  0  0  0
  8 10  1  0  0  0  0
 13 12  1  6  0  0  0
 13  2  1  0  0  0  0
 14  3  1  1  0  0  0
 15 11  1  1  0  0  0
 15 16  1  0  0  0  0
 16 14  1  0  0  0  0
 16  4  1  1  0  0  0
 17 20  2  0  0  0  0
 17  6  1  0  0  0  0
 18  7  1  0  0  0  0
 19  5  1  0  0  0  0
 20 10  2  0  0  0  0
 21 26  1  0  0  0  0
 23 24  2  0  0  0  0
 24 28  1  0  0  0  0
 24 22  1  0  0  0  0
 25 23  1  0  0  0  0
 25 21  2  0  0  0  0
 26 22  2  0  0  0  0
 27 28  1  0  0  0  0
 29 30  1  0  0  0  0
 30 31  1  0  0  0  0
 31 32  1  0  0  0  0
 32 33  1  0  0  0  0
 33 34  1  6  0  0  0
 33 36  1  0  0  0  0
 36 35  1  6  0  0  0
 36 37  1  0  0  0  0
 37 39  1  0  0  0  0
 37 40  1  0  0  0  0
 38 37  1  0  0  0  0
 40 41  2  0  0  0  0
 40 43  1  0  0  0  0
 43 42  1  0  0  0  0
M  END
>  <MODEL>
3

>  <REMARK>
 VINA RESULT:      -6.4      3.035      7.633
  Name = 
  11 active torsions:
  status: ('A' for Active; 'I' for Inactive)
    1  A    between atoms: C_1  and  C_25
    2  A    between atoms: C_1  and  C_39
    3  A    between atoms: C_2  and  C_16
    4  A    between atoms: C_2  and  O_18
    5  A    between atoms: C_4  and  C_14
    6  A    between atoms: C_11  and  C_30
    7  A    between atoms: C_16  and  C_39
    8  A    between atoms: C_22  and  O_32
    9  A    between atoms: C_25  and  C_27
   10  A    between atoms: C_27  and  C_41
   11  A    between atoms: C_30  and  C_41
                            x       y       z     vdW  Elec       q    Type
                         _______ _______ _______ _____ _____    ______ ____

>  <TORSDO>
F 11

$$$$
=
 OpenBabel10232409023D

 43 46  0  0  1  0  0  0  0  0999 V2000
  188.6700  177.5940  138.9290 C   0  0  2  0  0  3  0  0  0  0  0  0
  186.4670  178.3870  138.5290 N   0  0  0  0  0  0  0  0  0  0  0  0
  188.7650  177.1100  141.4820 C   0  0  0  0  0  2  0  0  0  0  0  0
  191.7180  176.7350  141.3070 C   0  0  0  0  0  2  0  0  0  0  0  0
  191.0280  177.2890  143.3370 C   0  0  0  0  0  2  0  0  0  0  0  0
  191.6590  175.5290  138.3880 C   0  0  1  0  0  3  0  0  0  0  0  0
  189.8280  178.2270  143.4730 C   0  0  0  0  0  2  0  0  0  0  0  0
  187.2780  176.7230  136.9070 C   0  0  2  0  0  3  0  0  0  0  0  0
  187.3990  178.1680  139.3370 N   0  0  0  0  0  0  0  0  0  0  0  0
  188.4570  176.5840  137.8260 C   0  0  0  0  0  0  0  0  0  0  0  0
  193.0180  177.5350  138.8360 O   0  0  0  0  0  1  0  0  0  0  0  0
  187.4430  179.3650  136.2570 Cl  0  0  0  0  0  0  0  0  0  0  0  0
  186.5710  178.0690  137.1160 C   0  0  2  0  0  3  0  0  0  0  0  0
  189.4580  176.9700  140.1150 C   0  0  2  0  0  3  0  0  0  0  0  0
  191.7160  177.0250  138.7980 C   0  0  2  0  0  3  0  0  0  0  0  0
  190.9730  177.3350  140.1140 C   0  0  2  0  0  3  0  0  0  0  0  0
  190.6520  175.3250  137.2960 C   0  0  0  0  0  3  0  0  0  0  0  0
  189.0860  178.4390  142.1530 C   0  0  0  0  0  2  0  0  0  0  0  0
  191.8680  177.7050  142.3040 O   0  0  0  0  0  0  0  0  0  0  0  0
  189.4920  175.8890  137.4590 C   0  0  0  0  0  0  0  0  0  0  0  0
  186.3290  175.5710  137.0610 C   0  0  0  0  0  0  0  0  0  0  0  0
  184.0790  174.6750  137.2090 C   0  0  0  0  0  3  0  0  0  0  0  0
  185.9850  173.1920  137.3730 C   0  0  0  0  0  3  0  0  0  0  0  0
  184.5990  173.3810  137.3670 C   0  0  0  0  0  0  0  0  0  0  0  0
  186.8470  174.2810  137.2220 C   0  0  0  0  0  3  0  0  0  0  0  0
  184.9400  175.7640  137.0590 C   0  0  0  0  0  3  0  0  0  0  0  0
  182.6710  172.0080  136.6510 C   0  0  0  0  0  1  0  0  0  0  0  0
  183.7660  172.2700  137.5180 O   0  0  0  0  0  0  0  0  0  0  0  0
  192.9960  174.9290  137.9620 C   0  0  0  0  0  2  0  0  0  0  0  0
  192.9710  174.4970  136.5030 C   0  0  0  0  0  2  0  0  0  0  0  0
  194.0380  173.4520  136.2340 C   0  0  0  0  0  2  0  0  0  0  0  0
  194.7150  173.0800  137.5370 C   0  0  0  0  0  2  0  0  0  0  0  0
  196.2250  173.0270  137.3570 C   0  0  2  0  0  3  0  0  0  0  0  0
  196.6260  171.6930  137.4240 O   0  0  0  0  0  1  0  0  0  0  0  0
  196.0600  174.8110  138.9630 O   0  0  0  0  0  1  0  0  0  0  0  0
  196.9400  173.8580  138.4380 C   0  0  2  0  0  3  0  0  0  0  0  0
  198.2210  174.5530  137.9330 C   0  0  0  0  0  0  0  0  0  0  0  0
  199.2910  173.6530  137.9910 O   0  0  0  0  0  1  0  0  0  0  0  0
  198.5210  175.6570  138.7350 O   0  0  0  0  0  1  0  0  0  0  0  0
  198.0300  175.0310  136.5090 C   0  0  0  0  0  0  0  0  0  0  0  0
  198.5320  174.3690  135.5620 O   0  0  0  0  0  0  0  0  0  0  0  0
  196.4030  176.2670  135.0990 C   0  0  0  0  0  1  0  0  0  0  0  0
  197.2980  176.1840  136.1980 O   0  0  0  0  0  0  0  0  0  0  0  0
  1 10  1  6  0  0  0
  1  9  1  0  0  0  0
  1 14  1  0  0  0  0
  2  9  2  0  0  0  0
  3 18  1  0  0  0  0
  4 19  1  0  0  0  0
  5  7  1  0  0  0  0
  6 29  1  6  0  0  0
  6 15  1  0  0  0  0
  8 21  1  1  0  0  0
  8 13  1  0  0  0  0
  8 10  1  0  0  0  0
 13 12  1  6  0  0  0
 13  2  1  0  0  0  0
 14  3  1  1  0  0  0
 15 11  1  1  0  0  0
 15 16  1  0  0  0  0
 16 14  1  0  0  0  0
 16  4  1  1  0  0  0
 17 20  2  0  0  0  0
 17  6  1  0  0  0  0
 18  7  1  0  0  0  0
 19  5  1  0  0  0  0
 20 10  2  0  0  0  0
 21 25  1  0  0  0  0
 22 24  2  0  0  0  0
 24 23  1  0  0  0  0
 24 28  1  0  0  0  0
 25 23  2  0  0  0  0
 26 21  2  0  0  0  0
 26 22  1  0  0  0  0
 27 28  1  0  0  0  0
 30 29  1  0  0  0  0
 31 30  1  0  0  0  0
 31 32  1  0  0  0  0
 33 34  1  1  0  0  0
 33 32  1  0  0  0  0
 33 36  1  0  0  0  0
 36 35  1  6  0  0  0
 37 38  1  0  0  0  0
 37 36  1  0  0  0  0
 37 39  1  0  0  0  0
 40 37  1  0  0  0  0
 41 40  2  0  0  0  0
 42 43  1  0  0  0  0
 43 40  1  0  0  0  0
M  END
>  <MODEL>
4

>  <REMARK>
 VINA RESULT:      -6.3      4.518     10.417
  Name = 
  11 active torsions:
  status: ('A' for Active; 'I' for Inactive)
    1  A    between atoms: C_1  and  C_25
    2  A    between atoms: C_1  and  C_39
    3  A    between atoms: C_2  and  C_16
    4  A    between atoms: C_2  and  O_18
    5  A    between atoms: C_4  and  C_14
    6  A    between atoms: C_11  and  C_30
    7  A    between atoms: C_16  and  C_39
    8  A    between atoms: C_22  and  O_32
    9  A    between atoms: C_25  and  C_27
   10  A    between atoms: C_27  and  C_41
   11  A    between atoms: C_30  and  C_41
                            x       y       z     vdW  Elec       q    Type
                         _______ _______ _______ _____ _____    ______ ____

>  <TORSDO>
F 11

$$$$
=
 OpenBabel10232409023D

 43 46  0  0  1  0  0  0  0  0999 V2000
  188.8340  177.6270  139.0400 C   0  0  2  0  0  3  0  0  0  0  0  0
  186.6310  178.4170  138.6320 N   0  0  0  0  0  0  0  0  0  0  0  0
  188.8940  177.0630  141.5780 C   0  0  0  0  0  2  0  0  0  0  0  0
  191.8520  176.7150  141.4370 C   0  0  0  0  0  2  0  0  0  0  0  0
  191.1270  177.1990  143.4730 C   0  0  0  0  0  2  0  0  0  0  0  0
  191.8470  175.6020  138.4800 C   0  0  1  0  0  3  0  0  0  0  0  0
  189.9180  178.1230  143.6190 C   0  0  0  0  0  2  0  0  0  0  0  0
  187.4790  176.8110  136.9710 C   0  0  2  0  0  3  0  0  0  0  0  0
  187.5520  178.1790  139.4470 N   0  0  0  0  0  0  0  0  0  0  0  0
  188.6460  176.6510  137.9020 C   0  0  0  0  0  0  0  0  0  0  0  0
  193.1830  177.6030  139.0120 O   0  0  0  0  0  1  0  0  0  0  0  0
  187.6330  179.4740  136.4070 Cl  0  0  0  0  0  0  0  0  0  0  0  0
  186.7590  178.1450  137.2120 C   0  0  2  0  0  3  0  0  0  0  0  0
  189.6090  176.9710  140.2170 C   0  0  2  0  0  3  0  0  0  0  0  0
  191.8860  177.0860  138.9380 C   0  0  2  0  0  3  0  0  0  0  0  0
  191.1210  177.3480  140.2520 C   0  0  2  0  0  3  0  0  0  0  0  0
  190.8580  175.4260  137.3670 C   0  0  0  0  0  3  0  0  0  0  0  0
  189.1940  178.3720  142.2960 C   0  0  0  0  0  2  0  0  0  0  0  0
  191.9790  177.6540  142.4650 O   0  0  0  0  0  0  0  0  0  0  0  0
  189.6910  175.9760  137.5290 C   0  0  0  0  0  0  0  0  0  0  0  0
  186.5370  175.6480  137.0740 C   0  0  0  0  0  0  0  0  0  0  0  0
  184.3000  174.7380  137.3060 C   0  0  0  0  0  3  0  0  0  0  0  0
  186.2010  173.2490  137.1460 C   0  0  0  0  0  3  0  0  0  0  0  0
  184.8210  173.4350  137.2750 C   0  0  0  0  0  0  0  0  0  0  0  0
  187.0560  174.3490  137.0470 C   0  0  0  0  0  3  0  0  0  0  0  0
  185.1540  175.8390  137.2070 C   0  0  0  0  0  3  0  0  0  0  0  0
  183.0700  171.9520  136.3530 C   0  0  0  0  0  1  0  0  0  0  0  0
  183.9940  172.3140  137.3700 O   0  0  0  0  0  0  0  0  0  0  0  0
  193.1950  175.0270  138.0550 C   0  0  0  0  0  2  0  0  0  0  0  0
  193.2620  174.8230  136.5490 C   0  0  0  0  0  2  0  0  0  0  0  0
  193.9440  176.0010  135.8780 C   0  0  0  0  0  2  0  0  0  0  0  0
  195.2060  175.5230  135.1890 C   0  0  0  0  0  2  0  0  0  0  0  0
  196.3680  175.4900  136.1700 C   0  0  2  0  0  3  0  0  0  0  0  0
  197.2310  176.5420  135.8590 O   0  0  0  0  0  1  0  0  0  0  0  0
  196.4270  173.2680  135.2510 O   0  0  0  0  0  1  0  0  0  0  0  0
  197.1130  174.1450  136.0990 C   0  0  2  0  0  3  0  0  0  0  0  0
  197.3200  173.4840  137.4770 C   0  0  0  0  0  0  0  0  0  0  0  0
  198.2370  172.4340  137.3540 O   0  0  0  0  0  1  0  0  0  0  0  0
  196.1110  172.9690  137.9520 O   0  0  0  0  0  1  0  0  0  0  0  0
  197.8350  174.5010  138.4740 C   0  0  0  0  0  0  0  0  0  0  0  0
  198.9970  174.9670  138.3380 O   0  0  0  0  0  0  0  0  0  0  0  0
  197.6090  175.4170  140.7700 C   0  0  0  0  0  1  0  0  0  0  0  0
  197.0570  174.9600  139.5440 O   0  0  0  0  0  0  0  0  0  0  0  0
  1 10  1  6  0  0  0
  1  9  1  0  0  0  0
  1 14  1  0  0  0  0
  2  9  2  0  0  0  0
  3 18  1  0  0  0  0
  4 19  1  0  0  0  0
  5  7  1  0  0  0  0
  6 29  1  6  0  0  0
  6 15  1  0  0  0  0
  8 21  1  1  0  0  0
  8 13  1  0  0  0  0
  8 10  1  0  0  0  0
 13 12  1  6  0  0  0
 13  2  1  0  0  0  0
 14 16  1  0  0  0  0
 14  3  1  1  0  0  0
 15 11  1  1  0  0  0
 15 16  1  0  0  0  0
 16  4  1  1  0  0  0
 17 20  2  0  0  0  0
 17  6  1  0  0  0  0
 18  7  1  0  0  0  0
 19  5  1  0  0  0  0
 20 10  2  0  0  0  0
 21 26  1  0  0  0  0
 23 24  2  0  0  0  0
 24 22  1  0  0  0  0
 24 28  1  0  0  0  0
 25 21  2  0  0  0  0
 25 23  1  0  0  0  0
 26 22  2  0  0  0  0
 27 28  1  0  0  0  0
 30 29  1  0  0  0  0
 31 30  1  0  0  0  0
 32 31  1  0  0  0  0
 32 33  1  0  0  0  0
 33 34  1  6  0  0  0
 36 35  1  6  0  0  0
 36 33  1  0  0  0  0
 36 37  1  0  0  0  0
 37 39  1  0  0  0  0
 37 40  1  0  0  0  0
 38 37  1  0  0  0  0
 40 43  1  0  0  0  0
 41 40  2  0  0  0  0
 43 42  1  0  0  0  0
M  END
>  <MODEL>
5

>  <REMARK>
 VINA RESULT:      -6.3      4.433     10.330
  Name = 
  11 active torsions:
  status: ('A' for Active; 'I' for Inactive)
    1  A    between atoms: C_1  and  C_25
    2  A    between atoms: C_1  and  C_39
    3  A    between atoms: C_2  and  C_16
    4  A    between atoms: C_2  and  O_18
    5  A    between atoms: C_4  and  C_14
    6  A    between atoms: C_11  and  C_30
    7  A    between atoms: C_16  and  C_39
    8  A    between atoms: C_22  and  O_32
    9  A    between atoms: C_25  and  C_27
   10  A    between atoms: C_27  and  C_41
   11  A    between atoms: C_30  and  C_41
                            x       y       z     vdW  Elec       q    Type
                         _______ _______ _______ _____ _____    ______ ____

>  <TORSDO>
F 11

$$$$
=
 OpenBabel10232409023D

 43 46  0  0  1  0  0  0  0  0999 V2000
  192.3240  176.0500  136.0270 C   0  0  2  0  0  3  0  0  0  0  0  0
  193.9670  175.5030  134.4010 N   0  0  0  0  0  0  0  0  0  0  0  0
  190.2940  174.5190  135.4820 C   0  0  0  0  0  2  0  0  0  0  0  0
  188.6120  176.0540  137.4070 C   0  0  0  0  0  2  0  0  0  0  0  0
  187.4270  175.0100  135.8550 C   0  0  0  0  0  2  0  0  0  0  0  0
  190.9900  176.6870  139.3890 C   0  0  1  0  0  3  0  0  0  0  0  0
  188.0220  174.8660  134.4530 C   0  0  0  0  0  2  0  0  0  0  0  0
  194.8130  175.6900  136.7040 C   0  0  2  0  0  3  0  0  0  0  0  0
  192.7670  175.4920  134.7590 N   0  0  0  0  0  0  0  0  0  0  0  0
  193.3690  175.8190  137.0930 C   0  0  0  0  0  0  0  0  0  0  0  0
  189.6950  178.5500  138.4260 O   0  0  0  0  0  1  0  0  0  0  0  0
  195.0880  177.8290  135.0370 Cl  0  0  0  0  0  0  0  0  0  0  0  0
  195.0220  176.0580  135.2290 C   0  0  2  0  0  3  0  0  0  0  0  0
  190.9380  175.5060  136.4730 C   0  0  2  0  0  3  0  0  0  0  0  0
  190.5600  177.4910  138.1320 C   0  0  2  0  0  3  0  0  0  0  0  0
  189.9780  176.6120  137.0050 C   0  0  2  0  0  3  0  0  0  0  0  0
  192.4800  176.5200  139.4170 C   0  0  0  0  0  3  0  0  0  0  0  0
  189.5040  175.2350  134.3940 C   0  0  0  0  0  2  0  0  0  0  0  0
  187.6920  176.2760  136.3770 O   0  0  0  0  0  0  0  0  0  0  0  0
  193.0460  176.1420  138.3100 C   0  0  0  0  0  0  0  0  0  0  0  0
  195.3390  174.3200  137.0120 C   0  0  0  0  0  0  0  0  0  0  0  0
  197.1750  172.8020  137.4740 C   0  0  0  0  0  3  0  0  0  0  0  0
  194.9060  171.9650  137.3900 C   0  0  0  0  0  3  0  0  0  0  0  0
  196.2730  171.7320  137.5740 C   0  0  0  0  0  0  0  0  0  0  0  0
  194.4410  173.2520  137.1090 C   0  0  0  0  0  3  0  0  0  0  0  0
  196.7110  174.0890  137.1930 C   0  0  0  0  0  3  0  0  0  0  0  0
  195.8080  169.3380  137.9880 C   0  0  0  0  0  1  0  0  0  0  0  0
  196.7040  170.4340  137.8560 O   0  0  0  0  0  0  0  0  0  0  0  0
  190.5210  177.2750  140.7170 C   0  0  0  0  0  2  0  0  0  0  0  0
  191.6730  177.4130  141.7000 C   0  0  0  0  0  2  0  0  0  0  0  0
  191.5150  176.4370  142.8520 C   0  0  0  0  0  2  0  0  0  0  0  0
  191.3230  177.2100  144.1410 C   0  0  0  0  0  2  0  0  0  0  0  0
  190.2540  178.2780  143.9670 C   0  0  2  0  0  3  0  0  0  0  0  0
  190.7600  179.4850  144.4510 O   0  0  0  0  0  1  0  0  0  0  0  0
  189.2350  176.8770  145.6360 O   0  0  0  0  0  1  0  0  0  0  0  0
  188.9650  177.8970  144.7170 C   0  0  2  0  0  3  0  0  0  0  0  0
  187.8140  177.4670  143.7830 C   0  0  0  0  0  0  0  0  0  0  0  0
  187.9540  176.1110  143.4710 O   0  0  0  0  0  1  0  0  0  0  0  0
  187.8530  178.2060  142.5980 O   0  0  0  0  0  1  0  0  0  0  0  0
  186.4780  177.7050  144.4550 C   0  0  0  0  0  0  0  0  0  0  0  0
  186.3550  177.4710  145.6860 O   0  0  0  0  0  0  0  0  0  0  0  0
  184.7400  179.4320  144.0570 C   0  0  0  0  0  1  0  0  0  0  0  0
  185.3660  178.1930  143.7580 O   0  0  0  0  0  0  0  0  0  0  0  0
  1  9  1  6  0  0  0
  1 14  1  0  0  0  0
  1 10  1  0  0  0  0
  2  9  2  0  0  0  0
  2 13  1  0  0  0  0
  5 19  1  0  0  0  0
  6 17  1  0  0  0  0
  6 29  1  1  0  0  0
  7  5  1  0  0  0  0
  8 21  1  6  0  0  0
  8 10  1  0  0  0  0
 10 20  2  0  0  0  0
 13 12  1  1  0  0  0
 13  8  1  0  0  0  0
 14  3  1  6  0  0  0
 14 16  1  0  0  0  0
 15 11  1  1  0  0  0
 15  6  1  0  0  0  0
 16  4  1  1  0  0  0
 16 15  1  0  0  0  0
 18  7  1  0  0  0  0
 18  3  1  0  0  0  0
 19  4  1  0  0  0  0
 20 17  2  0  0  0  0
 21 25  2  0  0  0  0
 21 26  1  0  0  0  0
 22 24  1  0  0  0  0
 23 24  2  0  0  0  0
 24 28  1  0  0  0  0
 25 23  1  0  0  0  0
 26 22  2  0  0  0  0
 28 27  1  0  0  0  0
 29 30  1  0  0  0  0
 30 31  1  0  0  0  0
 31 32  1  0  0  0  0
 33 32  1  0  0  0  0
 33 34  1  1  0  0  0
 33 36  1  0  0  0  0
 36 35  1  1  0  0  0
 37 40  1  0  0  0  0
 37 36  1  0  0  0  0
 38 37  1  0  0  0  0
 39 37  1  0  0  0  0
 40 41  2  0  0  0  0
 43 42  1  0  0  0  0
 43 40  1  0  0  0  0
M  END
>  <MODEL>
6

>  <REMARK>
 VINA RESULT:      -6.3      4.010      6.498
  Name = 
  11 active torsions:
  status: ('A' for Active; 'I' for Inactive)
    1  A    between atoms: C_1  and  C_25
    2  A    between atoms: C_1  and  C_39
    3  A    between atoms: C_2  and  C_16
    4  A    between atoms: C_2  and  O_18
    5  A    between atoms: C_4  and  C_14
    6  A    between atoms: C_11  and  C_30
    7  A    between atoms: C_16  and  C_39
    8  A    between atoms: C_22  and  O_32
    9  A    between atoms: C_25  and  C_27
   10  A    between atoms: C_27  and  C_41
   11  A    between atoms: C_30  and  C_41
                            x       y       z     vdW  Elec       q    Type
                         _______ _______ _______ _____ _____    ______ ____

>  <TORSDO>
F 11

$$$$
=
 OpenBabel10232409023D

 43 46  0  0  1  0  0  0  0  0999 V2000
  185.3850  176.2810  136.6990 C   0  0  2  0  0  3  0  0  0  0  0  0
  187.5670  176.1150  135.7730 N   0  0  0  0  0  0  0  0  0  0  0  0
  184.7490  173.8520  137.3760 C   0  0  0  0  0  2  0  0  0  0  0  0
  181.9410  174.7220  137.8780 C   0  0  0  0  0  2  0  0  0  0  0  0
  182.1190  172.5570  137.4450 C   0  0  0  0  0  2  0  0  0  0  0  0
  182.7330  177.6190  138.8590 C   0  0  1  0  0  3  0  0  0  0  0  0
  183.1960  172.0930  136.4630 C   0  0  0  0  0  2  0  0  0  0  0  0
  187.2500  177.9790  137.3490 C   0  0  2  0  0  3  0  0  0  0  0  0
  186.4930  175.5570  136.0960 N   0  0  0  0  0  0  0  0  0  0  0  0
  185.9050  177.3660  137.6120 C   0  0  0  0  0  0  0  0  0  0  0  0
  181.1830  177.3710  136.9600 O   0  0  0  0  0  1  0  0  0  0  0  0
  187.0670  178.4860  134.6760 Cl  0  0  0  0  0  0  0  0  0  0  0  0
  187.8040  177.5310  135.9890 C   0  0  2  0  0  3  0  0  0  0  0  0
  184.3920  175.3480  137.4470 C   0  0  2  0  0  3  0  0  0  0  0  0
  182.4890  177.1410  137.4020 C   0  0  2  0  0  3  0  0  0  0  0  0
  182.8960  175.6730  137.1560 C   0  0  2  0  0  3  0  0  0  0  0  0
  183.9710  178.4610  138.9320 C   0  0  0  0  0  3  0  0  0  0  0  0
  184.2010  173.1920  136.1170 C   0  0  0  0  0  2  0  0  0  0  0  0
  181.5090  173.7280  136.9940 O   0  0  0  0  0  0  0  0  0  0  0  0
  185.0260  178.0030  138.3270 C   0  0  0  0  0  0  0  0  0  0  0  0
  188.2110  177.6830  138.4620 C   0  0  0  0  0  0  0  0  0  0  0  0
  190.2410  176.6520  139.3000 C   0  0  0  0  0  3  0  0  0  0  0  0
  188.8150  177.9080  140.7980 C   0  0  0  0  0  3  0  0  0  0  0  0
  189.9690  177.1480  140.5840 C   0  0  0  0  0  0  0  0  0  0  0  0
  187.9390  178.1740  139.7430 C   0  0  0  0  0  3  0  0  0  0  0  0
  189.3650  176.9170  138.2450 C   0  0  0  0  0  3  0  0  0  0  0  0
  190.4490  176.1050  142.7740 C   0  0  0  0  0  1  0  0  0  0  0  0
  190.8250  176.9030  141.6600 O   0  0  0  0  0  0  0  0  0  0  0  0
  181.5670  178.3760  139.4890 C   0  0  0  0  0  2  0  0  0  0  0  0
  182.0410  179.2960  140.6040 C   0  0  0  0  0  2  0  0  0  0  0  0
  182.2800  178.5120  141.8820 C   0  0  0  0  0  2  0  0  0  0  0  0
  183.7540  178.5560  142.2280 C   0  0  0  0  0  2  0  0  0  0  0  0
  183.9450  178.6490  143.7350 C   0  0  2  0  0  3  0  0  0  0  0  0
  183.3870  179.8500  144.1720 O   0  0  0  0  0  1  0  0  0  0  0  0
  186.0290  177.4720  143.4920 O   0  0  0  0  0  1  0  0  0  0  0  0
  185.4370  178.5810  144.1090 C   0  0  2  0  0  3  0  0  0  0  0  0
  185.6880  178.5290  145.6300 C   0  0  0  0  0  0  0  0  0  0  0  0
  184.7310  177.7030  146.2290 O   0  0  0  0  0  1  0  0  0  0  0  0
  185.5840  179.8090  146.1810 O   0  0  0  0  0  1  0  0  0  0  0  0
  187.0770  177.9950  145.9130 C   0  0  0  0  0  0  0  0  0  0  0  0
  187.9840  178.1470  145.0530 O   0  0  0  0  0  0  0  0  0  0  0  0
  187.8370  178.0310  148.2760 C   0  0  0  0  0  1  0  0  0  0  0  0
  187.3990  177.3460  147.1110 O   0  0  0  0  0  0  0  0  0  0  0  0
  1  9  1  1  0  0  0
  1 14  1  0  0  0  0
  1 10  1  0  0  0  0
  2 13  1  0  0  0  0
  2  9  2  0  0  0  0
  6 17  1  0  0  0  0
  6 29  1  6  0  0  0
  7  5  1  0  0  0  0
  8 10  1  0  0  0  0
  8 21  1  1  0  0  0
 10 20  2  0  0  0  0
 13 12  1  6  0  0  0
 13  8  1  0  0  0  0
 14  3  1  6  0  0  0
 15 11  1  1  0  0  0
 15  6  1  0  0  0  0
 16 15  1  0  0  0  0
 16 14  1  0  0  0  0
 16  4  1  1  0  0  0
 18  7  1  0  0  0  0
 18  3  1  0  0  0  0
 19  5  1  0  0  0  0
 19  4  1  0  0  0  0
 20 17  2  0  0  0  0
 21 25  1  0  0  0  0
 22 24  2  0  0  0  0
 24 23  1  0  0  0  0
 24 28  1  0  0  0  0
 25 23  2  0  0  0  0
 26 21  2  0  0  0  0
 26 22  1  0  0  0  0
 28 27  1  0  0  0  0
 29 30  1  0  0  0  0
 30 31  1  0  0  0  0
 31 32  1  0  0  0  0
 32 33  1  0  0  0  0
 33 36  1  0  0  0  0
 33 34  1  6  0  0  0
 36 35  1  6  0  0  0
 36 37  1  0  0  0  0
 37 40  1  0  0  0  0
 37 39  1  0  0  0  0
 37 38  1  0  0  0  0
 40 43  1  0  0  0  0
 41 40  2  0  0  0  0
 43 42  1  0  0  0  0
M  END
>  <MODEL>
7

>  <REMARK>
 VINA RESULT:      -6.1      1.454      2.048
  Name = 
  11 active torsions:
  status: ('A' for Active; 'I' for Inactive)
    1  A    between atoms: C_1  and  C_25
    2  A    between atoms: C_1  and  C_39
    3  A    between atoms: C_2  and  C_16
    4  A    between atoms: C_2  and  O_18
    5  A    between atoms: C_4  and  C_14
    6  A    between atoms: C_11  and  C_30
    7  A    between atoms: C_16  and  C_39
    8  A    between atoms: C_22  and  O_32
    9  A    between atoms: C_25  and  C_27
   10  A    between atoms: C_27  and  C_41
   11  A    between atoms: C_30  and  C_41
                            x       y       z     vdW  Elec       q    Type
                         _______ _______ _______ _____ _____    ______ ____

>  <TORSDO>
F 11

$$$$
=
 OpenBabel10232409023D

 43 46  0  0  1  0  0  0  0  0999 V2000
  185.5310  177.0700  136.6180 C   0  0  2  0  0  3  0  0  0  0  0  0
  186.7080  176.4910  134.6380 N   0  0  0  0  0  0  0  0  0  0  0  0
  184.0770  174.9880  137.1770 C   0  0  0  0  0  2  0  0  0  0  0  0
  182.6180  176.5560  139.2510 C   0  0  0  0  0  2  0  0  0  0  0  0
  181.4580  174.8310  138.4860 C   0  0  0  0  0  2  0  0  0  0  0  0
  185.1090  178.3300  140.0420 C   0  0  1  0  0  3  0  0  0  0  0  0
  181.6270  174.4270  137.0210 C   0  0  0  0  0  2  0  0  0  0  0  0
  188.0760  177.5670  136.3780 C   0  0  2  0  0  3  0  0  0  0  0  0
  185.7450  176.2880  135.4110 N   0  0  0  0  0  0  0  0  0  0  0  0
  186.8560  177.4400  137.2430 C   0  0  0  0  0  0  0  0  0  0  0  0
  183.0370  179.4300  139.2880 O   0  0  0  0  0  1  0  0  0  0  0  0
  187.1060  179.1050  134.3460 Cl  0  0  0  0  0  0  0  0  0  0  0  0
  187.7060  177.5160  134.8890 C   0  0  2  0  0  3  0  0  0  0  0  0
  184.6080  176.3550  137.6450 C   0  0  2  0  0  3  0  0  0  0  0  0
  184.0830  178.5840  138.9050 C   0  0  2  0  0  3  0  0  0  0  0  0
  183.5310  177.2910  138.2700 C   0  0  2  0  0  3  0  0  0  0  0  0
  186.5050  178.5600  139.5460 C   0  0  0  0  0  3  0  0  0  0  0  0
  182.8090  175.1220  136.3440 C   0  0  0  0  0  2  0  0  0  0  0  0
  181.4180  176.2200  138.6150 O   0  0  0  0  0  0  0  0  0  0  0  0
  186.8150  178.0210  138.4040 C   0  0  0  0  0  0  0  0  0  0  0  0
  189.1030  176.5310  136.7280 C   0  0  0  0  0  0  0  0  0  0  0  0
  189.7180  174.2510  137.2820 C   0  0  0  0  0  3  0  0  0  0  0  0
  191.4180  175.9690  137.1730 C   0  0  0  0  0  3  0  0  0  0  0  0
  191.0630  174.6350  137.3940 C   0  0  0  0  0  0  0  0  0  0  0  0
  190.4430  176.9140  136.8430 C   0  0  0  0  0  3  0  0  0  0  0  0
  188.7430  175.1950  136.9520 C   0  0  0  0  0  3  0  0  0  0  0  0
  193.2330  173.5420  136.9330 C   0  0  0  0  0  1  0  0  0  0  0  0
  192.0620  173.7160  137.7200 O   0  0  0  0  0  0  0  0  0  0  0  0
  184.8800  179.1520  141.3080 C   0  0  0  0  0  2  0  0  0  0  0  0
  186.1110  179.1480  142.2020 C   0  0  0  0  0  2  0  0  0  0  0  0
  186.0500  178.0010  143.1950 C   0  0  0  0  0  2  0  0  0  0  0  0
  187.3340  177.2010  143.1150 C   0  0  0  0  0  2  0  0  0  0  0  0
  188.0030  177.1300  144.4800 C   0  0  2  0  0  3  0  0  0  0  0  0
  187.0870  177.5630  145.4380 O   0  0  0  0  0  1  0  0  0  0  0  0
  189.6010  178.4180  143.2230 O   0  0  0  0  0  1  0  0  0  0  0  0
  189.2730  178.0000  144.5190 C   0  0  2  0  0  3  0  0  0  0  0  0
  190.4840  177.2910  145.1600 C   0  0  0  0  0  0  0  0  0  0  0  0
  191.6430  178.0340  144.9070 O   0  0  0  0  0  1  0  0  0  0  0  0
  190.6410  176.0150  144.6150 O   0  0  0  0  0  1  0  0  0  0  0  0
  190.2790  177.1540  146.6540 C   0  0  0  0  0  0  0  0  0  0  0  0
  189.5690  177.9990  147.2610 O   0  0  0  0  0  0  0  0  0  0  0  0
  192.2330  175.8290  147.4230 C   0  0  0  0  0  1  0  0  0  0  0  0
  190.8400  176.1050  147.3940 O   0  0  0  0  0  0  0  0  0  0  0  0
  1  9  1  6  0  0  0
  1 10  1  0  0  0  0
  1 14  1  0  0  0  0
  2 13  1  0  0  0  0
  2  9  2  0  0  0  0
  5 19  1  0  0  0  0
  6 29  1  1  0  0  0
  7  5  1  0  0  0  0
  8 21  1  1  0  0  0
  8 10  1  0  0  0  0
 10 20  2  0  0  0  0
 13 12  1  1  0  0  0
 13  8  1  0  0  0  0
 14  3  1  6  0  0  0
 14 16  1  0  0  0  0
 15 11  1  1  0  0  0
 15  6  1  0  0  0  0
 16 15  1  0  0  0  0
 16  4  1  1  0  0  0
 17  6  1  0  0  0  0
 18  7  1  0  0  0  0
 18  3  1  0  0  0  0
 19  4  1  0  0  0  0
 20 17  2  0  0  0  0
 21 25  2  0  0  0  0
 21 26  1  0  0  0  0
 22 24  1  0  0  0  0
 23 24  2  0  0  0  0
 24 28  1  0  0  0  0
 25 23  1  0  0  0  0
 26 22  2  0  0  0  0
 27 28  1  0  0  0  0
 29 30  1  0  0  0  0
 30 31  1  0  0  0  0
 32 31  1  0  0  0  0
 32 33  1  0  0  0  0
 33 36  1  0  0  0  0
 33 34  1  1  0  0  0
 36 35  1  6  0  0  0
 36 37  1  0  0  0  0
 37 40  1  0  0  0  0
 38 37  1  0  0  0  0
 39 37  1  0  0  0  0
 40 41  2  0  0  0  0
 40 43  1  0  0  0  0
 43 42  1  0  0  0  0
M  END
>  <MODEL>
8

>  <REMARK>
 VINA RESULT:      -5.9      2.546      4.401
  Name = 
  11 active torsions:
  status: ('A' for Active; 'I' for Inactive)
    1  A    between atoms: C_1  and  C_25
    2  A    between atoms: C_1  and  C_39
    3  A    between atoms: C_2  and  C_16
    4  A    between atoms: C_2  and  O_18
    5  A    between atoms: C_4  and  C_14
    6  A    between atoms: C_11  and  C_30
    7  A    between atoms: C_16  and  C_39
    8  A    between atoms: C_22  and  O_32
    9  A    between atoms: C_25  and  C_27
   10  A    between atoms: C_27  and  C_41
   11  A    between atoms: C_30  and  C_41
                            x       y       z     vdW  Elec       q    Type
                         _______ _______ _______ _____ _____    ______ ____

>  <TORSDO>
F 11

$$$$
=
 OpenBabel10232409023D

 43 46  0  0  1  0  0  0  0  0999 V2000
  183.4600  179.2040  140.7640 C   0  0  2  0  0  3  0  0  0  0  0  0
  181.1940  179.6100  140.1790 N   0  0  0  0  0  0  0  0  0  0  0  0
  183.3640  178.0460  143.0900 C   0  0  0  0  0  2  0  0  0  0  0  0
  186.3170  178.3480  143.3700 C   0  0  0  0  0  2  0  0  0  0  0  0
  185.2730  178.1500  145.3130 C   0  0  0  0  0  2  0  0  0  0  0  0
  186.9090  178.0340  140.2830 C   0  0  1  0  0  3  0  0  0  0  0  0
  183.8710  178.7450  145.4550 C   0  0  0  0  0  2  0  0  0  0  0  0
  182.5790  178.6760  138.3710 C   0  0  2  0  0  3  0  0  0  0  0  0
  182.0470  179.3660  141.0630 N   0  0  0  0  0  0  0  0  0  0  0  0
  183.6370  178.5270  139.4250 C   0  0  0  0  0  0  0  0  0  0  0  0
  187.6680  180.0640  141.4540 O   0  0  0  0  0  1  0  0  0  0  0  0
  182.1650  181.3700  138.4370 Cl  0  0  0  0  0  0  0  0  0  0  0  0
  181.5420  179.7340  138.7740 C   0  0  2  0  0  3  0  0  0  0  0  0
  184.2290  178.4440  141.8810 C   0  0  2  0  0  3  0  0  0  0  0  0
  186.5460  179.3310  141.0540 C   0  0  2  0  0  3  0  0  0  0  0  0
  185.5960  179.0960  142.2480 C   0  0  2  0  0  3  0  0  0  0  0  0
  186.1220  177.9470  139.0090 C   0  0  0  0  0  3  0  0  0  0  0  0
  183.2640  179.1670  144.1170 C   0  0  0  0  0  2  0  0  0  0  0  0
  186.1020  179.0050  144.5860 O   0  0  0  0  0  0  0  0  0  0  0  0
  184.8480  178.1920  139.0920 C   0  0  0  0  0  0  0  0  0  0  0  0
  181.9320  177.3600  138.0580 C   0  0  0  0  0  0  0  0  0  0  0  0
  181.2960  175.1020  138.6810 C   0  0  0  0  0  3  0  0  0  0  0  0
  180.7560  175.9470  136.4780 C   0  0  0  0  0  3  0  0  0  0  0  0
  180.7190  174.9100  137.4160 C   0  0  0  0  0  0  0  0  0  0  0  0
  181.3600  177.1660  136.7960 C   0  0  0  0  0  3  0  0  0  0  0  0
  181.9010  176.3210  138.9990 C   0  0  0  0  0  3  0  0  0  0  0  0
  180.7850  172.4570  137.1060 C   0  0  0  0  0  1  0  0  0  0  0  0
  180.1060  173.7050  137.0670 O   0  0  0  0  0  0  0  0  0  0  0  0
  188.3940  177.8660  139.9730 C   0  0  0  0  0  2  0  0  0  0  0  0
  189.1340  177.2220  141.1350 C   0  0  0  0  0  2  0  0  0  0  0  0
  190.5500  176.8520  140.7320 C   0  0  0  0  0  2  0  0  0  0  0  0
  191.5120  177.3060  141.8100 C   0  0  0  0  0  2  0  0  0  0  0  0
  190.7540  177.9180  142.9780 C   0  0  2  0  0  3  0  0  0  0  0  0
  191.2240  179.2180  143.1710 O   0  0  0  0  0  1  0  0  0  0  0  0
  191.0080  175.7240  143.9310 O   0  0  0  0  0  1  0  0  0  0  0  0
  190.9430  177.0830  144.2580 C   0  0  2  0  0  3  0  0  0  0  0  0
  189.8400  177.3140  145.3110 C   0  0  0  0  0  0  0  0  0  0  0  0
  188.6920  176.6050  144.9430 O   0  0  0  0  0  1  0  0  0  0  0  0
  189.5220  178.6730  145.3880 O   0  0  0  0  0  1  0  0  0  0  0  0
  190.3130  176.8550  146.6740 C   0  0  0  0  0  0  0  0  0  0  0  0
  189.4720  176.4250  147.5080 O   0  0  0  0  0  0  0  0  0  0  0  0
  192.3590  175.7310  147.5210 C   0  0  0  0  0  1  0  0  0  0  0  0
  191.6640  176.8740  147.0440 O   0  0  0  0  0  0  0  0  0  0  0  0
  1 10  1  6  0  0  0
  1  9  1  0  0  0  0
  1 14  1  0  0  0  0
  2  9  2  0  0  0  0
  3 18  1  0  0  0  0
  4 19  1  0  0  0  0
  5  7  1  0  0  0  0
  6 29  1  6  0  0  0
  6 15  1  0  0  0  0
  8 21  1  1  0  0  0
  8 13  1  0  0  0  0
  8 10  1  0  0  0  0
 13 12  1  1  0  0  0
 13  2  1  0  0  0  0
 14 16  1  0  0  0  0
 14  3  1  1  0  0  0
 15 11  1  1  0  0  0
 15 16  1  0  0  0  0
 16  4  1  1  0  0  0
 17 20  2  0  0  0  0
 17  6  1  0  0  0  0
 18  7  1  0  0  0  0
 19  5  1  0  0  0  0
 20 10  2  0  0  0  0
 21 26  1  0  0  0  0
 22 26  2  0  0  0  0
 23 25  1  0  0  0  0
 23 24  2  0  0  0  0
 24 22  1  0  0  0  0
 25 21  2  0  0  0  0
 28 27  1  0  0  0  0
 28 24  1  0  0  0  0
 29 30  1  0  0  0  0
 31 30  1  0  0  0  0
 31 32  1  0  0  0  0
 32 33  1  0  0  0  0
 33 34  1  1  0  0  0
 33 36  1  0  0  0  0
 36 35  1  6  0  0  0
 36 37  1  0  0  0  0
 37 39  1  0  0  0  0
 37 40  1  0  0  0  0
 38 37  1  0  0  0  0
 40 43  1  0  0  0  0
 40 41  2  0  0  0  0
 43 42  1  0  0  0  0
M  END
>  <MODEL>
9

>  <REMARK>
 VINA RESULT:      -5.5      3.477      8.053
  Name = 
  11 active torsions:
  status: ('A' for Active; 'I' for Inactive)
    1  A    between atoms: C_1  and  C_25
    2  A    between atoms: C_1  and  C_39
    3  A    between atoms: C_2  and  C_16
    4  A    between atoms: C_2  and  O_18
    5  A    between atoms: C_4  and  C_14
    6  A    between atoms: C_11  and  C_30
    7  A    between atoms: C_16  and  C_39
    8  A    between atoms: C_22  and  O_32
    9  A    between atoms: C_25  and  C_27
   10  A    between atoms: C_27  and  C_41
   11  A    between atoms: C_30  and  C_41
                            x       y       z     vdW  Elec       q    Type
                         _______ _______ _______ _____ _____    ______ ____

>  <TORSDO>
F 11

$$$$
