=
 OpenBabel10232410213D

 29 31  0  0  0  0  0  0  0  0999 V2000
  189.8370  176.7390  145.0710 C   0  0  0  0  0  0  0  0  0  0  0  0
  188.6700  176.8650  144.2850 C   0  0  0  0  0  0  0  0  0  0  0  0
  185.2600  178.3300  144.5900 C   0  0  0  0  0  0  0  0  0  0  0  0
  188.7970  178.0070  146.8600 C   0  0  0  0  0  0  0  0  0  0  0  0
  188.8880  178.5730  148.1280 O   0  0  0  0  0  1  0  0  0  0  0  0
  189.8900  177.3140  146.3430 C   0  0  0  0  0  3  0  0  0  0  0  0
  187.5510  177.5370  144.8160 C   0  0  0  0  0  0  0  0  0  0  0  0
  186.5070  178.7970  146.6210 C   0  0  0  0  0  3  0  0  0  0  0  0
  187.6190  178.1180  146.1070 C   0  0  0  0  0  0  0  0  0  0  0  0
  185.3360  178.9030  145.8690 C   0  0  0  0  0  3  0  0  0  0  0  0
  186.3680  177.6530  144.0730 C   0  0  0  0  0  3  0  0  0  0  0  0
  184.0440  178.4250  143.7720 C   0  0  0  0  0  3  0  0  0  0  0  0
  184.0720  178.7040  142.4740 C   0  0  0  0  0  3  0  0  0  0  0  0
  182.8020  178.7840  141.7010 C   0  0  0  0  0  2  0  0  0  0  0  0
  184.3190  179.8750  139.5350 O   0  0  0  0  0  0  0  0  0  0  0  0
  183.7360  178.7730  139.3490 C   0  0  0  0  0  0  0  0  0  0  0  0
  183.8430  178.1240  138.0880 N   0  0  0  0  0  1  0  0  0  0  0  0
  182.9730  178.1680  140.3940 N   0  0  0  0  0  2  0  0  0  0  0  0
  190.9740  175.9730  144.6260 C   0  0  0  0  0  0  0  0  0  0  0  0
  191.9260  175.3320  144.2550 C   0  0  0  0  0  3  0  0  0  0  0  0
  188.5820  176.2740  142.9760 N   0  0  0  0  0  2  0  0  0  0  0  0
  188.1510  178.4400  139.9340 N   0  0  0  0  0  0  0  0  0  0  0  0
  190.3830  177.9250  139.0760 C   0  0  0  0  0  3  0  0  0  0  0  0
  188.9820  179.6200  137.6240 Cl  0  0  0  0  0  0  0  0  0  0  0  0
  190.2450  176.5690  141.1960 C   0  0  0  0  0  3  0  0  0  0  0  0
  189.2210  178.5620  138.9970 C   0  0  0  0  0  0  0  0  0  0  0  0
  188.0280  177.7160  141.1600 C   0  0  0  0  0  2  0  0  0  0  0  0
  190.8540  176.9850  140.0920 C   0  0  0  0  0  3  0  0  0  0  0  0
  188.9280  176.9160  141.7400 C   0  0  0  0  0  0  0  0  0  0  0  0
  1  6  1  0  0  0  0
  2  7  1  0  0  0  0
  2  1  2  0  0  0  0
  3 10  1  0  0  0  0
  4  5  1  0  0  0  0
  6  4  2  0  0  0  0
  7  9  2  0  0  0  0
  9  8  1  0  0  0  0
  9  4  1  0  0  0  0
 10  8  2  0  0  0  0
 11  3  2  0  0  0  0
 11  7  1  0  0  0  0
 12  3  1  0  0  0  0
 13 12  2  0  0  0  0
 14 13  1  0  0  0  0
 16 15  2  0  0  0  0
 16 18  1  0  0  0  0
 17 16  1  0  0  0  0
 18 14  1  0  0  0  0
 19  1  1  0  0  0  0
 20 19  3  0  0  0  0
 21  2  1  0  0  0  0
 22 27  1  0  0  0  0
 23 28  2  0  0  0  0
 24 26  1  0  0  0  0
 25 29  2  0  0  0  0
 26 23  1  0  0  0  0
 26 22  2  0  0  0  0
 27 29  1  0  0  0  0
 28 25  1  0  0  0  0
 29 21  1  0  0  0  0
M  END
>  <MODEL>
1

>  <REMARK>
 VINA RESULT:      -9.0      0.000      0.000
  Name = 
  6 active torsions:
  status: ('A' for Active; 'I' for Inactive)
    1  A    between atoms: C_1  and  C_9
    2  A    between atoms: C_2  and  N_14
    3  A    between atoms: C_4  and  C_11
    4  A    between atoms: C_4  and  N_27
    5  A    between atoms: C_5  and  C_7
    6  A    between atoms: N_14  and  C_28
                            x       y       z     vdW  Elec       q    Type
                         _______ _______ _______ _____ _____    ______ ____

>  <TORSDO>
F 6

$$$$
=
 OpenBabel10232410213D

 29 31  0  0  0  0  0  0  0  0999 V2000
  188.3030  177.5070  146.3610 C   0  0  0  0  0  0  0  0  0  0  0  0
  187.7370  177.2630  145.0900 C   0  0  0  0  0  0  0  0  0  0  0  0
  184.7080  178.2490  143.1620 C   0  0  0  0  0  0  0  0  0  0  0  0
  186.4830  179.0180  146.9060 C   0  0  0  0  0  0  0  0  0  0  0  0
  185.8900  179.8900  147.8140 O   0  0  0  0  0  1  0  0  0  0  0  0
  187.6750  178.3830  147.2500 C   0  0  0  0  0  3  0  0  0  0  0  0
  186.5150  177.8770  144.7510 C   0  0  0  0  0  0  0  0  0  0  0  0
  184.6840  179.3840  145.3090 C   0  0  0  0  0  3  0  0  0  0  0  0
  185.8900  178.7650  145.6610 C   0  0  0  0  0  0  0  0  0  0  0  0
  184.0960  179.1270  144.0680 C   0  0  0  0  0  3  0  0  0  0  0  0
  185.9120  177.6310  143.5080 C   0  0  0  0  0  3  0  0  0  0  0  0
  184.1170  177.9580  141.8480 C   0  0  0  0  0  3  0  0  0  0  0  0
  183.0500  178.5970  141.3840 C   0  0  0  0  0  3  0  0  0  0  0  0
  182.5010  178.2560  140.0440 C   0  0  0  0  0  2  0  0  0  0  0  0
  184.5540  179.9200  138.9480 O   0  0  0  0  0  0  0  0  0  0  0  0
  184.5610  178.6980  138.6410 C   0  0  0  0  0  0  0  0  0  0  0  0
  185.5660  178.1970  137.7690 N   0  0  0  0  0  1  0  0  0  0  0  0
  183.5710  177.8100  139.1640 N   0  0  0  0  0  2  0  0  0  0  0  0
  189.4930  176.8270  146.8070 C   0  0  0  0  0  0  0  0  0  0  0  0
  190.4870  176.2560  147.1810 C   0  0  0  0  0  3  0  0  0  0  0  0
  188.3540  176.3570  144.1580 N   0  0  0  0  0  2  0  0  0  0  0  0
  191.6330  176.9970  142.4350 N   0  0  0  0  0  0  0  0  0  0  0  0
  190.5630  177.6910  140.3470 C   0  0  0  0  0  3  0  0  0  0  0  0
  193.1980  177.6720  140.3100 Cl  0  0  0  0  0  0  0  0  0  0  0  0
  188.6130  177.1900  141.8640 C   0  0  0  0  0  3  0  0  0  0  0  0
  191.6420  177.4360  141.0760 C   0  0  0  0  0  0  0  0  0  0  0  0
  190.5670  176.6690  143.3280 C   0  0  0  0  0  2  0  0  0  0  0  0
  189.1520  177.5930  140.7190 C   0  0  0  0  0  3  0  0  0  0  0  0
  189.2510  176.7240  143.1000 C   0  0  0  0  0  0  0  0  0  0  0  0
  1 19  1  0  0  0  0
  1  6  1  0  0  0  0
  2  1  2  0  0  0  0
  3 11  2  0  0  0  0
  3 10  1  0  0  0  0
  4  6  2  0  0  0  0
  4  5  1  0  0  0  0
  7  2  1  0  0  0  0
  7  9  2  0  0  0  0
  8  9  1  0  0  0  0
  9  4  1  0  0  0  0
 10  8  2  0  0  0  0
 11  7  1  0  0  0  0
 12  3  1  0  0  0  0
 13 12  2  0  0  0  0
 14 13  1  0  0  0  0
 16 15  2  0  0  0  0
 16 18  1  0  0  0  0
 17 16  1  0  0  0  0
 18 14  1  0  0  0  0
 19 20  3  0  0  0  0
 21  2  1  0  0  0  0
 22 27  1  0  0  0  0
 23 28  2  0  0  0  0
 23 26  1  0  0  0  0
 24 26  1  0  0  0  0
 25 29  2  0  0  0  0
 26 22  2  0  0  0  0
 28 25  1  0  0  0  0
 29 27  1  0  0  0  0
 29 21  1  0  0  0  0
M  END
>  <MODEL>
2

>  <REMARK>
 VINA RESULT:      -8.7      1.718      2.411
  Name = 
  6 active torsions:
  status: ('A' for Active; 'I' for Inactive)
    1  A    between atoms: C_1  and  C_9
    2  A    between atoms: C_2  and  N_14
    3  A    between atoms: C_4  and  C_11
    4  A    between atoms: C_4  and  N_27
    5  A    between atoms: C_5  and  C_7
    6  A    between atoms: N_14  and  C_28
                            x       y       z     vdW  Elec       q    Type
                         _______ _______ _______ _____ _____    ______ ____

>  <TORSDO>
F 6

$$$$
=
 OpenBabel10232410213D

 29 31  0  0  0  0  0  0  0  0999 V2000
  188.2250  177.5060  146.2670 C   0  0  0  0  0  0  0  0  0  0  0  0
  187.6870  177.2730  144.9810 C   0  0  0  0  0  0  0  0  0  0  0  0
  184.7140  178.2960  142.9870 C   0  0  0  0  0  0  0  0  0  0  0  0
  186.4040  179.0280  146.7770 C   0  0  0  0  0  0  0  0  0  0  0  0
  185.7970  179.9000  147.6750 O   0  0  0  0  0  1  0  0  0  0  0  0
  187.5830  178.3810  147.1460 C   0  0  0  0  0  3  0  0  0  0  0  0
  186.4790  177.9000  144.6160 C   0  0  0  0  0  0  0  0  0  0  0  0
  184.6470  179.4180  145.1390 C   0  0  0  0  0  3  0  0  0  0  0  0
  185.8390  178.7880  145.5160 C   0  0  0  0  0  0  0  0  0  0  0  0
  184.0870  179.1740  143.8840 C   0  0  0  0  0  3  0  0  0  0  0  0
  185.9040  177.6660  143.3580 C   0  0  0  0  0  3  0  0  0  0  0  0
  184.1520  178.0180  141.6580 C   0  0  0  0  0  3  0  0  0  0  0  0
  182.9040  178.3260  141.3270 C   0  0  0  0  0  3  0  0  0  0  0  0
  182.3970  178.0180  139.9620 C   0  0  0  0  0  2  0  0  0  0  0  0
  183.7520  180.3130  138.9220 O   0  0  0  0  0  0  0  0  0  0  0  0
  182.4920  180.3130  138.8980 C   0  0  0  0  0  0  0  0  0  0  0  0
  181.7970  181.4370  138.3720 N   0  0  0  0  0  1  0  0  0  0  0  0
  181.7550  179.1930  139.3910 N   0  0  0  0  0  2  0  0  0  0  0  0
  189.3980  176.8130  146.7370 C   0  0  0  0  0  0  0  0  0  0  0  0
  190.3790  176.2330  147.1280 C   0  0  0  0  0  3  0  0  0  0  0  0
  188.3190  176.3680  144.0580 N   0  0  0  0  0  2  0  0  0  0  0  0
  191.6450  176.9960  142.4230 N   0  0  0  0  0  0  0  0  0  0  0  0
  190.6330  177.7020  140.3110 C   0  0  0  0  0  3  0  0  0  0  0  0
  193.2680  177.6690  140.3420 Cl  0  0  0  0  0  0  0  0  0  0  0  0
  188.6420  177.2070  141.7750 C   0  0  0  0  0  3  0  0  0  0  0  0
  191.6920  177.4390  141.0670 C   0  0  0  0  0  0  0  0  0  0  0  0
  190.5540  176.6710  143.2880 C   0  0  0  0  0  2  0  0  0  0  0  0
  189.2130  177.6100  140.6450 C   0  0  0  0  0  3  0  0  0  0  0  0
  189.2450  176.7330  143.0250 C   0  0  0  0  0  0  0  0  0  0  0  0
  1 19  1  0  0  0  0
  1  6  1  0  0  0  0
  2  1  2  0  0  0  0
  3 11  2  0  0  0  0
  3 10  1  0  0  0  0
  4  6  2  0  0  0  0
  4  5  1  0  0  0  0
  7  2  1  0  0  0  0
  7  9  2  0  0  0  0
  8  9  1  0  0  0  0
  9  4  1  0  0  0  0
 10  8  2  0  0  0  0
 11  7  1  0  0  0  0
 12  3  1  0  0  0  0
 13 12  2  0  0  0  0
 14 13  1  0  0  0  0
 16 15  2  0  0  0  0
 16 18  1  0  0  0  0
 17 16  1  0  0  0  0
 18 14  1  0  0  0  0
 19 20  3  0  0  0  0
 21  2  1  0  0  0  0
 22 27  1  0  0  0  0
 23 28  2  0  0  0  0
 23 26  1  0  0  0  0
 24 26  1  0  0  0  0
 25 29  2  0  0  0  0
 26 22  2  0  0  0  0
 28 25  1  0  0  0  0
 29 27  1  0  0  0  0
 29 21  1  0  0  0  0
M  END
>  <MODEL>
3

>  <REMARK>
 VINA RESULT:      -8.7      1.899      2.569
  Name = 
  6 active torsions:
  status: ('A' for Active; 'I' for Inactive)
    1  A    between atoms: C_1  and  C_9
    2  A    between atoms: C_2  and  N_14
    3  A    between atoms: C_4  and  C_11
    4  A    between atoms: C_4  and  N_27
    5  A    between atoms: C_5  and  C_7
    6  A    between atoms: N_14  and  C_28
                            x       y       z     vdW  Elec       q    Type
                         _______ _______ _______ _____ _____    ______ ____

>  <TORSDO>
F 6

$$$$
=
 OpenBabel10232410213D

 29 31  0  0  0  0  0  0  0  0999 V2000
  190.0420  176.7200  145.4570 C   0  0  0  0  0  0  0  0  0  0  0  0
  188.7390  176.8680  144.9320 C   0  0  0  0  0  0  0  0  0  0  0  0
  185.4930  178.3870  145.9390 C   0  0  0  0  0  0  0  0  0  0  0  0
  189.4170  177.9970  147.4250 C   0  0  0  0  0  0  0  0  0  0  0  0
  189.7790  178.5570  148.6460 O   0  0  0  0  0  1  0  0  0  0  0  0
  190.3680  177.2880  146.6910 C   0  0  0  0  0  3  0  0  0  0  0  0
  187.7670  177.5560  145.6840 C   0  0  0  0  0  0  0  0  0  0  0  0
  187.1420  178.8260  147.6670 C   0  0  0  0  0  3  0  0  0  0  0  0
  188.1110  178.1300  146.9330 C   0  0  0  0  0  0  0  0  0  0  0  0
  185.8420  178.9540  147.1740 C   0  0  0  0  0  3  0  0  0  0  0  0
  186.4570  177.6940  145.2030 C   0  0  0  0  0  3  0  0  0  0  0  0
  184.1350  178.5050  145.3910 C   0  0  0  0  0  3  0  0  0  0  0  0
  183.8970  178.7480  144.1080 C   0  0  0  0  0  3  0  0  0  0  0  0
  182.4960  178.8540  143.6170 C   0  0  0  0  0  2  0  0  0  0  0  0
  180.2550  178.1330  141.9900 O   0  0  0  0  0  0  0  0  0  0  0  0
  181.3230  178.4650  141.4080 C   0  0  0  0  0  0  0  0  0  0  0  0
  181.3800  178.4620  139.9870 N   0  0  0  0  0  1  0  0  0  0  0  0
  182.4740  178.8480  142.1620 N   0  0  0  0  0  2  0  0  0  0  0  0
  191.0480  175.9370  144.7860 C   0  0  0  0  0  0  0  0  0  0  0  0
  191.8900  175.2830  144.2230 C   0  0  0  0  0  3  0  0  0  0  0  0
  188.3710  176.2840  143.6690 N   0  0  0  0  0  2  0  0  0  0  0  0
  190.0650  176.7990  140.3530 N   0  0  0  0  0  0  0  0  0  0  0  0
  188.5500  178.6050  139.7000 C   0  0  0  0  0  3  0  0  0  0  0  0
  190.3660  177.9520  137.9040 Cl  0  0  0  0  0  0  0  0  0  0  0  0
  187.7450  177.9720  142.0020 C   0  0  0  0  0  3  0  0  0  0  0  0
  189.5670  177.7880  139.4520 C   0  0  0  0  0  0  0  0  0  0  0  0
  189.6330  176.3780  141.6490 C   0  0  0  0  0  2  0  0  0  0  0  0
  187.7120  178.7020  140.8930 C   0  0  0  0  0  3  0  0  0  0  0  0
  188.6180  176.8540  142.3760 C   0  0  0  0  0  0  0  0  0  0  0  0
  1  6  1  0  0  0  0
  2  1  2  0  0  0  0
  2  7  1  0  0  0  0
  3 10  1  0  0  0  0
  4  5  1  0  0  0  0
  6  4  2  0  0  0  0
  7  9  2  0  0  0  0
  9  4  1  0  0  0  0
  9  8  1  0  0  0  0
 10  8  2  0  0  0  0
 11  7  1  0  0  0  0
 11  3  2  0  0  0  0
 12  3  1  0  0  0  0
 13 12  2  0  0  0  0
 14 13  1  0  0  0  0
 16 15  2  0  0  0  0
 16 18  1  0  0  0  0
 17 16  1  0  0  0  0
 18 14  1  0  0  0  0
 19  1  1  0  0  0  0
 20 19  3  0  0  0  0
 21  2  1  0  0  0  0
 22 27  1  0  0  0  0
 23 28  2  0  0  0  0
 24 26  1  0  0  0  0
 25 29  2  0  0  0  0
 26 23  1  0  0  0  0
 26 22  2  0  0  0  0
 27 29  1  0  0  0  0
 28 25  1  0  0  0  0
 29 21  1  0  0  0  0
M  END
>  <MODEL>
4

>  <REMARK>
 VINA RESULT:      -8.4      1.661      1.983
  Name = 
  6 active torsions:
  status: ('A' for Active; 'I' for Inactive)
    1  A    between atoms: C_1  and  C_9
    2  A    between atoms: C_2  and  N_14
    3  A    between atoms: C_4  and  C_11
    4  A    between atoms: C_4  and  N_27
    5  A    between atoms: C_5  and  C_7
    6  A    between atoms: N_14  and  C_28
                            x       y       z     vdW  Elec       q    Type
                         _______ _______ _______ _____ _____    ______ ____

>  <TORSDO>
F 6

$$$$
=
 OpenBabel10232410213D

 29 31  0  0  0  0  0  0  0  0999 V2000
  189.6320  176.9620  146.4560 C   0  0  0  0  0  0  0  0  0  0  0  0
  188.8590  176.8620  145.2780 C   0  0  0  0  0  0  0  0  0  0  0  0
  185.5820  178.0760  143.9940 C   0  0  0  0  0  0  0  0  0  0  0  0
  187.9650  178.4170  147.4530 C   0  0  0  0  0  0  0  0  0  0  0  0
  187.5520  179.1890  148.5340 O   0  0  0  0  0  1  0  0  0  0  0  0
  189.1810  177.7400  147.5250 C   0  0  0  0  0  3  0  0  0  0  0  0
  187.6150  177.5190  145.2130 C   0  0  0  0  0  0  0  0  0  0  0  0
  185.9380  178.9690  146.2240 C   0  0  0  0  0  3  0  0  0  0  0  0
  187.1700  178.3070  146.3030 C   0  0  0  0  0  0  0  0  0  0  0  0
  185.1490  178.8550  145.0780 C   0  0  0  0  0  3  0  0  0  0  0  0
  186.8100  177.4150  144.0680 C   0  0  0  0  0  3  0  0  0  0  0  0
  184.7760  177.9350  142.7730 C   0  0  0  0  0  3  0  0  0  0  0  0
  183.7360  178.7160  142.5060 C   0  0  0  0  0  3  0  0  0  0  0  0
  182.9620  178.5220  141.2490 C   0  0  0  0  0  2  0  0  0  0  0  0
  184.3500  180.0940  139.3040 O   0  0  0  0  0  0  0  0  0  0  0  0
  184.4860  178.8420  139.2540 C   0  0  0  0  0  0  0  0  0  0  0  0
  185.3020  178.2620  138.2450 N   0  0  0  0  0  1  0  0  0  0  0  0
  183.8290  178.0010  140.2030 N   0  0  0  0  0  2  0  0  0  0  0  0
  190.8610  176.2280  146.6230 C   0  0  0  0  0  0  0  0  0  0  0  0
  191.8890  175.6130  146.7620 C   0  0  0  0  0  3  0  0  0  0  0  0
  189.2920  176.0600  144.1650 N   0  0  0  0  0  2  0  0  0  0  0  0
  192.2360  177.1490  142.0960 N   0  0  0  0  0  0  0  0  0  0  0  0
  190.8580  177.6290  140.1320 C   0  0  0  0  0  3  0  0  0  0  0  0
  193.4470  178.0060  139.8120 Cl  0  0  0  0  0  0  0  0  0  0  0  0
  189.1780  176.8720  141.8520 C   0  0  0  0  0  3  0  0  0  0  0  0
  192.0350  177.5550  140.7420 C   0  0  0  0  0  0  0  0  0  0  0  0
  191.3320  176.6840  143.1000 C   0  0  0  0  0  2  0  0  0  0  0  0
  189.5260  177.3270  140.6530 C   0  0  0  0  0  3  0  0  0  0  0  0
  190.0070  176.5340  143.0140 C   0  0  0  0  0  0  0  0  0  0  0  0
  1 19  1  0  0  0  0
  1  6  1  0  0  0  0
  2  1  2  0  0  0  0
  3 11  2  0  0  0  0
  3 10  1  0  0  0  0
  4  6  2  0  0  0  0
  4  5  1  0  0  0  0
  7  2  1  0  0  0  0
  7  9  2  0  0  0  0
  8  9  1  0  0  0  0
  9  4  1  0  0  0  0
 10  8  2  0  0  0  0
 11  7  1  0  0  0  0
 12  3  1  0  0  0  0
 13 12  2  0  0  0  0
 14 13  1  0  0  0  0
 16 15  2  0  0  0  0
 16 18  1  0  0  0  0
 17 16  1  0  0  0  0
 18 14  1  0  0  0  0
 19 20  3  0  0  0  0
 21  2  1  0  0  0  0
 22 27  1  0  0  0  0
 23 28  2  0  0  0  0
 23 26  1  0  0  0  0
 24 26  1  0  0  0  0
 25 29  2  0  0  0  0
 26 22  2  0  0  0  0
 28 25  1  0  0  0  0
 29 27  1  0  0  0  0
 29 21  1  0  0  0  0
M  END
>  <MODEL>
5

>  <REMARK>
 VINA RESULT:      -8.4      1.605      1.996
  Name = 
  6 active torsions:
  status: ('A' for Active; 'I' for Inactive)
    1  A    between atoms: C_1  and  C_9
    2  A    between atoms: C_2  and  N_14
    3  A    between atoms: C_4  and  C_11
    4  A    between atoms: C_4  and  N_27
    5  A    between atoms: C_5  and  C_7
    6  A    between atoms: N_14  and  C_28
                            x       y       z     vdW  Elec       q    Type
                         _______ _______ _______ _____ _____    ______ ____

>  <TORSDO>
F 6

$$$$
=
 OpenBabel10232410213D

 29 31  0  0  0  0  0  0  0  0999 V2000
  182.8660  179.0030  143.4160 C   0  0  0  0  0  0  0  0  0  0  0  0
  183.9430  178.8300  142.5170 C   0  0  0  0  0  0  0  0  0  0  0  0
  187.5720  178.0060  142.6540 C   0  0  0  0  0  0  0  0  0  0  0  0
  184.3100  178.4460  145.2870 C   0  0  0  0  0  0  0  0  0  0  0  0
  184.4630  178.2480  146.6550 O   0  0  0  0  0  1  0  0  0  0  0  0
  183.0590  178.8050  144.7850 C   0  0  0  0  0  3  0  0  0  0  0  0
  185.2150  178.4980  143.0230 C   0  0  0  0  0  0  0  0  0  0  0  0
  186.6620  177.9530  144.9050 C   0  0  0  0  0  3  0  0  0  0  0  0
  185.3970  178.2970  144.4130 C   0  0  0  0  0  0  0  0  0  0  0  0
  187.7430  177.8080  144.0320 C   0  0  0  0  0  3  0  0  0  0  0  0
  186.3110  178.3480  142.1590 C   0  0  0  0  0  3  0  0  0  0  0  0
  188.6860  177.8610  141.7080 C   0  0  0  0  0  3  0  0  0  0  0  0
  188.5400  178.0130  140.3980 C   0  0  0  0  0  3  0  0  0  0  0  0
  189.7120  177.8530  139.4940 C   0  0  0  0  0  2  0  0  0  0  0  0
  188.9840  179.6660  137.4030 O   0  0  0  0  0  0  0  0  0  0  0  0
  188.9070  178.4310  137.1640 C   0  0  0  0  0  0  0  0  0  0  0  0
  188.4600  177.9870  135.8900 N   0  0  0  0  0  1  0  0  0  0  0  0
  189.2670  177.4730  138.1610 N   0  0  0  0  0  2  0  0  0  0  0  0
  181.5690  179.4460  142.9720 C   0  0  0  0  0  0  0  0  0  0  0  0
  180.4840  179.8180  142.6000 C   0  0  0  0  0  3  0  0  0  0  0  0
  183.7780  179.0380  141.1030 N   0  0  0  0  0  2  0  0  0  0  0  0
  184.5220  177.1990  137.9100 N   0  0  0  0  0  0  0  0  0  0  0  0
  182.8960  175.4330  138.3830 C   0  0  0  0  0  3  0  0  0  0  0  0
  184.2570  175.1420  136.1450 Cl  0  0  0  0  0  0  0  0  0  0  0  0
  182.6720  176.9760  140.3630 C   0  0  0  0  0  3  0  0  0  0  0  0
  183.8370  175.9790  137.6230 C   0  0  0  0  0  0  0  0  0  0  0  0
  184.4580  178.0930  139.0230 C   0  0  0  0  0  2  0  0  0  0  0  0
  182.3410  175.9050  139.6500 C   0  0  0  0  0  3  0  0  0  0  0  0
  183.6820  178.0090  140.1080 C   0  0  0  0  0  0  0  0  0  0  0  0
  1  6  1  0  0  0  0
  2  7  1  0  0  0  0
  2  1  2  0  0  0  0
  3 10  1  0  0  0  0
  4  5  1  0  0  0  0
  6  4  2  0  0  0  0
  7  9  2  0  0  0  0
  9  8  1  0  0  0  0
  9  4  1  0  0  0  0
 10  8  2  0  0  0  0
 11  3  2  0  0  0  0
 11  7  1  0  0  0  0
 12  3  1  0  0  0  0
 13 12  2  0  0  0  0
 14 13  1  0  0  0  0
 16 15  2  0  0  0  0
 16 18  1  0  0  0  0
 17 16  1  0  0  0  0
 18 14  1  0  0  0  0
 19  1  1  0  0  0  0
 20 19  3  0  0  0  0
 21  2  1  0  0  0  0
 22 27  1  0  0  0  0
 23 28  2  0  0  0  0
 24 26  1  0  0  0  0
 26 22  2  0  0  0  0
 26 23  1  0  0  0  0
 27 29  1  0  0  0  0
 28 25  1  0  0  0  0
 29 25  2  0  0  0  0
 29 21  1  0  0  0  0
M  END
>  <MODEL>
6

>  <REMARK>
 VINA RESULT:      -8.2      2.724      6.147
  Name = 
  6 active torsions:
  status: ('A' for Active; 'I' for Inactive)
    1  A    between atoms: C_1  and  C_9
    2  A    between atoms: C_2  and  N_14
    3  A    between atoms: C_4  and  C_11
    4  A    between atoms: C_4  and  N_27
    5  A    between atoms: C_5  and  C_7
    6  A    between atoms: N_14  and  C_28
                            x       y       z     vdW  Elec       q    Type
                         _______ _______ _______ _____ _____    ______ ____

>  <TORSDO>
F 6

$$$$
=
 OpenBabel10232410213D

 29 31  0  0  0  0  0  0  0  0999 V2000
  185.3060  178.4740  143.8680 C   0  0  0  0  0  0  0  0  0  0  0  0
  185.8040  178.6170  142.5530 C   0  0  0  0  0  0  0  0  0  0  0  0
  188.9670  177.9800  140.6950 C   0  0  0  0  0  0  0  0  0  0  0  0
  187.4080  177.4910  144.5800 C   0  0  0  0  0  0  0  0  0  0  0  0
  188.1750  176.9260  145.5940 O   0  0  0  0  0  1  0  0  0  0  0  0
  186.1080  177.9100  144.8620 C   0  0  0  0  0  3  0  0  0  0  0  0
  187.1270  178.2240  142.2710 C   0  0  0  0  0  0  0  0  0  0  0  0
  189.2390  177.2490  142.9950 C   0  0  0  0  0  3  0  0  0  0  0  0
  187.9300  177.6510  143.2880 C   0  0  0  0  0  0  0  0  0  0  0  0
  189.7550  177.4120  141.7080 C   0  0  0  0  0  3  0  0  0  0  0  0
  187.6600  178.3800  140.9830 C   0  0  0  0  0  3  0  0  0  0  0  0
  189.4780  178.1640  139.3310 C   0  0  0  0  0  3  0  0  0  0  0  0
  189.1980  177.3260  138.3390 C   0  0  0  0  0  3  0  0  0  0  0  0
  189.7470  177.5720  136.9780 C   0  0  0  0  0  2  0  0  0  0  0  0
  187.4320  179.2190  136.6420 O   0  0  0  0  0  0  0  0  0  0  0  0
  187.5690  178.2320  135.8710 C   0  0  0  0  0  0  0  0  0  0  0  0
  186.5820  177.9700  134.8810 N   0  0  0  0  0  1  0  0  0  0  0  0
  188.7090  177.3770  135.9770 N   0  0  0  0  0  2  0  0  0  0  0  0
  184.0000  178.9550  144.2420 C   0  0  0  0  0  0  0  0  0  0  0  0
  182.9080  179.3570  144.5580 C   0  0  0  0  0  3  0  0  0  0  0  0
  185.0050  179.2040  141.5110 N   0  0  0  0  0  2  0  0  0  0  0  0
  184.3760  178.1950  137.9440 N   0  0  0  0  0  0  0  0  0  0  0  0
  182.6160  176.6090  138.5550 C   0  0  0  0  0  3  0  0  0  0  0  0
  183.1740  176.7370  135.9830 Cl  0  0  0  0  0  0  0  0  0  0  0  0
  183.3140  177.5870  140.7700 C   0  0  0  0  0  3  0  0  0  0  0  0
  183.3910  177.2020  137.6550 C   0  0  0  0  0  0  0  0  0  0  0  0
  184.8330  178.7610  139.1740 C   0  0  0  0  0  2  0  0  0  0  0  0
  182.5680  176.8000  140.0030 C   0  0  0  0  0  3  0  0  0  0  0  0
  184.4050  178.5000  140.4140 C   0  0  0  0  0  0  0  0  0  0  0  0
  1 19  1  0  0  0  0
  1  6  1  0  0  0  0
  2  1  2  0  0  0  0
  3 11  2  0  0  0  0
  3 10  1  0  0  0  0
  4  6  2  0  0  0  0
  4  5  1  0  0  0  0
  7  2  1  0  0  0  0
  7  9  2  0  0  0  0
  8  9  1  0  0  0  0
  9  4  1  0  0  0  0
 10  8  2  0  0  0  0
 11  7  1  0  0  0  0
 12  3  1  0  0  0  0
 13 12  2  0  0  0  0
 14 13  1  0  0  0  0
 16 18  1  0  0  0  0
 16 15  2  0  0  0  0
 17 16  1  0  0  0  0
 18 14  1  0  0  0  0
 19 20  3  0  0  0  0
 21  2  1  0  0  0  0
 22 27  1  0  0  0  0
 23 28  2  0  0  0  0
 24 26  1  0  0  0  0
 26 22  2  0  0  0  0
 26 23  1  0  0  0  0
 27 29  1  0  0  0  0
 28 25  1  0  0  0  0
 29 25  2  0  0  0  0
 29 21  1  0  0  0  0
M  END
>  <MODEL>
7

>  <REMARK>
 VINA RESULT:      -7.7      2.530      5.796
  Name = 
  6 active torsions:
  status: ('A' for Active; 'I' for Inactive)
    1  A    between atoms: C_1  and  C_9
    2  A    between atoms: C_2  and  N_14
    3  A    between atoms: C_4  and  C_11
    4  A    between atoms: C_4  and  N_27
    5  A    between atoms: C_5  and  C_7
    6  A    between atoms: N_14  and  C_28
                            x       y       z     vdW  Elec       q    Type
                         _______ _______ _______ _____ _____    ______ ____

>  <TORSDO>
F 6

$$$$
=
 OpenBabel10232410213D

 29 31  0  0  0  0  0  0  0  0999 V2000
  185.5510  178.4960  143.6930 C   0  0  0  0  0  0  0  0  0  0  0  0
  186.1800  178.5300  142.4280 C   0  0  0  0  0  0  0  0  0  0  0  0
  189.4600  177.6020  140.9290 C   0  0  0  0  0  0  0  0  0  0  0  0
  187.5110  177.4410  144.6620 C   0  0  0  0  0  0  0  0  0  0  0  0
  188.1410  176.8950  145.7760 O   0  0  0  0  0  1  0  0  0  0  0  0
  186.2190  177.9490  144.7910 C   0  0  0  0  0  3  0  0  0  0  0  0
  187.4970  178.0460  142.3000 C   0  0  0  0  0  0  0  0  0  0  0  0
  189.4650  176.9990  143.2810 C   0  0  0  0  0  3  0  0  0  0  0  0
  188.1620  177.4910  143.4210 C   0  0  0  0  0  0  0  0  0  0  0  0
  190.1110  177.0540  142.0440 C   0  0  0  0  0  3  0  0  0  0  0  0
  188.1580  178.0930  141.0640 C   0  0  0  0  0  3  0  0  0  0  0  0
  190.1090  177.6740  139.6130 C   0  0  0  0  0  3  0  0  0  0  0  0
  190.0610  176.6800  138.7340 C   0  0  0  0  0  3  0  0  0  0  0  0
  190.7400  176.8170  137.4170 C   0  0  0  0  0  2  0  0  0  0  0  0
  193.4880  176.9090  138.2090 O   0  0  0  0  0  0  0  0  0  0  0  0
  193.0720  175.8610  137.6480 C   0  0  0  0  0  0  0  0  0  0  0  0
  193.9680  174.7790  137.4230 N   0  0  0  0  0  1  0  0  0  0  0  0
  191.7080  175.7450  137.2390 N   0  0  0  0  0  2  0  0  0  0  0  0
  184.2490  179.0720  143.9100 C   0  0  0  0  0  0  0  0  0  0  0  0
  183.1590  179.5550  144.0910 C   0  0  0  0  0  3  0  0  0  0  0  0
  185.5220  179.0970  141.2810 N   0  0  0  0  0  2  0  0  0  0  0  0
  184.7040  177.7810  137.8560 N   0  0  0  0  0  0  0  0  0  0  0  0
  182.7400  176.5520  138.6420 C   0  0  0  0  0  3  0  0  0  0  0  0
  183.2760  176.2960  136.0750 Cl  0  0  0  0  0  0  0  0  0  0  0  0
  183.6040  177.6700  140.7300 C   0  0  0  0  0  3  0  0  0  0  0  0
  183.5810  176.9160  137.6820 C   0  0  0  0  0  0  0  0  0  0  0  0
  185.2550  178.4140  139.0130 C   0  0  0  0  0  2  0  0  0  0  0  0
  182.7410  176.9160  140.0580 C   0  0  0  0  0  3  0  0  0  0  0  0
  184.8110  178.3650  140.2720 C   0  0  0  0  0  0  0  0  0  0  0  0
  1 19  1  0  0  0  0
  1  6  1  0  0  0  0
  2  1  2  0  0  0  0
  3 11  2  0  0  0  0
  3 10  1  0  0  0  0
  4  6  2  0  0  0  0
  4  5  1  0  0  0  0
  7  2  1  0  0  0  0
  7  9  2  0  0  0  0
  8  9  1  0  0  0  0
  9  4  1  0  0  0  0
 10  8  2  0  0  0  0
 11  7  1  0  0  0  0
 12  3  1  0  0  0  0
 13 12  2  0  0  0  0
 14 13  1  0  0  0  0
 16 15  2  0  0  0  0
 17 16  1  0  0  0  0
 18 14  1  0  0  0  0
 18 16  1  0  0  0  0
 19 20  3  0  0  0  0
 21  2  1  0  0  0  0
 22 27  1  0  0  0  0
 23 28  2  0  0  0  0
 24 26  1  0  0  0  0
 26 22  2  0  0  0  0
 26 23  1  0  0  0  0
 27 29  1  0  0  0  0
 28 25  1  0  0  0  0
 29 25  2  0  0  0  0
 29 21  1  0  0  0  0
M  END
>  <MODEL>
8

>  <REMARK>
 VINA RESULT:      -7.7      3.206      6.588
  Name = 
  6 active torsions:
  status: ('A' for Active; 'I' for Inactive)
    1  A    between atoms: C_1  and  C_9
    2  A    between atoms: C_2  and  N_14
    3  A    between atoms: C_4  and  C_11
    4  A    between atoms: C_4  and  N_27
    5  A    between atoms: C_5  and  C_7
    6  A    between atoms: N_14  and  C_28
                            x       y       z     vdW  Elec       q    Type
                         _______ _______ _______ _____ _____    ______ ____

>  <TORSDO>
F 6

$$$$
=
 OpenBabel10232410213D

 29 31  0  0  0  0  0  0  0  0999 V2000
  189.0080  177.7470  143.1700 C   0  0  0  0  0  0  0  0  0  0  0  0
  188.3030  178.1830  142.0250 C   0  0  0  0  0  0  0  0  0  0  0  0
  184.7810  178.8440  141.0150 C   0  0  0  0  0  0  0  0  0  0  0  0
  186.9350  177.6340  144.4290 C   0  0  0  0  0  0  0  0  0  0  0  0
  186.2840  177.3710  145.6300 O   0  0  0  0  0  1  0  0  0  0  0  0
  188.3190  177.4830  144.3570 C   0  0  0  0  0  3  0  0  0  0  0  0
  186.9010  178.3050  142.0850 C   0  0  0  0  0  0  0  0  0  0  0  0
  184.8230  178.1770  143.3500 C   0  0  0  0  0  3  0  0  0  0  0  0
  186.2150  178.0380  143.2950 C   0  0  0  0  0  0  0  0  0  0  0  0
  184.1100  178.5770  142.2180 C   0  0  0  0  0  3  0  0  0  0  0  0
  186.1700  178.7070  140.9570 C   0  0  0  0  0  3  0  0  0  0  0  0
  184.0620  179.2680  139.8060 C   0  0  0  0  0  3  0  0  0  0  0  0
  182.7400  179.2050  139.6980 C   0  0  0  0  0  3  0  0  0  0  0  0
  182.0720  179.6520  138.4460 C   0  0  0  0  0  2  0  0  0  0  0  0
  180.5300  181.1490  136.5570 O   0  0  0  0  0  0  0  0  0  0  0  0
  181.0880  181.7810  137.4940 C   0  0  0  0  0  0  0  0  0  0  0  0
  180.9410  183.1930  137.5760 N   0  0  0  0  0  1  0  0  0  0  0  0
  181.8610  181.0920  138.4780 N   0  0  0  0  0  2  0  0  0  0  0  0
  190.4270  177.4990  143.1410 C   0  0  0  0  0  0  0  0  0  0  0  0
  191.6140  177.2920  143.1180 C   0  0  0  0  0  3  0  0  0  0  0  0
  188.9830  178.4510  140.7860 N   0  0  0  0  0  2  0  0  0  0  0  0
  190.8360  175.7880  138.8870 N   0  0  0  0  0  0  0  0  0  0  0  0
  189.1350  175.6540  137.1340 C   0  0  0  0  0  3  0  0  0  0  0  0
  191.1570  173.9840  136.8710 Cl  0  0  0  0  0  0  0  0  0  0  0  0
  188.2530  177.4490  138.6680 C   0  0  0  0  0  3  0  0  0  0  0  0
  190.2730  175.2550  137.6880 C   0  0  0  0  0  0  0  0  0  0  0  0
  190.3700  176.7760  139.8070 C   0  0  0  0  0  2  0  0  0  0  0  0
  188.2020  176.6870  137.5810 C   0  0  0  0  0  3  0  0  0  0  0  0
  189.2440  177.4950  139.7480 C   0  0  0  0  0  0  0  0  0  0  0  0
  1  6  1  0  0  0  0
  2  7  1  0  0  0  0
  2  1  2  0  0  0  0
  3 10  1  0  0  0  0
  4  5  1  0  0  0  0
  6  4  2  0  0  0  0
  7  9  2  0  0  0  0
  9  8  1  0  0  0  0
  9  4  1  0  0  0  0
 10  8  2  0  0  0  0
 11  3  2  0  0  0  0
 11  7  1  0  0  0  0
 12  3  1  0  0  0  0
 13 12  2  0  0  0  0
 14 18  1  0  0  0  0
 14 13  1  0  0  0  0
 15 16  2  0  0  0  0
 16 17  1  0  0  0  0
 16 18  1  0  0  0  0
 19  1  1  0  0  0  0
 20 19  3  0  0  0  0
 21  2  1  0  0  0  0
 22 27  1  0  0  0  0
 23 28  2  0  0  0  0
 23 26  1  0  0  0  0
 24 26  1  0  0  0  0
 25 29  2  0  0  0  0
 26 22  2  0  0  0  0
 28 25  1  0  0  0  0
 29 27  1  0  0  0  0
 29 21  1  0  0  0  0
M  END
>  <MODEL>
9

>  <REMARK>
 VINA RESULT:      -7.6      2.761      3.610
  Name = 
  6 active torsions:
  status: ('A' for Active; 'I' for Inactive)
    1  A    between atoms: C_1  and  C_9
    2  A    between atoms: C_2  and  N_14
    3  A    between atoms: C_4  and  C_11
    4  A    between atoms: C_4  and  N_27
    5  A    between atoms: C_5  and  C_7
    6  A    between atoms: N_14  and  C_28
                            x       y       z     vdW  Elec       q    Type
                         _______ _______ _______ _____ _____    ______ ____

>  <TORSDO>
F 6

$$$$
