=
 OpenBabel10232408203D

 32 37  0  0  1  0  0  0  0  0999 V2000
  186.0960  178.4110  144.7170 C   0  0  0  0  0  3  0  0  0  0  0  0
  188.5700  177.4910  141.1080 C   0  0  0  0  0  0  0  0  0  0  0  0
  185.1770  178.7770  143.7080 C   0  0  0  0  0  0  0  0  0  0  0  0
  185.5280  178.6610  142.3490 C   0  0  0  0  0  3  0  0  0  0  0  0
  188.8120  177.3650  142.4440 N   0  0  0  0  0  0  0  0  0  0  0  0
  187.3300  177.9780  140.8330 N   0  0  0  0  0  0  0  0  0  0  0  0
  187.6790  177.8050  143.0240 C   0  0  0  0  0  0  0  0  0  0  0  0
  186.7940  178.1640  142.0510 C   0  0  0  0  0  0  0  0  0  0  0  0
  187.3680  177.9140  144.3810 C   0  0  0  0  0  3  0  0  0  0  0  0
  189.2290  176.7650  138.7550 C   0  0  0  0  0  0  0  0  0  0  0  0
  190.4760  176.5380  138.0800 C   0  0  0  0  0  0  0  0  0  0  0  0
  190.4710  176.1710  136.7240 C   0  0  0  0  0  0  0  0  0  0  0  0
  191.4520  176.8340  139.0250 C   0  0  0  0  0  0  0  0  0  0  0  0
  193.1880  176.9140  138.7890 Cl  0  0  0  0  0  0  0  0  0  0  0  0
  188.0630  176.3140  136.7320 C   0  0  0  0  0  3  0  0  0  0  0  0
  189.2560  176.0820  136.1000 N   0  0  0  0  0  0  0  0  0  0  0  0
  189.5370  177.1440  140.0440 C   0  0  1  0  0  3  0  0  0  0  0  0
  190.8810  177.1910  140.2000 N   0  0  0  0  0  0  0  0  0  0  0  0
  188.0150  176.6620  138.0890 C   0  0  0  0  0  3  0  0  0  0  0  0
  192.5020  174.9850  136.3780 O   0  0  0  0  0  0  0  0  0  0  0  0
  191.8740  176.4060  134.6620 N   0  0  0  0  0  1  0  0  0  0  0  0
  191.6790  175.8350  135.9520 C   0  0  0  0  0  0  0  0  0  0  0  0
  190.9570  176.8950  145.3110 C   0  0  2  0  0  0  0  0  0  0  0  0
  191.0740  178.0720  143.1880 C   0  0  1  0  0  3  0  0  0  0  0  0
  190.4270  177.3750  146.5100 O   0  0  0  0  0  1  0  0  0  0  0  0
  191.6340  178.0260  144.5400 C   0  0  1  0  0  3  0  0  0  0  0  0
  190.0630  176.9340  143.0770 C   0  0  1  0  0  3  0  0  0  0  0  0
  189.8470  176.3320  144.4490 C   0  0  0  0  0  2  0  0  0  0  0  0
  191.9700  175.8070  145.6090 C   0  0  0  0  0  1  0  0  0  0  0  0
  190.6550  179.0690  144.1880 N   0  0  0  0  0  2  0  0  0  0  0  0
  183.5950  179.0820  145.4950 N   0  0  0  0  0  1  0  0  0  0  0  0
  183.8440  179.3210  144.0840 C   0  0  0  0  0  2  0  0  0  0  0  0
  2  5  1  0  0  0  0
  3 32  1  0  0  0  0
  3  1  2  0  0  0  0
  4  3  1  0  0  0  0
  5  7  1  0  0  0  0
  6  2  2  0  0  0  0
  6  8  1  0  0  0  0
  7  9  2  0  0  0  0
  8  4  2  0  0  0  0
  8  7  1  0  0  0  0
  9  1  1  0  0  0  0
 10 17  1  0  0  0  0
 11 10  2  0  0  0  0
 11 13  1  0  0  0  0
 12 11  1  0  0  0  0
 13 18  2  0  0  0  0
 14 13  1  0  0  0  0
 15 19  2  0  0  0  0
 16 12  2  0  0  0  0
 16 15  1  0  0  0  0
 17 18  1  0  0  0  0
 17  2  1  6  0  0  0
 19 10  1  0  0  0  0
 21 22  1  0  0  0  0
 22 20  2  0  0  0  0
 22 12  1  0  0  0  0
 23 29  1  1  0  0  0
 23 25  1  0  0  0  0
 24 30  1  1  0  0  0
 24 26  1  0  0  0  0
 26 30  1  1  0  0  0
 26 23  1  0  0  0  0
 27  5  1  1  0  0  0
 27 24  1  0  0  0  0
 27 28  1  0  0  0  0
 28 23  1  0  0  0  0
 32 31  1  0  0  0  0
M  END
>  <MODEL>
1

>  <REMARK>
 VINA RESULT:      -8.6      0.000      0.000
  Name = 
  4 active torsions:
  status: ('A' for Active; 'I' for Inactive)
    1  A    between atoms: C_5  and  C_27
    2  A    between atoms: C_6  and  C_26
    3  A    between atoms: C_9  and  C_29
    4  A    between atoms: N_16  and  C_20
                            x       y       z     vdW  Elec       q    Type
                         _______ _______ _______ _____ _____    ______ ____

>  <TORSDO>
F 4

$$$$
=
 OpenBabel10232408203D

 32 37  0  0  1  0  0  0  0  0999 V2000
  190.5140  177.4330  138.7450 C   0  0  0  0  0  3  0  0  0  0  0  0
  186.5750  178.3610  140.6460 C   0  0  0  0  0  0  0  0  0  0  0  0
  189.7240  177.5730  137.5820 C   0  0  0  0  0  0  0  0  0  0  0  0
  188.3520  177.8740  137.6850 C   0  0  0  0  0  3  0  0  0  0  0  0
  187.8120  178.1210  141.1660 N   0  0  0  0  0  0  0  0  0  0  0  0
  186.5500  178.3220  139.2870 N   0  0  0  0  0  0  0  0  0  0  0  0
  188.5870  177.9100  140.0850 C   0  0  0  0  0  0  0  0  0  0  0  0
  187.8230  178.0380  138.9620 C   0  0  0  0  0  0  0  0  0  0  0  0
  189.9470  177.6050  140.0200 C   0  0  0  0  0  3  0  0  0  0  0  0
  184.0600  178.4990  141.0340 C   0  0  0  0  0  0  0  0  0  0  0  0
  183.2270  178.8670  142.1450 C   0  0  1  0  0  3  0  0  0  0  0  0
  181.8300  178.7870  142.0180 C   0  0  0  0  0  0  0  0  0  0  0  0
  184.1160  179.1720  143.1700 C   0  0  0  0  0  0  0  0  0  0  0  0
  183.7420  179.5380  144.8440 Cl  0  0  0  0  0  0  0  0  0  0  0  0
  182.1190  177.9520  139.7740 C   0  0  0  0  0  3  0  0  0  0  0  0
  181.3320  178.3210  140.8330 N   0  0  0  0  0  0  0  0  0  0  0  0
  185.3660  178.6370  141.4520 C   0  0  0  0  0  0  0  0  0  0  0  0
  185.3950  179.0370  142.7450 N   0  0  0  0  0  0  0  0  0  0  0  0
  183.5160  178.0340  139.8450 C   0  0  0  0  0  3  0  0  0  0  0  0
  180.6610  178.4960  144.0690 O   0  0  0  0  0  0  0  0  0  0  0  0
  180.2660  180.4950  142.9710 N   0  0  0  0  0  1  0  0  0  0  0  0
  180.8790  179.2130  143.0580 C   0  0  0  0  0  0  0  0  0  0  0  0
  190.1400  177.4660  143.8500 C   0  0  2  0  0  0  0  0  0  0  0  0
  187.9770  176.6170  143.1370 C   0  0  1  0  0  3  0  0  0  0  0  0
  191.3960  177.0280  143.4280 O   0  0  0  0  0  1  0  0  0  0  0  0
  189.1660  176.2920  143.9270 C   0  0  1  0  0  3  0  0  0  0  0  0
  188.1700  178.0270  142.5860 C   0  0  1  0  0  3  0  0  0  0  0  0
  189.5890  178.4730  142.8630 C   0  0  0  0  0  2  0  0  0  0  0  0
  190.2650  178.1110  145.2170 C   0  0  0  0  0  1  0  0  0  0  0  0
  188.9820  175.6850  142.5970 N   0  0  0  0  0  2  0  0  0  0  0  0
  189.3010  177.3480  135.2240 N   0  0  0  0  0  1  0  0  0  0  0  0
  190.3370  177.3660  136.2420 C   0  0  0  0  0  2  0  0  0  0  0  0
  1  9  1  0  0  0  0
  2  5  1  0  0  0  0
  2 17  1  0  0  0  0
  3  4  1  0  0  0  0
  3  1  2  0  0  0  0
  4  8  2  0  0  0  0
  6  2  2  0  0  0  0
  7  5  1  0  0  0  0
  8  6  1  0  0  0  0
  8  7  1  0  0  0  0
  9  7  2  0  0  0  0
 10 17  2  0  0  0  0
 11 10  1  1  0  0  0
 11 13  1  0  0  0  0
 12 11  1  0  0  0  0
 12 22  1  0  0  0  0
 13 14  1  0  0  0  0
 15 19  2  0  0  0  0
 15 16  1  0  0  0  0
 16 12  2  0  0  0  0
 17 18  1  0  0  0  0
 18 13  2  0  0  0  0
 19 10  1  0  0  0  0
 21 22  1  0  0  0  0
 22 20  2  0  0  0  0
 23 26  1  0  0  0  0
 23 29  1  1  0  0  0
 24 30  1  6  0  0  0
 24 26  1  0  0  0  0
 25 23  1  0  0  0  0
 26 30  1  6  0  0  0
 27  5  1  6  0  0  0
 27 28  1  0  0  0  0
 27 24  1  0  0  0  0
 28 23  1  0  0  0  0
 31 32  1  0  0  0  0
 32  3  1  0  0  0  0
M  END
>  <MODEL>
2

>  <REMARK>
 VINA RESULT:      -8.3      3.487      7.473
  Name = 
  4 active torsions:
  status: ('A' for Active; 'I' for Inactive)
    1  A    between atoms: C_5  and  C_27
    2  A    between atoms: C_6  and  C_26
    3  A    between atoms: C_9  and  C_29
    4  A    between atoms: N_16  and  C_20
                            x       y       z     vdW  Elec       q    Type
                         _______ _______ _______ _____ _____    ______ ____

>  <TORSDO>
F 4

$$$$
=
 OpenBabel10232408203D

 32 37  0  0  1  0  0  0  0  0999 V2000
  192.0500  175.8110  136.0040 C   0  0  0  0  0  3  0  0  0  0  0  0
  189.7250  177.0540  139.6140 C   0  0  0  0  0  0  0  0  0  0  0  0
  193.1200  176.0900  136.8820 C   0  0  0  0  0  0  0  0  0  0  0  0
  192.8670  176.5390  138.1930 C   0  0  0  0  0  3  0  0  0  0  0  0
  189.3420  176.6270  138.3780 N   0  0  0  0  0  0  0  0  0  0  0  0
  191.0750  177.0920  139.7730 N   0  0  0  0  0  0  0  0  0  0  0  0
  190.5030  176.4020  137.7350 C   0  0  0  0  0  0  0  0  0  0  0  0
  191.5370  176.6780  138.5800 C   0  0  0  0  0  0  0  0  0  0  0  0
  190.7170  175.9630  136.4270 C   0  0  0  0  0  3  0  0  0  0  0  0
  188.8920  177.0980  142.0230 C   0  0  0  0  0  0  0  0  0  0  0  0
  187.7780  177.7060  142.6970 C   0  0  0  0  0  0  0  0  0  0  0  0
  187.6430  177.5500  144.0860 C   0  0  0  0  0  0  0  0  0  0  0  0
  187.1030  178.4080  141.7050 C   0  0  0  0  0  0  0  0  0  0  0  0
  185.7440  179.5000  141.8970 Cl  0  0  0  0  0  0  0  0  0  0  0  0
  189.6900  176.2760  144.1070 C   0  0  0  0  0  3  0  0  0  0  0  0
  188.6160  176.8440  144.7390 N   0  0  0  0  0  2  0  0  0  0  0  0
  188.7910  177.4450  140.6930 C   0  0  0  0  0  0  0  0  0  0  0  0
  187.7120  178.2420  140.5070 N   0  0  0  0  0  0  0  0  0  0  0  0
  189.8590  176.3850  142.7190 C   0  0  0  0  0  3  0  0  0  0  0  0
  185.3270  177.9640  144.4340 O   0  0  0  0  0  0  0  0  0  0  0  0
  186.7220  178.5760  146.1770 N   0  0  0  0  0  1  0  0  0  0  0  0
  186.5040  178.0580  144.8690 C   0  0  0  0  0  0  0  0  0  0  0  0
  186.9360  175.9060  135.7820 C   0  0  2  0  0  0  0  0  0  0  0  0
  187.5290  177.8150  137.1640 C   0  0  1  0  0  3  0  0  0  0  0  0
  187.5020  175.5470  134.5570 O   0  0  0  0  0  1  0  0  0  0  0  0
  186.8760  177.4270  135.9130 C   0  0  1  0  0  3  0  0  0  0  0  0
  187.9720  176.5320  137.8620 C   0  0  1  0  0  3  0  0  0  0  0  0
  187.7820  175.3670  136.9150 C   0  0  0  0  0  2  0  0  0  0  0  0
  185.5350  175.3330  135.8750 C   0  0  0  0  0  1  0  0  0  0  0  0
  188.2320  178.0020  135.8830 N   0  0  0  0  0  2  0  0  0  0  0  0
  194.9710  177.1860  135.8040 N   0  0  0  0  0  1  0  0  0  0  0  0
  194.5230  175.9430  136.4080 C   0  0  0  0  0  2  0  0  0  0  0  0
  1  9  2  0  0  0  0
  1  3  1  0  0  0  0
  2  6  2  0  0  0  0
  2 17  1  0  0  0  0
  3  4  2  0  0  0  0
  4  8  1  0  0  0  0
  5  2  1  0  0  0  0
  7  5  1  0  0  0  0
  7  8  2  0  0  0  0
  8  6  1  0  0  0  0
  9  7  1  0  0  0  0
 10 11  1  0  0  0  0
 10 19  1  0  0  0  0
 11 12  2  0  0  0  0
 12 16  1  0  0  0  0
 12 22  1  0  0  0  0
 13 14  1  0  0  0  0
 13 11  1  0  0  0  0
 15 16  1  0  0  0  0
 17 10  2  0  0  0  0
 18 17  1  0  0  0  0
 18 13  2  0  0  0  0
 19 15  2  0  0  0  0
 20 22  2  0  0  0  0
 22 21  1  0  0  0  0
 23 29  1  1  0  0  0
 23 26  1  0  0  0  0
 23 28  1  0  0  0  0
 24 30  1  6  0  0  0
 24 27  1  0  0  0  0
 25 23  1  0  0  0  0
 26 30  1  6  0  0  0
 26 24  1  0  0  0  0
 27 28  1  6  0  0  0
 27  5  1  0  0  0  0
 31 32  1  0  0  0  0
 32  3  1  0  0  0  0
M  END
>  <MODEL>
3

>  <REMARK>
 VINA RESULT:      -8.1      2.603      8.665
  Name = 
  4 active torsions:
  status: ('A' for Active; 'I' for Inactive)
    1  A    between atoms: C_5  and  C_27
    2  A    between atoms: C_6  and  C_26
    3  A    between atoms: C_9  and  C_29
    4  A    between atoms: N_16  and  C_20
                            x       y       z     vdW  Elec       q    Type
                         _______ _______ _______ _____ _____    ______ ____

>  <TORSDO>
F 4

$$$$
=
 OpenBabel10232408203D

 32 37  0  0  1  0  0  0  0  0999 V2000
  188.9940  177.3770  146.4050 C   0  0  0  0  0  3  0  0  0  0  0  0
  185.6000  178.1610  143.6020 C   0  0  0  0  0  0  0  0  0  0  0  0
  188.0040  177.7540  147.3410 C   0  0  0  0  0  0  0  0  0  0  0  0
  186.7130  178.1110  146.9070 C   0  0  0  0  0  3  0  0  0  0  0  0
  186.8810  177.7410  143.3990 N   0  0  0  0  0  0  0  0  0  0  0  0
  185.3060  178.3650  144.9140 N   0  0  0  0  0  0  0  0  0  0  0  0
  187.4100  177.6930  144.6360 C   0  0  0  0  0  0  0  0  0  0  0  0
  186.4570  178.0630  145.5390 C   0  0  0  0  0  0  0  0  0  0  0  0
  188.7020  177.3410  145.0300 C   0  0  0  0  0  3  0  0  0  0  0  0
  183.2630  178.6260  142.6960 C   0  0  0  0  0  0  0  0  0  0  0  0
  182.7030  178.7890  141.3830 C   0  0  0  0  0  0  0  0  0  0  0  0
  181.3360  179.0860  141.2480 C   0  0  0  0  0  0  0  0  0  0  0  0
  183.7810  178.6600  140.5160 C   0  0  0  0  0  0  0  0  0  0  0  0
  183.8030  178.9150  138.7810 Cl  0  0  0  0  0  0  0  0  0  0  0  0
  181.1400  179.1050  143.6520 C   0  0  0  0  0  3  0  0  0  0  0  0
  180.6090  179.2410  142.3970 N   0  0  0  0  0  2  0  0  0  0  0  0
  184.6090  178.3840  142.5260 C   0  0  0  0  0  0  0  0  0  0  0  0
  184.9190  178.4120  141.2080 N   0  0  0  0  0  0  0  0  0  0  0  0
  182.4930  178.7880  143.8390 C   0  0  0  0  0  3  0  0  0  0  0  0
  180.1800  178.1740  139.3810 O   0  0  0  0  0  0  0  0  0  0  0  0
  180.3850  180.4790  139.3970 N   0  0  0  0  0  1  0  0  0  0  0  0
  180.6360  179.1950  139.9580 C   0  0  0  0  0  0  0  0  0  0  0  0
  189.7920  177.1840  141.3340 C   0  0  2  0  0  0  0  0  0  0  0  0
  187.9690  178.7880  141.4260 C   0  0  1  0  0  3  0  0  0  0  0  0
  191.0050  177.2500  142.0210 O   0  0  0  0  0  1  0  0  0  0  0  0
  189.3320  178.5840  140.9340 C   0  0  1  0  0  3  0  0  0  0  0  0
  187.5340  177.4940  142.1090 C   0  0  1  0  0  3  0  0  0  0  0  0
  188.7310  176.5740  142.2250 C   0  0  0  0  0  2  0  0  0  0  0  0
  189.9630  176.3310  140.0920 C   0  0  0  0  0  1  0  0  0  0  0  0
  189.1020  179.4140  142.1280 N   0  0  0  0  0  2  0  0  0  0  0  0
  189.6460  178.4130  148.9710 N   0  0  0  0  0  1  0  0  0  0  0  0
  188.3390  177.8070  148.7900 C   0  0  0  0  0  2  0  0  0  0  0  0
  1  3  1  0  0  0  0
  2  6  2  0  0  0  0
  3 32  1  0  0  0  0
  4  3  2  0  0  0  0
  5  2  1  0  0  0  0
  5  7  1  0  0  0  0
  6  8  1  0  0  0  0
  7  9  1  0  0  0  0
  7  8  2  0  0  0  0
  8  4  1  0  0  0  0
  9  1  2  0  0  0  0
 10 19  1  0  0  0  0
 11 10  1  0  0  0  0
 12 11  2  0  0  0  0
 12 16  1  0  0  0  0
 13 18  2  0  0  0  0
 13 11  1  0  0  0  0
 14 13  1  0  0  0  0
 15 19  2  0  0  0  0
 16 15  1  0  0  0  0
 17 10  2  0  0  0  0
 17  2  1  0  0  0  0
 18 17  1  0  0  0  0
 20 22  2  0  0  0  0
 21 22  1  0  0  0  0
 22 12  1  0  0  0  0
 23 29  1  6  0  0  0
 23 25  1  0  0  0  0
 23 28  1  0  0  0  0
 24 27  1  0  0  0  0
 24 30  1  1  0  0  0
 26 23  1  0  0  0  0
 26 24  1  0  0  0  0
 26 30  1  1  0  0  0
 27 28  1  1  0  0  0
 27  5  1  0  0  0  0
 32 31  1  0  0  0  0
M  END
>  <MODEL>
4

>  <REMARK>
 VINA RESULT:      -7.7      3.969      7.053
  Name = 
  4 active torsions:
  status: ('A' for Active; 'I' for Inactive)
    1  A    between atoms: C_5  and  C_27
    2  A    between atoms: C_6  and  C_26
    3  A    between atoms: C_9  and  C_29
    4  A    between atoms: N_16  and  C_20
                            x       y       z     vdW  Elec       q    Type
                         _______ _______ _______ _____ _____    ______ ____

>  <TORSDO>
F 4

$$$$
=
 OpenBabel10232408203D

 32 37  0  0  1  0  0  0  0  0999 V2000
  191.0740  177.2930  141.3690 C   0  0  0  0  0  3  0  0  0  0  0  0
  186.7440  178.3490  141.0210 C   0  0  0  0  0  0  0  0  0  0  0  0
  190.8220  177.6770  142.7050 C   0  0  0  0  0  0  0  0  0  0  0  0
  189.5400  178.1110  143.0920 C   0  0  0  0  0  3  0  0  0  0  0  0
  187.6500  177.8780  140.1180 N   0  0  0  0  0  0  0  0  0  0  0  0
  187.2650  178.5110  142.2660 N   0  0  0  0  0  0  0  0  0  0  0  0
  188.7870  177.7550  140.8280 C   0  0  0  0  0  0  0  0  0  0  0  0
  188.5460  178.1310  142.1170 C   0  0  0  0  0  0  0  0  0  0  0  0
  190.0470  177.3260  140.4090 C   0  0  0  0  0  3  0  0  0  0  0  0
  184.2890  178.7080  141.6080 C   0  0  0  0  0  0  0  0  0  0  0  0
  183.1130  179.0580  140.8620 C   0  0  0  0  0  0  0  0  0  0  0  0
  181.8900  179.2160  141.5360 C   0  0  0  0  0  0  0  0  0  0  0  0
  183.5560  179.2260  139.5560 C   0  0  0  0  0  0  0  0  0  0  0  0
  182.6440  179.8160  138.1780 Cl  0  0  0  0  0  0  0  0  0  0  0  0
  183.0150  178.7420  143.6150 C   0  0  0  0  0  3  0  0  0  0  0  0
  181.8950  179.0590  142.8950 N   0  0  0  0  0  2  0  0  0  0  0  0
  185.3320  178.6610  140.7080 C   0  0  0  0  0  0  0  0  0  0  0  0
  184.8850  178.9820  139.4710 N   0  0  0  0  0  0  0  0  0  0  0  0
  184.2540  178.5540  142.9870 C   0  0  0  0  0  3  0  0  0  0  0  0
  180.0100  178.5970  140.2170 O   0  0  0  0  0  0  0  0  0  0  0  0
  179.9820  180.7610  141.0390 N   0  0  0  0  0  1  0  0  0  0  0  0
  180.6070  179.4930  140.8690 C   0  0  0  0  0  0  0  0  0  0  0  0
  188.7950  177.0700  136.7890 C   0  0  2  0  0  0  0  0  0  0  0  0
  187.6460  178.9220  137.8640 C   0  0  1  0  0  3  0  0  0  0  0  0
  190.1750  176.8840  136.6850 O   0  0  0  0  0  1  0  0  0  0  0  0
  188.4530  178.5560  136.6980 C   0  0  1  0  0  3  0  0  0  0  0  0
  187.4320  177.6540  138.6840 C   0  0  1  0  0  3  0  0  0  0  0  0
  188.3070  176.5530  138.1240 C   0  0  0  0  0  2  0  0  0  0  0  0
  188.1010  176.3210  135.6680 C   0  0  0  0  0  1  0  0  0  0  0  0
  189.0690  179.2980  137.8120 N   0  0  0  0  0  2  0  0  0  0  0  0
  191.6210  176.7030  144.7550 N   0  0  0  0  0  1  0  0  0  0  0  0
  191.9280  177.6550  143.7020 C   0  0  0  0  0  2  0  0  0  0  0  0
  1  3  1  0  0  0  0
  2  6  2  0  0  0  0
  3  4  2  0  0  0  0
  3 32  1  0  0  0  0
  5  7  1  0  0  0  0
  5  2  1  0  0  0  0
  7  8  2  0  0  0  0
  8  6  1  0  0  0  0
  8  4  1  0  0  0  0
  9  7  1  0  0  0  0
  9  1  2  0  0  0  0
 10 19  1  0  0  0  0
 11 12  2  0  0  0  0
 11 10  1  0  0  0  0
 12 16  1  0  0  0  0
 13 11  1  0  0  0  0
 14 13  1  0  0  0  0
 16 15  1  0  0  0  0
 17  2  1  0  0  0  0
 17 10  2  0  0  0  0
 18 13  2  0  0  0  0
 18 17  1  0  0  0  0
 19 15  2  0  0  0  0
 20 22  2  0  0  0  0
 22 21  1  0  0  0  0
 22 12  1  0  0  0  0
 23 29  1  6  0  0  0
 23 28  1  0  0  0  0
 24 30  1  1  0  0  0
 24 27  1  0  0  0  0
 25 23  1  0  0  0  0
 26 23  1  0  0  0  0
 26 30  1  1  0  0  0
 26 24  1  0  0  0  0
 27 28  1  6  0  0  0
 27  5  1  0  0  0  0
 32 31  1  0  0  0  0
M  END
>  <MODEL>
5

>  <REMARK>
 VINA RESULT:      -7.5      3.706      7.946
  Name = 
  4 active torsions:
  status: ('A' for Active; 'I' for Inactive)
    1  A    between atoms: C_5  and  C_27
    2  A    between atoms: C_6  and  C_26
    3  A    between atoms: C_9  and  C_29
    4  A    between atoms: N_16  and  C_20
                            x       y       z     vdW  Elec       q    Type
                         _______ _______ _______ _____ _____    ______ ____

>  <TORSDO>
F 4

$$$$
=
 OpenBabel10232408203D

 32 37  0  0  1  0  0  0  0  0999 V2000
  180.9410  179.2780  135.5090 C   0  0  0  0  0  3  0  0  0  0  0  0
  182.5950  179.1450  139.6600 C   0  0  0  0  0  0  0  0  0  0  0  0
  180.6840  180.6100  135.9020 C   0  0  0  0  0  0  0  0  0  0  0  0
  181.0420  181.0550  137.1900 C   0  0  0  0  0  3  0  0  0  0  0  0
  182.5180  178.2100  138.6720 N   0  0  0  0  0  0  0  0  0  0  0  0
  182.0790  180.3500  139.2970 N   0  0  0  0  0  0  0  0  0  0  0  0
  181.9170  178.8560  137.6560 C   0  0  0  0  0  0  0  0  0  0  0  0
  181.6620  180.1400  138.0370 C   0  0  0  0  0  0  0  0  0  0  0  0
  181.5690  178.3800  136.3900 C   0  0  0  0  0  3  0  0  0  0  0  0
  184.5070  178.7190  141.2910 C   0  0  0  0  0  0  0  0  0  0  0  0
  184.6000  178.5320  142.7120 C   0  0  1  0  0  3  0  0  0  0  0  0
  185.8620  178.3540  143.3040 C   0  0  0  0  0  0  0  0  0  0  0  0
  183.2950  178.6540  143.1740 C   0  0  0  0  0  0  0  0  0  0  0  0
  182.7420  178.6900  144.8390 Cl  0  0  0  0  0  0  0  0  0  0  0  0
  186.8760  178.5990  141.1300 C   0  0  0  0  0  3  0  0  0  0  0  0
  186.9550  178.4050  142.4830 N   0  0  0  0  0  0  0  0  0  0  0  0
  183.1730  178.9050  141.0010 C   0  0  0  0  0  0  0  0  0  0  0  0
  182.4450  178.8720  142.1420 N   0  0  0  0  0  0  0  0  0  0  0  0
  185.6390  178.7610  140.4900 C   0  0  0  0  0  3  0  0  0  0  0  0
  186.5070  176.9570  145.1170 O   0  0  0  0  0  0  0  0  0  0  0  0
  185.8790  179.1100  145.6920 N   0  0  0  0  0  1  0  0  0  0  0  0
  186.0740  178.0740  144.7340 C   0  0  0  0  0  0  0  0  0  0  0  0
  182.8750  174.8890  137.2970 C   0  0  2  0  0  0  0  0  0  0  0  0
  181.7770  175.9010  139.2150 C   0  0  1  0  0  3  0  0  0  0  0  0
  182.3510  174.7390  136.0120 O   0  0  0  0  0  1  0  0  0  0  0  0
  181.7710  174.7270  138.3410 C   0  0  1  0  0  3  0  0  0  0  0  0
  182.9210  176.8020  138.7570 C   0  0  1  0  0  3  0  0  0  0  0  0
  183.4720  176.2710  137.4510 C   0  0  0  0  0  2  0  0  0  0  0  0
  183.9480  173.8430  137.5280 C   0  0  0  0  0  1  0  0  0  0  0  0
  180.7440  175.7700  138.1740 N   0  0  0  0  0  2  0  0  0  0  0  0
  180.5780  182.8680  135.0760 N   0  0  0  0  0  1  0  0  0  0  0  0
  180.0000  181.5400  134.9620 C   0  0  0  0  0  2  0  0  0  0  0  0
  1  3  2  0  0  0  0
  1  9  1  0  0  0  0
  2 17  1  0  0  0  0
  3  4  1  0  0  0  0
  4  8  2  0  0  0  0
  5 27  1  0  0  0  0
  5  2  1  0  0  0  0
  6  2  2  0  0  0  0
  7  8  1  0  0  0  0
  7  5  1  0  0  0  0
  8  6  1  0  0  0  0
  9  7  2  0  0  0  0
 11 10  1  1  0  0  0
 11 13  1  0  0  0  0
 11 12  1  0  0  0  0
 12 22  1  0  0  0  0
 13 14  1  0  0  0  0
 15 16  1  0  0  0  0
 16 12  2  0  0  0  0
 17 10  2  0  0  0  0
 17 18  1  0  0  0  0
 18 13  2  0  0  0  0
 19 15  2  0  0  0  0
 19 10  1  0  0  0  0
 22 20  2  0  0  0  0
 22 21  1  0  0  0  0
 23 28  1  0  0  0  0
 23 29  1  1  0  0  0
 23 26  1  0  0  0  0
 24 30  1  6  0  0  0
 25 23  1  0  0  0  0
 26 30  1  6  0  0  0
 26 24  1  0  0  0  0
 27 28  1  6  0  0  0
 27 24  1  0  0  0  0
 32 31  1  0  0  0  0
 32  3  1  0  0  0  0
M  END
>  <MODEL>
6

>  <REMARK>
 VINA RESULT:      -7.4      5.890      9.416
  Name = 
  4 active torsions:
  status: ('A' for Active; 'I' for Inactive)
    1  A    between atoms: C_5  and  C_27
    2  A    between atoms: C_6  and  C_26
    3  A    between atoms: C_9  and  C_29
    4  A    between atoms: N_16  and  C_20
                            x       y       z     vdW  Elec       q    Type
                         _______ _______ _______ _____ _____    ______ ____

>  <TORSDO>
F 4

$$$$
=
 OpenBabel10232408203D

 32 37  0  0  1  0  0  0  0  0999 V2000
  192.1870  176.9580  139.6800 C   0  0  0  0  0  3  0  0  0  0  0  0
  187.8640  178.0540  139.9880 C   0  0  0  0  0  0  0  0  0  0  0  0
  191.8410  176.9140  138.3110 C   0  0  0  0  0  0  0  0  0  0  0  0
  190.5230  177.1950  137.9010 C   0  0  0  0  0  3  0  0  0  0  0  0
  188.8460  177.9170  140.9240 N   0  0  0  0  0  0  0  0  0  0  0  0
  188.2980  177.8230  138.7200 N   0  0  0  0  0  0  0  0  0  0  0  0
  189.9340  177.5740  140.2090 C   0  0  0  0  0  0  0  0  0  0  0  0
  189.5980  177.5260  138.8880 C   0  0  0  0  0  0  0  0  0  0  0  0
  191.2280  177.2940  140.6520 C   0  0  0  0  0  3  0  0  0  0  0  0
  185.4020  178.3730  139.4090 C   0  0  0  0  0  0  0  0  0  0  0  0
  184.2390  178.7950  140.1390 C   0  0  0  0  0  0  0  0  0  0  0  0
  182.9900  178.8170  139.4950 C   0  0  0  0  0  0  0  0  0  0  0  0
  184.6940  179.0290  141.4310 C   0  0  0  0  0  0  0  0  0  0  0  0
  183.7430  179.4120  142.8540 Cl  0  0  0  0  0  0  0  0  0  0  0  0
  184.0460  177.9750  137.4970 C   0  0  0  0  0  3  0  0  0  0  0  0
  182.9450  178.3950  138.1950 N   0  0  0  0  0  0  0  0  0  0  0  0
  186.4610  178.4130  140.2900 C   0  0  1  0  0  3  0  0  0  0  0  0
  186.0280  178.8030  141.5120 N   0  0  0  0  0  0  0  0  0  0  0  0
  185.3170  177.9550  138.0890 C   0  0  0  0  0  3  0  0  0  0  0  0
  181.2380  180.4010  139.7670 O   0  0  0  0  0  0  0  0  0  0  0  0
  181.0590  178.4860  141.0550 N   0  0  0  0  0  1  0  0  0  0  0  0
  181.7480  179.3060  140.1160 C   0  0  0  0  0  0  0  0  0  0  0  0
  190.0660  177.5690  144.3060 C   0  0  2  0  0  0  0  0  0  0  0  0
  188.1830  176.7430  143.0100 C   0  0  1  0  0  3  0  0  0  0  0  0
  191.3350  176.9950  144.4030 O   0  0  0  0  0  1  0  0  0  0  0  0
  188.9990  176.4800  144.1970 C   0  0  1  0  0  3  0  0  0  0  0  0
  188.7000  178.0320  142.3790 C   0  0  1  0  0  3  0  0  0  0  0  0
  189.9870  178.4340  143.0670 C   0  0  0  0  0  2  0  0  0  0  0  0
  189.8010  178.4160  145.5350 C   0  0  0  0  0  1  0  0  0  0  0  0
  189.2010  175.6800  142.9770 N   0  0  0  0  0  2  0  0  0  0  0  0
  193.4280  175.2380  137.6340 N   0  0  0  0  0  1  0  0  0  0  0  0
  192.8650  176.5350  137.3010 C   0  0  0  0  0  2  0  0  0  0  0  0
  1  9  1  0  0  0  0
  2  5  1  0  0  0  0
  3  1  2  0  0  0  0
  4  3  1  0  0  0  0
  4  8  2  0  0  0  0
  6  8  1  0  0  0  0
  6  2  2  0  0  0  0
  7  9  2  0  0  0  0
  7  5  1  0  0  0  0
  8  7  1  0  0  0  0
 10 11  2  0  0  0  0
 10 17  1  0  0  0  0
 11 13  1  0  0  0  0
 12 22  1  0  0  0  0
 12 11  1  0  0  0  0
 13 18  2  0  0  0  0
 13 14  1  0  0  0  0
 15 19  2  0  0  0  0
 15 16  1  0  0  0  0
 16 12  2  0  0  0  0
 17  2  1  1  0  0  0
 17 18  1  0  0  0  0
 19 10  1  0  0  0  0
 20 22  2  0  0  0  0
 22 21  1  0  0  0  0
 23 25  1  0  0  0  0
 23 29  1  1  0  0  0
 24 30  1  6  0  0  0
 24 26  1  0  0  0  0
 26 30  1  6  0  0  0
 26 23  1  0  0  0  0
 27  5  1  6  0  0  0
 27 24  1  0  0  0  0
 27 28  1  0  0  0  0
 28 23  1  0  0  0  0
 32 31  1  0  0  0  0
 32  3  1  0  0  0  0
M  END
>  <MODEL>
7

>  <REMARK>
 VINA RESULT:      -7.3      3.705      6.871
  Name = 
  4 active torsions:
  status: ('A' for Active; 'I' for Inactive)
    1  A    between atoms: C_5  and  C_27
    2  A    between atoms: C_6  and  C_26
    3  A    between atoms: C_9  and  C_29
    4  A    between atoms: N_16  and  C_20
                            x       y       z     vdW  Elec       q    Type
                         _______ _______ _______ _____ _____    ______ ____

>  <TORSDO>
F 4

$$$$
=
 OpenBabel10232408203D

 32 37  0  0  1  0  0  0  0  0999 V2000
  185.1680  177.2470  135.7670 C   0  0  0  0  0  3  0  0  0  0  0  0
  185.1370  178.1890  140.1370 C   0  0  0  0  0  0  0  0  0  0  0  0
  186.4290  177.8750  135.8760 C   0  0  0  0  0  0  0  0  0  0  0  0
  186.8750  178.3660  137.1190 C   0  0  0  0  0  3  0  0  0  0  0  0
  184.2380  177.5620  139.3260 N   0  0  0  0  0  0  0  0  0  0  0  0
  186.2600  178.5880  139.4820 N   0  0  0  0  0  0  0  0  0  0  0  0
  184.8220  177.5830  138.1130 C   0  0  0  0  0  0  0  0  0  0  0  0
  186.0360  178.1950  138.2170 C   0  0  0  0  0  0  0  0  0  0  0  0
  184.3450  177.0910  136.8970 C   0  0  0  0  0  3  0  0  0  0  0  0
  185.8420  178.1510  142.5860 C   0  0  0  0  0  0  0  0  0  0  0  0
  185.2280  178.5540  143.8210 C   0  0  0  0  0  0  0  0  0  0  0  0
  185.9440  178.4220  145.0230 C   0  0  0  0  0  0  0  0  0  0  0  0
  183.9950  179.0790  143.4510 C   0  0  0  0  0  0  0  0  0  0  0  0
  182.8230  179.8930  144.4710 Cl  0  0  0  0  0  0  0  0  0  0  0  0
  187.8200  177.5700  143.7710 C   0  0  0  0  0  3  0  0  0  0  0  0
  187.2220  177.9400  144.9460 N   0  0  0  0  0  2  0  0  0  0  0  0
  184.9380  178.4280  141.5840 C   0  0  0  0  0  0  0  0  0  0  0  0
  183.8270  178.9940  142.1100 N   0  0  0  0  0  0  0  0  0  0  0  0
  187.1410  177.6630  142.5480 C   0  0  0  0  0  3  0  0  0  0  0  0
  184.4540  178.0380  146.8360 O   0  0  0  0  0  0  0  0  0  0  0  0
  185.9820  179.7490  147.1470 N   0  0  0  0  0  1  0  0  0  0  0  0
  185.3900  178.7260  146.3530 C   0  0  0  0  0  0  0  0  0  0  0  0
  181.0870  175.9620  138.5800 C   0  0  2  0  0  0  0  0  0  0  0  0
  181.8180  178.1090  139.4520 C   0  0  1  0  0  3  0  0  0  0  0  0
  180.9240  175.6110  137.2380 O   0  0  0  0  0  1  0  0  0  0  0  0
  180.7030  177.4240  138.7950 C   0  0  1  0  0  3  0  0  0  0  0  0
  182.9070  177.0690  139.6990 C   0  0  1  0  0  3  0  0  0  0  0  0
  182.5360  175.7880  138.9830 C   0  0  0  0  0  2  0  0  0  0  0  0
  180.2100  175.0750  139.4420 C   0  0  0  0  0  1  0  0  0  0  0  0
  181.5820  178.3100  138.0120 N   0  0  0  0  0  2  0  0  0  0  0  0
  188.5970  177.4940  134.9050 N   0  0  0  0  0  1  0  0  0  0  0  0
  187.2760  178.0490  134.6650 C   0  0  0  0  0  2  0  0  0  0  0  0
  1  3  2  0  0  0  0
  1  9  1  0  0  0  0
  2 17  1  0  0  0  0
  3  4  1  0  0  0  0
  4  8  2  0  0  0  0
  5 27  1  0  0  0  0
  5  2  1  0  0  0  0
  6  2  2  0  0  0  0
  7  8  1  0  0  0  0
  7  5  1  0  0  0  0
  8  6  1  0  0  0  0
  9  7  2  0  0  0  0
 10 11  1  0  0  0  0
 11 12  2  0  0  0  0
 12 22  1  0  0  0  0
 13 11  1  0  0  0  0
 13 14  1  0  0  0  0
 15 16  1  0  0  0  0
 16 12  1  0  0  0  0
 17 18  1  0  0  0  0
 17 10  2  0  0  0  0
 18 13  2  0  0  0  0
 19 10  1  0  0  0  0
 19 15  2  0  0  0  0
 22 20  2  0  0  0  0
 22 21  1  0  0  0  0
 23 26  1  0  0  0  0
 23 28  1  0  0  0  0
 23 29  1  1  0  0  0
 24 30  1  6  0  0  0
 24 27  1  0  0  0  0
 25 23  1  0  0  0  0
 26 30  1  6  0  0  0
 26 24  1  0  0  0  0
 27 28  1  6  0  0  0
 32 31  1  0  0  0  0
 32  3  1  0  0  0  0
M  END
>  <MODEL>
8

>  <REMARK>
 VINA RESULT:      -7.3      4.603      9.346
  Name = 
  4 active torsions:
  status: ('A' for Active; 'I' for Inactive)
    1  A    between atoms: C_5  and  C_27
    2  A    between atoms: C_6  and  C_26
    3  A    between atoms: C_9  and  C_29
    4  A    between atoms: N_16  and  C_20
                            x       y       z     vdW  Elec       q    Type
                         _______ _______ _______ _____ _____    ______ ____

>  <TORSDO>
F 4

$$$$
=
 OpenBabel10232408203D

 32 37  0  0  1  0  0  0  0  0999 V2000
  191.0930  176.6160  145.1510 C   0  0  0  0  0  3  0  0  0  0  0  0
  187.0450  177.7120  143.6010 C   0  0  0  0  0  0  0  0  0  0  0  0
  190.4670  176.9670  146.3680 C   0  0  0  0  0  0  0  0  0  0  0  0
  189.1270  177.4010  146.3810 C   0  0  0  0  0  3  0  0  0  0  0  0
  188.1720  177.2580  142.9840 N   0  0  0  0  0  0  0  0  0  0  0  0
  187.1860  177.8380  144.9480 N   0  0  0  0  0  0  0  0  0  0  0  0
  189.0570  177.1090  143.9880 C   0  0  0  0  0  0  0  0  0  0  0  0
  188.4560  177.4530  145.1630 C   0  0  0  0  0  0  0  0  0  0  0  0
  190.3850  176.6820  143.9370 C   0  0  0  0  0  3  0  0  0  0  0  0
  184.5700  178.3150  143.5010 C   0  0  0  0  0  0  0  0  0  0  0  0
  183.6390  178.5890  142.4410 C   0  0  0  0  0  0  0  0  0  0  0  0
  182.3160  178.9390  142.7580 C   0  0  0  0  0  0  0  0  0  0  0  0
  184.3870  178.4880  141.2740 C   0  0  0  0  0  0  0  0  0  0  0  0
  183.8830  178.8660  139.6370 Cl  0  0  0  0  0  0  0  0  0  0  0  0
  182.8760  178.7910  145.0990 C   0  0  0  0  0  3  0  0  0  0  0  0
  181.9900  179.0340  144.0840 N   0  0  0  0  0  2  0  0  0  0  0  0
  185.7820  178.0430  142.9040 C   0  0  0  0  0  0  0  0  0  0  0  0
  185.6690  178.1550  141.5600 N   0  0  0  0  0  0  0  0  0  0  0  0
  184.2010  178.4190  144.8350 C   0  0  0  0  0  3  0  0  0  0  0  0
  181.0130  178.3040  140.8730 O   0  0  0  0  0  0  0  0  0  0  0  0
  180.4310  180.3180  141.8540 N   0  0  0  0  0  1  0  0  0  0  0  0
  181.2570  179.1620  141.7600 C   0  0  0  0  0  0  0  0  0  0  0  0
  190.2240  177.2510  140.0110 C   0  0  2  0  0  0  0  0  0  0  0  0
  188.2060  178.3750  140.7650 C   0  0  1  0  0  3  0  0  0  0  0  0
  191.5420  177.6600  140.2210 O   0  0  0  0  0  1  0  0  0  0  0  0
  189.3170  178.4650  139.8170 C   0  0  1  0  0  3  0  0  0  0  0  0
  188.3760  177.0730  141.5430 C   0  0  1  0  0  3  0  0  0  0  0  0
  189.7290  176.4780  141.2150 C   0  0  0  0  0  2  0  0  0  0  0  0
  190.1620  176.3680  138.7800 C   0  0  0  0  0  1  0  0  0  0  0  0
  189.3160  179.3080  141.0250 N   0  0  0  0  0  2  0  0  0  0  0  0
  192.4210  176.0860  147.4610 N   0  0  0  0  0  1  0  0  0  0  0  0
  191.2390  176.9110  147.6390 C   0  0  0  0  0  2  0  0  0  0  0  0
  1  3  1  0  0  0  0
  2  6  2  0  0  0  0
  3  4  2  0  0  0  0
  3 32  1  0  0  0  0
  5  2  1  0  0  0  0
  5  7  1  0  0  0  0
  6  8  1  0  0  0  0
  7  8  2  0  0  0  0
  8  4  1  0  0  0  0
  9  7  1  0  0  0  0
  9  1  2  0  0  0  0
 10 19  1  0  0  0  0
 11 12  2  0  0  0  0
 11 10  1  0  0  0  0
 12 16  1  0  0  0  0
 13 18  2  0  0  0  0
 13 11  1  0  0  0  0
 14 13  1  0  0  0  0
 16 15  1  0  0  0  0
 17 10  2  0  0  0  0
 17  2  1  0  0  0  0
 18 17  1  0  0  0  0
 19 15  2  0  0  0  0
 20 22  2  0  0  0  0
 22 21  1  0  0  0  0
 22 12  1  0  0  0  0
 23 29  1  6  0  0  0
 23 25  1  0  0  0  0
 23 28  1  0  0  0  0
 24 30  1  1  0  0  0
 24 27  1  0  0  0  0
 26 23  1  0  0  0  0
 26 24  1  0  0  0  0
 26 30  1  1  0  0  0
 27 28  1  1  0  0  0
 27  5  1  0  0  0  0
 31 32  1  0  0  0  0
M  END
>  <MODEL>
9

>  <REMARK>
 VINA RESULT:      -7.3      3.337      7.372
  Name = 
  4 active torsions:
  status: ('A' for Active; 'I' for Inactive)
    1  A    between atoms: C_5  and  C_27
    2  A    between atoms: C_6  and  C_26
    3  A    between atoms: C_9  and  C_29
    4  A    between atoms: N_16  and  C_20
                            x       y       z     vdW  Elec       q    Type
                         _______ _______ _______ _____ _____    ______ ____

>  <TORSDO>
F 4

$$$$
