=
 OpenBabel10232412193D

 56 60  0  0  1  0  0  0  0  0999 V2000
  187.3510  177.2940  136.0040 C   0  0  1  0  0  3  0  0  0  0  0  0
  190.2740  176.5100  138.3420 C   0  0  2  0  0  3  0  0  0  0  0  0
  186.4150  178.8090  137.6160 O   0  0  0  0  0  0  0  0  0  0  0  0
  188.1520  177.9710  139.7040 C   0  0  0  0  0  2  0  0  0  0  0  0
  187.9220  177.2380  138.4700 N   0  0  0  0  0  0  0  0  0  0  0  0
  187.1580  177.8150  137.4010 C   0  0  0  0  0  0  0  0  0  0  0  0
  187.7660  175.8500  136.0090 C   0  0  0  0  0  3  0  0  0  0  0  0
  189.6070  178.4540  139.7260 C   0  0  0  0  0  2  0  0  0  0  0  0
  188.4560  175.2950  137.0130 C   0  0  0  0  0  0  0  0  0  0  0  0
  188.7950  176.0930  138.2440 C   0  0  1  0  0  3  0  0  0  0  0  0
  190.5890  177.3750  139.5010 N   0  0  0  0  0  0  0  0  0  0  0  0
  190.8760  176.9370  137.1350 O   0  0  0  0  0  0  0  0  0  0  0  0
  192.0240  176.1730  136.8900 C   0  0  0  0  0  2  0  0  0  0  0  0
  192.1220  175.8680  135.4090 C   0  0  0  0  0  1  0  0  0  0  0  0
  186.1140  177.4970  135.1340 C   0  0  0  0  0  2  0  0  0  0  0  0
  184.9190  176.7530  135.7110 C   0  0  1  0  0  3  0  0  0  0  0  0
  183.6760  177.2590  135.0860 C   0  0  1  0  0  3  0  0  0  0  0  0
  184.2650  176.0450  134.6860 O   0  0  0  0  0  0  0  0  0  0  0  0
  182.4730  176.9650  135.9790 C   0  0  2  0  0  3  0  0  0  0  0  0
  183.0100  178.5500  137.8830 C   0  0  0  0  0  3  0  0  0  0  0  0
  181.5550  180.4200  138.3800 C   0  0  0  0  0  3  0  0  0  0  0  0
  180.7050  180.0400  137.3340 C   0  0  0  0  0  3  0  0  0  0  0  0
  181.0070  178.9130  136.5630 C   0  0  0  0  0  3  0  0  0  0  0  0
  182.7070  179.6750  138.6540 C   0  0  0  0  0  3  0  0  0  0  0  0
  182.1600  178.1630  136.8330 C   0  0  0  0  0  0  0  0  0  0  0  0
  182.2770  174.5730  136.1390 O   0  0  0  0  0  1  0  0  0  0  0  0
  182.7080  175.7070  136.8280 C   0  0  2  0  0  3  0  0  0  0  0  0
  182.8120  175.4740  139.2060 O   0  0  0  0  0  1  0  0  0  0  0  0
  181.9580  175.7980  138.1500 C   0  0  0  0  0  2  0  0  0  0  0  0
  188.8680  173.9510  136.9970 O   0  0  0  0  0  0  0  0  0  0  0  0
  190.1490  172.8060  135.3220 C   0  0  0  0  0  2  0  0  0  0  0  0
  188.9840  173.0810  135.8970 C   0  0  0  0  0  0  0  0  0  0  0  0
  187.8370  172.4590  135.3990 O   0  0  0  0  0  0  0  0  0  0  0  0
  186.9080  171.7920  136.2450 C   0  0  0  0  0  2  0  0  0  0  0  0
  185.6700  172.6150  136.4150 C   0  0  0  0  0  0  0  0  0  0  0  0
  185.0670  173.0210  135.4330 O   0  0  0  0  0  0  0  0  0  0  0  0
  185.1860  172.9680  137.7780 C   0  0  0  0  0  1  0  0  0  0  0  0
  190.6610  176.5390  140.6920 C   0  0  0  0  0  2  0  0  0  0  0  0
  191.1830  177.3660  141.8560 C   0  0  0  0  0  2  0  0  0  0  0  0
  191.2040  176.5370  143.1310 C   0  0  0  0  0  2  0  0  0  0  0  0
  190.7850  177.3380  144.2780 N   0  0  0  0  0  0  0  0  0  0  0  0
  189.0660  177.4630  146.0650 C   0  0  0  0  0  2  0  0  0  0  0  0
  188.3520  177.1620  143.7280 C   0  0  2  0  0  3  0  0  0  0  0  0
  189.4790  176.8310  144.7230 C   0  0  1  0  0  3  0  0  0  0  0  0
  186.0620  178.0750  144.1320 C   0  0  0  0  0  3  0  0  0  0  0  0
  185.3790  178.2920  147.0050 C   0  0  0  0  0  1  0  0  0  0  0  0
  187.4340  178.5440  148.1480 O   0  0  0  0  0  0  0  0  0  0  0  0
  186.8680  178.2300  147.0700 C   0  0  0  0  0  0  0  0  0  0  0  0
  187.2550  177.6790  144.5860 C   0  0  0  0  0  0  0  0  0  0  0  0
  187.6600  177.8010  145.9450 N   0  0  0  0  0  0  0  0  0  0  0  0
  187.9480  175.9880  143.0910 O   0  0  0  0  0  1  0  0  0  0  0  0
  185.6860  178.0230  142.6890 C   0  0  0  0  0  2  0  0  0  0  0  0
  185.3240  179.4150  142.1980 C   0  0  0  0  0  2  0  0  0  0  0  0
  185.5060  179.4850  140.8150 O   0  0  0  0  0  1  0  0  0  0  0  0
  191.7080  179.4800  144.1570 O   0  0  0  0  0  1  0  0  0  0  0  0
  190.6140  178.6990  143.7720 C   0  0  0  0  0  2  0  0  0  0  0  0
  1 15  1  6  0  0  0
  1  7  1  0  0  0  0
  1  6  1  0  0  0  0
  2 12  1  6  0  0  0
  2 11  1  0  0  0  0
  4  8  1  0  0  0  0
  5  4  1  0  0  0  0
  6  3  2  0  0  0  0
  6  5  1  0  0  0  0
  7  9  2  0  0  0  0
 10  9  1  6  0  0  0
 10  2  1  0  0  0  0
 10  5  1  0  0  0  0
 11  8  1  0  0  0  0
 11 38  1  0  0  0  0
 13 12  1  0  0  0  0
 14 13  1  0  0  0  0
 16 15  1  6  0  0  0
 17 16  1  0  0  0  0
 17 19  1  1  0  0  0
 18 17  1  0  0  0  0
 18 16  1  0  0  0  0
 19 27  1  1  0  0  0
 19 25  1  0  0  0  0
 20 24  1  0  0  0  0
 21 24  2  0  0  0  0
 22 21  1  0  0  0  0
 23 25  1  0  0  0  0
 23 22  2  0  0  0  0
 25 20  2  0  0  0  0
 27 26  1  6  0  0  0
 27 29  1  0  0  0  0
 29 28  1  0  0  0  0
 30  9  1  0  0  0  0
 31 32  2  0  0  0  0
 32 30  1  0  0  0  0
 33 32  1  0  0  0  0
 33 34  1  0  0  0  0
 34 35  1  0  0  0  0
 35 37  1  0  0  0  0
 36 35  2  0  0  0  0
 38 39  1  0  0  0  0
 39 40  1  0  0  0  0
 40 41  1  0  0  0  0
 43 51  1  1  0  0  0
 43 49  1  0  0  0  0
 43 44  1  0  0  0  0
 44 41  1  6  0  0  0
 44 42  1  0  0  0  0
 45 49  2  0  0  0  0
 46 48  1  0  0  0  0
 48 47  2  0  0  0  0
 49 50  1  0  0  0  0
 50 42  1  0  0  0  0
 50 48  1  0  0  0  0
 52 45  1  0  0  0  0
 53 52  1  0  0  0  0
 54 53  1  0  0  0  0
 56 55  1  0  0  0  0
 56 41  1  0  0  0  0
M  END
>  <MODEL>
1

>  <REMARK>
 VINA RESULT:      -7.2      0.000      0.000
  Name = 
  21 active torsions:
  status: ('A' for Active; 'I' for Inactive)
    1  A    between atoms: C_1  and  C_14
    2  A    between atoms: C_1  and  C_35
    3  A    between atoms: C_3  and  O_43
    4  A    between atoms: C_4  and  C_36
    5  A    between atoms: C_5  and  O_43
    6  A    between atoms: O_7  and  C_25
    7  A    between atoms: O_7  and  C_47
    8  A    between atoms: C_11  and  C_30
    9  A    between atoms: C_11  and  C_34
   10  A    between atoms: C_11  and  C_55
   11  A    between atoms: C_12  and  N_42
   12  A    between atoms: C_14  and  N_51
   13  A    between atoms: C_17  and  C_36
   14  A    between atoms: C_18  and  C_21
   15  A    between atoms: C_21  and  O_22
   16  A    between atoms: O_22  and  C_25
   17  A    between atoms: C_23  and  C_53
   18  A    between atoms: C_27  and  N_42
   19  A    between atoms: C_34  and  C_44
   20  A    between atoms: C_35  and  N_42
   21  A    between atoms: C_37  and  C_53
                            x       y       z     vdW  Elec       q    Type
                         _______ _______ _______ _____ _____    ______ ____

>  <TORSDO>
F 21

$$$$
=
 OpenBabel10232412193D

 56 60  0  0  1  0  0  0  0  0999 V2000
  190.5570  177.0190  140.0070 C   0  0  1  0  0  3  0  0  0  0  0  0
  189.0420  175.9490  136.6640 C   0  0  2  0  0  3  0  0  0  0  0  0
  188.9050  178.7460  140.2500 O   0  0  0  0  0  0  0  0  0  0  0  0
  187.9720  178.5010  137.5760 C   0  0  0  0  0  2  0  0  0  0  0  0
  189.2300  177.9650  138.0700 N   0  0  0  0  0  0  0  0  0  0  0  0
  189.5440  177.9910  139.4700 C   0  0  0  0  0  0  0  0  0  0  0  0
  191.5710  176.6480  138.9630 C   0  0  0  0  0  3  0  0  0  0  0  0
  187.0560  177.3340  137.1900 C   0  0  0  0  0  2  0  0  0  0  0  0
  191.2970  176.6470  137.6520 C   0  0  0  0  0  0  0  0  0  0  0  0
  189.9500  177.0940  137.1500 C   0  0  1  0  0  3  0  0  0  0  0  0
  187.6830  176.3760  136.2600 N   0  0  0  0  0  0  0  0  0  0  0  0
  189.0570  174.7730  137.4510 O   0  0  0  0  0  0  0  0  0  0  0  0
  187.9900  173.9470  137.0770 C   0  0  0  0  0  2  0  0  0  0  0  0
  188.5100  172.5560  136.7780 C   0  0  0  0  0  1  0  0  0  0  0  0
  191.2460  177.5380  141.2670 C   0  0  0  0  0  2  0  0  0  0  0  0
  190.7690  176.7780  142.4960 C   0  0  1  0  0  3  0  0  0  0  0  0
  189.4220  177.2580  142.8800 C   0  0  1  0  0  3  0  0  0  0  0  0
  189.6060  176.0520  142.1790 O   0  0  0  0  0  0  0  0  0  0  0  0
  189.1470  176.9510  144.3500 C   0  0  2  0  0  3  0  0  0  0  0  0
  186.7990  177.6820  143.7340 C   0  0  0  0  0  3  0  0  0  0  0  0
  185.1770  178.1980  145.4550 C   0  0  0  0  0  3  0  0  0  0  0  0
  186.1290  177.9160  146.4420 C   0  0  0  0  0  3  0  0  0  0  0  0
  187.4180  177.5170  146.0740 C   0  0  0  0  0  3  0  0  0  0  0  0
  185.5120  178.0820  144.1020 C   0  0  0  0  0  3  0  0  0  0  0  0
  187.7600  177.3980  144.7200 C   0  0  0  0  0  0  0  0  0  0  0  0
  190.6140  178.8180  144.7380 O   0  0  0  0  0  1  0  0  0  0  0  0
  190.2100  177.5870  145.2570 C   0  0  2  0  0  3  0  0  0  0  0  0
  191.9760  176.7950  146.6630 O   0  0  0  0  0  1  0  0  0  0  0  0
  191.4260  176.6800  145.3850 C   0  0  0  0  0  2  0  0  0  0  0  0
  192.2410  176.2690  136.6810 O   0  0  0  0  0  0  0  0  0  0  0  0
  192.7760  174.4900  135.1620 C   0  0  0  0  0  2  0  0  0  0  0  0
  192.7390  174.9850  136.3940 C   0  0  0  0  0  0  0  0  0  0  0  0
  193.2370  174.2000  137.4360 O   0  0  0  0  0  0  0  0  0  0  0  0
  194.3940  174.5710  138.1770 C   0  0  0  0  0  2  0  0  0  0  0  0
  195.6350  174.2620  137.4010 C   0  0  0  0  0  0  0  0  0  0  0  0
  196.2140  175.1500  136.7940 O   0  0  0  0  0  0  0  0  0  0  0  0
  196.1520  172.8660  137.3390 C   0  0  0  0  0  1  0  0  0  0  0  0
  187.7670  176.9800  134.9370 C   0  0  0  0  0  2  0  0  0  0  0  0
  186.3660  177.1390  134.3670 C   0  0  0  0  0  2  0  0  0  0  0  0
  185.6450  175.7990  134.3470 C   0  0  0  0  0  2  0  0  0  0  0  0
  184.4160  175.8590  135.1340 N   0  0  0  0  0  0  0  0  0  0  0  0
  184.2940  173.4060  134.7730 C   0  0  0  0  0  2  0  0  0  0  0  0
  182.3000  174.6030  135.5800 C   0  0  2  0  0  3  0  0  0  0  0  0
  183.5530  174.7530  134.6970 C   0  0  1  0  0  3  0  0  0  0  0  0
  181.2720  172.5610  136.5860 C   0  0  0  0  0  3  0  0  0  0  0  0
  182.5570  170.0450  135.6970 C   0  0  0  0  0  1  0  0  0  0  0  0
  184.7830  170.6120  135.1330 O   0  0  0  0  0  0  0  0  0  0  0  0
  183.6270  171.0380  135.3850 C   0  0  0  0  0  0  0  0  0  0  0  0
  182.2280  173.1460  135.8580 C   0  0  0  0  0  0  0  0  0  0  0  0
  183.3600  172.4530  135.3430 N   0  0  0  0  0  0  0  0  0  0  0  0
  181.1790  175.0070  134.8530 O   0  0  0  0  0  1  0  0  0  0  0  0
  180.1390  173.3180  137.1950 C   0  0  0  0  0  2  0  0  0  0  0  0
  180.6600  174.2420  138.2820 C   0  0  0  0  0  2  0  0  0  0  0  0
  179.9950  173.9740  139.4810 O   0  0  0  0  0  1  0  0  0  0  0  0
  183.1810  177.6810  135.9160 O   0  0  0  0  0  1  0  0  0  0  0  0
  183.7760  177.1240  134.7790 C   0  0  0  0  0  2  0  0  0  0  0  0
  1 15  1  1  0  0  0
  2 10  1  0  0  0  0
  2 12  1  1  0  0  0
  4  5  1  0  0  0  0
  5  6  1  0  0  0  0
  6  1  1  0  0  0  0
  6  3  2  0  0  0  0
  7  1  1  0  0  0  0
  8  4  1  0  0  0  0
  9  7  2  0  0  0  0
 10  9  1  1  0  0  0
 10  5  1  0  0  0  0
 11  2  1  0  0  0  0
 11  8  1  0  0  0  0
 13 12  1  0  0  0  0
 14 13  1  0  0  0  0
 16 15  1  6  0  0  0
 16 17  1  0  0  0  0
 17 19  1  1  0  0  0
 18 16  1  0  0  0  0
 18 17  1  0  0  0  0
 19 25  1  0  0  0  0
 19 27  1  1  0  0  0
 20 24  2  0  0  0  0
 20 25  1  0  0  0  0
 21 22  2  0  0  0  0
 23 22  1  0  0  0  0
 24 21  1  0  0  0  0
 25 23  2  0  0  0  0
 27 26  1  6  0  0  0
 27 29  1  0  0  0  0
 29 28  1  0  0  0  0
 30  9  1  0  0  0  0
 31 32  2  0  0  0  0
 32 30  1  0  0  0  0
 32 33  1  0  0  0  0
 33 34  1  0  0  0  0
 35 34  1  0  0  0  0
 36 35  2  0  0  0  0
 37 35  1  0  0  0  0
 38 11  1  0  0  0  0
 39 38  1  0  0  0  0
 40 39  1  0  0  0  0
 40 41  1  0  0  0  0
 42 50  1  0  0  0  0
 43 51  1  6  0  0  0
 43 49  1  0  0  0  0
 44 42  1  0  0  0  0
 44 41  1  1  0  0  0
 44 43  1  0  0  0  0
 45 52  1  0  0  0  0
 47 48  2  0  0  0  0
 48 46  1  0  0  0  0
 49 45  2  0  0  0  0
 50 48  1  0  0  0  0
 50 49  1  0  0  0  0
 52 53  1  0  0  0  0
 53 54  1  0  0  0  0
 56 41  1  0  0  0  0
 56 55  1  0  0  0  0
M  END
>  <MODEL>
2

>  <REMARK>
 VINA RESULT:      -6.1      2.624      9.074
  Name = 
  21 active torsions:
  status: ('A' for Active; 'I' for Inactive)
    1  A    between atoms: C_1  and  C_14
    2  A    between atoms: C_1  and  C_35
    3  A    between atoms: C_3  and  O_43
    4  A    between atoms: C_4  and  C_36
    5  A    between atoms: C_5  and  O_43
    6  A    between atoms: O_7  and  C_25
    7  A    between atoms: O_7  and  C_47
    8  A    between atoms: C_11  and  C_30
    9  A    between atoms: C_11  and  C_34
   10  A    between atoms: C_11  and  C_55
   11  A    between atoms: C_12  and  N_42
   12  A    between atoms: C_14  and  N_51
   13  A    between atoms: C_17  and  C_36
   14  A    between atoms: C_18  and  C_21
   15  A    between atoms: C_21  and  O_22
   16  A    between atoms: O_22  and  C_25
   17  A    between atoms: C_23  and  C_53
   18  A    between atoms: C_27  and  N_42
   19  A    between atoms: C_34  and  C_44
   20  A    between atoms: C_35  and  N_42
   21  A    between atoms: C_37  and  C_53
                            x       y       z     vdW  Elec       q    Type
                         _______ _______ _______ _____ _____    ______ ____

>  <TORSDO>
F 21

$$$$
=
 OpenBabel10232412193D

 56 60  0  0  1  0  0  0  0  0999 V2000
  191.4260  175.1800  135.1650 C   0  0  1  0  0  3  0  0  0  0  0  0
  187.8380  176.0570  136.1520 C   0  0  2  0  0  3  0  0  0  0  0  0
  190.8250  172.8730  134.8700 O   0  0  0  0  0  0  0  0  0  0  0  0
  188.2780  173.1770  136.0950 C   0  0  0  0  0  2  0  0  0  0  0  0
  189.3720  174.1280  136.2050 N   0  0  0  0  0  0  0  0  0  0  0  0
  190.5640  173.9760  135.4200 C   0  0  0  0  0  0  0  0  0  0  0  0
  191.3220  176.1780  136.2820 C   0  0  0  0  0  3  0  0  0  0  0  0
  187.1310  173.8330  135.3190 C   0  0  0  0  0  2  0  0  0  0  0  0
  190.2250  176.3100  137.0390 C   0  0  0  0  0  0  0  0  0  0  0  0
  189.0450  175.3970  136.8440 C   0  0  1  0  0  3  0  0  0  0  0  0
  186.7140  175.1360  135.8740 N   0  0  0  0  0  0  0  0  0  0  0  0
  188.1430  176.9230  135.0750 O   0  0  0  0  0  0  0  0  0  0  0  0
  187.3410  178.0680  135.1550 C   0  0  0  0  0  2  0  0  0  0  0  0
  186.0770  177.8560  134.3460 C   0  0  0  0  0  1  0  0  0  0  0  0
  192.8840  174.8040  134.9120 C   0  0  0  0  0  2  0  0  0  0  0  0
  193.5940  174.4800  136.2180 C   0  0  1  0  0  3  0  0  0  0  0  0
  194.8790  173.8060  135.9240 C   0  0  1  0  0  3  0  0  0  0  0  0
  194.8210  175.1690  136.2700 O   0  0  0  0  0  0  0  0  0  0  0  0
  195.3440  172.9980  137.1340 C   0  0  2  0  0  3  0  0  0  0  0  0
  197.8370  173.3870  136.9010 C   0  0  0  0  0  3  0  0  0  0  0  0
  199.0640  174.5810  138.6130 C   0  0  0  0  0  3  0  0  0  0  0  0
  197.8870  174.7340  139.3540 C   0  0  0  0  0  3  0  0  0  0  0  0
  196.6840  174.2110  138.8700 C   0  0  0  0  0  3  0  0  0  0  0  0
  199.0400  173.9070  137.3870 C   0  0  0  0  0  3  0  0  0  0  0  0
  196.6530  173.5350  137.6430 C   0  0  0  0  0  0  0  0  0  0  0  0
  194.4220  171.1440  135.9080 O   0  0  0  0  0  1  0  0  0  0  0  0
  195.4360  171.5020  136.7990 C   0  0  2  0  0  3  0  0  0  0  0  0
  195.1360  169.3130  137.7150 O   0  0  0  0  0  1  0  0  0  0  0  0
  195.3100  170.6550  138.0570 C   0  0  0  0  0  2  0  0  0  0  0  0
  190.1220  177.2670  138.0630 O   0  0  0  0  0  0  0  0  0  0  0  0
  188.2680  177.6930  139.5260 C   0  0  0  0  0  2  0  0  0  0  0  0
  189.4630  177.1600  139.3020 C   0  0  0  0  0  0  0  0  0  0  0  0
  190.0730  176.4470  140.3370 O   0  0  0  0  0  0  0  0  0  0  0  0
  190.7660  177.0950  141.3980 C   0  0  0  0  0  2  0  0  0  0  0  0
  190.3060  176.5700  142.7210 C   0  0  0  0  0  0  0  0  0  0  0  0
  190.1520  175.3690  142.8830 O   0  0  0  0  0  0  0  0  0  0  0  0
  190.0060  177.5110  143.8360 C   0  0  0  0  0  1  0  0  0  0  0  0
  185.9830  174.9150  137.1150 C   0  0  0  0  0  2  0  0  0  0  0  0
  184.5900  175.5110  136.9920 C   0  0  0  0  0  2  0  0  0  0  0  0
  184.4230  176.6760  137.9550 C   0  0  0  0  0  2  0  0  0  0  0  0
  183.1280  177.3240  137.7660 N   0  0  0  0  0  0  0  0  0  0  0  0
  181.7990  178.2370  139.6550 C   0  0  0  0  0  2  0  0  0  0  0  0
  184.2490  178.4750  139.6830 C   0  0  2  0  0  3  0  0  0  0  0  0
  183.0290  178.4160  138.7450 C   0  0  1  0  0  3  0  0  0  0  0  0
  184.3650  178.7400  142.1630 C   0  0  0  0  0  3  0  0  0  0  0  0
  181.7310  179.2740  143.4080 C   0  0  0  0  0  1  0  0  0  0  0  0
  180.1210  178.3090  141.9680 O   0  0  0  0  0  0  0  0  0  0  0  0
  181.3160  178.6790  142.1040 C   0  0  0  0  0  0  0  0  0  0  0  0
  183.6570  178.6300  141.0360 C   0  0  0  0  0  0  0  0  0  0  0  0
  182.2360  178.5420  141.0040 N   0  0  0  0  0  0  0  0  0  0  0  0
  185.0130  179.5990  139.3640 O   0  0  0  0  0  1  0  0  0  0  0  0
  185.8570  178.7390  142.1870 C   0  0  0  0  0  2  0  0  0  0  0  0
  186.3590  177.6920  143.1660 C   0  0  0  0  0  2  0  0  0  0  0  0
  186.0120  178.0650  144.4670 O   0  0  0  0  0  1  0  0  0  0  0  0
  182.6110  175.4810  139.1050 O   0  0  0  0  0  1  0  0  0  0  0  0
  182.1250  176.3110  138.0890 C   0  0  0  0  0  2  0  0  0  0  0  0
  1 15  1  1  0  0  0
  1  6  1  0  0  0  0
  1  7  1  0  0  0  0
  2 12  1  6  0  0  0
  2 10  1  0  0  0  0
  3  6  2  0  0  0  0
  4  5  1  0  0  0  0
  5 10  1  0  0  0  0
  6  5  1  0  0  0  0
  7  9  2  0  0  0  0
  8 11  1  0  0  0  0
  8  4  1  0  0  0  0
  9 30  1  0  0  0  0
 10  9  1  6  0  0  0
 11  2  1  0  0  0  0
 11 38  1  0  0  0  0
 12 13  1  0  0  0  0
 14 13  1  0  0  0  0
 16 15  1  6  0  0  0
 16 18  1  0  0  0  0
 17 16  1  0  0  0  0
 17 18  1  0  0  0  0
 17 19  1  1  0  0  0
 19 27  1  6  0  0  0
 19 25  1  0  0  0  0
 20 24  2  0  0  0  0
 20 25  1  0  0  0  0
 21 22  2  0  0  0  0
 23 22  1  0  0  0  0
 24 21  1  0  0  0  0
 25 23  2  0  0  0  0
 27 26  1  6  0  0  0
 27 29  1  0  0  0  0
 28 29  1  0  0  0  0
 30 32  1  0  0  0  0
 32 31  2  0  0  0  0
 32 33  1  0  0  0  0
 33 34  1  0  0  0  0
 34 35  1  0  0  0  0
 35 36  2  0  0  0  0
 35 37  1  0  0  0  0
 39 38  1  0  0  0  0
 39 40  1  0  0  0  0
 41 40  1  0  0  0  0
 41 56  1  0  0  0  0
 42 50  1  0  0  0  0
 43 51  1  6  0  0  0
 43 49  1  0  0  0  0
 44 41  1  6  0  0  0
 44 42  1  0  0  0  0
 44 43  1  0  0  0  0
 45 52  1  0  0  0  0
 47 48  2  0  0  0  0
 48 46  1  0  0  0  0
 49 45  2  0  0  0  0
 50 49  1  0  0  0  0
 50 48  1  0  0  0  0
 52 53  1  0  0  0  0
 53 54  1  0  0  0  0
 56 55  1  0  0  0  0
M  END
>  <MODEL>
3

>  <REMARK>
 VINA RESULT:      -6.1      3.606      9.334
  Name = 
  21 active torsions:
  status: ('A' for Active; 'I' for Inactive)
    1  A    between atoms: C_1  and  C_14
    2  A    between atoms: C_1  and  C_35
    3  A    between atoms: C_3  and  O_43
    4  A    between atoms: C_4  and  C_36
    5  A    between atoms: C_5  and  O_43
    6  A    between atoms: O_7  and  C_25
    7  A    between atoms: O_7  and  C_47
    8  A    between atoms: C_11  and  C_30
    9  A    between atoms: C_11  and  C_34
   10  A    between atoms: C_11  and  C_55
   11  A    between atoms: C_12  and  N_42
   12  A    between atoms: C_14  and  N_51
   13  A    between atoms: C_17  and  C_36
   14  A    between atoms: C_18  and  C_21
   15  A    between atoms: C_21  and  O_22
   16  A    between atoms: O_22  and  C_25
   17  A    between atoms: C_23  and  C_53
   18  A    between atoms: C_27  and  N_42
   19  A    between atoms: C_34  and  C_44
   20  A    between atoms: C_35  and  N_42
   21  A    between atoms: C_37  and  C_53
                            x       y       z     vdW  Elec       q    Type
                         _______ _______ _______ _____ _____    ______ ____

>  <TORSDO>
F 21

$$$$
=
 OpenBabel10232412193D

 56 60  0  0  1  0  0  0  0  0999 V2000
  186.2570  176.8930  137.0000 C   0  0  1  0  0  3  0  0  0  0  0  0
  189.9590  175.9400  136.8990 C   0  0  2  0  0  3  0  0  0  0  0  0
  186.2110  177.1310  134.6100 O   0  0  0  0  0  0  0  0  0  0  0  0
  189.0380  177.0020  134.3460 C   0  0  0  0  0  2  0  0  0  0  0  0
  188.3300  177.2500  135.5910 N   0  0  0  0  0  0  0  0  0  0  0  0
  186.9010  177.1340  135.6640 C   0  0  0  0  0  0  0  0  0  0  0  0
  187.0740  177.4760  138.1170 C   0  0  0  0  0  3  0  0  0  0  0  0
  189.7540  175.6500  134.4470 C   0  0  0  0  0  2  0  0  0  0  0  0
  188.4040  177.6150  138.0510 C   0  0  0  0  0  0  0  0  0  0  0  0
  189.1510  177.2470  136.7960 C   0  0  1  0  0  3  0  0  0  0  0  0
  190.6160  175.5270  135.6390 N   0  0  0  0  0  0  0  0  0  0  0  0
  189.3270  174.8760  137.5850 O   0  0  0  0  0  0  0  0  0  0  0  0
  189.6710  173.6610  136.9810 C   0  0  0  0  0  2  0  0  0  0  0  0
  188.4690  172.7390  136.9780 C   0  0  0  0  0  1  0  0  0  0  0  0
  184.8230  177.4110  137.0530 C   0  0  0  0  0  2  0  0  0  0  0  0
  184.6410  178.3840  138.2080 C   0  0  1  0  0  3  0  0  0  0  0  0
  183.3430  178.1230  138.8710 C   0  0  1  0  0  3  0  0  0  0  0  0
  184.5580  177.6680  139.4180 O   0  0  0  0  0  0  0  0  0  0  0  0
  182.8780  179.3610  139.6360 C   0  0  2  0  0  3  0  0  0  0  0  0
  184.0670  178.8860  141.8230 C   0  0  0  0  0  3  0  0  0  0  0  0
  182.8110  178.5990  143.8730 C   0  0  0  0  0  3  0  0  0  0  0  0
  181.6160  178.7960  143.1710 C   0  0  0  0  0  3  0  0  0  0  0  0
  181.6460  179.0370  141.7950 C   0  0  0  0  0  3  0  0  0  0  0  0
  184.0360  178.6430  143.1990 C   0  0  0  0  0  3  0  0  0  0  0  0
  182.8700  179.0820  141.1140 C   0  0  0  0  0  0  0  0  0  0  0  0
  180.8860  178.8280  138.3970 O   0  0  0  0  0  1  0  0  0  0  0  0
  181.5050  179.8350  139.1390 C   0  0  2  0  0  3  0  0  0  0  0  0
  182.6600  181.8950  138.7640 O   0  0  0  0  0  1  0  0  0  0  0  0
  181.6410  181.0770  138.2710 C   0  0  0  0  0  2  0  0  0  0  0  0
  189.1660  178.1340  139.1110 O   0  0  0  0  0  0  0  0  0  0  0  0
  191.1690  177.1790  140.0260 C   0  0  0  0  0  2  0  0  0  0  0  0
  189.8690  177.4360  140.1110 C   0  0  0  0  0  0  0  0  0  0  0  0
  189.1850  177.0120  141.2530 O   0  0  0  0  0  0  0  0  0  0  0  0
  188.9760  177.8670  142.3710 C   0  0  0  0  0  2  0  0  0  0  0  0
  189.6370  177.3070  143.5900 C   0  0  0  0  0  0  0  0  0  0  0  0
  190.2410  176.2470  143.5260 O   0  0  0  0  0  0  0  0  0  0  0  0
  189.5360  178.0220  144.8930 C   0  0  0  0  0  1  0  0  0  0  0  0
  191.8070  176.3450  135.4520 C   0  0  0  0  0  2  0  0  0  0  0  0
  192.8310  175.5650  134.6430 C   0  0  0  0  0  2  0  0  0  0  0  0
  193.9810  175.1150  135.5300 C   0  0  0  0  0  2  0  0  0  0  0  0
  193.6490  173.8710  136.2200 N   0  0  0  0  0  0  0  0  0  0  0  0
  196.0860  173.6370  135.8040 C   0  0  0  0  0  2  0  0  0  0  0  0
  195.2750  173.8390  138.1200 C   0  0  2  0  0  3  0  0  0  0  0  0
  194.9020  173.2950  136.7280 C   0  0  1  0  0  3  0  0  0  0  0  0
  197.4620  174.6700  138.9940 C   0  0  0  0  0  3  0  0  0  0  0  0
  199.7020  174.2890  137.0950 C   0  0  0  0  0  1  0  0  0  0  0  0
  198.7340  174.2760  134.9370 O   0  0  0  0  0  0  0  0  0  0  0  0
  198.5300  174.2000  136.1760 C   0  0  0  0  0  0  0  0  0  0  0  0
  196.7160  174.1760  138.0010 C   0  0  0  0  0  0  0  0  0  0  0  0
  197.1900  174.0070  136.6700 N   0  0  0  0  0  0  0  0  0  0  0  0
  195.0960  172.8280  139.0660 O   0  0  0  0  0  1  0  0  0  0  0  0
  196.9240  174.9250  140.3620 C   0  0  0  0  0  2  0  0  0  0  0  0
  197.8920  175.7950  141.1460 C   0  0  0  0  0  2  0  0  0  0  0  0
  198.2680  175.1360  142.3180 O   0  0  0  0  0  1  0  0  0  0  0  0
  192.6530  171.8010  135.7970 O   0  0  0  0  0  1  0  0  0  0  0  0
  193.1050  172.9810  135.1960 C   0  0  0  0  0  2  0  0  0  0  0  0
  1 15  1  6  0  0  0
  1  7  1  0  0  0  0
  2 12  1  6  0  0  0
  3  6  2  0  0  0  0
  4  8  1  0  0  0  0
  4  5  1  0  0  0  0
  5  6  1  0  0  0  0
  5 10  1  0  0  0  0
  6  1  1  0  0  0  0
  8 11  1  0  0  0  0
  9  7  2  0  0  0  0
  9 30  1  0  0  0  0
 10  2  1  0  0  0  0
 10  9  1  1  0  0  0
 11  2  1  0  0  0  0
 13 12  1  0  0  0  0
 14 13  1  0  0  0  0
 16 15  1  6  0  0  0
 16 17  1  0  0  0  0
 16 18  1  0  0  0  0
 17 18  1  0  0  0  0
 17 19  1  1  0  0  0
 19 27  1  6  0  0  0
 19 25  1  0  0  0  0
 20 24  1  0  0  0  0
 22 21  1  0  0  0  0
 23 22  2  0  0  0  0
 24 21  2  0  0  0  0
 25 23  1  0  0  0  0
 25 20  2  0  0  0  0
 27 26  1  6  0  0  0
 29 28  1  0  0  0  0
 29 27  1  0  0  0  0
 30 32  1  0  0  0  0
 31 32  2  0  0  0  0
 32 33  1  0  0  0  0
 33 34  1  0  0  0  0
 34 35  1  0  0  0  0
 35 37  1  0  0  0  0
 36 35  2  0  0  0  0
 38 11  1  0  0  0  0
 39 38  1  0  0  0  0
 39 40  1  0  0  0  0
 40 41  1  0  0  0  0
 42 50  1  0  0  0  0
 42 44  1  0  0  0  0
 43 51  1  1  0  0  0
 44 41  1  6  0  0  0
 44 43  1  0  0  0  0
 45 52  1  0  0  0  0
 47 48  2  0  0  0  0
 48 50  1  0  0  0  0
 48 46  1  0  0  0  0
 49 43  1  0  0  0  0
 49 45  2  0  0  0  0
 50 49  1  0  0  0  0
 52 53  1  0  0  0  0
 53 54  1  0  0  0  0
 56 55  1  0  0  0  0
 56 41  1  0  0  0  0
M  END
>  <MODEL>
4

>  <REMARK>
 VINA RESULT:      -6.0      3.784      8.333
  Name = 
  21 active torsions:
  status: ('A' for Active; 'I' for Inactive)
    1  A    between atoms: C_1  and  C_14
    2  A    between atoms: C_1  and  C_35
    3  A    between atoms: C_3  and  O_43
    4  A    between atoms: C_4  and  C_36
    5  A    between atoms: C_5  and  O_43
    6  A    between atoms: O_7  and  C_25
    7  A    between atoms: O_7  and  C_47
    8  A    between atoms: C_11  and  C_30
    9  A    between atoms: C_11  and  C_34
   10  A    between atoms: C_11  and  C_55
   11  A    between atoms: C_12  and  N_42
   12  A    between atoms: C_14  and  N_51
   13  A    between atoms: C_17  and  C_36
   14  A    between atoms: C_18  and  C_21
   15  A    between atoms: C_21  and  O_22
   16  A    between atoms: O_22  and  C_25
   17  A    between atoms: C_23  and  C_53
   18  A    between atoms: C_27  and  N_42
   19  A    between atoms: C_34  and  C_44
   20  A    between atoms: C_35  and  N_42
   21  A    between atoms: C_37  and  C_53
                            x       y       z     vdW  Elec       q    Type
                         _______ _______ _______ _____ _____    ______ ____

>  <TORSDO>
F 21

$$$$
=
 OpenBabel10232412193D

 56 60  0  0  1  0  0  0  0  0999 V2000
  185.4150  176.8640  137.1310 C   0  0  1  0  0  3  0  0  0  0  0  0
  189.1340  176.0150  136.8790 C   0  0  2  0  0  3  0  0  0  0  0  0
  185.2500  177.0380  134.7410 O   0  0  0  0  0  0  0  0  0  0  0  0
  188.0640  176.9820  134.3470 C   0  0  0  0  0  2  0  0  0  0  0  0
  187.4080  177.2430  135.6170 N   0  0  0  0  0  0  0  0  0  0  0  0
  185.9890  177.0880  135.7610 C   0  0  0  0  0  0  0  0  0  0  0  0
  186.2660  177.5010  138.1940 C   0  0  0  0  0  3  0  0  0  0  0  0
  188.8240  175.6540  134.4470 C   0  0  0  0  0  2  0  0  0  0  0  0
  187.5860  177.6750  138.0600 C   0  0  0  0  0  0  0  0  0  0  0  0
  188.2840  177.2950  136.7820 C   0  0  1  0  0  3  0  0  0  0  0  0
  189.7440  175.5870  135.5990 N   0  0  0  0  0  0  0  0  0  0  0  0
  188.5670  174.9520  137.6200 O   0  0  0  0  0  0  0  0  0  0  0  0
  189.1240  173.7380  137.1990 C   0  0  0  0  0  2  0  0  0  0  0  0
  188.0170  172.7370  136.9390 C   0  0  0  0  0  1  0  0  0  0  0  0
  183.9700  177.3430  137.2390 C   0  0  0  0  0  2  0  0  0  0  0  0
  183.8110  178.3300  138.3860 C   0  0  1  0  0  3  0  0  0  0  0  0
  182.4580  178.1920  138.9700 C   0  0  1  0  0  3  0  0  0  0  0  0
  183.5910  177.6270  139.5860 O   0  0  0  0  0  0  0  0  0  0  0  0
  182.0650  179.4680  139.7110 C   0  0  2  0  0  3  0  0  0  0  0  0
  180.3230  179.0160  141.4950 C   0  0  0  0  0  3  0  0  0  0  0  0
  180.9860  178.5090  143.7670 C   0  0  0  0  0  3  0  0  0  0  0  0
  182.3330  178.6350  143.4050 C   0  0  0  0  0  3  0  0  0  0  0  0
  182.6740  178.9530  142.0870 C   0  0  0  0  0  3  0  0  0  0  0  0
  179.9820  178.7000  142.8120 C   0  0  0  0  0  3  0  0  0  0  0  0
  181.6730  179.1450  141.1260 C   0  0  0  0  0  0  0  0  0  0  0  0
  180.2550  179.3440  138.1310 O   0  0  0  0  0  1  0  0  0  0  0  0
  180.9490  180.2180  138.9690 C   0  0  2  0  0  3  0  0  0  0  0  0
  182.6100  181.9300  138.7920 O   0  0  0  0  0  1  0  0  0  0  0  0
  181.5220  181.3540  138.1330 C   0  0  0  0  0  2  0  0  0  0  0  0
  188.3820  178.2430  139.0700 O   0  0  0  0  0  0  0  0  0  0  0  0
  190.1580  176.8570  139.8970 C   0  0  0  0  0  2  0  0  0  0  0  0
  189.0760  177.5960  140.1100 C   0  0  0  0  0  0  0  0  0  0  0  0
  188.6290  177.7500  141.4240 O   0  0  0  0  0  0  0  0  0  0  0  0
  187.3410  178.2720  141.7300 C   0  0  0  0  0  2  0  0  0  0  0  0
  186.8550  177.7340  143.0380 C   0  0  0  0  0  0  0  0  0  0  0  0
  185.7820  178.1040  143.4910 O   0  0  0  0  0  0  0  0  0  0  0  0
  187.6890  176.7700  143.8080 C   0  0  0  0  0  1  0  0  0  0  0  0
  190.9000  176.4330  135.3360 C   0  0  0  0  0  2  0  0  0  0  0  0
  191.7670  176.5030  136.5840 C   0  0  0  0  0  2  0  0  0  0  0  0
  193.1180  175.8520  136.3310 C   0  0  0  0  0  2  0  0  0  0  0  0
  193.9970  176.0160  137.4860 N   0  0  0  0  0  0  0  0  0  0  0  0
  193.6380  173.5810  137.1550 C   0  0  0  0  0  2  0  0  0  0  0  0
  195.8800  174.3940  137.7680 C   0  0  2  0  0  3  0  0  0  0  0  0
  194.3770  174.6740  137.9500 C   0  0  1  0  0  3  0  0  0  0  0  0
  197.0460  172.3870  136.8450 C   0  0  0  0  0  3  0  0  0  0  0  0
  195.2150  170.1330  136.2660 C   0  0  0  0  0  1  0  0  0  0  0  0
  193.1010  171.1020  135.8370 O   0  0  0  0  0  0  0  0  0  0  0  0
  194.2590  171.2780  136.2970 C   0  0  0  0  0  0  0  0  0  0  0  0
  195.9230  173.0390  137.1600 C   0  0  0  0  0  0  0  0  0  0  0  0
  194.6200  172.5540  136.8570 N   0  0  0  0  0  0  0  0  0  0  0  0
  196.4950  174.3760  139.0210 O   0  0  0  0  0  1  0  0  0  0  0  0
  198.4070  172.9500  137.0890 C   0  0  0  0  0  2  0  0  0  0  0  0
  199.4100  172.3070  136.1470 C   0  0  0  0  0  2  0  0  0  0  0  0
  198.9240  171.0680  135.7230 O   0  0  0  0  0  1  0  0  0  0  0  0
  193.9780  176.9210  139.6380 O   0  0  0  0  0  1  0  0  0  0  0  0
  193.1840  176.6570  138.5170 C   0  0  0  0  0  2  0  0  0  0  0  0
  1 15  1  6  0  0  0
  1  7  1  0  0  0  0
  2 12  1  6  0  0  0
  3  6  2  0  0  0  0
  4  8  1  0  0  0  0
  4  5  1  0  0  0  0
  5  6  1  0  0  0  0
  5 10  1  0  0  0  0
  6  1  1  0  0  0  0
  8 11  1  0  0  0  0
  9  7  2  0  0  0  0
  9 30  1  0  0  0  0
 10  2  1  0  0  0  0
 10  9  1  1  0  0  0
 11  2  1  0  0  0  0
 13 12  1  0  0  0  0
 14 13  1  0  0  0  0
 16 15  1  6  0  0  0
 16 17  1  0  0  0  0
 16 18  1  0  0  0  0
 17 18  1  0  0  0  0
 17 19  1  1  0  0  0
 19 27  1  6  0  0  0
 19 25  1  0  0  0  0
 20 24  1  0  0  0  0
 22 21  1  0  0  0  0
 23 22  2  0  0  0  0
 24 21  2  0  0  0  0
 25 20  2  0  0  0  0
 25 23  1  0  0  0  0
 27 26  1  6  0  0  0
 29 28  1  0  0  0  0
 29 27  1  0  0  0  0
 30 32  1  0  0  0  0
 31 32  2  0  0  0  0
 32 33  1  0  0  0  0
 33 34  1  0  0  0  0
 34 35  1  0  0  0  0
 35 36  2  0  0  0  0
 35 37  1  0  0  0  0
 38 11  1  0  0  0  0
 38 39  1  0  0  0  0
 40 39  1  0  0  0  0
 40 41  1  0  0  0  0
 41 56  1  0  0  0  0
 42 44  1  0  0  0  0
 43 44  1  0  0  0  0
 43 51  1  1  0  0  0
 44 41  1  6  0  0  0
 45 52  1  0  0  0  0
 45 49  2  0  0  0  0
 46 48  1  0  0  0  0
 47 48  2  0  0  0  0
 48 50  1  0  0  0  0
 49 43  1  0  0  0  0
 50 42  1  0  0  0  0
 50 49  1  0  0  0  0
 53 52  1  0  0  0  0
 54 53  1  0  0  0  0
 56 55  1  0  0  0  0
M  END
>  <MODEL>
5

>  <REMARK>
 VINA RESULT:      -5.9      3.649      8.120
  Name = 
  21 active torsions:
  status: ('A' for Active; 'I' for Inactive)
    1  A    between atoms: C_1  and  C_14
    2  A    between atoms: C_1  and  C_35
    3  A    between atoms: C_3  and  O_43
    4  A    between atoms: C_4  and  C_36
    5  A    between atoms: C_5  and  O_43
    6  A    between atoms: O_7  and  C_25
    7  A    between atoms: O_7  and  C_47
    8  A    between atoms: C_11  and  C_30
    9  A    between atoms: C_11  and  C_34
   10  A    between atoms: C_11  and  C_55
   11  A    between atoms: C_12  and  N_42
   12  A    between atoms: C_14  and  N_51
   13  A    between atoms: C_17  and  C_36
   14  A    between atoms: C_18  and  C_21
   15  A    between atoms: C_21  and  O_22
   16  A    between atoms: O_22  and  C_25
   17  A    between atoms: C_23  and  C_53
   18  A    between atoms: C_27  and  N_42
   19  A    between atoms: C_34  and  C_44
   20  A    between atoms: C_35  and  N_42
   21  A    between atoms: C_37  and  C_53
                            x       y       z     vdW  Elec       q    Type
                         _______ _______ _______ _____ _____    ______ ____

>  <TORSDO>
F 21

$$$$
=
 OpenBabel10232412193D

 56 60  0  0  1  0  0  0  0  0999 V2000
  187.3000  177.2770  135.8600 C   0  0  1  0  0  3  0  0  0  0  0  0
  190.1740  176.2070  138.1430 C   0  0  2  0  0  3  0  0  0  0  0  0
  186.6910  179.0330  137.3810 O   0  0  0  0  0  0  0  0  0  0  0  0
  188.3760  178.0820  139.4630 C   0  0  0  0  0  2  0  0  0  0  0  0
  187.9740  177.3080  138.3000 N   0  0  0  0  0  0  0  0  0  0  0  0
  187.2580  177.9200  137.2170 C   0  0  0  0  0  0  0  0  0  0  0  0
  187.4840  175.7890  135.9620 C   0  0  0  0  0  3  0  0  0  0  0  0
  189.8870  178.3260  139.3940 C   0  0  0  0  0  2  0  0  0  0  0  0
  188.1260  175.2040  136.9810 C   0  0  0  0  0  0  0  0  0  0  0  0
  188.6450  176.0250  138.1320 C   0  0  1  0  0  3  0  0  0  0  0  0
  190.6770  177.0920  139.2180 N   0  0  0  0  0  0  0  0  0  0  0  0
  190.7760  176.4440  136.8850 O   0  0  0  0  0  0  0  0  0  0  0  0
  191.9320  175.6630  136.7650 C   0  0  0  0  0  2  0  0  0  0  0  0
  193.1540  176.5360  136.9660 C   0  0  0  0  0  1  0  0  0  0  0  0
  186.0690  177.6110  135.0230 C   0  0  0  0  0  2  0  0  0  0  0  0
  184.9230  176.6620  135.3430 C   0  0  1  0  0  3  0  0  0  0  0  0
  183.9850  177.3220  136.2800 C   0  0  1  0  0  3  0  0  0  0  0  0
  183.7090  177.2250  134.9030 O   0  0  0  0  0  0  0  0  0  0  0  0
  183.1650  176.2780  137.0340 C   0  0  2  0  0  3  0  0  0  0  0  0
  182.7600  174.5630  135.2120 C   0  0  0  0  0  3  0  0  0  0  0  0
  180.5310  174.1850  134.3470 C   0  0  0  0  0  3  0  0  0  0  0  0
  180.0260  175.1630  135.2120 C   0  0  0  0  0  3  0  0  0  0  0  0
  180.8890  175.8420  136.0770 C   0  0  0  0  0  3  0  0  0  0  0  0
  181.8970  173.8860  134.3470 C   0  0  0  0  0  3  0  0  0  0  0  0
  182.2590  175.5460  136.0820 C   0  0  0  0  0  0  0  0  0  0  0  0
  181.8680  178.1560  137.7940 O   0  0  0  0  0  1  0  0  0  0  0  0
  182.3790  176.9180  138.1880 C   0  0  2  0  0  3  0  0  0  0  0  0
  184.1560  178.1680  139.1850 O   0  0  0  0  0  1  0  0  0  0  0  0
  183.2680  177.1140  139.4070 C   0  0  0  0  0  2  0  0  0  0  0  0
  188.3220  173.8150  137.0560 O   0  0  0  0  0  0  0  0  0  0  0  0
  190.2430  173.1720  135.7690 C   0  0  0  0  0  2  0  0  0  0  0  0
  188.9860  172.9710  136.1460 C   0  0  0  0  0  0  0  0  0  0  0  0
  188.3110  171.8620  135.6300 O   0  0  0  0  0  0  0  0  0  0  0  0
  187.1770  171.2970  136.2780 C   0  0  0  0  0  2  0  0  0  0  0  0
  185.9620  172.1340  136.0330 C   0  0  0  0  0  0  0  0  0  0  0  0
  185.5720  172.3260  134.8910 O   0  0  0  0  0  0  0  0  0  0  0  0
  185.2420  172.7630  137.1760 C   0  0  0  0  0  1  0  0  0  0  0  0
  190.6760  176.3420  140.4680 C   0  0  0  0  0  2  0  0  0  0  0  0
  191.0260  177.2770  141.6150 C   0  0  0  0  0  2  0  0  0  0  0  0
  191.1350  176.5010  142.9190 C   0  0  0  0  0  2  0  0  0  0  0  0
  190.7380  177.3330  144.0520 N   0  0  0  0  0  0  0  0  0  0  0  0
  189.0650  177.5020  145.8800 C   0  0  0  0  0  2  0  0  0  0  0  0
  188.2980  177.0360  143.5870 C   0  0  2  0  0  3  0  0  0  0  0  0
  189.4650  176.8060  144.5650 C   0  0  1  0  0  3  0  0  0  0  0  0
  185.9880  177.8870  144.0060 C   0  0  0  0  0  3  0  0  0  0  0  0
  185.3770  178.2510  146.8800 C   0  0  0  0  0  1  0  0  0  0  0  0
  187.4520  178.6470  147.9440 O   0  0  0  0  0  0  0  0  0  0  0  0
  186.8690  178.2480  146.9030 C   0  0  0  0  0  0  0  0  0  0  0  0
  187.2070  177.5630  144.4460 C   0  0  0  0  0  0  0  0  0  0  0  0
  187.6450  177.7810  145.7820 N   0  0  0  0  0  0  0  0  0  0  0  0
  187.9210  175.8110  143.0330 O   0  0  0  0  0  1  0  0  0  0  0  0
  185.5730  177.7350  142.5800 C   0  0  0  0  0  2  0  0  0  0  0  0
  186.2210  178.8190  141.7340 C   0  0  0  0  0  2  0  0  0  0  0  0
  185.3560  179.9110  141.6320 O   0  0  0  0  0  1  0  0  0  0  0  0
  191.4570  179.5550  144.0230 O   0  0  0  0  0  1  0  0  0  0  0  0
  190.5070  178.6680  143.5040 C   0  0  0  0  0  2  0  0  0  0  0  0
  1 15  1  1  0  0  0
  1  7  1  0  0  0  0
  1  6  1  0  0  0  0
  2 12  1  6  0  0  0
  2 11  1  0  0  0  0
  5  4  1  0  0  0  0
  6  3  2  0  0  0  0
  6  5  1  0  0  0  0
  7  9  2  0  0  0  0
  8  4  1  0  0  0  0
  9 30  1  0  0  0  0
 10  9  1  6  0  0  0
 10  2  1  0  0  0  0
 10  5  1  0  0  0  0
 11  8  1  0  0  0  0
 11 38  1  0  0  0  0
 13 12  1  0  0  0  0
 13 14  1  0  0  0  0
 16 15  1  6  0  0  0
 16 17  1  0  0  0  0
 17 19  1  1  0  0  0
 18 16  1  0  0  0  0
 18 17  1  0  0  0  0
 19 27  1  1  0  0  0
 20 25  1  0  0  0  0
 21 24  1  0  0  0  0
 21 22  2  0  0  0  0
 22 23  1  0  0  0  0
 23 25  2  0  0  0  0
 24 20  2  0  0  0  0
 25 19  1  0  0  0  0
 27 26  1  6  0  0  0
 27 29  1  0  0  0  0
 28 29  1  0  0  0  0
 31 32  2  0  0  0  0
 32 30  1  0  0  0  0
 33 32  1  0  0  0  0
 33 34  1  0  0  0  0
 35 34  1  0  0  0  0
 35 37  1  0  0  0  0
 36 35  2  0  0  0  0
 38 39  1  0  0  0  0
 39 40  1  0  0  0  0
 40 41  1  0  0  0  0
 43 51  1  1  0  0  0
 43 49  1  0  0  0  0
 43 44  1  0  0  0  0
 44 41  1  6  0  0  0
 44 42  1  0  0  0  0
 45 49  2  0  0  0  0
 46 48  1  0  0  0  0
 48 47  2  0  0  0  0
 49 50  1  0  0  0  0
 50 42  1  0  0  0  0
 50 48  1  0  0  0  0
 52 45  1  0  0  0  0
 53 52  1  0  0  0  0
 54 53  1  0  0  0  0
 56 55  1  0  0  0  0
 56 41  1  0  0  0  0
M  END
>  <MODEL>
6

>  <REMARK>
 VINA RESULT:      -5.6      1.242      2.023
  Name = 
  21 active torsions:
  status: ('A' for Active; 'I' for Inactive)
    1  A    between atoms: C_1  and  C_14
    2  A    between atoms: C_1  and  C_35
    3  A    between atoms: C_3  and  O_43
    4  A    between atoms: C_4  and  C_36
    5  A    between atoms: C_5  and  O_43
    6  A    between atoms: O_7  and  C_25
    7  A    between atoms: O_7  and  C_47
    8  A    between atoms: C_11  and  C_30
    9  A    between atoms: C_11  and  C_34
   10  A    between atoms: C_11  and  C_55
   11  A    between atoms: C_12  and  N_42
   12  A    between atoms: C_14  and  N_51
   13  A    between atoms: C_17  and  C_36
   14  A    between atoms: C_18  and  C_21
   15  A    between atoms: C_21  and  O_22
   16  A    between atoms: O_22  and  C_25
   17  A    between atoms: C_23  and  C_53
   18  A    between atoms: C_27  and  N_42
   19  A    between atoms: C_34  and  C_44
   20  A    between atoms: C_35  and  N_42
   21  A    between atoms: C_37  and  C_53
                            x       y       z     vdW  Elec       q    Type
                         _______ _______ _______ _____ _____    ______ ____

>  <TORSDO>
F 21

$$$$
=
 OpenBabel10232412193D

 56 60  0  0  1  0  0  0  0  0999 V2000
  187.4720  177.8810  139.3620 C   0  0  1  0  0  3  0  0  0  0  0  0
  190.4690  176.0030  137.9100 C   0  0  2  0  0  3  0  0  0  0  0  0
  187.2610  179.1810  137.3520 O   0  0  0  0  0  0  0  0  0  0  0  0
  189.7650  178.3320  136.3080 C   0  0  0  0  0  2  0  0  0  0  0  0
  189.3510  178.1900  137.6940 N   0  0  0  0  0  0  0  0  0  0  0  0
  188.0090  178.4940  138.0990 C   0  0  0  0  0  0  0  0  0  0  0  0
  188.5690  177.6130  140.3520 C   0  0  0  0  0  3  0  0  0  0  0  0
  189.9000  176.9370  135.6870 C   0  0  0  0  0  2  0  0  0  0  0  0
  189.8310  177.3550  139.9870 C   0  0  0  0  0  0  0  0  0  0  0  0
  190.2320  177.3890  138.5360 C   0  0  1  0  0  3  0  0  0  0  0  0
  190.7690  176.0300  136.4610 N   0  0  0  0  0  0  0  0  0  0  0  0
  189.5490  174.9930  138.2810 O   0  0  0  0  0  0  0  0  0  0  0  0
  188.9890  174.4260  137.1290 C   0  0  0  0  0  2  0  0  0  0  0  0
  187.4850  174.5980  137.1620 C   0  0  0  0  0  1  0  0  0  0  0  0
  186.3700  178.7280  139.9930 C   0  0  0  0  0  2  0  0  0  0  0  0
  185.0360  178.4790  139.3060 C   0  0  1  0  0  3  0  0  0  0  0  0
  184.0630  179.5110  139.7330 C   0  0  1  0  0  3  0  0  0  0  0  0
  184.7150  179.5790  138.4870 O   0  0  0  0  0  0  0  0  0  0  0  0
  182.6340  179.0120  139.5270 C   0  0  2  0  0  3  0  0  0  0  0  0
  181.4800  179.3200  137.2920 C   0  0  0  0  0  3  0  0  0  0  0  0
  180.5970  181.4800  136.6470 C   0  0  0  0  0  3  0  0  0  0  0  0
  181.0430  182.0260  137.8560 C   0  0  0  0  0  3  0  0  0  0  0  0
  181.7090  181.2200  138.7830 C   0  0  0  0  0  3  0  0  0  0  0  0
  180.8160  180.1270  136.3650 C   0  0  0  0  0  3  0  0  0  0  0  0
  181.9310  179.8640  138.5070 C   0  0  0  0  0  0  0  0  0  0  0  0
  182.6900  178.4820  141.8730 O   0  0  0  0  0  1  0  0  0  0  0  0
  181.8660  178.9670  140.8570 C   0  0  2  0  0  3  0  0  0  0  0  0
  180.0550  177.9050  142.0010 O   0  0  0  0  0  1  0  0  0  0  0  0
  180.6390  178.0740  140.7440 C   0  0  0  0  0  2  0  0  0  0  0  0
  190.8470  177.0740  140.9170 O   0  0  0  0  0  0  0  0  0  0  0  0
  190.0890  175.5830  142.6380 C   0  0  0  0  0  2  0  0  0  0  0  0
  190.7210  176.6900  142.2650 C   0  0  0  0  0  0  0  0  0  0  0  0
  191.3010  177.4850  143.2560 O   0  0  0  0  0  0  0  0  0  0  0  0
  190.5380  178.3970  144.0390 C   0  0  0  0  0  2  0  0  0  0  0  0
  190.2160  177.8000  145.3720 C   0  0  0  0  0  0  0  0  0  0  0  0
  189.1500  178.0520  145.9130 O   0  0  0  0  0  0  0  0  0  0  0  0
  191.2040  176.9200  146.0580 C   0  0  0  0  0  1  0  0  0  0  0  0
  192.1580  176.4360  136.2870 C   0  0  0  0  0  2  0  0  0  0  0  0
  192.7560  175.6880  135.1060 C   0  0  0  0  0  2  0  0  0  0  0  0
  193.8300  174.7200  135.5780 C   0  0  0  0  0  2  0  0  0  0  0  0
  193.2490  173.6560  136.3920 N   0  0  0  0  0  0  0  0  0  0  0  0
  194.5510  171.6600  137.0890 C   0  0  0  0  0  2  0  0  0  0  0  0
  195.6500  173.8630  137.0630 C   0  0  2  0  0  3  0  0  0  0  0  0
  194.2980  173.1650  137.2980 C   0  0  1  0  0  3  0  0  0  0  0  0
  197.9470  172.9040  136.8700 C   0  0  0  0  0  3  0  0  0  0  0  0
  198.0560  170.0010  137.4450 C   0  0  0  0  0  1  0  0  0  0  0  0
  195.9120  169.1510  136.9240 O   0  0  0  0  0  0  0  0  0  0  0  0
  196.6070  170.1780  137.1370 C   0  0  0  0  0  0  0  0  0  0  0  0
  196.6310  172.7490  137.0360 C   0  0  0  0  0  0  0  0  0  0  0  0
  195.9910  171.4790  137.1030 N   0  0  0  0  0  0  0  0  0  0  0  0
  195.9180  174.7100  138.1400 O   0  0  0  0  0  1  0  0  0  0  0  0
  198.5930  174.2410  136.7100 C   0  0  0  0  0  2  0  0  0  0  0  0
  199.7630  174.3690  137.6710 C   0  0  0  0  0  2  0  0  0  0  0  0
  199.3330  174.9810  138.8510 O   0  0  0  0  0  1  0  0  0  0  0  0
  191.5130  172.3770  135.4950 O   0  0  0  0  0  1  0  0  0  0  0  0
  192.8950  172.5880  135.4590 C   0  0  0  0  0  2  0  0  0  0  0  0
  1 15  1  1  0  0  0
  1  7  1  0  0  0  0
  2 12  1  6  0  0  0
  2 10  1  0  0  0  0
  3  6  2  0  0  0  0
  4  5  1  0  0  0  0
  5  6  1  0  0  0  0
  5 10  1  0  0  0  0
  6  1  1  0  0  0  0
  8  4  1  0  0  0  0
  8 11  1  0  0  0  0
  9  7  2  0  0  0  0
  9 30  1  0  0  0  0
 10  9  1  1  0  0  0
 11  2  1  0  0  0  0
 13 14  1  0  0  0  0
 13 12  1  0  0  0  0
 16 17  1  0  0  0  0
 16 15  1  1  0  0  0
 17 19  1  6  0  0  0
 18 16  1  0  0  0  0
 18 17  1  0  0  0  0
 19 27  1  1  0  0  0
 20 25  1  0  0  0  0
 21 22  2  0  0  0  0
 22 23  1  0  0  0  0
 24 21  1  0  0  0  0
 24 20  2  0  0  0  0
 25 23  2  0  0  0  0
 25 19  1  0  0  0  0
 27 26  1  1  0  0  0
 29 27  1  0  0  0  0
 29 28  1  0  0  0  0
 30 32  1  0  0  0  0
 32 31  2  0  0  0  0
 32 33  1  0  0  0  0
 33 34  1  0  0  0  0
 34 35  1  0  0  0  0
 35 36  2  0  0  0  0
 35 37  1  0  0  0  0
 38 11  1  0  0  0  0
 39 40  1  0  0  0  0
 39 38  1  0  0  0  0
 40 41  1  0  0  0  0
 42 50  1  0  0  0  0
 42 44  1  0  0  0  0
 43 44  1  0  0  0  0
 43 51  1  1  0  0  0
 44 41  1  6  0  0  0
 45 49  2  0  0  0  0
 47 48  2  0  0  0  0
 48 46  1  0  0  0  0
 49 43  1  0  0  0  0
 49 50  1  0  0  0  0
 50 48  1  0  0  0  0
 52 45  1  0  0  0  0
 52 53  1  0  0  0  0
 53 54  1  0  0  0  0
 56 55  1  0  0  0  0
 56 41  1  0  0  0  0
M  END
>  <MODEL>
7

>  <REMARK>
 VINA RESULT:      -5.6      3.850      8.656
  Name = 
  21 active torsions:
  status: ('A' for Active; 'I' for Inactive)
    1  A    between atoms: C_1  and  C_14
    2  A    between atoms: C_1  and  C_35
    3  A    between atoms: C_3  and  O_43
    4  A    between atoms: C_4  and  C_36
    5  A    between atoms: C_5  and  O_43
    6  A    between atoms: O_7  and  C_25
    7  A    between atoms: O_7  and  C_47
    8  A    between atoms: C_11  and  C_30
    9  A    between atoms: C_11  and  C_34
   10  A    between atoms: C_11  and  C_55
   11  A    between atoms: C_12  and  N_42
   12  A    between atoms: C_14  and  N_51
   13  A    between atoms: C_17  and  C_36
   14  A    between atoms: C_18  and  C_21
   15  A    between atoms: C_21  and  O_22
   16  A    between atoms: O_22  and  C_25
   17  A    between atoms: C_23  and  C_53
   18  A    between atoms: C_27  and  N_42
   19  A    between atoms: C_34  and  C_44
   20  A    between atoms: C_35  and  N_42
   21  A    between atoms: C_37  and  C_53
                            x       y       z     vdW  Elec       q    Type
                         _______ _______ _______ _____ _____    ______ ____

>  <TORSDO>
F 21

$$$$
=
 OpenBabel10232412193D

 56 60  0  0  1  0  0  0  0  0999 V2000
  186.1490  176.3820  134.9130 C   0  0  1  0  0  3  0  0  0  0  0  0
  189.6860  175.8360  136.2590 C   0  0  2  0  0  3  0  0  0  0  0  0
  185.7890  178.1750  136.4720 O   0  0  0  0  0  0  0  0  0  0  0  0
  188.1250  177.5930  137.9820 C   0  0  0  0  0  2  0  0  0  0  0  0
  187.5040  176.6870  137.0300 N   0  0  0  0  0  0  0  0  0  0  0  0
  186.4250  177.1240  136.1910 C   0  0  0  0  0  0  0  0  0  0  0  0
  186.5520  174.9390  135.0180 C   0  0  0  0  0  3  0  0  0  0  0  0
  189.5020  178.0020  137.4470 C   0  0  0  0  0  2  0  0  0  0  0  0
  187.5390  174.5150  135.8180 C   0  0  0  0  0  0  0  0  0  0  0  0
  188.2610  175.4800  136.7210 C   0  0  1  0  0  3  0  0  0  0  0  0
  190.3610  176.8560  137.0930 N   0  0  0  0  0  0  0  0  0  0  0  0
  189.8510  176.0380  134.8690 O   0  0  0  0  0  0  0  0  0  0  0  0
  191.1730  176.4200  134.6070 C   0  0  0  0  0  2  0  0  0  0  0  0
  192.0940  175.2380  134.8280 C   0  0  0  0  0  1  0  0  0  0  0  0
  184.6920  176.5050  134.4760 C   0  0  0  0  0  2  0  0  0  0  0  0
  183.8120  175.5330  135.2470 C   0  0  1  0  0  3  0  0  0  0  0  0
  182.6190  176.2470  135.7560 C   0  0  1  0  0  3  0  0  0  0  0  0
  182.5590  175.4270  134.6130 O   0  0  0  0  0  0  0  0  0  0  0  0
  182.0180  175.4990  136.9440 C   0  0  2  0  0  3  0  0  0  0  0  0
  182.3630  172.9880  136.9100 C   0  0  0  0  0  3  0  0  0  0  0  0
  180.7950  171.5440  135.7620 C   0  0  0  0  0  3  0  0  0  0  0  0
  180.0400  172.6600  135.3820 C   0  0  0  0  0  3  0  0  0  0  0  0
  180.4480  173.9410  135.7650 C   0  0  0  0  0  3  0  0  0  0  0  0
  181.9560  171.7080  136.5250 C   0  0  0  0  0  3  0  0  0  0  0  0
  181.6100  174.1130  136.5290 C   0  0  0  0  0  0  0  0  0  0  0  0
  181.2200  177.6000  137.8020 O   0  0  0  0  0  1  0  0  0  0  0  0
  180.8440  176.2790  137.5530 C   0  0  2  0  0  3  0  0  0  0  0  0
  180.5880  176.5240  139.9180 O   0  0  0  0  0  1  0  0  0  0  0  0
  180.3860  175.6400  138.8570 C   0  0  0  0  0  2  0  0  0  0  0  0
  187.9310  173.1680  135.8880 O   0  0  0  0  0  0  0  0  0  0  0  0
  189.6650  172.5390  134.3520 C   0  0  0  0  0  2  0  0  0  0  0  0
  188.4560  172.3510  134.8690 C   0  0  0  0  0  0  0  0  0  0  0  0
  187.6920  171.2840  134.3920 O   0  0  0  0  0  0  0  0  0  0  0  0
  186.9850  170.4090  135.2640 C   0  0  0  0  0  2  0  0  0  0  0  0
  185.5100  170.5330  135.0490 C   0  0  0  0  0  0  0  0  0  0  0  0
  185.0330  171.5980  134.6880 O   0  0  0  0  0  0  0  0  0  0  0  0
  184.6150  169.3700  135.3030 C   0  0  0  0  0  1  0  0  0  0  0  0
  190.8290  176.2150  138.3140 C   0  0  0  0  0  2  0  0  0  0  0  0
  190.8760  177.2410  139.4350 C   0  0  0  0  0  2  0  0  0  0  0  0
  190.7270  176.5600  140.7870 C   0  0  0  0  0  2  0  0  0  0  0  0
  189.9640  177.3980  141.7080 N   0  0  0  0  0  0  0  0  0  0  0  0
  190.7590  176.8330  143.9920 C   0  0  0  0  0  2  0  0  0  0  0  0
  188.3390  176.9630  143.5590 C   0  0  2  0  0  3  0  0  0  0  0  0
  189.6870  176.5990  142.9110 C   0  0  1  0  0  3  0  0  0  0  0  0
  187.7610  177.3790  145.9530 C   0  0  0  0  0  3  0  0  0  0  0  0
  189.9980  176.8210  147.8110 C   0  0  0  0  0  1  0  0  0  0  0  0
  191.9810  177.1330  146.5590 O   0  0  0  0  0  0  0  0  0  0  0  0
  190.7320  176.9870  146.5220 C   0  0  0  0  0  0  0  0  0  0  0  0
  188.6560  177.0860  145.0050 C   0  0  0  0  0  0  0  0  0  0  0  0
  190.0520  176.9590  145.2530 N   0  0  0  0  0  0  0  0  0  0  0  0
  187.4390  175.9150  143.3550 O   0  0  0  0  0  1  0  0  0  0  0  0
  186.3140  177.5980  145.6620 C   0  0  0  0  0  2  0  0  0  0  0  0
  185.9650  179.0650  145.8490 C   0  0  0  0  0  2  0  0  0  0  0  0
  185.2920  179.2350  147.0610 O   0  0  0  0  0  1  0  0  0  0  0  0
  188.4240  179.0520  141.1200 O   0  0  0  0  0  1  0  0  0  0  0  0
  188.7000  177.6830  141.0330 C   0  0  0  0  0  2  0  0  0  0  0  0
  1 15  1  1  0  0  0
  1  7  1  0  0  0  0
  1  6  1  0  0  0  0
  2 12  1  6  0  0  0
  2 10  1  0  0  0  0
  2 11  1  0  0  0  0
  5  4  1  0  0  0  0
  6  3  2  0  0  0  0
  6  5  1  0  0  0  0
  7  9  2  0  0  0  0
  8  4  1  0  0  0  0
  9 30  1  0  0  0  0
 10  9  1  6  0  0  0
 10  5  1  0  0  0  0
 11  8  1  0  0  0  0
 11 38  1  0  0  0  0
 13 14  1  0  0  0  0
 13 12  1  0  0  0  0
 16 15  1  6  0  0  0
 16 17  1  0  0  0  0
 17 19  1  1  0  0  0
 18 16  1  0  0  0  0
 18 17  1  0  0  0  0
 19 27  1  6  0  0  0
 21 24  1  0  0  0  0
 22 21  2  0  0  0  0
 22 23  1  0  0  0  0
 23 25  2  0  0  0  0
 24 20  2  0  0  0  0
 25 20  1  0  0  0  0
 25 19  1  0  0  0  0
 27 26  1  1  0  0  0
 27 29  1  0  0  0  0
 29 28  1  0  0  0  0
 31 32  2  0  0  0  0
 32 30  1  0  0  0  0
 33 32  1  0  0  0  0
 33 34  1  0  0  0  0
 35 34  1  0  0  0  0
 35 37  1  0  0  0  0
 36 35  2  0  0  0  0
 38 39  1  0  0  0  0
 39 40  1  0  0  0  0
 40 41  1  0  0  0  0
 42 50  1  0  0  0  0
 43 51  1  1  0  0  0
 43 49  1  0  0  0  0
 44 41  1  6  0  0  0
 44 43  1  0  0  0  0
 44 42  1  0  0  0  0
 48 47  2  0  0  0  0
 48 46  1  0  0  0  0
 49 50  1  0  0  0  0
 49 45  2  0  0  0  0
 50 48  1  0  0  0  0
 52 53  1  0  0  0  0
 52 45  1  0  0  0  0
 53 54  1  0  0  0  0
 56 55  1  0  0  0  0
 56 41  1  0  0  0  0
M  END
>  <MODEL>
8

>  <REMARK>
 VINA RESULT:      -5.5      2.021      3.371
  Name = 
  21 active torsions:
  status: ('A' for Active; 'I' for Inactive)
    1  A    between atoms: C_1  and  C_14
    2  A    between atoms: C_1  and  C_35
    3  A    between atoms: C_3  and  O_43
    4  A    between atoms: C_4  and  C_36
    5  A    between atoms: C_5  and  O_43
    6  A    between atoms: O_7  and  C_25
    7  A    between atoms: O_7  and  C_47
    8  A    between atoms: C_11  and  C_30
    9  A    between atoms: C_11  and  C_34
   10  A    between atoms: C_11  and  C_55
   11  A    between atoms: C_12  and  N_42
   12  A    between atoms: C_14  and  N_51
   13  A    between atoms: C_17  and  C_36
   14  A    between atoms: C_18  and  C_21
   15  A    between atoms: C_21  and  O_22
   16  A    between atoms: O_22  and  C_25
   17  A    between atoms: C_23  and  C_53
   18  A    between atoms: C_27  and  N_42
   19  A    between atoms: C_34  and  C_44
   20  A    between atoms: C_35  and  N_42
   21  A    between atoms: C_37  and  C_53
                            x       y       z     vdW  Elec       q    Type
                         _______ _______ _______ _____ _____    ______ ____

>  <TORSDO>
F 21

$$$$
=
 OpenBabel10232412193D

 56 60  0  0  1  0  0  0  0  0999 V2000
  187.0110  178.3510  139.0290 C   0  0  1  0  0  3  0  0  0  0  0  0
  190.0720  176.7940  137.3480 C   0  0  2  0  0  3  0  0  0  0  0  0
  188.2040  178.5590  141.1040 O   0  0  0  0  0  0  0  0  0  0  0  0
  190.3750  176.9380  140.2430 C   0  0  0  0  0  2  0  0  0  0  0  0
  189.0760  177.0000  139.5940 N   0  0  0  0  0  0  0  0  0  0  0  0
  188.0950  177.9670  139.9960 C   0  0  0  0  0  0  0  0  0  0  0  0
  186.6900  177.2250  138.0880 C   0  0  0  0  0  3  0  0  0  0  0  0
  191.4290  177.5160  139.2910 C   0  0  0  0  0  2  0  0  0  0  0  0
  187.5890  176.3010  137.7260 C   0  0  0  0  0  0  0  0  0  0  0  0
  188.9750  176.3090  138.3140 C   0  0  1  0  0  3  0  0  0  0  0  0
  191.4190  176.8940  137.9530 N   0  0  0  0  0  0  0  0  0  0  0  0
  189.7320  177.9010  136.5350 O   0  0  0  0  0  0  0  0  0  0  0  0
  189.4150  177.4540  135.2460 C   0  0  0  0  0  2  0  0  0  0  0  0
  190.3890  176.3690  134.8340 C   0  0  0  0  0  1  0  0  0  0  0  0
  185.7490  178.8380  139.7370 C   0  0  0  0  0  2  0  0  0  0  0  0
  184.6030  178.9990  138.7500 C   0  0  1  0  0  3  0  0  0  0  0  0
  183.3530  179.2880  139.4900 C   0  0  1  0  0  3  0  0  0  0  0  0
  184.0820  180.3040  138.8420 O   0  0  0  0  0  0  0  0  0  0  0  0
  182.1370  178.9220  138.6430 C   0  0  2  0  0  3  0  0  0  0  0  0
  181.1840  180.4760  136.8820 C   0  0  0  0  0  3  0  0  0  0  0  0
  179.9820  182.4770  137.5240 C   0  0  0  0  0  3  0  0  0  0  0  0
  180.1890  182.1720  138.8740 C   0  0  0  0  0  3  0  0  0  0  0  0
  180.8950  181.0190  139.2290 C   0  0  0  0  0  3  0  0  0  0  0  0
  180.4800  181.6300  136.5280 C   0  0  0  0  0  3  0  0  0  0  0  0
  181.3960  180.1650  138.2360 C   0  0  0  0  0  0  0  0  0  0  0  0
  181.5290  177.9220  140.7460 O   0  0  0  0  0  1  0  0  0  0  0  0
  181.2240  177.9330  139.3840 C   0  0  2  0  0  3  0  0  0  0  0  0
  182.2030  175.7700  139.6730 O   0  0  0  0  0  1  0  0  0  0  0  0
  181.3860  176.5250  138.8280 C   0  0  0  0  0  2  0  0  0  0  0  0
  187.2920  175.2680  136.8210 O   0  0  0  0  0  0  0  0  0  0  0  0
  186.4550  175.3450  134.5740 C   0  0  0  0  0  2  0  0  0  0  0  0
  186.2500  175.2000  135.8780 C   0  0  0  0  0  0  0  0  0  0  0  0
  184.9490  174.9470  136.3180 O   0  0  0  0  0  0  0  0  0  0  0  0
  184.1950  173.8340  135.8530 C   0  0  0  0  0  2  0  0  0  0  0  0
  184.3270  172.6800  136.7950 C   0  0  0  0  0  0  0  0  0  0  0  0
  184.9290  172.8170  137.8490 O   0  0  0  0  0  0  0  0  0  0  0  0
  183.7540  171.3520  136.4380 C   0  0  0  0  0  1  0  0  0  0  0  0
  191.9810  175.5530  138.0460 C   0  0  0  0  0  2  0  0  0  0  0  0
  193.4280  175.5800  137.5820 C   0  0  0  0  0  2  0  0  0  0  0  0
  194.2030  174.4190  138.1870 C   0  0  0  0  0  2  0  0  0  0  0  0
  195.6340  174.5630  137.9330 N   0  0  0  0  0  0  0  0  0  0  0  0
  197.4330  172.9560  137.3410 C   0  0  0  0  0  2  0  0  0  0  0  0
  195.0810  172.2870  137.0580 C   0  0  2  0  0  3  0  0  0  0  0  0
  196.0310  173.4970  137.0020 C   0  0  1  0  0  3  0  0  0  0  0  0
  195.5870  169.8430  137.1650 C   0  0  0  0  0  3  0  0  0  0  0  0
  198.4700  169.2320  136.8800 C   0  0  0  0  0  1  0  0  0  0  0  0
  199.6240  171.1460  137.6520 O   0  0  0  0  0  0  0  0  0  0  0  0
  198.5210  170.6680  137.2820 C   0  0  0  0  0  0  0  0  0  0  0  0
  195.9920  171.1150  137.1200 C   0  0  0  0  0  0  0  0  0  0  0  0
  197.3550  171.5120  137.2320 N   0  0  0  0  0  0  0  0  0  0  0  0
  194.3280  172.2440  135.8830 O   0  0  0  0  0  1  0  0  0  0  0  0
  194.1480  169.4490  137.1370 C   0  0  0  0  0  2  0  0  0  0  0  0
  193.7750  168.9450  135.7540 C   0  0  0  0  0  2  0  0  0  0  0  0
  192.5320  168.3110  135.8060 O   0  0  0  0  0  1  0  0  0  0  0  0
  197.1550  175.3990  139.4970 O   0  0  0  0  0  1  0  0  0  0  0  0
  196.2920  174.3330  139.2190 C   0  0  0  0  0  2  0  0  0  0  0  0
  1 15  1  1  0  0  0
  1  6  1  0  0  0  0
  2 12  1  1  0  0  0
  2 11  1  0  0  0  0
  2 10  1  0  0  0  0
  5  6  1  0  0  0  0
  5  4  1  0  0  0  0
  6  3  2  0  0  0  0
  7  1  1  0  0  0  0
  8  4  1  0  0  0  0
  9  7  2  0  0  0  0
 10  9  1  6  0  0  0
 10  5  1  0  0  0  0
 11 38  1  0  0  0  0
 11  8  1  0  0  0  0
 13 12  1  0  0  0  0
 14 13  1  0  0  0  0
 16 18  1  0  0  0  0
 16 17  1  0  0  0  0
 16 15  1  1  0  0  0
 17 19  1  6  0  0  0
 18 17  1  0  0  0  0
 19 27  1  1  0  0  0
 20 25  1  0  0  0  0
 21 22  2  0  0  0  0
 22 23  1  0  0  0  0
 24 20  2  0  0  0  0
 24 21  1  0  0  0  0
 25 19  1  0  0  0  0
 25 23  2  0  0  0  0
 27 26  1  1  0  0  0
 29 27  1  0  0  0  0
 29 28  1  0  0  0  0
 30  9  1  0  0  0  0
 31 32  2  0  0  0  0
 32 33  1  0  0  0  0
 32 30  1  0  0  0  0
 34 33  1  0  0  0  0
 34 35  1  0  0  0  0
 35 36  2  0  0  0  0
 37 35  1  0  0  0  0
 39 38  1  0  0  0  0
 39 40  1  0  0  0  0
 41 40  1  0  0  0  0
 41 56  1  0  0  0  0
 43 51  1  6  0  0  0
 43 49  1  0  0  0  0
 44 43  1  0  0  0  0
 44 42  1  0  0  0  0
 44 41  1  1  0  0  0
 46 48  1  0  0  0  0
 48 47  2  0  0  0  0
 49 45  2  0  0  0  0
 49 50  1  0  0  0  0
 50 48  1  0  0  0  0
 50 42  1  0  0  0  0
 52 45  1  0  0  0  0
 53 54  1  0  0  0  0
 53 52  1  0  0  0  0
 56 55  1  0  0  0  0
M  END
>  <MODEL>
9

>  <REMARK>
 VINA RESULT:      -5.4      4.005      7.677
  Name = 
  21 active torsions:
  status: ('A' for Active; 'I' for Inactive)
    1  A    between atoms: C_1  and  C_14
    2  A    between atoms: C_1  and  C_35
    3  A    between atoms: C_3  and  O_43
    4  A    between atoms: C_4  and  C_36
    5  A    between atoms: C_5  and  O_43
    6  A    between atoms: O_7  and  C_25
    7  A    between atoms: O_7  and  C_47
    8  A    between atoms: C_11  and  C_30
    9  A    between atoms: C_11  and  C_34
   10  A    between atoms: C_11  and  C_55
   11  A    between atoms: C_12  and  N_42
   12  A    between atoms: C_14  and  N_51
   13  A    between atoms: C_17  and  C_36
   14  A    between atoms: C_18  and  C_21
   15  A    between atoms: C_21  and  O_22
   16  A    between atoms: O_22  and  C_25
   17  A    between atoms: C_23  and  C_53
   18  A    between atoms: C_27  and  N_42
   19  A    between atoms: C_34  and  C_44
   20  A    between atoms: C_35  and  N_42
   21  A    between atoms: C_37  and  C_53
                            x       y       z     vdW  Elec       q    Type
                         _______ _______ _______ _____ _____    ______ ____

>  <TORSDO>
F 21

$$$$
