=
 OpenBabel10232408153D

 57 61  0  0  1  0  0  0  0  0999 V2000
  189.7900  177.6610  142.4500 C   0  0  0  0  0  3  0  0  0  0  0  0
  190.5280  177.7760  141.3390 C   0  0  0  0  0  3  0  0  0  0  0  0
  190.7230  176.6610  140.3580 C   0  0  0  0  0  2  0  0  0  0  0  0
  189.9080  176.8630  139.0880 C   0  0  1  0  0  3  0  0  0  0  0  0
  189.7070  178.2300  138.8870 O   0  0  0  0  0  1  0  0  0  0  0  0
  189.0960  174.5110  137.5610 F   0  0  0  0  0  0  0  0  0  0  0  0
  191.1250  175.0830  135.3380 C   0  0  0  0  0  3  0  0  0  0  0  0
  191.2580  174.2270  136.5750 C   0  0  2  0  0  3  0  0  0  0  0  0
  190.7000  176.3490  135.3980 C   0  0  0  0  0  3  0  0  0  0  0  0
  190.6790  176.2730  137.9120 C   0  0  2  0  0  3  0  0  0  0  0  0
  190.3540  176.9470  136.6570 N   0  0  0  0  0  2  0  0  0  0  0  0
  190.4410  174.7660  137.7670 C   0  0  1  0  0  3  0  0  0  0  0  0
  192.7280  173.8430  136.8530 C   0  0  2  0  0  3  0  0  0  0  0  0
  193.7040  174.3760  135.8130 C   0  0  2  0  0  3  0  0  0  0  0  0
  193.2820  172.8990  135.7940 C   0  0  1  0  0  3  0  0  0  0  0  0
  194.9450  172.2730  138.0570 O   0  0  0  0  0  1  0  0  0  0  0  0
  194.4610  171.7070  136.5390 P   0  0  1  0  0  0  0  0  0  0  0  0
  193.8340  170.3370  136.6860 O   0  0  0  0  0  0  0  0  0  0  0  0
  195.9160  171.5840  135.4590 C   0  0  0  0  0  2  0  0  0  0  0  0
  198.3590  171.4400  135.4360 C   0  0  0  0  0  2  0  0  0  0  0  0
  197.1690  171.4710  136.3030 C   0  0  2  0  0  3  0  0  0  0  0  0
  197.8230  170.2690  135.9910 O   0  0  0  0  0  0  0  0  0  0  0  0
  195.0460  174.6860  136.4640 C   0  0  0  0  0  2  0  0  0  0  0  0
  195.8570  175.6360  135.5910 C   0  0  2  0  0  3  0  0  0  0  0  0
  195.1250  176.0140  134.4580 O   0  0  0  0  0  0  0  0  0  0  0  0
  195.3240  177.3930  134.3460 C   0  0  0  0  0  1  0  0  0  0  0  0
  197.1850  174.9960  135.1810 C   0  0  0  0  0  2  0  0  0  0  0  0
  198.2600  175.2020  136.1960 C   0  0  0  0  0  0  0  0  0  0  0  0
  199.4610  174.9870  135.8960 O   0  0  0  0  0  0  0  0  0  0  0  0
  197.9280  175.5900  137.4850 O   0  0  0  0  0  1  0  0  0  0  0  0
  188.8650  176.1750  142.8730 S   0  0  0  0  0  0  0  0  0  0  0  0
  188.0490  176.8560  144.3690 C   0  0  2  0  0  3  0  0  0  0  0  0
  184.7960  179.6630  143.6630 C   0  0  0  0  0  2  0  0  0  0  0  0
  185.8530  178.0010  145.2230 C   0  0  0  0  0  2  0  0  0  0  0  0
  184.5370  178.6040  144.7320 C   0  0  0  0  0  2  0  0  0  0  0  0
  185.4920  179.0220  142.4580 C   0  0  1  0  0  3  0  0  0  0  0  0
  186.8480  177.7200  144.1160 C   0  0  0  0  0  0  0  0  0  0  0  0
  186.7080  178.2450  142.8870 C   0  0  0  0  0  3  0  0  0  0  0  0
  184.5520  178.0770  141.7200 C   0  0  0  0  0  2  0  0  0  0  0  0
  184.4180  178.4570  140.2500 C   0  0  0  0  0  2  0  0  0  0  0  0
  182.6380  176.7530  140.4170 C   0  0  0  0  0  1  0  0  0  0  0  0
  183.0870  177.9730  139.6140 C   0  0  2  0  0  0  0  0  0  0  0  0
  181.9030  175.8900  137.0440 C   0  0  0  0  0  2  0  0  0  0  0  0
  182.2590  178.2020  137.3090 O   0  0  0  0  0  0  0  0  0  0  0  0
  181.7560  177.2440  136.4150 C   0  0  0  0  0  2  0  0  0  0  0  0
  183.2500  177.5670  138.0950 C   0  0  2  0  0  0  0  0  0  0  0  0
  183.1030  176.0600  137.9130 C   0  0  0  0  0  2  0  0  0  0  0  0
  184.6480  177.9300  137.5570 C   0  0  0  0  0  2  0  0  0  0  0  0
  185.3060  177.2090  135.2840 C   0  0  0  0  0  1  0  0  0  0  0  0
  186.7520  176.6490  137.2020 C   0  0  0  0  0  1  0  0  0  0  0  0
  185.3180  176.8270  136.7470 C   0  0  0  0  0  3  0  0  0  0  0  0
  182.0600  178.9380  139.7960 O   0  0  0  0  0  0  0  0  0  0  0  0
  180.3700  179.7200  141.2830 C   0  0  0  0  0  1  0  0  0  0  0  0
  181.1340  178.5190  140.7660 C   0  0  0  0  0  2  0  0  0  0  0  0
  189.7130  178.4350  145.0780 O   0  0  0  0  0  0  0  0  0  0  0  0
  189.1490  176.8340  146.6060 O   0  0  0  0  0  1  0  0  0  0  0  0
  189.0100  177.4330  145.3640 C   0  0  0  0  0  0  0  0  0  0  0  0
  1 31  1  0  0  0  0
  2  1  2  0  0  0  0
  3  2  1  0  0  0  0
  4  5  1  6  0  0  0
  4  3  1  0  0  0  0
  7  9  2  0  0  0  0
  8  7  1  6  0  0  0
  8 12  1  0  0  0  0
  9 11  1  0  0  0  0
 10  4  1  1  0  0  0
 11 10  1  0  0  0  0
 12  6  1  6  0  0  0
 12 10  1  0  0  0  0
 13  8  1  6  0  0  0
 14 23  1  1  0  0  0
 14 13  1  0  0  0  0
 15 14  1  0  0  0  0
 15 17  1  1  0  0  0
 15 13  1  0  0  0  0
 17 18  2  1  0  0  0
 17 16  1  0  0  0  0
 19 17  1  0  0  0  0
 20 22  1  0  0  0  0
 20 21  1  0  0  0  0
 21 19  1  6  0  0  0
 22 21  1  0  0  0  0
 24 27  1  6  0  0  0
 24 23  1  0  0  0  0
 25 24  1  0  0  0  0
 26 25  1  0  0  0  0
 27 28  1  0  0  0  0
 28 30  1  0  0  0  0
 29 28  2  0  0  0  0
 32 31  1  6  0  0  0
 32 57  1  0  0  0  0
 33 35  1  0  0  0  0
 35 34  1  0  0  0  0
 36 39  1  1  0  0  0
 36 38  1  0  0  0  0
 36 33  1  0  0  0  0
 37 32  1  0  0  0  0
 37 34  1  0  0  0  0
 38 37  2  0  0  0  0
 40 39  1  0  0  0  0
 42 52  1  0  0  0  0
 42 40  1  0  0  0  0
 42 41  1  1  0  0  0
 43 47  1  0  0  0  0
 44 46  1  0  0  0  0
 45 43  1  0  0  0  0
 45 44  1  0  0  0  0
 46 48  1  6  0  0  0
 46 42  1  0  0  0  0
 47 46  1  0  0  0  0
 49 51  1  0  0  0  0
 51 50  1  0  0  0  0
 51 48  1  0  0  0  0
 52 54  1  0  0  0  0
 54 53  1  0  0  0  0
 55 57  2  0  0  0  0
 57 56  1  0  0  0  0
M  END
>  <MODEL>
1

>  <REMARK>
 VINA RESULT:      -6.0      0.000      0.000
  Name = 
  24 active torsions:
  status: ('A' for Active; 'I' for Inactive)
    1  A    between atoms: C_1  and  C_29
    2  A    between atoms: C_5  and  C_18
    3  A    between atoms: C_5  and  C_34
    4  A    between atoms: C_7  and  C_15
    5  A    between atoms: C_7  and  C_27
    6  A    between atoms: S_11  and  C_13
    7  A    between atoms: S_11  and  C_52
    8  A    between atoms: C_15  and  C_55
    9  A    between atoms: C_16  and  O_38
   10  A    between atoms: P_17  and  C_44
   11  A    between atoms: P_17  and  C_57
   12  A    between atoms: C_18  and  C_41
   13  A    between atoms: O_19  and  C_30
   14  A    between atoms: C_23  and  C_25
   15  A    between atoms: C_28  and  C_39
   16  A    between atoms: C_29  and  C_30
   17  A    between atoms: C_30  and  C_39
   18  A    between atoms: C_31  and  C_52
   19  A    between atoms: C_37  and  C_42
   20  A    between atoms: O_38  and  C_55
   21  A    between atoms: C_42  and  C_54
   22  A    between atoms: C_46  and  C_57
   23  A    between atoms: C_48  and  C_52
   24  A    between atoms: C_54  and  C_55
                            x       y       z     vdW  Elec       q    Type
                         _______ _______ _______ _____ _____    ______ ____

>  <TORSDO>
F 24

$$$$
=
 OpenBabel10232408153D

 57 61  0  0  1  0  0  0  0  0999 V2000
  188.0450  177.6190  141.0230 C   0  0  0  0  0  3  0  0  0  0  0  0
  188.9520  177.0340  140.2310 C   0  0  0  0  0  3  0  0  0  0  0  0
  189.7600  177.7770  139.2120 C   0  0  0  0  0  2  0  0  0  0  0  0
  190.3220  176.8540  138.1400 C   0  0  1  0  0  3  0  0  0  0  0  0
  190.7290  175.6580  138.7350 O   0  0  0  0  0  1  0  0  0  0  0  0
  188.8120  178.9020  136.7070 F   0  0  0  0  0  0  0  0  0  0  0  0
  187.6990  176.8710  134.7000 C   0  0  0  0  0  3  0  0  0  0  0  0
  187.1180  177.3630  136.0040 C   0  0  2  0  0  3  0  0  0  0  0  0
  188.9480  176.4030  134.6170 C   0  0  0  0  0  3  0  0  0  0  0  0
  189.2320  176.5790  137.1090 C   0  0  2  0  0  3  0  0  0  0  0  0
  189.7900  176.3490  135.7780 N   0  0  0  0  0  2  0  0  0  0  0  0
  188.1990  177.7090  137.0500 C   0  0  1  0  0  3  0  0  0  0  0  0
  185.9430  176.4810  136.4810 C   0  0  2  0  0  3  0  0  0  0  0  0
  185.4400  175.5130  135.4180 C   0  0  2  0  0  3  0  0  0  0  0  0
  184.6540  176.7950  135.7330 C   0  0  1  0  0  3  0  0  0  0  0  0
  182.0350  175.6530  136.0700 O   0  0  0  0  0  0  0  0  0  0  0  0
  183.2010  176.6070  136.8370 P   0  0  1  0  0  0  0  0  0  0  0  0
  183.5930  175.9680  138.1530 O   0  0  0  0  0  1  0  0  0  0  0  0
  182.5050  178.2530  137.1590 C   0  0  0  0  0  2  0  0  0  0  0  0
  180.5230  179.2300  138.2110 C   0  0  0  0  0  2  0  0  0  0  0  0
  181.5500  178.1820  138.3330 C   0  0  2  0  0  3  0  0  0  0  0  0
  181.6290  179.3790  139.0600 O   0  0  0  0  0  0  0  0  0  0  0  0
  184.9350  174.2330  136.0730 C   0  0  0  0  0  2  0  0  0  0  0  0
  185.4100  173.0110  135.2960 C   0  0  2  0  0  3  0  0  0  0  0  0
  185.3480  171.8620  136.0950 O   0  0  0  0  0  0  0  0  0  0  0  0
  184.2700  172.0850  136.9570 C   0  0  0  0  0  1  0  0  0  0  0  0
  186.8320  173.2210  134.7710 C   0  0  0  0  0  2  0  0  0  0  0  0
  187.8750  172.7820  135.7450 C   0  0  0  0  0  0  0  0  0  0  0  0
  188.0090  173.3830  136.8400 O   0  0  0  0  0  1  0  0  0  0  0  0
  188.7260  171.7360  135.4210 O   0  0  0  0  0  0  0  0  0  0  0  0
  187.7330  179.3930  141.0270 S   0  0  0  0  0  0  0  0  0  0  0  0
  185.9510  179.2900  141.4520 C   0  0  2  0  0  3  0  0  0  0  0  0
  184.8400  177.8300  145.4010 C   0  0  0  0  0  2  0  0  0  0  0  0
  184.6390  179.6590  143.6900 C   0  0  0  0  0  2  0  0  0  0  0  0
  184.6850  179.3340  145.1830 C   0  0  0  0  0  2  0  0  0  0  0  0
  186.1560  177.3510  144.7800 C   0  0  1  0  0  3  0  0  0  0  0  0
  185.6430  178.8820  142.8630 C   0  0  0  0  0  0  0  0  0  0  0  0
  186.2720  177.7980  143.3470 C   0  0  0  0  0  3  0  0  0  0  0  0
  187.3550  177.8900  145.5500 C   0  0  0  0  0  2  0  0  0  0  0  0
  188.5000  176.8840  145.5780 C   0  0  0  0  0  2  0  0  0  0  0  0
  189.6750  178.8880  146.4170 C   0  0  0  0  0  1  0  0  0  0  0  0
  189.7110  177.3600  146.4240 C   0  0  2  0  0  0  0  0  0  0  0  0
  192.4840  175.2690  146.9540 C   0  0  0  0  0  2  0  0  0  0  0  0
  190.9400  175.6100  145.2090 O   0  0  0  0  0  0  0  0  0  0  0  0
  192.0240  174.8100  145.6010 C   0  0  0  0  0  2  0  0  0  0  0  0
  191.0940  176.8680  145.8400 C   0  0  2  0  0  0  0  0  0  0  0  0
  192.1340  176.7170  146.9460 C   0  0  0  0  0  2  0  0  0  0  0  0
  191.6800  177.8810  144.8360 C   0  0  0  0  0  2  0  0  0  0  0  0
  190.5900  179.2770  143.1100 C   0  0  0  0  0  1  0  0  0  0  0  0
  191.9860  177.3640  142.4210 C   0  0  0  0  0  1  0  0  0  0  0  0
  191.0130  177.8700  143.4660 C   0  0  0  0  0  3  0  0  0  0  0  0
  189.5520  176.9910  147.7870 O   0  0  0  0  0  0  0  0  0  0  0  0
  187.7800  177.8050  149.1570 C   0  0  0  0  0  1  0  0  0  0  0  0
  189.1470  178.0860  148.5680 C   0  0  0  0  0  2  0  0  0  0  0  0
  185.4240  178.6410  139.2010 O   0  0  0  0  0  0  0  0  0  0  0  0
  184.0150  177.8520  140.8180 O   0  0  0  0  0  1  0  0  0  0  0  0
  185.1300  178.5740  140.4220 C   0  0  0  0  0  0  0  0  0  0  0  0
  1 31  1  0  0  0  0
  2  1  2  0  0  0  0
  3  2  1  0  0  0  0
  4  5  1  1  0  0  0
  4  3  1  0  0  0  0
  8  7  1  6  0  0  0
  8 12  1  0  0  0  0
  9  7  2  0  0  0  0
  9 11  1  0  0  0  0
 10  4  1  1  0  0  0
 11 10  1  0  0  0  0
 12  6  1  6  0  0  0
 12 10  1  0  0  0  0
 13  8  1  6  0  0  0
 14 15  1  0  0  0  0
 14 23  1  1  0  0  0
 14 13  1  0  0  0  0
 15 13  1  0  0  0  0
 15 17  1  1  0  0  0
 17 16  2  6  0  0  0
 17 19  1  0  0  0  0
 17 18  1  0  0  0  0
 20 21  1  0  0  0  0
 20 22  1  0  0  0  0
 21 19  1  6  0  0  0
 21 22  1  0  0  0  0
 24 27  1  1  0  0  0
 24 23  1  0  0  0  0
 24 25  1  0  0  0  0
 25 26  1  0  0  0  0
 27 28  1  0  0  0  0
 28 29  1  0  0  0  0
 30 28  2  0  0  0  0
 31 32  1  0  0  0  0
 32 57  1  6  0  0  0
 32 37  1  0  0  0  0
 34 35  1  0  0  0  0
 35 33  1  0  0  0  0
 36 33  1  0  0  0  0
 36 39  1  1  0  0  0
 37 38  2  0  0  0  0
 37 34  1  0  0  0  0
 38 36  1  0  0  0  0
 39 40  1  0  0  0  0
 40 42  1  0  0  0  0
 42 41  1  6  0  0  0
 42 52  1  0  0  0  0
 44 45  1  0  0  0  0
 44 46  1  0  0  0  0
 45 43  1  0  0  0  0
 46 48  1  6  0  0  0
 46 42  1  0  0  0  0
 46 47  1  0  0  0  0
 47 43  1  0  0  0  0
 49 51  1  0  0  0  0
 50 51  1  0  0  0  0
 51 48  1  0  0  0  0
 52 54  1  0  0  0  0
 54 53  1  0  0  0  0
 55 57  2  0  0  0  0
 57 56  1  0  0  0  0
M  END
>  <MODEL>
2

>  <REMARK>
 VINA RESULT:      -5.3      4.549      9.374
  Name = 
  24 active torsions:
  status: ('A' for Active; 'I' for Inactive)
    1  A    between atoms: C_1  and  C_29
    2  A    between atoms: C_5  and  C_18
    3  A    between atoms: C_5  and  C_34
    4  A    between atoms: C_7  and  C_15
    5  A    between atoms: C_7  and  C_27
    6  A    between atoms: S_11  and  C_13
    7  A    between atoms: S_11  and  C_52
    8  A    between atoms: C_15  and  C_55
    9  A    between atoms: C_16  and  O_38
   10  A    between atoms: P_17  and  C_44
   11  A    between atoms: P_17  and  C_57
   12  A    between atoms: C_18  and  C_41
   13  A    between atoms: O_19  and  C_30
   14  A    between atoms: C_23  and  C_25
   15  A    between atoms: C_28  and  C_39
   16  A    between atoms: C_29  and  C_30
   17  A    between atoms: C_30  and  C_39
   18  A    between atoms: C_31  and  C_52
   19  A    between atoms: C_37  and  C_42
   20  A    between atoms: O_38  and  C_55
   21  A    between atoms: C_42  and  C_54
   22  A    between atoms: C_46  and  C_57
   23  A    between atoms: C_48  and  C_52
   24  A    between atoms: C_54  and  C_55
                            x       y       z     vdW  Elec       q    Type
                         _______ _______ _______ _____ _____    ______ ____

>  <TORSDO>
F 24

$$$$
=
 OpenBabel10232408153D

 57 61  0  0  1  0  0  0  0  0999 V2000
  189.4410  173.5450  136.3600 C   0  0  0  0  0  3  0  0  0  0  0  0
  189.5170  174.6520  137.1100 C   0  0  0  0  0  3  0  0  0  0  0  0
  189.2030  176.0220  136.5920 C   0  0  0  0  0  2  0  0  0  0  0  0
  189.7390  177.1170  137.5040 C   0  0  1  0  0  3  0  0  0  0  0  0
  189.8280  178.3090  136.7820 O   0  0  0  0  0  1  0  0  0  0  0  0
  189.2030  179.6390  138.8750 F   0  0  0  0  0  0  0  0  0  0  0  0
  186.7550  178.4920  140.3180 C   0  0  0  0  0  2  0  0  0  0  0  0
  188.1970  178.5630  140.7620 C   0  0  2  0  0  3  0  0  0  0  0  0
  186.4070  177.9830  139.1330 C   0  0  0  0  0  3  0  0  0  0  0  0
  188.7810  177.2900  138.6780 C   0  0  2  0  0  3  0  0  0  0  0  0
  187.4020  177.4760  138.2310 N   0  0  0  0  0  0  0  0  0  0  0  0
  189.1920  178.4520  139.5890 C   0  0  1  0  0  3  0  0  0  0  0  0
  188.4650  177.6680  141.9920 C   0  0  2  0  0  3  0  0  0  0  0  0
  188.1250  178.3360  143.3170 C   0  0  2  0  0  3  0  0  0  0  0  0
  189.5880  178.2150  142.8630 C   0  0  1  0  0  3  0  0  0  0  0  0
  189.9940  175.3710  143.0080 O   0  0  0  0  0  0  0  0  0  0  0  0
  190.5590  176.8480  143.6050 P   0  0  1  0  0  0  0  0  0  0  0  0
  192.0340  176.9900  143.2900 O   0  0  0  0  0  1  0  0  0  0  0  0
  190.3290  176.8880  145.4070 C   0  0  0  0  0  2  0  0  0  0  0  0
  191.4640  176.2410  147.4750 C   0  0  0  0  0  2  0  0  0  0  0  0
  191.2560  175.8860  146.0620 C   0  0  2  0  0  3  0  0  0  0  0  0
  192.4160  176.5480  146.4920 O   0  0  0  0  0  0  0  0  0  0  0  0
  187.6420  177.2950  144.3190 C   0  0  0  0  0  2  0  0  0  0  0  0
  186.7280  177.9370  145.3580 C   0  0  2  0  0  3  0  0  0  0  0  0
  187.0660  177.5060  146.6470 O   0  0  0  0  0  0  0  0  0  0  0  0
  186.5760  178.5020  147.4970 C   0  0  0  0  0  1  0  0  0  0  0  0
  185.2610  177.6270  145.0560 C   0  0  0  0  0  2  0  0  0  0  0  0
  184.4730  178.8480  144.7170 C   0  0  0  0  0  0  0  0  0  0  0  0
  183.6310  179.3020  145.5310 O   0  0  0  0  0  1  0  0  0  0  0  0
  184.6400  179.4580  143.4820 O   0  0  0  0  0  0  0  0  0  0  0  0
  188.8730  173.5450  134.6510 S   0  0  0  0  0  0  0  0  0  0  0  0
  187.1260  173.1170  135.0130 C   0  0  2  0  0  3  0  0  0  0  0  0
  184.2710  176.3800  134.6110 C   0  0  0  0  0  2  0  0  0  0  0  0
  186.6640  175.6950  134.9500 C   0  0  0  0  0  2  0  0  0  0  0  0
  185.5970  176.7380  135.2790 C   0  0  0  0  0  2  0  0  0  0  0  0
  183.7780  175.0280  135.1350 C   0  0  1  0  0  3  0  0  0  0  0  0
  186.1610  174.2670  135.0010 C   0  0  0  0  0  0  0  0  0  0  0  0
  184.8490  173.9780  135.0160 C   0  0  0  0  0  3  0  0  0  0  0  0
  183.3590  175.1250  136.5970 C   0  0  0  0  0  2  0  0  0  0  0  0
  183.1710  176.5740  137.0300 C   0  0  0  0  0  2  0  0  0  0  0  0
  180.7300  176.6330  136.6640 C   0  0  0  0  0  1  0  0  0  0  0  0
  181.8090  176.8310  137.7280 C   0  0  2  0  0  0  0  0  0  0  0  0
  182.3630  178.8460  140.5520 C   0  0  0  0  0  2  0  0  0  0  0  0
  182.9530  178.9400  138.2750 O   0  0  0  0  0  0  0  0  0  0  0  0
  183.1330  179.5930  139.5040 C   0  0  0  0  0  2  0  0  0  0  0  0
  181.6950  178.2920  138.3210 C   0  0  2  0  0  0  0  0  0  0  0  0
  181.2350  178.2570  139.7760 C   0  0  0  0  0  2  0  0  0  0  0  0
  180.6520  179.1340  137.5610 C   0  0  0  0  0  2  0  0  0  0  0  0
  180.7020  180.6960  135.6440 C   0  0  0  0  0  1  0  0  0  0  0  0
  180.6270  181.5940  137.9400 C   0  0  0  0  0  1  0  0  0  0  0  0
  181.1670  180.4810  137.0670 C   0  0  0  0  0  3  0  0  0  0  0  0
  181.5500  175.8400  138.7120 O   0  0  0  0  0  0  0  0  0  0  0  0
  179.9890  174.1450  139.3220 C   0  0  0  0  0  1  0  0  0  0  0  0
  180.7540  174.8040  138.1930 C   0  0  0  0  0  2  0  0  0  0  0  0
  187.1820  170.9690  136.0850 O   0  0  0  0  0  0  0  0  0  0  0  0
  186.5400  172.7220  137.4030 O   0  0  0  0  0  1  0  0  0  0  0  0
  186.9640  172.2040  136.1900 C   0  0  0  0  0  0  0  0  0  0  0  0
  1  2  2  0  0  0  0
  3  2  1  0  0  0  0
  3  4  1  0  0  0  0
  4  5  1  6  0  0  0
  8  7  1  6  0  0  0
  9  7  1  0  0  0  0
 10  4  1  6  0  0  0
 10 12  1  0  0  0  0
 11 10  1  0  0  0  0
 11  9  2  0  0  0  0
 12  6  1  6  0  0  0
 12  8  1  0  0  0  0
 13  8  1  6  0  0  0
 13 15  1  0  0  0  0
 13 14  1  0  0  0  0
 14 23  1  1  0  0  0
 15 14  1  0  0  0  0
 15 17  1  1  0  0  0
 17 16  2  6  0  0  0
 17 19  1  0  0  0  0
 18 17  1  0  0  0  0
 21 19  1  6  0  0  0
 21 22  1  0  0  0  0
 21 20  1  0  0  0  0
 22 20  1  0  0  0  0
 24 23  1  6  0  0  0
 24 25  1  0  0  0  0
 25 26  1  0  0  0  0
 27 24  1  0  0  0  0
 28 27  1  0  0  0  0
 28 29  1  0  0  0  0
 30 28  2  0  0  0  0
 31  1  1  0  0  0  0
 32 31  1  1  0  0  0
 32 57  1  0  0  0  0
 33 36  1  0  0  0  0
 33 35  1  0  0  0  0
 34 37  1  0  0  0  0
 34 35  1  0  0  0  0
 36 39  1  1  0  0  0
 37 32  1  0  0  0  0
 37 38  2  0  0  0  0
 38 36  1  0  0  0  0
 39 40  1  0  0  0  0
 40 42  1  0  0  0  0
 42 41  1  6  0  0  0
 42 46  1  0  0  0  0
 42 52  1  0  0  0  0
 44 46  1  0  0  0  0
 44 45  1  0  0  0  0
 45 43  1  0  0  0  0
 46 48  1  6  0  0  0
 46 47  1  0  0  0  0
 47 43  1  0  0  0  0
 49 51  1  0  0  0  0
 51 48  1  0  0  0  0
 51 50  1  0  0  0  0
 54 52  1  0  0  0  0
 54 53  1  0  0  0  0
 55 57  2  0  0  0  0
 57 56  1  0  0  0  0
M  END
>  <MODEL>
3

>  <REMARK>
 VINA RESULT:      -5.2      4.666      9.201
  Name = 
  24 active torsions:
  status: ('A' for Active; 'I' for Inactive)
    1  A    between atoms: C_1  and  C_29
    2  A    between atoms: C_5  and  C_18
    3  A    between atoms: C_5  and  C_34
    4  A    between atoms: C_7  and  C_15
    5  A    between atoms: C_7  and  C_27
    6  A    between atoms: S_11  and  C_13
    7  A    between atoms: S_11  and  C_52
    8  A    between atoms: C_15  and  C_55
    9  A    between atoms: C_16  and  O_38
   10  A    between atoms: P_17  and  C_44
   11  A    between atoms: P_17  and  C_57
   12  A    between atoms: C_18  and  C_41
   13  A    between atoms: O_19  and  C_30
   14  A    between atoms: C_23  and  C_25
   15  A    between atoms: C_28  and  C_39
   16  A    between atoms: C_29  and  C_30
   17  A    between atoms: C_30  and  C_39
   18  A    between atoms: C_31  and  C_52
   19  A    between atoms: C_37  and  C_42
   20  A    between atoms: O_38  and  C_55
   21  A    between atoms: C_42  and  C_54
   22  A    between atoms: C_46  and  C_57
   23  A    between atoms: C_48  and  C_52
   24  A    between atoms: C_54  and  C_55
                            x       y       z     vdW  Elec       q    Type
                         _______ _______ _______ _____ _____    ______ ____

>  <TORSDO>
F 24

$$$$
=
 OpenBabel10232408153D

 57 61  0  0  1  0  0  0  0  0999 V2000
  189.9290  177.7670  141.8380 C   0  0  0  0  0  3  0  0  0  0  0  0
  190.6310  177.8760  140.7030 C   0  0  0  0  0  3  0  0  0  0  0  0
  190.9210  176.7180  139.7980 C   0  0  0  0  0  2  0  0  0  0  0  0
  189.9520  176.6460  138.6270 C   0  0  1  0  0  3  0  0  0  0  0  0
  189.5990  177.9410  138.2460 O   0  0  0  0  0  1  0  0  0  0  0  0
  188.6820  174.6710  136.8900 F   0  0  0  0  0  0  0  0  0  0  0  0
  190.9680  174.7930  134.8520 C   0  0  0  0  0  3  0  0  0  0  0  0
  190.7700  173.8730  136.0340 C   0  0  2  0  0  3  0  0  0  0  0  0
  190.8840  176.1210  134.9720 C   0  0  0  0  0  3  0  0  0  0  0  0
  190.6360  175.9300  137.4670 C   0  0  2  0  0  3  0  0  0  0  0  0
  190.6030  176.7270  136.2430 N   0  0  0  0  0  2  0  0  0  0  0  0
  190.0260  174.5490  137.2030 C   0  0  1  0  0  3  0  0  0  0  0  0
  192.0610  173.0990  136.3820 C   0  0  2  0  0  3  0  0  0  0  0  0
  193.3270  173.7570  135.8510 C   0  0  2  0  0  3  0  0  0  0  0  0
  192.7370  172.5290  135.1420 C   0  0  1  0  0  3  0  0  0  0  0  0
  193.9870  170.8830  137.1450 O   0  0  0  0  0  1  0  0  0  0  0  0
  193.5270  170.9160  135.5180 P   0  0  1  0  0  0  0  0  0  0  0  0
  192.5830  169.7650  135.2350 O   0  0  0  0  0  0  0  0  0  0  0  0
  195.0060  170.7420  134.4780 C   0  0  0  0  0  2  0  0  0  0  0  0
  197.4050  170.6140  134.9440 C   0  0  0  0  0  2  0  0  0  0  0  0
  196.0910  170.0240  135.2520 C   0  0  2  0  0  3  0  0  0  0  0  0
  196.9770  169.4200  134.3460 O   0  0  0  0  0  0  0  0  0  0  0  0
  194.4900  173.4950  136.8000 C   0  0  0  0  0  2  0  0  0  0  0  0
  195.1690  174.8040  137.1880 C   0  0  2  0  0  3  0  0  0  0  0  0
  195.0560  175.7440  136.1560 O   0  0  0  0  0  0  0  0  0  0  0  0
  195.7790  175.1960  135.0920 C   0  0  0  0  0  1  0  0  0  0  0  0
  196.6390  174.5690  137.5400 C   0  0  0  0  0  2  0  0  0  0  0  0
  196.9100  174.7100  139.0010 C   0  0  0  0  0  0  0  0  0  0  0  0
  196.0150  174.4350  139.8380 O   0  0  0  0  0  1  0  0  0  0  0  0
  198.1390  175.1870  139.4330 O   0  0  0  0  0  0  0  0  0  0  0  0
  189.1690  176.2300  142.3880 S   0  0  0  0  0  0  0  0  0  0  0  0
  188.2960  176.9370  143.8390 C   0  0  2  0  0  3  0  0  0  0  0  0
  184.9810  179.6310  142.9920 C   0  0  0  0  0  2  0  0  0  0  0  0
  185.9910  177.9510  144.5640 C   0  0  0  0  0  2  0  0  0  0  0  0
  184.6900  178.5170  143.9960 C   0  0  0  0  0  2  0  0  0  0  0  0
  185.7960  179.0700  141.8210 C   0  0  1  0  0  3  0  0  0  0  0  0
  187.0800  177.7590  143.5270 C   0  0  0  0  0  0  0  0  0  0  0  0
  187.0090  178.3290  142.3120 C   0  0  0  0  0  3  0  0  0  0  0  0
  184.9590  178.1180  140.9760 C   0  0  0  0  0  2  0  0  0  0  0  0
  185.1700  178.3590  139.4860 C   0  0  0  0  0  2  0  0  0  0  0  0
  183.3160  176.7290  139.5140 C   0  0  0  0  0  1  0  0  0  0  0  0
  184.1040  177.6640  138.5980 C   0  0  2  0  0  0  0  0  0  0  0  0
  186.0690  177.8120  135.6890 C   0  0  0  0  0  2  0  0  0  0  0  0
  186.1110  176.5700  137.6890 O   0  0  0  0  0  0  0  0  0  0  0  0
  186.8200  176.7960  136.4990 C   0  0  0  0  0  2  0  0  0  0  0  0
  184.7450  176.8240  137.4220 C   0  0  2  0  0  0  0  0  0  0  0  0
  184.6550  177.5790  136.0990 C   0  0  0  0  0  2  0  0  0  0  0  0
  184.0040  175.4900  137.2060 C   0  0  0  0  0  2  0  0  0  0  0  0
  184.8520  173.2760  137.9080 C   0  0  0  0  0  1  0  0  0  0  0  0
  184.4280  173.7110  135.5180 C   0  0  0  0  0  1  0  0  0  0  0  0
  184.9040  174.3230  136.8190 C   0  0  0  0  0  3  0  0  0  0  0  0
  183.1540  178.6050  138.1180 O   0  0  0  0  0  0  0  0  0  0  0  0
  180.8950  179.0230  137.4850 C   0  0  0  0  0  1  0  0  0  0  0  0
  181.8440  178.1080  138.2300 C   0  0  0  0  0  2  0  0  0  0  0  0
  189.6660  176.9130  145.8110 O   0  0  0  0  0  1  0  0  0  0  0  0
  189.5480  178.9100  144.7080 O   0  0  0  0  0  0  0  0  0  0  0  0
  189.2150  177.5720  144.8390 C   0  0  0  0  0  0  0  0  0  0  0  0
  1 31  1  0  0  0  0
  2  1  2  0  0  0  0
  3  2  1  0  0  0  0
  4  5  1  6  0  0  0
  4  3  1  0  0  0  0
  7  9  2  0  0  0  0
  8  7  1  6  0  0  0
  8 12  1  0  0  0  0
  9 11  1  0  0  0  0
 10  4  1  1  0  0  0
 11 10  1  0  0  0  0
 12  6  1  6  0  0  0
 12 10  1  0  0  0  0
 13  8  1  6  0  0  0
 14 13  1  0  0  0  0
 14 23  1  1  0  0  0
 15 17  1  1  0  0  0
 15 14  1  0  0  0  0
 15 13  1  0  0  0  0
 17 18  2  6  0  0  0
 17 16  1  0  0  0  0
 19 17  1  0  0  0  0
 20 21  1  0  0  0  0
 21 19  1  6  0  0  0
 22 20  1  0  0  0  0
 22 21  1  0  0  0  0
 24 23  1  6  0  0  0
 24 27  1  0  0  0  0
 25 24  1  0  0  0  0
 26 25  1  0  0  0  0
 27 28  1  0  0  0  0
 28 30  2  0  0  0  0
 28 29  1  0  0  0  0
 32 31  1  6  0  0  0
 32 57  1  0  0  0  0
 33 35  1  0  0  0  0
 35 34  1  0  0  0  0
 36 39  1  1  0  0  0
 36 38  1  0  0  0  0
 36 33  1  0  0  0  0
 37 32  1  0  0  0  0
 37 34  1  0  0  0  0
 38 37  2  0  0  0  0
 40 39  1  0  0  0  0
 42 40  1  0  0  0  0
 42 41  1  1  0  0  0
 43 47  1  0  0  0  0
 43 45  1  0  0  0  0
 45 44  1  0  0  0  0
 46 48  1  6  0  0  0
 46 44  1  0  0  0  0
 46 42  1  0  0  0  0
 47 46  1  0  0  0  0
 50 51  1  0  0  0  0
 51 48  1  0  0  0  0
 51 49  1  0  0  0  0
 52 54  1  0  0  0  0
 52 42  1  0  0  0  0
 53 54  1  0  0  0  0
 56 57  2  0  0  0  0
 57 55  1  0  0  0  0
M  END
>  <MODEL>
4

>  <REMARK>
 VINA RESULT:      -4.7      1.499      2.172
  Name = 
  24 active torsions:
  status: ('A' for Active; 'I' for Inactive)
    1  A    between atoms: C_1  and  C_29
    2  A    between atoms: C_5  and  C_18
    3  A    between atoms: C_5  and  C_34
    4  A    between atoms: C_7  and  C_15
    5  A    between atoms: C_7  and  C_27
    6  A    between atoms: S_11  and  C_13
    7  A    between atoms: S_11  and  C_52
    8  A    between atoms: C_15  and  C_55
    9  A    between atoms: C_16  and  O_38
   10  A    between atoms: P_17  and  C_44
   11  A    between atoms: P_17  and  C_57
   12  A    between atoms: C_18  and  C_41
   13  A    between atoms: O_19  and  C_30
   14  A    between atoms: C_23  and  C_25
   15  A    between atoms: C_28  and  C_39
   16  A    between atoms: C_29  and  C_30
   17  A    between atoms: C_30  and  C_39
   18  A    between atoms: C_31  and  C_52
   19  A    between atoms: C_37  and  C_42
   20  A    between atoms: O_38  and  C_55
   21  A    between atoms: C_42  and  C_54
   22  A    between atoms: C_46  and  C_57
   23  A    between atoms: C_48  and  C_52
   24  A    between atoms: C_54  and  C_55
                            x       y       z     vdW  Elec       q    Type
                         _______ _______ _______ _____ _____    ______ ____

>  <TORSDO>
F 24

$$$$
=
 OpenBabel10232408153D

 57 61  0  0  1  0  0  0  0  0999 V2000
  189.8960  177.7070  141.1120 C   0  0  0  0  0  3  0  0  0  0  0  0
  190.4110  177.6760  139.8770 C   0  0  0  0  0  3  0  0  0  0  0  0
  191.0100  176.4480  139.2630 C   0  0  0  0  0  2  0  0  0  0  0  0
  190.3590  176.0930  137.9340 C   0  0  1  0  0  3  0  0  0  0  0  0
  189.9110  177.2630  137.3170 O   0  0  0  0  0  1  0  0  0  0  0  0
  189.8530  173.7320  136.2910 F   0  0  0  0  0  0  0  0  0  0  0  0
  192.4780  174.0720  134.7490 C   0  0  0  0  0  3  0  0  0  0  0  0
  192.1810  173.2660  135.9910 C   0  0  2  0  0  3  0  0  0  0  0  0
  192.1500  175.3640  134.6520 C   0  0  0  0  0  3  0  0  0  0  0  0
  191.3920  175.4020  137.0500 C   0  0  2  0  0  3  0  0  0  0  0  0
  191.4980  176.0390  135.7390 N   0  0  0  0  0  2  0  0  0  0  0  0
  191.0940  173.9080  136.8780 C   0  0  1  0  0  3  0  0  0  0  0  0
  193.4730  172.8000  136.6980 C   0  0  2  0  0  3  0  0  0  0  0  0
  194.6920  173.6490  136.3590 C   0  0  2  0  0  3  0  0  0  0  0  0
  194.5040  172.2690  135.7100 C   0  0  1  0  0  3  0  0  0  0  0  0
  197.0440  170.9260  135.8630 O   0  0  0  0  0  0  0  0  0  0  0  0
  195.4580  170.8870  136.4490 P   0  0  1  0  0  0  0  0  0  0  0  0
  195.4740  170.9800  137.9610 O   0  0  0  0  0  1  0  0  0  0  0  0
  194.6800  169.3210  135.9570 C   0  0  0  0  0  2  0  0  0  0  0  0
  192.7270  168.6100  134.6660 C   0  0  0  0  0  2  0  0  0  0  0  0
  193.2050  169.5440  135.6990 C   0  0  2  0  0  3  0  0  0  0  0  0
  193.0280  169.9460  134.3670 O   0  0  0  0  0  0  0  0  0  0  0  0
  195.6350  173.7110  137.5530 C   0  0  0  0  0  2  0  0  0  0  0  0
  196.7260  174.7490  137.3200 C   0  0  2  0  0  3  0  0  0  0  0  0
  197.0070  174.8720  135.9530 O   0  0  0  0  0  0  0  0  0  0  0  0
  198.3850  174.6580  135.8500 C   0  0  0  0  0  1  0  0  0  0  0  0
  197.9940  174.3890  138.0960 C   0  0  0  0  0  2  0  0  0  0  0  0
  198.0400  175.0220  139.4480 C   0  0  0  0  0  0  0  0  0  0  0  0
  199.1430  175.2130  140.0180 O   0  0  0  0  0  0  0  0  0  0  0  0
  196.8600  175.3620  140.0920 O   0  0  0  0  0  1  0  0  0  0  0  0
  189.7790  176.2560  142.1720 S   0  0  0  0  0  0  0  0  0  0  0  0
  189.3120  177.1530  143.7020 C   0  0  2  0  0  3  0  0  0  0  0  0
  185.3520  178.9520  143.9180 C   0  0  0  0  0  2  0  0  0  0  0  0
  187.0460  177.4370  144.9880 C   0  0  0  0  0  2  0  0  0  0  0  0
  185.5570  177.6980  144.7650 C   0  0  0  0  0  2  0  0  0  0  0  0
  186.0010  178.7580  142.5440 C   0  0  1  0  0  3  0  0  0  0  0  0
  187.8980  177.6540  143.7540 C   0  0  0  0  0  0  0  0  0  0  0  0
  187.4320  178.3140  142.6800 C   0  0  0  0  0  3  0  0  0  0  0  0
  185.2500  177.7170  141.7230 C   0  0  0  0  0  2  0  0  0  0  0  0
  183.9150  178.2570  141.2220 C   0  0  0  0  0  2  0  0  0  0  0  0
  184.3150  179.6920  139.2530 C   0  0  0  0  0  1  0  0  0  0  0  0
  183.8200  178.3090  139.6740 C   0  0  2  0  0  0  0  0  0  0  0  0
  180.7230  179.8590  139.0840 C   0  0  0  0  0  2  0  0  0  0  0  0
  182.2290  178.5670  137.8160 O   0  0  0  0  0  0  0  0  0  0  0  0
  181.0290  179.2910  137.7290 C   0  0  0  0  0  2  0  0  0  0  0  0
  182.3450  178.0990  139.1470 C   0  0  2  0  0  0  0  0  0  0  0  0
  181.3430  178.8660  140.0060 C   0  0  0  0  0  2  0  0  0  0  0  0
  181.9220  176.6190  139.2130 C   0  0  0  0  0  2  0  0  0  0  0  0
  182.7220  174.7760  137.7700 C   0  0  0  0  0  1  0  0  0  0  0  0
  180.3490  175.4410  137.6870 C   0  0  0  0  0  1  0  0  0  0  0  0
  181.7670  175.9450  137.8550 C   0  0  0  0  0  3  0  0  0  0  0  0
  184.7280  177.3910  139.0810 O   0  0  0  0  0  0  0  0  0  0  0  0
  185.3870  176.7300  136.8880 C   0  0  0  0  0  1  0  0  0  0  0  0
  185.2210  177.8810  137.8590 C   0  0  0  0  0  2  0  0  0  0  0  0
  190.3280  179.3280  143.6580 O   0  0  0  0  0  0  0  0  0  0  0  0
  191.3010  177.8050  145.0560 O   0  0  0  0  0  1  0  0  0  0  0  0
  190.3280  178.1650  144.1370 C   0  0  0  0  0  0  0  0  0  0  0  0
  1 31  1  0  0  0  0
  2  1  2  0  0  0  0
  3  2  1  0  0  0  0
  4  5  1  6  0  0  0
  4  3  1  0  0  0  0
  8  7  1  6  0  0  0
  8 12  1  0  0  0  0
  9  7  2  0  0  0  0
  9 11  1  0  0  0  0
 10  4  1  1  0  0  0
 11 10  1  0  0  0  0
 12  6  1  6  0  0  0
 12 10  1  0  0  0  0
 13  8  1  6  0  0  0
 14 13  1  0  0  0  0
 14 23  1  1  0  0  0
 15 14  1  0  0  0  0
 15 17  1  1  0  0  0
 15 13  1  0  0  0  0
 17 16  2  6  0  0  0
 17 18  1  0  0  0  0
 19 17  1  0  0  0  0
 20 21  1  0  0  0  0
 21 19  1  6  0  0  0
 22 20  1  0  0  0  0
 22 21  1  0  0  0  0
 24 23  1  6  0  0  0
 24 27  1  0  0  0  0
 25 24  1  0  0  0  0
 26 25  1  0  0  0  0
 27 28  1  0  0  0  0
 28 29  2  0  0  0  0
 28 30  1  0  0  0  0
 32 31  1  6  0  0  0
 32 37  1  0  0  0  0
 32 57  1  0  0  0  0
 33 35  1  0  0  0  0
 35 34  1  0  0  0  0
 36 39  1  6  0  0  0
 36 38  1  0  0  0  0
 36 33  1  0  0  0  0
 37 34  1  0  0  0  0
 38 37  2  0  0  0  0
 40 39  1  0  0  0  0
 42 41  1  6  0  0  0
 42 40  1  0  0  0  0
 43 47  1  0  0  0  0
 44 46  1  0  0  0  0
 45 44  1  0  0  0  0
 45 43  1  0  0  0  0
 46 48  1  1  0  0  0
 46 42  1  0  0  0  0
 46 47  1  0  0  0  0
 49 51  1  0  0  0  0
 50 51  1  0  0  0  0
 51 48  1  0  0  0  0
 52 42  1  0  0  0  0
 53 54  1  0  0  0  0
 54 52  1  0  0  0  0
 55 57  2  0  0  0  0
 57 56  1  0  0  0  0
M  END
>  <MODEL>
5

>  <REMARK>
 VINA RESULT:      -4.7      1.708      2.922
  Name = 
  24 active torsions:
  status: ('A' for Active; 'I' for Inactive)
    1  A    between atoms: C_1  and  C_29
    2  A    between atoms: C_5  and  C_18
    3  A    between atoms: C_5  and  C_34
    4  A    between atoms: C_7  and  C_15
    5  A    between atoms: C_7  and  C_27
    6  A    between atoms: S_11  and  C_13
    7  A    between atoms: S_11  and  C_52
    8  A    between atoms: C_15  and  C_55
    9  A    between atoms: C_16  and  O_38
   10  A    between atoms: P_17  and  C_44
   11  A    between atoms: P_17  and  C_57
   12  A    between atoms: C_18  and  C_41
   13  A    between atoms: O_19  and  C_30
   14  A    between atoms: C_23  and  C_25
   15  A    between atoms: C_28  and  C_39
   16  A    between atoms: C_29  and  C_30
   17  A    between atoms: C_30  and  C_39
   18  A    between atoms: C_31  and  C_52
   19  A    between atoms: C_37  and  C_42
   20  A    between atoms: O_38  and  C_55
   21  A    between atoms: C_42  and  C_54
   22  A    between atoms: C_46  and  C_57
   23  A    between atoms: C_48  and  C_52
   24  A    between atoms: C_54  and  C_55
                            x       y       z     vdW  Elec       q    Type
                         _______ _______ _______ _____ _____    ______ ____

>  <TORSDO>
F 24

$$$$
=
 OpenBabel10232408153D

 57 61  0  0  1  0  0  0  0  0999 V2000
  182.4580  176.9820  139.9590 C   0  0  0  0  0  3  0  0  0  0  0  0
  183.4220  177.5330  140.7070 C   0  0  0  0  0  3  0  0  0  0  0  0
  183.3000  178.8810  141.3490 C   0  0  0  0  0  2  0  0  0  0  0  0
  182.8110  178.7900  142.7870 C   0  0  1  0  0  3  0  0  0  0  0  0
  181.9210  177.7200  142.9010 O   0  0  0  0  0  1  0  0  0  0  0  0
  184.2790  180.9000  144.1730 F   0  0  0  0  0  0  0  0  0  0  0  0
  185.7380  178.8930  145.9720 C   0  0  0  0  0  2  0  0  0  0  0  0
  186.1510  179.4840  144.6450 C   0  0  2  0  0  3  0  0  0  0  0  0
  184.5440  178.3180  146.1460 C   0  0  0  0  0  3  0  0  0  0  0  0
  184.0120  178.5670  143.7010 C   0  0  2  0  0  3  0  0  0  0  0  0
  183.6030  178.2390  145.0650 N   0  0  0  0  0  0  0  0  0  0  0  0
  184.9520  179.7780  143.7190 C   0  0  1  0  0  3  0  0  0  0  0  0
  187.3430  178.7240  144.0220 C   0  0  2  0  0  3  0  0  0  0  0  0
  186.9630  177.3710  143.4360 C   0  0  2  0  0  3  0  0  0  0  0  0
  187.6760  177.4540  144.7940 C   0  0  1  0  0  3  0  0  0  0  0  0
  189.8060  175.7470  143.8860 O   0  0  0  0  0  0  0  0  0  0  0  0
  189.4830  177.1430  144.7830 P   0  0  1  0  0  0  0  0  0  0  0  0
  190.2370  178.3140  144.1870 O   0  0  0  0  0  1  0  0  0  0  0  0
  190.0360  176.8900  146.4950 C   0  0  0  0  0  2  0  0  0  0  0  0
  192.0180  175.6400  147.1990 C   0  0  0  0  0  2  0  0  0  0  0  0
  191.5490  176.8730  146.5450 C   0  0  2  0  0  3  0  0  0  0  0  0
  191.9630  176.8610  147.8860 O   0  0  0  0  0  0  0  0  0  0  0  0
  187.8400  177.0580  142.2310 C   0  0  0  0  0  2  0  0  0  0  0  0
  188.0150  178.2970  141.3600 C   0  0  2  0  0  3  0  0  0  0  0  0
  186.7810  178.7180  140.8470 O   0  0  0  0  0  0  0  0  0  0  0  0
  186.8240  178.3790  139.4910 C   0  0  0  0  0  1  0  0  0  0  0  0
  189.0030  178.0270  140.2240 C   0  0  0  0  0  2  0  0  0  0  0  0
  190.1900  177.2390  140.6700 C   0  0  0  0  0  0  0  0  0  0  0  0
  190.0400  176.0820  141.1350 O   0  0  0  0  0  1  0  0  0  0  0  0
  191.4560  177.8020  140.6100 O   0  0  0  0  0  0  0  0  0  0  0  0
  180.8520  177.7520  139.6910 S   0  0  0  0  0  0  0  0  0  0  0  0
  180.7990  177.4970  137.8750 C   0  0  2  0  0  3  0  0  0  0  0  0
  181.2790  173.5010  136.2140 C   0  0  0  0  0  2  0  0  0  0  0  0
  180.2020  174.9480  137.9620 C   0  0  0  0  0  2  0  0  0  0  0  0
  180.7710  173.5640  137.6530 C   0  0  0  0  0  2  0  0  0  0  0  0
  182.4050  174.5220  136.0180 C   0  0  1  0  0  3  0  0  0  0  0  0
  181.0310  176.0890  137.4100 C   0  0  0  0  0  0  0  0  0  0  0  0
  181.9800  175.8900  136.4800 C   0  0  0  0  0  3  0  0  0  0  0  0
  183.6530  174.1180  136.7930 C   0  0  0  0  0  2  0  0  0  0  0  0
  184.7700  175.1410  136.6270 C   0  0  0  0  0  2  0  0  0  0  0  0
  185.2610  173.5130  134.8370 C   0  0  0  0  0  1  0  0  0  0  0  0
  185.8350  174.7180  135.5810 C   0  0  2  0  0  0  0  0  0  0  0  0
  187.8290  172.0440  136.6860 C   0  0  0  0  0  2  0  0  0  0  0  0
  188.1270  173.8860  135.2500 O   0  0  0  0  0  0  0  0  0  0  0  0
  188.7640  172.7340  135.7370 C   0  0  0  0  0  2  0  0  0  0  0  0
  187.2130  174.3150  136.2430 C   0  0  2  0  0  0  0  0  0  0  0  0
  187.0280  173.1740  137.2380 C   0  0  0  0  0  2  0  0  0  0  0  0
  187.8250  175.4840  137.0380 C   0  0  0  0  0  2  0  0  0  0  0  0
  189.1610  177.4400  136.3260 C   0  0  0  0  0  1  0  0  0  0  0  0
  190.2550  175.6060  137.5590 C   0  0  0  0  0  1  0  0  0  0  0  0
  189.1890  175.9430  136.5380 C   0  0  0  0  0  3  0  0  0  0  0  0
  185.9990  175.7240  134.5910 O   0  0  0  0  0  0  0  0  0  0  0  0
  184.2900  177.3660  134.3460 C   0  0  0  0  0  1  0  0  0  0  0  0
  185.5670  176.9750  135.0610 C   0  0  0  0  0  2  0  0  0  0  0  0
  182.5790  179.0870  137.6070 O   0  0  0  0  0  1  0  0  0  0  0  0
  181.1560  178.8810  135.8320 O   0  0  0  0  0  0  0  0  0  0  0  0
  181.5730  178.5240  137.1040 C   0  0  0  0  0  0  0  0  0  0  0  0
  1  2  2  0  0  0  0
  2  3  1  0  0  0  0
  3  4  1  0  0  0  0
  4  5  1  6  0  0  0
  7  9  1  0  0  0  0
  8  7  1  1  0  0  0
 10  4  1  6  0  0  0
 10 12  1  0  0  0  0
 10 11  1  0  0  0  0
 11  9  2  0  0  0  0
 12  6  1  1  0  0  0
 12  8  1  0  0  0  0
 13  8  1  1  0  0  0
 13 15  1  0  0  0  0
 14 23  1  6  0  0  0
 14 13  1  0  0  0  0
 14 15  1  0  0  0  0
 15 17  1  6  0  0  0
 17 16  2  6  0  0  0
 17 19  1  0  0  0  0
 18 17  1  0  0  0  0
 20 22  1  0  0  0  0
 21 19  1  1  0  0  0
 21 20  1  0  0  0  0
 21 22  1  0  0  0  0
 24 27  1  6  0  0  0
 24 23  1  0  0  0  0
 25 24  1  0  0  0  0
 26 25  1  0  0  0  0
 27 28  1  0  0  0  0
 28 29  1  0  0  0  0
 30 28  2  0  0  0  0
 31  1  1  0  0  0  0
 32 57  1  6  0  0  0
 32 31  1  0  0  0  0
 33 35  1  0  0  0  0
 35 34  1  0  0  0  0
 36 33  1  0  0  0  0
 36 38  1  0  0  0  0
 36 39  1  1  0  0  0
 37 32  1  0  0  0  0
 37 34  1  0  0  0  0
 38 37  2  0  0  0  0
 40 39  1  0  0  0  0
 42 41  1  6  0  0  0
 42 46  1  0  0  0  0
 42 40  1  0  0  0  0
 43 47  1  0  0  0  0
 44 45  1  0  0  0  0
 44 46  1  0  0  0  0
 45 43  1  0  0  0  0
 46 48  1  1  0  0  0
 46 47  1  0  0  0  0
 49 51  1  0  0  0  0
 51 48  1  0  0  0  0
 51 50  1  0  0  0  0
 52 54  1  0  0  0  0
 52 42  1  0  0  0  0
 53 54  1  0  0  0  0
 56 57  2  0  0  0  0
 57 55  1  0  0  0  0
M  END
>  <MODEL>
6

>  <REMARK>
 VINA RESULT:      -4.5      4.961      9.444
  Name = 
  24 active torsions:
  status: ('A' for Active; 'I' for Inactive)
    1  A    between atoms: C_1  and  C_29
    2  A    between atoms: C_5  and  C_18
    3  A    between atoms: C_5  and  C_34
    4  A    between atoms: C_7  and  C_15
    5  A    between atoms: C_7  and  C_27
    6  A    between atoms: S_11  and  C_13
    7  A    between atoms: S_11  and  C_52
    8  A    between atoms: C_15  and  C_55
    9  A    between atoms: C_16  and  O_38
   10  A    between atoms: P_17  and  C_44
   11  A    between atoms: P_17  and  C_57
   12  A    between atoms: C_18  and  C_41
   13  A    between atoms: O_19  and  C_30
   14  A    between atoms: C_23  and  C_25
   15  A    between atoms: C_28  and  C_39
   16  A    between atoms: C_29  and  C_30
   17  A    between atoms: C_30  and  C_39
   18  A    between atoms: C_31  and  C_52
   19  A    between atoms: C_37  and  C_42
   20  A    between atoms: O_38  and  C_55
   21  A    between atoms: C_42  and  C_54
   22  A    between atoms: C_46  and  C_57
   23  A    between atoms: C_48  and  C_52
   24  A    between atoms: C_54  and  C_55
                            x       y       z     vdW  Elec       q    Type
                         _______ _______ _______ _____ _____    ______ ____

>  <TORSDO>
F 24

$$$$
=
 OpenBabel10232408153D

 57 61  0  0  1  0  0  0  0  0999 V2000
  188.9910  178.4440  138.4340 C   0  0  0  0  0  3  0  0  0  0  0  0
  189.4710  177.9300  137.2960 C   0  0  0  0  0  3  0  0  0  0  0  0
  188.8310  176.7850  136.5720 C   0  0  0  0  0  2  0  0  0  0  0  0
  187.4130  177.1090  136.1240 C   0  0  1  0  0  3  0  0  0  0  0  0
  187.4370  177.5080  134.7860 O   0  0  0  0  0  1  0  0  0  0  0  0
  187.5380  174.7590  134.3940 F   0  0  0  0  0  0  0  0  0  0  0  0
  185.8790  173.0700  136.3390 C   0  0  0  0  0  3  0  0  0  0  0  0
  185.4370  173.9060  135.1620 C   0  0  2  0  0  3  0  0  0  0  0  0
  186.6660  173.5640  137.2990 C   0  0  0  0  0  3  0  0  0  0  0  0
  186.5520  175.8600  136.2790 C   0  0  2  0  0  3  0  0  0  0  0  0
  187.1220  174.9240  137.2460 N   0  0  0  0  0  2  0  0  0  0  0  0
  186.3260  175.1480  134.9410 C   0  0  1  0  0  3  0  0  0  0  0  0
  183.9090  174.1330  135.1580 C   0  0  2  0  0  3  0  0  0  0  0  0
  183.4020  174.8830  136.3830 C   0  0  2  0  0  3  0  0  0  0  0  0
  183.2150  173.3620  136.2740 C   0  0  1  0  0  3  0  0  0  0  0  0
  180.3980  173.2810  136.8530 O   0  0  0  0  0  1  0  0  0  0  0  0
  181.5610  172.7840  135.7310 P   0  0  1  0  0  0  0  0  0  0  0  0
  181.2120  173.3310  134.3630 O   0  0  0  0  0  0  0  0  0  0  0  0
  181.5800  170.9690  135.6590 C   0  0  0  0  0  2  0  0  0  0  0  0
  183.1960  169.1320  135.6060 C   0  0  0  0  0  2  0  0  0  0  0  0
  182.9140  170.4940  135.1230 C   0  0  2  0  0  3  0  0  0  0  0  0
  183.7830  170.2580  136.2000 O   0  0  0  0  0  0  0  0  0  0  0  0
  182.1990  175.7400  136.0100 C   0  0  0  0  0  2  0  0  0  0  0  0
  181.7880  176.6230  137.1830 C   0  0  2  0  0  3  0  0  0  0  0  0
  180.4220  176.9260  137.1190 O   0  0  0  0  0  0  0  0  0  0  0  0
  180.1180  176.9250  135.7540 C   0  0  0  0  0  1  0  0  0  0  0  0
  182.6190  177.9070  137.2110 C   0  0  0  0  0  2  0  0  0  0  0  0
  182.9340  178.3570  138.6000 C   0  0  0  0  0  0  0  0  0  0  0  0
  183.4840  179.4700  138.7930 O   0  0  0  0  0  0  0  0  0  0  0  0
  182.6580  177.5260  139.6750 O   0  0  0  0  0  1  0  0  0  0  0  0
  187.4630  177.8840  139.2050 S   0  0  0  0  0  0  0  0  0  0  0  0
  187.7450  178.6860  140.8320 C   0  0  2  0  0  3  0  0  0  0  0  0
  191.3200  177.2450  142.8570 C   0  0  0  0  0  2  0  0  0  0  0  0
  189.1890  176.6630  141.6600 C   0  0  0  0  0  2  0  0  0  0  0  0
  190.1670  176.2490  142.7590 C   0  0  0  0  0  2  0  0  0  0  0  0
  190.7760  178.6310  143.2170 C   0  0  1  0  0  3  0  0  0  0  0  0
  188.8990  178.1500  141.6270 C   0  0  0  0  0  0  0  0  0  0  0  0
  189.6680  179.0360  142.2830 C   0  0  0  0  0  3  0  0  0  0  0  0
  190.2380  178.6570  144.6420 C   0  0  0  0  0  2  0  0  0  0  0  0
  191.1970  177.9800  145.6140 C   0  0  0  0  0  2  0  0  0  0  0  0
  190.3980  175.6780  146.0110 C   0  0  0  0  0  1  0  0  0  0  0  0
  190.4790  177.0660  146.6430 C   0  0  2  0  0  0  0  0  0  0  0  0
  187.8870  176.9700  149.0130 C   0  0  0  0  0  2  0  0  0  0  0  0
  189.0790  178.6610  147.8880 O   0  0  0  0  0  0  0  0  0  0  0  0
  188.1000  178.4490  148.8710 C   0  0  0  0  0  2  0  0  0  0  0  0
  189.0210  177.5680  146.9910 C   0  0  2  0  0  0  0  0  0  0  0  0
  188.2040  176.4600  147.6490 C   0  0  0  0  0  2  0  0  0  0  0  0
  188.2450  177.9790  145.7250 C   0  0  0  0  0  2  0  0  0  0  0  0
  185.8030  178.3630  145.6240 C   0  0  0  0  0  1  0  0  0  0  0  0
  186.8120  176.5860  144.2430 C   0  0  0  0  0  1  0  0  0  0  0  0
  186.8850  177.3080  145.5720 C   0  0  0  0  0  3  0  0  0  0  0  0
  191.2730  176.8990  147.8100 O   0  0  0  0  0  0  0  0  0  0  0  0
  193.0650  175.7590  148.8900 C   0  0  0  0  0  1  0  0  0  0  0  0
  192.2160  175.8710  147.6410 C   0  0  0  0  0  2  0  0  0  0  0  0
  186.4690  179.6400  142.6290 O   0  0  0  0  0  1  0  0  0  0  0  0
  185.3520  178.1620  141.2920 O   0  0  0  0  0  0  0  0  0  0  0  0
  186.4920  178.8710  141.6330 C   0  0  0  0  0  0  0  0  0  0  0  0
  1 31  1  0  0  0  0
  2  1  2  0  0  0  0
  3  2  1  0  0  0  0
  4  5  1  6  0  0  0
  4  3  1  0  0  0  0
  7  9  2  0  0  0  0
  8  7  1  1  0  0  0
 10  4  1  6  0  0  0
 10 11  1  0  0  0  0
 11  9  1  0  0  0  0
 12  6  1  1  0  0  0
 12  8  1  0  0  0  0
 12 10  1  0  0  0  0
 13  8  1  1  0  0  0
 13 15  1  0  0  0  0
 13 14  1  0  0  0  0
 14 23  1  6  0  0  0
 15 17  1  6  0  0  0
 15 14  1  0  0  0  0
 17 18  2  6  0  0  0
 17 16  1  0  0  0  0
 19 17  1  0  0  0  0
 20 22  1  0  0  0  0
 21 20  1  0  0  0  0
 21 19  1  1  0  0  0
 21 22  1  0  0  0  0
 24 23  1  6  0  0  0
 24 27  1  0  0  0  0
 25 24  1  0  0  0  0
 26 25  1  0  0  0  0
 27 28  1  0  0  0  0
 28 29  2  0  0  0  0
 28 30  1  0  0  0  0
 32 31  1  6  0  0  0
 32 37  1  0  0  0  0
 32 57  1  0  0  0  0
 33 36  1  0  0  0  0
 34 35  1  0  0  0  0
 35 33  1  0  0  0  0
 36 39  1  1  0  0  0
 37 34  1  0  0  0  0
 37 38  2  0  0  0  0
 38 36  1  0  0  0  0
 39 40  1  0  0  0  0
 40 42  1  0  0  0  0
 42 41  1  6  0  0  0
 42 46  1  0  0  0  0
 42 52  1  0  0  0  0
 44 45  1  0  0  0  0
 45 43  1  0  0  0  0
 46 48  1  6  0  0  0
 46 47  1  0  0  0  0
 46 44  1  0  0  0  0
 47 43  1  0  0  0  0
 50 51  1  0  0  0  0
 51 49  1  0  0  0  0
 51 48  1  0  0  0  0
 54 52  1  0  0  0  0
 54 53  1  0  0  0  0
 56 57  2  0  0  0  0
 57 55  1  0  0  0  0
M  END
>  <MODEL>
7

>  <REMARK>
 VINA RESULT:      -4.4      5.542     10.280
  Name = 
  24 active torsions:
  status: ('A' for Active; 'I' for Inactive)
    1  A    between atoms: C_1  and  C_29
    2  A    between atoms: C_5  and  C_18
    3  A    between atoms: C_5  and  C_34
    4  A    between atoms: C_7  and  C_15
    5  A    between atoms: C_7  and  C_27
    6  A    between atoms: S_11  and  C_13
    7  A    between atoms: S_11  and  C_52
    8  A    between atoms: C_15  and  C_55
    9  A    between atoms: C_16  and  O_38
   10  A    between atoms: P_17  and  C_44
   11  A    between atoms: P_17  and  C_57
   12  A    between atoms: C_18  and  C_41
   13  A    between atoms: O_19  and  C_30
   14  A    between atoms: C_23  and  C_25
   15  A    between atoms: C_28  and  C_39
   16  A    between atoms: C_29  and  C_30
   17  A    between atoms: C_30  and  C_39
   18  A    between atoms: C_31  and  C_52
   19  A    between atoms: C_37  and  C_42
   20  A    between atoms: O_38  and  C_55
   21  A    between atoms: C_42  and  C_54
   22  A    between atoms: C_46  and  C_57
   23  A    between atoms: C_48  and  C_52
   24  A    between atoms: C_54  and  C_55
                            x       y       z     vdW  Elec       q    Type
                         _______ _______ _______ _____ _____    ______ ____

>  <TORSDO>
F 24

$$$$
=
 OpenBabel10232408153D

 57 61  0  0  1  0  0  0  0  0999 V2000
  185.5980  178.5520  145.0530 C   0  0  0  0  0  3  0  0  0  0  0  0
  184.6780  179.3240  144.4620 C   0  0  0  0  0  3  0  0  0  0  0  0
  184.4120  179.3090  142.9880 C   0  0  0  0  0  2  0  0  0  0  0  0
  183.7430  178.0180  142.5370 C   0  0  1  0  0  3  0  0  0  0  0  0
  182.4110  178.0240  142.9550 O   0  0  0  0  0  1  0  0  0  0  0  0
  182.1980  179.6770  140.6960 F   0  0  0  0  0  0  0  0  0  0  0  0
  183.9060  178.8410  138.2930 C   0  0  0  0  0  3  0  0  0  0  0  0
  182.6240  178.2460  138.8250 C   0  0  2  0  0  3  0  0  0  0  0  0
  184.9630  179.0580  139.0820 C   0  0  0  0  0  3  0  0  0  0  0  0
  183.8110  177.9360  141.0160 C   0  0  2  0  0  3  0  0  0  0  0  0
  184.9160  178.7270  140.4780 N   0  0  0  0  0  2  0  0  0  0  0  0
  182.4960  178.3680  140.3570 C   0  0  1  0  0  3  0  0  0  0  0  0
  182.3330  176.8610  138.2080 C   0  0  2  0  0  3  0  0  0  0  0  0
  183.5300  176.2510  137.4900 C   0  0  2  0  0  3  0  0  0  0  0  0
  182.3870  176.8900  136.6870 C   0  0  1  0  0  3  0  0  0  0  0  0
  180.1110  176.5940  134.9510 O   0  0  0  0  0  0  0  0  0  0  0  0
  181.1520  175.7370  135.9710 P   0  0  1  0  0  0  0  0  0  0  0  0
  181.8270  174.6290  135.1900 O   0  0  0  0  0  1  0  0  0  0  0  0
  180.1900  175.0080  137.3280 C   0  0  0  0  0  2  0  0  0  0  0  0
  180.2860  172.5690  137.5060 C   0  0  0  0  0  2  0  0  0  0  0  0
  180.9390  173.8260  137.9070 C   0  0  2  0  0  3  0  0  0  0  0  0
  180.0890  173.1260  138.7770 O   0  0  0  0  0  0  0  0  0  0  0  0
  183.4990  174.7330  137.6170 C   0  0  0  0  0  2  0  0  0  0  0  0
  184.4480  174.0930  136.6100 C   0  0  2  0  0  3  0  0  0  0  0  0
  184.4320  172.6980  136.7330 O   0  0  0  0  0  0  0  0  0  0  0  0
  183.7640  172.2460  135.5900 C   0  0  0  0  0  1  0  0  0  0  0  0
  185.8700  174.6290  136.7880 C   0  0  0  0  0  2  0  0  0  0  0  0
  186.3190  175.4610  135.6330 C   0  0  0  0  0  0  0  0  0  0  0  0
  186.6960  176.6450  135.8170 O   0  0  0  0  0  1  0  0  0  0  0  0
  186.2810  174.9390  134.3490 O   0  0  0  0  0  0  0  0  0  0  0  0
  186.5820  177.3300  144.1680 S   0  0  0  0  0  0  0  0  0  0  0  0
  188.2150  177.8870  144.7920 C   0  0  2  0  0  3  0  0  0  0  0  0
  191.6330  176.2960  142.6130 C   0  0  0  0  0  2  0  0  0  0  0  0
  190.7990  177.9020  144.3570 C   0  0  0  0  0  2  0  0  0  0  0  0
  191.8390  177.6630  143.2630 C   0  0  0  0  0  2  0  0  0  0  0  0
  190.2490  176.2390  141.9590 C   0  0  1  0  0  3  0  0  0  0  0  0
  189.4010  177.4540  143.9800 C   0  0  0  0  0  0  0  0  0  0  0  0
  189.1750  176.6460  142.9310 C   0  0  0  0  0  3  0  0  0  0  0  0
  190.1760  177.1590  140.7470 C   0  0  0  0  0  2  0  0  0  0  0  0
  190.9490  176.5890  139.5640 C   0  0  0  0  0  2  0  0  0  0  0  0
  188.7220  176.3230  138.5320 C   0  0  0  0  0  1  0  0  0  0  0  0
  190.1730  176.6870  138.2230 C   0  0  2  0  0  0  0  0  0  0  0  0
  189.6070  173.6920  136.4750 C   0  0  0  0  0  2  0  0  0  0  0  0
  190.0790  175.9230  135.8870 O   0  0  0  0  0  0  0  0  0  0  0  0
  189.7730  174.6650  135.3450 C   0  0  0  0  0  2  0  0  0  0  0  0
  190.7350  175.7030  137.1220 C   0  0  2  0  0  0  0  0  0  0  0  0
  190.5110  174.2470  137.5220 C   0  0  0  0  0  2  0  0  0  0  0  0
  192.2560  175.8670  136.9350 C   0  0  0  0  0  2  0  0  0  0  0  0
  193.8220  174.0960  136.2090 C   0  0  0  0  0  1  0  0  0  0  0  0
  194.0840  175.1070  138.4430 C   0  0  0  0  0  1  0  0  0  0  0  0
  193.0810  174.6710  137.3950 C   0  0  0  0  0  3  0  0  0  0  0  0
  190.1310  178.0290  137.7610 O   0  0  0  0  0  0  0  0  0  0  0  0
  188.7550  179.8090  136.9740 C   0  0  0  0  0  1  0  0  0  0  0  0
  188.8220  178.5390  137.7970 C   0  0  0  0  0  2  0  0  0  0  0  0
  189.0530  178.5150  146.9530 O   0  0  0  0  0  1  0  0  0  0  0  0
  187.8390  176.5800  146.8810 O   0  0  0  0  0  0  0  0  0  0  0  0
  188.3900  177.6940  146.2680 C   0  0  0  0  0  0  0  0  0  0  0  0
  2  1  2  0  0  0  0
  3  2  1  0  0  0  0
  4  5  1  6  0  0  0
  4  3  1  0  0  0  0
  7  9  2  0  0  0  0
  8  7  1  1  0  0  0
  8 12  1  0  0  0  0
  9 11  1  0  0  0  0
 10  4  1  1  0  0  0
 11 10  1  0  0  0  0
 12  6  1  6  0  0  0
 12 10  1  0  0  0  0
 13  8  1  1  0  0  0
 14 23  1  6  0  0  0
 14 13  1  0  0  0  0
 15 17  1  6  0  0  0
 15 14  1  0  0  0  0
 15 13  1  0  0  0  0
 17 16  2  6  0  0  0
 17 19  1  0  0  0  0
 18 17  1  0  0  0  0
 20 21  1  0  0  0  0
 20 22  1  0  0  0  0
 21 19  1  6  0  0  0
 21 22  1  0  0  0  0
 24 25  1  0  0  0  0
 24 27  1  1  0  0  0
 24 23  1  0  0  0  0
 26 25  1  0  0  0  0
 28 29  1  0  0  0  0
 28 27  1  0  0  0  0
 30 28  2  0  0  0  0
 31  1  1  0  0  0  0
 32 31  1  6  0  0  0
 32 57  1  0  0  0  0
 33 35  1  0  0  0  0
 35 34  1  0  0  0  0
 36 39  1  6  0  0  0
 36 33  1  0  0  0  0
 36 38  1  0  0  0  0
 37 34  1  0  0  0  0
 37 32  1  0  0  0  0
 38 37  2  0  0  0  0
 40 39  1  0  0  0  0
 42 41  1  1  0  0  0
 42 40  1  0  0  0  0
 43 47  1  0  0  0  0
 44 46  1  0  0  0  0
 45 44  1  0  0  0  0
 45 43  1  0  0  0  0
 46 48  1  6  0  0  0
 46 47  1  0  0  0  0
 46 42  1  0  0  0  0
 48 51  1  0  0  0  0
 49 51  1  0  0  0  0
 51 50  1  0  0  0  0
 52 54  1  0  0  0  0
 52 42  1  0  0  0  0
 53 54  1  0  0  0  0
 57 56  2  0  0  0  0
 57 55  1  0  0  0  0
M  END
>  <MODEL>
8

>  <REMARK>
 VINA RESULT:      -4.3      3.982      9.602
  Name = 
  24 active torsions:
  status: ('A' for Active; 'I' for Inactive)
    1  A    between atoms: C_1  and  C_29
    2  A    between atoms: C_5  and  C_18
    3  A    between atoms: C_5  and  C_34
    4  A    between atoms: C_7  and  C_15
    5  A    between atoms: C_7  and  C_27
    6  A    between atoms: S_11  and  C_13
    7  A    between atoms: S_11  and  C_52
    8  A    between atoms: C_15  and  C_55
    9  A    between atoms: C_16  and  O_38
   10  A    between atoms: P_17  and  C_44
   11  A    between atoms: P_17  and  C_57
   12  A    between atoms: C_18  and  C_41
   13  A    between atoms: O_19  and  C_30
   14  A    between atoms: C_23  and  C_25
   15  A    between atoms: C_28  and  C_39
   16  A    between atoms: C_29  and  C_30
   17  A    between atoms: C_30  and  C_39
   18  A    between atoms: C_31  and  C_52
   19  A    between atoms: C_37  and  C_42
   20  A    between atoms: O_38  and  C_55
   21  A    between atoms: C_42  and  C_54
   22  A    between atoms: C_46  and  C_57
   23  A    between atoms: C_48  and  C_52
   24  A    between atoms: C_54  and  C_55
                            x       y       z     vdW  Elec       q    Type
                         _______ _______ _______ _____ _____    ______ ____

>  <TORSDO>
F 24

$$$$
=
 OpenBabel10232408153D

 57 61  0  0  1  0  0  0  0  0999 V2000
  186.3060  177.6230  146.6540 C   0  0  0  0  0  3  0  0  0  0  0  0
  185.3380  178.5350  146.5040 C   0  0  0  0  0  3  0  0  0  0  0  0
  184.9380  179.1050  145.1780 C   0  0  0  0  0  2  0  0  0  0  0  0
  183.8340  178.2960  144.5140 C   0  0  1  0  0  3  0  0  0  0  0  0
  182.6120  178.9430  144.7100 O   0  0  0  0  0  1  0  0  0  0  0  0
  184.7170  180.5050  142.8190 F   0  0  0  0  0  0  0  0  0  0  0  0
  185.5010  178.6200  140.5340 C   0  0  0  0  0  3  0  0  0  0  0  0
  184.2000  179.3430  140.7910 C   0  0  2  0  0  3  0  0  0  0  0  0
  186.0880  177.8710  141.4730 C   0  0  0  0  0  3  0  0  0  0  0  0
  184.1320  178.1910  143.0220 C   0  0  2  0  0  3  0  0  0  0  0  0
  185.4950  177.7250  142.7720 N   0  0  0  0  0  2  0  0  0  0  0  0
  183.8980  179.5200  142.2940 C   0  0  1  0  0  3  0  0  0  0  0  0
  183.0550  178.8000  139.9080 C   0  0  2  0  0  3  0  0  0  0  0  0
  181.6720  179.2480  140.3610 C   0  0  2  0  0  3  0  0  0  0  0  0
  182.1640  177.8250  140.6660 C   0  0  1  0  0  3  0  0  0  0  0  0
  181.2800  175.0950  140.4520 O   0  0  0  0  0  1  0  0  0  0  0  0
  181.5580  176.5000  139.5520 P   0  0  1  0  0  0  0  0  0  0  0  0
  180.2790  176.9140  138.8530 O   0  0  0  0  0  0  0  0  0  0  0  0
  182.8350  176.1640  138.3050 C   0  0  0  0  0  2  0  0  0  0  0  0
  182.9580  174.3890  136.6260 C   0  0  0  0  0  2  0  0  0  0  0  0
  182.9400  174.6720  138.0710 C   0  0  2  0  0  3  0  0  0  0  0  0
  181.7930  174.2340  137.3910 O   0  0  0  0  0  0  0  0  0  0  0  0
  180.7510  179.4010  139.1570 C   0  0  0  0  0  2  0  0  0  0  0  0
  181.3330  180.3990  138.1630 C   0  0  2  0  0  3  0  0  0  0  0  0
  181.4410  181.6690  138.7440 O   0  0  0  0  0  0  0  0  0  0  0  0
  181.0690  182.5580  137.7300 C   0  0  0  0  0  1  0  0  0  0  0  0
  180.4800  180.4610  136.8950 C   0  0  0  0  0  2  0  0  0  0  0  0
  181.0430  179.6400  135.7820 C   0  0  0  0  0  0  0  0  0  0  0  0
  181.9180  178.7710  136.0200 O   0  0  0  0  0  1  0  0  0  0  0  0
  180.6310  179.8680  134.4770 O   0  0  0  0  0  0  0  0  0  0  0  0
  187.2040  176.8970  145.2720 S   0  0  0  0  0  0  0  0  0  0  0  0
  188.7810  177.7910  145.5560 C   0  0  2  0  0  3  0  0  0  0  0  0
  191.8370  177.2000  142.5100 C   0  0  0  0  0  2  0  0  0  0  0  0
  191.0190  178.5790  144.4450 C   0  0  0  0  0  2  0  0  0  0  0  0
  191.7590  178.6030  143.1080 C   0  0  0  0  0  2  0  0  0  0  0  0
  190.4220  176.6710  142.2500 C   0  0  1  0  0  3  0  0  0  0  0  0
  189.7890  177.6950  144.4470 C   0  0  0  0  0  0  0  0  0  0  0  0
  189.5660  176.7880  143.4820 C   0  0  0  0  0  3  0  0  0  0  0  0
  189.7480  177.4400  141.1200 C   0  0  0  0  0  2  0  0  0  0  0  0
  189.2740  176.5060  140.0130 C   0  0  0  0  0  2  0  0  0  0  0  0
  190.8420  177.9380  138.7520 C   0  0  0  0  0  1  0  0  0  0  0  0
  190.1580  176.5720  138.7380 C   0  0  2  0  0  0  0  0  0  0  0  0
  190.1840  175.3790  135.4340 C   0  0  0  0  0  2  0  0  0  0  0  0
  188.7840  175.1150  137.3090 O   0  0  0  0  0  0  0  0  0  0  0  0
  188.9750  174.6830  135.9870 C   0  0  0  0  0  2  0  0  0  0  0  0
  189.3190  176.4220  137.4070 C   0  0  2  0  0  0  0  0  0  0  0  0
  190.1910  176.6690  136.1800 C   0  0  0  0  0  2  0  0  0  0  0  0
  188.1760  177.4540  137.3360 C   0  0  0  0  0  2  0  0  0  0  0  0
  185.8850  176.6100  136.9420 C   0  0  0  0  0  1  0  0  0  0  0  0
  186.7660  178.4320  135.5340 C   0  0  0  0  0  1  0  0  0  0  0  0
  187.1250  177.1600  136.2740 C   0  0  0  0  0  3  0  0  0  0  0  0
  191.2140  175.6250  138.8060 O   0  0  0  0  0  0  0  0  0  0  0  0
  193.0590  176.5350  137.6040 C   0  0  0  0  0  1  0  0  0  0  0  0
  192.4580  176.2600  138.9660 C   0  0  0  0  0  2  0  0  0  0  0  0
  190.1670  176.6260  147.1330 O   0  0  0  0  0  0  0  0  0  0  0  0
  188.9750  178.3880  147.9680 O   0  0  0  0  0  1  0  0  0  0  0  0
  189.3590  177.5670  146.9200 C   0  0  0  0  0  0  0  0  0  0  0  0
  2  1  2  0  0  0  0
  3  2  1  0  0  0  0
  4  5  1  6  0  0  0
  4  3  1  0  0  0  0
  7  9  2  0  0  0  0
  8  7  1  1  0  0  0
  8 12  1  0  0  0  0
  9 11  1  0  0  0  0
 10  4  1  1  0  0  0
 11 10  1  0  0  0  0
 12  6  1  1  0  0  0
 12 10  1  0  0  0  0
 13 14  1  0  0  0  0
 13 15  1  0  0  0  0
 13  8  1  1  0  0  0
 14 23  1  6  0  0  0
 14 15  1  0  0  0  0
 15 17  1  6  0  0  0
 17 18  2  6  0  0  0
 17 16  1  0  0  0  0
 19 17  1  0  0  0  0
 20 22  1  0  0  0  0
 20 21  1  0  0  0  0
 21 19  1  6  0  0  0
 22 21  1  0  0  0  0
 24 27  1  6  0  0  0
 24 25  1  0  0  0  0
 24 23  1  0  0  0  0
 26 25  1  0  0  0  0
 28 29  1  0  0  0  0
 28 27  1  0  0  0  0
 30 28  2  0  0  0  0
 31  1  1  0  0  0  0
 32 31  1  6  0  0  0
 32 57  1  0  0  0  0
 33 35  1  0  0  0  0
 34 37  1  0  0  0  0
 35 34  1  0  0  0  0
 36 39  1  6  0  0  0
 36 33  1  0  0  0  0
 36 38  1  0  0  0  0
 37 32  1  0  0  0  0
 38 37  2  0  0  0  0
 40 39  1  0  0  0  0
 42 41  1  6  0  0  0
 42 52  1  0  0  0  0
 42 40  1  0  0  0  0
 43 45  1  0  0  0  0
 43 47  1  0  0  0  0
 44 46  1  0  0  0  0
 45 44  1  0  0  0  0
 46 48  1  1  0  0  0
 46 42  1  0  0  0  0
 47 46  1  0  0  0  0
 50 51  1  0  0  0  0
 51 49  1  0  0  0  0
 51 48  1  0  0  0  0
 52 54  1  0  0  0  0
 53 54  1  0  0  0  0
 57 55  2  0  0  0  0
 57 56  1  0  0  0  0
M  END
>  <MODEL>
9

>  <REMARK>
 VINA RESULT:      -4.1      4.215     10.452
  Name = 
  24 active torsions:
  status: ('A' for Active; 'I' for Inactive)
    1  A    between atoms: C_1  and  C_29
    2  A    between atoms: C_5  and  C_18
    3  A    between atoms: C_5  and  C_34
    4  A    between atoms: C_7  and  C_15
    5  A    between atoms: C_7  and  C_27
    6  A    between atoms: S_11  and  C_13
    7  A    between atoms: S_11  and  C_52
    8  A    between atoms: C_15  and  C_55
    9  A    between atoms: C_16  and  O_38
   10  A    between atoms: P_17  and  C_44
   11  A    between atoms: P_17  and  C_57
   12  A    between atoms: C_18  and  C_41
   13  A    between atoms: O_19  and  C_30
   14  A    between atoms: C_23  and  C_25
   15  A    between atoms: C_28  and  C_39
   16  A    between atoms: C_29  and  C_30
   17  A    between atoms: C_30  and  C_39
   18  A    between atoms: C_31  and  C_52
   19  A    between atoms: C_37  and  C_42
   20  A    between atoms: O_38  and  C_55
   21  A    between atoms: C_42  and  C_54
   22  A    between atoms: C_46  and  C_57
   23  A    between atoms: C_48  and  C_52
   24  A    between atoms: C_54  and  C_55
                            x       y       z     vdW  Elec       q    Type
                         _______ _______ _______ _____ _____    ______ ____

>  <TORSDO>
F 24

$$$$
