=
 OpenBabel10232411043D

 39 41  0  0  1  0  0  0  0  0999 V2000
  182.3030  175.2100  136.8010 C   0  0  0  0  0  0  0  0  0  0  0  0
  184.3270  177.1780  136.5450 C   0  0  1  0  0  3  0  0  0  0  0  0
  181.5680  174.8270  137.7480 O   0  0  0  0  0  0  0  0  0  0  0  0
  183.2830  176.2180  137.0160 N   0  0  0  0  0  0  0  0  0  0  0  0
  184.0900  177.1120  137.9020 C   0  0  2  0  0  3  0  0  0  0  0  0
  183.2420  178.2950  138.3730 C   0  0  2  0  0  3  0  0  0  0  0  0
  184.6970  179.2010  140.2390 C   0  0  0  0  0  3  0  0  0  0  0  0
  184.1190  179.4470  138.8660 C   0  0  0  0  0  2  0  0  0  0  0  0
  182.2610  177.9070  139.4820 C   0  0  0  0  0  2  0  0  0  0  0  0
  183.0080  177.4340  140.7270 C   0  0  0  0  0  2  0  0  0  0  0  0
  184.1480  178.3410  141.1120 C   0  0  0  0  0  0  0  0  0  0  0  0
  184.7430  178.1630  142.4700 C   0  0  0  0  0  2  0  0  0  0  0  0
  184.1890  179.1910  143.4410 C   0  0  0  0  0  2  0  0  0  0  0  0
  184.2720  178.6580  144.8600 C   0  0  0  0  0  2  0  0  0  0  0  0
  187.4550  177.4790  146.3660 C   0  0  0  0  0  2  0  0  0  0  0  0
  186.8910  178.3610  147.4590 C   0  0  0  0  0  2  0  0  0  0  0  0
  185.6780  179.0660  146.8790 C   0  0  0  0  0  2  0  0  0  0  0  0
  186.4270  177.4670  145.2570 C   0  0  0  0  0  2  0  0  0  0  0  0
  185.6890  178.7760  145.3960 C   0  0  0  0  0  3  0  0  0  0  0  0
  182.1230  174.4630  135.1900 S   0  0  0  0  0  0  0  0  0  0  0  0
  183.6420  173.5000  135.4020 C   0  0  0  0  0  1  0  0  0  0  0  0
  185.5030  176.4890  136.2560 O   0  0  0  0  0  0  0  0  0  0  0  0
  186.3990  176.8640  137.2600 C   0  0  0  0  0  2  0  0  0  0  0  0
  187.3890  177.8910  136.7250 C   0  0  0  0  0  2  0  0  0  0  0  0
  188.9640  179.4750  137.6170 N   0  0  0  0  0  2  0  0  0  0  0  0
  188.2120  178.4590  137.8330 C   0  0  0  0  0  0  0  0  0  0  0  0
  187.9710  177.9710  139.2330 C   0  0  0  0  0  2  0  0  0  0  0  0
  189.2460  177.6360  140.0100 C   0  0  2  0  0  3  0  0  0  0  0  0
  190.0880  176.7840  139.2890 O   0  0  0  0  0  1  0  0  0  0  0  0
  189.0390  177.1870  141.4620 C   0  0  2  0  0  3  0  0  0  0  0  0
  188.4460  178.2040  142.2110 O   0  0  0  0  0  1  0  0  0  0  0  0
  190.2020  175.4960  142.6550 O   0  0  0  0  0  0  0  0  0  0  0  0
  190.2600  176.6530  142.1630 C   0  0  0  0  0  0  0  0  0  0  0  0
  191.4240  177.4040  142.3560 O   0  0  0  0  0  0  0  0  0  0  0  0
  191.8000  177.9520  143.6100 C   0  0  0  0  0  2  0  0  0  0  0  0
  190.6920  177.7380  144.6290 C   0  0  0  0  0  2  0  0  0  0  0  0
  192.0390  175.8450  145.5330 O   0  0  0  0  0  0  0  0  0  0  0  0
  190.7280  177.0860  146.9400 O   0  0  0  0  0  1  0  0  0  0  0  0
  191.1230  176.8640  145.7670 C   0  0  0  0  0  0  0  0  0  0  0  0
  1  4  1  0  0  0  0
  1  3  2  0  0  0  0
  2 22  1  1  0  0  0
  2  4  1  0  0  0  0
  2  5  1  0  0  0  0
  5  4  1  6  0  0  0
  5  6  1  0  0  0  0
  6  8  1  1  0  0  0
  6  9  1  0  0  0  0
  7 11  2  0  0  0  0
  8  7  1  0  0  0  0
  9 10  1  0  0  0  0
 10 11  1  0  0  0  0
 11 12  1  0  0  0  0
 12 13  1  0  0  0  0
 13 14  1  0  0  0  0
 14 19  1  0  0  0  0
 15 16  1  0  0  0  0
 17 16  1  0  0  0  0
 18 19  1  0  0  0  0
 18 15  1  0  0  0  0
 19 17  1  0  0  0  0
 20 21  1  0  0  0  0
 20  1  1  0  0  0  0
 22 23  1  0  0  0  0
 24 23  1  0  0  0  0
 24 26  1  0  0  0  0
 25 26  2  0  0  0  0
 26 27  1  0  0  0  0
 27 28  1  0  0  0  0
 28 29  1  6  0  0  0
 28 30  1  0  0  0  0
 30 33  1  0  0  0  0
 30 31  1  1  0  0  0
 33 34  1  0  0  0  0
 33 32  2  0  0  0  0
 34 35  1  0  0  0  0
 35 36  1  0  0  0  0
 36 39  1  0  0  0  0
 37 39  2  0  0  0  0
 39 38  1  0  0  0  0
M  END
>  <MODEL>
1

>  <REMARK>
 VINA RESULT:      -7.2      0.000      0.000
  Name = 
  18 active torsions:
  status: ('A' for Active; 'I' for Inactive)
    1  A    between atoms: C_2  and  C_6
    2  A    between atoms: C_2  and  C_27
    3  A    between atoms: C_4  and  C_30
    4  A    between atoms: C_5  and  C_6
    5  A    between atoms: C_5  and  C_38
    6  A    between atoms: C_8  and  C_34
    7  A    between atoms: C_8  and  C_36
    8  A    between atoms: O_10  and  C_33
    9  A    between atoms: O_10  and  C_36
   10  A    between atoms: C_12  and  S_24
   11  A    between atoms: C_13  and  C_32
   12  A    between atoms: C_13  and  C_33
   13  A    between atoms: C_15  and  O_17
   14  A    between atoms: O_17  and  C_37
   15  A    between atoms: C_19  and  C_23
   16  A    between atoms: C_19  and  C_34
   17  A    between atoms: C_23  and  C_26
   18  A    between atoms: C_26  and  C_37
                            x       y       z     vdW  Elec       q    Type
                         _______ _______ _______ _____ _____    ______ ____

>  <TORSDO>
F 18

$$$$
=
 OpenBabel10232411043D

 39 41  0  0  1  0  0  0  0  0999 V2000
  185.3430  173.4560  136.9560 C   0  0  0  0  0  0  0  0  0  0  0  0
  185.4430  176.2180  136.3230 C   0  0  1  0  0  3  0  0  0  0  0  0
  184.7340  172.7780  137.8230 O   0  0  0  0  0  0  0  0  0  0  0  0
  185.2140  174.8730  136.9330 N   0  0  0  0  0  0  0  0  0  0  0  0
  184.7700  176.1720  137.5260 C   0  0  2  0  0  3  0  0  0  0  0  0
  183.2650  176.3570  137.3250 C   0  0  2  0  0  3  0  0  0  0  0  0
  182.9210  178.6170  138.4190 C   0  0  0  0  0  3  0  0  0  0  0  0
  182.9070  177.8320  137.1300 C   0  0  0  0  0  2  0  0  0  0  0  0
  182.4450  175.7980  138.4900 C   0  0  0  0  0  2  0  0  0  0  0  0
  182.7670  176.5380  139.7860 C   0  0  0  0  0  2  0  0  0  0  0  0
  182.7830  178.0370  139.6230 C   0  0  0  0  0  0  0  0  0  0  0  0
  182.7700  178.8670  140.8630 C   0  0  0  0  0  2  0  0  0  0  0  0
  184.1260  178.8320  141.5500 C   0  0  0  0  0  2  0  0  0  0  0  0
  184.0110  178.1110  142.8800 C   0  0  0  0  0  2  0  0  0  0  0  0
  186.5070  178.1920  145.6270 C   0  0  0  0  0  2  0  0  0  0  0  0
  185.2590  178.7010  146.3150 C   0  0  0  0  0  2  0  0  0  0  0  0
  184.2100  178.9050  145.2360 C   0  0  0  0  0  2  0  0  0  0  0  0
  186.1040  177.8490  144.2120 C   0  0  0  0  0  2  0  0  0  0  0  0
  184.9260  178.7450  143.9150 C   0  0  0  0  0  3  0  0  0  0  0  0
  186.3880  172.6320  135.7680 S   0  0  0  0  0  0  0  0  0  0  0  0
  187.8700  172.9570  136.7590 C   0  0  0  0  0  1  0  0  0  0  0  0
  186.7560  176.6220  136.5530 O   0  0  0  0  0  0  0  0  0  0  0  0
  186.6510  177.9050  137.0950 C   0  0  0  0  0  2  0  0  0  0  0  0
  187.9570  178.6650  136.9010 C   0  0  0  0  0  2  0  0  0  0  0  0
  189.8950  177.3100  137.3350 N   0  0  0  0  0  2  0  0  0  0  0  0
  189.0210  178.1250  137.7980 C   0  0  0  0  0  0  0  0  0  0  0  0
  189.1810  178.7220  139.1670 C   0  0  0  0  0  2  0  0  0  0  0  0
  188.6880  177.8250  140.3050 C   0  0  2  0  0  3  0  0  0  0  0  0
  187.5940  178.3830  140.9730 O   0  0  0  0  0  1  0  0  0  0  0  0
  189.7720  177.3060  141.2570 C   0  0  2  0  0  3  0  0  0  0  0  0
  190.4800  176.2560  140.6700 O   0  0  0  0  0  1  0  0  0  0  0  0
  188.6140  175.8810  142.7620 O   0  0  0  0  0  0  0  0  0  0  0  0
  189.3050  176.9260  142.6370 C   0  0  0  0  0  0  0  0  0  0  0  0
  189.5360  177.7130  143.7700 O   0  0  0  0  0  0  0  0  0  0  0  0
  190.8330  177.9970  144.2710 C   0  0  0  0  0  2  0  0  0  0  0  0
  191.3820  176.7900  145.0150 C   0  0  0  0  0  2  0  0  0  0  0  0
  192.0040  176.9150  147.4260 O   0  0  0  0  0  1  0  0  0  0  0  0
  189.8010  176.7640  146.8230 O   0  0  0  0  0  0  0  0  0  0  0  0
  191.0070  176.7930  146.4660 C   0  0  0  0  0  0  0  0  0  0  0  0
  1  3  2  0  0  0  0
  2 22  1  1  0  0  0
  2  4  1  0  0  0  0
  2  5  1  0  0  0  0
  4  1  1  0  0  0  0
  5  4  1  6  0  0  0
  6  8  1  1  0  0  0
  6  5  1  0  0  0  0
  6  9  1  0  0  0  0
  7 11  2  0  0  0  0
  8  7  1  0  0  0  0
  9 10  1  0  0  0  0
 11 10  1  0  0  0  0
 11 12  1  0  0  0  0
 12 13  1  0  0  0  0
 13 14  1  0  0  0  0
 14 19  1  0  0  0  0
 15 16  1  0  0  0  0
 17 16  1  0  0  0  0
 18 15  1  0  0  0  0
 19 18  1  0  0  0  0
 19 17  1  0  0  0  0
 20 21  1  0  0  0  0
 20  1  1  0  0  0  0
 22 23  1  0  0  0  0
 24 23  1  0  0  0  0
 24 26  1  0  0  0  0
 25 26  2  0  0  0  0
 26 27  1  0  0  0  0
 27 28  1  0  0  0  0
 28 29  1  1  0  0  0
 28 30  1  0  0  0  0
 30 31  1  6  0  0  0
 30 33  1  0  0  0  0
 33 32  2  0  0  0  0
 33 34  1  0  0  0  0
 34 35  1  0  0  0  0
 35 36  1  0  0  0  0
 36 39  1  0  0  0  0
 39 38  2  0  0  0  0
 39 37  1  0  0  0  0
M  END
>  <MODEL>
2

>  <REMARK>
 VINA RESULT:      -7.0      1.707      2.217
  Name = 
  18 active torsions:
  status: ('A' for Active; 'I' for Inactive)
    1  A    between atoms: C_2  and  C_6
    2  A    between atoms: C_2  and  C_27
    3  A    between atoms: C_4  and  C_30
    4  A    between atoms: C_5  and  C_6
    5  A    between atoms: C_5  and  C_38
    6  A    between atoms: C_8  and  C_34
    7  A    between atoms: C_8  and  C_36
    8  A    between atoms: O_10  and  C_33
    9  A    between atoms: O_10  and  C_36
   10  A    between atoms: C_12  and  S_24
   11  A    between atoms: C_13  and  C_32
   12  A    between atoms: C_13  and  C_33
   13  A    between atoms: C_15  and  O_17
   14  A    between atoms: O_17  and  C_37
   15  A    between atoms: C_19  and  C_23
   16  A    between atoms: C_19  and  C_34
   17  A    between atoms: C_23  and  C_26
   18  A    between atoms: C_26  and  C_37
                            x       y       z     vdW  Elec       q    Type
                         _______ _______ _______ _____ _____    ______ ____

>  <TORSDO>
F 18

$$$$
=
 OpenBabel10232411043D

 39 41  0  0  1  0  0  0  0  0999 V2000
  190.0440  177.0920  147.3390 C   0  0  0  0  0  0  0  0  0  0  0  0
  190.0180  177.6480  144.5590 C   0  0  1  0  0  3  0  0  0  0  0  0
  189.1590  177.0540  148.2330 O   0  0  0  0  0  0  0  0  0  0  0  0
  189.7030  177.4630  146.0080 N   0  0  0  0  0  0  0  0  0  0  0  0
  188.7570  178.0060  144.9860 C   0  0  2  0  0  3  0  0  0  0  0  0
  187.7220  176.9450  144.6080 C   0  0  2  0  0  3  0  0  0  0  0  0
  186.3060  178.2420  142.9530 C   0  0  0  0  0  3  0  0  0  0  0  0
  187.2740  177.1000  143.1530 C   0  0  0  0  0  2  0  0  0  0  0  0
  186.4900  176.9800  145.5140 C   0  0  0  0  0  2  0  0  0  0  0  0
  185.7570  178.3130  145.3840 C   0  0  0  0  0  2  0  0  0  0  0  0
  185.5620  178.7440  143.9530 C   0  0  0  0  0  0  0  0  0  0  0  0
  184.5960  179.8520  143.6910 C   0  0  0  0  0  2  0  0  0  0  0  0
  183.2170  179.5020  144.2230 C   0  0  0  0  0  2  0  0  0  0  0  0
  182.5690  178.4590  143.3320 C   0  0  0  0  0  2  0  0  0  0  0  0
  181.2290  178.8250  139.8890 C   0  0  0  0  0  2  0  0  0  0  0  0
  182.4500  177.9600  139.6650 C   0  0  0  0  0  2  0  0  0  0  0  0
  183.2020  177.9060  140.9840 C   0  0  0  0  0  2  0  0  0  0  0  0
  181.1310  179.0460  141.3810 C   0  0  0  0  0  2  0  0  0  0  0  0
  182.5470  178.9270  141.8860 C   0  0  0  0  0  3  0  0  0  0  0  0
  191.7330  176.6980  147.7560 S   0  0  0  0  0  0  0  0  0  0  0  0
  191.9410  175.7230  146.2430 C   0  0  0  0  0  1  0  0  0  0  0  0
  190.7830  178.7990  144.3870 O   0  0  0  0  0  0  0  0  0  0  0  0
  191.0180  178.8770  143.0120 C   0  0  0  0  0  2  0  0  0  0  0  0
  191.4030  177.5080  142.4660 C   0  0  0  0  0  2  0  0  0  0  0  0
  192.2290  177.4430  140.2080 N   0  0  0  0  0  2  0  0  0  0  0  0
  191.2100  177.4560  140.9870 C   0  0  0  0  0  0  0  0  0  0  0  0
  189.8330  177.1920  140.4480 C   0  0  0  0  0  2  0  0  0  0  0  0
  189.2490  178.3430  139.6240 C   0  0  2  0  0  3  0  0  0  0  0  0
  187.9210  178.6110  139.9700 O   0  0  0  0  0  1  0  0  0  0  0  0
  189.4680  178.2500  138.1090 C   0  0  2  0  0  3  0  0  0  0  0  0
  188.8420  179.3130  137.4560 O   0  0  0  0  0  1  0  0  0  0  0  0
  187.9660  176.4480  137.7480 O   0  0  0  0  0  0  0  0  0  0  0  0
  189.0920  176.9390  137.4720 C   0  0  0  0  0  0  0  0  0  0  0  0
  189.9570  176.2090  136.6510 O   0  0  0  0  0  0  0  0  0  0  0  0
  190.9360  175.3120  137.1510 C   0  0  0  0  0  2  0  0  0  0  0  0
  192.2370  175.4750  136.3830 C   0  0  0  0  0  2  0  0  0  0  0  0
  194.0060  174.7730  137.9930 O   0  0  0  0  0  1  0  0  0  0  0  0
  193.8660  176.9610  137.3360 O   0  0  0  0  0  0  0  0  0  0  0  0
  193.3940  175.7960  137.2790 C   0  0  0  0  0  0  0  0  0  0  0  0
  1 20  1  0  0  0  0
  1  3  2  0  0  0  0
  2 22  1  1  0  0  0
  2  5  1  0  0  0  0
  2  4  1  0  0  0  0
  4  1  1  0  0  0  0
  5  4  1  1  0  0  0
  6  8  1  6  0  0  0
  6  5  1  0  0  0  0
  6  9  1  0  0  0  0
  7  8  1  0  0  0  0
  7 11  2  0  0  0  0
 10  9  1  0  0  0  0
 11 10  1  0  0  0  0
 12 11  1  0  0  0  0
 12 13  1  0  0  0  0
 14 13  1  0  0  0  0
 15 18  1  0  0  0  0
 16 15  1  0  0  0  0
 16 17  1  0  0  0  0
 17 19  1  0  0  0  0
 18 19  1  0  0  0  0
 19 14  1  0  0  0  0
 21 20  1  0  0  0  0
 23 22  1  0  0  0  0
 24 23  1  0  0  0  0
 25 26  2  0  0  0  0
 26 24  1  0  0  0  0
 27 26  1  0  0  0  0
 28 29  1  6  0  0  0
 28 27  1  0  0  0  0
 30 31  1  6  0  0  0
 30 28  1  0  0  0  0
 33 32  2  0  0  0  0
 33 30  1  0  0  0  0
 34 35  1  0  0  0  0
 34 33  1  0  0  0  0
 36 35  1  0  0  0  0
 36 39  1  0  0  0  0
 39 38  2  0  0  0  0
 39 37  1  0  0  0  0
M  END
>  <MODEL>
3

>  <REMARK>
 VINA RESULT:      -7.0      3.920      7.727
  Name = 
  18 active torsions:
  status: ('A' for Active; 'I' for Inactive)
    1  A    between atoms: C_2  and  C_6
    2  A    between atoms: C_2  and  C_27
    3  A    between atoms: C_4  and  C_30
    4  A    between atoms: C_5  and  C_6
    5  A    between atoms: C_5  and  C_38
    6  A    between atoms: C_8  and  C_34
    7  A    between atoms: C_8  and  C_36
    8  A    between atoms: O_10  and  C_33
    9  A    between atoms: O_10  and  C_36
   10  A    between atoms: C_12  and  S_24
   11  A    between atoms: C_13  and  C_32
   12  A    between atoms: C_13  and  C_33
   13  A    between atoms: C_15  and  O_17
   14  A    between atoms: O_17  and  C_37
   15  A    between atoms: C_19  and  C_23
   16  A    between atoms: C_19  and  C_34
   17  A    between atoms: C_23  and  C_26
   18  A    between atoms: C_26  and  C_37
                            x       y       z     vdW  Elec       q    Type
                         _______ _______ _______ _____ _____    ______ ____

>  <TORSDO>
F 18

$$$$
=
 OpenBabel10232411043D

 39 41  0  0  1  0  0  0  0  0999 V2000
  181.2790  179.0600  141.6000 C   0  0  0  0  0  0  0  0  0  0  0  0
  183.6040  177.9160  140.4490 C   0  0  1  0  0  3  0  0  0  0  0  0
  181.0000  179.5210  142.7370 O   0  0  0  0  0  0  0  0  0  0  0  0
  182.5610  178.4970  141.3490 N   0  0  0  0  0  0  0  0  0  0  0  0
  183.8970  177.9950  141.7940 C   0  0  2  0  0  3  0  0  0  0  0  0
  184.8310  179.1690  142.0890 C   0  0  2  0  0  3  0  0  0  0  0  0
  186.9130  177.9350  142.8420 C   0  0  0  0  0  3  0  0  0  0  0  0
  186.2870  178.8120  141.7840 C   0  0  0  0  0  2  0  0  0  0  0  0
  184.7310  179.6480  143.5400 C   0  0  0  0  0  2  0  0  0  0  0  0
  185.1610  178.5460  144.5060 C   0  0  0  0  0  2  0  0  0  0  0  0
  186.4450  177.8710  144.1000 C   0  0  0  0  0  0  0  0  0  0  0  0
  187.1240  177.0110  145.1140 C   0  0  0  0  0  2  0  0  0  0  0  0
  188.2050  177.7900  145.8440 C   0  0  0  0  0  2  0  0  0  0  0  0
  189.4100  176.8980  146.0850 C   0  0  0  0  0  2  0  0  0  0  0  0
  191.2380  178.6180  143.3500 C   0  0  0  0  0  2  0  0  0  0  0  0
  191.6350  177.1720  143.1400 C   0  0  0  0  0  2  0  0  0  0  0  0
  191.1060  176.3900  144.3290 C   0  0  0  0  0  2  0  0  0  0  0  0
  190.2620  178.6270  144.5040 C   0  0  0  0  0  2  0  0  0  0  0  0
  190.6210  177.4160  145.3280 C   0  0  0  0  0  3  0  0  0  0  0  0
  180.0470  179.0970  140.3090 S   0  0  0  0  0  0  0  0  0  0  0  0
  180.9330  180.4040  139.4210 C   0  0  0  0  0  1  0  0  0  0  0  0
  183.2730  176.6010  140.1330 O   0  0  0  0  0  0  0  0  0  0  0  0
  182.7910  176.6530  138.8230 C   0  0  0  0  0  2  0  0  0  0  0  0
  183.6790  177.5500  137.9700 C   0  0  0  0  0  2  0  0  0  0  0  0
  184.2270  175.4820  136.8730 N   0  0  0  0  0  2  0  0  0  0  0  0
  184.4190  176.7470  136.9530 C   0  0  0  0  0  0  0  0  0  0  0  0
  185.2040  177.4690  135.8960 C   0  0  0  0  0  2  0  0  0  0  0  0
  186.6370  177.8180  136.3060 C   0  0  2  0  0  3  0  0  0  0  0  0
  187.5590  177.4970  135.3050 O   0  0  0  0  0  1  0  0  0  0  0  0
  187.0670  177.3300  137.6950 C   0  0  2  0  0  3  0  0  0  0  0  0
  187.4030  178.4100  138.5130 O   0  0  0  0  0  1  0  0  0  0  0  0
  187.8390  175.0990  137.4460 O   0  0  0  0  0  0  0  0  0  0  0  0
  188.1530  176.2880  137.7160 C   0  0  0  0  0  0  0  0  0  0  0  0
  189.4720  176.5620  138.0920 O   0  0  0  0  0  0  0  0  0  0  0  0
  190.5720  176.4740  137.2000 C   0  0  0  0  0  2  0  0  0  0  0  0
  191.6920  175.6600  137.8280 C   0  0  0  0  0  2  0  0  0  0  0  0
  193.8510  176.7530  137.2290 O   0  0  0  0  0  0  0  0  0  0  0  0
  192.9660  177.0440  139.3200 O   0  0  0  0  0  1  0  0  0  0  0  0
  192.8780  176.5020  138.1890 C   0  0  0  0  0  0  0  0  0  0  0  0
  1  3  2  0  0  0  0
  2 22  1  1  0  0  0
  2  4  1  0  0  0  0
  2  5  1  0  0  0  0
  4  1  1  0  0  0  0
  5  4  1  1  0  0  0
  5  6  1  0  0  0  0
  6  8  1  1  0  0  0
  6  9  1  0  0  0  0
  7 11  2  0  0  0  0
  8  7  1  0  0  0  0
  9 10  1  0  0  0  0
 11 10  1  0  0  0  0
 11 12  1  0  0  0  0
 12 13  1  0  0  0  0
 13 14  1  0  0  0  0
 15 18  1  0  0  0  0
 16 15  1  0  0  0  0
 16 17  1  0  0  0  0
 17 19  1  0  0  0  0
 18 19  1  0  0  0  0
 19 14  1  0  0  0  0
 20  1  1  0  0  0  0
 21 20  1  0  0  0  0
 23 22  1  0  0  0  0
 24 23  1  0  0  0  0
 25 26  2  0  0  0  0
 26 24  1  0  0  0  0
 27 28  1  0  0  0  0
 27 26  1  0  0  0  0
 28 29  1  6  0  0  0
 28 30  1  0  0  0  0
 30 33  1  0  0  0  0
 30 31  1  1  0  0  0
 32 33  2  0  0  0  0
 33 34  1  0  0  0  0
 35 36  1  0  0  0  0
 35 34  1  0  0  0  0
 36 39  1  0  0  0  0
 37 39  2  0  0  0  0
 39 38  1  0  0  0  0
M  END
>  <MODEL>
4

>  <REMARK>
 VINA RESULT:      -7.0      2.957      5.474
  Name = 
  18 active torsions:
  status: ('A' for Active; 'I' for Inactive)
    1  A    between atoms: C_2  and  C_6
    2  A    between atoms: C_2  and  C_27
    3  A    between atoms: C_4  and  C_30
    4  A    between atoms: C_5  and  C_6
    5  A    between atoms: C_5  and  C_38
    6  A    between atoms: C_8  and  C_34
    7  A    between atoms: C_8  and  C_36
    8  A    between atoms: O_10  and  C_33
    9  A    between atoms: O_10  and  C_36
   10  A    between atoms: C_12  and  S_24
   11  A    between atoms: C_13  and  C_32
   12  A    between atoms: C_13  and  C_33
   13  A    between atoms: C_15  and  O_17
   14  A    between atoms: O_17  and  C_37
   15  A    between atoms: C_19  and  C_23
   16  A    between atoms: C_19  and  C_34
   17  A    between atoms: C_23  and  C_26
   18  A    between atoms: C_26  and  C_37
                            x       y       z     vdW  Elec       q    Type
                         _______ _______ _______ _____ _____    ______ ____

>  <TORSDO>
F 18

$$$$
=
 OpenBabel10232411043D

 39 41  0  0  1  0  0  0  0  0999 V2000
  189.9920  177.5350  147.6080 C   0  0  0  0  0  0  0  0  0  0  0  0
  189.9530  177.5760  144.7740 C   0  0  1  0  0  3  0  0  0  0  0  0
  189.1120  177.6640  148.4990 O   0  0  0  0  0  0  0  0  0  0  0  0
  189.6460  177.6590  146.2340 N   0  0  0  0  0  0  0  0  0  0  0  0
  188.6950  178.0110  145.1350 C   0  0  2  0  0  3  0  0  0  0  0  0
  187.6560  176.9020  144.9600 C   0  0  2  0  0  3  0  0  0  0  0  0
  186.5720  177.6160  142.7830 C   0  0  0  0  0  3  0  0  0  0  0  0
  187.4250  176.5840  143.4820 C   0  0  0  0  0  2  0  0  0  0  0  0
  186.3140  177.2510  145.6090 C   0  0  0  0  0  2  0  0  0  0  0  0
  185.6950  178.4820  144.9500 C   0  0  0  0  0  2  0  0  0  0  0  0
  185.7300  178.4280  143.4450 C   0  0  0  0  0  0  0  0  0  0  0  0
  184.8850  179.4070  142.6980 C   0  0  0  0  0  2  0  0  0  0  0  0
  184.2870  178.7670  141.4570 C   0  0  0  0  0  2  0  0  0  0  0  0
  182.7730  178.7340  141.5730 C   0  0  0  0  0  2  0  0  0  0  0  0
  180.6860  176.2520  139.7660 C   0  0  0  0  0  2  0  0  0  0  0  0
  182.0870  175.8300  139.3820 C   0  0  0  0  0  2  0  0  0  0  0  0
  183.0310  176.9010  139.9020 C   0  0  0  0  0  2  0  0  0  0  0  0
  180.8380  177.4080  140.7280 C   0  0  0  0  0  2  0  0  0  0  0  0
  182.1580  178.0440  140.3670 C   0  0  0  0  0  3  0  0  0  0  0  0
  191.6830  177.2170  148.0820 S   0  0  0  0  0  0  0  0  0  0  0  0
  191.7180  175.6710  147.1380 C   0  0  0  0  0  1  0  0  0  0  0  0
  190.7200  178.6730  144.3910 O   0  0  0  0  0  0  0  0  0  0  0  0
  191.6660  178.1620  143.4990 C   0  0  0  0  0  2  0  0  0  0  0  0
  191.0930  176.9620  142.7560 C   0  0  0  0  0  2  0  0  0  0  0  0
  192.0420  177.5900  140.6380 N   0  0  0  0  0  2  0  0  0  0  0  0
  190.9970  177.2430  141.2940 C   0  0  0  0  0  0  0  0  0  0  0  0
  189.7240  176.8970  140.5750 C   0  0  0  0  0  2  0  0  0  0  0  0
  189.2540  177.9610  139.5810 C   0  0  2  0  0  3  0  0  0  0  0  0
  188.3870  178.8840  140.1750 O   0  0  0  0  0  1  0  0  0  0  0  0
  188.7370  177.4310  138.2380 C   0  0  2  0  0  3  0  0  0  0  0  0
  189.7690  177.3780  137.3000 O   0  0  0  0  0  1  0  0  0  0  0  0
  187.7390  179.1680  136.9630 O   0  0  0  0  0  0  0  0  0  0  0  0
  187.5390  178.1450  137.6690 C   0  0  0  0  0  0  0  0  0  0  0  0
  186.2200  177.7720  137.9480 O   0  0  0  0  0  0  0  0  0  0  0  0
  185.2840  177.4060  136.9450 C   0  0  0  0  0  2  0  0  0  0  0  0
  185.7920  176.2030  136.1680 C   0  0  0  0  0  2  0  0  0  0  0  0
  184.7160  174.3600  137.4550 O   0  0  0  0  0  1  0  0  0  0  0  0
  186.9960  174.4420  137.2720 O   0  0  0  0  0  0  0  0  0  0  0  0
  185.8840  174.9710  137.0160 C   0  0  0  0  0  0  0  0  0  0  0  0
  1 20  1  0  0  0  0
  1  3  2  0  0  0  0
  2 22  1  1  0  0  0
  2  5  1  0  0  0  0
  2  4  1  0  0  0  0
  4  1  1  0  0  0  0
  5  4  1  1  0  0  0
  6  8  1  6  0  0  0
  6  5  1  0  0  0  0
  6  9  1  0  0  0  0
  7 11  2  0  0  0  0
  7  8  1  0  0  0  0
 10  9  1  0  0  0  0
 11 10  1  0  0  0  0
 12 11  1  0  0  0  0
 13 14  1  0  0  0  0
 13 12  1  0  0  0  0
 15 18  1  0  0  0  0
 16 15  1  0  0  0  0
 16 17  1  0  0  0  0
 17 19  1  0  0  0  0
 19 18  1  0  0  0  0
 19 14  1  0  0  0  0
 21 20  1  0  0  0  0
 23 22  1  0  0  0  0
 24 23  1  0  0  0  0
 25 26  2  0  0  0  0
 26 24  1  0  0  0  0
 27 26  1  0  0  0  0
 28 29  1  1  0  0  0
 28 27  1  0  0  0  0
 30 31  1  6  0  0  0
 30 28  1  0  0  0  0
 32 33  2  0  0  0  0
 33 34  1  0  0  0  0
 33 30  1  0  0  0  0
 35 34  1  0  0  0  0
 36 35  1  0  0  0  0
 36 39  1  0  0  0  0
 39 38  2  0  0  0  0
 39 37  1  0  0  0  0
M  END
>  <MODEL>
5

>  <REMARK>
 VINA RESULT:      -7.0      3.590      8.268
  Name = 
  18 active torsions:
  status: ('A' for Active; 'I' for Inactive)
    1  A    between atoms: C_2  and  C_6
    2  A    between atoms: C_2  and  C_27
    3  A    between atoms: C_4  and  C_30
    4  A    between atoms: C_5  and  C_6
    5  A    between atoms: C_5  and  C_38
    6  A    between atoms: C_8  and  C_34
    7  A    between atoms: C_8  and  C_36
    8  A    between atoms: O_10  and  C_33
    9  A    between atoms: O_10  and  C_36
   10  A    between atoms: C_12  and  S_24
   11  A    between atoms: C_13  and  C_32
   12  A    between atoms: C_13  and  C_33
   13  A    between atoms: C_15  and  O_17
   14  A    between atoms: O_17  and  C_37
   15  A    between atoms: C_19  and  C_23
   16  A    between atoms: C_19  and  C_34
   17  A    between atoms: C_23  and  C_26
   18  A    between atoms: C_26  and  C_37
                            x       y       z     vdW  Elec       q    Type
                         _______ _______ _______ _____ _____    ______ ____

>  <TORSDO>
F 18

$$$$
=
 OpenBabel10232411043D

 39 41  0  0  1  0  0  0  0  0999 V2000
  191.4070  175.7180  138.0120 C   0  0  0  0  0  0  0  0  0  0  0  0
  189.5880  177.8920  138.0800 C   0  0  1  0  0  3  0  0  0  0  0  0
  191.2910  174.4850  137.7880 O   0  0  0  0  0  0  0  0  0  0  0  0
  190.2580  176.5570  138.0190 N   0  0  0  0  0  0  0  0  0  0  0  0
  188.7790  176.7770  138.0070 C   0  0  2  0  0  3  0  0  0  0  0  0
  188.2280  176.5860  136.5930 C   0  0  2  0  0  3  0  0  0  0  0  0
  186.0960  177.9500  136.7330 C   0  0  0  0  0  3  0  0  0  0  0  0
  187.4700  177.8280  136.1180 C   0  0  0  0  0  2  0  0  0  0  0  0
  187.3060  175.3690  136.4840 C   0  0  0  0  0  2  0  0  0  0  0  0
  186.0740  175.5390  137.3690 C   0  0  0  0  0  2  0  0  0  0  0  0
  185.4310  176.8960  137.2340 C   0  0  0  0  0  0  0  0  0  0  0  0
  184.0600  177.0690  137.7990 C   0  0  0  0  0  2  0  0  0  0  0  0
  183.9780  178.3340  138.6370 C   0  0  0  0  0  2  0  0  0  0  0  0
  182.7670  178.2690  139.5500 C   0  0  0  0  0  2  0  0  0  0  0  0
  183.1570  178.9490  143.1790 C   0  0  0  0  0  2  0  0  0  0  0  0
  184.5890  178.9930  142.6900 C   0  0  0  0  0  2  0  0  0  0  0  0
  184.5780  178.5270  141.2440 C   0  0  0  0  0  2  0  0  0  0  0  0
  182.2970  178.7210  141.9570 C   0  0  0  0  0  2  0  0  0  0  0  0
  183.1890  177.9920  140.9830 C   0  0  0  0  0  3  0  0  0  0  0  0
  193.0200  176.4050  138.3430 S   0  0  0  0  0  0  0  0  0  0  0  0
  193.5690  176.0850  136.6450 C   0  0  0  0  0  1  0  0  0  0  0  0
  189.5940  178.3620  139.3910 O   0  0  0  0  0  0  0  0  0  0  0  0
  188.3280  178.0520  139.8950 C   0  0  0  0  0  2  0  0  0  0  0  0
  188.2170  178.4970  141.3480 C   0  0  0  0  0  2  0  0  0  0  0  0
  188.3640  176.4740  142.6400 N   0  0  0  0  0  2  0  0  0  0  0  0
  188.9400  177.5500  142.2460 C   0  0  0  0  0  0  0  0  0  0  0  0
  190.4060  177.7640  142.4890 C   0  0  0  0  0  2  0  0  0  0  0  0
  190.7460  178.2370  143.9050 C   0  0  2  0  0  3  0  0  0  0  0  0
  191.3420  179.5020  143.9040 O   0  0  0  0  0  1  0  0  0  0  0  0
  191.4930  177.2230  144.7810 C   0  0  2  0  0  3  0  0  0  0  0  0
  191.6450  176.0100  144.1070 O   0  0  0  0  0  1  0  0  0  0  0  0
  191.7210  176.9150  147.1240 O   0  0  0  0  0  0  0  0  0  0  0  0
  190.9210  176.9990  146.1560 C   0  0  0  0  0  0  0  0  0  0  0  0
  189.5570  176.8080  146.3980 O   0  0  0  0  0  0  0  0  0  0  0  0
  188.5710  177.7930  146.1280 C   0  0  0  0  0  2  0  0  0  0  0  0
  187.4740  177.7370  147.1790 C   0  0  0  0  0  2  0  0  0  0  0  0
  185.4500  177.9670  145.7420 O   0  0  0  0  0  0  0  0  0  0  0  0
  185.8770  179.5210  147.3660 O   0  0  0  0  0  1  0  0  0  0  0  0
  186.2430  178.4820  146.7600 C   0  0  0  0  0  0  0  0  0  0  0  0
  1  4  1  0  0  0  0
  1 20  1  0  0  0  0
  2 22  1  1  0  0  0
  3  1  2  0  0  0  0
  4  2  1  0  0  0  0
  5  4  1  6  0  0  0
  5  2  1  0  0  0  0
  6  8  1  1  0  0  0
  6  5  1  0  0  0  0
  7 11  2  0  0  0  0
  8  7  1  0  0  0  0
  9  6  1  0  0  0  0
  9 10  1  0  0  0  0
 11 10  1  0  0  0  0
 11 12  1  0  0  0  0
 12 13  1  0  0  0  0
 13 14  1  0  0  0  0
 14 19  1  0  0  0  0
 16 15  1  0  0  0  0
 17 16  1  0  0  0  0
 18 15  1  0  0  0  0
 19 17  1  0  0  0  0
 19 18  1  0  0  0  0
 21 20  1  0  0  0  0
 22 23  1  0  0  0  0
 23 24  1  0  0  0  0
 24 26  1  0  0  0  0
 26 27  1  0  0  0  0
 26 25  2  0  0  0  0
 27 28  1  0  0  0  0
 28 29  1  6  0  0  0
 28 30  1  0  0  0  0
 30 31  1  6  0  0  0
 30 33  1  0  0  0  0
 33 34  1  0  0  0  0
 33 32  2  0  0  0  0
 35 34  1  0  0  0  0
 35 36  1  0  0  0  0
 37 39  2  0  0  0  0
 39 36  1  0  0  0  0
 39 38  1  0  0  0  0
M  END
>  <MODEL>
6

>  <REMARK>
 VINA RESULT:      -6.9      3.112      5.816
  Name = 
  18 active torsions:
  status: ('A' for Active; 'I' for Inactive)
    1  A    between atoms: C_2  and  C_6
    2  A    between atoms: C_2  and  C_27
    3  A    between atoms: C_4  and  C_30
    4  A    between atoms: C_5  and  C_6
    5  A    between atoms: C_5  and  C_38
    6  A    between atoms: C_8  and  C_34
    7  A    between atoms: C_8  and  C_36
    8  A    between atoms: O_10  and  C_33
    9  A    between atoms: O_10  and  C_36
   10  A    between atoms: C_12  and  S_24
   11  A    between atoms: C_13  and  C_32
   12  A    between atoms: C_13  and  C_33
   13  A    between atoms: C_15  and  O_17
   14  A    between atoms: O_17  and  C_37
   15  A    between atoms: C_19  and  C_23
   16  A    between atoms: C_19  and  C_34
   17  A    between atoms: C_23  and  C_26
   18  A    between atoms: C_26  and  C_37
                            x       y       z     vdW  Elec       q    Type
                         _______ _______ _______ _____ _____    ______ ____

>  <TORSDO>
F 18

$$$$
=
 OpenBabel10232411043D

 39 41  0  0  1  0  0  0  0  0999 V2000
  190.7000  176.8910  147.0720 C   0  0  0  0  0  0  0  0  0  0  0  0
  188.9380  177.1070  144.8620 C   0  0  1  0  0  3  0  0  0  0  0  0
  190.6950  177.3490  148.2450 O   0  0  0  0  0  0  0  0  0  0  0  0
  189.6600  177.2360  146.1640 N   0  0  0  0  0  0  0  0  0  0  0  0
  188.4640  178.0370  145.7630 C   0  0  2  0  0  3  0  0  0  0  0  0
  187.2170  177.5230  146.4850 C   0  0  2  0  0  3  0  0  0  0  0  0
  185.5260  177.5810  144.5980 C   0  0  0  0  0  3  0  0  0  0  0  0
  186.3230  176.7140  145.5430 C   0  0  0  0  0  2  0  0  0  0  0  0
  186.3920  178.6530  147.1050 C   0  0  0  0  0  2  0  0  0  0  0  0
  185.8640  179.5960  146.0260 C   0  0  0  0  0  2  0  0  0  0  0  0
  185.2550  178.8710  144.8540 C   0  0  0  0  0  0  0  0  0  0  0  0
  184.4320  179.6720  143.8990 C   0  0  0  0  0  2  0  0  0  0  0  0
  183.8350  178.7820  142.8230 C   0  0  0  0  0  2  0  0  0  0  0  0
  184.7240  178.7940  141.5920 C   0  0  0  0  0  2  0  0  0  0  0  0
  182.7700  177.4140  138.7520 C   0  0  0  0  0  2  0  0  0  0  0  0
  183.9830  177.9920  138.0550 C   0  0  0  0  0  2  0  0  0  0  0  0
  184.7670  178.7680  139.0990 C   0  0  0  0  0  2  0  0  0  0  0  0
  182.9900  177.6250  140.2330 C   0  0  0  0  0  2  0  0  0  0  0  0
  183.8860  178.8350  140.3250 C   0  0  0  0  0  3  0  0  0  0  0  0
  192.0310  175.8240  146.5500 S   0  0  0  0  0  0  0  0  0  0  0  0
  192.7370  175.7910  148.2180 C   0  0  0  0  0  1  0  0  0  0  0  0
  189.6490  177.7660  143.8620 O   0  0  0  0  0  0  0  0  0  0  0  0
  189.3360  177.0820  142.6840 C   0  0  0  0  0  2  0  0  0  0  0  0
  188.5990  178.0040  141.7210 C   0  0  0  0  0  2  0  0  0  0  0  0
  190.3600  177.4300  140.1880 N   0  0  0  0  0  2  0  0  0  0  0  0
  189.1850  177.9150  140.3520 C   0  0  0  0  0  0  0  0  0  0  0  0
  188.2990  178.1860  139.1690 C   0  0  0  0  0  2  0  0  0  0  0  0
  189.0540  178.4100  137.8560 C   0  0  2  0  0  3  0  0  0  0  0  0
  188.9700  179.7370  137.4260 O   0  0  0  0  0  1  0  0  0  0  0  0
  188.7610  177.3980  136.7420 C   0  0  2  0  0  3  0  0  0  0  0  0
  187.3890  177.1640  136.6390 O   0  0  0  0  0  1  0  0  0  0  0  0
  188.8730  175.0280  136.6750 O   0  0  0  0  0  0  0  0  0  0  0  0
  189.5180  176.0990  136.8220 C   0  0  0  0  0  0  0  0  0  0  0  0
  190.8820  176.0220  137.1240 O   0  0  0  0  0  0  0  0  0  0  0  0
  191.7830  175.1590  136.4480 C   0  0  0  0  0  2  0  0  0  0  0  0
  192.7600  174.5450  137.4370 C   0  0  0  0  0  2  0  0  0  0  0  0
  194.1580  176.5220  136.8440 O   0  0  0  0  0  0  0  0  0  0  0  0
  194.8540  175.0850  138.4830 O   0  0  0  0  0  1  0  0  0  0  0  0
  193.9980  175.3730  137.6080 C   0  0  0  0  0  0  0  0  0  0  0  0
  1  3  2  0  0  0  0
  2 22  1  6  0  0  0
  2  5  1  0  0  0  0
  2  4  1  0  0  0  0
  4  1  1  0  0  0  0
  5  4  1  1  0  0  0
  5  6  1  0  0  0  0
  6  8  1  6  0  0  0
  6  9  1  0  0  0  0
  7 11  2  0  0  0  0
  7  8  1  0  0  0  0
 10  9  1  0  0  0  0
 11 10  1  0  0  0  0
 12 11  1  0  0  0  0
 13 12  1  0  0  0  0
 14 13  1  0  0  0  0
 15 18  1  0  0  0  0
 16 15  1  0  0  0  0
 16 17  1  0  0  0  0
 17 19  1  0  0  0  0
 18 19  1  0  0  0  0
 19 14  1  0  0  0  0
 20  1  1  0  0  0  0
 20 21  1  0  0  0  0
 23 22  1  0  0  0  0
 24 23  1  0  0  0  0
 25 26  2  0  0  0  0
 26 24  1  0  0  0  0
 27 26  1  0  0  0  0
 28 29  1  6  0  0  0
 28 27  1  0  0  0  0
 30 31  1  1  0  0  0
 30 33  1  0  0  0  0
 30 28  1  0  0  0  0
 32 33  2  0  0  0  0
 33 34  1  0  0  0  0
 35 34  1  0  0  0  0
 35 36  1  0  0  0  0
 36 39  1  0  0  0  0
 37 39  2  0  0  0  0
 39 38  1  0  0  0  0
M  END
>  <MODEL>
7

>  <REMARK>
 VINA RESULT:      -6.7      3.712      7.974
  Name = 
  18 active torsions:
  status: ('A' for Active; 'I' for Inactive)
    1  A    between atoms: C_2  and  C_6
    2  A    between atoms: C_2  and  C_27
    3  A    between atoms: C_4  and  C_30
    4  A    between atoms: C_5  and  C_6
    5  A    between atoms: C_5  and  C_38
    6  A    between atoms: C_8  and  C_34
    7  A    between atoms: C_8  and  C_36
    8  A    between atoms: O_10  and  C_33
    9  A    between atoms: O_10  and  C_36
   10  A    between atoms: C_12  and  S_24
   11  A    between atoms: C_13  and  C_32
   12  A    between atoms: C_13  and  C_33
   13  A    between atoms: C_15  and  O_17
   14  A    between atoms: O_17  and  C_37
   15  A    between atoms: C_19  and  C_23
   16  A    between atoms: C_19  and  C_34
   17  A    between atoms: C_23  and  C_26
   18  A    between atoms: C_26  and  C_37
                            x       y       z     vdW  Elec       q    Type
                         _______ _______ _______ _____ _____    ______ ____

>  <TORSDO>
F 18

$$$$
=
 OpenBabel10232411043D

 39 41  0  0  1  0  0  0  0  0999 V2000
  190.1600  177.3910  147.6520 C   0  0  0  0  0  0  0  0  0  0  0  0
  189.9410  177.3680  144.8260 C   0  0  1  0  0  3  0  0  0  0  0  0
  189.3500  177.6040  148.5920 O   0  0  0  0  0  0  0  0  0  0  0  0
  189.7350  177.5070  146.2990 N   0  0  0  0  0  0  0  0  0  0  0  0
  188.7430  177.9000  145.2520 C   0  0  2  0  0  3  0  0  0  0  0  0
  187.6190  176.8650  145.1750 C   0  0  2  0  0  3  0  0  0  0  0  0
  186.4240  177.6270  143.0740 C   0  0  0  0  0  3  0  0  0  0  0  0
  187.2550  176.5460  143.7230 C   0  0  0  0  0  2  0  0  0  0  0  0
  186.3580  177.3130  145.9170 C   0  0  0  0  0  2  0  0  0  0  0  0
  185.7770  178.5770  145.2860 C   0  0  0  0  0  2  0  0  0  0  0  0
  185.6930  178.5030  143.7830 C   0  0  0  0  0  0  0  0  0  0  0  0
  184.8630  179.5300  143.0870 C   0  0  0  0  0  2  0  0  0  0  0  0
  184.6040  179.1280  141.6450 C   0  0  0  0  0  2  0  0  0  0  0  0
  183.1830  178.6140  141.5000 C   0  0  0  0  0  2  0  0  0  0  0  0
  183.6890  177.9520  137.8820 C   0  0  0  0  0  2  0  0  0  0  0  0
  182.2340  178.3630  137.9310 C   0  0  0  0  0  2  0  0  0  0  0  0
  181.8510  178.4670  139.3970 C   0  0  0  0  0  2  0  0  0  0  0  0
  184.2150  178.0790  139.2940 C   0  0  0  0  0  2  0  0  0  0  0  0
  183.0080  177.8860  140.1780 C   0  0  0  0  0  3  0  0  0  0  0  0
  191.8510  176.9650  148.0280 S   0  0  0  0  0  0  0  0  0  0  0  0
  191.9040  175.7490  146.6860 C   0  0  0  0  0  1  0  0  0  0  0  0
  190.7570  178.3980  144.3650 O   0  0  0  0  0  0  0  0  0  0  0  0
  190.4850  178.4920  142.9980 C   0  0  0  0  0  2  0  0  0  0  0  0
  190.9920  177.2510  142.2740 C   0  0  0  0  0  2  0  0  0  0  0  0
  191.8790  177.5280  140.0560 N   0  0  0  0  0  2  0  0  0  0  0  0
  190.8400  177.4020  140.7970 C   0  0  0  0  0  0  0  0  0  0  0  0
  189.4870  177.1760  140.1850 C   0  0  0  0  0  2  0  0  0  0  0  0
  188.8830  178.4170  139.5220 C   0  0  2  0  0  3  0  0  0  0  0  0
  187.6060  178.7030  140.0140 O   0  0  0  0  0  1  0  0  0  0  0  0
  188.9570  178.4520  137.9900 C   0  0  2  0  0  3  0  0  0  0  0  0
  188.9870  179.7690  137.5300 O   0  0  0  0  0  1  0  0  0  0  0  0
  187.4380  178.1310  136.1950 O   0  0  0  0  0  0  0  0  0  0  0  0
  187.9030  177.6590  137.2650 C   0  0  0  0  0  0  0  0  0  0  0  0
  187.3640  176.4670  137.7600 O   0  0  0  0  0  0  0  0  0  0  0  0
  187.1510  175.3150  136.9580 C   0  0  0  0  0  2  0  0  0  0  0  0
  188.4210  174.9600  136.2030 C   0  0  0  0  0  2  0  0  0  0  0  0
  188.4010  172.4710  136.0740 O   0  0  0  0  0  0  0  0  0  0  0  0
  189.9800  173.5340  137.3450 O   0  0  0  0  0  1  0  0  0  0  0  0
  188.9690  173.6240  136.6020 C   0  0  0  0  0  0  0  0  0  0  0  0
  1 20  1  0  0  0  0
  1  3  2  0  0  0  0
  2 22  1  6  0  0  0
  2  5  1  0  0  0  0
  2  4  1  0  0  0  0
  4  1  1  0  0  0  0
  5  4  1  1  0  0  0
  6  8  1  6  0  0  0
  6  5  1  0  0  0  0
  6  9  1  0  0  0  0
  7  8  1  0  0  0  0
  7 11  2  0  0  0  0
 10  9  1  0  0  0  0
 11 10  1  0  0  0  0
 12 11  1  0  0  0  0
 13 12  1  0  0  0  0
 14 13  1  0  0  0  0
 15 16  1  0  0  0  0
 15 18  1  0  0  0  0
 16 17  1  0  0  0  0
 17 19  1  0  0  0  0
 18 19  1  0  0  0  0
 19 14  1  0  0  0  0
 21 20  1  0  0  0  0
 23 22  1  0  0  0  0
 24 23  1  0  0  0  0
 25 26  2  0  0  0  0
 26 24  1  0  0  0  0
 27 26  1  0  0  0  0
 28 29  1  6  0  0  0
 28 27  1  0  0  0  0
 30 31  1  6  0  0  0
 30 28  1  0  0  0  0
 32 33  2  0  0  0  0
 33 34  1  0  0  0  0
 33 30  1  0  0  0  0
 35 34  1  0  0  0  0
 36 39  1  0  0  0  0
 36 35  1  0  0  0  0
 37 39  2  0  0  0  0
 39 38  1  0  0  0  0
M  END
>  <MODEL>
8

>  <REMARK>
 VINA RESULT:      -6.7      3.666      8.180
  Name = 
  18 active torsions:
  status: ('A' for Active; 'I' for Inactive)
    1  A    between atoms: C_2  and  C_6
    2  A    between atoms: C_2  and  C_27
    3  A    between atoms: C_4  and  C_30
    4  A    between atoms: C_5  and  C_6
    5  A    between atoms: C_5  and  C_38
    6  A    between atoms: C_8  and  C_34
    7  A    between atoms: C_8  and  C_36
    8  A    between atoms: O_10  and  C_33
    9  A    between atoms: O_10  and  C_36
   10  A    between atoms: C_12  and  S_24
   11  A    between atoms: C_13  and  C_32
   12  A    between atoms: C_13  and  C_33
   13  A    between atoms: C_15  and  O_17
   14  A    between atoms: O_17  and  C_37
   15  A    between atoms: C_19  and  C_23
   16  A    between atoms: C_19  and  C_34
   17  A    between atoms: C_23  and  C_26
   18  A    between atoms: C_26  and  C_37
                            x       y       z     vdW  Elec       q    Type
                         _______ _______ _______ _____ _____    ______ ____

>  <TORSDO>
F 18

$$$$
=
 OpenBabel10232411043D

 39 41  0  0  1  0  0  0  0  0999 V2000
  190.1650  177.3900  147.4820 C   0  0  0  0  0  0  0  0  0  0  0  0
  190.1050  177.3210  144.6480 C   0  0  1  0  0  3  0  0  0  0  0  0
  189.3120  177.6460  148.3710 O   0  0  0  0  0  0  0  0  0  0  0  0
  189.8210  177.4950  146.1050 N   0  0  0  0  0  0  0  0  0  0  0  0
  188.9020  177.9000  144.9970 C   0  0  2  0  0  3  0  0  0  0  0  0
  187.7510  176.9000  144.8740 C   0  0  2  0  0  3  0  0  0  0  0  0
  186.3310  178.0380  143.1100 C   0  0  0  0  0  3  0  0  0  0  0  0
  187.2060  176.8540  143.4450 C   0  0  0  0  0  2  0  0  0  0  0  0
  186.6010  177.2100  145.8350 C   0  0  0  0  0  2  0  0  0  0  0  0
  185.9810  178.5690  145.5210 C   0  0  0  0  0  2  0  0  0  0  0  0
  185.7140  178.7720  144.0510 C   0  0  0  0  0  0  0  0  0  0  0  0
  184.8330  179.9120  143.6610 C   0  0  0  0  0  2  0  0  0  0  0  0
  183.3990  179.6600  144.0980 C   0  0  0  0  0  2  0  0  0  0  0  0
  182.8430  178.4520  143.3670 C   0  0  0  0  0  2  0  0  0  0  0  0
  180.8540  178.4480  140.2330 C   0  0  0  0  0  2  0  0  0  0  0  0
  182.0800  177.6580  139.8330 C   0  0  0  0  0  2  0  0  0  0  0  0
  183.0690  177.7620  140.9810 C   0  0  0  0  0  2  0  0  0  0  0  0
  181.0190  178.7790  141.6980 C   0  0  0  0  0  2  0  0  0  0  0  0
  182.5110  178.8010  141.9260 C   0  0  0  0  0  3  0  0  0  0  0  0
  191.8180  176.9160  147.9590 S   0  0  0  0  0  0  0  0  0  0  0  0
  191.7500  175.4250  146.9320 C   0  0  0  0  0  1  0  0  0  0  0  0
  190.9790  178.3170  144.2170 O   0  0  0  0  0  0  0  0  0  0  0  0
  190.6980  178.4830  142.8590 C   0  0  0  0  0  2  0  0  0  0  0  0
  191.2030  177.2840  142.0670 C   0  0  0  0  0  2  0  0  0  0  0  0
  189.2140  177.3830  140.7190 N   0  0  0  0  0  2  0  0  0  0  0  0
  190.4760  177.1640  140.7690 C   0  0  0  0  0  0  0  0  0  0  0  0
  191.2750  177.0110  139.5060 C   0  0  0  0  0  2  0  0  0  0  0  0
  190.6730  176.0320  138.4960 C   0  0  2  0  0  3  0  0  0  0  0  0
  191.5460  174.9810  138.2020 O   0  0  0  0  0  1  0  0  0  0  0  0
  190.0560  176.6680  137.2430 C   0  0  2  0  0  3  0  0  0  0  0  0
  189.7990  178.0230  137.4560 O   0  0  0  0  0  1  0  0  0  0  0  0
  188.4230  174.9460  137.2810 O   0  0  0  0  0  0  0  0  0  0  0  0
  188.8400  175.9760  136.6890 C   0  0  0  0  0  0  0  0  0  0  0  0
  188.1980  176.3760  135.5120 O   0  0  0  0  0  0  0  0  0  0  0  0
  186.8350  176.7660  135.4600 C   0  0  0  0  0  2  0  0  0  0  0  0
  186.6360  178.0780  136.2010 C   0  0  0  0  0  2  0  0  0  0  0  0
  186.7410  178.4440  138.6650 O   0  0  0  0  0  1  0  0  0  0  0  0
  184.9950  177.2730  137.7590 O   0  0  0  0  0  0  0  0  0  0  0  0
  186.0830  177.8780  137.5790 C   0  0  0  0  0  0  0  0  0  0  0  0
  1 20  1  0  0  0  0
  1  3  2  0  0  0  0
  2 22  1  6  0  0  0
  2  5  1  0  0  0  0
  2  4  1  0  0  0  0
  4  1  1  0  0  0  0
  5  4  1  1  0  0  0
  6  8  1  6  0  0  0
  6  5  1  0  0  0  0
  6  9  1  0  0  0  0
  7  8  1  0  0  0  0
  7 11  2  0  0  0  0
 10  9  1  0  0  0  0
 11 10  1  0  0  0  0
 12 11  1  0  0  0  0
 12 13  1  0  0  0  0
 14 13  1  0  0  0  0
 15 18  1  0  0  0  0
 16 15  1  0  0  0  0
 16 17  1  0  0  0  0
 17 19  1  0  0  0  0
 18 19  1  0  0  0  0
 19 14  1  0  0  0  0
 21 20  1  0  0  0  0
 23 22  1  0  0  0  0
 24 23  1  0  0  0  0
 25 26  2  0  0  0  0
 26 24  1  0  0  0  0
 27 26  1  0  0  0  0
 28 29  1  6  0  0  0
 28 27  1  0  0  0  0
 30 31  1  1  0  0  0
 30 28  1  0  0  0  0
 33 30  1  0  0  0  0
 33 32  2  0  0  0  0
 34 33  1  0  0  0  0
 35 34  1  0  0  0  0
 35 36  1  0  0  0  0
 36 39  1  0  0  0  0
 39 38  2  0  0  0  0
 39 37  1  0  0  0  0
M  END
>  <MODEL>
9

>  <REMARK>
 VINA RESULT:      -6.6      3.565      8.030
  Name = 
  18 active torsions:
  status: ('A' for Active; 'I' for Inactive)
    1  A    between atoms: C_2  and  C_6
    2  A    between atoms: C_2  and  C_27
    3  A    between atoms: C_4  and  C_30
    4  A    between atoms: C_5  and  C_6
    5  A    between atoms: C_5  and  C_38
    6  A    between atoms: C_8  and  C_34
    7  A    between atoms: C_8  and  C_36
    8  A    between atoms: O_10  and  C_33
    9  A    between atoms: O_10  and  C_36
   10  A    between atoms: C_12  and  S_24
   11  A    between atoms: C_13  and  C_32
   12  A    between atoms: C_13  and  C_33
   13  A    between atoms: C_15  and  O_17
   14  A    between atoms: O_17  and  C_37
   15  A    between atoms: C_19  and  C_23
   16  A    between atoms: C_19  and  C_34
   17  A    between atoms: C_23  and  C_26
   18  A    between atoms: C_26  and  C_37
                            x       y       z     vdW  Elec       q    Type
                         _______ _______ _______ _____ _____    ______ ____

>  <TORSDO>
F 18

$$$$
