=
 OpenBabel10232408113D

 38 40  0  0  1  0  0  0  0  0999 V2000
  186.2670  178.2770  137.7290 C   0  0  0  0  0  3  0  0  0  0  0  0
  185.2850  178.5120  138.8660 C   0  0  0  0  0  2  0  0  0  0  0  0
  187.5520  177.9420  137.9250 C   0  0  0  0  0  0  0  0  0  0  0  0
  187.9150  178.3170  141.5710 N   0  0  0  0  0  0  0  0  0  0  0  0
  187.2930  178.3270  140.3630 C   0  0  0  0  0  0  0  0  0  0  0  0
  189.5940  177.5340  139.8570 S   0  0  0  0  0  0  0  0  0  0  0  0
  189.2020  177.8940  141.4690 C   0  0  0  0  0  0  0  0  0  0  0  0
  185.9410  178.7570  140.1580 N   0  0  0  0  0  0  0  0  0  0  0  0
  188.0600  177.9230  139.2970 C   0  0  0  0  0  0  0  0  0  0  0  0
  191.8050  177.7470  144.8840 C   0  0  0  0  0  3  0  0  0  0  0  0
  190.5010  178.9820  143.2700 C   0  0  0  0  0  3  0  0  0  0  0  0
  191.8760  175.3740  144.7780 F   0  0  0  0  0  0  0  0  0  0  0  0
  190.2150  175.3470  142.5870 O   0  0  0  0  0  1  0  0  0  0  0  0
  190.5730  176.5620  143.1610 C   0  0  0  0  0  0  0  0  0  0  0  0
  191.3460  178.9630  144.3810 C   0  0  0  0  0  3  0  0  0  0  0  0
  190.1020  177.7920  142.6440 C   0  0  0  0  0  0  0  0  0  0  0  0
  191.4210  176.5510  144.2780 C   0  0  0  0  0  0  0  0  0  0  0  0
  188.4560  177.6950  136.8360 N   0  0  0  0  0  2  0  0  0  0  0  0
  189.5840  176.4130  135.2620 O   0  0  0  0  0  0  0  0  0  0  0  0
  188.8680  176.4300  136.2970 C   0  0  0  0  0  0  0  0  0  0  0  0
  188.5260  175.1280  136.9500 C   0  0  0  0  0  2  0  0  0  0  0  0
  189.6690  174.1350  136.8160 C   0  0  0  0  0  2  0  0  0  0  0  0
  190.6740  174.3770  137.8470 N   0  0  0  0  0  2  0  0  0  0  0  0
  192.5840  175.6650  137.3740 O   0  0  0  0  0  1  0  0  0  0  0  0
  192.0070  174.4010  137.2450 C   0  0  0  0  0  3  0  0  0  0  0  0
  191.9470  174.0340  135.8980 O   0  0  0  0  0  1  0  0  0  0  0  0
  185.1310  179.2250  141.2720 C   0  0  0  0  0  2  0  0  0  0  0  0
  184.5350  178.0390  142.0140 C   0  0  0  0  0  2  0  0  0  0  0  0
  184.8190  178.1370  143.5050 C   0  0  0  0  0  2  0  0  0  0  0  0
  182.5660  178.8940  143.7390 O   0  0  0  0  0  1  0  0  0  0  0  0
  183.8690  179.1130  144.1880 C   0  0  1  0  0  3  0  0  0  0  0  0
  183.9150  178.9130  145.6940 C   0  0  0  0  0  2  0  0  0  0  0  0
  185.2430  178.3130  146.1290 C   0  0  0  0  0  2  0  0  0  0  0  0
  185.9430  179.2410  147.1040 C   0  0  0  0  0  2  0  0  0  0  0  0
  186.9360  178.5390  147.7850 O   0  0  0  0  0  0  0  0  0  0  0  0
  187.6420  177.8750  146.7820 C   0  0  0  0  0  2  0  0  0  0  0  0
  189.5800  177.4190  147.7300 C   0  0  0  0  0  1  0  0  0  0  0  0
  188.3770  176.8310  147.3410 O   0  0  0  0  0  0  0  0  0  0  0  0
  1  3  2  0  0  0  0
  1  2  1  0  0  0  0
  2  8  1  0  0  0  0
  3  9  1  0  0  0  0
  5  4  1  0  0  0  0
  6  7  1  0  0  0  0
  7  4  2  0  0  0  0
  7 16  1  0  0  0  0
  8  5  1  0  0  0  0
  8 27  1  0  0  0  0
  9  6  1  0  0  0  0
  9  5  2  0  0  0  0
 11 15  2  0  0  0  0
 13 14  1  0  0  0  0
 14 17  1  0  0  0  0
 15 10  1  0  0  0  0
 16 14  2  0  0  0  0
 16 11  1  0  0  0  0
 17 12  1  0  0  0  0
 17 10  2  0  0  0  0
 18  3  1  0  0  0  0
 19 20  2  0  0  0  0
 20 18  1  0  0  0  0
 20 21  1  0  0  0  0
 22 21  1  0  0  0  0
 22 23  1  0  0  0  0
 25 24  1  0  0  0  0
 25 23  1  0  0  0  0
 26 25  1  0  0  0  0
 27 28  1  0  0  0  0
 28 29  1  0  0  0  0
 29 31  1  0  0  0  0
 31 30  1  6  0  0  0
 31 32  1  0  0  0  0
 32 33  1  0  0  0  0
 33 34  1  0  0  0  0
 34 35  1  0  0  0  0
 36 38  1  0  0  0  0
 36 35  1  0  0  0  0
 38 37  1  0  0  0  0
M  END
>  <MODEL>
1

>  <REMARK>
 VINA RESULT:      -7.1      0.000      0.000
  Name = 
  16 active torsions:
  status: ('A' for Active; 'I' for Inactive)
    1  A    between atoms: C_3  and  C_11
    2  A    between atoms: C_3  and  C_27
    3  A    between atoms: C_4  and  C_11
    4  A    between atoms: C_4  and  C_34
    5  A    between atoms: C_5  and  O_35
    6  A    between atoms: C_5  and  O_38
    7  A    between atoms: C_9  and  N_10
    8  A    between atoms: C_17  and  C_25
    9  A    between atoms: C_17  and  C_30
   10  A    between atoms: C_18  and  C_34
   11  A    between atoms: C_18  and  O_35
   12  A    between atoms: C_20  and  N_32
   13  A    between atoms: C_21  and  C_27
   14  A    between atoms: C_21  and  N_36
   15  A    between atoms: C_28  and  C_33
   16  A    between atoms: C_30  and  N_32
                            x       y       z     vdW  Elec       q    Type
                         _______ _______ _______ _____ _____    ______ ____

>  <TORSDO>
F 16

$$$$
=
 OpenBabel10232408113D

 38 40  0  0  1  0  0  0  0  0999 V2000
  187.3310  178.0890  142.4210 C   0  0  0  0  0  3  0  0  0  0  0  0
  188.2370  177.2470  143.3030 C   0  0  0  0  0  2  0  0  0  0  0  0
  187.4430  178.1380  141.0840 C   0  0  0  0  0  0  0  0  0  0  0  0
  190.5710  176.2830  140.4910 N   0  0  0  0  0  0  0  0  0  0  0  0
  189.5520  176.8340  141.2030 C   0  0  0  0  0  0  0  0  0  0  0  0
  188.9660  177.3080  138.8340 S   0  0  0  0  0  0  0  0  0  0  0  0
  190.3970  176.4520  139.1550 C   0  0  0  0  0  0  0  0  0  0  0  0
  189.4820  176.8390  142.6340 N   0  0  0  0  0  0  0  0  0  0  0  0
  188.5700  177.4430  140.4590 C   0  0  0  0  0  0  0  0  0  0  0  0
  193.2980  175.0970  136.2910 C   0  0  0  0  0  3  0  0  0  0  0  0
  192.5350  176.6910  137.9360 C   0  0  0  0  0  3  0  0  0  0  0  0
  191.9690  173.1940  135.7840 F   0  0  0  0  0  0  0  0  0  0  0  0
  190.0440  173.9640  137.5900 O   0  0  0  0  0  1  0  0  0  0  0  0
  191.1780  174.7500  137.4200 C   0  0  0  0  0  0  0  0  0  0  0  0
  193.4940  176.2740  137.0120 C   0  0  0  0  0  3  0  0  0  0  0  0
  191.3680  175.9430  138.1560 C   0  0  0  0  0  0  0  0  0  0  0  0
  192.1460  174.3370  136.4930 C   0  0  0  0  0  0  0  0  0  0  0  0
  186.5570  178.9170  140.2660 N   0  0  0  0  0  2  0  0  0  0  0  0
  184.5180  179.7960  139.5850 O   0  0  0  0  0  0  0  0  0  0  0  0
  185.1220  178.9630  140.3090 C   0  0  0  0  0  0  0  0  0  0  0  0
  184.3130  178.0190  141.1410 C   0  0  0  0  0  2  0  0  0  0  0  0
  183.4270  178.7760  142.1170 C   0  0  0  0  0  2  0  0  0  0  0  0
  182.0380  178.7460  141.6680 N   0  0  0  0  0  2  0  0  0  0  0  0
  180.0770  178.0400  142.7570 O   0  0  0  0  0  1  0  0  0  0  0  0
  181.1440  178.9390  142.8100 C   0  0  0  0  0  3  0  0  0  0  0  0
  180.6660  180.2510  142.8480 O   0  0  0  0  0  1  0  0  0  0  0  0
  190.5350  176.2330  143.4350 C   0  0  0  0  0  2  0  0  0  0  0  0
  191.5650  177.2830  143.8180 C   0  0  0  0  0  2  0  0  0  0  0  0
  191.2550  177.8680  145.1880 C   0  0  0  0  0  2  0  0  0  0  0  0
  191.8180  176.8770  147.2870 O   0  0  0  0  0  1  0  0  0  0  0  0
  190.9460  176.7740  146.2020 C   0  0  1  0  0  3  0  0  0  0  0  0
  189.5170  176.9160  146.6990 C   0  0  0  0  0  2  0  0  0  0  0  0
  189.4430  177.8360  147.9070 C   0  0  0  0  0  2  0  0  0  0  0  0
  188.0020  178.0090  148.3470 C   0  0  0  0  0  2  0  0  0  0  0  0
  187.1890  178.1700  147.2260 O   0  0  0  0  0  0  0  0  0  0  0  0
  186.2130  179.0800  147.6330 C   0  0  0  0  0  2  0  0  0  0  0  0
  185.5050  178.2280  145.7270 C   0  0  0  0  0  1  0  0  0  0  0  0
  185.3270  179.3150  146.5820 O   0  0  0  0  0  0  0  0  0  0  0  0
  1  2  1  0  0  0  0
  3  1  2  0  0  0  0
  4  5  1  0  0  0  0
  5  8  1  0  0  0  0
  6  7  1  0  0  0  0
  6  9  1  0  0  0  0
  7  4  2  0  0  0  0
  8  2  1  0  0  0  0
  8 27  1  0  0  0  0
  9  3  1  0  0  0  0
  9  5  2  0  0  0  0
 10 17  2  0  0  0  0
 10 15  1  0  0  0  0
 11 16  1  0  0  0  0
 12 17  1  0  0  0  0
 14 13  1  0  0  0  0
 14 16  2  0  0  0  0
 15 11  2  0  0  0  0
 16  7  1  0  0  0  0
 17 14  1  0  0  0  0
 18 20  1  0  0  0  0
 18  3  1  0  0  0  0
 19 20  2  0  0  0  0
 20 21  1  0  0  0  0
 21 22  1  0  0  0  0
 23 22  1  0  0  0  0
 23 25  1  0  0  0  0
 24 25  1  0  0  0  0
 25 26  1  0  0  0  0
 27 28  1  0  0  0  0
 28 29  1  0  0  0  0
 29 31  1  0  0  0  0
 31 32  1  0  0  0  0
 31 30  1  1  0  0  0
 32 33  1  0  0  0  0
 33 34  1  0  0  0  0
 35 36  1  0  0  0  0
 35 34  1  0  0  0  0
 37 38  1  0  0  0  0
 38 36  1  0  0  0  0
M  END
>  <MODEL>
2

>  <REMARK>
 VINA RESULT:      -7.0      2.585      7.032
  Name = 
  16 active torsions:
  status: ('A' for Active; 'I' for Inactive)
    1  A    between atoms: C_3  and  C_11
    2  A    between atoms: C_3  and  C_27
    3  A    between atoms: C_4  and  C_11
    4  A    between atoms: C_4  and  C_34
    5  A    between atoms: C_5  and  O_35
    6  A    between atoms: C_5  and  O_38
    7  A    between atoms: C_9  and  N_10
    8  A    between atoms: C_17  and  C_25
    9  A    between atoms: C_17  and  C_30
   10  A    between atoms: C_18  and  C_34
   11  A    between atoms: C_18  and  O_35
   12  A    between atoms: C_20  and  N_32
   13  A    between atoms: C_21  and  C_27
   14  A    between atoms: C_21  and  N_36
   15  A    between atoms: C_28  and  C_33
   16  A    between atoms: C_30  and  N_32
                            x       y       z     vdW  Elec       q    Type
                         _______ _______ _______ _____ _____    ______ ____

>  <TORSDO>
F 16

$$$$
=
 OpenBabel10232408113D

 38 40  0  0  1  0  0  0  0  0999 V2000
  181.3490  178.9610  141.5010 C   0  0  0  0  0  3  0  0  0  0  0  0
  182.2510  178.8500  142.7190 C   0  0  0  0  0  2  0  0  0  0  0  0
  181.7900  178.8070  140.2420 C   0  0  0  0  0  0  0  0  0  0  0  0
  185.4410  178.6410  140.7060 N   0  0  0  0  0  0  0  0  0  0  0  0
  184.1330  178.7470  141.0600 C   0  0  0  0  0  0  0  0  0  0  0  0
  184.0730  178.4220  138.5970 S   0  0  0  0  0  0  0  0  0  0  0  0
  185.5850  178.4500  139.3690 C   0  0  0  0  0  0  0  0  0  0  0  0
  183.6790  178.9850  142.3980 N   0  0  0  0  0  0  0  0  0  0  0  0
  183.2300  178.6470  140.0300 C   0  0  0  0  0  0  0  0  0  0  0  0
  189.3630  178.0330  137.3670 C   0  0  0  0  0  3  0  0  0  0  0  0
  186.9620  178.2890  137.3220 C   0  0  0  0  0  3  0  0  0  0  0  0
  190.5010  177.9270  139.4500 F   0  0  0  0  0  0  0  0  0  0  0  0
  188.1420  178.1870  140.8380 O   0  0  0  0  0  1  0  0  0  0  0  0
  188.1220  178.1800  139.4470 C   0  0  0  0  0  0  0  0  0  0  0  0
  188.1760  178.1550  136.6460 C   0  0  0  0  0  3  0  0  0  0  0  0
  186.9130  178.3030  138.7240 C   0  0  0  0  0  0  0  0  0  0  0  0
  189.3380  178.0460  138.7620 C   0  0  0  0  0  0  0  0  0  0  0  0
  180.9160  178.8850  139.1060 N   0  0  0  0  0  2  0  0  0  0  0  0
  180.0140  179.8220  137.1820 O   0  0  0  0  0  0  0  0  0  0  0  0
  180.7500  179.9790  138.1910 C   0  0  0  0  0  0  0  0  0  0  0  0
  181.3750  181.3190  138.4170 C   0  0  0  0  0  2  0  0  0  0  0  0
  180.4250  182.4370  138.0200 C   0  0  0  0  0  2  0  0  0  0  0  0
  180.8470  183.0350  136.7570 N   0  0  0  0  0  2  0  0  0  0  0  0
  181.2260  185.1260  135.7490 O   0  0  0  0  0  1  0  0  0  0  0  0
  181.1950  184.4400  136.9650 C   0  0  0  0  0  3  0  0  0  0  0  0
  182.4270  184.5540  137.6130 O   0  0  0  0  0  1  0  0  0  0  0  0
  184.6270  179.1310  143.4920 C   0  0  0  0  0  2  0  0  0  0  0  0
  183.8830  179.2170  144.8150 C   0  0  0  0  0  2  0  0  0  0  0  0
  184.5460  178.3390  145.8650 C   0  0  0  0  0  2  0  0  0  0  0  0
  185.7810  179.7190  147.3730 O   0  0  0  0  0  1  0  0  0  0  0  0
  185.9120  178.8840  146.2620 C   0  0  1  0  0  3  0  0  0  0  0  0
  186.8470  177.7370  146.6120 C   0  0  0  0  0  2  0  0  0  0  0  0
  188.0450  177.6990  145.6780 C   0  0  0  0  0  2  0  0  0  0  0  0
  187.7140  176.8960  144.4340 C   0  0  0  0  0  2  0  0  0  0  0  0
  188.8480  176.7950  143.6290 O   0  0  0  0  0  0  0  0  0  0  0  0
  189.5980  177.9280  143.9420 C   0  0  0  0  0  2  0  0  0  0  0  0
  191.6060  178.8310  144.0740 C   0  0  0  0  0  1  0  0  0  0  0  0
  190.9230  177.7330  143.5520 O   0  0  0  0  0  0  0  0  0  0  0  0
  1  2  1  0  0  0  0
  3  1  2  0  0  0  0
  4  5  1  0  0  0  0
  5  8  1  0  0  0  0
  6  7  1  0  0  0  0
  6  9  1  0  0  0  0
  7  4  2  0  0  0  0
  8  2  1  0  0  0  0
  8 27  1  0  0  0  0
  9  3  1  0  0  0  0
  9  5  2  0  0  0  0
 10 17  1  0  0  0  0
 11 16  2  0  0  0  0
 14 13  1  0  0  0  0
 15 11  1  0  0  0  0
 15 10  2  0  0  0  0
 16  7  1  0  0  0  0
 16 14  1  0  0  0  0
 17 14  2  0  0  0  0
 17 12  1  0  0  0  0
 18  3  1  0  0  0  0
 19 20  2  0  0  0  0
 20 21  1  0  0  0  0
 20 18  1  0  0  0  0
 22 21  1  0  0  0  0
 23 25  1  0  0  0  0
 23 22  1  0  0  0  0
 24 25  1  0  0  0  0
 25 26  1  0  0  0  0
 27 28  1  0  0  0  0
 28 29  1  0  0  0  0
 29 31  1  0  0  0  0
 31 32  1  0  0  0  0
 31 30  1  1  0  0  0
 33 32  1  0  0  0  0
 34 33  1  0  0  0  0
 35 36  1  0  0  0  0
 35 34  1  0  0  0  0
 38 36  1  0  0  0  0
 38 37  1  0  0  0  0
M  END
>  <MODEL>
3

>  <REMARK>
 VINA RESULT:      -6.7      4.029      7.264
  Name = 
  16 active torsions:
  status: ('A' for Active; 'I' for Inactive)
    1  A    between atoms: C_3  and  C_11
    2  A    between atoms: C_3  and  C_27
    3  A    between atoms: C_4  and  C_11
    4  A    between atoms: C_4  and  C_34
    5  A    between atoms: C_5  and  O_35
    6  A    between atoms: C_5  and  O_38
    7  A    between atoms: C_9  and  N_10
    8  A    between atoms: C_17  and  C_25
    9  A    between atoms: C_17  and  C_30
   10  A    between atoms: C_18  and  C_34
   11  A    between atoms: C_18  and  O_35
   12  A    between atoms: C_20  and  N_32
   13  A    between atoms: C_21  and  C_27
   14  A    between atoms: C_21  and  N_36
   15  A    between atoms: C_28  and  C_33
   16  A    between atoms: C_30  and  N_32
                            x       y       z     vdW  Elec       q    Type
                         _______ _______ _______ _____ _____    ______ ____

>  <TORSDO>
F 16

$$$$
=
 OpenBabel10232408113D

 38 40  0  0  1  0  0  0  0  0999 V2000
  186.4770  178.0540  137.5640 C   0  0  0  0  0  3  0  0  0  0  0  0
  185.4630  178.3930  138.6430 C   0  0  0  0  0  2  0  0  0  0  0  0
  187.7420  177.6900  137.8300 C   0  0  0  0  0  0  0  0  0  0  0  0
  187.9820  178.2870  141.4580 N   0  0  0  0  0  0  0  0  0  0  0  0
  187.4060  178.2390  140.2280 C   0  0  0  0  0  0  0  0  0  0  0  0
  189.6950  177.3410  139.8630 S   0  0  0  0  0  0  0  0  0  0  0  0
  189.2560  177.8170  141.4330 C   0  0  0  0  0  0  0  0  0  0  0  0
  186.0790  178.7000  139.9430 N   0  0  0  0  0  0  0  0  0  0  0  0
  188.1980  177.7430  139.2200 C   0  0  0  0  0  0  0  0  0  0  0  0
  191.7150  177.8040  144.9560 C   0  0  0  0  0  3  0  0  0  0  0  0
  190.4480  178.9730  143.2650 C   0  0  0  0  0  3  0  0  0  0  0  0
  191.8540  175.4330  144.9000 F   0  0  0  0  0  0  0  0  0  0  0  0
  190.2880  175.3190  142.6420 O   0  0  0  0  0  1  0  0  0  0  0  0
  190.5890  176.5540  143.2070 C   0  0  0  0  0  0  0  0  0  0  0  0
  191.2450  178.9980  144.4110 C   0  0  0  0  0  3  0  0  0  0  0  0
  190.1080  177.7610  142.6460 C   0  0  0  0  0  0  0  0  0  0  0  0
  191.3890  176.5860  144.3580 C   0  0  0  0  0  0  0  0  0  0  0  0
  188.6760  177.3440  136.7960 N   0  0  0  0  0  2  0  0  0  0  0  0
  189.3470  176.5460  134.7210 O   0  0  0  0  0  0  0  0  0  0  0  0
  188.4160  176.6620  135.5600 C   0  0  0  0  0  0  0  0  0  0  0  0
  187.0940  176.0330  135.2510 C   0  0  0  0  0  2  0  0  0  0  0  0
  187.1010  174.5530  135.5980 C   0  0  0  0  0  2  0  0  0  0  0  0
  185.7560  173.9990  135.4780 N   0  0  0  0  0  2  0  0  0  0  0  0
  184.7120  174.8200  137.4190 O   0  0  0  0  0  1  0  0  0  0  0  0
  185.2310  173.6790  136.8050 C   0  0  0  0  0  3  0  0  0  0  0  0
  186.2260  173.1130  137.6070 O   0  0  0  0  0  1  0  0  0  0  0  0
  185.2450  179.2640  140.9920 C   0  0  0  0  0  2  0  0  0  0  0  0
  184.4070  178.1700  141.6340 C   0  0  0  0  0  2  0  0  0  0  0  0
  184.6920  178.0760  143.1250 C   0  0  0  0  0  2  0  0  0  0  0  0
  182.5740  179.0840  143.5790 O   0  0  0  0  0  1  0  0  0  0  0  0
  183.9310  179.1420  143.9040 C   0  0  1  0  0  3  0  0  0  0  0  0
  184.0940  178.9070  145.3970 C   0  0  0  0  0  2  0  0  0  0  0  0
  185.5400  179.0880  145.8280 C   0  0  0  0  0  2  0  0  0  0  0  0
  186.1520  177.7470  146.1870 C   0  0  0  0  0  2  0  0  0  0  0  0
  187.1630  177.9320  147.1280 O   0  0  0  0  0  0  0  0  0  0  0  0
  188.3170  177.4770  146.4920 C   0  0  0  0  0  2  0  0  0  0  0  0
  189.2360  178.1930  148.3640 C   0  0  0  0  0  1  0  0  0  0  0  0
  189.2750  177.1420  147.4490 O   0  0  0  0  0  0  0  0  0  0  0  0
  1  3  2  0  0  0  0
  1  2  1  0  0  0  0
  2  8  1  0  0  0  0
  3  9  1  0  0  0  0
  5  4  1  0  0  0  0
  6  7  1  0  0  0  0
  7  4  2  0  0  0  0
  7 16  1  0  0  0  0
  8  5  1  0  0  0  0
  8 27  1  0  0  0  0
  9  6  1  0  0  0  0
  9  5  2  0  0  0  0
 11 15  2  0  0  0  0
 13 14  1  0  0  0  0
 14 17  1  0  0  0  0
 15 10  1  0  0  0  0
 16 14  2  0  0  0  0
 16 11  1  0  0  0  0
 17 12  1  0  0  0  0
 17 10  2  0  0  0  0
 18  3  1  0  0  0  0
 19 20  2  0  0  0  0
 20 18  1  0  0  0  0
 21 20  1  0  0  0  0
 21 22  1  0  0  0  0
 23 22  1  0  0  0  0
 23 25  1  0  0  0  0
 25 24  1  0  0  0  0
 25 26  1  0  0  0  0
 27 28  1  0  0  0  0
 28 29  1  0  0  0  0
 29 31  1  0  0  0  0
 31 30  1  6  0  0  0
 31 32  1  0  0  0  0
 32 33  1  0  0  0  0
 33 34  1  0  0  0  0
 34 35  1  0  0  0  0
 36 35  1  0  0  0  0
 36 38  1  0  0  0  0
 38 37  1  0  0  0  0
M  END
>  <MODEL>
4

>  <REMARK>
 VINA RESULT:      -6.6      1.710      2.294
  Name = 
  16 active torsions:
  status: ('A' for Active; 'I' for Inactive)
    1  A    between atoms: C_3  and  C_11
    2  A    between atoms: C_3  and  C_27
    3  A    between atoms: C_4  and  C_11
    4  A    between atoms: C_4  and  C_34
    5  A    between atoms: C_5  and  O_35
    6  A    between atoms: C_5  and  O_38
    7  A    between atoms: C_9  and  N_10
    8  A    between atoms: C_17  and  C_25
    9  A    between atoms: C_17  and  C_30
   10  A    between atoms: C_18  and  C_34
   11  A    between atoms: C_18  and  O_35
   12  A    between atoms: C_20  and  N_32
   13  A    between atoms: C_21  and  C_27
   14  A    between atoms: C_21  and  N_36
   15  A    between atoms: C_28  and  C_33
   16  A    between atoms: C_30  and  N_32
                            x       y       z     vdW  Elec       q    Type
                         _______ _______ _______ _____ _____    ______ ____

>  <TORSDO>
F 16

$$$$
=
 OpenBabel10232408113D

 38 40  0  0  1  0  0  0  0  0999 V2000
  188.1850  177.8930  138.9170 C   0  0  0  0  0  3  0  0  0  0  0  0
  186.9500  178.3570  139.6700 C   0  0  0  0  0  2  0  0  0  0  0  0
  189.2580  177.3580  139.5210 C   0  0  0  0  0  0  0  0  0  0  0  0
  188.4930  177.8850  143.0860 N   0  0  0  0  0  0  0  0  0  0  0  0
  188.3030  177.9260  141.7410 C   0  0  0  0  0  0  0  0  0  0  0  0
  190.4640  176.7290  142.0150 S   0  0  0  0  0  0  0  0  0  0  0  0
  189.6470  177.2460  143.4100 C   0  0  0  0  0  0  0  0  0  0  0  0
  187.1890  178.5650  141.1050 N   0  0  0  0  0  0  0  0  0  0  0  0
  189.2870  177.3360  140.9850 C   0  0  0  0  0  0  0  0  0  0  0  0
  191.0580  176.6680  147.4270 C   0  0  0  0  0  3  0  0  0  0  0  0
  191.3770  176.5550  145.0360 C   0  0  0  0  0  3  0  0  0  0  0  0
  189.0030  177.4740  148.3080 F   0  0  0  0  0  0  0  0  0  0  0  0
  187.9950  177.8840  145.7830 O   0  0  0  0  0  1  0  0  0  0  0  0
  189.2810  177.3770  145.9340 C   0  0  0  0  0  0  0  0  0  0  0  0
  191.8610  176.3580  146.3300 C   0  0  0  0  0  3  0  0  0  0  0  0
  190.0880  177.0640  144.8150 C   0  0  0  0  0  0  0  0  0  0  0  0
  189.7730  177.1760  147.2310 C   0  0  0  0  0  0  0  0  0  0  0  0
  190.4040  176.8980  138.7880 N   0  0  0  0  0  2  0  0  0  0  0  0
  191.5340  175.7330  137.1270 O   0  0  0  0  0  0  0  0  0  0  0  0
  190.4480  175.9260  137.7320 C   0  0  0  0  0  0  0  0  0  0  0  0
  189.2630  175.0930  137.3570 C   0  0  0  0  0  2  0  0  0  0  0  0
  188.9410  175.2390  135.8790 C   0  0  0  0  0  2  0  0  0  0  0  0
  187.6360  175.8700  135.7050 N   0  0  0  0  0  2  0  0  0  0  0  0
  185.8760  174.3110  135.6650 O   0  0  0  0  0  1  0  0  0  0  0  0
  186.6300  175.1510  136.4860 C   0  0  0  0  0  3  0  0  0  0  0  0
  185.7920  176.0460  137.1560 O   0  0  0  0  0  1  0  0  0  0  0  0
  186.1610  179.2290  141.8930 C   0  0  0  0  0  2  0  0  0  0  0  0
  185.1950  178.1990  142.4570 C   0  0  0  0  0  2  0  0  0  0  0  0
  185.1340  178.2910  143.9740 C   0  0  0  0  0  2  0  0  0  0  0  0
  183.6970  179.1880  145.6580 O   0  0  0  0  0  1  0  0  0  0  0  0
  183.7020  178.4680  144.4620 C   0  0  1  0  0  3  0  0  0  0  0  0
  182.8900  179.2260  143.4240 C   0  0  0  0  0  2  0  0  0  0  0  0
  181.4150  178.8700  143.5110 C   0  0  0  0  0  2  0  0  0  0  0  0
  180.7490  179.0620  142.1610 C   0  0  0  0  0  2  0  0  0  0  0  0
  181.3740  178.2550  141.2130 O   0  0  0  0  0  0  0  0  0  0  0  0
  181.5500  179.0890  140.1090 C   0  0  0  0  0  2  0  0  0  0  0  0
  183.4920  179.6560  139.2300 C   0  0  0  0  0  1  0  0  0  0  0  0
  182.5870  178.5980  139.3150 O   0  0  0  0  0  0  0  0  0  0  0  0
  1  3  2  0  0  0  0
  1  2  1  0  0  0  0
  2  8  1  0  0  0  0
  3  9  1  0  0  0  0
  4  7  2  0  0  0  0
  5  4  1  0  0  0  0
  6  7  1  0  0  0  0
  7 16  1  0  0  0  0
  8  5  1  0  0  0  0
  8 27  1  0  0  0  0
  9  5  2  0  0  0  0
  9  6  1  0  0  0  0
 11 15  1  0  0  0  0
 13 14  1  0  0  0  0
 14 17  2  0  0  0  0
 15 10  2  0  0  0  0
 16 11  2  0  0  0  0
 16 14  1  0  0  0  0
 17 10  1  0  0  0  0
 17 12  1  0  0  0  0
 18  3  1  0  0  0  0
 19 20  2  0  0  0  0
 20 18  1  0  0  0  0
 21 20  1  0  0  0  0
 22 21  1  0  0  0  0
 23 22  1  0  0  0  0
 23 25  1  0  0  0  0
 24 25  1  0  0  0  0
 25 26  1  0  0  0  0
 27 28  1  0  0  0  0
 28 29  1  0  0  0  0
 29 31  1  0  0  0  0
 31 30  1  1  0  0  0
 32 33  1  0  0  0  0
 32 31  1  0  0  0  0
 34 33  1  0  0  0  0
 35 34  1  0  0  0  0
 36 35  1  0  0  0  0
 37 38  1  0  0  0  0
 38 36  1  0  0  0  0
M  END
>  <MODEL>
5

>  <REMARK>
 VINA RESULT:      -6.6      2.259      4.485
  Name = 
  16 active torsions:
  status: ('A' for Active; 'I' for Inactive)
    1  A    between atoms: C_3  and  C_11
    2  A    between atoms: C_3  and  C_27
    3  A    between atoms: C_4  and  C_11
    4  A    between atoms: C_4  and  C_34
    5  A    between atoms: C_5  and  O_35
    6  A    between atoms: C_5  and  O_38
    7  A    between atoms: C_9  and  N_10
    8  A    between atoms: C_17  and  C_25
    9  A    between atoms: C_17  and  C_30
   10  A    between atoms: C_18  and  C_34
   11  A    between atoms: C_18  and  O_35
   12  A    between atoms: C_20  and  N_32
   13  A    between atoms: C_21  and  C_27
   14  A    between atoms: C_21  and  N_36
   15  A    between atoms: C_28  and  C_33
   16  A    between atoms: C_30  and  N_32
                            x       y       z     vdW  Elec       q    Type
                         _______ _______ _______ _____ _____    ______ ____

>  <TORSDO>
F 16

$$$$
=
 OpenBabel10232408113D

 38 40  0  0  1  0  0  0  0  0999 V2000
  193.4700  177.1810  139.6180 C   0  0  0  0  0  3  0  0  0  0  0  0
  192.6740  177.6290  140.8320 C   0  0  0  0  0  2  0  0  0  0  0  0
  192.9020  176.8420  138.4490 C   0  0  0  0  0  0  0  0  0  0  0  0
  189.3170  176.8220  139.2970 N   0  0  0  0  0  0  0  0  0  0  0  0
  190.6540  176.9690  139.4940 C   0  0  0  0  0  0  0  0  0  0  0  0
  190.4510  176.4120  137.0800 S   0  0  0  0  0  0  0  0  0  0  0  0
  189.0310  176.5170  138.0050 C   0  0  0  0  0  0  0  0  0  0  0  0
  191.2530  177.2590  140.7630 N   0  0  0  0  0  0  0  0  0  0  0  0
  191.4410  176.7830  138.3830 C   0  0  0  0  0  0  0  0  0  0  0  0
  185.0490  175.7610  136.5800 C   0  0  0  0  0  3  0  0  0  0  0  0
  187.3200  175.0490  136.9900 C   0  0  0  0  0  3  0  0  0  0  0  0
  184.3790  177.9650  137.1610 F   0  0  0  0  0  0  0  0  0  0  0  0
  186.8930  178.5620  138.1020 O   0  0  0  0  0  1  0  0  0  0  0  0
  186.6370  177.2980  137.5830 C   0  0  0  0  0  0  0  0  0  0  0  0
  186.0340  174.7760  136.5200 C   0  0  0  0  0  3  0  0  0  0  0  0
  187.6430  176.3050  137.5260 C   0  0  0  0  0  0  0  0  0  0  0  0
  185.3480  177.0170  137.1090 C   0  0  0  0  0  0  0  0  0  0  0  0
  193.6750  176.4510  137.3040 N   0  0  0  0  0  2  0  0  0  0  0  0
  194.9650  175.0280  135.9990 O   0  0  0  0  0  0  0  0  0  0  0  0
  194.4410  175.2510  137.1210 C   0  0  0  0  0  0  0  0  0  0  0  0
  194.6900  174.2790  138.2310 C   0  0  0  0  0  2  0  0  0  0  0  0
  196.1360  174.3410  138.6950 C   0  0  0  0  0  2  0  0  0  0  0  0
  196.2090  174.8670  140.0550 N   0  0  0  0  0  2  0  0  0  0  0  0
  198.2850  175.4490  139.1150 O   0  0  0  0  0  1  0  0  0  0  0  0
  197.4760  175.5710  140.2470 C   0  0  0  0  0  3  0  0  0  0  0  0
  198.1480  175.0840  141.3710 O   0  0  0  0  0  1  0  0  0  0  0  0
  190.4340  177.4180  141.9550 C   0  0  0  0  0  2  0  0  0  0  0  0
  191.2250  178.1370  143.0360 C   0  0  0  0  0  2  0  0  0  0  0  0
  190.3820  178.3250  144.2870 C   0  0  0  0  0  2  0  0  0  0  0  0
  191.4280  177.0730  146.0310 O   0  0  0  0  0  1  0  0  0  0  0  0
  190.3570  177.0600  145.1360 C   0  0  1  0  0  3  0  0  0  0  0  0
  189.0560  176.9870  145.9200 C   0  0  0  0  0  2  0  0  0  0  0  0
  188.0700  178.0430  145.4490 C   0  0  0  0  0  2  0  0  0  0  0  0
  186.6670  177.4680  145.4040 C   0  0  0  0  0  2  0  0  0  0  0  0
  185.8060  178.2800  146.1400 O   0  0  0  0  0  0  0  0  0  0  0  0
  185.2060  179.1040  145.1870 C   0  0  0  0  0  2  0  0  0  0  0  0
  183.1750  178.8610  144.3640 C   0  0  0  0  0  1  0  0  0  0  0  0
  184.4620  178.3260  144.3010 O   0  0  0  0  0  0  0  0  0  0  0  0
  1  2  1  0  0  0  0
  3  1  2  0  0  0  0
  4  5  1  0  0  0  0
  5  8  1  0  0  0  0
  6  7  1  0  0  0  0
  6  9  1  0  0  0  0
  7  4  2  0  0  0  0
  8  2  1  0  0  0  0
  8 27  1  0  0  0  0
  9  3  1  0  0  0  0
  9  5  2  0  0  0  0
 10 17  1  0  0  0  0
 11 16  2  0  0  0  0
 14 13  1  0  0  0  0
 15 10  2  0  0  0  0
 15 11  1  0  0  0  0
 16 14  1  0  0  0  0
 16  7  1  0  0  0  0
 17 12  1  0  0  0  0
 17 14  2  0  0  0  0
 18  3  1  0  0  0  0
 19 20  2  0  0  0  0
 20 18  1  0  0  0  0
 20 21  1  0  0  0  0
 21 22  1  0  0  0  0
 22 23  1  0  0  0  0
 23 25  1  0  0  0  0
 24 25  1  0  0  0  0
 25 26  1  0  0  0  0
 27 28  1  0  0  0  0
 28 29  1  0  0  0  0
 29 31  1  0  0  0  0
 31 32  1  0  0  0  0
 31 30  1  1  0  0  0
 33 32  1  0  0  0  0
 34 33  1  0  0  0  0
 34 35  1  0  0  0  0
 36 35  1  0  0  0  0
 38 37  1  0  0  0  0
 38 36  1  0  0  0  0
M  END
>  <MODEL>
6

>  <REMARK>
 VINA RESULT:      -6.4      3.610      6.500
  Name = 
  16 active torsions:
  status: ('A' for Active; 'I' for Inactive)
    1  A    between atoms: C_3  and  C_11
    2  A    between atoms: C_3  and  C_27
    3  A    between atoms: C_4  and  C_11
    4  A    between atoms: C_4  and  C_34
    5  A    between atoms: C_5  and  O_35
    6  A    between atoms: C_5  and  O_38
    7  A    between atoms: C_9  and  N_10
    8  A    between atoms: C_17  and  C_25
    9  A    between atoms: C_17  and  C_30
   10  A    between atoms: C_18  and  C_34
   11  A    between atoms: C_18  and  O_35
   12  A    between atoms: C_20  and  N_32
   13  A    between atoms: C_21  and  C_27
   14  A    between atoms: C_21  and  N_36
   15  A    between atoms: C_28  and  C_33
   16  A    between atoms: C_30  and  N_32
                            x       y       z     vdW  Elec       q    Type
                         _______ _______ _______ _____ _____    ______ ____

>  <TORSDO>
F 16

$$$$
=
 OpenBabel10232408113D

 38 40  0  0  1  0  0  0  0  0999 V2000
  188.6780  177.7790  144.7040 C   0  0  0  0  0  3  0  0  0  0  0  0
  188.9080  177.6160  143.2100 C   0  0  0  0  0  2  0  0  0  0  0  0
  187.4630  177.9640  145.2450 C   0  0  0  0  0  0  0  0  0  0  0  0
  185.3440  178.4480  142.2710 N   0  0  0  0  0  0  0  0  0  0  0  0
  186.4810  178.2180  142.9800 C   0  0  0  0  0  0  0  0  0  0  0  0
  184.7040  178.3730  144.7110 S   0  0  0  0  0  0  0  0  0  0  0  0
  184.2600  178.5530  143.0820 C   0  0  0  0  0  0  0  0  0  0  0  0
  187.7830  178.0950  142.3940 N   0  0  0  0  0  0  0  0  0  0  0  0
  186.3250  178.1410  144.3430 C   0  0  0  0  0  0  0  0  0  0  0  0
  180.2620  179.3110  141.7050 C   0  0  0  0  0  3  0  0  0  0  0  0
  181.8940  179.1550  143.4770 C   0  0  0  0  0  3  0  0  0  0  0  0
  180.9090  178.8750  139.4600 F   0  0  0  0  0  0  0  0  0  0  0  0
  183.5000  178.3670  140.2270 O   0  0  0  0  0  1  0  0  0  0  0  0
  182.5560  178.7100  141.1880 C   0  0  0  0  0  0  0  0  0  0  0  0
  180.5870  179.4060  143.0570 C   0  0  0  0  0  3  0  0  0  0  0  0
  182.8950  178.8040  142.5580 C   0  0  0  0  0  0  0  0  0  0  0  0
  181.2410  178.9640  140.7730 C   0  0  0  0  0  0  0  0  0  0  0  0
  187.2640  178.0850  146.6620 N   0  0  0  0  0  2  0  0  0  0  0  0
  187.8140  177.8780  148.9090 O   0  0  0  0  0  0  0  0  0  0  0  0
  188.0910  177.5740  147.7190 C   0  0  0  0  0  0  0  0  0  0  0  0
  189.2380  176.6480  147.4670 C   0  0  0  0  0  2  0  0  0  0  0  0
  190.5410  177.2440  147.9750 C   0  0  0  0  0  2  0  0  0  0  0  0
  191.6340  176.9220  147.0640 N   0  0  0  0  0  2  0  0  0  0  0  0
  193.3740  175.8470  148.2250 O   0  0  0  0  0  1  0  0  0  0  0  0
  192.2360  175.6440  147.4430 C   0  0  0  0  0  3  0  0  0  0  0  0
  192.5580  174.8940  146.3090 O   0  0  0  0  0  1  0  0  0  0  0  0
  187.9680  178.2140  140.9560 C   0  0  0  0  0  2  0  0  0  0  0  0
  189.1180  177.3280  140.5060 C   0  0  0  0  0  2  0  0  0  0  0  0
  189.6310  177.7620  139.1410 C   0  0  0  0  0  2  0  0  0  0  0  0
  188.9820  179.5410  137.6870 O   0  0  0  0  0  1  0  0  0  0  0  0
  188.5190  178.3760  138.3000 C   0  0  1  0  0  3  0  0  0  0  0  0
  188.0780  177.3930  137.2270 C   0  0  0  0  0  2  0  0  0  0  0  0
  189.1680  177.1850  136.1890 C   0  0  0  0  0  2  0  0  0  0  0  0
  189.3080  175.7100  135.8640 C   0  0  0  0  0  2  0  0  0  0  0  0
  189.3740  174.9760  137.0470 O   0  0  0  0  0  0  0  0  0  0  0  0
  190.6060  174.3250  136.9830 C   0  0  0  0  0  2  0  0  0  0  0  0
  192.6500  174.8870  137.5890 C   0  0  0  0  0  1  0  0  0  0  0  0
  191.3720  174.6650  138.0980 O   0  0  0  0  0  0  0  0  0  0  0  0
  1  3  2  0  0  0  0
  2  1  1  0  0  0  0
  3 18  1  0  0  0  0
  4  5  1  0  0  0  0
  4  7  2  0  0  0  0
  5  9  2  0  0  0  0
  7  6  1  0  0  0  0
  8  5  1  0  0  0  0
  8  2  1  0  0  0  0
  9  6  1  0  0  0  0
  9  3  1  0  0  0  0
 10 15  1  0  0  0  0
 12 17  1  0  0  0  0
 13 14  1  0  0  0  0
 14 16  2  0  0  0  0
 15 11  2  0  0  0  0
 16  7  1  0  0  0  0
 16 11  1  0  0  0  0
 17 14  1  0  0  0  0
 17 10  2  0  0  0  0
 18 20  1  0  0  0  0
 20 19  2  0  0  0  0
 21 20  1  0  0  0  0
 21 22  1  0  0  0  0
 23 25  1  0  0  0  0
 23 22  1  0  0  0  0
 25 24  1  0  0  0  0
 26 25  1  0  0  0  0
 27  8  1  0  0  0  0
 28 27  1  0  0  0  0
 29 28  1  0  0  0  0
 31 30  1  6  0  0  0
 31 29  1  0  0  0  0
 32 31  1  0  0  0  0
 33 32  1  0  0  0  0
 34 33  1  0  0  0  0
 34 35  1  0  0  0  0
 36 35  1  0  0  0  0
 36 38  1  0  0  0  0
 37 38  1  0  0  0  0
M  END
>  <MODEL>
7

>  <REMARK>
 VINA RESULT:      -6.3      3.520      9.187
  Name = 
  16 active torsions:
  status: ('A' for Active; 'I' for Inactive)
    1  A    between atoms: C_3  and  C_11
    2  A    between atoms: C_3  and  C_27
    3  A    between atoms: C_4  and  C_11
    4  A    between atoms: C_4  and  C_34
    5  A    between atoms: C_5  and  O_35
    6  A    between atoms: C_5  and  O_38
    7  A    between atoms: C_9  and  N_10
    8  A    between atoms: C_17  and  C_25
    9  A    between atoms: C_17  and  C_30
   10  A    between atoms: C_18  and  C_34
   11  A    between atoms: C_18  and  O_35
   12  A    between atoms: C_20  and  N_32
   13  A    between atoms: C_21  and  C_27
   14  A    between atoms: C_21  and  N_36
   15  A    between atoms: C_28  and  C_33
   16  A    between atoms: C_30  and  N_32
                            x       y       z     vdW  Elec       q    Type
                         _______ _______ _______ _____ _____    ______ ____

>  <TORSDO>
F 16

$$$$
=
 OpenBabel10232408113D

 38 40  0  0  1  0  0  0  0  0999 V2000
  192.9830  177.1350  139.8550 C   0  0  0  0  0  3  0  0  0  0  0  0
  191.9910  177.4320  140.9670 C   0  0  0  0  0  2  0  0  0  0  0  0
  192.6150  176.8890  138.5870 C   0  0  0  0  0  0  0  0  0  0  0  0
  188.9500  176.6480  138.8660 N   0  0  0  0  0  0  0  0  0  0  0  0
  190.2320  176.8270  139.2790 C   0  0  0  0  0  0  0  0  0  0  0  0
  190.4240  176.4990  136.8230 S   0  0  0  0  0  0  0  0  0  0  0  0
  188.8770  176.4590  137.5230 C   0  0  0  0  0  0  0  0  0  0  0  0
  190.6170  177.0160  140.6460 N   0  0  0  0  0  0  0  0  0  0  0  0
  191.1860  176.7800  138.2910 C   0  0  0  0  0  0  0  0  0  0  0  0
  185.1250  175.9750  135.4880 C   0  0  0  0  0  3  0  0  0  0  0  0
  186.7830  177.3610  136.5650 C   0  0  0  0  0  3  0  0  0  0  0  0
  185.4740  173.6310  135.3160 F   0  0  0  0  0  0  0  0  0  0  0  0
  187.8930  173.8210  136.6100 O   0  0  0  0  0  1  0  0  0  0  0  0
  187.1410  174.9700  136.3900 C   0  0  0  0  0  0  0  0  0  0  0  0
  185.5600  177.2320  135.9060 C   0  0  0  0  0  3  0  0  0  0  0  0
  187.5910  176.2410  136.8180 C   0  0  0  0  0  0  0  0  0  0  0  0
  185.9110  174.8480  135.7280 C   0  0  0  0  0  0  0  0  0  0  0  0
  193.5710  176.6400  137.5440 N   0  0  0  0  0  2  0  0  0  0  0  0
  194.8530  175.3460  136.1040 O   0  0  0  0  0  0  0  0  0  0  0  0
  194.1050  175.3780  137.1160 C   0  0  0  0  0  0  0  0  0  0  0  0
  193.8530  174.1040  137.8590 C   0  0  0  0  0  2  0  0  0  0  0  0
  195.1480  173.5280  138.4060 C   0  0  0  0  0  2  0  0  0  0  0  0
  195.9750  174.5880  138.9740 N   0  0  0  0  0  2  0  0  0  0  0  0
  197.7800  175.5260  137.7940 O   0  0  0  0  0  1  0  0  0  0  0  0
  197.3620  174.4230  138.5400 C   0  0  0  0  0  3  0  0  0  0  0  0
  197.5090  173.2520  137.7910 O   0  0  0  0  0  1  0  0  0  0  0  0
  189.6220  177.0280  141.7070 C   0  0  0  0  0  2  0  0  0  0  0  0
  190.0400  176.0830  142.8220 C   0  0  0  0  0  2  0  0  0  0  0  0
  189.8460  176.7350  144.1830 C   0  0  0  0  0  2  0  0  0  0  0  0
  191.7470  178.1320  144.5550 O   0  0  0  0  0  1  0  0  0  0  0  0
  191.1730  176.9100  144.9090 C   0  0  1  0  0  3  0  0  0  0  0  0
  190.9480  176.8850  146.4130 C   0  0  0  0  0  2  0  0  0  0  0  0
  189.4710  177.0070  146.7510 C   0  0  0  0  0  2  0  0  0  0  0  0
  189.2870  177.8430  148.0030 C   0  0  0  0  0  2  0  0  0  0  0  0
  187.9770  178.3170  148.0590 O   0  0  0  0  0  0  0  0  0  0  0  0
  187.3600  177.7640  146.9370 C   0  0  0  0  0  2  0  0  0  0  0  0
  185.8410  178.2640  145.4190 C   0  0  0  0  0  1  0  0  0  0  0  0
  186.0840  178.3080  146.7910 O   0  0  0  0  0  0  0  0  0  0  0  0
  1  2  1  0  0  0  0
  3  1  2  0  0  0  0
  4  5  1  0  0  0  0
  5  8  1  0  0  0  0
  6  7  1  0  0  0  0
  6  9  1  0  0  0  0
  7  4  2  0  0  0  0
  8  2  1  0  0  0  0
  8 27  1  0  0  0  0
  9  3  1  0  0  0  0
  9  5  2  0  0  0  0
 10 17  2  0  0  0  0
 10 15  1  0  0  0  0
 11 16  1  0  0  0  0
 12 17  1  0  0  0  0
 14 13  1  0  0  0  0
 14 16  2  0  0  0  0
 15 11  2  0  0  0  0
 16  7  1  0  0  0  0
 17 14  1  0  0  0  0
 18  3  1  0  0  0  0
 19 20  2  0  0  0  0
 20 18  1  0  0  0  0
 20 21  1  0  0  0  0
 21 22  1  0  0  0  0
 22 23  1  0  0  0  0
 24 25  1  0  0  0  0
 25 23  1  0  0  0  0
 26 25  1  0  0  0  0
 27 28  1  0  0  0  0
 28 29  1  0  0  0  0
 29 31  1  0  0  0  0
 31 30  1  6  0  0  0
 31 32  1  0  0  0  0
 32 33  1  0  0  0  0
 33 34  1  0  0  0  0
 34 35  1  0  0  0  0
 36 35  1  0  0  0  0
 37 38  1  0  0  0  0
 38 36  1  0  0  0  0
M  END
>  <MODEL>
8

>  <REMARK>
 VINA RESULT:      -6.3      3.379      6.347
  Name = 
  16 active torsions:
  status: ('A' for Active; 'I' for Inactive)
    1  A    between atoms: C_3  and  C_11
    2  A    between atoms: C_3  and  C_27
    3  A    between atoms: C_4  and  C_11
    4  A    between atoms: C_4  and  C_34
    5  A    between atoms: C_5  and  O_35
    6  A    between atoms: C_5  and  O_38
    7  A    between atoms: C_9  and  N_10
    8  A    between atoms: C_17  and  C_25
    9  A    between atoms: C_17  and  C_30
   10  A    between atoms: C_18  and  C_34
   11  A    between atoms: C_18  and  O_35
   12  A    between atoms: C_20  and  N_32
   13  A    between atoms: C_21  and  C_27
   14  A    between atoms: C_21  and  N_36
   15  A    between atoms: C_28  and  C_33
   16  A    between atoms: C_30  and  N_32
                            x       y       z     vdW  Elec       q    Type
                         _______ _______ _______ _____ _____    ______ ____

>  <TORSDO>
F 16

$$$$
=
 OpenBabel10232408113D

 38 40  0  0  1  0  0  0  0  0999 V2000
  189.2330  177.8160  138.7510 C   0  0  0  0  0  3  0  0  0  0  0  0
  187.8680  178.1230  139.3440 C   0  0  0  0  0  2  0  0  0  0  0  0
  190.2680  177.3680  139.4790 C   0  0  0  0  0  0  0  0  0  0  0  0
  188.9930  177.6700  142.9230 N   0  0  0  0  0  0  0  0  0  0  0  0
  188.9770  177.7470  141.5660 C   0  0  0  0  0  0  0  0  0  0  0  0
  191.1980  176.7630  142.0940 S   0  0  0  0  0  0  0  0  0  0  0  0
  190.1550  177.1380  143.3810 C   0  0  0  0  0  0  0  0  0  0  0  0
  187.8950  178.2960  140.8040 N   0  0  0  0  0  0  0  0  0  0  0  0
  190.1080  177.2900  140.9320 C   0  0  0  0  0  0  0  0  0  0  0  0
  191.0760  176.5190  147.5320 C   0  0  0  0  0  3  0  0  0  0  0  0
  191.6540  176.3710  145.1920 C   0  0  0  0  0  3  0  0  0  0  0  0
  188.9800  177.4370  148.1750 F   0  0  0  0  0  0  0  0  0  0  0  0
  188.2840  177.8790  145.5520 O   0  0  0  0  0  1  0  0  0  0  0  0
  189.5170  177.3070  145.8470 C   0  0  0  0  0  0  0  0  0  0  0  0
  191.9790  176.1590  146.5330 C   0  0  0  0  0  3  0  0  0  0  0  0
  190.4270  176.9440  144.8270 C   0  0  0  0  0  0  0  0  0  0  0  0
  189.8490  177.0920  147.1920 C   0  0  0  0  0  0  0  0  0  0  0  0
  191.5420  177.0560  138.8940 N   0  0  0  0  0  2  0  0  0  0  0  0
  193.0110  175.9640  137.4650 O   0  0  0  0  0  0  0  0  0  0  0  0
  191.8530  176.0140  137.9560 C   0  0  0  0  0  0  0  0  0  0  0  0
  190.8710  174.9500  137.5810 C   0  0  0  0  0  2  0  0  0  0  0  0
  190.3800  175.1410  136.1550 C   0  0  0  0  0  2  0  0  0  0  0  0
  189.0990  174.4680  135.9660 N   0  0  0  0  0  2  0  0  0  0  0  0
  188.5800  176.7150  135.5070 O   0  0  0  0  0  1  0  0  0  0  0  0
  188.0390  175.4600  135.7900 C   0  0  0  0  0  3  0  0  0  0  0  0
  187.2330  175.5300  136.9290 O   0  0  0  0  0  1  0  0  0  0  0  0
  186.7090  178.8200  141.4640 C   0  0  0  0  0  2  0  0  0  0  0  0
  185.4900  178.6180  140.5790 C   0  0  0  0  0  2  0  0  0  0  0  0
  184.2380  179.1590  141.2520 C   0  0  0  0  0  2  0  0  0  0  0  0
  183.3220  177.2100  140.2190 O   0  0  0  0  0  1  0  0  0  0  0  0
  182.9850  178.4620  140.7370 C   0  0  1  0  0  3  0  0  0  0  0  0
  181.9910  178.2770  141.8720 C   0  0  0  0  0  2  0  0  0  0  0  0
  182.2550  179.2600  143.0010 C   0  0  0  0  0  2  0  0  0  0  0  0
  182.2110  178.5460  144.3390 C   0  0  0  0  0  2  0  0  0  0  0  0
  183.0230  179.2170  145.2520 O   0  0  0  0  0  0  0  0  0  0  0  0
  184.3200  179.0020  144.7860 C   0  0  0  0  0  2  0  0  0  0  0  0
  185.1600  178.4110  146.7380 C   0  0  0  0  0  1  0  0  0  0  0  0
  185.2370  179.4010  145.7590 O   0  0  0  0  0  0  0  0  0  0  0  0
  1  2  1  0  0  0  0
  1  3  2  0  0  0  0
  2  8  1  0  0  0  0
  3  9  1  0  0  0  0
  4  7  2  0  0  0  0
  5  4  1  0  0  0  0
  6  7  1  0  0  0  0
  7 16  1  0  0  0  0
  8 27  1  0  0  0  0
  8  5  1  0  0  0  0
  9  5  2  0  0  0  0
  9  6  1  0  0  0  0
 11 15  1  0  0  0  0
 13 14  1  0  0  0  0
 14 17  2  0  0  0  0
 15 10  2  0  0  0  0
 16 11  2  0  0  0  0
 16 14  1  0  0  0  0
 17 10  1  0  0  0  0
 17 12  1  0  0  0  0
 18  3  1  0  0  0  0
 19 20  2  0  0  0  0
 20 18  1  0  0  0  0
 21 20  1  0  0  0  0
 22 21  1  0  0  0  0
 23 22  1  0  0  0  0
 24 25  1  0  0  0  0
 25 23  1  0  0  0  0
 25 26  1  0  0  0  0
 28 29  1  0  0  0  0
 28 27  1  0  0  0  0
 31 30  1  1  0  0  0
 31 29  1  0  0  0  0
 31 32  1  0  0  0  0
 32 33  1  0  0  0  0
 33 34  1  0  0  0  0
 34 35  1  0  0  0  0
 36 35  1  0  0  0  0
 36 38  1  0  0  0  0
 38 37  1  0  0  0  0
M  END
>  <MODEL>
9

>  <REMARK>
 VINA RESULT:      -6.3      1.968      3.500
  Name = 
  16 active torsions:
  status: ('A' for Active; 'I' for Inactive)
    1  A    between atoms: C_3  and  C_11
    2  A    between atoms: C_3  and  C_27
    3  A    between atoms: C_4  and  C_11
    4  A    between atoms: C_4  and  C_34
    5  A    between atoms: C_5  and  O_35
    6  A    between atoms: C_5  and  O_38
    7  A    between atoms: C_9  and  N_10
    8  A    between atoms: C_17  and  C_25
    9  A    between atoms: C_17  and  C_30
   10  A    between atoms: C_18  and  C_34
   11  A    between atoms: C_18  and  O_35
   12  A    between atoms: C_20  and  N_32
   13  A    between atoms: C_21  and  C_27
   14  A    between atoms: C_21  and  N_36
   15  A    between atoms: C_28  and  C_33
   16  A    between atoms: C_30  and  N_32
                            x       y       z     vdW  Elec       q    Type
                         _______ _______ _______ _____ _____    ______ ____

>  <TORSDO>
F 16

$$$$
