=
 OpenBabel10232411143D

 33 35  0  0  1  0  0  0  0  0999 V2000
  187.4610  173.9020  134.8790 C   0  0  0  0  0  0  0  0  0  0  0  0
  188.7570  171.8280  135.3220 C   0  0  0  0  0  3  0  0  0  0  0  0
  191.9390  173.6110  135.1230 O   0  0  0  0  0  0  0  0  0  0  0  0
  194.7460  174.4140  137.2530 C   0  0  0  0  0  2  0  0  0  0  0  0
  187.4700  177.9360  139.1870 C   0  0  0  0  0  2  0  0  0  0  0  0
  187.0620  176.9220  138.1220 C   0  0  0  0  0  2  0  0  0  0  0  0
  189.8480  174.5870  134.5740 C   0  0  0  0  0  3  0  0  0  0  0  0
  192.5890  174.8560  135.3780 C   0  0  2  0  0  3  0  0  0  0  0  0
  188.9440  178.3360  139.1090 C   0  0  2  0  0  3  0  0  0  0  0  0
  189.6240  174.9060  137.8910 C   0  0  0  0  0  2  0  0  0  0  0  0
  188.3970  174.6880  134.3460 C   0  0  0  0  0  3  0  0  0  0  0  0
  191.4430  176.4000  137.1360 C   0  0  2  0  0  3  0  0  0  0  0  0
  186.3220  177.6020  136.9750 C   0  0  2  0  0  3  0  0  0  0  0  0
  195.0310  174.5310  135.7800 C   0  0  0  0  0  0  0  0  0  0  0  0
  187.8060  172.8340  135.8810 C   0  0  2  0  0  3  0  0  0  0  0  0
  190.3480  176.0080  138.0890 C   0  0  0  0  0  0  0  0  0  0  0  0
  194.0270  174.7640  134.9260 C   0  0  0  0  0  3  0  0  0  0  0  0
  189.3080  178.9770  137.7800 C   0  0  0  0  0  1  0  0  0  0  0  0
  191.3870  177.6440  139.8480 O   0  0  0  0  0  0  0  0  0  0  0  0
  184.9180  178.0090  137.3950 C   0  0  0  0  0  1  0  0  0  0  0  0
  193.7210  175.4710  137.6400 C   0  0  0  0  0  2  0  0  0  0  0  0
  186.2860  176.7170  135.7300 C   0  0  0  0  0  2  0  0  0  0  0  0
  186.6610  172.1820  136.3420 O   0  0  0  0  0  1  0  0  0  0  0  0
  185.5820  175.3860  135.9740 C   0  0  0  0  0  2  0  0  0  0  0  0
  190.5640  173.4940  134.8850 C   0  0  0  0  0  0  0  0  0  0  0  0
  190.9060  176.9320  135.9610 O   0  0  0  0  0  1  0  0  0  0  0  0
  190.0510  176.9720  139.5580 S   0  0  1  0  0  0  0  0  0  0  0  0
  192.4160  175.2380  136.8760 C   0  0  2  0  0  3  0  0  0  0  0  0
  185.7480  174.3020  134.5170 S   0  0  0  0  0  0  0  0  0  0  0  0
  189.9900  172.1350  134.9220 C   0  0  0  0  0  3  0  0  0  0  0  0
  196.4360  174.4960  135.2630 C   0  0  0  0  0  3  0  0  0  0  0  0
  197.1030  175.8490  135.4220 C   0  0  0  0  0  1  0  0  0  0  0  0
  197.2490  173.4300  135.9750 C   0  0  0  0  0  1  0  0  0  0  0  0
  1 15  1  0  0  0  0
  2 15  1  0  0  0  0
  3  8  1  0  0  0  0
  4 21  1  0  0  0  0
  6  5  1  0  0  0  0
  7 25  2  0  0  0  0
  8 17  1  1  0  0  0
  8 28  1  0  0  0  0
  9 18  1  6  0  0  0
  9  5  1  0  0  0  0
  9 27  1  0  0  0  0
 10 16  2  0  0  0  0
 11  7  1  0  0  0  0
 11  1  2  0  0  0  0
 12 26  1  6  0  0  0
 12 16  1  0  0  0  0
 13 20  1  1  0  0  0
 13  6  1  0  0  0  0
 14  4  1  0  0  0  0
 15 23  1  6  0  0  0
 16 27  1  0  0  0  0
 17 14  2  0  0  0  0
 22 24  1  0  0  0  0
 22 13  1  0  0  0  0
 25 30  1  0  0  0  0
 25  3  1  0  0  0  0
 27 19  2  6  0  0  0
 28 12  1  0  0  0  0
 28 21  1  6  0  0  0
 29  1  1  0  0  0  0
 29 24  1  0  0  0  0
 30  2  2  0  0  0  0
 31 32  1  0  0  0  0
 31 14  1  0  0  0  0
 31 33  1  0  0  0  0
M  END
>  <MODEL>
1

>  <REMARK>
 VINA RESULT:      -4.8      0.000      0.000
  Name = 
  1 active torsions:
  status: ('A' for Active; 'I' for Inactive)
    1  A    between atoms: C_1  and  C_17
                            x       y       z     vdW  Elec       q    Type
                         _______ _______ _______ _____ _____    ______ ____

>  <TORSDO>
F 1

$$$$
=
 OpenBabel10232411143D

 33 35  0  0  1  0  0  0  0  0999 V2000
  186.6950  177.0500  136.9090 C   0  0  0  0  0  0  0  0  0  0  0  0
  188.3620  178.4160  135.6720 C   0  0  0  0  0  3  0  0  0  0  0  0
  191.1390  176.3840  136.9010 O   0  0  0  0  0  0  0  0  0  0  0  0
  193.7020  174.2010  135.5890 C   0  0  0  0  0  2  0  0  0  0  0  0
  185.8500  171.5590  134.9160 C   0  0  0  0  0  2  0  0  0  0  0  0
  185.6650  173.0040  135.3710 C   0  0  0  0  0  2  0  0  0  0  0  0
  188.9070  176.1650  137.6720 C   0  0  0  0  0  3  0  0  0  0  0  0
  191.5300  175.0680  137.2890 C   0  0  2  0  0  3  0  0  0  0  0  0
  187.2190  170.9820  135.2800 C   0  0  2  0  0  3  0  0  0  0  0  0
  188.5730  174.4020  134.8550 C   0  0  0  0  0  2  0  0  0  0  0  0
  187.4670  176.4430  137.8100 C   0  0  0  0  0  3  0  0  0  0  0  0
  190.0780  173.1230  136.3420 C   0  0  2  0  0  3  0  0  0  0  0  0
  184.8240  173.0730  136.6410 C   0  0  2  0  0  3  0  0  0  0  0  0
  193.9820  174.7260  136.9710 C   0  0  0  0  0  0  0  0  0  0  0  0
  187.2250  177.4550  135.5610 C   0  0  2  0  0  3  0  0  0  0  0  0
  189.0650  173.2220  135.2350 C   0  0  0  0  0  0  0  0  0  0  0  0
  192.9650  175.0960  137.7580 C   0  0  0  0  0  3  0  0  0  0  0  0
  187.4720  170.9700  136.7780 C   0  0  0  0  0  1  0  0  0  0  0  0
  189.7390  170.8030  134.4950 O   0  0  0  0  0  0  0  0  0  0  0  0
  183.3610  172.7790  136.3450 C   0  0  0  0  0  1  0  0  0  0  0  0
  192.4850  173.2880  135.6460 C   0  0  0  0  0  2  0  0  0  0  0  0
  184.9800  174.4220  137.3410 C   0  0  0  0  0  2  0  0  0  0  0  0
  186.2220  178.0160  134.7680 O   0  0  0  0  0  1  0  0  0  0  0  0
  184.5450  175.5940  136.4670 C   0  0  0  0  0  2  0  0  0  0  0  0
  189.8160  176.8430  136.9540 C   0  0  0  0  0  0  0  0  0  0  0  0
  189.4660  173.2980  137.5860 O   0  0  0  0  0  1  0  0  0  0  0  0
  188.5640  171.7620  134.3460 S   0  0  1  0  0  0  0  0  0  0  0  0
  191.2620  174.0770  136.1190 C   0  0  2  0  0  3  0  0  0  0  0  0
  184.9420  177.1770  137.2810 S   0  0  0  0  0  0  0  0  0  0  0  0
  189.5180  178.1110  136.2610 C   0  0  0  0  0  3  0  0  0  0  0  0
  195.3750  174.7410  137.5210 C   0  0  0  0  0  3  0  0  0  0  0  0
  195.4510  173.9520  138.8150 C   0  0  0  0  0  1  0  0  0  0  0  0
  196.3610  174.1810  136.5130 C   0  0  0  0  0  1  0  0  0  0  0  0
  1 29  1  0  0  0  0
  1 11  2  0  0  0  0
  2 30  2  0  0  0  0
  3 25  1  0  0  0  0
  3  8  1  0  0  0  0
  4 21  1  0  0  0  0
  4 14  1  0  0  0  0
  5  9  1  0  0  0  0
  5  6  1  0  0  0  0
  6 13  1  0  0  0  0
  7 11  1  0  0  0  0
  8 17  1  6  0  0  0
  9 18  1  1  0  0  0
 10 16  2  0  0  0  0
 12 26  1  1  0  0  0
 13 20  1  6  0  0  0
 13 22  1  0  0  0  0
 14 31  1  0  0  0  0
 14 17  2  0  0  0  0
 15 23  1  6  0  0  0
 15  2  1  0  0  0  0
 15  1  1  0  0  0  0
 16 12  1  0  0  0  0
 24 29  1  0  0  0  0
 24 22  1  0  0  0  0
 25  7  2  0  0  0  0
 27 19  2  1  0  0  0
 27 16  1  0  0  0  0
 27  9  1  0  0  0  0
 28 21  1  1  0  0  0
 28 12  1  0  0  0  0
 28  8  1  0  0  0  0
 30 25  1  0  0  0  0
 31 32  1  0  0  0  0
 33 31  1  0  0  0  0
M  END
>  <MODEL>
2

>  <REMARK>
 VINA RESULT:      -4.6      2.171      4.839
  Name = 
  1 active torsions:
  status: ('A' for Active; 'I' for Inactive)
    1  A    between atoms: C_1  and  C_17
                            x       y       z     vdW  Elec       q    Type
                         _______ _______ _______ _____ _____    ______ ____

>  <TORSDO>
F 1

$$$$
=
 OpenBabel10232411143D

 33 35  0  0  1  0  0  0  0  0999 V2000
  184.8970  176.7400  135.8510 C   0  0  0  0  0  0  0  0  0  0  0  0
  186.2130  174.9130  136.9030 C   0  0  0  0  0  3  0  0  0  0  0  0
  187.5830  177.1710  139.4280 O   0  0  0  0  0  0  0  0  0  0  0  0
  187.5220  177.5980  143.0160 C   0  0  0  0  0  2  0  0  0  0  0  0
  180.3470  178.8000  138.9970 C   0  0  0  0  0  2  0  0  0  0  0  0
  181.2310  178.2050  137.9040 C   0  0  0  0  0  2  0  0  0  0  0  0
  186.2900  177.8970  137.5770 C   0  0  0  0  0  3  0  0  0  0  0  0
  187.3090  178.3230  140.2250 C   0  0  2  0  0  3  0  0  0  0  0  0
  181.1420  179.4530  140.1290 C   0  0  2  0  0  3  0  0  0  0  0  0
  183.7590  176.9060  139.5170 C   0  0  0  0  0  2  0  0  0  0  0  0
  185.5190  177.8200  136.3250 C   0  0  0  0  0  3  0  0  0  0  0  0
  184.7910  178.8690  140.6110 C   0  0  2  0  0  3  0  0  0  0  0  0
  181.2900  179.1230  136.6890 C   0  0  2  0  0  3  0  0  0  0  0  0
  188.6570  178.3060  142.3260 C   0  0  0  0  0  0  0  0  0  0  0  0
  184.8490  175.4530  136.6290 C   0  0  2  0  0  3  0  0  0  0  0  0
  183.6270  177.9620  140.3190 C   0  0  0  0  0  0  0  0  0  0  0  0
  188.5330  178.6620  141.0420 C   0  0  0  0  0  3  0  0  0  0  0  0
  182.0170  180.5980  139.6470 C   0  0  0  0  0  1  0  0  0  0  0  0
  182.4060  178.9760  142.4020 O   0  0  0  0  0  0  0  0  0  0  0  0
  179.9830  179.0890  135.9130 C   0  0  0  0  0  1  0  0  0  0  0  0
  186.2090  178.2350  142.5840 C   0  0  0  0  0  2  0  0  0  0  0  0
  182.4720  178.7770  135.7850 C   0  0  0  0  0  2  0  0  0  0  0  0
  184.0940  174.4850  135.9640 O   0  0  0  0  0  1  0  0  0  0  0  0
  182.4070  177.3500  135.2490 C   0  0  0  0  0  2  0  0  0  0  0  0
  186.9510  176.9120  138.2050 C   0  0  0  0  0  0  0  0  0  0  0  0
  185.0530  179.6980  139.5180 O   0  0  0  0  0  1  0  0  0  0  0  0
  182.0570  178.2370  141.1160 S   0  0  1  0  0  0  0  0  0  0  0  0
  186.0270  178.0790  141.0720 C   0  0  2  0  0  3  0  0  0  0  0  0
  183.9370  176.9380  134.3460 S   0  0  0  0  0  0  0  0  0  0  0  0
  187.1180  175.5600  137.6370 C   0  0  0  0  0  3  0  0  0  0  0  0
  189.8830  178.7150  143.0820 C   0  0  0  0  0  3  0  0  0  0  0  0
  189.7380  178.3940  144.5580 C   0  0  0  0  0  1  0  0  0  0  0  0
  191.1170  178.0310  142.5210 C   0  0  0  0  0  1  0  0  0  0  0  0
  1 11  2  0  0  0  0
  1 15  1  0  0  0  0
  2 30  2  0  0  0  0
  3  8  1  0  0  0  0
  5  9  1  0  0  0  0
  6  5  1  0  0  0  0
  7 25  2  0  0  0  0
  8 17  1  1  0  0  0
  8 28  1  0  0  0  0
  9 18  1  6  0  0  0
  9 27  1  0  0  0  0
 10 16  2  0  0  0  0
 11  7  1  0  0  0  0
 12 26  1  6  0  0  0
 12 28  1  0  0  0  0
 13 20  1  6  0  0  0
 13  6  1  0  0  0  0
 14  4  1  0  0  0  0
 14 31  1  0  0  0  0
 15 23  1  6  0  0  0
 15  2  1  0  0  0  0
 16 12  1  0  0  0  0
 16 27  1  0  0  0  0
 17 14  2  0  0  0  0
 21  4  1  0  0  0  0
 22 13  1  0  0  0  0
 24 22  1  0  0  0  0
 25  3  1  0  0  0  0
 27 19  2  1  0  0  0
 28 21  1  1  0  0  0
 29 24  1  0  0  0  0
 29  1  1  0  0  0  0
 30 25  1  0  0  0  0
 31 32  1  0  0  0  0
 33 31  1  0  0  0  0
M  END
>  <MODEL>
3

>  <REMARK>
 VINA RESULT:      -4.4      5.247      7.323
  Name = 
  1 active torsions:
  status: ('A' for Active; 'I' for Inactive)
    1  A    between atoms: C_1  and  C_17
                            x       y       z     vdW  Elec       q    Type
                         _______ _______ _______ _____ _____    ______ ____

>  <TORSDO>
F 1

$$$$
=
 OpenBabel10232411143D

 33 35  0  0  1  0  0  0  0  0999 V2000
  190.3520  177.6380  140.0110 C   0  0  0  0  0  0  0  0  0  0  0  0
  188.6950  177.2870  141.8290 C   0  0  0  0  0  3  0  0  0  0  0  0
  185.9680  178.6000  139.7830 O   0  0  0  0  0  0  0  0  0  0  0  0
  182.8610  177.4590  138.3340 C   0  0  0  0  0  2  0  0  0  0  0  0
  189.8370  174.0980  135.3160 C   0  0  0  0  0  2  0  0  0  0  0  0
  190.3500  174.8590  136.5350 C   0  0  0  0  0  2  0  0  0  0  0  0
  188.2500  178.6800  139.1410 C   0  0  0  0  0  3  0  0  0  0  0  0
  185.4660  178.7090  138.4520 C   0  0  2  0  0  3  0  0  0  0  0  0
  188.5080  174.6340  134.7830 C   0  0  2  0  0  3  0  0  0  0  0  0
  187.6640  175.5070  138.2800 C   0  0  0  0  0  2  0  0  0  0  0  0
  189.7100  178.5110  139.2340 C   0  0  0  0  0  3  0  0  0  0  0  0
  186.3390  176.9330  136.7570 C   0  0  2  0  0  3  0  0  0  0  0  0
  191.4510  175.8400  136.1450 C   0  0  2  0  0  3  0  0  0  0  0  0
  182.9810  178.9540  138.4440 C   0  0  0  0  0  0  0  0  0  0  0  0
  189.6090  176.6330  140.8480 C   0  0  2  0  0  3  0  0  0  0  0  0
  187.0840  175.6710  137.0910 C   0  0  0  0  0  0  0  0  0  0  0  0
  184.1940  179.5220  138.4680 C   0  0  0  0  0  3  0  0  0  0  0  0
  188.5940  176.0870  134.3460 C   0  0  0  0  0  1  0  0  0  0  0  0
  185.8830  174.5090  135.0760 O   0  0  0  0  0  0  0  0  0  0  0  0
  192.7440  175.1090  135.8220 C   0  0  0  0  0  1  0  0  0  0  0  0
  183.8960  176.9530  137.3400 C   0  0  0  0  0  2  0  0  0  0  0  0
  191.6730  176.8920  137.2300 C   0  0  0  0  0  2  0  0  0  0  0  0
  190.4890  175.7880  141.5270 O   0  0  0  0  0  1  0  0  0  0  0  0
  192.0870  176.2830  138.5660 C   0  0  0  0  0  2  0  0  0  0  0  0
  187.3260  178.4310  140.0830 C   0  0  0  0  0  0  0  0  0  0  0  0
  187.2310  177.9760  136.4950 O   0  0  0  0  0  1  0  0  0  0  0  0
  187.1340  174.3240  135.9250 S   0  0  1  0  0  0  0  0  0  0  0  0
  185.3040  177.2880  137.8370 C   0  0  2  0  0  3  0  0  0  0  0  0
  192.1410  177.5640  139.8620 S   0  0  0  0  0  0  0  0  0  0  0  0
  187.6640  178.0500  141.4680 C   0  0  0  0  0  3  0  0  0  0  0  0
  181.7660  179.8300  138.4200 C   0  0  0  0  0  3  0  0  0  0  0  0
  182.1570  181.2950  138.4720 C   0  0  0  0  0  1  0  0  0  0  0  0
  180.9300  179.5600  137.1820 C   0  0  0  0  0  1  0  0  0  0  0  0
  1 15  1  0  0  0  0
  3 25  1  0  0  0  0
  4 14  1  0  0  0  0
  5  6  1  0  0  0  0
  7 11  1  0  0  0  0
  7 25  2  0  0  0  0
  8 17  1  1  0  0  0
  8  3  1  0  0  0  0
  9 18  1  1  0  0  0
  9  5  1  0  0  0  0
  9 27  1  0  0  0  0
 11  1  2  0  0  0  0
 12 26  1  1  0  0  0
 12 16  1  0  0  0  0
 12 28  1  0  0  0  0
 13 20  1  1  0  0  0
 13  6  1  0  0  0  0
 13 22  1  0  0  0  0
 14 17  2  0  0  0  0
 15 23  1  1  0  0  0
 15  2  1  0  0  0  0
 16 10  2  0  0  0  0
 21  4  1  0  0  0  0
 22 24  1  0  0  0  0
 24 29  1  0  0  0  0
 25 30  1  0  0  0  0
 27 19  2  6  0  0  0
 27 16  1  0  0  0  0
 28 21  1  6  0  0  0
 28  8  1  0  0  0  0
 29  1  1  0  0  0  0
 30  2  2  0  0  0  0
 31 14  1  0  0  0  0
 31 32  1  0  0  0  0
 33 31  1  0  0  0  0
M  END
>  <MODEL>
4

>  <REMARK>
 VINA RESULT:      -4.3      2.405      8.791
  Name = 
  1 active torsions:
  status: ('A' for Active; 'I' for Inactive)
    1  A    between atoms: C_1  and  C_17
                            x       y       z     vdW  Elec       q    Type
                         _______ _______ _______ _____ _____    ______ ____

>  <TORSDO>
F 1

$$$$
=
 OpenBabel10232411143D

 33 35  0  0  1  0  0  0  0  0999 V2000
  184.0280  176.7930  136.5050 C   0  0  0  0  0  0  0  0  0  0  0  0
  185.6910  177.7210  134.9080 C   0  0  0  0  0  3  0  0  0  0  0  0
  188.2500  175.3460  135.9850 O   0  0  0  0  0  0  0  0  0  0  0  0
  190.1940  172.6290  134.6060 C   0  0  0  0  0  2  0  0  0  0  0  0
  182.0050  171.3830  135.2900 C   0  0  0  0  0  2  0  0  0  0  0  0
  182.1290  172.8730  135.5950 C   0  0  0  0  0  2  0  0  0  0  0  0
  186.1540  175.6000  137.0650 C   0  0  0  0  0  3  0  0  0  0  0  0
  188.4740  174.0220  136.4670 C   0  0  2  0  0  3  0  0  0  0  0  0
  183.2990  170.6060  135.5340 C   0  0  2  0  0  3  0  0  0  0  0  0
  185.1160  173.6760  134.5410 C   0  0  0  0  0  2  0  0  0  0  0  0
  184.8170  176.1420  137.3600 C   0  0  0  0  0  3  0  0  0  0  0  0
  186.5980  172.2900  135.9530 C   0  0  2  0  0  3  0  0  0  0  0  0
  181.5120  173.2070  136.9490 C   0  0  2  0  0  3  0  0  0  0  0  0
  190.7610  173.2190  135.8680 C   0  0  0  0  0  0  0  0  0  0  0  0
  184.4090  176.9730  135.0600 C   0  0  2  0  0  3  0  0  0  0  0  0
  185.4600  172.4680  134.9860 C   0  0  0  0  0  0  0  0  0  0  0  0
  189.9490  173.8360  136.7350 C   0  0  0  0  0  3  0  0  0  0  0  0
  183.7700  170.6860  136.9760 C   0  0  0  0  0  1  0  0  0  0  0  0
  185.6080  169.9100  134.4480 O   0  0  0  0  0  0  0  0  0  0  0  0
  179.9940  173.1530  136.8860 C   0  0  0  0  0  1  0  0  0  0  0  0
  188.8670  171.9580  134.9290 C   0  0  0  0  0  2  0  0  0  0  0  0
  181.9910  174.5640  137.4620 C   0  0  0  0  0  2  0  0  0  0  0  0
  183.4030  177.6290  134.3480 O   0  0  0  0  0  1  0  0  0  0  0  0
  181.6280  175.7110  136.5230 C   0  0  0  0  0  2  0  0  0  0  0  0
  187.0440  176.0370  136.1590 C   0  0  0  0  0  0  0  0  0  0  0  0
  186.2170  172.6840  137.2380 O   0  0  0  0  0  1  0  0  0  0  0  0
  184.5980  171.0450  134.3460 S   0  0  1  0  0  0  0  0  0  0  0  0
  187.8750  172.9930  135.4660 C   0  0  2  0  0  3  0  0  0  0  0  0
  182.3960  177.2650  137.0880 S   0  0  0  0  0  0  0  0  0  0  0  0
  186.8570  177.2690  135.3700 C   0  0  0  0  0  3  0  0  0  0  0  0
  192.2040  173.0360  136.2240 C   0  0  0  0  0  3  0  0  0  0  0  0
  193.0060  172.5980  135.0120 C   0  0  0  0  0  1  0  0  0  0  0  0
  192.7860  174.3150  136.7960 C   0  0  0  0  0  1  0  0  0  0  0  0
  1 29  1  0  0  0  0
  1 11  2  0  0  0  0
  2 15  1  0  0  0  0
  2 30  2  0  0  0  0
  3 25  1  0  0  0  0
  3  8  1  0  0  0  0
  4 21  1  0  0  0  0
  4 14  1  0  0  0  0
  5  9  1  0  0  0  0
  5  6  1  0  0  0  0
  6 13  1  0  0  0  0
  7 11  1  0  0  0  0
  8 17  1  6  0  0  0
  9 18  1  1  0  0  0
 10 16  2  0  0  0  0
 12 26  1  1  0  0  0
 13 20  1  6  0  0  0
 13 22  1  0  0  0  0
 14 31  1  0  0  0  0
 14 17  2  0  0  0  0
 15 23  1  6  0  0  0
 15  1  1  0  0  0  0
 16 12  1  0  0  0  0
 24 29  1  0  0  0  0
 24 22  1  0  0  0  0
 25  7  2  0  0  0  0
 27 19  2  1  0  0  0
 27 16  1  0  0  0  0
 27  9  1  0  0  0  0
 28 21  1  1  0  0  0
 28 12  1  0  0  0  0
 28  8  1  0  0  0  0
 30 25  1  0  0  0  0
 31 33  1  0  0  0  0
 32 31  1  0  0  0  0
M  END
>  <MODEL>
5

>  <REMARK>
 VINA RESULT:      -4.2      3.190      6.436
  Name = 
  1 active torsions:
  status: ('A' for Active; 'I' for Inactive)
    1  A    between atoms: C_1  and  C_17
                            x       y       z     vdW  Elec       q    Type
                         _______ _______ _______ _____ _____    ______ ____

>  <TORSDO>
F 1

$$$$
=
 OpenBabel10232411143D

 33 35  0  0  1  0  0  0  0  0999 V2000
  189.5640  177.7010  141.9450 C   0  0  0  0  0  0  0  0  0  0  0  0
  187.4840  176.9130  143.0530 C   0  0  0  0  0  3  0  0  0  0  0  0
  185.3740  178.6940  140.6610 O   0  0  0  0  0  0  0  0  0  0  0  0
  182.9070  177.9490  138.1280 C   0  0  0  0  0  2  0  0  0  0  0  0
  190.6810  175.4320  136.6130 C   0  0  0  0  0  2  0  0  0  0  0  0
  190.7640  175.8680  138.0720 C   0  0  0  0  0  2  0  0  0  0  0  0
  187.7320  178.9280  140.7630 C   0  0  0  0  0  3  0  0  0  0  0  0
  185.2700  179.1290  139.3060 C   0  0  2  0  0  3  0  0  0  0  0  0
  189.5270  176.0850  135.8510 C   0  0  2  0  0  3  0  0  0  0  0  0
  187.6510  176.0670  139.0430 C   0  0  0  0  0  2  0  0  0  0  0  0
  189.1120  178.7400  141.2430 C   0  0  0  0  0  3  0  0  0  0  0  0
  186.7200  177.8260  137.5770 C   0  0  2  0  0  3  0  0  0  0  0  0
  191.8570  176.9130  138.2700 C   0  0  2  0  0  3  0  0  0  0  0  0
  182.8820  179.3710  138.6190 C   0  0  0  0  0  0  0  0  0  0  0  0
  188.6870  176.5210  142.2610 C   0  0  2  0  0  3  0  0  0  0  0  0
  187.4270  176.5200  137.8090 C   0  0  0  0  0  0  0  0  0  0  0  0
  183.9910  179.9140  139.1350 C   0  0  0  0  0  3  0  0  0  0  0  0
  189.6290  177.6010  135.8160 C   0  0  0  0  0  1  0  0  0  0  0  0
  186.9440  175.8940  135.3130 O   0  0  0  0  0  0  0  0  0  0  0  0
  193.2380  176.2840  138.1820 C   0  0  0  0  0  1  0  0  0  0  0  0
  184.2180  177.7040  137.3960 C   0  0  0  0  0  2  0  0  0  0  0  0
  191.6800  177.6640  139.5880 C   0  0  0  0  0  2  0  0  0  0  0  0
  189.3930  175.5330  142.9510 O   0  0  0  0  0  1  0  0  0  0  0  0
  191.7350  176.7430  140.8030 C   0  0  0  0  0  2  0  0  0  0  0  0
  186.5970  178.4550  141.3010 C   0  0  0  0  0  0  0  0  0  0  0  0
  187.5720  178.9010  137.8460 O   0  0  0  0  0  1  0  0  0  0  0  0
  187.9080  175.5040  136.4270 S   0  0  1  0  0  0  0  0  0  0  0  0
  185.3960  177.9040  138.3530 C   0  0  2  0  0  3  0  0  0  0  0  0
  191.3210  177.6650  142.3210 S   0  0  0  0  0  0  0  0  0  0  0  0
  186.5490  177.7430  142.5930 C   0  0  0  0  0  3  0  0  0  0  0  0
  181.6650  180.2260  138.4430 C   0  0  0  0  0  3  0  0  0  0  0  0
  182.0320  181.6980  138.4710 C   0  0  0  0  0  1  0  0  0  0  0  0
  180.9540  179.8940  137.1440 C   0  0  0  0  0  1  0  0  0  0  0  0
  1 15  1  0  0  0  0
  1 29  1  0  0  0  0
  3 25  1  0  0  0  0
  4 14  1  0  0  0  0
  5  6  1  0  0  0  0
  6 13  1  0  0  0  0
  7 11  1  0  0  0  0
  7 25  2  0  0  0  0
  8 17  1  1  0  0  0
  8  3  1  0  0  0  0
  9 18  1  1  0  0  0
  9 27  1  0  0  0  0
  9  5  1  0  0  0  0
 11  1  2  0  0  0  0
 12 16  1  0  0  0  0
 12 26  1  1  0  0  0
 12 28  1  0  0  0  0
 13 20  1  1  0  0  0
 13 22  1  0  0  0  0
 14 17  2  0  0  0  0
 15 23  1  1  0  0  0
 15  2  1  0  0  0  0
 16 10  2  0  0  0  0
 21  4  1  0  0  0  0
 22 24  1  0  0  0  0
 24 29  1  0  0  0  0
 25 30  1  0  0  0  0
 27 19  2  6  0  0  0
 27 16  1  0  0  0  0
 28 21  1  6  0  0  0
 28  8  1  0  0  0  0
 30  2  2  0  0  0  0
 31 32  1  0  0  0  0
 31 14  1  0  0  0  0
 33 31  1  0  0  0  0
M  END
>  <MODEL>
6

>  <REMARK>
 VINA RESULT:      -4.1      3.114      9.107
  Name = 
  1 active torsions:
  status: ('A' for Active; 'I' for Inactive)
    1  A    between atoms: C_1  and  C_17
                            x       y       z     vdW  Elec       q    Type
                         _______ _______ _______ _____ _____    ______ ____

>  <TORSDO>
F 1

$$$$
=
 OpenBabel10232411143D

 33 35  0  0  1  0  0  0  0  0999 V2000
  189.6620  176.0830  136.5110 C   0  0  0  0  0  0  0  0  0  0  0  0
  189.0610  177.2860  138.6010 C   0  0  0  0  0  3  0  0  0  0  0  0
  185.6360  177.8420  137.4570 O   0  0  0  0  0  0  0  0  0  0  0  0
  182.2700  176.9340  138.4070 C   0  0  0  0  0  2  0  0  0  0  0  0
  187.1890  170.7750  135.7710 C   0  0  0  0  0  2  0  0  0  0  0  0
  188.1740  171.9320  135.9150 C   0  0  0  0  0  2  0  0  0  0  0  0
  187.3500  176.9420  136.0870 C   0  0  0  0  0  3  0  0  0  0  0  0
  184.5670  177.2930  136.6880 C   0  0  2  0  0  3  0  0  0  0  0  0
  185.7410  171.2320  135.5920 C   0  0  2  0  0  3  0  0  0  0  0  0
  186.5820  174.1360  137.7290 C   0  0  0  0  0  2  0  0  0  0  0  0
  188.6910  176.4830  135.6880 C   0  0  0  0  0  3  0  0  0  0  0  0
  184.6340  174.7150  136.3220 C   0  0  2  0  0  3  0  0  0  0  0  0
  188.9180  172.1830  134.6080 C   0  0  2  0  0  3  0  0  0  0  0  0
  182.3560  178.1270  137.4950 C   0  0  0  0  0  0  0  0  0  0  0  0
  189.4430  175.9760  137.9950 C   0  0  2  0  0  3  0  0  0  0  0  0
  185.5080  173.7320  137.0500 C   0  0  0  0  0  0  0  0  0  0  0  0
  183.4120  178.2660  136.6830 C   0  0  0  0  0  3  0  0  0  0  0  0
  185.5440  172.0870  134.3510 C   0  0  0  0  0  1  0  0  0  0  0  0
  183.5630  171.9870  136.8890 O   0  0  0  0  0  0  0  0  0  0  0  0
  189.9450  171.0930  134.3460 C   0  0  0  0  0  1  0  0  0  0  0  0
  182.7460  175.7010  137.6520 C   0  0  0  0  0  2  0  0  0  0  0  0
  189.5690  173.5650  134.5920 C   0  0  0  0  0  2  0  0  0  0  0  0
  190.5770  175.4810  138.6410 O   0  0  0  0  0  1  0  0  0  0  0  0
  190.5860  173.7500  135.7140 C   0  0  0  0  0  2  0  0  0  0  0  0
  186.9840  177.5290  137.2380 C   0  0  0  0  0  0  0  0  0  0  0  0
  185.2500  175.1420  135.1430 O   0  0  0  0  0  1  0  0  0  0  0  0
  185.0740  172.0050  137.0910 S   0  0  1  0  0  0  0  0  0  0  0  0
  184.2060  175.8800  137.2290 C   0  0  2  0  0  3  0  0  0  0  0  0
  191.1760  175.4750  135.7600 S   0  0  0  0  0  0  0  0  0  0  0  0
  187.9460  177.9400  138.2790 C   0  0  0  0  0  3  0  0  0  0  0  0
  181.2300  179.1090  137.4010 C   0  0  0  0  0  3  0  0  0  0  0  0
  180.9270  179.4450  135.9530 C   0  0  0  0  0  1  0  0  0  0  0  0
  179.9840  178.5690  138.0800 C   0  0  0  0  0  1  0  0  0  0  0  0
  1 15  1  0  0  0  0
  5  6  1  0  0  0  0
  7 25  2  0  0  0  0
  8 17  1  1  0  0  0
  8 28  1  0  0  0  0
  8  3  1  0  0  0  0
  9 18  1  6  0  0  0
  9  5  1  0  0  0  0
  9 27  1  0  0  0  0
 11  7  1  0  0  0  0
 11  1  2  0  0  0  0
 12 26  1  6  0  0  0
 12 16  1  0  0  0  0
 12 28  1  0  0  0  0
 13 20  1  1  0  0  0
 13  6  1  0  0  0  0
 14  4  1  0  0  0  0
 15  2  1  0  0  0  0
 15 23  1  1  0  0  0
 16 27  1  0  0  0  0
 16 10  2  0  0  0  0
 17 14  2  0  0  0  0
 21  4  1  0  0  0  0
 22 13  1  0  0  0  0
 22 24  1  0  0  0  0
 24 29  1  0  0  0  0
 25  3  1  0  0  0  0
 25 30  1  0  0  0  0
 27 19  2  6  0  0  0
 28 21  1  6  0  0  0
 29  1  1  0  0  0  0
 30  2  2  0  0  0  0
 31 14  1  0  0  0  0
 31 33  1  0  0  0  0
 32 31  1  0  0  0  0
M  END
>  <MODEL>
7

>  <REMARK>
 VINA RESULT:      -4.0      3.076      8.853
  Name = 
  1 active torsions:
  status: ('A' for Active; 'I' for Inactive)
    1  A    between atoms: C_1  and  C_17
                            x       y       z     vdW  Elec       q    Type
                         _______ _______ _______ _____ _____    ______ ____

>  <TORSDO>
F 1

$$$$
=
 OpenBabel10232411143D

 33 35  0  0  1  0  0  0  0  0999 V2000
  190.8600  177.5120  139.6180 C   0  0  0  0  0  0  0  0  0  0  0  0
  188.7750  177.2690  140.9490 C   0  0  0  0  0  3  0  0  0  0  0  0
  186.6820  177.5210  137.9650 O   0  0  0  0  0  0  0  0  0  0  0  0
  184.3360  175.4940  136.1080 C   0  0  0  0  0  2  0  0  0  0  0  0
  192.2520  172.9640  136.1240 C   0  0  0  0  0  2  0  0  0  0  0  0
  192.2670  174.0680  137.1770 C   0  0  0  0  0  2  0  0  0  0  0  0
  189.0230  177.8970  137.9640 C   0  0  0  0  0  3  0  0  0  0  0  0
  186.6080  177.2220  136.5720 C   0  0  2  0  0  3  0  0  0  0  0  0
  191.1000  173.0930  135.1270 C   0  0  2  0  0  3  0  0  0  0  0  0
  189.1160  174.5600  137.8880 C   0  0  0  0  0  2  0  0  0  0  0  0
  190.3920  178.0420  138.4880 C   0  0  0  0  0  3  0  0  0  0  0  0
  188.1680  175.3130  135.7320 C   0  0  2  0  0  3  0  0  0  0  0  0
  193.3090  175.1290  136.8420 C   0  0  2  0  0  3  0  0  0  0  0  0
  184.2370  176.9690  135.8300 C   0  0  0  0  0  0  0  0  0  0  0  0
  190.0200  176.5990  140.4680 C   0  0  2  0  0  3  0  0  0  0  0  0
  188.9180  174.3310  136.5890 C   0  0  0  0  0  0  0  0  0  0  0  0
  185.3060  177.7530  136.0210 C   0  0  0  0  0  3  0  0  0  0  0  0
  191.1440  174.3960  134.3460 C   0  0  0  0  0  1  0  0  0  0  0  0
  188.5480  172.5280  134.7270 O   0  0  0  0  0  0  0  0  0  0  0  0
  194.7170  174.6110  137.0920 C   0  0  0  0  0  1  0  0  0  0  0  0
  185.6810  174.9870  135.6080 C   0  0  0  0  0  2  0  0  0  0  0  0
  193.0570  176.4240  137.6120 C   0  0  0  0  0  2  0  0  0  0  0  0
  190.7400  176.1210  141.5650 O   0  0  0  0  0  1  0  0  0  0  0  0
  193.1060  176.2290  139.1250 C   0  0  0  0  0  2  0  0  0  0  0  0
  187.8890  177.6940  138.6530 C   0  0  0  0  0  0  0  0  0  0  0  0
  188.9660  176.4220  135.4420 O   0  0  0  0  0  1  0  0  0  0  0  0
  189.4870  172.7900  135.8980 S   0  0  1  0  0  0  0  0  0  0  0  0
  186.8150  175.6960  136.3530 C   0  0  2  0  0  3  0  0  0  0  0  0
  192.6020  177.7580  139.9810 S   0  0  0  0  0  0  0  0  0  0  0  0
  187.8240  177.7130  140.1270 C   0  0  0  0  0  3  0  0  0  0  0  0
  182.9940  177.5610  135.2400 C   0  0  0  0  0  3  0  0  0  0  0  0
  182.2910  176.5560  134.3460 C   0  0  0  0  0  1  0  0  0  0  0  0
  182.0510  178.0340  136.3300 C   0  0  0  0  0  1  0  0  0  0  0  0
  1 29  1  0  0  0  0
  1 15  1  0  0  0  0
  3 25  1  0  0  0  0
  5  6  1  0  0  0  0
  7 11  1  0  0  0  0
  7 25  2  0  0  0  0
  8 17  1  1  0  0  0
  8  3  1  0  0  0  0
  9 18  1  1  0  0  0
  9 27  1  0  0  0  0
  9  5  1  0  0  0  0
 11  1  2  0  0  0  0
 12 26  1  1  0  0  0
 12 28  1  0  0  0  0
 12 16  1  0  0  0  0
 13 20  1  1  0  0  0
 13  6  1  0  0  0  0
 13 22  1  0  0  0  0
 14 17  2  0  0  0  0
 14  4  1  0  0  0  0
 15  2  1  0  0  0  0
 15 23  1  1  0  0  0
 16 10  2  0  0  0  0
 21  4  1  0  0  0  0
 22 24  1  0  0  0  0
 24 29  1  0  0  0  0
 25 30  1  0  0  0  0
 27 19  2  6  0  0  0
 27 16  1  0  0  0  0
 28 21  1  6  0  0  0
 28  8  1  0  0  0  0
 30  2  2  0  0  0  0
 31 14  1  0  0  0  0
 31 33  1  0  0  0  0
 32 31  1  0  0  0  0
M  END
>  <MODEL>
8

>  <REMARK>
 VINA RESULT:      -3.7      2.100      8.175
  Name = 
  1 active torsions:
  status: ('A' for Active; 'I' for Inactive)
    1  A    between atoms: C_1  and  C_17
                            x       y       z     vdW  Elec       q    Type
                         _______ _______ _______ _____ _____    ______ ____

>  <TORSDO>
F 1

$$$$
=
 OpenBabel10232411143D

 33 35  0  0  1  0  0  0  0  0999 V2000
  181.7510  177.8450  138.6330 C   0  0  0  0  0  0  0  0  0  0  0  0
  182.9340  180.0210  138.4320 C   0  0  0  0  0  3  0  0  0  0  0  0
  186.1700  178.4800  139.1400 O   0  0  0  0  0  0  0  0  0  0  0  0
  189.3440  177.9400  137.4990 C   0  0  0  0  0  2  0  0  0  0  0  0
  182.7870  173.9240  134.3460 C   0  0  0  0  0  2  0  0  0  0  0  0
  182.1310  174.8780  135.3390 C   0  0  0  0  0  2  0  0  0  0  0  0
  184.1010  177.3360  139.3230 C   0  0  0  0  0  3  0  0  0  0  0  0
  186.9490  177.2940  138.9850 C   0  0  2  0  0  3  0  0  0  0  0  0
  184.2540  173.6340  134.6640 C   0  0  2  0  0  3  0  0  0  0  0  0
  184.4530  177.0770  136.0130 C   0  0  0  0  0  2  0  0  0  0  0  0
  182.6440  177.1200  139.3060 C   0  0  0  0  0  3  0  0  0  0  0  0
  186.2340  175.7090  137.0450 C   0  0  2  0  0  3  0  0  0  0  0  0
  181.2670  174.1180  136.3390 C   0  0  2  0  0  3  0  0  0  0  0  0
  189.3910  177.8120  138.9970 C   0  0  0  0  0  0  0  0  0  0  0  0
  182.1710  178.9590  137.7130 C   0  0  2  0  0  3  0  0  0  0  0  0
  185.2840  176.0380  135.9270 C   0  0  0  0  0  0  0  0  0  0  0  0
  188.2810  177.4840  139.6700 C   0  0  0  0  0  3  0  0  0  0  0  0
  184.4440  172.9920  136.0290 C   0  0  0  0  0  1  0  0  0  0  0  0
  186.7250  174.5260  134.3490 O   0  0  0  0  0  0  0  0  0  0  0  0
  179.9880  173.6160  135.6870 C   0  0  0  0  0  1  0  0  0  0  0  0
  188.4840  176.8180  136.9360 C   0  0  0  0  0  2  0  0  0  0  0  0
  180.9570  174.9690  137.5690 C   0  0  0  0  0  2  0  0  0  0  0  0
  181.0710  179.5330  137.0740 O   0  0  0  0  0  1  0  0  0  0  0  0
  180.2000  176.2490  137.2260 C   0  0  0  0  0  2  0  0  0  0  0  0
  184.7700  178.4870  139.1470 C   0  0  0  0  0  0  0  0  0  0  0  0
  185.5540  175.1110  138.1090 O   0  0  0  0  0  1  0  0  0  0  0  0
  185.3100  175.0880  134.4200 S   0  0  1  0  0  0  0  0  0  0  0  0
  187.0560  176.9350  137.4740 C   0  0  2  0  0  3  0  0  0  0  0  0
  180.0370  177.3090  138.7000 S   0  0  0  0  0  0  0  0  0  0  0  0
  184.1050  179.7990  139.0290 C   0  0  0  0  0  3  0  0  0  0  0  0
  190.6840  177.9420  139.7420 C   0  0  0  0  0  3  0  0  0  0  0  0
  190.5270  177.4780  141.1780 C   0  0  0  0  0  1  0  0  0  0  0  0
  191.7830  177.1500  139.0580 C   0  0  0  0  0  1  0  0  0  0  0  0
  1 29  1  0  0  0  0
  1 11  2  0  0  0  0
  2 30  2  0  0  0  0
  3 25  1  0  0  0  0
  4 14  1  0  0  0  0
  5  9  1  0  0  0  0
  5  6  1  0  0  0  0
  6 13  1  0  0  0  0
  8  3  1  0  0  0  0
  8 17  1  6  0  0  0
  9 18  1  1  0  0  0
 11  7  1  0  0  0  0
 12 28  1  0  0  0  0
 12 26  1  1  0  0  0
 13 20  1  6  0  0  0
 13 22  1  0  0  0  0
 14 17  2  0  0  0  0
 14 31  1  0  0  0  0
 15 23  1  1  0  0  0
 15  2  1  0  0  0  0
 15  1  1  0  0  0  0
 16 10  2  0  0  0  0
 16 12  1  0  0  0  0
 21  4  1  0  0  0  0
 24 22  1  0  0  0  0
 24 29  1  0  0  0  0
 25  7  2  0  0  0  0
 27 19  2  1  0  0  0
 27  9  1  0  0  0  0
 27 16  1  0  0  0  0
 28 21  1  1  0  0  0
 28  8  1  0  0  0  0
 30 25  1  0  0  0  0
 31 32  1  0  0  0  0
 33 31  1  0  0  0  0
M  END
>  <MODEL>
9

>  <REMARK>
 VINA RESULT:      -3.5      4.022      7.514
  Name = 
  1 active torsions:
  status: ('A' for Active; 'I' for Inactive)
    1  A    between atoms: C_1  and  C_17
                            x       y       z     vdW  Elec       q    Type
                         _______ _______ _______ _____ _____    ______ ____

>  <TORSDO>
F 1

$$$$
