=
 OpenBabel10232407573D

 44 49  0  0  1  0  0  0  0  0999 V2000
  185.6180  178.6090  141.6810 C   0  0  2  0  0  3  0  0  0  0  0  0
  185.0120  179.1920  140.4180 C   0  0  0  0  0  1  0  0  0  0  0  0
  184.9060  179.1730  142.9010 C   0  0  0  0  0  2  0  0  0  0  0  0
  183.5040  178.5950  142.9800 C   0  0  1  0  0  3  0  0  0  0  0  0
  182.9850  178.7490  144.3930 C   0  0  0  0  0  2  0  0  0  0  0  0
  182.5160  179.6990  143.3070 C   0  0  2  0  0  3  0  0  0  0  0  0
  181.1380  179.2830  142.8080 C   0  0  1  0  0  3  0  0  0  0  0  0
  180.2120  180.3130  142.9870 O   0  0  0  0  0  1  0  0  0  0  0  0
  181.1730  178.8270  141.3480 C   0  0  0  0  0  2  0  0  0  0  0  0
  180.4510  177.5010  141.1060 C   0  0  0  0  0  2  0  0  0  0  0  0
  182.7340  176.2750  139.8700 O   0  0  0  0  0  0  0  0  0  0  0  0
  181.6920  176.4260  139.1760 C   0  0  0  0  0  0  0  0  0  0  0  0
  180.5520  177.1050  139.7060 N   0  0  0  0  0  2  0  0  0  0  0  0
  181.6250  175.7600  137.5180 S   0  0  0  0  0  0  0  0  0  0  0  0
  182.9470  176.8740  136.9580 C   0  0  0  0  0  2  0  0  0  0  0  0
  184.8790  173.1890  137.7950 N   0  0  0  0  0  1  0  0  0  0  0  0
  185.3710  176.2370  137.0190 C   0  0  0  0  0  0  0  0  0  0  0  0
  187.2260  175.2030  135.9030 N   0  0  0  0  0  1  0  0  0  0  0  0
  186.2310  175.0310  136.9500 C   0  0  2  0  0  3  0  0  0  0  0  0
  185.7680  177.3170  137.5410 O   0  0  0  0  0  0  0  0  0  0  0  0
  184.0750  176.1010  136.4670 N   0  0  0  0  0  0  0  0  0  0  0  0
  183.8320  174.5300  135.7080 S   0  0  0  0  0  0  0  0  0  0  0  0
  185.3020  173.8710  136.5840 C   0  0  2  0  0  3  0  0  0  0  0  0
  186.9830  178.9190  141.7300 O   0  0  0  0  0  0  0  0  0  0  0  0
  188.1610  177.9380  143.5530 C   0  0  1  0  0  3  0  0  0  0  0  0
  189.6690  177.7180  143.4260 C   0  0  1  0  0  3  0  0  0  0  0  0
  190.0290  177.8400  142.0240 N   0  0  0  0  0  2  0  0  0  0  0  0
  187.6140  177.7370  142.1560 C   0  0  2  0  0  3  0  0  0  0  0  0
  188.8380  177.4040  141.3010 C   0  0  1  0  0  3  0  0  0  0  0  0
  188.7560  177.8890  139.8380 C   0  0  0  0  0  3  0  0  0  0  0  0
  190.0900  177.7680  139.1140 C   0  0  0  0  0  2  0  0  0  0  0  0
  188.9880  176.7580  138.8440 C   0  0  0  0  0  2  0  0  0  0  0  0
  190.4730  178.6450  144.2360 N   0  0  0  0  0  2  0  0  0  0  0  0
  191.4730  177.9820  144.8810 O   0  0  0  0  0  0  0  0  0  0  0  0
  192.5920  175.1670  146.0630 C   0  0  0  0  0  2  0  0  0  0  0  0
  192.5520  175.7550  148.3640 O   0  0  0  0  0  0  0  0  0  0  0  0
  191.0010  176.8510  146.9480 C   0  0  0  0  0  2  0  0  0  0  0  0
  191.6650  175.6050  144.9420 C   0  0  0  0  0  2  0  0  0  0  0  0
  190.8910  176.8280  145.4280 C   0  0  2  0  0  3  0  0  0  0  0  0
  192.0950  175.9050  147.2420 C   0  0  0  0  0  0  0  0  0  0  0  0
  187.5450  176.9160  144.4960 C   0  0  0  0  0  2  0  0  0  0  0  0
  187.3940  177.5040  145.8900 C   0  0  0  0  0  3  0  0  0  0  0  0
  185.9420  177.4020  146.3190 C   0  0  0  0  0  2  0  0  0  0  0  0
  186.4950  178.7180  145.8110 C   0  0  0  0  0  2  0  0  0  0  0  0
  1  2  1  6  0  0  0
  1 24  1  0  0  0  0
  1  3  1  0  0  0  0
  4  3  1  1  0  0  0
  4  6  1  0  0  0  0
  4  5  1  0  0  0  0
  6  7  1  6  0  0  0
  6  5  1  0  0  0  0
  7  8  1  6  0  0  0
  9  7  1  0  0  0  0
 10  9  1  0  0  0  0
 12 13  1  0  0  0  0
 12 11  2  0  0  0  0
 13 10  1  0  0  0  0
 14 12  1  0  0  0  0
 15 14  1  0  0  0  0
 17 20  2  0  0  0  0
 19 18  1  6  0  0  0
 19 17  1  0  0  0  0
 21 15  1  0  0  0  0
 21 17  1  0  0  0  0
 22 21  1  0  0  0  0
 22 23  1  0  0  0  0
 23 19  1  0  0  0  0
 23 16  1  1  0  0  0
 25 41  1  1  0  0  0
 26 25  1  0  0  0  0
 26 33  1  1  0  0  0
 27 26  1  0  0  0  0
 28 24  1  6  0  0  0
 28 25  1  0  0  0  0
 29 30  1  6  0  0  0
 29 27  1  0  0  0  0
 29 28  1  0  0  0  0
 31 30  1  0  0  0  0
 32 31  1  0  0  0  0
 32 30  1  0  0  0  0
 33 34  1  0  0  0  0
 35 40  1  0  0  0  0
 37 40  1  0  0  0  0
 38 39  1  0  0  0  0
 38 35  1  0  0  0  0
 39 34  1  6  0  0  0
 39 37  1  0  0  0  0
 40 36  2  0  0  0  0
 41 42  1  0  0  0  0
 42 43  1  0  0  0  0
 44 42  1  0  0  0  0
 44 43  1  0  0  0  0
M  END
>  <MODEL>
1

>  <REMARK>
 VINA RESULT:      -7.1      0.000      0.000
  Name = 
  17 active torsions:
  status: ('A' for Active; 'I' for Inactive)
    1  A    between atoms: C_1  and  C_16
    2  A    between atoms: C_2  and  C_36
    3  A    between atoms: C_5  and  C_16
    4  A    between atoms: C_7  and  C_37
    5  A    between atoms: C_8  and  N_31
    6  A    between atoms: C_11  and  N_25
    7  A    between atoms: C_11  and  C_40
    8  A    between atoms: C_14  and  O_18
    9  A    between atoms: C_14  and  C_37
   10  A    between atoms: O_18  and  C_19
   11  A    between atoms: C_21  and  C_27
   12  A    between atoms: C_21  and  C_40
   13  A    between atoms: C_23  and  S_26
   14  A    between atoms: S_26  and  C_30
   15  A    between atoms: O_29  and  N_31
   16  A    between atoms: O_29  and  C_41
   17  A    between atoms: C_30  and  N_33
                            x       y       z     vdW  Elec       q    Type
                         _______ _______ _______ _____ _____    ______ ____

>  <TORSDO>
F 17

$$$$
=
 OpenBabel10232407573D

 44 49  0  0  1  0  0  0  0  0999 V2000
  185.5210  178.6580  141.6440 C   0  0  2  0  0  3  0  0  0  0  0  0
  184.9550  179.1700  140.3320 C   0  0  0  0  0  1  0  0  0  0  0  0
  184.7850  179.3020  142.8080 C   0  0  0  0  0  2  0  0  0  0  0  0
  183.4910  178.5510  143.0660 C   0  0  1  0  0  3  0  0  0  0  0  0
  183.0570  178.7880  144.4960 C   0  0  0  0  0  2  0  0  0  0  0  0
  182.3790  179.5380  143.3640 C   0  0  2  0  0  3  0  0  0  0  0  0
  181.0440  178.8850  143.0310 C   0  0  1  0  0  3  0  0  0  0  0  0
  179.9830  179.7500  143.3100 O   0  0  0  0  0  1  0  0  0  0  0  0
  180.9900  178.4050  141.5790 C   0  0  0  0  0  2  0  0  0  0  0  0
  180.4760  179.4670  140.6050 C   0  0  0  0  0  2  0  0  0  0  0  0
  182.1870  180.3180  138.4640 O   0  0  0  0  0  0  0  0  0  0  0  0
  181.3910  179.3650  138.2450 C   0  0  0  0  0  0  0  0  0  0  0  0
  180.4550  178.9510  139.2420 N   0  0  0  0  0  2  0  0  0  0  0  0
  181.4490  178.4990  136.6810 S   0  0  0  0  0  0  0  0  0  0  0  0
  180.5140  177.0960  137.3620 C   0  0  0  0  0  2  0  0  0  0  0  0
  184.6670  176.2290  137.3120 N   0  0  0  0  0  1  0  0  0  0  0  0
  181.8040  175.1680  136.4120 C   0  0  0  0  0  0  0  0  0  0  0  0
  182.9280  173.0870  136.8110 N   0  0  0  0  0  1  0  0  0  0  0  0
  183.1230  174.5050  136.5520 C   0  0  2  0  0  3  0  0  0  0  0  0
  181.0990  175.0500  135.3720 O   0  0  0  0  0  0  0  0  0  0  0  0
  181.3870  175.9460  137.5190 N   0  0  0  0  0  0  0  0  0  0  0  0
  182.5080  175.8400  138.8730 S   0  0  0  0  0  0  0  0  0  0  0  0
  183.7960  175.1560  137.7620 C   0  0  2  0  0  3  0  0  0  0  0  0
  186.8880  178.9560  141.7100 O   0  0  0  0  0  0  0  0  0  0  0  0
  188.0870  177.9570  143.5090 C   0  0  1  0  0  3  0  0  0  0  0  0
  189.5870  177.7070  143.3500 C   0  0  1  0  0  3  0  0  0  0  0  0
  189.9180  177.8190  141.9400 N   0  0  0  0  0  2  0  0  0  0  0  0
  187.5050  177.7630  142.1250 C   0  0  2  0  0  3  0  0  0  0  0  0
  188.7040  177.4050  141.2450 C   0  0  1  0  0  3  0  0  0  0  0  0
  188.5990  177.8880  139.7820 C   0  0  0  0  0  3  0  0  0  0  0  0
  189.9420  177.8600  139.0670 C   0  0  0  0  0  2  0  0  0  0  0  0
  188.9130  176.7790  138.7860 C   0  0  0  0  0  2  0  0  0  0  0  0
  190.4260  178.6200  144.1390 N   0  0  0  0  0  2  0  0  0  0  0  0
  191.4560  177.9470  144.7250 O   0  0  0  0  0  0  0  0  0  0  0  0
  192.5900  175.2820  146.2000 C   0  0  0  0  0  2  0  0  0  0  0  0
  192.5750  176.1220  148.4220 O   0  0  0  0  0  0  0  0  0  0  0  0
  191.0080  177.0540  146.9100 C   0  0  0  0  0  2  0  0  0  0  0  0
  191.6500  175.5920  145.0480 C   0  0  0  0  0  2  0  0  0  0  0  0
  190.8810  176.8620  145.4030 C   0  0  2  0  0  3  0  0  0  0  0  0
  192.1050  176.1460  147.2950 C   0  0  0  0  0  0  0  0  0  0  0  0
  187.4710  176.9490  144.4690 C   0  0  0  0  0  2  0  0  0  0  0  0
  187.3990  177.5280  145.8720 C   0  0  0  0  0  3  0  0  0  0  0  0
  185.9800  177.3990  146.3920 C   0  0  0  0  0  2  0  0  0  0  0  0
  186.4760  178.7260  145.8570 C   0  0  0  0  0  2  0  0  0  0  0  0
  1  2  1  6  0  0  0
  1 24  1  0  0  0  0
  1  3  1  0  0  0  0
  4  3  1  1  0  0  0
  4  6  1  0  0  0  0
  4  5  1  0  0  0  0
  6  7  1  6  0  0  0
  6  5  1  0  0  0  0
  7  8  1  6  0  0  0
  9  7  1  0  0  0  0
 10  9  1  0  0  0  0
 12 11  2  0  0  0  0
 12 13  1  0  0  0  0
 13 10  1  0  0  0  0
 14 15  1  0  0  0  0
 14 12  1  0  0  0  0
 15 21  1  0  0  0  0
 17 19  1  0  0  0  0
 17 21  1  0  0  0  0
 19 18  1  1  0  0  0
 19 23  1  0  0  0  0
 20 17  2  0  0  0  0
 21 22  1  0  0  0  0
 23 16  1  6  0  0  0
 23 22  1  0  0  0  0
 25 41  1  1  0  0  0
 26 25  1  0  0  0  0
 26 33  1  1  0  0  0
 27 26  1  0  0  0  0
 28 24  1  6  0  0  0
 28 25  1  0  0  0  0
 29 30  1  6  0  0  0
 29 27  1  0  0  0  0
 29 28  1  0  0  0  0
 31 30  1  0  0  0  0
 32 31  1  0  0  0  0
 32 30  1  0  0  0  0
 33 34  1  0  0  0  0
 35 40  1  0  0  0  0
 37 40  1  0  0  0  0
 38 39  1  0  0  0  0
 38 35  1  0  0  0  0
 39 34  1  6  0  0  0
 39 37  1  0  0  0  0
 40 36  2  0  0  0  0
 41 42  1  0  0  0  0
 42 43  1  0  0  0  0
 44 42  1  0  0  0  0
 44 43  1  0  0  0  0
M  END
>  <MODEL>
2

>  <REMARK>
 VINA RESULT:      -6.9      1.533      1.956
  Name = 
  17 active torsions:
  status: ('A' for Active; 'I' for Inactive)
    1  A    between atoms: C_1  and  C_16
    2  A    between atoms: C_2  and  C_36
    3  A    between atoms: C_5  and  C_16
    4  A    between atoms: C_7  and  C_37
    5  A    between atoms: C_8  and  N_31
    6  A    between atoms: C_11  and  N_25
    7  A    between atoms: C_11  and  C_40
    8  A    between atoms: C_14  and  O_18
    9  A    between atoms: C_14  and  C_37
   10  A    between atoms: O_18  and  C_19
   11  A    between atoms: C_21  and  C_27
   12  A    between atoms: C_21  and  C_40
   13  A    between atoms: C_23  and  S_26
   14  A    between atoms: S_26  and  C_30
   15  A    between atoms: O_29  and  N_31
   16  A    between atoms: O_29  and  C_41
   17  A    between atoms: C_30  and  N_33
                            x       y       z     vdW  Elec       q    Type
                         _______ _______ _______ _____ _____    ______ ____

>  <TORSDO>
F 17

$$$$
=
 OpenBabel10232407573D

 44 49  0  0  1  0  0  0  0  0999 V2000
  189.2970  177.8660  139.1640 C   0  0  2  0  0  3  0  0  0  0  0  0
  189.0640  178.4450  137.7800 C   0  0  0  0  0  1  0  0  0  0  0  0
  190.2010  176.6470  139.0650 C   0  0  0  0  0  2  0  0  0  0  0  0
  191.0290  176.7320  137.7960 C   0  0  1  0  0  3  0  0  0  0  0  0
  192.4340  176.2520  138.0870 C   0  0  0  0  0  2  0  0  0  0  0  0
  191.4550  175.3410  137.3700 C   0  0  2  0  0  3  0  0  0  0  0  0
  191.7320  175.3520  135.8730 C   0  0  1  0  0  3  0  0  0  0  0  0
  192.1320  174.0880  135.4310 O   0  0  0  0  0  1  0  0  0  0  0  0
  190.5280  175.8540  135.0730 C   0  0  0  0  0  2  0  0  0  0  0  0
  189.4450  174.7940  134.8720 C   0  0  0  0  0  2  0  0  0  0  0  0
  187.7330  175.1570  137.1470 O   0  0  0  0  0  0  0  0  0  0  0  0
  187.3560  175.6260  136.0390 C   0  0  0  0  0  0  0  0  0  0  0  0
  188.1210  175.4050  134.8530 N   0  0  0  0  0  2  0  0  0  0  0  0
  185.8610  176.6030  135.9500 S   0  0  0  0  0  0  0  0  0  0  0  0
  185.0610  175.5960  137.2370 C   0  0  0  0  0  2  0  0  0  0  0  0
  181.4780  173.3230  137.1710 N   0  0  0  0  0  1  0  0  0  0  0  0
  184.6500  173.1260  137.3600 C   0  0  0  0  0  0  0  0  0  0  0  0
  184.1600  171.0900  136.1880 N   0  0  0  0  0  1  0  0  0  0  0  0
  183.5980  172.1320  137.0350 C   0  0  2  0  0  3  0  0  0  0  0  0
  185.5560  172.8940  138.2070 O   0  0  0  0  0  0  0  0  0  0  0  0
  184.5700  174.3550  136.6620 N   0  0  0  0  0  0  0  0  0  0  0  0
  183.2800  174.3630  135.4620 S   0  0  0  0  0  0  0  0  0  0  0  0
  182.5230  172.8950  136.2570 C   0  0  2  0  0  3  0  0  0  0  0  0
  188.0670  177.5120  139.7340 O   0  0  0  0  0  0  0  0  0  0  0  0
  188.3380  177.8570  142.0760 C   0  0  1  0  0  3  0  0  0  0  0  0
  187.1020  177.8270  142.9750 C   0  0  1  0  0  3  0  0  0  0  0  0
  185.9240  177.9450  142.1320 N   0  0  0  0  0  2  0  0  0  0  0  0
  187.8590  178.4450  140.7650 C   0  0  2  0  0  3  0  0  0  0  0  0
  186.3720  178.7290  140.9860 C   0  0  1  0  0  3  0  0  0  0  0  0
  185.4940  178.5900  139.7240 C   0  0  0  0  0  3  0  0  0  0  0  0
  184.0710  178.1620  140.0550 C   0  0  0  0  0  2  0  0  0  0  0  0
  184.3620  179.6100  139.6960 C   0  0  0  0  0  2  0  0  0  0  0  0
  187.0060  176.6200  143.8100 N   0  0  0  0  0  2  0  0  0  0  0  0
  186.4270  176.9070  145.0100 O   0  0  0  0  0  0  0  0  0  0  0  0
  186.2260  178.7080  147.7090 C   0  0  0  0  0  2  0  0  0  0  0  0
  188.0710  177.7550  148.8600 O   0  0  0  0  0  0  0  0  0  0  0  0
  188.1400  177.7050  146.4930 C   0  0  0  0  0  2  0  0  0  0  0  0
  186.0300  178.9250  146.2180 C   0  0  0  0  0  2  0  0  0  0  0  0
  187.0570  178.0670  145.4830 C   0  0  2  0  0  3  0  0  0  0  0  0
  187.5350  178.0310  147.7990 C   0  0  0  0  0  0  0  0  0  0  0  0
  189.4180  178.7470  142.6720 C   0  0  0  0  0  2  0  0  0  0  0  0
  190.4040  177.9170  143.4790 C   0  0  0  0  0  3  0  0  0  0  0  0
  191.6550  177.6880  142.6510 C   0  0  0  0  0  2  0  0  0  0  0  0
  190.6140  176.5940  142.7760 C   0  0  0  0  0  2  0  0  0  0  0  0
  1  2  1  6  0  0  0
  1 24  1  0  0  0  0
  3  1  1  0  0  0  0
  4  5  1  0  0  0  0
  4  3  1  1  0  0  0
  6  7  1  6  0  0  0
  6  4  1  0  0  0  0
  6  5  1  0  0  0  0
  7  8  1  6  0  0  0
  9  7  1  0  0  0  0
 10  9  1  0  0  0  0
 12 11  2  0  0  0  0
 13 10  1  0  0  0  0
 13 12  1  0  0  0  0
 14 12  1  0  0  0  0
 14 15  1  0  0  0  0
 17 20  2  0  0  0  0
 19 18  1  6  0  0  0
 19 17  1  0  0  0  0
 21 15  1  0  0  0  0
 21 17  1  0  0  0  0
 22 23  1  0  0  0  0
 22 21  1  0  0  0  0
 23 19  1  0  0  0  0
 23 16  1  1  0  0  0
 25 41  1  1  0  0  0
 25 26  1  0  0  0  0
 26 33  1  6  0  0  0
 27 26  1  0  0  0  0
 28 24  1  6  0  0  0
 28 29  1  0  0  0  0
 28 25  1  0  0  0  0
 29 30  1  6  0  0  0
 29 27  1  0  0  0  0
 30 31  1  0  0  0  0
 32 30  1  0  0  0  0
 32 31  1  0  0  0  0
 33 34  1  0  0  0  0
 35 40  1  0  0  0  0
 37 40  1  0  0  0  0
 38 35  1  0  0  0  0
 39 34  1  1  0  0  0
 39 38  1  0  0  0  0
 39 37  1  0  0  0  0
 40 36  2  0  0  0  0
 41 42  1  0  0  0  0
 43 44  1  0  0  0  0
 43 42  1  0  0  0  0
 44 42  1  0  0  0  0
M  END
>  <MODEL>
3

>  <REMARK>
 VINA RESULT:      -6.5      2.975      6.489
  Name = 
  17 active torsions:
  status: ('A' for Active; 'I' for Inactive)
    1  A    between atoms: C_1  and  C_16
    2  A    between atoms: C_2  and  C_36
    3  A    between atoms: C_5  and  C_16
    4  A    between atoms: C_7  and  C_37
    5  A    between atoms: C_8  and  N_31
    6  A    between atoms: C_11  and  N_25
    7  A    between atoms: C_11  and  C_40
    8  A    between atoms: C_14  and  O_18
    9  A    between atoms: C_14  and  C_37
   10  A    between atoms: O_18  and  C_19
   11  A    between atoms: C_21  and  C_27
   12  A    between atoms: C_21  and  C_40
   13  A    between atoms: C_23  and  S_26
   14  A    between atoms: S_26  and  C_30
   15  A    between atoms: O_29  and  N_31
   16  A    between atoms: O_29  and  C_41
   17  A    between atoms: C_30  and  N_33
                            x       y       z     vdW  Elec       q    Type
                         _______ _______ _______ _____ _____    ______ ____

>  <TORSDO>
F 17

$$$$
=
 OpenBabel10232407573D

 44 49  0  0  1  0  0  0  0  0999 V2000
  185.7210  176.7530  136.0220 C   0  0  2  0  0  3  0  0  0  0  0  0
  186.5510  178.0230  136.0240 C   0  0  0  0  0  1  0  0  0  0  0  0
  185.1360  176.5190  137.4060 C   0  0  0  0  0  2  0  0  0  0  0  0
  184.6410  177.8360  137.9760 C   0  0  1  0  0  3  0  0  0  0  0  0
  183.1840  178.0180  137.6080 C   0  0  0  0  0  2  0  0  0  0  0  0
  183.5620  177.5720  139.0080 C   0  0  2  0  0  3  0  0  0  0  0  0
  183.5030  178.7540  139.9670 C   0  0  1  0  0  3  0  0  0  0  0  0
  182.3370  178.7160  140.7350 O   0  0  0  0  0  1  0  0  0  0  0  0
  184.7440  178.8260  140.8600 C   0  0  0  0  0  2  0  0  0  0  0  0
  184.4160  178.9300  142.3500 C   0  0  0  0  0  2  0  0  0  0  0  0
  184.6040  179.0620  145.2110 O   0  0  0  0  0  0  0  0  0  0  0  0
  185.4950  178.4250  144.5860 C   0  0  0  0  0  0  0  0  0  0  0  0
  185.5050  178.3930  143.1580 N   0  0  0  0  0  2  0  0  0  0  0  0
  186.7460  177.5240  145.4930 S   0  0  0  0  0  0  0  0  0  0  0  0
  187.7510  177.3050  143.9940 C   0  0  0  0  0  2  0  0  0  0  0  0
  191.7010  178.8560  144.0540 N   0  0  0  0  0  1  0  0  0  0  0  0
  189.9580  176.2720  143.4060 C   0  0  0  0  0  0  0  0  0  0  0  0
  191.9860  175.2430  144.1740 N   0  0  0  0  0  1  0  0  0  0  0  0
  191.4070  176.4720  143.6500 C   0  0  2  0  0  3  0  0  0  0  0  0
  189.5280  175.6190  142.4150 O   0  0  0  0  0  0  0  0  0  0  0  0
  189.0880  176.8640  144.3520 N   0  0  0  0  0  0  0  0  0  0  0  0
  189.9590  177.6130  145.6880 S   0  0  0  0  0  0  0  0  0  0  0  0
  191.5090  177.5730  144.7090 C   0  0  2  0  0  3  0  0  0  0  0  0
  186.5260  175.6700  135.6460 O   0  0  0  0  0  0  0  0  0  0  0  0
  188.4120  175.2690  137.0440 C   0  0  1  0  0  3  0  0  0  0  0  0
  188.9960  173.8580  137.1100 C   0  0  1  0  0  3  0  0  0  0  0  0
  188.0220  172.9370  136.5490 N   0  0  0  0  0  2  0  0  0  0  0  0
  186.9230  175.0720  136.8550 C   0  0  2  0  0  3  0  0  0  0  0  0
  186.7310  173.5540  136.8300 C   0  0  1  0  0  3  0  0  0  0  0  0
  185.5710  173.0640  135.9370 C   0  0  0  0  0  3  0  0  0  0  0  0
  185.5860  171.5540  135.7480 C   0  0  0  0  0  2  0  0  0  0  0  0
  184.5870  172.1880  136.7010 C   0  0  0  0  0  2  0  0  0  0  0  0
  190.2840  173.7160  136.4140 N   0  0  0  0  0  2  0  0  0  0  0  0
  191.3130  173.6620  137.3050 O   0  0  0  0  0  0  0  0  0  0  0  0
  193.3300  176.1920  136.9890 C   0  0  0  0  0  2  0  0  0  0  0  0
  194.9780  175.4760  138.5420 O   0  0  0  0  0  0  0  0  0  0  0  0
  193.7060  173.7890  137.4700 C   0  0  0  0  0  2  0  0  0  0  0  0
  192.4450  175.3630  136.0730 C   0  0  0  0  0  2  0  0  0  0  0  0
  192.4810  173.9210  136.5730 C   0  0  2  0  0  3  0  0  0  0  0  0
  194.0990  175.1840  137.7460 C   0  0  0  0  0  0  0  0  0  0  0  0
  188.6690  176.0200  138.3420 C   0  0  0  0  0  2  0  0  0  0  0  0
  189.8610  176.9510  138.1890 C   0  0  0  0  0  3  0  0  0  0  0  0
  190.7480  176.8290  139.4150 C   0  0  0  0  0  2  0  0  0  0  0  0
  189.7990  178.0020  139.2760 C   0  0  0  0  0  2  0  0  0  0  0  0
  1  2  1  1  0  0  0
  1  3  1  0  0  0  0
  4  3  1  6  0  0  0
  4  6  1  0  0  0  0
  5  4  1  0  0  0  0
  5  6  1  0  0  0  0
  6  7  1  1  0  0  0
  7  8  1  1  0  0  0
  7  9  1  0  0  0  0
  9 10  1  0  0  0  0
 10 13  1  0  0  0  0
 12 11  2  0  0  0  0
 12 14  1  0  0  0  0
 13 12  1  0  0  0  0
 15 21  1  0  0  0  0
 15 14  1  0  0  0  0
 17 19  1  0  0  0  0
 17 21  1  0  0  0  0
 19 18  1  1  0  0  0
 19 23  1  0  0  0  0
 20 17  2  0  0  0  0
 21 22  1  0  0  0  0
 23 16  1  6  0  0  0
 23 22  1  0  0  0  0
 24  1  1  0  0  0  0
 25 26  1  0  0  0  0
 25 41  1  1  0  0  0
 26 33  1  6  0  0  0
 27 29  1  0  0  0  0
 27 26  1  0  0  0  0
 28 24  1  6  0  0  0
 28 25  1  0  0  0  0
 29 30  1  6  0  0  0
 29 28  1  0  0  0  0
 30 32  1  0  0  0  0
 31 30  1  0  0  0  0
 31 32  1  0  0  0  0
 33 34  1  0  0  0  0
 35 40  1  0  0  0  0
 37 40  1  0  0  0  0
 38 39  1  0  0  0  0
 38 35  1  0  0  0  0
 39 34  1  1  0  0  0
 39 37  1  0  0  0  0
 40 36  2  0  0  0  0
 42 41  1  0  0  0  0
 42 44  1  0  0  0  0
 42 43  1  0  0  0  0
 44 43  1  0  0  0  0
M  END
>  <MODEL>
4

>  <REMARK>
 VINA RESULT:      -6.3      3.767      7.803
  Name = 
  17 active torsions:
  status: ('A' for Active; 'I' for Inactive)
    1  A    between atoms: C_1  and  C_16
    2  A    between atoms: C_2  and  C_36
    3  A    between atoms: C_5  and  C_16
    4  A    between atoms: C_7  and  C_37
    5  A    between atoms: C_8  and  N_31
    6  A    between atoms: C_11  and  N_25
    7  A    between atoms: C_11  and  C_40
    8  A    between atoms: C_14  and  O_18
    9  A    between atoms: C_14  and  C_37
   10  A    between atoms: O_18  and  C_19
   11  A    between atoms: C_21  and  C_27
   12  A    between atoms: C_21  and  C_40
   13  A    between atoms: C_23  and  S_26
   14  A    between atoms: S_26  and  C_30
   15  A    between atoms: O_29  and  N_31
   16  A    between atoms: O_29  and  C_41
   17  A    between atoms: C_30  and  N_33
                            x       y       z     vdW  Elec       q    Type
                         _______ _______ _______ _____ _____    ______ ____

>  <TORSDO>
F 17

$$$$
=
 OpenBabel10232407573D

 44 49  0  0  1  0  0  0  0  0999 V2000
  184.0670  176.6740  136.2490 C   0  0  2  0  0  3  0  0  0  0  0  0
  183.0070  176.7990  135.1700 C   0  0  0  0  0  1  0  0  0  0  0  0
  185.1190  175.6620  135.8220 C   0  0  0  0  0  2  0  0  0  0  0  0
  186.4870  176.3200  135.8330 C   0  0  1  0  0  3  0  0  0  0  0  0
  186.6070  177.2330  134.6330 C   0  0  0  0  0  2  0  0  0  0  0  0
  186.3310  177.8180  136.0050 C   0  0  2  0  0  3  0  0  0  0  0  0
  187.6160  178.3770  136.6020 C   0  0  1  0  0  3  0  0  0  0  0  0
  187.5180  179.7580  136.7930 O   0  0  0  0  0  1  0  0  0  0  0  0
  187.9930  177.6710  137.9060 C   0  0  0  0  0  2  0  0  0  0  0  0
  188.9550  178.4780  138.7800 C   0  0  0  0  0  2  0  0  0  0  0  0
  190.6040  176.2250  139.4450 O   0  0  0  0  0  0  0  0  0  0  0  0
  189.9840  176.8030  140.3780 C   0  0  0  0  0  0  0  0  0  0  0  0
  189.0810  177.8760  140.1020 N   0  0  0  0  0  2  0  0  0  0  0  0
  190.2550  176.2980  142.0720 S   0  0  0  0  0  0  0  0  0  0  0  0
  189.4440  177.7970  142.7060 C   0  0  0  0  0  2  0  0  0  0  0  0
  191.8620  175.9780  145.6810 N   0  0  0  0  0  1  0  0  0  0  0  0
  189.0160  177.2910  145.1230 C   0  0  0  0  0  0  0  0  0  0  0  0
  189.3390  177.9200  147.4160 N   0  0  0  0  0  1  0  0  0  0  0  0
  189.7600  176.9980  146.3720 C   0  0  2  0  0  3  0  0  0  0  0  0
  187.8100  176.9540  144.9650 O   0  0  0  0  0  0  0  0  0  0  0  0
  189.7450  177.9670  144.1170 N   0  0  0  0  0  0  0  0  0  0  0  0
  191.3650  178.4140  144.6470 S   0  0  0  0  0  0  0  0  0  0  0  0
  191.2370  177.2380  146.0480 C   0  0  2  0  0  3  0  0  0  0  0  0
  183.4660  176.2710  137.4490 O   0  0  0  0  0  0  0  0  0  0  0  0
  182.0830  177.9480  138.4230 C   0  0  1  0  0  3  0  0  0  0  0  0
  180.9820  177.5240  139.3970 C   0  0  1  0  0  3  0  0  0  0  0  0
  180.7750  176.0930  139.2520 N   0  0  0  0  0  2  0  0  0  0  0  0
  182.1730  176.8210  137.4150 C   0  0  2  0  0  3  0  0  0  0  0  0
  181.1120  175.8130  137.8600 C   0  0  1  0  0  3  0  0  0  0  0  0
  181.4570  174.3390  137.5620 C   0  0  0  0  0  3  0  0  0  0  0  0
  180.2260  173.4440  137.5770 C   0  0  0  0  0  2  0  0  0  0  0  0
  180.8440  173.8580  136.2520 C   0  0  0  0  0  2  0  0  0  0  0  0
  181.2740  177.8520  140.8000 N   0  0  0  0  0  2  0  0  0  0  0  0
  182.6110  177.7720  141.0480 O   0  0  0  0  0  0  0  0  0  0  0  0
  182.6860  178.7180  144.1580 C   0  0  0  0  0  2  0  0  0  0  0  0
  184.9960  178.3290  144.5490 O   0  0  0  0  0  0  0  0  0  0  0  0
  184.3520  178.8270  142.3250 C   0  0  0  0  0  2  0  0  0  0  0  0
  181.9870  179.1620  142.8840 C   0  0  0  0  0  2  0  0  0  0  0  0
  182.9570  178.9520  141.7240 C   0  0  2  0  0  3  0  0  0  0  0  0
  184.1040  178.6000  143.7610 C   0  0  0  0  0  0  0  0  0  0  0  0
  181.7070  179.2410  137.7150 C   0  0  0  0  0  2  0  0  0  0  0  0
  181.1960  180.2640  138.7160 C   0  0  0  0  0  3  0  0  0  0  0  0
  180.4230  181.3400  137.9770 C   0  0  0  0  0  2  0  0  0  0  0  0
  181.8480  181.5980  138.4220 C   0  0  0  0  0  2  0  0  0  0  0  0
  1  2  1  6  0  0  0
  1 24  1  0  0  0  0
  3  1  1  0  0  0  0
  4  3  1  6  0  0  0
  4  6  1  0  0  0  0
  5  4  1  0  0  0  0
  5  6  1  0  0  0  0
  6  7  1  1  0  0  0
  7  8  1  1  0  0  0
  7  9  1  0  0  0  0
  9 10  1  0  0  0  0
 10 13  1  0  0  0  0
 11 12  2  0  0  0  0
 12 14  1  0  0  0  0
 13 12  1  0  0  0  0
 14 15  1  0  0  0  0
 15 21  1  0  0  0  0
 17 19  1  0  0  0  0
 19 18  1  1  0  0  0
 20 17  2  0  0  0  0
 21 22  1  0  0  0  0
 21 17  1  0  0  0  0
 22 23  1  0  0  0  0
 23 16  1  6  0  0  0
 23 19  1  0  0  0  0
 25 41  1  6  0  0  0
 25 26  1  0  0  0  0
 26 33  1  1  0  0  0
 27 26  1  0  0  0  0
 28 24  1  1  0  0  0
 28 29  1  0  0  0  0
 28 25  1  0  0  0  0
 29 30  1  1  0  0  0
 29 27  1  0  0  0  0
 30 31  1  0  0  0  0
 32 30  1  0  0  0  0
 32 31  1  0  0  0  0
 33 34  1  0  0  0  0
 37 40  1  0  0  0  0
 38 35  1  0  0  0  0
 39 34  1  1  0  0  0
 39 37  1  0  0  0  0
 39 38  1  0  0  0  0
 40 35  1  0  0  0  0
 40 36  2  0  0  0  0
 41 42  1  0  0  0  0
 43 44  1  0  0  0  0
 43 42  1  0  0  0  0
 44 42  1  0  0  0  0
M  END
>  <MODEL>
5

>  <REMARK>
 VINA RESULT:      -6.0      3.316      9.243
  Name = 
  17 active torsions:
  status: ('A' for Active; 'I' for Inactive)
    1  A    between atoms: C_1  and  C_16
    2  A    between atoms: C_2  and  C_36
    3  A    between atoms: C_5  and  C_16
    4  A    between atoms: C_7  and  C_37
    5  A    between atoms: C_8  and  N_31
    6  A    between atoms: C_11  and  N_25
    7  A    between atoms: C_11  and  C_40
    8  A    between atoms: C_14  and  O_18
    9  A    between atoms: C_14  and  C_37
   10  A    between atoms: O_18  and  C_19
   11  A    between atoms: C_21  and  C_27
   12  A    between atoms: C_21  and  C_40
   13  A    between atoms: C_23  and  S_26
   14  A    between atoms: S_26  and  C_30
   15  A    between atoms: O_29  and  N_31
   16  A    between atoms: O_29  and  C_41
   17  A    between atoms: C_30  and  N_33
                            x       y       z     vdW  Elec       q    Type
                         _______ _______ _______ _____ _____    ______ ____

>  <TORSDO>
F 17

$$$$
=
 OpenBabel10232407573D

 44 49  0  0  1  0  0  0  0  0999 V2000
  184.7800  178.1180  138.4600 C   0  0  2  0  0  3  0  0  0  0  0  0
  185.6640  178.7100  139.5430 C   0  0  0  0  0  1  0  0  0  0  0  0
  183.4330  177.7300  139.0500 C   0  0  0  0  0  2  0  0  0  0  0  0
  183.0010  178.7800  140.0580 C   0  0  1  0  0  3  0  0  0  0  0  0
  181.5080  178.9970  139.9380 C   0  0  0  0  0  2  0  0  0  0  0  0
  182.0630  178.1570  141.0730 C   0  0  2  0  0  3  0  0  0  0  0  0
  182.1140  178.9800  142.3540 C   0  0  1  0  0  3  0  0  0  0  0  0
  181.2110  178.4870  143.2990 O   0  0  0  0  0  1  0  0  0  0  0  0
  183.5290  179.0450  142.9340 C   0  0  0  0  0  2  0  0  0  0  0  0
  183.5990  178.6740  144.4150 C   0  0  0  0  0  2  0  0  0  0  0  0
  184.4700  178.4370  147.1400 O   0  0  0  0  0  0  0  0  0  0  0  0
  185.3430  178.3870  146.2310 C   0  0  0  0  0  0  0  0  0  0  0  0
  184.9840  178.5840  144.8610 N   0  0  0  0  0  2  0  0  0  0  0  0
  187.0460  178.0380  146.6500 S   0  0  0  0  0  0  0  0  0  0  0  0
  187.3540  177.3010  145.0170 C   0  0  0  0  0  2  0  0  0  0  0  0
  191.0220  179.1760  143.9980 N   0  0  0  0  0  1  0  0  0  0  0  0
  189.3080  176.5150  143.6580 C   0  0  0  0  0  0  0  0  0  0  0  0
  191.5270  175.6040  143.6350 N   0  0  0  0  0  1  0  0  0  0  0  0
  190.7450  176.8170  143.4540 C   0  0  2  0  0  3  0  0  0  0  0  0
  188.6180  175.9130  142.7890 O   0  0  0  0  0  0  0  0  0  0  0  0
  188.7570  176.9490  144.8870 N   0  0  0  0  0  0  0  0  0  0  0  0
  189.9690  177.6550  145.9530 S   0  0  0  0  0  0  0  0  0  0  0  0
  191.1210  177.8310  144.5380 C   0  0  2  0  0  3  0  0  0  0  0  0
  185.4090  176.9940  137.9080 O   0  0  0  0  0  0  0  0  0  0  0  0
  185.1470  176.4440  135.6060 C   0  0  1  0  0  3  0  0  0  0  0  0
  186.3190  175.8050  134.8600 C   0  0  1  0  0  3  0  0  0  0  0  0
  187.5200  175.9940  135.6570 N   0  0  0  0  0  2  0  0  0  0  0  0
  185.7810  177.3830  136.6100 C   0  0  2  0  0  3  0  0  0  0  0  0
  187.2870  177.2390  136.3810 C   0  0  1  0  0  3  0  0  0  0  0  0
  188.1530  177.4230  137.6450 C   0  0  0  0  0  3  0  0  0  0  0  0
  189.6400  177.2790  137.3530 C   0  0  0  0  0  2  0  0  0  0  0  0
  189.0400  178.6590  137.5600 C   0  0  0  0  0  2  0  0  0  0  0  0
  186.1280  174.3780  134.5660 N   0  0  0  0  0  2  0  0  0  0  0  0
  185.0120  173.9010  135.1850 O   0  0  0  0  0  0  0  0  0  0  0  0
  183.5620  171.8230  137.2220 C   0  0  0  0  0  2  0  0  0  0  0  0
  183.4800  169.9540  135.7590 O   0  0  0  0  0  0  0  0  0  0  0  0
  185.2240  171.5180  135.4080 C   0  0  0  0  0  2  0  0  0  0  0  0
  184.6060  172.9220  137.3230 C   0  0  0  0  0  2  0  0  0  0  0  0
  185.4460  172.8830  136.0480 C   0  0  2  0  0  3  0  0  0  0  0  0
  184.0320  170.9890  136.0980 C   0  0  0  0  0  0  0  0  0  0  0  0
  184.2670  177.2350  134.6490 C   0  0  0  0  0  2  0  0  0  0  0  0
  182.9350  176.5300  134.4480 C   0  0  0  0  0  3  0  0  0  0  0  0
  181.8100  177.5350  134.6120 C   0  0  0  0  0  2  0  0  0  0  0  0
  182.1550  176.5870  135.7430 C   0  0  0  0  0  2  0  0  0  0  0  0
  1  3  1  0  0  0  0
  1  2  1  1  0  0  0
  4  3  1  6  0  0  0
  4  6  1  0  0  0  0
  5  4  1  0  0  0  0
  5  6  1  0  0  0  0
  6  7  1  1  0  0  0
  7  9  1  0  0  0  0
  7  8  1  1  0  0  0
  9 10  1  0  0  0  0
 10 13  1  0  0  0  0
 12 14  1  0  0  0  0
 12 11  2  0  0  0  0
 13 12  1  0  0  0  0
 15 14  1  0  0  0  0
 17 21  1  0  0  0  0
 19 18  1  1  0  0  0
 19 17  1  0  0  0  0
 19 23  1  0  0  0  0
 20 17  2  0  0  0  0
 21 15  1  0  0  0  0
 21 22  1  0  0  0  0
 23 16  1  6  0  0  0
 23 22  1  0  0  0  0
 24  1  1  0  0  0  0
 25 41  1  6  0  0  0
 25 28  1  0  0  0  0
 26 33  1  1  0  0  0
 26 25  1  0  0  0  0
 26 27  1  0  0  0  0
 27 29  1  0  0  0  0
 28 24  1  1  0  0  0
 29 28  1  0  0  0  0
 29 30  1  1  0  0  0
 31 32  1  0  0  0  0
 31 30  1  0  0  0  0
 32 30  1  0  0  0  0
 33 34  1  0  0  0  0
 35 38  1  0  0  0  0
 36 40  2  0  0  0  0
 37 39  1  0  0  0  0
 37 40  1  0  0  0  0
 39 34  1  6  0  0  0
 39 38  1  0  0  0  0
 40 35  1  0  0  0  0
 42 43  1  0  0  0  0
 42 41  1  0  0  0  0
 42 44  1  0  0  0  0
 43 44  1  0  0  0  0
M  END
>  <MODEL>
6

>  <REMARK>
 VINA RESULT:      -6.0      3.521      8.829
  Name = 
  17 active torsions:
  status: ('A' for Active; 'I' for Inactive)
    1  A    between atoms: C_1  and  C_16
    2  A    between atoms: C_2  and  C_36
    3  A    between atoms: C_5  and  C_16
    4  A    between atoms: C_7  and  C_37
    5  A    between atoms: C_8  and  N_31
    6  A    between atoms: C_11  and  N_25
    7  A    between atoms: C_11  and  C_40
    8  A    between atoms: C_14  and  O_18
    9  A    between atoms: C_14  and  C_37
   10  A    between atoms: O_18  and  C_19
   11  A    between atoms: C_21  and  C_27
   12  A    between atoms: C_21  and  C_40
   13  A    between atoms: C_23  and  S_26
   14  A    between atoms: S_26  and  C_30
   15  A    between atoms: O_29  and  N_31
   16  A    between atoms: O_29  and  C_41
   17  A    between atoms: C_30  and  N_33
                            x       y       z     vdW  Elec       q    Type
                         _______ _______ _______ _____ _____    ______ ____

>  <TORSDO>
F 17

$$$$
=
 OpenBabel10232407573D

 44 49  0  0  1  0  0  0  0  0999 V2000
  187.3510  177.6970  143.3320 C   0  0  2  0  0  3  0  0  0  0  0  0
  187.0830  176.9120  144.6030 C   0  0  0  0  0  1  0  0  0  0  0  0
  186.0350  178.0380  142.6500 C   0  0  0  0  0  2  0  0  0  0  0  0
  184.9750  178.3070  143.7020 C   0  0  1  0  0  3  0  0  0  0  0  0
  184.8420  179.8010  143.9010 C   0  0  0  0  0  2  0  0  0  0  0  0
  183.8120  179.0520  143.0760 C   0  0  2  0  0  3  0  0  0  0  0  0
  182.5630  178.7950  143.9090 C   0  0  1  0  0  3  0  0  0  0  0  0
  182.7760  179.1390  145.2460 O   0  0  0  0  0  1  0  0  0  0  0  0
  181.3420  179.5260  143.3460 C   0  0  0  0  0  2  0  0  0  0  0  0
  180.4590  178.6440  142.4610 C   0  0  0  0  0  2  0  0  0  0  0  0
  180.1090  180.4210  140.2340 O   0  0  0  0  0  0  0  0  0  0  0  0
  180.8990  179.4480  140.0980 C   0  0  0  0  0  0  0  0  0  0  0  0
  181.0520  178.4800  141.1390 N   0  0  0  0  0  2  0  0  0  0  0  0
  181.8630  179.2860  138.6010 S   0  0  0  0  0  0  0  0  0  0  0  0
  183.2400  178.5180  139.5060 C   0  0  0  0  0  2  0  0  0  0  0  0
  183.0450  176.9510  135.5670 N   0  0  0  0  0  1  0  0  0  0  0  0
  183.0280  176.1700  138.6530 C   0  0  0  0  0  0  0  0  0  0  0  0
  184.1160  174.2420  137.7270 N   0  0  0  0  0  1  0  0  0  0  0  0
  183.2670  175.3840  137.4190 C   0  0  2  0  0  3  0  0  0  0  0  0
  182.2270  175.7870  139.5500 O   0  0  0  0  0  0  0  0  0  0  0  0
  183.7530  177.3810  138.7600 N   0  0  0  0  0  0  0  0  0  0  0  0
  184.8780  177.6090  137.4250 S   0  0  0  0  0  0  0  0  0  0  0  0
  184.0040  176.3210  136.4580 C   0  0  2  0  0  3  0  0  0  0  0  0
  188.1580  176.9360  142.4760 O   0  0  0  0  0  0  0  0  0  0  0  0
  189.0740  177.3650  140.3190 C   0  0  1  0  0  3  0  0  0  0  0  0
  190.5860  177.2550  140.1230 C   0  0  1  0  0  3  0  0  0  0  0  0
  191.2140  177.2500  141.4340 N   0  0  0  0  0  2  0  0  0  0  0  0
  188.8940  177.8750  141.7340 C   0  0  2  0  0  3  0  0  0  0  0  0
  190.3170  178.0380  142.2730 C   0  0  1  0  0  3  0  0  0  0  0  0
  190.4660  177.7910  143.7890 C   0  0  0  0  0  3  0  0  0  0  0  0
  191.6080  176.8370  144.1090 C   0  0  0  0  0  2  0  0  0  0  0  0
  191.7830  178.3300  144.3330 C   0  0  0  0  0  2  0  0  0  0  0  0
  191.0000  176.0680  139.3610 N   0  0  0  0  0  2  0  0  0  0  0  0
  192.0210  176.3710  138.5110 O   0  0  0  0  0  0  0  0  0  0  0  0
  193.3340  175.9010  135.5740 C   0  0  0  0  0  2  0  0  0  0  0  0
  195.4010  174.9830  136.2970 O   0  0  0  0  0  0  0  0  0  0  0  0
  193.5330  174.6780  137.7210 C   0  0  0  0  0  2  0  0  0  0  0  0
  191.9550  175.7800  136.2000 C   0  0  0  0  0  2  0  0  0  0  0  0
  192.1360  175.2830  137.6320 C   0  0  2  0  0  3  0  0  0  0  0  0
  194.2120  175.1660  136.5060 C   0  0  0  0  0  0  0  0  0  0  0  0
  188.4740  178.3600  139.3370 C   0  0  0  0  0  2  0  0  0  0  0  0
  189.3490  178.4760  138.0990 C   0  0  0  0  0  3  0  0  0  0  0  0
  188.5520  179.1280  136.9850 C   0  0  0  0  0  2  0  0  0  0  0  0
  188.7510  177.6270  137.0000 C   0  0  0  0  0  2  0  0  0  0  0  0
  1  2  1  1  0  0  0
  3  1  1  0  0  0  0
  4  3  1  6  0  0  0
  4  5  1  0  0  0  0
  6  4  1  0  0  0  0
  6  5  1  0  0  0  0
  6  7  1  1  0  0  0
  7  8  1  1  0  0  0
  9  7  1  0  0  0  0
 10  9  1  0  0  0  0
 12 11  2  0  0  0  0
 12 13  1  0  0  0  0
 13 10  1  0  0  0  0
 14 15  1  0  0  0  0
 14 12  1  0  0  0  0
 17 21  1  0  0  0  0
 17 20  2  0  0  0  0
 19 18  1  1  0  0  0
 19 17  1  0  0  0  0
 21 15  1  0  0  0  0
 22 21  1  0  0  0  0
 23 16  1  6  0  0  0
 23 19  1  0  0  0  0
 23 22  1  0  0  0  0
 24  1  1  0  0  0  0
 25 41  1  6  0  0  0
 25 28  1  0  0  0  0
 26 33  1  1  0  0  0
 26 25  1  0  0  0  0
 26 27  1  0  0  0  0
 27 29  1  0  0  0  0
 28 29  1  0  0  0  0
 28 24  1  1  0  0  0
 29 30  1  1  0  0  0
 30 31  1  0  0  0  0
 30 32  1  0  0  0  0
 31 32  1  0  0  0  0
 34 33  1  0  0  0  0
 35 38  1  0  0  0  0
 35 40  1  0  0  0  0
 36 40  2  0  0  0  0
 38 39  1  0  0  0  0
 39 37  1  0  0  0  0
 39 34  1  1  0  0  0
 40 37  1  0  0  0  0
 42 41  1  0  0  0  0
 43 44  1  0  0  0  0
 43 42  1  0  0  0  0
 44 42  1  0  0  0  0
M  END
>  <MODEL>
7

>  <REMARK>
 VINA RESULT:      -5.8      2.933      5.498
  Name = 
  17 active torsions:
  status: ('A' for Active; 'I' for Inactive)
    1  A    between atoms: C_1  and  C_16
    2  A    between atoms: C_2  and  C_36
    3  A    between atoms: C_5  and  C_16
    4  A    between atoms: C_7  and  C_37
    5  A    between atoms: C_8  and  N_31
    6  A    between atoms: C_11  and  N_25
    7  A    between atoms: C_11  and  C_40
    8  A    between atoms: C_14  and  O_18
    9  A    between atoms: C_14  and  C_37
   10  A    between atoms: O_18  and  C_19
   11  A    between atoms: C_21  and  C_27
   12  A    between atoms: C_21  and  C_40
   13  A    between atoms: C_23  and  S_26
   14  A    between atoms: S_26  and  C_30
   15  A    between atoms: O_29  and  N_31
   16  A    between atoms: O_29  and  C_41
   17  A    between atoms: C_30  and  N_33
                            x       y       z     vdW  Elec       q    Type
                         _______ _______ _______ _____ _____    ______ ____

>  <TORSDO>
F 17

$$$$
=
 OpenBabel10232407573D

 44 49  0  0  1  0  0  0  0  0999 V2000
  187.3600  177.7320  143.3510 C   0  0  2  0  0  3  0  0  0  0  0  0
  187.0110  176.9200  144.5850 C   0  0  0  0  0  1  0  0  0  0  0  0
  186.0850  178.1920  142.6610 C   0  0  0  0  0  2  0  0  0  0  0  0
  185.0040  178.4290  143.7010 C   0  0  1  0  0  3  0  0  0  0  0  0
  184.6710  179.9050  143.7400 C   0  0  0  0  0  2  0  0  0  0  0  0
  183.7470  178.9380  143.0230 C   0  0  2  0  0  3  0  0  0  0  0  0
  182.5490  178.6090  143.9040 C   0  0  1  0  0  3  0  0  0  0  0  0
  182.7030  179.1590  145.1790 O   0  0  0  0  0  1  0  0  0  0  0  0
  181.2330  179.0610  143.2700 C   0  0  0  0  0  2  0  0  0  0  0  0
  181.2930  179.1610  141.7450 C   0  0  0  0  0  2  0  0  0  0  0  0
  181.7550  178.5770  138.9730 O   0  0  0  0  0  0  0  0  0  0  0  0
  181.5910  177.6090  139.7640 C   0  0  0  0  0  0  0  0  0  0  0  0
  181.2730  177.8340  141.1390 N   0  0  0  0  0  2  0  0  0  0  0  0
  181.7840  175.9330  139.1720 S   0  0  0  0  0  0  0  0  0  0  0  0
  181.7860  176.4880  137.4400 C   0  0  0  0  0  2  0  0  0  0  0  0
  184.5610  173.3080  137.8840 N   0  0  0  0  0  1  0  0  0  0  0  0
  184.2590  176.3660  137.0510 C   0  0  0  0  0  0  0  0  0  0  0  0
  186.0550  175.7000  135.6060 N   0  0  0  0  0  1  0  0  0  0  0  0
  185.3250  175.3610  136.8170 C   0  0  2  0  0  3  0  0  0  0  0  0
  184.5100  177.5190  137.4970 O   0  0  0  0  0  0  0  0  0  0  0  0
  182.9420  175.9470  136.7460 N   0  0  0  0  0  0  0  0  0  0  0  0
  182.8980  174.3370  136.0340 S   0  0  0  0  0  0  0  0  0  0  0  0
  184.6060  174.0230  136.6200 C   0  0  2  0  0  3  0  0  0  0  0  0
  188.1270  176.9500  142.4790 O   0  0  0  0  0  0  0  0  0  0  0  0
  188.9860  177.3320  140.2910 C   0  0  1  0  0  3  0  0  0  0  0  0
  190.4920  177.2080  140.0550 C   0  0  1  0  0  3  0  0  0  0  0  0
  191.1560  177.2230  141.3480 N   0  0  0  0  0  2  0  0  0  0  0  0
  188.8500  177.8690  141.7000 C   0  0  2  0  0  3  0  0  0  0  0  0
  190.2880  178.0330  142.1960 C   0  0  1  0  0  3  0  0  0  0  0  0
  190.4760  177.8130  143.7120 C   0  0  0  0  0  3  0  0  0  0  0  0
  191.9170  178.0320  144.1520 C   0  0  0  0  0  2  0  0  0  0  0  0
  190.8700  179.0960  144.4340 C   0  0  0  0  0  2  0  0  0  0  0  0
  190.8770  176.0040  139.3040 N   0  0  0  0  0  2  0  0  0  0  0  0
  191.9450  176.2580  138.4970 O   0  0  0  0  0  0  0  0  0  0  0  0
  189.9240  175.1850  136.1870 C   0  0  0  0  0  2  0  0  0  0  0  0
  190.9150  176.3180  134.3510 O   0  0  0  0  0  0  0  0  0  0  0  0
  192.3300  175.7820  136.1740 C   0  0  0  0  0  2  0  0  0  0  0  0
  190.5790  174.6150  137.4350 C   0  0  0  0  0  2  0  0  0  0  0  0
  191.9740  175.2250  137.5470 C   0  0  2  0  0  3  0  0  0  0  0  0
  191.0430  175.8110  135.4550 C   0  0  0  0  0  0  0  0  0  0  0  0
  188.3660  178.3130  139.3060 C   0  0  0  0  0  2  0  0  0  0  0  0
  188.4300  177.7560  137.8930 C   0  0  0  0  0  3  0  0  0  0  0  0
  189.1060  178.7700  136.9890 C   0  0  0  0  0  2  0  0  0  0  0  0
  187.5970  178.6360  136.9870 C   0  0  0  0  0  2  0  0  0  0  0  0
  1  2  1  1  0  0  0
  3  1  1  0  0  0  0
  4  3  1  6  0  0  0
  4  5  1  0  0  0  0
  6  4  1  0  0  0  0
  6  5  1  0  0  0  0
  6  7  1  1  0  0  0
  7  8  1  1  0  0  0
  9  7  1  0  0  0  0
 10  9  1  0  0  0  0
 11 12  2  0  0  0  0
 12 13  1  0  0  0  0
 13 10  1  0  0  0  0
 14 12  1  0  0  0  0
 15 14  1  0  0  0  0
 17 20  2  0  0  0  0
 19 18  1  6  0  0  0
 19 17  1  0  0  0  0
 21 17  1  0  0  0  0
 21 15  1  0  0  0  0
 22 23  1  0  0  0  0
 22 21  1  0  0  0  0
 23 19  1  0  0  0  0
 23 16  1  1  0  0  0
 24  1  1  0  0  0  0
 25 41  1  6  0  0  0
 25 28  1  0  0  0  0
 26 33  1  1  0  0  0
 26 25  1  0  0  0  0
 26 27  1  0  0  0  0
 27 29  1  0  0  0  0
 28 29  1  0  0  0  0
 28 24  1  1  0  0  0
 29 30  1  1  0  0  0
 30 31  1  0  0  0  0
 30 32  1  0  0  0  0
 31 32  1  0  0  0  0
 34 33  1  0  0  0  0
 35 38  1  0  0  0  0
 36 40  2  0  0  0  0
 37 39  1  0  0  0  0
 38 39  1  0  0  0  0
 39 34  1  1  0  0  0
 40 37  1  0  0  0  0
 40 35  1  0  0  0  0
 42 41  1  0  0  0  0
 43 42  1  0  0  0  0
 44 43  1  0  0  0  0
 44 42  1  0  0  0  0
M  END
>  <MODEL>
8

>  <REMARK>
 VINA RESULT:      -5.8      2.328      5.337
  Name = 
  17 active torsions:
  status: ('A' for Active; 'I' for Inactive)
    1  A    between atoms: C_1  and  C_16
    2  A    between atoms: C_2  and  C_36
    3  A    between atoms: C_5  and  C_16
    4  A    between atoms: C_7  and  C_37
    5  A    between atoms: C_8  and  N_31
    6  A    between atoms: C_11  and  N_25
    7  A    between atoms: C_11  and  C_40
    8  A    between atoms: C_14  and  O_18
    9  A    between atoms: C_14  and  C_37
   10  A    between atoms: O_18  and  C_19
   11  A    between atoms: C_21  and  C_27
   12  A    between atoms: C_21  and  C_40
   13  A    between atoms: C_23  and  S_26
   14  A    between atoms: S_26  and  C_30
   15  A    between atoms: O_29  and  N_31
   16  A    between atoms: O_29  and  C_41
   17  A    between atoms: C_30  and  N_33
                            x       y       z     vdW  Elec       q    Type
                         _______ _______ _______ _____ _____    ______ ____

>  <TORSDO>
F 17

$$$$
=
 OpenBabel10232407573D

 44 49  0  0  1  0  0  0  0  0999 V2000
  183.0490  176.7290  139.3060 C   0  0  2  0  0  3  0  0  0  0  0  0
  181.8930  175.8000  138.9870 C   0  0  0  0  0  1  0  0  0  0  0  0
  182.6330  177.7170  140.3850 C   0  0  0  0  0  2  0  0  0  0  0  0
  183.7120  177.7850  141.4520 C   0  0  1  0  0  3  0  0  0  0  0  0
  184.7900  178.7480  141.0050 C   0  0  0  0  0  2  0  0  0  0  0  0
  183.7650  179.1830  142.0350 C   0  0  2  0  0  3  0  0  0  0  0  0
  184.3650  179.1060  143.4330 C   0  0  1  0  0  3  0  0  0  0  0  0
  185.0570  180.2790  143.7430 O   0  0  0  0  0  1  0  0  0  0  0  0
  183.3040  178.8020  144.4930 C   0  0  0  0  0  2  0  0  0  0  0  0
  183.8550  178.7810  145.9190 C   0  0  0  0  0  2  0  0  0  0  0  0
  186.0660  179.7380  147.4800 O   0  0  0  0  0  0  0  0  0  0  0  0
  186.2250  178.6810  146.8110 C   0  0  0  0  0  0  0  0  0  0  0  0
  185.1920  178.2000  145.9480 N   0  0  0  0  0  2  0  0  0  0  0  0
  187.7460  177.7530  146.9610 S   0  0  0  0  0  0  0  0  0  0  0  0
  187.5790  177.1020  145.2710 C   0  0  0  0  0  2  0  0  0  0  0  0
  190.8710  179.5740  144.2400 N   0  0  0  0  0  1  0  0  0  0  0  0
  189.0810  177.1290  143.2640 C   0  0  0  0  0  0  0  0  0  0  0  0
  191.1960  176.5250  142.3050 N   0  0  0  0  0  1  0  0  0  0  0  0
  190.4160  177.6250  142.8510 C   0  0  2  0  0  3  0  0  0  0  0  0
  188.1720  176.8680  142.4280 O   0  0  0  0  0  0  0  0  0  0  0  0
  188.8890  176.9700  144.6570 N   0  0  0  0  0  0  0  0  0  0  0  0
  190.3560  177.2950  145.5780 S   0  0  0  0  0  0  0  0  0  0  0  0
  191.0880  178.1420  144.1260 C   0  0  2  0  0  3  0  0  0  0  0  0
  183.4320  177.4130  138.1450 O   0  0  0  0  0  0  0  0  0  0  0  0
  185.1290  176.2270  136.9680 C   0  0  1  0  0  3  0  0  0  0  0  0
  185.3630  176.5430  135.4900 C   0  0  1  0  0  3  0  0  0  0  0  0
  184.2170  177.2890  134.9990 N   0  0  0  0  0  2  0  0  0  0  0  0
  183.6410  176.4120  137.1810 C   0  0  2  0  0  3  0  0  0  0  0  0
  183.0990  176.8180  135.8090 C   0  0  1  0  0  3  0  0  0  0  0  0
  181.8840  177.7690  135.8510 C   0  0  0  0  0  3  0  0  0  0  0  0
  181.2370  177.9400  134.4840 C   0  0  0  0  0  2  0  0  0  0  0  0
  180.5800  177.0520  135.5260 C   0  0  0  0  0  2  0  0  0  0  0  0
  186.6010  177.2930  135.2330 N   0  0  0  0  0  2  0  0  0  0  0  0
  187.6930  176.5640  135.5950 O   0  0  0  0  0  0  0  0  0  0  0  0
  188.1090  178.4100  138.2390 C   0  0  0  0  0  2  0  0  0  0  0  0
  189.5980  176.9670  139.3980 O   0  0  0  0  0  0  0  0  0  0  0  0
  189.5990  176.8370  137.0330 C   0  0  0  0  0  2  0  0  0  0  0  0
  187.9580  178.6380  136.7440 C   0  0  0  0  0  2  0  0  0  0  0  0
  188.6580  177.4870  136.0250 C   0  0  2  0  0  3  0  0  0  0  0  0
  189.1500  177.3670  138.3340 C   0  0  0  0  0  0  0  0  0  0  0  0
  185.5160  174.7880  137.2790 C   0  0  0  0  0  2  0  0  0  0  0  0
  184.3110  173.8730  137.1330 C   0  0  0  0  0  3  0  0  0  0  0  0
  184.7590  172.4310  137.2880 C   0  0  0  0  0  2  0  0  0  0  0  0
  184.5050  173.0050  135.9090 C   0  0  0  0  0  2  0  0  0  0  0  0
  1  2  1  6  0  0  0
  1  3  1  0  0  0  0
  4  3  1  6  0  0  0
  4  6  1  0  0  0  0
  5  4  1  0  0  0  0
  5  6  1  0  0  0  0
  6  7  1  1  0  0  0
  7  8  1  1  0  0  0
  7  9  1  0  0  0  0
  9 10  1  0  0  0  0
 10 13  1  0  0  0  0
 12 14  1  0  0  0  0
 12 11  2  0  0  0  0
 13 12  1  0  0  0  0
 15 14  1  0  0  0  0
 17 21  1  0  0  0  0
 19 18  1  1  0  0  0
 19 17  1  0  0  0  0
 19 23  1  0  0  0  0
 20 17  2  0  0  0  0
 21 15  1  0  0  0  0
 21 22  1  0  0  0  0
 23 16  1  1  0  0  0
 23 22  1  0  0  0  0
 24  1  1  0  0  0  0
 25 28  1  0  0  0  0
 25 41  1  6  0  0  0
 26 33  1  1  0  0  0
 26 25  1  0  0  0  0
 27 26  1  0  0  0  0
 27 29  1  0  0  0  0
 28 24  1  1  0  0  0
 29 30  1  1  0  0  0
 29 28  1  0  0  0  0
 31 32  1  0  0  0  0
 31 30  1  0  0  0  0
 32 30  1  0  0  0  0
 33 34  1  0  0  0  0
 35 40  1  0  0  0  0
 37 40  1  0  0  0  0
 38 35  1  0  0  0  0
 39 34  1  1  0  0  0
 39 38  1  0  0  0  0
 39 37  1  0  0  0  0
 40 36  2  0  0  0  0
 42 41  1  0  0  0  0
 42 43  1  0  0  0  0
 44 42  1  0  0  0  0
 44 43  1  0  0  0  0
M  END
>  <MODEL>
9

>  <REMARK>
 VINA RESULT:      -5.8      3.579      8.303
  Name = 
  17 active torsions:
  status: ('A' for Active; 'I' for Inactive)
    1  A    between atoms: C_1  and  C_16
    2  A    between atoms: C_2  and  C_36
    3  A    between atoms: C_5  and  C_16
    4  A    between atoms: C_7  and  C_37
    5  A    between atoms: C_8  and  N_31
    6  A    between atoms: C_11  and  N_25
    7  A    between atoms: C_11  and  C_40
    8  A    between atoms: C_14  and  O_18
    9  A    between atoms: C_14  and  C_37
   10  A    between atoms: O_18  and  C_19
   11  A    between atoms: C_21  and  C_27
   12  A    between atoms: C_21  and  C_40
   13  A    between atoms: C_23  and  S_26
   14  A    between atoms: S_26  and  C_30
   15  A    between atoms: O_29  and  N_31
   16  A    between atoms: O_29  and  C_41
   17  A    between atoms: C_30  and  N_33
                            x       y       z     vdW  Elec       q    Type
                         _______ _______ _______ _____ _____    ______ ____

>  <TORSDO>
F 17

$$$$
