=
 OpenBabel10232410013D

 26 29  0  0  1  0  0  0  0  0999 V2000
  184.3080  178.5540  143.6780 C   0  0  0  0  0  3  0  0  0  0  0  0
  189.6350  177.6400  148.3650 N   0  0  0  0  0  0  0  0  0  0  0  0
  185.6250  178.1610  143.3820 C   0  0  0  0  0  0  0  0  0  0  0  0
  187.8270  177.6850  144.3530 N   0  0  0  0  0  0  0  0  0  0  0  0
  189.6020  177.3850  145.9270 C   0  0  0  0  0  3  0  0  0  0  0  0
  188.3810  178.0120  148.7300 C   0  0  0  0  0  3  0  0  0  0  0  0
  184.8380  178.6640  146.0620 C   0  0  0  0  0  3  0  0  0  0  0  0
  186.1390  178.2810  145.7400 C   0  0  0  0  0  0  0  0  0  0  0  0
  190.2330  177.3540  147.1760 C   0  0  0  0  0  0  0  0  0  0  0  0
  186.5280  178.0370  144.4420 C   0  0  0  0  0  0  0  0  0  0  0  0
  188.2920  177.6980  145.6240 C   0  0  0  0  0  0  0  0  0  0  0  0
  187.2760  178.2160  147.9170 C   0  0  0  0  0  3  0  0  0  0  0  0
  183.9170  178.8010  145.0100 C   0  0  0  0  0  3  0  0  0  0  0  0
  187.2340  178.0770  146.5470 C   0  0  0  0  0  0  0  0  0  0  0  0
  191.5870  177.0020  147.2310 O   0  0  0  0  0  0  0  0  0  0  0  0
  192.0430  175.6630  147.3740 C   0  0  0  0  0  1  0  0  0  0  0  0
  186.0410  177.9260  141.9710 C   0  0  0  0  0  2  0  0  0  0  0  0
  186.9350  178.9750  141.5440 N   0  0  0  0  0  0  0  0  0  0  0  0
  188.0820  178.7400  141.0080 C   0  0  0  0  0  3  0  0  0  0  0  0
  191.3830  177.5130  141.2780 C   0  0  0  0  0  0  0  0  0  0  0  0
  192.4080  177.4780  140.5490 O   0  0  0  0  0  0  0  0  0  0  0  0
  189.1760  177.2710  139.5220 C   0  0  0  0  0  2  0  0  0  0  0  0
  188.6020  177.3540  140.7730 C   0  0  1  0  0  3  0  0  0  0  0  0
  190.0900  177.4010  140.6930 N   0  0  0  0  0  0  0  0  0  0  0  0
  191.5240  177.6390  142.7540 C   0  0  0  0  0  2  0  0  0  0  0  0
  191.5510  176.2640  143.3890 C   0  0  0  0  0  1  0  0  0  0  0  0
  1 13  1  0  0  0  0
  2  6  1  0  0  0  0
  3  1  2  0  0  0  0
  3 10  1  0  0  0  0
  4 10  2  0  0  0  0
  4 11  1  0  0  0  0
  5  9  1  0  0  0  0
  8  7  1  0  0  0  0
  8 14  2  0  0  0  0
  9 15  1  0  0  0  0
  9  2  2  0  0  0  0
 10  8  1  0  0  0  0
 11  5  2  0  0  0  0
 11 14  1  0  0  0  0
 12  6  2  0  0  0  0
 13  7  2  0  0  0  0
 14 12  1  0  0  0  0
 15 16  1  0  0  0  0
 17  3  1  0  0  0  0
 18 17  1  0  0  0  0
 19 18  2  0  0  0  0
 20 25  1  0  0  0  0
 21 20  2  0  0  0  0
 22 24  1  0  0  0  0
 22 23  1  0  0  0  0
 23 19  1  6  0  0  0
 24 23  1  0  0  0  0
 24 20  1  0  0  0  0
 25 26  1  0  0  0  0
M  END
>  <MODEL>
1

>  <REMARK>
 VINA RESULT:      -9.5      0.000      0.000
  Name = 
  5 active torsions:
  status: ('A' for Active; 'I' for Inactive)
    1  A    between atoms: C_2  and  C_6
    2  A    between atoms: C_4  and  C_23
    3  A    between atoms: N_11  and  C_23
    4  A    between atoms: C_12  and  C_20
    5  A    between atoms: C_16  and  O_19
                            x       y       z     vdW  Elec       q    Type
                         _______ _______ _______ _____ _____    ______ ____

>  <TORSDO>
F 5

$$$$
=
 OpenBabel10232410013D

 26 29  0  0  1  0  0  0  0  0999 V2000
  191.6280  176.4190  146.1150 C   0  0  0  0  0  3  0  0  0  0  0  0
  184.8600  178.7340  145.9500 N   0  0  0  0  0  0  0  0  0  0  0  0
  190.7980  176.4970  144.9840 C   0  0  0  0  0  0  0  0  0  0  0  0
  188.5580  177.1150  144.1950 N   0  0  0  0  0  0  0  0  0  0  0  0
  186.2960  177.8870  144.1510 C   0  0  0  0  0  2  0  0  0  0  0  0
  185.6050  178.6980  147.0850 C   0  0  0  0  0  3  0  0  0  0  0  0
  189.8470  177.3170  147.5290 C   0  0  0  0  0  3  0  0  0  0  0  0
  189.0420  177.3780  146.3920 C   0  0  0  0  0  0  0  0  0  0  0  0
  185.0930  178.4000  144.6510 C   0  0  0  0  0  0  0  0  0  0  0  0
  189.4960  176.9800  145.1550 C   0  0  1  0  0  3  0  0  0  0  0  0
  187.4690  177.6150  144.8240 C   0  0  0  0  0  0  0  0  0  0  0  0
  186.9170  178.2760  147.2380 C   0  0  0  0  0  3  0  0  0  0  0  0
  191.1560  176.8290  147.3790 C   0  0  0  0  0  3  0  0  0  0  0  0
  187.7420  177.7980  146.2420 C   0  0  0  0  0  0  0  0  0  0  0  0
  184.0290  178.5930  143.7610 O   0  0  0  0  0  0  0  0  0  0  0  0
  184.1460  178.4330  142.3530 C   0  0  0  0  0  1  0  0  0  0  0  0
  191.2920  176.0390  143.6550 C   0  0  0  0  0  2  0  0  0  0  0  0
  191.7720  177.1690  142.8960 N   0  0  0  0  0  0  0  0  0  0  0  0
  191.2620  177.5190  141.7660 C   0  0  0  0  0  3  0  0  0  0  0  0
  190.6440  176.8850  138.3470 C   0  0  0  0  0  0  0  0  0  0  0  0
  190.1290  177.5050  137.3800 O   0  0  0  0  0  0  0  0  0  0  0  0
  189.1960  177.6890  140.6420 C   0  0  0  0  0  2  0  0  0  0  0  0
  190.1200  176.7880  141.1270 C   0  0  1  0  0  3  0  0  0  0  0  0
  190.1280  177.0620  139.6620 N   0  0  0  0  0  0  0  0  0  0  0  0
  191.7720  175.9430  138.1100 C   0  0  0  0  0  2  0  0  0  0  0  0
  193.0820  176.6030  138.4920 C   0  0  0  0  0  1  0  0  0  0  0  0
  1 13  1  0  0  0  0
  2  6  1  0  0  0  0
  3 10  1  0  0  0  0
  3  1  2  0  0  0  0
  4 11  2  0  0  0  0
  5  9  1  0  0  0  0
  5 11  1  0  0  0  0
  6 12  2  0  0  0  0
  8  7  1  0  0  0  0
  9  2  2  0  0  0  0
 10  4  1  1  0  0  0
 10  8  1  0  0  0  0
 11 14  1  0  0  0  0
 13  7  2  0  0  0  0
 14  8  2  0  0  0  0
 14 12  1  0  0  0  0
 15  9  1  0  0  0  0
 16 15  1  0  0  0  0
 17  3  1  0  0  0  0
 18 17  1  0  0  0  0
 19 18  2  0  0  0  0
 20 24  1  0  0  0  0
 21 20  2  0  0  0  0
 22 23  1  0  0  0  0
 23 19  1  1  0  0  0
 24 22  1  0  0  0  0
 24 23  1  0  0  0  0
 25 20  1  0  0  0  0
 25 26  1  0  0  0  0
M  END
>  <MODEL>
2

>  <REMARK>
 VINA RESULT:      -9.4      2.430      4.891
  Name = 
  5 active torsions:
  status: ('A' for Active; 'I' for Inactive)
    1  A    between atoms: C_2  and  C_6
    2  A    between atoms: C_4  and  C_23
    3  A    between atoms: N_11  and  C_23
    4  A    between atoms: C_12  and  C_20
    5  A    between atoms: C_16  and  O_19
                            x       y       z     vdW  Elec       q    Type
                         _______ _______ _______ _____ _____    ______ ____

>  <TORSDO>
F 5

$$$$
=
 OpenBabel10232410013D

 26 29  0  0  1  0  0  0  0  0999 V2000
  186.9110  178.2910  148.2200 C   0  0  0  0  0  3  0  0  0  0  0  0
  191.4640  176.3180  143.0670 N   0  0  0  0  0  0  0  0  0  0  0  0
  186.5950  178.0520  146.8720 C   0  0  0  0  0  0  0  0  0  0  0  0
  187.5230  177.4130  144.6920 N   0  0  0  0  0  0  0  0  0  0  0  0
  189.0530  176.7570  142.9760 C   0  0  0  0  0  2  0  0  0  0  0  0
  191.8430  176.5200  144.3550 C   0  0  0  0  0  3  0  0  0  0  0  0
  189.2580  177.7490  147.8050 C   0  0  0  0  0  3  0  0  0  0  0  0
  188.9190  177.5250  146.4710 C   0  0  0  0  0  0  0  0  0  0  0  0
  190.2790  176.4020  142.4010 C   0  0  0  0  0  0  0  0  0  0  0  0
  187.6300  177.6730  146.0120 C   0  0  2  0  0  3  0  0  0  0  0  0
  188.7720  177.0880  144.2860 C   0  0  0  0  0  0  0  0  0  0  0  0
  191.0550  176.8990  145.4320 C   0  0  0  0  0  3  0  0  0  0  0  0
  188.2330  178.1380  148.6840 C   0  0  0  0  0  3  0  0  0  0  0  0
  189.7010  177.1490  145.4040 C   0  0  0  0  0  0  0  0  0  0  0  0
  190.3130  176.1050  141.0330 O   0  0  0  0  0  0  0  0  0  0  0  0
  190.7100  177.0410  140.0380 C   0  0  0  0  0  1  0  0  0  0  0  0
  185.2010  178.2400  146.3800 C   0  0  0  0  0  2  0  0  0  0  0  0
  185.0670  179.5460  145.7800 N   0  0  0  0  0  0  0  0  0  0  0  0
  184.6000  179.7250  144.5940 C   0  0  0  0  0  3  0  0  0  0  0  0
  185.2830  179.1300  141.1790 C   0  0  0  0  0  0  0  0  0  0  0  0
  184.8150  179.5070  140.0740 O   0  0  0  0  0  0  0  0  0  0  0  0
  183.0770  178.9930  142.9480 C   0  0  0  0  0  2  0  0  0  0  0  0
  184.1490  178.5950  143.7180 C   0  0  1  0  0  3  0  0  0  0  0  0
  184.4160  178.9480  142.2940 N   0  0  0  0  0  0  0  0  0  0  0  0
  186.7370  178.8430  141.3120 C   0  0  0  0  0  2  0  0  0  0  0  0
  187.2800  178.3120  140.0020 C   0  0  0  0  0  1  0  0  0  0  0  0
  1 13  1  0  0  0  0
  2  6  1  0  0  0  0
  3  1  2  0  0  0  0
  5 11  1  0  0  0  0
  6 12  2  0  0  0  0
  7 13  2  0  0  0  0
  8  7  1  0  0  0  0
  9  5  1  0  0  0  0
  9  2  2  0  0  0  0
 10  4  1  1  0  0  0
 10  8  1  0  0  0  0
 10  3  1  0  0  0  0
 11  4  2  0  0  0  0
 11 14  1  0  0  0  0
 14 12  1  0  0  0  0
 14  8  2  0  0  0  0
 15  9  1  0  0  0  0
 16 15  1  0  0  0  0
 17  3  1  0  0  0  0
 18 17  1  0  0  0  0
 19 18  2  0  0  0  0
 20 25  1  0  0  0  0
 20 24  1  0  0  0  0
 21 20  2  0  0  0  0
 22 23  1  0  0  0  0
 23 19  1  1  0  0  0
 24 22  1  0  0  0  0
 24 23  1  0  0  0  0
 26 25  1  0  0  0  0
M  END
>  <MODEL>
3

>  <REMARK>
 VINA RESULT:      -9.3      2.221      5.150
  Name = 
  5 active torsions:
  status: ('A' for Active; 'I' for Inactive)
    1  A    between atoms: C_2  and  C_6
    2  A    between atoms: C_4  and  C_23
    3  A    between atoms: N_11  and  C_23
    4  A    between atoms: C_12  and  C_20
    5  A    between atoms: C_16  and  O_19
                            x       y       z     vdW  Elec       q    Type
                         _______ _______ _______ _____ _____    ______ ____

>  <TORSDO>
F 5

$$$$
=
 OpenBabel10232410013D

 26 29  0  0  1  0  0  0  0  0999 V2000
  191.5220  176.2000  144.8180 C   0  0  0  0  0  3  0  0  0  0  0  0
  185.1990  178.9040  146.7900 N   0  0  0  0  0  0  0  0  0  0  0  0
  190.3980  176.3850  143.9950 C   0  0  0  0  0  0  0  0  0  0  0  0
  188.0740  177.1720  143.9440 N   0  0  0  0  0  0  0  0  0  0  0  0
  185.9640  178.0730  144.6130 C   0  0  0  0  0  3  0  0  0  0  0  0
  186.2460  178.7660  147.6440 C   0  0  0  0  0  3  0  0  0  0  0  0
  190.3160  177.1230  146.7350 C   0  0  0  0  0  3  0  0  0  0  0  0
  189.2130  177.2890  145.8980 C   0  0  0  0  0  0  0  0  0  0  0  0
  185.0060  178.6270  145.4710 C   0  0  0  0  0  0  0  0  0  0  0  0
  189.2450  176.9320  144.5690 C   0  0  0  0  0  0  0  0  0  0  0  0
  187.2620  177.6990  144.8900 C   0  0  0  0  0  0  0  0  0  0  0  0
  187.5100  178.2610  147.3770 C   0  0  0  0  0  3  0  0  0  0  0  0
  191.4820  176.5690  146.1790 C   0  0  0  0  0  3  0  0  0  0  0  0
  187.9610  177.7910  146.1630 C   0  0  0  0  0  0  0  0  0  0  0  0
  183.7400  178.9270  144.9530 O   0  0  0  0  0  0  0  0  0  0  0  0
  183.4090  178.8080  143.5750 C   0  0  0  0  0  1  0  0  0  0  0  0
  190.4360  175.9700  142.5640 C   0  0  0  0  0  2  0  0  0  0  0  0
  191.1270  176.9690  141.7850 N   0  0  0  0  0  0  0  0  0  0  0  0
  190.5740  177.5990  140.8080 C   0  0  0  0  0  3  0  0  0  0  0  0
  188.9490  178.5160  137.8080 C   0  0  0  0  0  0  0  0  0  0  0  0
  188.3810  179.5420  137.3530 O   0  0  0  0  0  0  0  0  0  0  0  0
  188.4040  178.4970  140.5860 C   0  0  0  0  0  2  0  0  0  0  0  0
  189.1560  177.3590  140.3840 C   0  0  1  0  0  3  0  0  0  0  0  0
  188.8550  178.2070  139.1940 N   0  0  0  0  0  0  0  0  0  0  0  0
  189.6940  177.6090  136.8920 C   0  0  0  0  0  2  0  0  0  0  0  0
  188.7830  176.4960  136.4170 C   0  0  0  0  0  1  0  0  0  0  0  0
  1 13  1  0  0  0  0
  2  6  1  0  0  0  0
  3 10  1  0  0  0  0
  3  1  2  0  0  0  0
  4 10  2  0  0  0  0
  4 11  1  0  0  0  0
  5 11  2  0  0  0  0
  5  9  1  0  0  0  0
  8 14  2  0  0  0  0
  8  7  1  0  0  0  0
  9  2  2  0  0  0  0
 10  8  1  0  0  0  0
 11 14  1  0  0  0  0
 12  6  2  0  0  0  0
 13  7  2  0  0  0  0
 14 12  1  0  0  0  0
 15  9  1  0  0  0  0
 16 15  1  0  0  0  0
 17  3  1  0  0  0  0
 18 17  1  0  0  0  0
 19 18  2  0  0  0  0
 20 24  1  0  0  0  0
 21 20  2  0  0  0  0
 23 22  1  0  0  0  0
 23 19  1  1  0  0  0
 24 23  1  0  0  0  0
 24 22  1  0  0  0  0
 25 20  1  0  0  0  0
 26 25  1  0  0  0  0
M  END
>  <MODEL>
4

>  <REMARK>
 VINA RESULT:      -9.2      2.515      5.020
  Name = 
  5 active torsions:
  status: ('A' for Active; 'I' for Inactive)
    1  A    between atoms: C_2  and  C_6
    2  A    between atoms: C_4  and  C_23
    3  A    between atoms: N_11  and  C_23
    4  A    between atoms: C_12  and  C_20
    5  A    between atoms: C_16  and  O_19
                            x       y       z     vdW  Elec       q    Type
                         _______ _______ _______ _____ _____    ______ ____

>  <TORSDO>
F 5

$$$$
=
 OpenBabel10232410013D

 26 29  0  0  1  0  0  0  0  0999 V2000
  184.0250  178.7790  143.7460 C   0  0  0  0  0  3  0  0  0  0  0  0
  189.7640  177.3080  147.7550 N   0  0  0  0  0  0  0  0  0  0  0  0
  185.2880  178.3750  143.2820 C   0  0  0  0  0  0  0  0  0  0  0  0
  187.5590  177.7520  143.9720 N   0  0  0  0  0  0  0  0  0  0  0  0
  189.4720  177.2660  145.3210 C   0  0  0  0  0  3  0  0  0  0  0  0
  188.5690  177.6830  148.2790 C   0  0  0  0  0  3  0  0  0  0  0  0
  184.7990  178.6670  146.0620 C   0  0  0  0  0  3  0  0  0  0  0  0
  186.0450  178.2750  145.5740 C   0  0  0  0  0  0  0  0  0  0  0  0
  190.2260  177.1080  146.4900 C   0  0  0  0  0  0  0  0  0  0  0  0
  186.2900  178.1330  144.2270 C   0  0  0  0  0  0  0  0  0  0  0  0
  188.1520  177.6420  145.1840 C   0  0  0  0  0  0  0  0  0  0  0  0
  187.3950  177.9880  147.6070 C   0  0  0  0  0  3  0  0  0  0  0  0
  183.7810  178.9210  145.1270 C   0  0  0  0  0  3  0  0  0  0  0  0
  187.2080  177.9700  146.2420 C   0  0  0  0  0  0  0  0  0  0  0  0
  191.5640  176.7130  146.3730 O   0  0  0  0  0  0  0  0  0  0  0  0
  192.1910  175.7960  147.2610 C   0  0  0  0  0  1  0  0  0  0  0  0
  185.5490  178.2510  141.8190 C   0  0  0  0  0  2  0  0  0  0  0  0
  184.8930  179.3260  141.1140 N   0  0  0  0  0  0  0  0  0  0  0  0
  184.3750  179.1800  139.9440 C   0  0  0  0  0  3  0  0  0  0  0  0
  186.6720  178.0370  137.5150 C   0  0  0  0  0  0  0  0  0  0  0  0
  186.8340  178.1720  136.2750 O   0  0  0  0  0  0  0  0  0  0  0  0
  183.8720  178.0490  137.9370 C   0  0  0  0  0  2  0  0  0  0  0  0
  184.4010  177.8800  139.1990 C   0  0  1  0  0  3  0  0  0  0  0  0
  185.3570  177.9920  138.0610 N   0  0  0  0  0  0  0  0  0  0  0  0
  187.8530  177.8940  138.4090 C   0  0  0  0  0  2  0  0  0  0  0  0
  188.9770  178.7870  137.9250 C   0  0  0  0  0  1  0  0  0  0  0  0
  1 13  1  0  0  0  0
  2  6  1  0  0  0  0
  3  1  2  0  0  0  0
  3 10  1  0  0  0  0
  4 10  2  0  0  0  0
  4 11  1  0  0  0  0
  5  9  1  0  0  0  0
  8  7  1  0  0  0  0
  8 14  2  0  0  0  0
  9  2  2  0  0  0  0
 10  8  1  0  0  0  0
 11  5  2  0  0  0  0
 11 14  1  0  0  0  0
 12  6  2  0  0  0  0
 13  7  2  0  0  0  0
 14 12  1  0  0  0  0
 15  9  1  0  0  0  0
 15 16  1  0  0  0  0
 17  3  1  0  0  0  0
 18 17  1  0  0  0  0
 19 18  2  0  0  0  0
 20 24  1  0  0  0  0
 20 25  1  0  0  0  0
 21 20  2  0  0  0  0
 22 24  1  0  0  0  0
 22 23  1  0  0  0  0
 23 19  1  1  0  0  0
 24 23  1  0  0  0  0
 26 25  1  0  0  0  0
M  END
>  <MODEL>
5

>  <REMARK>
 VINA RESULT:      -9.2      2.262      3.203
  Name = 
  5 active torsions:
  status: ('A' for Active; 'I' for Inactive)
    1  A    between atoms: C_2  and  C_6
    2  A    between atoms: C_4  and  C_23
    3  A    between atoms: N_11  and  C_23
    4  A    between atoms: C_12  and  C_20
    5  A    between atoms: C_16  and  O_19
                            x       y       z     vdW  Elec       q    Type
                         _______ _______ _______ _____ _____    ______ ____

>  <TORSDO>
F 5

$$$$
=
 OpenBabel10232410013D

 26 29  0  0  1  0  0  0  0  0999 V2000
  186.5620  177.9580  145.4000 C   0  0  0  0  0  3  0  0  0  0  0  0
  180.6830  179.3170  141.5580 N   0  0  0  0  0  0  0  0  0  0  0  0
  186.4140  177.7960  144.0120 C   0  0  0  0  0  0  0  0  0  0  0  0
  184.8470  178.0170  142.1360 N   0  0  0  0  0  0  0  0  0  0  0  0
  182.8760  178.4710  140.8620 C   0  0  0  0  0  2  0  0  0  0  0  0
  180.7530  179.5100  142.9000 C   0  0  0  0  0  3  0  0  0  0  0  0
  184.2620  178.7650  145.5890 C   0  0  0  0  0  3  0  0  0  0  0  0
  184.1400  178.5890  144.2110 C   0  0  0  0  0  0  0  0  0  0  0  0
  181.5580  178.8720  140.6150 C   0  0  0  0  0  0  0  0  0  0  0  0
  185.1790  178.1170  143.4410 C   0  0  1  0  0  3  0  0  0  0  0  0
  183.5630  178.4360  142.0580 C   0  0  0  0  0  0  0  0  0  0  0  0
  181.8300  179.2850  143.7440 C   0  0  0  0  0  3  0  0  0  0  0  0
  185.4930  178.4410  146.1830 C   0  0  0  0  0  3  0  0  0  0  0  0
  183.0710  178.8130  143.3750 C   0  0  0  0  0  0  0  0  0  0  0  0
  181.0800  178.8200  139.3000 O   0  0  0  0  0  0  0  0  0  0  0  0
  181.5380  179.6820  138.2650 C   0  0  0  0  0  1  0  0  0  0  0  0
  187.5380  177.2610  143.1930 C   0  0  0  0  0  2  0  0  0  0  0  0
  188.6060  178.2290  143.1360 N   0  0  0  0  0  0  0  0  0  0  0  0
  189.8170  177.9540  143.4740 C   0  0  0  0  0  3  0  0  0  0  0  0
  190.5680  176.8860  146.7570 C   0  0  0  0  0  0  0  0  0  0  0  0
  191.5670  176.9150  147.5220 O   0  0  0  0  0  0  0  0  0  0  0  0
  191.6050  176.5680  144.1420 C   0  0  0  0  0  2  0  0  0  0  0  0
  190.2380  176.5990  143.9590 C   0  0  1  0  0  3  0  0  0  0  0  0
  190.7510  176.7220  145.3550 N   0  0  0  0  0  0  0  0  0  0  0  0
  189.1950  176.9930  147.3210 C   0  0  0  0  0  2  0  0  0  0  0  0
  189.1090  178.1920  148.2430 C   0  0  0  0  0  1  0  0  0  0  0  0
  1 13  1  0  0  0  0
  2  6  1  0  0  0  0
  3  1  2  0  0  0  0
  5 11  1  0  0  0  0
  6 12  2  0  0  0  0
  7 13  2  0  0  0  0
  8  7  1  0  0  0  0
  9  5  1  0  0  0  0
  9  2  2  0  0  0  0
 10  4  1  1  0  0  0
 10  3  1  0  0  0  0
 10  8  1  0  0  0  0
 11  4  2  0  0  0  0
 11 14  1  0  0  0  0
 14 12  1  0  0  0  0
 14  8  2  0  0  0  0
 15  9  1  0  0  0  0
 16 15  1  0  0  0  0
 17  3  1  0  0  0  0
 18 17  1  0  0  0  0
 18 19  2  0  0  0  0
 20 25  1  0  0  0  0
 20 21  2  0  0  0  0
 22 24  1  0  0  0  0
 23 19  1  6  0  0  0
 23 22  1  0  0  0  0
 23 24  1  0  0  0  0
 24 20  1  0  0  0  0
 25 26  1  0  0  0  0
M  END
>  <MODEL>
6

>  <REMARK>
 VINA RESULT:      -8.8      3.357      6.725
  Name = 
  5 active torsions:
  status: ('A' for Active; 'I' for Inactive)
    1  A    between atoms: C_2  and  C_6
    2  A    between atoms: C_4  and  C_23
    3  A    between atoms: N_11  and  C_23
    4  A    between atoms: C_12  and  C_20
    5  A    between atoms: C_16  and  O_19
                            x       y       z     vdW  Elec       q    Type
                         _______ _______ _______ _____ _____    ______ ____

>  <TORSDO>
F 5

$$$$
=
 OpenBabel10232410013D

 26 29  0  0  1  0  0  0  0  0999 V2000
  189.7250  177.4640  147.0620 C   0  0  0  0  0  3  0  0  0  0  0  0
  183.4870  178.8310  143.8370 N   0  0  0  0  0  0  0  0  0  0  0  0
  189.4970  177.5380  145.6770 C   0  0  0  0  0  0  0  0  0  0  0  0
  187.7900  177.9150  143.9560 N   0  0  0  0  0  0  0  0  0  0  0  0
  185.7000  178.3690  142.8880 C   0  0  0  0  0  2  0  0  0  0  0  0
  183.6310  178.7880  145.1870 C   0  0  0  0  0  3  0  0  0  0  0  0
  187.3750  177.9670  147.5120 C   0  0  0  0  0  3  0  0  0  0  0  0
  187.1750  178.0270  146.1330 C   0  0  0  0  0  0  0  0  0  0  0  0
  184.3340  178.6600  142.7860 C   0  0  0  0  0  0  0  0  0  0  0  0
  188.2000  177.8170  145.2380 C   0  0  2  0  0  3  0  0  0  0  0  0
  186.4680  178.1960  144.0210 C   0  0  0  0  0  0  0  0  0  0  0  0
  184.7810  178.5370  145.9190 C   0  0  0  0  0  3  0  0  0  0  0  0
  188.6710  177.6810  147.9740 C   0  0  0  0  0  3  0  0  0  0  0  0
  186.0340  178.2770  145.4080 C   0  0  0  0  0  0  0  0  0  0  0  0
  183.7730  178.7900  141.5090 O   0  0  0  0  0  0  0  0  0  0  0  0
  184.5330  179.0970  140.3470 C   0  0  0  0  0  1  0  0  0  0  0  0
  190.6090  177.2830  144.7180 C   0  0  0  0  0  2  0  0  0  0  0  0
  190.2630  176.1820  143.8510 N   0  0  0  0  0  0  0  0  0  0  0  0
  190.3230  176.2570  142.5670 C   0  0  0  0  0  3  0  0  0  0  0  0
  190.1360  177.0240  139.1240 C   0  0  0  0  0  0  0  0  0  0  0  0
  190.8240  176.7890  138.0960 O   0  0  0  0  0  0  0  0  0  0  0  0
  191.9870  177.2880  141.2500 C   0  0  0  0  0  2  0  0  0  0  0  0
  190.7600  177.4960  141.8450 C   0  0  1  0  0  3  0  0  0  0  0  0
  190.7780  177.2220  140.3790 N   0  0  0  0  0  0  0  0  0  0  0  0
  188.6550  177.1230  139.0210 C   0  0  0  0  0  2  0  0  0  0  0  0
  188.1800  178.4140  139.6560 C   0  0  0  0  0  1  0  0  0  0  0  0
  1 13  1  0  0  0  0
  2  6  1  0  0  0  0
  3  1  2  0  0  0  0
  4 11  2  0  0  0  0
  5 11  1  0  0  0  0
  6 12  2  0  0  0  0
  7 13  2  0  0  0  0
  8  7  1  0  0  0  0
  9  5  1  0  0  0  0
  9  2  2  0  0  0  0
 10  4  1  1  0  0  0
 10  3  1  0  0  0  0
 10  8  1  0  0  0  0
 11 14  1  0  0  0  0
 14 12  1  0  0  0  0
 14  8  2  0  0  0  0
 15  9  1  0  0  0  0
 16 15  1  0  0  0  0
 17  3  1  0  0  0  0
 18 17  1  0  0  0  0
 19 18  2  0  0  0  0
 20 24  1  0  0  0  0
 21 20  2  0  0  0  0
 22 23  1  0  0  0  0
 23 19  1  1  0  0  0
 24 22  1  0  0  0  0
 24 23  1  0  0  0  0
 25 20  1  0  0  0  0
 25 26  1  0  0  0  0
M  END
>  <MODEL>
7

>  <REMARK>
 VINA RESULT:      -8.6      2.375      5.082
  Name = 
  5 active torsions:
  status: ('A' for Active; 'I' for Inactive)
    1  A    between atoms: C_2  and  C_6
    2  A    between atoms: C_4  and  C_23
    3  A    between atoms: N_11  and  C_23
    4  A    between atoms: C_12  and  C_20
    5  A    between atoms: C_16  and  O_19
                            x       y       z     vdW  Elec       q    Type
                         _______ _______ _______ _____ _____    ______ ____

>  <TORSDO>
F 5

$$$$
=
 OpenBabel10232410013D

 26 29  0  0  1  0  0  0  0  0999 V2000
  183.6700  178.7890  145.1990 C   0  0  0  0  0  3  0  0  0  0  0  0
  186.9330  178.4130  138.8430 N   0  0  0  0  0  0  0  0  0  0  0  0
  185.0550  178.6970  144.9730 C   0  0  2  0  0  3  0  0  0  0  0  0
  186.7840  178.5310  143.2400 N   0  0  0  0  0  0  0  0  0  0  0  0
  187.8640  178.4030  141.1110 C   0  0  0  0  0  2  0  0  0  0  0  0
  185.5860  178.5120  138.9810 C   0  0  0  0  0  3  0  0  0  0  0  0
  183.2390  178.7680  142.7930 C   0  0  0  0  0  3  0  0  0  0  0  0
  184.6170  178.6700  142.5970 C   0  0  0  0  0  0  0  0  0  0  0  0
  187.9760  178.3600  139.7170 C   0  0  0  0  0  0  0  0  0  0  0  0
  185.5020  178.6330  143.6500 C   0  0  0  0  0  0  0  0  0  0  0  0
  186.7280  178.5030  141.8880 C   0  0  0  0  0  0  0  0  0  0  0  0
  184.8470  178.5930  140.1520 C   0  0  0  0  0  3  0  0  0  0  0  0
  182.7690  178.8270  144.1150 C   0  0  0  0  0  3  0  0  0  0  0  0
  185.3480  178.5900  141.4350 C   0  0  0  0  0  0  0  0  0  0  0  0
  189.2530  178.2550  139.1520 O   0  0  0  0  0  0  0  0  0  0  0  0
  189.7320  177.0800  138.5100 C   0  0  0  0  0  1  0  0  0  0  0  0
  186.0020  178.6320  146.1220 C   0  0  0  0  0  2  0  0  0  0  0  0
  186.5110  177.2890  146.2590 N   0  0  0  0  0  0  0  0  0  0  0  0
  187.7160  177.0330  146.6320 C   0  0  0  0  0  3  0  0  0  0  0  0
  191.2280  176.8090  146.9500 C   0  0  0  0  0  0  0  0  0  0  0  0
  192.0450  176.4760  147.8470 O   0  0  0  0  0  0  0  0  0  0  0  0
  189.0580  178.0330  148.2950 C   0  0  0  0  0  2  0  0  0  0  0  0
  188.7110  178.1050  146.9620 C   0  0  1  0  0  3  0  0  0  0  0  0
  190.0160  177.4690  147.3010 N   0  0  0  0  0  0  0  0  0  0  0  0
  191.5410  176.5380  145.5210 C   0  0  0  0  0  2  0  0  0  0  0  0
  191.3320  177.7950  144.7010 C   0  0  0  0  0  1  0  0  0  0  0  0
  2  6  1  0  0  0  0
  2  9  2  0  0  0  0
  3  1  1  0  0  0  0
  3 17  1  1  0  0  0
  4 10  2  0  0  0  0
  5 11  1  0  0  0  0
  6 12  2  0  0  0  0
  7 13  1  0  0  0  0
  8  7  2  0  0  0  0
  8 10  1  0  0  0  0
  9  5  1  0  0  0  0
 10  3  1  0  0  0  0
 11  4  1  0  0  0  0
 12 14  1  0  0  0  0
 13  1  2  0  0  0  0
 14 11  2  0  0  0  0
 14  8  1  0  0  0  0
 15  9  1  0  0  0  0
 16 15  1  0  0  0  0
 17 18  1  0  0  0  0
 18 19  2  0  0  0  0
 20 24  1  0  0  0  0
 20 21  2  0  0  0  0
 23 19  1  1  0  0  0
 23 24  1  0  0  0  0
 23 22  1  0  0  0  0
 24 22  1  0  0  0  0
 25 20  1  0  0  0  0
 26 25  1  0  0  0  0
M  END
>  <MODEL>
8

>  <REMARK>
 VINA RESULT:      -8.6      1.707      6.009
  Name = 
  5 active torsions:
  status: ('A' for Active; 'I' for Inactive)
    1  A    between atoms: C_2  and  C_6
    2  A    between atoms: C_4  and  C_23
    3  A    between atoms: N_11  and  C_23
    4  A    between atoms: C_12  and  C_20
    5  A    between atoms: C_16  and  O_19
                            x       y       z     vdW  Elec       q    Type
                         _______ _______ _______ _____ _____    ______ ____

>  <TORSDO>
F 5

$$$$
=
 OpenBabel10232410013D

 26 29  0  0  1  0  0  0  0  0999 V2000
  189.8380  177.0210  146.1900 C   0  0  0  0  0  3  0  0  0  0  0  0
  183.3580  179.0530  143.9410 N   0  0  0  0  0  0  0  0  0  0  0  0
  189.3520  176.9580  144.8720 C   0  0  0  0  0  0  0  0  0  0  0  0
  187.4110  177.4120  143.4410 N   0  0  0  0  0  0  0  0  0  0  0  0
  185.2410  178.0910  142.7010 C   0  0  0  0  0  2  0  0  0  0  0  0
  183.7610  179.1550  145.2340 C   0  0  0  0  0  3  0  0  0  0  0  0
  187.7280  177.9840  146.9610 C   0  0  0  0  0  3  0  0  0  0  0  0
  187.2680  177.9040  145.6480 C   0  0  0  0  0  0  0  0  0  0  0  0
  183.9420  178.6040  142.7960 C   0  0  0  0  0  0  0  0  0  0  0  0
  188.0490  177.4060  144.6300 C   0  0  1  0  0  3  0  0  0  0  0  0
  186.1860  177.9290  143.6940 C   0  0  0  0  0  0  0  0  0  0  0  0
  184.9840  178.7990  145.7820 C   0  0  0  0  0  3  0  0  0  0  0  0
  189.0320  177.5330  147.2270 C   0  0  0  0  0  3  0  0  0  0  0  0
  186.0550  178.2590  145.1050 C   0  0  0  0  0  0  0  0  0  0  0  0
  183.1630  178.6690  141.6350 O   0  0  0  0  0  0  0  0  0  0  0  0
  181.7490  178.8200  141.6470 C   0  0  0  0  0  1  0  0  0  0  0  0
  190.1980  176.3920  143.7840 C   0  0  0  0  0  2  0  0  0  0  0  0
  190.8180  177.4630  143.0410 N   0  0  0  0  0  0  0  0  0  0  0  0
  190.6630  177.6130  141.7710 C   0  0  0  0  0  3  0  0  0  0  0  0
  190.6370  177.1570  138.2680 C   0  0  0  0  0  0  0  0  0  0  0  0
  190.1060  177.7210  137.2770 O   0  0  0  0  0  0  0  0  0  0  0  0
  188.7690  177.3860  140.3830 C   0  0  0  0  0  2  0  0  0  0  0  0
  189.8230  176.6910  140.9400 C   0  0  1  0  0  3  0  0  0  0  0  0
  189.9390  177.0890  139.5070 N   0  0  0  0  0  0  0  0  0  0  0  0
  191.9840  176.5360  138.1370 C   0  0  0  0  0  2  0  0  0  0  0  0
  191.8410  175.0690  137.7860 C   0  0  0  0  0  1  0  0  0  0  0  0
  1 13  1  0  0  0  0
  2  6  1  0  0  0  0
  3  1  2  0  0  0  0
  4 11  2  0  0  0  0
  5  9  1  0  0  0  0
  5 11  1  0  0  0  0
  6 12  2  0  0  0  0
  7 13  2  0  0  0  0
  8  7  1  0  0  0  0
  9  2  2  0  0  0  0
 10  4  1  1  0  0  0
 10  3  1  0  0  0  0
 10  8  1  0  0  0  0
 11 14  1  0  0  0  0
 14  8  2  0  0  0  0
 14 12  1  0  0  0  0
 15 16  1  0  0  0  0
 15  9  1  0  0  0  0
 17  3  1  0  0  0  0
 18 17  1  0  0  0  0
 19 18  2  0  0  0  0
 20 24  1  0  0  0  0
 21 20  2  0  0  0  0
 22 23  1  0  0  0  0
 23 19  1  1  0  0  0
 24 22  1  0  0  0  0
 24 23  1  0  0  0  0
 25 20  1  0  0  0  0
 26 25  1  0  0  0  0
M  END
>  <MODEL>
9

>  <REMARK>
 VINA RESULT:      -8.5      2.662      5.200
  Name = 
  5 active torsions:
  status: ('A' for Active; 'I' for Inactive)
    1  A    between atoms: C_2  and  C_6
    2  A    between atoms: C_4  and  C_23
    3  A    between atoms: N_11  and  C_23
    4  A    between atoms: C_12  and  C_20
    5  A    between atoms: C_16  and  O_19
                            x       y       z     vdW  Elec       q    Type
                         _______ _______ _______ _____ _____    ______ ____

>  <TORSDO>
F 5

$$$$
