=
 OpenBabel10232410443D

 56 60  0  0  1  0  0  0  0  0999 V2000
  184.1430  178.3210  142.5040 N   0  0  0  0  0  2  0  0  0  0  0  0
  183.8860  178.7400  143.8450 C   0  0  0  0  0  0  0  0  0  0  0  0
  182.7470  178.5720  144.3590 O   0  0  0  0  0  0  0  0  0  0  0  0
  184.8850  180.8220  144.7730 C   0  0  0  0  0  1  0  0  0  0  0  0
  185.0070  179.3100  144.6520 C   0  0  1  0  0  3  0  0  0  0  0  0
  185.0430  178.6670  146.0260 C   0  0  0  0  0  2  0  0  0  0  0  0
  189.3150  178.2470  146.7110 O   0  0  0  0  0  0  0  0  0  0  0  0
  186.4410  178.3300  146.4050 C   0  0  0  0  0  0  0  0  0  0  0  0
  186.7540  178.2660  147.6220 O   0  0  0  0  0  0  0  0  0  0  0  0
  187.4000  178.0430  145.3850 N   0  0  0  0  0  2  0  0  0  0  0  0
  188.8100  177.9390  145.5960 C   0  0  0  0  0  0  0  0  0  0  0  0
  190.4040  179.8260  144.2830 O   0  0  0  0  0  0  0  0  0  0  0  0
  191.3320  174.6640  143.0900 F   0  0  0  0  0  0  0  0  0  0  0  0
  192.8830  176.8500  141.8340 O   0  0  0  0  0  1  0  0  0  0  0  0
  191.6380  176.9850  142.4450 C   0  0  1  0  0  0  0  0  0  0  0  0
  190.5510  178.6320  143.9130 C   0  0  0  0  0  0  0  0  0  0  0  0
  191.2360  176.3690  145.9030 O   0  0  0  0  0  1  0  0  0  0  0  0
  191.5350  175.9420  143.5800 C   0  0  1  0  0  3  0  0  0  0  0  0
  189.6860  177.5270  144.4440 C   0  0  1  0  0  3  0  0  0  0  0  0
  191.5240  178.3130  142.9700 O   0  0  0  0  0  0  0  0  0  0  0  0
  190.5290  176.2600  144.7040 C   0  0  2  0  0  3  0  0  0  0  0  0
  190.5430  176.7460  141.4050 C   0  0  0  0  0  2  0  0  0  0  0  0
  190.2240  177.9380  140.7510 O   0  0  0  0  0  0  0  0  0  0  0  0
  190.4240  176.8990  136.8610 O   0  0  0  0  0  0  0  0  0  0  0  0
  189.2870  178.3000  138.5310 C   0  0  2  0  0  3  0  0  0  0  0  0
  190.5380  176.1610  139.1530 C   0  0  0  0  0  2  0  0  0  0  0  0
  187.9040  178.0000  139.0960 C   0  0  0  0  0  1  0  0  0  0  0  0
  189.3480  177.7900  137.0800 C   0  0  0  0  0  2  0  0  0  0  0  0
  190.2050  175.7950  137.7010 C   0  0  0  0  0  2  0  0  0  0  0  0
  190.3990  177.6690  139.3910 C   0  0  2  0  0  3  0  0  0  0  0  0
  183.1330  177.6830  141.6720 C   0  0  0  0  0  2  0  0  0  0  0  0
  183.3700  178.0050  140.2090 C   0  0  0  0  0  2  0  0  0  0  0  0
  182.3130  177.5150  139.4370 O   0  0  0  0  0  0  0  0  0  0  0  0
  184.5010  174.5000  134.3470 C   0  0  0  0  0  2  0  0  0  0  0  0
  180.1410  177.7390  135.2420 C   0  0  0  0  0  2  0  0  0  0  0  0
  181.4580  178.4700  135.4460 C   0  0  0  0  0  2  0  0  0  0  0  0
  184.4330  176.0790  136.5550 C   0  0  1  0  0  3  0  0  0  0  0  0
  182.2420  173.8330  135.1490 N   0  0  0  0  0  2  0  0  0  0  0  0
  183.6620  173.9290  135.4940 C   0  0  2  0  0  3  0  0  0  0  0  0
  180.6360  181.6840  137.2940 C   0  0  0  0  0  3  0  0  0  0  0  0
  181.1620  181.4300  138.5610 C   0  0  0  0  0  3  0  0  0  0  0  0
  183.9060  174.6670  136.8190 C   0  0  0  0  0  2  0  0  0  0  0  0
  181.8750  179.2240  137.8310 C   0  0  0  0  0  0  0  0  0  0  0  0
  184.7960  176.7730  137.8570 C   0  0  0  0  0  2  0  0  0  0  0  0
  182.5880  177.9370  138.1300 C   0  0  1  0  0  3  0  0  0  0  0  0
  181.7830  180.2090  138.8250 C   0  0  0  0  0  3  0  0  0  0  0  0
  181.6420  175.1600  135.0230 C   0  0  0  0  0  2  0  0  0  0  0  0
  181.3490  179.4850  136.5450 C   0  0  0  0  0  0  0  0  0  0  0  0
  180.7290  180.7230  136.2880 C   0  0  0  0  0  0  0  0  0  0  0  0
  184.0920  178.1190  137.9470 C   0  0  0  0  0  2  0  0  0  0  0  0
  179.9820  176.6780  136.2240 N   0  0  0  0  0  2  0  0  0  0  0  0
  180.4650  174.5550  137.0290 O   0  0  0  0  0  0  0  0  0  0  0  0
  180.1990  181.0030  135.0300 O   0  0  0  0  0  1  0  0  0  0  0  0
  185.6200  176.0780  135.5750 C   0  0  0  0  0  2  0  0  0  0  0  0
  185.7630  174.8750  134.8410 O   0  0  0  0  0  0  0  0  0  0  0  0
  180.6840  175.4340  136.1510 C   0  0  0  0  0  0  0  0  0  0  0  0
  1  2  1  0  0  0  0
  2  3  2  0  0  0  0
  2  5  1  0  0  0  0
  5  4  1  1  0  0  0
  5  6  1  0  0  0  0
  6  8  1  0  0  0  0
  8  9  2  0  0  0  0
 10 11  1  0  0  0  0
 10  8  1  0  0  0  0
 11  7  2  0  0  0  0
 15 14  1  6  0  0  0
 15 20  1  0  0  0  0
 15 18  1  0  0  0  0
 16 12  2  0  0  0  0
 16 19  1  0  0  0  0
 18 13  1  6  0  0  0
 18 21  1  0  0  0  0
 19 21  1  0  0  0  0
 19 11  1  1  0  0  0
 20 16  1  0  0  0  0
 21 17  1  1  0  0  0
 22 15  1  0  0  0  0
 23 22  1  0  0  0  0
 24 28  1  0  0  0  0
 24 29  1  0  0  0  0
 25 27  1  1  0  0  0
 25 30  1  0  0  0  0
 26 30  1  0  0  0  0
 28 25  1  0  0  0  0
 29 26  1  0  0  0  0
 30 23  1  1  0  0  0
 31  1  1  0  0  0  0
 32 31  1  0  0  0  0
 33 32  1  0  0  0  0
 34 55  1  0  0  0  0
 35 36  1  0  0  0  0
 35 51  1  0  0  0  0
 36 48  1  0  0  0  0
 37 54  1  6  0  0  0
 37 42  1  0  0  0  0
 37 44  1  0  0  0  0
 38 39  1  0  0  0  0
 39 34  1  6  0  0  0
 39 42  1  0  0  0  0
 40 41  1  0  0  0  0
 41 46  2  0  0  0  0
 43 45  1  0  0  0  0
 43 46  1  0  0  0  0
 44 50  1  0  0  0  0
 45 33  1  1  0  0  0
 47 38  1  0  0  0  0
 47 56  1  0  0  0  0
 48 43  2  0  0  0  0
 49 48  1  0  0  0  0
 49 40  2  0  0  0  0
 50 45  1  0  0  0  0
 53 49  1  0  0  0  0
 55 54  1  0  0  0  0
 56 51  1  0  0  0  0
 56 52  2  0  0  0  0
M  END
>  <MODEL>
1

>  <REMARK>
 VINA RESULT:      -6.8      0.000      0.000
  Name = 
  11 active torsions:
  status: ('A' for Active; 'I' for Inactive)
    1  A    between atoms: N_1  and  C_24
    2  A    between atoms: C_8  and  C_30
    3  A    between atoms: C_10  and  C_35
    4  A    between atoms: C_20  and  C_49
    5  A    between atoms: C_24  and  C_51
    6  A    between atoms: C_25  and  O_39
    7  A    between atoms: C_30  and  C_35
    8  A    between atoms: O_39  and  C_51
    9  A    between atoms: C_40  and  C_50
   10  A    between atoms: C_46  and  O_54
   11  A    between atoms: C_49  and  O_54
                            x       y       z     vdW  Elec       q    Type
                         _______ _______ _______ _____ _____    ______ ____

>  <TORSDO>
F 11

$$$$
=
 OpenBabel10232410443D

 56 60  0  0  1  0  0  0  0  0999 V2000
  187.4430  175.8650  136.6300 N   0  0  0  0  0  2  0  0  0  0  0  0
  187.9440  174.7310  135.9210 C   0  0  0  0  0  0  0  0  0  0  0  0
  187.9170  174.7030  134.6610 O   0  0  0  0  0  0  0  0  0  0  0  0
  187.8430  172.2990  136.4400 C   0  0  0  0  0  1  0  0  0  0  0  0
  188.5660  173.6130  136.6930 C   0  0  1  0  0  3  0  0  0  0  0  0
  190.0370  173.4870  136.3390 C   0  0  0  0  0  2  0  0  0  0  0  0
  192.3970  176.3990  138.5400 O   0  0  0  0  0  0  0  0  0  0  0  0
  190.8040  174.6330  136.8960 C   0  0  0  0  0  0  0  0  0  0  0  0
  191.7430  175.1340  136.2260 O   0  0  0  0  0  0  0  0  0  0  0  0
  190.4390  175.1770  138.1670 N   0  0  0  0  0  2  0  0  0  0  0  0
  191.2280  176.1070  138.9140 C   0  0  0  0  0  0  0  0  0  0  0  0
  192.9020  177.3750  140.7620 O   0  0  0  0  0  0  0  0  0  0  0  0
  187.6090  177.8890  141.5780 F   0  0  0  0  0  0  0  0  0  0  0  0
  189.5880  179.1350  143.3930 O   0  0  0  0  0  1  0  0  0  0  0  0
  189.8390  178.0770  142.5230 C   0  0  1  0  0  0  0  0  0  0  0  0
  191.6710  177.4050  141.0250 C   0  0  0  0  0  0  0  0  0  0  0  0
  189.5900  178.5050  139.0230 O   0  0  0  0  0  1  0  0  0  0  0  0
  188.9200  178.2290  141.2910 C   0  0  1  0  0  3  0  0  0  0  0  0
  190.6640  176.6720  140.1890 C   0  0  1  0  0  3  0  0  0  0  0  0
  191.2160  178.1170  142.1320 O   0  0  0  0  0  0  0  0  0  0  0  0
  189.3930  177.5280  140.0020 C   0  0  2  0  0  3  0  0  0  0  0  0
  189.5460  176.7590  143.2430 C   0  0  0  0  0  2  0  0  0  0  0  0
  189.7460  176.9000  144.6180 O   0  0  0  0  0  0  0  0  0  0  0  0
  186.4100  178.6010  146.1130 O   0  0  0  0  0  0  0  0  0  0  0  0
  188.7140  177.8870  146.5930 C   0  0  2  0  0  3  0  0  0  0  0  0
  187.3360  176.8960  144.6820 C   0  0  0  0  0  2  0  0  0  0  0  0
  189.0710  176.6280  147.3730 C   0  0  0  0  0  1  0  0  0  0  0  0
  187.3800  178.4390  147.1290 C   0  0  0  0  0  2  0  0  0  0  0  0
  186.1700  177.3220  145.5830 C   0  0  0  0  0  2  0  0  0  0  0  0
  188.6330  177.6090  145.0780 C   0  0  2  0  0  3  0  0  0  0  0  0
  186.8930  177.0340  135.9570 C   0  0  0  0  0  2  0  0  0  0  0  0
  185.7030  177.5750  136.7240 C   0  0  0  0  0  2  0  0  0  0  0  0
  184.5250  177.3220  136.0140 O   0  0  0  0  0  0  0  0  0  0  0  0
  180.7300  179.4750  140.5690 C   0  0  0  0  0  2  0  0  0  0  0  0
  179.9910  176.0190  136.3500 C   0  0  0  0  0  2  0  0  0  0  0  0
  181.0000  175.4940  137.3590 C   0  0  0  0  0  2  0  0  0  0  0  0
  182.8880  178.3750  139.3420 C   0  0  1  0  0  3  0  0  0  0  0  0
  180.0890  180.0350  138.2300 N   0  0  0  0  0  2  0  0  0  0  0  0
  181.1210  180.1690  139.2610 C   0  0  2  0  0  3  0  0  0  0  0  0
  182.8510  172.6470  135.6590 C   0  0  0  0  0  3  0  0  0  0  0  0
  184.1110  173.2070  135.4490 C   0  0  0  0  0  3  0  0  0  0  0  0
  182.5140  179.7440  138.7700 C   0  0  0  0  0  2  0  0  0  0  0  0
  183.3630  175.2870  136.4610 C   0  0  0  0  0  0  0  0  0  0  0  0
  184.3120  178.0030  138.9640 C   0  0  0  0  0  2  0  0  0  0  0  0
  183.6790  176.6790  136.9260 C   0  0  1  0  0  3  0  0  0  0  0  0
  184.3660  174.5180  135.8530 C   0  0  0  0  0  3  0  0  0  0  0  0
  179.9830  178.6510  137.7700 C   0  0  0  0  0  2  0  0  0  0  0  0
  182.0890  174.7150  136.6820 C   0  0  0  0  0  0  0  0  0  0  0  0
  181.8430  173.3900  136.2730 C   0  0  0  0  0  0  0  0  0  0  0  0
  184.3360  176.6320  138.3040 C   0  0  0  0  0  2  0  0  0  0  0  0
  180.4810  177.2310  135.7120 N   0  0  0  0  0  2  0  0  0  0  0  0
  180.9070  179.5130  135.7260 O   0  0  0  0  0  0  0  0  0  0  0  0
  180.5950  172.8060  136.4750 O   0  0  0  0  0  1  0  0  0  0  0  0
  182.6810  178.3110  140.8660 C   0  0  0  0  0  2  0  0  0  0  0  0
  181.8700  179.3500  141.3840 O   0  0  0  0  0  0  0  0  0  0  0  0
  180.4920  178.5050  136.3620 C   0  0  0  0  0  0  0  0  0  0  0  0
  2  1  1  0  0  0  0
  2  5  1  0  0  0  0
  3  2  2  0  0  0  0
  5  4  1  6  0  0  0
  6  5  1  0  0  0  0
  6  8  1  0  0  0  0
  7 11  2  0  0  0  0
  8 10  1  0  0  0  0
  9  8  2  0  0  0  0
 10 11  1  0  0  0  0
 12 16  2  0  0  0  0
 15 22  1  0  0  0  0
 15 14  1  1  0  0  0
 16 20  1  0  0  0  0
 18 13  1  1  0  0  0
 18 15  1  0  0  0  0
 19 11  1  6  0  0  0
 19 16  1  0  0  0  0
 20 15  1  0  0  0  0
 21 17  1  6  0  0  0
 21 19  1  0  0  0  0
 21 18  1  0  0  0  0
 22 23  1  0  0  0  0
 24 28  1  0  0  0  0
 25 28  1  0  0  0  0
 25 27  1  1  0  0  0
 26 30  1  0  0  0  0
 26 29  1  0  0  0  0
 29 24  1  0  0  0  0
 30 23  1  1  0  0  0
 30 25  1  0  0  0  0
 31  1  1  0  0  0  0
 31 32  1  0  0  0  0
 33 32  1  0  0  0  0
 34 55  1  0  0  0  0
 35 36  1  0  0  0  0
 37 42  1  1  0  0  0
 37 54  1  0  0  0  0
 38 39  1  0  0  0  0
 39 42  1  6  0  0  0
 39 34  1  0  0  0  0
 40 49  1  0  0  0  0
 41 40  2  0  0  0  0
 41 46  1  0  0  0  0
 43 48  1  0  0  0  0
 43 45  1  0  0  0  0
 44 37  1  0  0  0  0
 45 33  1  6  0  0  0
 45 50  1  0  0  0  0
 46 43  2  0  0  0  0
 47 38  1  0  0  0  0
 48 36  1  0  0  0  0
 49 53  1  0  0  0  0
 49 48  2  0  0  0  0
 50 44  1  0  0  0  0
 51 35  1  0  0  0  0
 51 56  1  0  0  0  0
 52 56  2  0  0  0  0
 54 55  1  0  0  0  0
 56 47  1  0  0  0  0
M  END
>  <MODEL>
2

>  <REMARK>
 VINA RESULT:      -6.8      2.362      7.097
  Name = 
  11 active torsions:
  status: ('A' for Active; 'I' for Inactive)
    1  A    between atoms: N_1  and  C_24
    2  A    between atoms: C_8  and  C_30
    3  A    between atoms: C_10  and  C_35
    4  A    between atoms: C_20  and  C_49
    5  A    between atoms: C_24  and  C_51
    6  A    between atoms: C_25  and  O_39
    7  A    between atoms: C_30  and  C_35
    8  A    between atoms: O_39  and  C_51
    9  A    between atoms: C_40  and  C_50
   10  A    between atoms: C_46  and  O_54
   11  A    between atoms: C_49  and  O_54
                            x       y       z     vdW  Elec       q    Type
                         _______ _______ _______ _____ _____    ______ ____

>  <TORSDO>
F 11

$$$$
=
 OpenBabel10232410443D

 56 60  0  0  1  0  0  0  0  0999 V2000
  187.1180  178.5210  141.4840 N   0  0  0  0  0  2  0  0  0  0  0  0
  187.9290  177.6120  142.2290 C   0  0  0  0  0  0  0  0  0  0  0  0
  187.4340  176.9450  143.1770 O   0  0  0  0  0  0  0  0  0  0  0  0
  189.9820  176.2460  142.5690 C   0  0  0  0  0  1  0  0  0  0  0  0
  189.3520  177.4110  141.8200 C   0  0  1  0  0  3  0  0  0  0  0  0
  189.4380  177.1880  140.3210 C   0  0  0  0  0  2  0  0  0  0  0  0
  193.3280  176.7590  138.4280 O   0  0  0  0  0  0  0  0  0  0  0  0
  190.8540  177.0030  139.9050 C   0  0  0  0  0  0  0  0  0  0  0  0
  191.7490  177.7210  140.4200 O   0  0  0  0  0  0  0  0  0  0  0  0
  191.1850  175.9860  138.9560 N   0  0  0  0  0  2  0  0  0  0  0  0
  192.4510  175.8610  138.3030 C   0  0  0  0  0  0  0  0  0  0  0  0
  190.3390  174.1570  137.6210 O   0  0  0  0  0  0  0  0  0  0  0  0
  194.9230  173.5040  134.8820 F   0  0  0  0  0  0  0  0  0  0  0  0
  192.5440  171.8250  134.3490 O   0  0  0  0  0  1  0  0  0  0  0  0
  192.7800  172.5510  135.5140 C   0  0  1  0  0  0  0  0  0  0  0  0
  191.4390  173.9210  137.0560 C   0  0  0  0  0  0  0  0  0  0  0  0
  192.9570  176.0810  135.4500 O   0  0  0  0  0  1  0  0  0  0  0  0
  193.6000  173.8080  135.1490 C   0  0  1  0  0  3  0  0  0  0  0  0
  192.6870  174.6760  137.4060 C   0  0  1  0  0  3  0  0  0  0  0  0
  191.5220  172.9200  136.0910 O   0  0  0  0  0  0  0  0  0  0  0  0
  193.5010  174.9910  136.1330 C   0  0  2  0  0  3  0  0  0  0  0  0
  193.5610  171.6770  136.4970 C   0  0  0  0  0  2  0  0  0  0  0  0
  193.7740  170.4070  135.9560 O   0  0  0  0  0  0  0  0  0  0  0  0
  197.7750  169.9340  136.1190 O   0  0  0  0  0  0  0  0  0  0  0  0
  195.6010  168.7950  135.9460 C   0  0  2  0  0  3  0  0  0  0  0  0
  195.8520  171.1390  136.9340 C   0  0  0  0  0  2  0  0  0  0  0  0
  194.9270  168.0660  137.1010 C   0  0  0  0  0  1  0  0  0  0  0  0
  197.1280  168.6760  136.1110 C   0  0  0  0  0  2  0  0  0  0  0  0
  197.2700  170.6340  137.2280 C   0  0  0  0  0  2  0  0  0  0  0  0
  195.1620  170.2710  135.8750 C   0  0  2  0  0  3  0  0  0  0  0  0
  185.7020  178.7210  141.7610 C   0  0  0  0  0  2  0  0  0  0  0  0
  184.9400  178.9660  140.4740 C   0  0  0  0  0  2  0  0  0  0  0  0
  184.5580  177.7470  139.9080 O   0  0  0  0  0  0  0  0  0  0  0  0
  187.2850  175.5160  134.6770 C   0  0  0  0  0  2  0  0  0  0  0  0
  182.0460  176.0700  136.2690 C   0  0  0  0  0  2  0  0  0  0  0  0
  182.7560  177.4070  136.1380 C   0  0  0  0  0  2  0  0  0  0  0  0
  186.6780  177.1740  136.7400 C   0  0  1  0  0  3  0  0  0  0  0  0
  185.9090  173.9080  135.9850 N   0  0  0  0  0  2  0  0  0  0  0  0
  187.0740  174.7950  136.0110 C   0  0  2  0  0  3  0  0  0  0  0  0
  180.5780  179.9680  137.9050 C   0  0  0  0  0  3  0  0  0  0  0  0
  181.3320  180.2500  139.0440 C   0  0  0  0  0  3  0  0  0  0  0  0
  187.0590  175.7660  137.2020 C   0  0  0  0  0  2  0  0  0  0  0  0
  183.0260  178.6640  138.3250 C   0  0  0  0  0  0  0  0  0  0  0  0
  186.7820  178.1650  137.8860 C   0  0  0  0  0  2  0  0  0  0  0  0
  184.3640  178.0180  138.5480 C   0  0  1  0  0  3  0  0  0  0  0  0
  182.5520  179.6060  139.2490 C   0  0  0  0  0  3  0  0  0  0  0  0
  184.6670  174.6750  135.9040 C   0  0  0  0  0  2  0  0  0  0  0  0
  182.2660  178.3840  137.1660 C   0  0  0  0  0  0  0  0  0  0  0  0
  181.0380  179.0430  136.9670 C   0  0  0  0  0  0  0  0  0  0  0  0
  185.4760  178.9310  138.0350 C   0  0  0  0  0  2  0  0  0  0  0  0
  182.6390  175.2710  137.3300 N   0  0  0  0  0  2  0  0  0  0  0  0
  184.3190  173.8960  138.1510 O   0  0  0  0  0  0  0  0  0  0  0  0
  180.2670  178.7810  135.8370 O   0  0  0  0  0  1  0  0  0  0  0  0
  187.5140  177.6300  135.5300 C   0  0  0  0  0  2  0  0  0  0  0  0
  188.1890  176.5780  134.8640 O   0  0  0  0  0  0  0  0  0  0  0  0
  183.8900  174.5930  137.1890 C   0  0  0  0  0  0  0  0  0  0  0  0
  1 31  1  0  0  0  0
  1  2  1  0  0  0  0
  2  3  2  0  0  0  0
  5  2  1  0  0  0  0
  5  4  1  1  0  0  0
  6  5  1  0  0  0  0
  8  6  1  0  0  0  0
  8  9  2  0  0  0  0
 10  8  1  0  0  0  0
 11  7  2  0  0  0  0
 11 10  1  0  0  0  0
 15 14  1  6  0  0  0
 15 20  1  0  0  0  0
 15 22  1  0  0  0  0
 16 19  1  0  0  0  0
 16 12  2  0  0  0  0
 18 13  1  1  0  0  0
 18 15  1  0  0  0  0
 18 21  1  0  0  0  0
 19 11  1  6  0  0  0
 20 16  1  0  0  0  0
 21 17  1  6  0  0  0
 21 19  1  0  0  0  0
 23 22  1  0  0  0  0
 24 29  1  0  0  0  0
 25 28  1  0  0  0  0
 25 27  1  1  0  0  0
 26 29  1  0  0  0  0
 28 24  1  0  0  0  0
 30 25  1  0  0  0  0
 30 23  1  1  0  0  0
 30 26  1  0  0  0  0
 32 31  1  0  0  0  0
 33 32  1  0  0  0  0
 34 55  1  0  0  0  0
 35 51  1  0  0  0  0
 36 35  1  0  0  0  0
 36 48  1  0  0  0  0
 37 54  1  6  0  0  0
 37 42  1  0  0  0  0
 37 44  1  0  0  0  0
 38 39  1  0  0  0  0
 39 34  1  6  0  0  0
 39 42  1  0  0  0  0
 40 41  1  0  0  0  0
 41 46  2  0  0  0  0
 43 45  1  0  0  0  0
 43 46  1  0  0  0  0
 44 50  1  0  0  0  0
 45 33  1  1  0  0  0
 47 38  1  0  0  0  0
 47 56  1  0  0  0  0
 48 43  2  0  0  0  0
 49 48  1  0  0  0  0
 49 40  2  0  0  0  0
 50 45  1  0  0  0  0
 53 49  1  0  0  0  0
 55 54  1  0  0  0  0
 56 51  1  0  0  0  0
 56 52  2  0  0  0  0
M  END
>  <MODEL>
3

>  <REMARK>
 VINA RESULT:      -6.7      4.410      6.596
  Name = 
  11 active torsions:
  status: ('A' for Active; 'I' for Inactive)
    1  A    between atoms: N_1  and  C_24
    2  A    between atoms: C_8  and  C_30
    3  A    between atoms: C_10  and  C_35
    4  A    between atoms: C_20  and  C_49
    5  A    between atoms: C_24  and  C_51
    6  A    between atoms: C_25  and  O_39
    7  A    between atoms: C_30  and  C_35
    8  A    between atoms: O_39  and  C_51
    9  A    between atoms: C_40  and  C_50
   10  A    between atoms: C_46  and  O_54
   11  A    between atoms: C_49  and  O_54
                            x       y       z     vdW  Elec       q    Type
                         _______ _______ _______ _____ _____    ______ ____

>  <TORSDO>
F 11

$$$$
=
 OpenBabel10232410443D

 56 60  0  0  1  0  0  0  0  0999 V2000
  186.6230  178.5410  142.2020 N   0  0  0  0  0  2  0  0  0  0  0  0
  187.1910  177.5250  143.0300 C   0  0  0  0  0  0  0  0  0  0  0  0
  186.4800  176.5730  143.4510 O   0  0  0  0  0  0  0  0  0  0  0  0
  188.9100  177.7800  144.8110 C   0  0  0  0  0  1  0  0  0  0  0  0
  188.6550  177.5690  143.3270 C   0  0  1  0  0  3  0  0  0  0  0  0
  189.3240  176.2930  142.8480 C   0  0  0  0  0  2  0  0  0  0  0  0
  192.5500  177.5650  140.2270 O   0  0  0  0  0  0  0  0  0  0  0  0
  190.5770  176.6100  142.1120 C   0  0  0  0  0  0  0  0  0  0  0  0
  191.5180  177.1900  142.7130 O   0  0  0  0  0  0  0  0  0  0  0  0
  190.7130  176.2150  140.7450 N   0  0  0  0  0  2  0  0  0  0  0  0
  191.7510  176.6570  139.8670 C   0  0  0  0  0  0  0  0  0  0  0  0
  189.8880  177.4000  137.9160 O   0  0  0  0  0  0  0  0  0  0  0  0
  194.1430  174.5820  136.2150 F   0  0  0  0  0  0  0  0  0  0  0  0
  192.0320  175.4850  134.3470 O   0  0  0  0  0  1  0  0  0  0  0  0
  191.8950  175.3610  135.7270 C   0  0  1  0  0  0  0  0  0  0  0  0
  190.8180  176.6460  137.5280 C   0  0  0  0  0  0  0  0  0  0  0  0
  193.7950  177.3700  137.9290 O   0  0  0  0  0  1  0  0  0  0  0  0
  193.2660  175.6400  136.3810 C   0  0  1  0  0  3  0  0  0  0  0  0
  191.8240  176.0730  138.4820 C   0  0  1  0  0  3  0  0  0  0  0  0
  190.9190  176.3060  136.1810 O   0  0  0  0  0  0  0  0  0  0  0  0
  193.2350  176.0930  137.8550 C   0  0  2  0  0  3  0  0  0  0  0  0
  191.4300  173.9410  136.0570 C   0  0  0  0  0  2  0  0  0  0  0  0
  191.4810  173.1360  134.9170 O   0  0  0  0  0  0  0  0  0  0  0  0
  192.3580  169.3280  135.9120 O   0  0  0  0  0  0  0  0  0  0  0  0
  193.2500  171.5950  135.5750 C   0  0  2  0  0  3  0  0  0  0  0  0
  191.0770  170.7980  134.4930 C   0  0  0  0  0  2  0  0  0  0  0  0
  194.0430  172.0250  134.3480 C   0  0  0  0  0  1  0  0  0  0  0  0
  193.5360  170.1080  135.8520 C   0  0  0  0  0  2  0  0  0  0  0  0
  191.7490  169.4280  134.6500 C   0  0  0  0  0  2  0  0  0  0  0  0
  191.7410  171.8470  135.3910 C   0  0  2  0  0  3  0  0  0  0  0  0
  185.2240  178.5350  141.7970 C   0  0  0  0  0  2  0  0  0  0  0  0
  185.1100  178.6140  140.2870 C   0  0  0  0  0  2  0  0  0  0  0  0
  184.0100  177.8670  139.8540 O   0  0  0  0  0  0  0  0  0  0  0  0
  187.1710  175.7330  134.8320 C   0  0  0  0  0  2  0  0  0  0  0  0
  181.8170  176.1080  136.0510 C   0  0  0  0  0  2  0  0  0  0  0  0
  182.4890  177.4690  135.9680 C   0  0  0  0  0  2  0  0  0  0  0  0
  186.3650  177.3680  136.8440 C   0  0  1  0  0  3  0  0  0  0  0  0
  185.7620  174.0780  136.0430 N   0  0  0  0  0  2  0  0  0  0  0  0
  186.8920  175.0040  136.1490 C   0  0  2  0  0  3  0  0  0  0  0  0
  180.1080  179.9540  137.5730 C   0  0  0  0  0  3  0  0  0  0  0  0
  180.7700  180.2610  138.7610 C   0  0  0  0  0  3  0  0  0  0  0  0
  186.7600  175.9730  137.3340 C   0  0  0  0  0  2  0  0  0  0  0  0
  182.5640  178.7330  138.1650 C   0  0  0  0  0  0  0  0  0  0  0  0
  186.3550  178.3620  137.9930 C   0  0  0  0  0  2  0  0  0  0  0  0
  183.9030  178.1330  138.4840 C   0  0  1  0  0  3  0  0  0  0  0  0
  181.9940  179.6580  139.0520 C   0  0  0  0  0  3  0  0  0  0  0  0
  184.5040  174.8030  135.8740 C   0  0  0  0  0  2  0  0  0  0  0  0
  181.8960  178.4280  136.9570 C   0  0  0  0  0  0  0  0  0  0  0  0
  180.6630  179.0450  136.6710 C   0  0  0  0  0  0  0  0  0  0  0  0
  185.0170  179.0830  138.0480 C   0  0  0  0  0  2  0  0  0  0  0  0
  182.3610  175.3290  137.1520 N   0  0  0  0  0  2  0  0  0  0  0  0
  184.0250  174.0120  138.0920 O   0  0  0  0  0  0  0  0  0  0  0  0
  179.9840  178.7580  135.4900 O   0  0  0  0  0  1  0  0  0  0  0  0
  187.2690  177.8530  135.6950 C   0  0  0  0  0  2  0  0  0  0  0  0
  188.0240  176.8240  135.0790 O   0  0  0  0  0  0  0  0  0  0  0  0
  183.6420  174.6940  137.1020 C   0  0  0  0  0  0  0  0  0  0  0  0
  1  2  1  0  0  0  0
  2  5  1  0  0  0  0
  2  3  2  0  0  0  0
  5  4  1  1  0  0  0
  6  5  1  0  0  0  0
  8  9  2  0  0  0  0
  8  6  1  0  0  0  0
 10  8  1  0  0  0  0
 11  7  2  0  0  0  0
 11 10  1  0  0  0  0
 15 14  1  6  0  0  0
 15 22  1  0  0  0  0
 15 20  1  0  0  0  0
 15 18  1  0  0  0  0
 16 12  2  0  0  0  0
 16 19  1  0  0  0  0
 18 13  1  1  0  0  0
 18 21  1  0  0  0  0
 19 11  1  1  0  0  0
 20 16  1  0  0  0  0
 21 17  1  6  0  0  0
 21 19  1  0  0  0  0
 23 22  1  0  0  0  0
 25 27  1  6  0  0  0
 25 28  1  0  0  0  0
 26 29  1  0  0  0  0
 26 30  1  0  0  0  0
 28 24  1  0  0  0  0
 29 24  1  0  0  0  0
 30 23  1  6  0  0  0
 30 25  1  0  0  0  0
 31  1  1  0  0  0  0
 32 31  1  0  0  0  0
 33 32  1  0  0  0  0
 34 55  1  0  0  0  0
 35 51  1  0  0  0  0
 36 35  1  0  0  0  0
 36 48  1  0  0  0  0
 37 54  1  6  0  0  0
 37 42  1  0  0  0  0
 37 44  1  0  0  0  0
 38 39  1  0  0  0  0
 39 34  1  6  0  0  0
 39 42  1  0  0  0  0
 40 41  1  0  0  0  0
 41 46  2  0  0  0  0
 43 45  1  0  0  0  0
 43 46  1  0  0  0  0
 44 50  1  0  0  0  0
 45 33  1  1  0  0  0
 47 38  1  0  0  0  0
 47 56  1  0  0  0  0
 48 43  2  0  0  0  0
 49 48  1  0  0  0  0
 49 40  2  0  0  0  0
 50 45  1  0  0  0  0
 53 49  1  0  0  0  0
 55 54  1  0  0  0  0
 56 51  1  0  0  0  0
 56 52  2  0  0  0  0
M  END
>  <MODEL>
4

>  <REMARK>
 VINA RESULT:      -6.3      3.305      5.290
  Name = 
  11 active torsions:
  status: ('A' for Active; 'I' for Inactive)
    1  A    between atoms: N_1  and  C_24
    2  A    between atoms: C_8  and  C_30
    3  A    between atoms: C_10  and  C_35
    4  A    between atoms: C_20  and  C_49
    5  A    between atoms: C_24  and  C_51
    6  A    between atoms: C_25  and  O_39
    7  A    between atoms: C_30  and  C_35
    8  A    between atoms: O_39  and  C_51
    9  A    between atoms: C_40  and  C_50
   10  A    between atoms: C_46  and  O_54
   11  A    between atoms: C_49  and  O_54
                            x       y       z     vdW  Elec       q    Type
                         _______ _______ _______ _____ _____    ______ ____

>  <TORSDO>
F 11

$$$$
=
 OpenBabel10232410443D

 56 60  0  0  1  0  0  0  0  0999 V2000
  192.6800  177.1590  140.2500 N   0  0  0  0  0  2  0  0  0  0  0  0
  191.6570  177.4240  141.2100 C   0  0  0  0  0  0  0  0  0  0  0  0
  190.4440  177.4300  140.8660 O   0  0  0  0  0  0  0  0  0  0  0  0
  191.2530  178.7570  143.2730 C   0  0  0  0  0  1  0  0  0  0  0  0
  192.0430  177.6210  142.6400 C   0  0  1  0  0  3  0  0  0  0  0  0
  191.8380  176.3340  143.4190 C   0  0  0  0  0  2  0  0  0  0  0  0
  189.5640  176.7180  147.1040 O   0  0  0  0  0  0  0  0  0  0  0  0
  191.2400  176.6230  144.7500 C   0  0  0  0  0  0  0  0  0  0  0  0
  191.9260  176.4410  145.7890 O   0  0  0  0  0  0  0  0  0  0  0  0
  189.9110  177.1420  144.8310 N   0  0  0  0  0  2  0  0  0  0  0  0
  189.1440  177.2380  146.0330 C   0  0  0  0  0  0  0  0  0  0  0  0
  186.9480  175.9040  144.9250 O   0  0  0  0  0  0  0  0  0  0  0  0
  185.8880  180.4500  147.5970 F   0  0  0  0  0  0  0  0  0  0  0  0
  183.7390  178.8560  146.3320 O   0  0  0  0  0  1  0  0  0  0  0  0
  185.0920  178.7930  146.0100 C   0  0  1  0  0  0  0  0  0  0  0  0
  186.7040  177.0220  145.4480 C   0  0  0  0  0  0  0  0  0  0  0  0
  187.4720  177.6710  148.3700 O   0  0  0  0  0  1  0  0  0  0  0  0
  185.9120  179.1030  147.2810 C   0  0  1  0  0  3  0  0  0  0  0  0
  187.7950  177.9030  145.9800 C   0  0  1  0  0  3  0  0  0  0  0  0
  185.3910  177.4790  145.5250 O   0  0  0  0  0  0  0  0  0  0  0  0
  187.3570  178.5650  147.3040 C   0  0  2  0  0  3  0  0  0  0  0  0
  185.3930  179.8250  144.9210 C   0  0  0  0  0  2  0  0  0  0  0  0
  184.3980  179.8040  143.9410 O   0  0  0  0  0  0  0  0  0  0  0  0
  186.3080  178.8750  140.5140 O   0  0  0  0  0  0  0  0  0  0  0  0
  184.1240  179.2010  141.5960 C   0  0  2  0  0  3  0  0  0  0  0  0
  186.2400  178.6380  142.9130 C   0  0  0  0  0  2  0  0  0  0  0  0
  183.2060  178.0640  142.0250 C   0  0  0  0  0  1  0  0  0  0  0  0
  184.9080  178.7590  140.3470 C   0  0  0  0  0  2  0  0  0  0  0  0
  186.6550  178.0180  141.5720 C   0  0  0  0  0  2  0  0  0  0  0  0
  185.0760  179.6190  142.7340 C   0  0  2  0  0  3  0  0  0  0  0  0
  192.3920  176.8770  138.8500 C   0  0  0  0  0  2  0  0  0  0  0  0
  193.6180  176.3140  138.1590 C   0  0  0  0  0  2  0  0  0  0  0  0
  193.8540  177.0090  136.9700 O   0  0  0  0  0  0  0  0  0  0  0  0
  199.1350  173.8090  135.6860 C   0  0  0  0  0  2  0  0  0  0  0  0
  193.9330  172.2910  136.6490 C   0  0  0  0  0  2  0  0  0  0  0  0
  194.0680  173.1320  135.3890 C   0  0  0  0  0  2  0  0  0  0  0  0
  197.1450  175.6450  135.4950 C   0  0  1  0  0  3  0  0  0  0  0  0
  198.0610  173.3460  137.8830 N   0  0  0  0  0  2  0  0  0  0  0  0
  198.6770  174.3700  137.0350 C   0  0  2  0  0  3  0  0  0  0  0  0
  190.5620  174.2500  134.4530 C   0  0  0  0  0  3  0  0  0  0  0  0
  190.6020  175.6110  134.7580 C   0  0  0  0  0  3  0  0  0  0  0  0
  197.8000  175.6210  136.8780 C   0  0  0  0  0  2  0  0  0  0  0  0
  192.9030  175.3820  135.5060 C   0  0  0  0  0  0  0  0  0  0  0  0
  196.3770  176.9390  135.2840 C   0  0  0  0  0  2  0  0  0  0  0  0
  194.1590  176.0230  136.0230 C   0  0  1  0  0  3  0  0  0  0  0  0
  191.7680  176.1730  135.2760 C   0  0  0  0  0  3  0  0  0  0  0  0
  196.7790  172.9110  137.3320 C   0  0  0  0  0  2  0  0  0  0  0  0
  192.8650  174.0050  135.1890 C   0  0  0  0  0  0  0  0  0  0  0  0
  191.6830  173.4480  134.6620 C   0  0  0  0  0  0  0  0  0  0  0  0
  194.9460  176.6360  134.8670 C   0  0  0  0  0  2  0  0  0  0  0  0
  194.2830  173.0670  137.8280 N   0  0  0  0  0  2  0  0  0  0  0  0
  195.8490  174.0360  139.2410 O   0  0  0  0  0  0  0  0  0  0  0  0
  191.6180  172.0930  134.3460 O   0  0  0  0  0  1  0  0  0  0  0  0
  198.1680  175.4140  134.3680 C   0  0  0  0  0  2  0  0  0  0  0  0
  199.4020  174.8760  134.8090 O   0  0  0  0  0  0  0  0  0  0  0  0
  195.6320  173.3830  138.1830 C   0  0  0  0  0  0  0  0  0  0  0  0
  1  2  1  0  0  0  0
  2  5  1  0  0  0  0
  3  2  2  0  0  0  0
  5  4  1  1  0  0  0
  5  6  1  0  0  0  0
  6  8  1  0  0  0  0
  8 10  1  0  0  0  0
  8  9  2  0  0  0  0
 10 11  1  0  0  0  0
 11  7  2  0  0  0  0
 12 16  2  0  0  0  0
 15 14  1  1  0  0  0
 15 18  1  0  0  0  0
 16 20  1  0  0  0  0
 16 19  1  0  0  0  0
 18 21  1  0  0  0  0
 18 13  1  6  0  0  0
 19 11  1  1  0  0  0
 19 21  1  0  0  0  0
 20 15  1  0  0  0  0
 21 17  1  1  0  0  0
 22 15  1  0  0  0  0
 23 22  1  0  0  0  0
 24 29  1  0  0  0  0
 25 27  1  1  0  0  0
 25 30  1  0  0  0  0
 28 24  1  0  0  0  0
 28 25  1  0  0  0  0
 29 26  1  0  0  0  0
 30 26  1  0  0  0  0
 30 23  1  1  0  0  0
 31  1  1  0  0  0  0
 32 31  1  0  0  0  0
 33 32  1  0  0  0  0
 35 51  1  0  0  0  0
 36 35  1  0  0  0  0
 37 54  1  6  0  0  0
 37 42  1  0  0  0  0
 39 34  1  6  0  0  0
 39 38  1  0  0  0  0
 40 49  2  0  0  0  0
 40 41  1  0  0  0  0
 41 46  2  0  0  0  0
 42 39  1  0  0  0  0
 43 45  1  0  0  0  0
 44 37  1  0  0  0  0
 45 33  1  1  0  0  0
 46 43  1  0  0  0  0
 47 38  1  0  0  0  0
 47 56  1  0  0  0  0
 48 36  1  0  0  0  0
 48 43  2  0  0  0  0
 49 48  1  0  0  0  0
 50 44  1  0  0  0  0
 50 45  1  0  0  0  0
 51 56  1  0  0  0  0
 53 49  1  0  0  0  0
 54 55  1  0  0  0  0
 55 34  1  0  0  0  0
 56 52  2  0  0  0  0
M  END
>  <MODEL>
5

>  <REMARK>
 VINA RESULT:      -6.2      4.968     10.241
  Name = 
  11 active torsions:
  status: ('A' for Active; 'I' for Inactive)
    1  A    between atoms: N_1  and  C_24
    2  A    between atoms: C_8  and  C_30
    3  A    between atoms: C_10  and  C_35
    4  A    between atoms: C_20  and  C_49
    5  A    between atoms: C_24  and  C_51
    6  A    between atoms: C_25  and  O_39
    7  A    between atoms: C_30  and  C_35
    8  A    between atoms: O_39  and  C_51
    9  A    between atoms: C_40  and  C_50
   10  A    between atoms: C_46  and  O_54
   11  A    between atoms: C_49  and  O_54
                            x       y       z     vdW  Elec       q    Type
                         _______ _______ _______ _____ _____    ______ ____

>  <TORSDO>
F 11

$$$$
=
 OpenBabel10232410443D

 56 60  0  0  1  0  0  0  0  0999 V2000
  192.2320  176.8410  138.5590 N   0  0  0  0  0  2  0  0  0  0  0  0
  192.4290  177.0430  139.9600 C   0  0  0  0  0  0  0  0  0  0  0  0
  193.5890  177.0180  140.4510 O   0  0  0  0  0  0  0  0  0  0  0  0
  189.9660  177.3980  139.9960 C   0  0  0  0  0  1  0  0  0  0  0  0
  191.2460  177.3560  140.8170 C   0  0  1  0  0  3  0  0  0  0  0  0
  191.1260  176.3370  141.9360 C   0  0  0  0  0  2  0  0  0  0  0  0
  190.2080  177.7560  145.9400 O   0  0  0  0  0  0  0  0  0  0  0  0
  190.9490  177.0220  143.2440 C   0  0  0  0  0  0  0  0  0  0  0  0
  191.9630  177.3730  143.9010 O   0  0  0  0  0  0  0  0  0  0  0  0
  189.6320  177.3090  143.7190 N   0  0  0  0  0  2  0  0  0  0  0  0
  189.3190  177.7420  145.0450 C   0  0  0  0  0  0  0  0  0  0  0  0
  187.2060  176.1450  144.1440 O   0  0  0  0  0  0  0  0  0  0  0  0
  185.9710  179.9350  147.7570 F   0  0  0  0  0  0  0  0  0  0  0  0
  183.9140  178.1180  146.6490 O   0  0  0  0  0  1  0  0  0  0  0  0
  185.1510  178.3900  146.0710 C   0  0  1  0  0  0  0  0  0  0  0  0
  186.8880  177.0990  144.9010 C   0  0  0  0  0  0  0  0  0  0  0  0
  188.1550  177.4740  147.6940 O   0  0  0  0  0  1  0  0  0  0  0  0
  186.1640  178.6830  147.2000 C   0  0  1  0  0  3  0  0  0  0  0  0
  187.8950  178.1070  145.3700 C   0  0  1  0  0  3  0  0  0  0  0  0
  185.5650  177.2520  145.3060 O   0  0  0  0  0  0  0  0  0  0  0  0
  187.6500  178.4660  146.8510 C   0  0  2  0  0  3  0  0  0  0  0  0
  185.0160  179.6060  145.1530 C   0  0  0  0  0  2  0  0  0  0  0  0
  183.6690  179.9110  144.9440 O   0  0  0  0  0  0  0  0  0  0  0  0
  183.0590  179.0220  141.0590 O   0  0  0  0  0  0  0  0  0  0  0  0
  182.0000  179.3800  143.2500 C   0  0  2  0  0  3  0  0  0  0  0  0
  184.4570  178.7230  143.0000 C   0  0  0  0  0  2  0  0  0  0  0  0
  181.4910  178.2560  144.1440 C   0  0  0  0  0  1  0  0  0  0  0  0
  181.8440  178.9500  141.7800 C   0  0  0  0  0  2  0  0  0  0  0  0
  183.9450  178.1280  141.6820 C   0  0  0  0  0  2  0  0  0  0  0  0
  183.4640  179.7400  143.5720 C   0  0  2  0  0  3  0  0  0  0  0  0
  193.3340  176.6090  137.6350 C   0  0  0  0  0  2  0  0  0  0  0  0
  193.3840  175.1500  137.2260 C   0  0  0  0  0  2  0  0  0  0  0  0
  193.5490  175.0510  135.8410 O   0  0  0  0  0  0  0  0  0  0  0  0
  199.7630  174.4250  136.7200 C   0  0  0  0  0  2  0  0  0  0  0  0
  195.4000  171.4890  138.3420 C   0  0  0  0  0  2  0  0  0  0  0  0
  195.5570  171.5060  136.8300 C   0  0  0  0  0  2  0  0  0  0  0  0
  197.3760  174.7690  135.4730 C   0  0  1  0  0  3  0  0  0  0  0  0
  198.3790  174.7480  138.7620 N   0  0  0  0  0  2  0  0  0  0  0  0
  198.7890  175.3290  137.4810 C   0  0  2  0  0  3  0  0  0  0  0  0
  192.2740  170.2600  135.3850 C   0  0  0  0  0  3  0  0  0  0  0  0
  191.7390  171.4260  134.8370 C   0  0  0  0  0  3  0  0  0  0  0  0
  197.5980  175.7640  136.6140 C   0  0  0  0  0  2  0  0  0  0  0  0
  193.6770  172.6800  135.5980 C   0  0  0  0  0  0  0  0  0  0  0  0
  196.2820  175.2560  134.5380 C   0  0  0  0  0  2  0  0  0  0  0  0
  194.4300  173.9790  135.6530 C   0  0  1  0  0  3  0  0  0  0  0  0
  192.4400  172.6280  134.9380 C   0  0  0  0  0  3  0  0  0  0  0  0
  197.5370  173.5710  138.5590 C   0  0  0  0  0  2  0  0  0  0  0  0
  194.2220  171.4970  136.1460 C   0  0  0  0  0  0  0  0  0  0  0  0
  193.5080  170.2880  136.0340 C   0  0  0  0  0  0  0  0  0  0  0  0
  195.2240  174.1760  134.3640 C   0  0  0  0  0  2  0  0  0  0  0  0
  195.1170  172.8230  138.8470 N   0  0  0  0  0  2  0  0  0  0  0  0
  195.7880  174.9640  139.4400 O   0  0  0  0  0  0  0  0  0  0  0  0
  194.0210  169.1090  136.5700 O   0  0  0  0  0  1  0  0  0  0  0  0
  198.6770  174.4740  134.7030 C   0  0  0  0  0  2  0  0  0  0  0  0
  199.8540  174.8650  135.3870 O   0  0  0  0  0  0  0  0  0  0  0  0
  196.1140  173.8410  138.9630 C   0  0  0  0  0  0  0  0  0  0  0  0
  1  2  1  0  0  0  0
  2  3  2  0  0  0  0
  2  5  1  0  0  0  0
  5  4  1  6  0  0  0
  5  6  1  0  0  0  0
  6  8  1  0  0  0  0
  8 10  1  0  0  0  0
  8  9  2  0  0  0  0
 10 11  1  0  0  0  0
 11  7  2  0  0  0  0
 12 16  2  0  0  0  0
 15 14  1  1  0  0  0
 15 18  1  0  0  0  0
 16 20  1  0  0  0  0
 16 19  1  0  0  0  0
 18 13  1  6  0  0  0
 19 11  1  1  0  0  0
 19 21  1  0  0  0  0
 20 15  1  0  0  0  0
 21 18  1  0  0  0  0
 21 17  1  1  0  0  0
 22 15  1  0  0  0  0
 23 22  1  0  0  0  0
 24 29  1  0  0  0  0
 24 28  1  0  0  0  0
 25 30  1  0  0  0  0
 25 27  1  1  0  0  0
 26 30  1  0  0  0  0
 28 25  1  0  0  0  0
 29 26  1  0  0  0  0
 30 23  1  1  0  0  0
 31  1  1  0  0  0  0
 32 31  1  0  0  0  0
 33 32  1  0  0  0  0
 34 39  1  0  0  0  0
 35 51  1  0  0  0  0
 36 35  1  0  0  0  0
 37 44  1  6  0  0  0
 37 42  1  0  0  0  0
 39 42  1  6  0  0  0
 39 38  1  0  0  0  0
 40 49  1  0  0  0  0
 41 46  1  0  0  0  0
 41 40  2  0  0  0  0
 43 45  1  0  0  0  0
 43 48  1  0  0  0  0
 45 33  1  6  0  0  0
 46 43  2  0  0  0  0
 47 38  1  0  0  0  0
 47 56  1  0  0  0  0
 48 36  1  0  0  0  0
 49 48  2  0  0  0  0
 49 53  1  0  0  0  0
 50 44  1  0  0  0  0
 50 45  1  0  0  0  0
 51 56  1  0  0  0  0
 54 55  1  0  0  0  0
 54 37  1  0  0  0  0
 55 34  1  0  0  0  0
 56 52  2  0  0  0  0
M  END
>  <MODEL>
6

>  <REMARK>
 VINA RESULT:      -6.1      5.385     11.301
  Name = 
  11 active torsions:
  status: ('A' for Active; 'I' for Inactive)
    1  A    between atoms: N_1  and  C_24
    2  A    between atoms: C_8  and  C_30
    3  A    between atoms: C_10  and  C_35
    4  A    between atoms: C_20  and  C_49
    5  A    between atoms: C_24  and  C_51
    6  A    between atoms: C_25  and  O_39
    7  A    between atoms: C_30  and  C_35
    8  A    between atoms: O_39  and  C_51
    9  A    between atoms: C_40  and  C_50
   10  A    between atoms: C_46  and  O_54
   11  A    between atoms: C_49  and  O_54
                            x       y       z     vdW  Elec       q    Type
                         _______ _______ _______ _____ _____    ______ ____

>  <TORSDO>
F 11

$$$$
=
 OpenBabel10232410443D

 56 60  0  0  1  0  0  0  0  0999 V2000
  190.6340  176.5410  140.1460 N   0  0  0  0  0  2  0  0  0  0  0  0
  191.2170  176.6720  141.4430 C   0  0  0  0  0  0  0  0  0  0  0  0
  192.4010  177.0850  141.5730 O   0  0  0  0  0  0  0  0  0  0  0  0
  190.9690  175.2530  143.4730 C   0  0  0  0  0  1  0  0  0  0  0  0
  190.3770  176.3830  142.6450 C   0  0  1  0  0  3  0  0  0  0  0  0
  190.2230  177.6360  143.4890 C   0  0  0  0  0  2  0  0  0  0  0  0
  186.0260  177.3650  144.5880 O   0  0  0  0  0  0  0  0  0  0  0  0
  188.8280  177.7530  143.9930 C   0  0  0  0  0  0  0  0  0  0  0  0
  188.6240  177.8380  145.2310 O   0  0  0  0  0  0  0  0  0  0  0  0
  187.7430  177.8090  143.0650 N   0  0  0  0  0  2  0  0  0  0  0  0
  186.3620  177.6850  143.4150 C   0  0  0  0  0  0  0  0  0  0  0  0
  183.8400  178.7200  144.0440 O   0  0  0  0  0  0  0  0  0  0  0  0
  185.0290  178.3210  138.8120 F   0  0  0  0  0  0  0  0  0  0  0  0
  182.4250  179.3840  139.7360 O   0  0  0  0  0  1  0  0  0  0  0  0
  183.2900  178.5910  140.4870 C   0  0  1  0  0  0  0  0  0  0  0  0
  184.0640  178.5250  142.8210 C   0  0  0  0  0  0  0  0  0  0  0  0
  186.5060  179.7540  141.3810 O   0  0  0  0  0  1  0  0  0  0  0  0
  184.7380  178.8900  140.0400 C   0  0  1  0  0  3  0  0  0  0  0  0
  185.3250  177.8690  142.3410 C   0  0  1  0  0  3  0  0  0  0  0  0
  183.1160  178.9030  141.8740 O   0  0  0  0  0  0  0  0  0  0  0  0
  185.8440  178.5660  141.0650 C   0  0  2  0  0  3  0  0  0  0  0  0
  182.9540  177.1180  140.2430 C   0  0  0  0  0  2  0  0  0  0  0  0
  181.6900  176.9970  139.6620 O   0  0  0  0  0  0  0  0  0  0  0  0
  181.7710  174.4130  136.5680 O   0  0  0  0  0  0  0  0  0  0  0  0
  181.9770  176.7660  137.2540 C   0  0  2  0  0  3  0  0  0  0  0  0
  180.7290  175.0300  138.6530 C   0  0  0  0  0  2  0  0  0  0  0  0
  180.8880  177.8110  137.0510 C   0  0  0  0  0  1  0  0  0  0  0  0
  181.9000  175.7440  136.1050 C   0  0  0  0  0  2  0  0  0  0  0  0
  180.5650  174.3560  137.2850 C   0  0  0  0  0  2  0  0  0  0  0  0
  181.8500  176.0740  138.6250 C   0  0  2  0  0  3  0  0  0  0  0  0
  191.3510  176.8760  138.9240 C   0  0  0  0  0  2  0  0  0  0  0  0
  191.1370  175.8050  137.8720 C   0  0  0  0  0  2  0  0  0  0  0  0
  192.0030  174.7320  138.1040 O   0  0  0  0  0  0  0  0  0  0  0  0
  197.4130  174.4210  134.8770 C   0  0  0  0  0  2  0  0  0  0  0  0
  193.5390  170.7170  136.1310 C   0  0  0  0  0  2  0  0  0  0  0  0
  193.0080  171.8340  135.2460 C   0  0  0  0  0  2  0  0  0  0  0  0
  194.9660  175.2640  135.6960 C   0  0  1  0  0  3  0  0  0  0  0  0
  197.2540  173.0090  136.9200 N   0  0  0  0  0  2  0  0  0  0  0  0
  197.2160  174.3760  136.3950 C   0  0  2  0  0  3  0  0  0  0  0  0
  189.2190  171.6220  135.3890 C   0  0  0  0  0  3  0  0  0  0  0  0
  188.8960  172.7500  136.1420 C   0  0  0  0  0  3  0  0  0  0  0  0
  195.9700  175.1530  136.8440 C   0  0  0  0  0  2  0  0  0  0  0  0
  191.2550  173.2970  136.3500 C   0  0  0  0  0  0  0  0  0  0  0  0
  193.7870  176.1370  136.0910 C   0  0  0  0  0  2  0  0  0  0  0  0
  192.3220  174.2380  136.8330 C   0  0  1  0  0  3  0  0  0  0  0  0
  189.9090  173.5860  136.6150 C   0  0  0  0  0  3  0  0  0  0  0  0
  196.0860  172.2460  136.4830 C   0  0  0  0  0  2  0  0  0  0  0  0
  191.5820  172.1580  135.5790 C   0  0  0  0  0  0  0  0  0  0  0  0
  190.5520  171.3240  135.1030 C   0  0  0  0  0  0  0  0  0  0  0  0
  192.4810  175.3940  135.8490 C   0  0  0  0  0  2  0  0  0  0  0  0
  193.9450  171.2350  137.4280 N   0  0  0  0  0  2  0  0  0  0  0  0
  195.4460  172.3580  138.7970 O   0  0  0  0  0  0  0  0  0  0  0  0
  190.8480  170.1930  134.3460 O   0  0  0  0  0  1  0  0  0  0  0  0
  195.6250  175.7710  134.4000 C   0  0  0  0  0  2  0  0  0  0  0  0
  197.0390  175.6900  134.4010 O   0  0  0  0  0  0  0  0  0  0  0  0
  195.1540  171.9700  137.6310 C   0  0  0  0  0  0  0  0  0  0  0  0
  1  2  1  0  0  0  0
  2  3  2  0  0  0  0
  2  5  1  0  0  0  0
  5  4  1  1  0  0  0
  5  6  1  0  0  0  0
  6  8  1  0  0  0  0
  8  9  2  0  0  0  0
 10 11  1  0  0  0  0
 10  8  1  0  0  0  0
 11  7  2  0  0  0  0
 15 14  1  6  0  0  0
 15 20  1  0  0  0  0
 16 12  2  0  0  0  0
 18 13  1  6  0  0  0
 18 15  1  0  0  0  0
 18 21  1  0  0  0  0
 19 16  1  0  0  0  0
 19 11  1  1  0  0  0
 20 16  1  0  0  0  0
 21 17  1  1  0  0  0
 21 19  1  0  0  0  0
 22 15  1  0  0  0  0
 23 22  1  0  0  0  0
 24 29  1  0  0  0  0
 25 27  1  6  0  0  0
 25 30  1  0  0  0  0
 28 24  1  0  0  0  0
 28 25  1  0  0  0  0
 29 26  1  0  0  0  0
 30 26  1  0  0  0  0
 30 23  1  1  0  0  0
 31  1  1  0  0  0  0
 32 33  1  0  0  0  0
 32 31  1  0  0  0  0
 35 51  1  0  0  0  0
 36 48  1  0  0  0  0
 36 35  1  0  0  0  0
 37 54  1  6  0  0  0
 37 44  1  0  0  0  0
 37 42  1  0  0  0  0
 39 34  1  6  0  0  0
 39 42  1  0  0  0  0
 39 38  1  0  0  0  0
 40 41  1  0  0  0  0
 41 46  2  0  0  0  0
 43 46  1  0  0  0  0
 43 45  1  0  0  0  0
 45 33  1  1  0  0  0
 47 38  1  0  0  0  0
 47 56  1  0  0  0  0
 48 43  2  0  0  0  0
 49 40  2  0  0  0  0
 49 48  1  0  0  0  0
 50 44  1  0  0  0  0
 50 45  1  0  0  0  0
 51 56  1  0  0  0  0
 53 49  1  0  0  0  0
 54 55  1  0  0  0  0
 55 34  1  0  0  0  0
 56 52  2  0  0  0  0
M  END
>  <MODEL>
7

>  <REMARK>
 VINA RESULT:      -6.1      4.638     10.111
  Name = 
  11 active torsions:
  status: ('A' for Active; 'I' for Inactive)
    1  A    between atoms: N_1  and  C_24
    2  A    between atoms: C_8  and  C_30
    3  A    between atoms: C_10  and  C_35
    4  A    between atoms: C_20  and  C_49
    5  A    between atoms: C_24  and  C_51
    6  A    between atoms: C_25  and  O_39
    7  A    between atoms: C_30  and  C_35
    8  A    between atoms: O_39  and  C_51
    9  A    between atoms: C_40  and  C_50
   10  A    between atoms: C_46  and  O_54
   11  A    between atoms: C_49  and  O_54
                            x       y       z     vdW  Elec       q    Type
                         _______ _______ _______ _____ _____    ______ ____

>  <TORSDO>
F 11

$$$$
=
 OpenBabel10232410443D

 56 60  0  0  1  0  0  0  0  0999 V2000
  188.8050  177.0560  137.0720 N   0  0  0  0  0  2  0  0  0  0  0  0
  189.4290  175.7800  136.9250 C   0  0  0  0  0  0  0  0  0  0  0  0
  189.0000  174.9530  136.0760 O   0  0  0  0  0  0  0  0  0  0  0  0
  191.2520  174.1370  137.3380 C   0  0  0  0  0  1  0  0  0  0  0  0
  190.6420  175.4710  137.7420 C   0  0  1  0  0  3  0  0  0  0  0  0
  191.6630  176.5860  137.6040 C   0  0  0  0  0  2  0  0  0  0  0  0
  193.1100  176.9300  141.6880 O   0  0  0  0  0  0  0  0  0  0  0  0
  192.2360  176.9300  138.9330 C   0  0  0  0  0  0  0  0  0  0  0  0
  193.4410  177.2820  139.0140 O   0  0  0  0  0  0  0  0  0  0  0  0
  191.4020  176.8980  140.0920 N   0  0  0  0  0  2  0  0  0  0  0  0
  191.8740  176.9740  141.4400 C   0  0  0  0  0  0  0  0  0  0  0  0
  191.8720  175.0280  143.4500 O   0  0  0  0  0  0  0  0  0  0  0  0
  188.7800  179.3480  144.2970 F   0  0  0  0  0  0  0  0  0  0  0  0
  188.9490  177.1490  146.2710 O   0  0  0  0  0  1  0  0  0  0  0  0
  189.2850  177.0560  144.9230 C   0  0  1  0  0  0  0  0  0  0  0  0
  191.0600  175.9780  143.6050 C   0  0  0  0  0  0  0  0  0  0  0  0
  191.9660  178.9320  143.5850 O   0  0  0  0  0  1  0  0  0  0  0  0
  189.8060  178.4330  144.4530 C   0  0  1  0  0  3  0  0  0  0  0  0
  190.8670  177.0330  142.5570 C   0  0  1  0  0  3  0  0  0  0  0  0
  190.2970  176.0550  144.7670 O   0  0  0  0  0  0  0  0  0  0  0  0
  190.7210  178.4230  143.2120 C   0  0  2  0  0  3  0  0  0  0  0  0
  188.0410  176.6600  144.1250 C   0  0  0  0  0  2  0  0  0  0  0  0
  186.8870  176.8970  144.8750 O   0  0  0  0  0  0  0  0  0  0  0  0
  184.8760  180.0180  143.3030 O   0  0  0  0  0  0  0  0  0  0  0  0
  185.5980  178.9030  145.3730 C   0  0  2  0  0  3  0  0  0  0  0  0
  185.3970  177.6690  143.1450 C   0  0  0  0  0  2  0  0  0  0  0  0
  184.6810  178.0630  146.2530 C   0  0  0  0  0  1  0  0  0  0  0  0
  184.7640  180.0160  144.7130 C   0  0  0  0  0  2  0  0  0  0  0  0
  184.3780  178.7810  142.8630 C   0  0  0  0  0  2  0  0  0  0  0  0
  186.3140  178.0410  144.3150 C   0  0  2  0  0  3  0  0  0  0  0  0
  187.6680  177.4740  136.2630 C   0  0  0  0  0  2  0  0  0  0  0  0
  186.4100  177.5330  137.1070 C   0  0  0  0  0  2  0  0  0  0  0  0
  185.2890  177.2960  136.3060 O   0  0  0  0  0  0  0  0  0  0  0  0
  180.0180  179.4400  139.0250 C   0  0  0  0  0  2  0  0  0  0  0  0
  181.1720  174.9900  135.9990 C   0  0  0  0  0  2  0  0  0  0  0  0
  181.9270  175.0050  137.3180 C   0  0  0  0  0  2  0  0  0  0  0  0
  182.6010  178.6690  138.7040 C   0  0  1  0  0  3  0  0  0  0  0  0
  179.9830  179.2280  136.5460 N   0  0  0  0  0  2  0  0  0  0  0  0
  180.6330  179.8710  137.6900 C   0  0  2  0  0  3  0  0  0  0  0  0
  184.6800  172.4070  137.0210 C   0  0  0  0  0  3  0  0  0  0  0  0
  185.8220  173.2040  136.9380 C   0  0  0  0  0  3  0  0  0  0  0  0
  182.1610  179.7130  137.6750 C   0  0  0  0  0  2  0  0  0  0  0  0
  184.4440  175.2020  137.0770 C   0  0  0  0  0  0  0  0  0  0  0  0
  184.1160  178.5960  138.7850 C   0  0  0  0  0  2  0  0  0  0  0  0
  184.3510  176.6990  137.1570 C   0  0  1  0  0  3  0  0  0  0  0  0
  185.7040  174.5940  136.9720 C   0  0  0  0  0  3  0  0  0  0  0  0
  180.2710  177.7950  136.5150 C   0  0  0  0  0  2  0  0  0  0  0  0
  183.2890  174.3930  137.1700 C   0  0  0  0  0  0  0  0  0  0  0  0
  183.4190  172.9910  137.1390 C   0  0  0  0  0  0  0  0  0  0  0  0
  184.5820  177.1600  138.5940 C   0  0  0  0  0  2  0  0  0  0  0  0
  181.5910  176.0940  135.1500 N   0  0  0  0  0  2  0  0  0  0  0  0
  181.5670  178.3400  134.5660 O   0  0  0  0  0  0  0  0  0  0  0  0
  182.2960  172.1720  137.2240 O   0  0  0  0  0  1  0  0  0  0  0  0
  181.9800  178.9270  140.0890 C   0  0  0  0  0  2  0  0  0  0  0  0
  180.8780  179.8160  140.0720 O   0  0  0  0  0  0  0  0  0  0  0  0
  181.1800  177.4460  135.3690 C   0  0  0  0  0  0  0  0  0  0  0  0
  2  1  1  0  0  0  0
  2  5  1  0  0  0  0
  3  2  2  0  0  0  0
  5  4  1  6  0  0  0
  6  5  1  0  0  0  0
  6  8  1  0  0  0  0
  8  9  2  0  0  0  0
  8 10  1  0  0  0  0
 10 11  1  0  0  0  0
 11  7  2  0  0  0  0
 12 16  2  0  0  0  0
 15 14  1  1  0  0  0
 16 20  1  0  0  0  0
 18 13  1  6  0  0  0
 18 15  1  0  0  0  0
 19 11  1  6  0  0  0
 19 21  1  0  0  0  0
 19 16  1  0  0  0  0
 20 15  1  0  0  0  0
 21 17  1  1  0  0  0
 21 18  1  0  0  0  0
 22 23  1  0  0  0  0
 22 15  1  0  0  0  0
 24 28  1  0  0  0  0
 25 27  1  6  0  0  0
 26 30  1  0  0  0  0
 28 25  1  0  0  0  0
 29 26  1  0  0  0  0
 29 24  1  0  0  0  0
 30 23  1  1  0  0  0
 30 25  1  0  0  0  0
 31  1  1  0  0  0  0
 31 32  1  0  0  0  0
 33 32  1  0  0  0  0
 34 55  1  0  0  0  0
 35 36  1  0  0  0  0
 37 42  1  6  0  0  0
 37 44  1  0  0  0  0
 37 54  1  0  0  0  0
 38 39  1  0  0  0  0
 39 42  1  1  0  0  0
 39 34  1  0  0  0  0
 40 49  1  0  0  0  0
 41 46  1  0  0  0  0
 41 40  2  0  0  0  0
 43 45  1  0  0  0  0
 43 48  1  0  0  0  0
 45 33  1  6  0  0  0
 45 50  1  0  0  0  0
 46 43  2  0  0  0  0
 47 38  1  0  0  0  0
 48 36  1  0  0  0  0
 49 48  2  0  0  0  0
 49 53  1  0  0  0  0
 50 44  1  0  0  0  0
 51 56  1  0  0  0  0
 51 35  1  0  0  0  0
 52 56  2  0  0  0  0
 55 54  1  0  0  0  0
 56 47  1  0  0  0  0
M  END
>  <MODEL>
8

>  <REMARK>
 VINA RESULT:      -6.0      2.289      6.700
  Name = 
  11 active torsions:
  status: ('A' for Active; 'I' for Inactive)
    1  A    between atoms: N_1  and  C_24
    2  A    between atoms: C_8  and  C_30
    3  A    between atoms: C_10  and  C_35
    4  A    between atoms: C_20  and  C_49
    5  A    between atoms: C_24  and  C_51
    6  A    between atoms: C_25  and  O_39
    7  A    between atoms: C_30  and  C_35
    8  A    between atoms: O_39  and  C_51
    9  A    between atoms: C_40  and  C_50
   10  A    between atoms: C_46  and  O_54
   11  A    between atoms: C_49  and  O_54
                            x       y       z     vdW  Elec       q    Type
                         _______ _______ _______ _____ _____    ______ ____

>  <TORSDO>
F 11

$$$$
=
 OpenBabel10232410443D

 56 60  0  0  1  0  0  0  0  0999 V2000
  190.1090  176.9840  140.2330 N   0  0  0  0  0  2  0  0  0  0  0  0
  189.6220  177.4560  141.4900 C   0  0  0  0  0  0  0  0  0  0  0  0
  190.4140  177.9530  142.3360 O   0  0  0  0  0  0  0  0  0  0  0  0
  187.8420  176.6460  143.0300 C   0  0  0  0  0  1  0  0  0  0  0  0
  188.1520  177.4170  141.7560 C   0  0  1  0  0  3  0  0  0  0  0  0
  187.5990  178.8290  141.8410 C   0  0  0  0  0  2  0  0  0  0  0  0
  183.3340  178.0220  142.0590 O   0  0  0  0  0  0  0  0  0  0  0  0
  186.1160  178.7990  141.9460 C   0  0  0  0  0  0  0  0  0  0  0  0
  185.5570  179.3050  142.9520 O   0  0  0  0  0  0  0  0  0  0  0  0
  185.3440  178.2350  140.8840 N   0  0  0  0  0  2  0  0  0  0  0  0
  183.9480  177.9340  140.9600 C   0  0  0  0  0  0  0  0  0  0  0  0
  181.1880  177.4760  140.9860 O   0  0  0  0  0  0  0  0  0  0  0  0
  183.5870  177.3780  136.1720 F   0  0  0  0  0  0  0  0  0  0  0  0
  180.6770  176.9220  136.4650 O   0  0  0  0  0  1  0  0  0  0  0  0
  181.6250  176.7890  137.4770 C   0  0  1  0  0  0  0  0  0  0  0  0
  181.7570  177.3380  139.8710 C   0  0  0  0  0  0  0  0  0  0  0  0
  183.4720  179.5800  138.6140 O   0  0  0  0  0  1  0  0  0  0  0  0
  182.7700  177.7910  137.2090 C   0  0  1  0  0  3  0  0  0  0  0  0
  183.2460  177.4380  139.7250 C   0  0  1  0  0  3  0  0  0  0  0  0
  180.9990  177.0640  138.7360 O   0  0  0  0  0  0  0  0  0  0  0  0
  183.6110  178.2030  138.4340 C   0  0  2  0  0  3  0  0  0  0  0  0
  182.1640  175.3570  137.4710 C   0  0  0  0  0  2  0  0  0  0  0  0
  181.4670  174.5790  136.5440 O   0  0  0  0  0  0  0  0  0  0  0  0
  183.9020  171.4050  136.0430 O   0  0  0  0  0  0  0  0  0  0  0  0
  181.5690  172.1800  136.1330 C   0  0  2  0  0  3  0  0  0  0  0  0
  183.4870  173.4600  137.2340 C   0  0  0  0  0  2  0  0  0  0  0  0
  180.6450  171.9640  137.3240 C   0  0  0  0  0  1  0  0  0  0  0  0
  182.5480  170.9940  136.0470 C   0  0  0  0  0  2  0  0  0  0  0  0
  184.1210  172.0640  137.2640 C   0  0  0  0  0  2  0  0  0  0  0  0
  182.3240  173.5190  136.2370 C   0  0  2  0  0  3  0  0  0  0  0  0
  191.5140  177.0550  139.8570 C   0  0  0  0  0  2  0  0  0  0  0  0
  191.7140  176.5260  138.4500 C   0  0  0  0  0  2  0  0  0  0  0  0
  192.4240  175.3220  138.4920 O   0  0  0  0  0  0  0  0  0  0  0  0
  197.4490  174.6810  134.7340 C   0  0  0  0  0  2  0  0  0  0  0  0
  193.2260  171.3850  135.9970 C   0  0  0  0  0  2  0  0  0  0  0  0
  192.7800  172.6500  135.2810 C   0  0  0  0  0  2  0  0  0  0  0  0
  195.2180  175.7340  135.8670 C   0  0  1  0  0  3  0  0  0  0  0  0
  197.2720  173.0860  136.6360 N   0  0  0  0  0  2  0  0  0  0  0  0
  197.3770  174.4960  136.2530 C   0  0  2  0  0  3  0  0  0  0  0  0
  189.0230  172.9070  135.7750 C   0  0  0  0  0  3  0  0  0  0  0  0
  188.9220  173.9780  136.6620 C   0  0  0  0  0  3  0  0  0  0  0  0
  196.2910  175.3710  136.8950 C   0  0  0  0  0  2  0  0  0  0  0  0
  191.3430  174.1940  136.6890 C   0  0  0  0  0  0  0  0  0  0  0  0
  194.2070  176.7010  136.4590 C   0  0  0  0  0  2  0  0  0  0  0  0
  192.5640  174.9340  137.1540 C   0  0  1  0  0  3  0  0  0  0  0  0
  190.0750  174.6210  137.1120 C   0  0  0  0  0  3  0  0  0  0  0  0
  195.9780  172.5300  136.2440 C   0  0  0  0  0  2  0  0  0  0  0  0
  191.4440  173.1140  135.7830 C   0  0  0  0  0  0  0  0  0  0  0  0
  190.2740  172.4740  135.3320 C   0  0  0  0  0  0  0  0  0  0  0  0
  192.7960  176.1610  136.2760 C   0  0  0  0  0  2  0  0  0  0  0  0
  193.8070  171.7020  137.2920 N   0  0  0  0  0  2  0  0  0  0  0  0
  195.5570  172.4690  138.6090 O   0  0  0  0  0  0  0  0  0  0  0  0
  190.3470  171.4050  134.4430 O   0  0  0  0  0  1  0  0  0  0  0  0
  195.8280  176.2910  134.5680 C   0  0  0  0  0  2  0  0  0  0  0  0
  197.2130  176.0320  134.4220 O   0  0  0  0  0  0  0  0  0  0  0  0
  195.1180  172.2510  137.4460 C   0  0  0  0  0  0  0  0  0  0  0  0
  1  2  1  0  0  0  0
  2  5  1  0  0  0  0
  2  3  2  0  0  0  0
  5  6  1  0  0  0  0
  5  4  1  1  0  0  0
  6  8  1  0  0  0  0
  8  9  2  0  0  0  0
 10 11  1  0  0  0  0
 10  8  1  0  0  0  0
 11  7  2  0  0  0  0
 15 14  1  6  0  0  0
 15 20  1  0  0  0  0
 16 12  2  0  0  0  0
 18 13  1  6  0  0  0
 18 15  1  0  0  0  0
 18 21  1  0  0  0  0
 19 16  1  0  0  0  0
 19 11  1  1  0  0  0
 20 16  1  0  0  0  0
 21 17  1  1  0  0  0
 21 19  1  0  0  0  0
 22 15  1  0  0  0  0
 23 22  1  0  0  0  0
 24 28  1  0  0  0  0
 24 29  1  0  0  0  0
 25 30  1  0  0  0  0
 25 27  1  1  0  0  0
 26 29  1  0  0  0  0
 28 25  1  0  0  0  0
 30 23  1  1  0  0  0
 30 26  1  0  0  0  0
 31  1  1  0  0  0  0
 32 33  1  0  0  0  0
 32 31  1  0  0  0  0
 35 51  1  0  0  0  0
 36 48  1  0  0  0  0
 36 35  1  0  0  0  0
 37 54  1  6  0  0  0
 37 44  1  0  0  0  0
 37 42  1  0  0  0  0
 39 34  1  6  0  0  0
 39 38  1  0  0  0  0
 39 42  1  0  0  0  0
 40 41  1  0  0  0  0
 41 46  2  0  0  0  0
 43 46  1  0  0  0  0
 43 45  1  0  0  0  0
 45 33  1  1  0  0  0
 47 38  1  0  0  0  0
 47 56  1  0  0  0  0
 48 43  2  0  0  0  0
 49 40  2  0  0  0  0
 49 48  1  0  0  0  0
 50 44  1  0  0  0  0
 50 45  1  0  0  0  0
 51 56  1  0  0  0  0
 53 49  1  0  0  0  0
 55 54  1  0  0  0  0
 55 34  1  0  0  0  0
 56 52  2  0  0  0  0
M  END
>  <MODEL>
9

>  <REMARK>
 VINA RESULT:      -5.5      4.674     10.502
  Name = 
  11 active torsions:
  status: ('A' for Active; 'I' for Inactive)
    1  A    between atoms: N_1  and  C_24
    2  A    between atoms: C_8  and  C_30
    3  A    between atoms: C_10  and  C_35
    4  A    between atoms: C_20  and  C_49
    5  A    between atoms: C_24  and  C_51
    6  A    between atoms: C_25  and  O_39
    7  A    between atoms: C_30  and  C_35
    8  A    between atoms: O_39  and  C_51
    9  A    between atoms: C_40  and  C_50
   10  A    between atoms: C_46  and  O_54
   11  A    between atoms: C_49  and  O_54
                            x       y       z     vdW  Elec       q    Type
                         _______ _______ _______ _____ _____    ______ ____

>  <TORSDO>
F 11

$$$$
