=
 OpenBabel10232409013D

 46 50  0  0  1  0  0  0  0  0999 V2000
  188.7460  177.1780  137.1730 C   0  0  0  0  0  0  0  0  0  0  0  0
  191.0250  176.4790  137.6560 C   0  0  0  0  0  3  0  0  0  0  0  0
  182.4320  174.5830  138.6580 C   0  0  0  0  0  2  0  0  0  0  0  0
  186.9110  178.3560  138.4270 C   0  0  0  0  0  0  0  0  0  0  0  0
  181.2910  177.5340  138.1860 C   0  0  0  0  0  2  0  0  0  0  0  0
  188.4200  175.8560  136.8170 C   0  0  0  0  0  0  0  0  0  0  0  0
  181.7490  176.8660  139.4780 C   0  0  0  0  0  2  0  0  0  0  0  0
  187.1130  175.5520  136.4230 O   0  0  0  0  0  0  0  0  0  0  0  0
  184.8300  178.9340  139.5550 C   0  0  0  0  0  0  0  0  0  0  0  0
  185.4330  178.6710  140.7890 C   0  0  0  0  0  3  0  0  0  0  0  0
  185.1860  174.1950  135.8940 C   0  0  1  0  0  3  0  0  0  0  0  0
  182.2700  175.1880  136.2430 C   0  0  0  0  0  1  0  0  0  0  0  0
  184.4910  174.5960  137.1970 C   0  0  0  0  0  2  0  0  0  0  0  0
  182.7970  179.6860  138.3360 C   0  0  1  0  0  3  0  0  0  0  0  0
  189.4080  174.8610  136.8750 C   0  0  0  0  0  3  0  0  0  0  0  0
  187.6910  178.2540  137.1480 C   0  0  1  0  0  3  0  0  0  0  0  0
  187.4040  178.0000  142.1660 C   0  0  0  0  0  1  0  0  0  0  0  0
  183.4990  179.3640  139.5340 O   0  0  0  0  0  0  0  0  0  0  0  0
  190.7040  175.1720  137.2890 C   0  0  0  0  0  0  0  0  0  0  0  0
  182.9100  175.9140  139.2360 C   0  0  0  0  0  2  0  0  0  0  0  0
  187.5090  178.1210  139.6750 C   0  0  0  0  0  3  0  0  0  0  0  0
  182.3960  178.4090  137.5670 C   0  0  2  0  0  3  0  0  0  0  0  0
  184.8290  175.0600  134.8600 O   0  0  0  0  0  1  0  0  0  0  0  0
  186.6930  174.2330  136.0900 C   0  0  0  0  0  2  0  0  0  0  0  0
  191.9260  173.9200  137.3560 Cl  0  0  0  0  0  0  0  0  0  0  0  0
  190.0500  177.4780  137.6010 C   0  0  0  0  0  3  0  0  0  0  0  0
  182.9810  174.2780  137.2430 C   0  0  1  0  0  0  0  0  0  0  0  0
  186.7690  178.2670  140.8500 C   0  0  0  0  0  0  0  0  0  0  0  0
  188.2410  179.4950  136.8180 O   0  0  0  0  0  1  0  0  0  0  0  0
  185.5760  178.7740  138.3750 C   0  0  0  0  0  3  0  0  0  0  0  0
  181.3250  171.2730  135.6550 C   0  0  2  0  0  3  0  0  0  0  0  0
  182.7460  172.8590  136.8770 N   0  0  2  0  0  0  0  0  0  0  0  0
  180.3000  171.1730  134.7160 O   0  0  0  0  0  1  0  0  0  0  0  0
  183.9560  172.2460  136.3060 C   0  0  0  0  0  2  0  0  0  0  0  0
  183.7330  170.7490  136.0930 C   0  0  1  0  0  3  0  0  0  0  0  0
  181.6610  172.7430  135.8890 C   0  0  0  0  0  2  0  0  0  0  0  0
  182.5600  170.5420  135.1400 C   0  0  0  0  0  2  0  0  0  0  0  0
  185.4750  170.9040  134.4690 O   0  0  0  0  0  1  0  0  0  0  0  0
  184.9790  170.1130  135.5060 C   0  0  0  0  0  2  0  0  0  0  0  0
  179.9870  181.5350  139.8230 C   0  0  0  0  0  3  0  0  0  0  0  0
  181.1180  181.4670  137.7930 C   0  0  0  0  0  3  0  0  0  0  0  0
  180.9460  180.6260  139.9090 C   0  0  0  0  0  2  0  0  0  0  0  0
  181.6450  180.5970  138.6390 C   0  0  0  0  0  0  0  0  0  0  0  0
  179.9930  182.1710  138.4700 C   0  0  0  0  0  3  0  0  0  0  0  0
  180.9380  178.4180  135.7980 C   0  0  0  0  0  1  0  0  0  0  0  0
  182.2780  178.5970  136.1730 O   0  0  0  0  0  0  0  0  0  0  0  0
  1 26  1  0  0  0  0
  3 20  1  0  0  0  0
  4 21  1  0  0  0  0
  5  7  1  0  0  0  0
  6 15  1  0  0  0  0
  6  1  2  0  0  0  0
  8  6  1  0  0  0  0
  9 10  2  0  0  0  0
 10 28  1  0  0  0  0
 11 23  1  6  0  0  0
 11 24  1  0  0  0  0
 11 13  1  0  0  0  0
 13 27  1  0  0  0  0
 14 43  1  1  0  0  0
 14 18  1  0  0  0  0
 15 19  2  0  0  0  0
 16 29  1  1  0  0  0
 16  1  1  0  0  0  0
 16  4  1  0  0  0  0
 18  9  1  0  0  0  0
 19 25  1  0  0  0  0
 19  2  1  0  0  0  0
 20  7  1  0  0  0  0
 21 28  2  0  0  0  0
 22 46  1  6  0  0  0
 22  5  1  0  0  0  0
 22 14  1  0  0  0  0
 24  8  1  0  0  0  0
 26  2  2  0  0  0  0
 27 12  1  6  0  0  0
 27  3  1  0  0  0  0
 28 17  1  0  0  0  0
 30  4  2  0  0  0  0
 30  9  1  0  0  0  0
 31 33  1  6  0  0  0
 31 36  1  0  0  0  0
 32 36  1  6  0  0  0
 32 27  1  0  0  0  0
 34 32  1  0  0  0  0
 35 39  1  6  0  0  0
 35 34  1  0  0  0  0
 37 31  1  0  0  0  0
 37 35  1  0  0  0  0
 38 39  1  0  0  0  0
 40 42  1  0  0  0  0
 41 44  1  0  0  0  0
 41 43  2  0  0  0  0
 43 42  1  0  0  0  0
 44 40  2  0  0  0  0
 45 46  1  0  0  0  0
M  END
>  <MODEL>
1

>  <REMARK>
 VINA RESULT:      -6.5      0.000      0.000
  Name = 
  4 active torsions:
  status: ('A' for Active; 'I' for Inactive)
    1  A    between atoms: N_16  and  C_41
    2  A    between atoms: C_22  and  C_29
    3  A    between atoms: C_26  and  C_35
    4  A    between atoms: C_33  and  O_39
                            x       y       z     vdW  Elec       q    Type
                         _______ _______ _______ _____ _____    ______ ____

>  <TORSDO>
F 4

$$$$
=
 OpenBabel10232409013D

 46 50  0  0  1  0  0  0  0  0999 V2000
  188.9540  177.4000  137.4170 C   0  0  0  0  0  0  0  0  0  0  0  0
  191.1970  176.6560  137.9920 C   0  0  0  0  0  3  0  0  0  0  0  0
  182.5830  174.5940  138.0110 C   0  0  0  0  0  2  0  0  0  0  0  0
  187.0020  178.3900  138.6590 C   0  0  0  0  0  0  0  0  0  0  0  0
  181.4360  177.5760  137.8420 C   0  0  0  0  0  2  0  0  0  0  0  0
  188.6800  176.1360  136.8630 C   0  0  0  0  0  0  0  0  0  0  0  0
  181.7970  176.7440  139.0670 C   0  0  0  0  0  2  0  0  0  0  0  0
  187.4150  175.8800  136.3240 O   0  0  0  0  0  0  0  0  0  0  0  0
  184.8270  178.8000  139.6760 C   0  0  0  0  0  0  0  0  0  0  0  0
  185.3310  178.3780  140.9090 C   0  0  0  0  0  3  0  0  0  0  0  0
  185.5610  174.5950  135.4610 C   0  0  1  0  0  3  0  0  0  0  0  0
  182.6100  175.5160  135.6940 C   0  0  0  0  0  1  0  0  0  0  0  0
  184.7550  174.8140  136.7420 C   0  0  0  0  0  2  0  0  0  0  0  0
  182.8880  179.6970  138.4020 C   0  0  1  0  0  3  0  0  0  0  0  0
  189.6760  175.1470  136.8710 C   0  0  0  0  0  3  0  0  0  0  0  0
  187.8860  178.4640  137.4470 C   0  0  1  0  0  3  0  0  0  0  0  0
  187.1930  177.5400  142.3450 C   0  0  0  0  0  1  0  0  0  0  0  0
  183.4950  179.2210  139.6010 O   0  0  0  0  0  0  0  0  0  0  0  0
  190.9290  175.4080  137.4290 C   0  0  0  0  0  0  0  0  0  0  0  0
  182.9900  175.8400  138.7990 C   0  0  0  0  0  2  0  0  0  0  0  0
  187.5000  177.9930  139.9100 C   0  0  0  0  0  3  0  0  0  0  0  0
  182.5730  178.5320  137.4390 C   0  0  2  0  0  3  0  0  0  0  0  0
  185.2760  175.5890  134.5240 O   0  0  0  0  0  1  0  0  0  0  0  0
  187.0460  174.6150  135.7860 C   0  0  0  0  0  2  0  0  0  0  0  0
  192.1620  174.1650  137.4310 Cl  0  0  0  0  0  0  0  0  0  0  0  0
  190.2130  177.6470  137.9890 C   0  0  0  0  0  3  0  0  0  0  0  0
  183.2520  174.4840  136.6200 C   0  0  1  0  0  0  0  0  0  0  0  0
  186.6640  177.9770  141.0280 C   0  0  0  0  0  0  0  0  0  0  0  0
  188.4410  179.7410  137.3320 O   0  0  0  0  0  1  0  0  0  0  0  0
  185.6690  178.8030  138.5510 C   0  0  0  0  0  3  0  0  0  0  0  0
  183.9150  170.8220  135.9520 C   0  0  2  0  0  3  0  0  0  0  0  0
  183.0710  173.1260  136.0500 N   0  0  2  0  0  0  0  0  0  0  0  0
  184.7950  169.9200  136.5480 O   0  0  0  0  0  1  0  0  0  0  0  0
  181.7000  172.6360  136.2580 C   0  0  0  0  0  2  0  0  0  0  0  0
  181.4990  171.3140  135.5190 C   0  0  1  0  0  3  0  0  0  0  0  0
  184.0010  172.1670  136.6680 C   0  0  0  0  0  2  0  0  0  0  0  0
  182.4920  170.2830  136.0470 C   0  0  0  0  0  2  0  0  0  0  0  0
  180.0410  169.4250  135.5440 O   0  0  0  0  0  1  0  0  0  0  0  0
  180.0850  170.8060  135.7290 C   0  0  0  0  0  2  0  0  0  0  0  0
  179.9840  181.3680  139.9170 C   0  0  0  0  0  3  0  0  0  0  0  0
  181.1670  181.4540  137.9170 C   0  0  0  0  0  3  0  0  0  0  0  0
  180.9690  180.4860  139.9750 C   0  0  0  0  0  2  0  0  0  0  0  0
  181.7000  180.5530  138.7260 C   0  0  0  0  0  0  0  0  0  0  0  0
  180.0030  182.0820  138.6030 C   0  0  0  0  0  3  0  0  0  0  0  0
  181.3090  178.6120  135.5280 C   0  0  0  0  0  1  0  0  0  0  0  0
  182.5670  178.9040  136.0780 O   0  0  0  0  0  0  0  0  0  0  0  0
  1 16  1  0  0  0  0
  1 26  1  0  0  0  0
  3 20  1  0  0  0  0
  4 21  1  0  0  0  0
  5  7  1  0  0  0  0
  6 15  1  0  0  0  0
  6  1  2  0  0  0  0
  8  6  1  0  0  0  0
  9 10  2  0  0  0  0
 10 28  1  0  0  0  0
 11 23  1  6  0  0  0
 11 24  1  0  0  0  0
 11 13  1  0  0  0  0
 14 43  1  1  0  0  0
 14 18  1  0  0  0  0
 15 19  2  0  0  0  0
 16 29  1  1  0  0  0
 16  4  1  0  0  0  0
 18  9  1  0  0  0  0
 19 25  1  0  0  0  0
 19  2  1  0  0  0  0
 20  7  1  0  0  0  0
 21 28  2  0  0  0  0
 22 46  1  6  0  0  0
 22  5  1  0  0  0  0
 22 14  1  0  0  0  0
 24  8  1  0  0  0  0
 26  2  2  0  0  0  0
 27 12  1  6  0  0  0
 27 13  1  0  0  0  0
 27  3  1  0  0  0  0
 28 17  1  0  0  0  0
 30  4  2  0  0  0  0
 30  9  1  0  0  0  0
 31 37  1  0  0  0  0
 31 33  1  1  0  0  0
 31 36  1  0  0  0  0
 32 34  1  1  0  0  0
 32 27  1  0  0  0  0
 32 36  1  0  0  0  0
 35 39  1  1  0  0  0
 35 37  1  0  0  0  0
 35 34  1  0  0  0  0
 38 39  1  0  0  0  0
 40 42  1  0  0  0  0
 41 44  1  0  0  0  0
 41 43  2  0  0  0  0
 43 42  1  0  0  0  0
 44 40  2  0  0  0  0
 45 46  1  0  0  0  0
M  END
>  <MODEL>
2

>  <REMARK>
 VINA RESULT:      -6.2      0.668      1.585
  Name = 
  4 active torsions:
  status: ('A' for Active; 'I' for Inactive)
    1  A    between atoms: N_16  and  C_41
    2  A    between atoms: C_22  and  C_29
    3  A    between atoms: C_26  and  C_35
    4  A    between atoms: C_33  and  O_39
                            x       y       z     vdW  Elec       q    Type
                         _______ _______ _______ _____ _____    ______ ____

>  <TORSDO>
F 4

$$$$
