=
 OpenBabel10232409343D

 33 35  0  0  0  0  0  0  0  0999 V2000
  188.0320  178.0080  140.6420 C   0  0  0  0  0  3  0  0  0  0  0  0
  189.6710  176.6190  141.7720 C   0  0  0  0  0  0  0  0  0  0  0  0
  188.8650  178.1020  139.5210 C   0  0  0  0  0  0  0  0  0  0  0  0
  190.0990  177.4390  139.5310 C   0  0  0  0  0  3  0  0  0  0  0  0
  188.4250  177.2780  141.7690 C   0  0  0  0  0  0  0  0  0  0  0  0
  190.5020  176.7080  140.6500 C   0  0  0  0  0  3  0  0  0  0  0  0
  187.4340  176.1440  137.5850 N   0  0  0  0  0  2  0  0  0  0  0  0
  187.1850  178.5020  137.6460 N   0  0  0  0  0  2  0  0  0  0  0  0
  186.6680  177.1790  137.4600 C   0  0  0  0  0  0  0  0  0  0  0  0
  188.4060  178.8330  138.3210 C   0  0  0  0  0  0  0  0  0  0  0  0
  189.0760  179.8160  137.9050 O   0  0  0  0  0  0  0  0  0  0  0  0
  184.3100  177.5730  138.0230 C   0  0  0  0  0  1  0  0  0  0  0  0
  185.2660  176.9990  136.9970 C   0  0  0  0  0  2  0  0  0  0  0  0
  187.4700  177.1640  142.9180 C   0  0  0  0  0  2  0  0  0  0  0  0
  187.1380  178.5330  143.5040 C   0  0  0  0  0  2  0  0  0  0  0  0
  183.5350  178.7750  144.1290 C   0  0  0  0  0  0  0  0  0  0  0  0
  186.1630  178.8030  146.4450 N   0  0  0  0  0  1  0  0  0  0  0  0
  182.2180  178.8700  143.6820 C   0  0  0  0  0  3  0  0  0  0  0  0
  181.9910  178.7930  142.2950 C   0  0  0  0  0  3  0  0  0  0  0  0
  184.3870  178.5390  141.8740 C   0  0  0  0  0  3  0  0  0  0  0  0
  185.3010  178.7380  145.3160 C   0  0  0  0  0  0  0  0  0  0  0  0
  183.9550  178.8540  145.4070 N   0  0  0  0  0  2  0  0  0  0  0  0
  183.0680  178.6300  141.3980 C   0  0  0  0  0  3  0  0  0  0  0  0
  185.7290  178.5830  144.0040 C   0  0  0  0  0  0  0  0  0  0  0  0
  184.5790  178.6130  143.2520 C   0  0  0  0  0  0  0  0  0  0  0  0
  190.1370  175.8350  142.9540 C   0  0  0  0  0  2  0  0  0  0  0  0
  191.5340  176.2700  143.3490 C   0  0  0  0  0  2  0  0  0  0  0  0
  191.4830  177.6780  143.9160 C   0  0  0  0  0  2  0  0  0  0  0  0
  191.3790  176.8100  146.1170 C   0  0  0  0  0  3  0  0  0  0  0  0
  190.9510  177.6580  145.2530 N   0  0  0  0  0  0  0  0  0  0  0  0
  190.8270  176.7970  147.5020 C   0  0  0  0  0  2  0  0  0  0  0  0
  189.3380  177.0850  147.4790 C   0  0  0  0  0  2  0  0  0  0  0  0
  189.0180  178.1630  148.4930 C   0  0  0  0  0  1  0  0  0  0  0  0
  1  5  1  0  0  0  0
  2 26  1  0  0  0  0
  3  4  1  0  0  0  0
  3  1  2  0  0  0  0
  4  6  2  0  0  0  0
  5  2  2  0  0  0  0
  5 14  1  0  0  0  0
  6  2  1  0  0  0  0
  8 10  1  0  0  0  0
  9  7  2  0  0  0  0
  9  8  1  0  0  0  0
 10  3  1  0  0  0  0
 11 10  2  0  0  0  0
 13  9  1  0  0  0  0
 13 12  1  0  0  0  0
 14 15  1  0  0  0  0
 15 24  1  0  0  0  0
 16 22  1  0  0  0  0
 18 16  1  0  0  0  0
 19 18  2  0  0  0  0
 20 25  1  0  0  0  0
 21 22  1  0  0  0  0
 21 17  1  0  0  0  0
 23 20  2  0  0  0  0
 23 19  1  0  0  0  0
 24 21  2  0  0  0  0
 25 24  1  0  0  0  0
 25 16  2  0  0  0  0
 26 27  1  0  0  0  0
 27 28  1  0  0  0  0
 28 30  1  0  0  0  0
 29 31  1  0  0  0  0
 30 29  2  0  0  0  0
 32 31  1  0  0  0  0
 32 33  1  0  0  0  0
M  END
>  <MODEL>
1

>  <REMARK>
 VINA RESULT:      -8.5      0.000      0.000
  Name = 
  11 active torsions:
  status: ('A' for Active; 'I' for Inactive)
    1  A    between atoms: C_1  and  C_10
    2  A    between atoms: C_1  and  N_26
    3  A    between atoms: C_6  and  C_8
    4  A    between atoms: C_7  and  C_15
    5  A    between atoms: C_7  and  C_25
    6  A    between atoms: C_8  and  C_10
    7  A    between atoms: C_11  and  C_19
    8  A    between atoms: C_12  and  C_16
    9  A    between atoms: C_15  and  C_32
   10  A    between atoms: C_17  and  C_29
   11  A    between atoms: C_21  and  C_29
                            x       y       z     vdW  Elec       q    Type
                         _______ _______ _______ _____ _____    ______ ____

>  <TORSDO>
F 11

$$$$
=
 OpenBabel10232409343D

 33 35  0  0  0  0  0  0  0  0999 V2000
  184.7670  179.1570  140.7420 C   0  0  0  0  0  3  0  0  0  0  0  0
  186.9590  178.3020  140.1470 C   0  0  0  0  0  0  0  0  0  0  0  0
  184.3430  179.0330  139.4130 C   0  0  0  0  0  0  0  0  0  0  0  0
  185.2360  178.5300  138.4570 C   0  0  0  0  0  3  0  0  0  0  0  0
  186.0670  178.8020  141.1170 C   0  0  0  0  0  0  0  0  0  0  0  0
  186.5360  178.1730  138.8200 C   0  0  0  0  0  3  0  0  0  0  0  0
  182.7750  176.4260  138.8040 N   0  0  0  0  0  2  0  0  0  0  0  0
  181.8460  178.5220  139.4140 N   0  0  0  0  0  2  0  0  0  0  0  0
  181.8640  177.0890  139.4390 C   0  0  0  0  0  0  0  0  0  0  0  0
  182.9480  179.3630  139.0510 C   0  0  0  0  0  0  0  0  0  0  0  0
  182.7090  180.4450  138.4510 O   0  0  0  0  0  0  0  0  0  0  0  0
  180.4860  175.0570  139.3670 C   0  0  0  0  0  1  0  0  0  0  0  0
  180.7530  176.3550  140.1010 C   0  0  0  0  0  2  0  0  0  0  0  0
  186.4490  178.9020  142.5620 C   0  0  0  0  0  2  0  0  0  0  0  0
  185.6410  177.9310  143.4190 C   0  0  0  0  0  2  0  0  0  0  0  0
  186.5770  178.2600  146.9470 C   0  0  0  0  0  0  0  0  0  0  0  0
  183.5560  179.1230  145.3960 N   0  0  0  0  0  1  0  0  0  0  0  0
  187.4670  178.0620  148.0010 C   0  0  0  0  0  3  0  0  0  0  0  0
  188.7240  177.5040  147.7010 C   0  0  0  0  0  2  0  0  0  0  0  0
  188.1420  177.3660  145.3290 C   0  0  0  0  0  3  0  0  0  0  0  0
  184.8700  178.7180  145.7610 C   0  0  0  0  0  0  0  0  0  0  0  0
  185.3250  178.7520  147.0360 N   0  0  0  0  0  0  0  0  0  0  0  0
  189.0580  177.1580  146.3740 C   0  0  0  0  0  3  0  0  0  0  0  0
  185.8160  178.2180  144.8760 C   0  0  0  0  0  0  0  0  0  0  0  0
  186.9080  177.9240  145.6580 C   0  0  0  0  0  0  0  0  0  0  0  0
  188.3590  177.9170  140.4980 C   0  0  0  0  0  2  0  0  0  0  0  0
  189.2600  178.0760  139.2890 C   0  0  0  0  0  2  0  0  0  0  0  0
  190.5910  177.3970  139.5590 C   0  0  0  0  0  2  0  0  0  0  0  0
  191.4470  177.4200  141.7660 C   0  0  0  0  0  3  0  0  0  0  0  0
  190.6370  176.9090  140.9120 N   0  0  0  0  0  0  0  0  0  0  0  0
  191.4880  176.9140  143.1690 C   0  0  0  0  0  2  0  0  0  0  0  0
  191.8450  178.0360  144.1240 C   0  0  0  0  0  2  0  0  0  0  0  0
  190.9520  179.2280  143.8580 C   0  0  0  0  0  1  0  0  0  0  0  0
  1  5  1  0  0  0  0
  2 26  1  0  0  0  0
  2  5  2  0  0  0  0
  3  1  2  0  0  0  0
  4  6  2  0  0  0  0
  4  3  1  0  0  0  0
  5 14  1  0  0  0  0
  6  2  1  0  0  0  0
  7  9  2  0  0  0  0
  8  9  1  0  0  0  0
  9 13  1  0  0  0  0
 10  3  1  0  0  0  0
 10  8  1  0  0  0  0
 11 10  2  0  0  0  0
 12 13  1  0  0  0  0
 14 15  1  0  0  0  0
 15 24  1  0  0  0  0
 16 22  1  0  0  0  0
 16 18  2  0  0  0  0
 17 21  1  0  0  0  0
 19 18  1  0  0  0  0
 20 25  1  0  0  0  0
 20 23  2  0  0  0  0
 21 22  2  0  0  0  0
 23 19  1  0  0  0  0
 24 25  2  0  0  0  0
 24 21  1  0  0  0  0
 25 16  1  0  0  0  0
 27 28  1  0  0  0  0
 27 26  1  0  0  0  0
 28 30  1  0  0  0  0
 29 31  1  0  0  0  0
 30 29  2  0  0  0  0
 31 32  1  0  0  0  0
 33 32  1  0  0  0  0
M  END
>  <MODEL>
2

>  <REMARK>
 VINA RESULT:      -8.3      2.519      4.712
  Name = 
  11 active torsions:
  status: ('A' for Active; 'I' for Inactive)
    1  A    between atoms: C_1  and  C_10
    2  A    between atoms: C_1  and  N_26
    3  A    between atoms: C_6  and  C_8
    4  A    between atoms: C_7  and  C_15
    5  A    between atoms: C_7  and  C_25
    6  A    between atoms: C_8  and  C_10
    7  A    between atoms: C_11  and  C_19
    8  A    between atoms: C_12  and  C_16
    9  A    between atoms: C_15  and  C_32
   10  A    between atoms: C_17  and  C_29
   11  A    between atoms: C_21  and  C_29
                            x       y       z     vdW  Elec       q    Type
                         _______ _______ _______ _____ _____    ______ ____

>  <TORSDO>
F 11

$$$$
=
 OpenBabel10232409343D

 33 35  0  0  0  0  0  0  0  0999 V2000
  190.9110  176.6230  141.1240 C   0  0  0  0  0  3  0  0  0  0  0  0
  188.6320  177.4490  141.2410 C   0  0  0  0  0  0  0  0  0  0  0  0
  191.0330  177.1080  139.8160 C   0  0  0  0  0  0  0  0  0  0  0  0
  189.9480  177.7750  139.2320 C   0  0  0  0  0  3  0  0  0  0  0  0
  189.7190  176.7810  141.8390 C   0  0  0  0  0  0  0  0  0  0  0  0
  188.7540  177.9390  139.9370 C   0  0  0  0  0  3  0  0  0  0  0  0
  190.9570  174.6110  137.9760 N   0  0  0  0  0  2  0  0  0  0  0  0
  192.3980  176.4820  137.7550 N   0  0  0  0  0  2  0  0  0  0  0  0
  191.5900  175.4350  137.2050 C   0  0  0  0  0  0  0  0  0  0  0  0
  192.3200  176.9770  139.0990 C   0  0  0  0  0  0  0  0  0  0  0  0
  193.3790  177.3630  139.6610 O   0  0  0  0  0  0  0  0  0  0  0  0
  192.8920  175.6730  135.1360 C   0  0  0  0  0  1  0  0  0  0  0  0
  191.5770  175.2160  135.7340 C   0  0  0  0  0  2  0  0  0  0  0  0
  189.6630  176.2930  143.2550 C   0  0  0  0  0  2  0  0  0  0  0  0
  190.5490  177.1350  144.1690 C   0  0  0  0  0  2  0  0  0  0  0  0
  188.7470  177.5620  147.3320 C   0  0  0  0  0  0  0  0  0  0  0  0
  192.0530  176.5190  146.8220 N   0  0  0  0  0  1  0  0  0  0  0  0
  187.6210  177.9490  148.0570 C   0  0  0  0  0  3  0  0  0  0  0  0
  186.4880  178.3650  147.3350 C   0  0  0  0  0  2  0  0  0  0  0  0
  187.6520  177.9950  145.2150 C   0  0  0  0  0  3  0  0  0  0  0  0
  190.6930  176.9310  146.7460 C   0  0  0  0  0  0  0  0  0  0  0  0
  189.9300  177.1630  147.8400 N   0  0  0  0  0  0  0  0  0  0  0  0
  186.5030  178.3870  145.9230 C   0  0  0  0  0  3  0  0  0  0  0  0
  190.0070  177.1740  145.5630 C   0  0  0  0  0  0  0  0  0  0  0  0
  188.7560  177.5840  145.9600 C   0  0  0  0  0  0  0  0  0  0  0  0
  187.3370  177.6360  141.9630 C   0  0  0  0  0  2  0  0  0  0  0  0
  186.7560  178.9990  141.6440 C   0  0  0  0  0  2  0  0  0  0  0  0
  185.4520  178.8270  140.8850 C   0  0  0  0  0  2  0  0  0  0  0  0
  184.3630  179.1160  142.9680 C   0  0  0  0  0  3  0  0  0  0  0  0
  184.3710  178.5780  141.8020 N   0  0  0  0  0  0  0  0  0  0  0  0
  183.2380  178.8570  143.9130 C   0  0  0  0  0  2  0  0  0  0  0  0
  181.9110  179.1810  143.2530 C   0  0  0  0  0  2  0  0  0  0  0  0
  180.7900  178.5110  144.0190 C   0  0  0  0  0  1  0  0  0  0  0  0
  1  5  1  0  0  0  0
  2  5  2  0  0  0  0
  2 26  1  0  0  0  0
  3  1  2  0  0  0  0
  4  3  1  0  0  0  0
  4  6  2  0  0  0  0
  5 14  1  0  0  0  0
  6  2  1  0  0  0  0
  8 10  1  0  0  0  0
  9  8  1  0  0  0  0
  9  7  2  0  0  0  0
 10 11  2  0  0  0  0
 10  3  1  0  0  0  0
 12 13  1  0  0  0  0
 13  9  1  0  0  0  0
 14 15  1  0  0  0  0
 15 24  1  0  0  0  0
 16 22  1  0  0  0  0
 16 18  2  0  0  0  0
 19 18  1  0  0  0  0
 20 23  2  0  0  0  0
 20 25  1  0  0  0  0
 21 17  1  0  0  0  0
 21 22  2  0  0  0  0
 23 19  1  0  0  0  0
 24 25  2  0  0  0  0
 24 21  1  0  0  0  0
 25 16  1  0  0  0  0
 27 26  1  0  0  0  0
 28 27  1  0  0  0  0
 28 30  1  0  0  0  0
 29 31  1  0  0  0  0
 30 29  2  0  0  0  0
 32 31  1  0  0  0  0
 32 33  1  0  0  0  0
M  END
>  <MODEL>
3

>  <REMARK>
 VINA RESULT:      -8.2      2.438      5.785
  Name = 
  11 active torsions:
  status: ('A' for Active; 'I' for Inactive)
    1  A    between atoms: C_1  and  C_10
    2  A    between atoms: C_1  and  N_26
    3  A    between atoms: C_6  and  C_8
    4  A    between atoms: C_7  and  C_15
    5  A    between atoms: C_7  and  C_25
    6  A    between atoms: C_8  and  C_10
    7  A    between atoms: C_11  and  C_19
    8  A    between atoms: C_12  and  C_16
    9  A    between atoms: C_15  and  C_32
   10  A    between atoms: C_17  and  C_29
   11  A    between atoms: C_21  and  C_29
                            x       y       z     vdW  Elec       q    Type
                         _______ _______ _______ _____ _____    ______ ____

>  <TORSDO>
F 11

$$$$
=
 OpenBabel10232409343D

 33 35  0  0  0  0  0  0  0  0999 V2000
  184.1520  178.8080  141.1670 C   0  0  0  0  0  3  0  0  0  0  0  0
  186.2800  178.4630  140.0540 C   0  0  0  0  0  0  0  0  0  0  0  0
  183.4760  178.6580  139.9500 C   0  0  0  0  0  0  0  0  0  0  0  0
  184.2140  178.3990  138.7880 C   0  0  0  0  0  3  0  0  0  0  0  0
  185.5470  178.7190  141.2290 C   0  0  0  0  0  0  0  0  0  0  0  0
  185.6060  178.3080  138.8380 C   0  0  0  0  0  3  0  0  0  0  0  0
  182.5340  181.4060  138.8600 N   0  0  0  0  0  2  0  0  0  0  0  0
  181.2770  179.3940  138.8900 N   0  0  0  0  0  2  0  0  0  0  0  0
  181.6710  180.6320  138.2850 C   0  0  0  0  0  0  0  0  0  0  0  0
  181.9980  178.7020  139.9180 C   0  0  0  0  0  0  0  0  0  0  0  0
  181.3450  178.0680  140.7890 O   0  0  0  0  0  0  0  0  0  0  0  0
  180.7210  182.5790  137.1270 C   0  0  0  0  0  1  0  0  0  0  0  0
  180.9890  181.0900  137.0450 C   0  0  0  0  0  2  0  0  0  0  0  0
  186.2130  178.8310  142.5660 C   0  0  0  0  0  2  0  0  0  0  0  0
  185.7470  177.7300  143.5140 C   0  0  0  0  0  2  0  0  0  0  0  0
  186.6600  178.3520  147.0090 C   0  0  0  0  0  0  0  0  0  0  0  0
  183.6520  179.0870  145.3700 N   0  0  0  0  0  1  0  0  0  0  0  0
  187.5420  178.2410  148.0820 C   0  0  0  0  0  3  0  0  0  0  0  0
  188.7990  177.6570  147.8390 C   0  0  0  0  0  2  0  0  0  0  0  0
  188.2340  177.3210  145.4830 C   0  0  0  0  0  3  0  0  0  0  0  0
  184.9620  178.7120  145.7770 C   0  0  0  0  0  0  0  0  0  0  0  0
  185.4090  178.8520  147.0480 N   0  0  0  0  0  0  0  0  0  0  0  0
  189.1420  177.2000  146.5480 C   0  0  0  0  0  3  0  0  0  0  0  0
  185.9130  178.1380  144.9430 C   0  0  0  0  0  0  0  0  0  0  0  0
  186.9990  177.9080  145.7550 C   0  0  0  0  0  0  0  0  0  0  0  0
  187.7710  178.3670  140.0680 C   0  0  0  0  0  2  0  0  0  0  0  0
  188.2560  177.6250  138.8380 C   0  0  0  0  0  2  0  0  0  0  0  0
  189.7130  177.2400  139.0230 C   0  0  0  0  0  2  0  0  0  0  0  0
  191.2320  177.3710  140.8360 C   0  0  0  0  0  3  0  0  0  0  0  0
  190.0340  177.1610  140.4240 N   0  0  0  0  0  0  0  0  0  0  0  0
  191.5580  177.2900  142.2890 C   0  0  0  0  0  2  0  0  0  0  0  0
  190.6400  178.1960  143.0860 C   0  0  0  0  0  2  0  0  0  0  0  0
  191.4640  179.0470  144.0280 C   0  0  0  0  0  1  0  0  0  0  0  0
  1  5  1  0  0  0  0
  2 26  1  0  0  0  0
  2  5  2  0  0  0  0
  3  1  2  0  0  0  0
  4  6  2  0  0  0  0
  4  3  1  0  0  0  0
  5 14  1  0  0  0  0
  6  2  1  0  0  0  0
  8 10  1  0  0  0  0
  9  7  2  0  0  0  0
  9  8  1  0  0  0  0
 10  3  1  0  0  0  0
 10 11  2  0  0  0  0
 13 12  1  0  0  0  0
 13  9  1  0  0  0  0
 14 15  1  0  0  0  0
 15 24  1  0  0  0  0
 16 22  1  0  0  0  0
 16 18  2  0  0  0  0
 17 21  1  0  0  0  0
 19 18  1  0  0  0  0
 20 25  1  0  0  0  0
 20 23  2  0  0  0  0
 21 22  2  0  0  0  0
 23 19  1  0  0  0  0
 24 25  2  0  0  0  0
 24 21  1  0  0  0  0
 25 16  1  0  0  0  0
 27 28  1  0  0  0  0
 27 26  1  0  0  0  0
 28 30  1  0  0  0  0
 29 31  1  0  0  0  0
 30 29  2  0  0  0  0
 31 32  1  0  0  0  0
 32 33  1  0  0  0  0
M  END
>  <MODEL>
4

>  <REMARK>
 VINA RESULT:      -8.1      2.924      5.336
  Name = 
  11 active torsions:
  status: ('A' for Active; 'I' for Inactive)
    1  A    between atoms: C_1  and  C_10
    2  A    between atoms: C_1  and  N_26
    3  A    between atoms: C_6  and  C_8
    4  A    between atoms: C_7  and  C_15
    5  A    between atoms: C_7  and  C_25
    6  A    between atoms: C_8  and  C_10
    7  A    between atoms: C_11  and  C_19
    8  A    between atoms: C_12  and  C_16
    9  A    between atoms: C_15  and  C_32
   10  A    between atoms: C_17  and  C_29
   11  A    between atoms: C_21  and  C_29
                            x       y       z     vdW  Elec       q    Type
                         _______ _______ _______ _____ _____    ______ ____

>  <TORSDO>
F 11

$$$$
=
 OpenBabel10232409343D

 33 35  0  0  0  0  0  0  0  0999 V2000
  185.2700  177.8680  143.0230 C   0  0  0  0  0  3  0  0  0  0  0  0
  186.3730  178.1990  145.1590 C   0  0  0  0  0  0  0  0  0  0  0  0
  184.1210  178.5090  143.5020 C   0  0  0  0  0  0  0  0  0  0  0  0
  184.1130  179.0040  144.8130 C   0  0  0  0  0  3  0  0  0  0  0  0
  186.3930  177.7020  143.8410 C   0  0  0  0  0  0  0  0  0  0  0  0
  185.2290  178.8450  145.6370 C   0  0  0  0  0  3  0  0  0  0  0  0
  185.1050  179.6080  140.7720 N   0  0  0  0  0  2  0  0  0  0  0  0
  183.0500  178.5010  141.1890 N   0  0  0  0  0  2  0  0  0  0  0  0
  184.1840  178.7970  140.3650 C   0  0  0  0  0  0  0  0  0  0  0  0
  182.9660  178.7200  142.6030 C   0  0  0  0  0  0  0  0  0  0  0  0
  181.8550  179.0500  143.0970 O   0  0  0  0  0  0  0  0  0  0  0  0
  183.0400  177.3760  138.7200 C   0  0  0  0  0  1  0  0  0  0  0  0
  184.2410  178.2620  138.9780 C   0  0  0  0  0  2  0  0  0  0  0  0
  187.6150  177.0590  143.2590 C   0  0  0  0  0  2  0  0  0  0  0  0
  188.5560  178.0960  142.6540 C   0  0  0  0  0  2  0  0  0  0  0  0
  189.9850  176.7860  139.5440 C   0  0  0  0  0  0  0  0  0  0  0  0
  191.1640  176.4100  142.8210 N   0  0  0  0  0  1  0  0  0  0  0  0
  189.9390  176.5830  138.1660 C   0  0  0  0  0  3  0  0  0  0  0  0
  188.8800  177.1740  137.4510 C   0  0  0  0  0  3  0  0  0  0  0  0
  187.9690  178.1290  139.5110 C   0  0  0  0  0  3  0  0  0  0  0  0
  190.4950  176.7370  141.6090 C   0  0  0  0  0  0  0  0  0  0  0  0
  190.8970  176.2830  140.3980 N   0  0  0  0  0  2  0  0  0  0  0  0
  187.9020  177.9410  138.1200 C   0  0  0  0  0  3  0  0  0  0  0  0
  189.3490  177.5180  141.5260 C   0  0  0  0  0  0  0  0  0  0  0  0
  189.0330  177.5350  140.1890 C   0  0  0  0  0  0  0  0  0  0  0  0
  187.5450  178.0410  146.0720 C   0  0  0  0  0  2  0  0  0  0  0  0
  187.0800  178.0000  147.5140 C   0  0  0  0  0  2  0  0  0  0  0  0
  188.2800  177.8210  148.4260 C   0  0  0  0  0  2  0  0  0  0  0  0
  190.0350  176.7310  147.2680 C   0  0  0  0  0  3  0  0  0  0  0  0
  189.4970  177.8300  147.6580 N   0  0  0  0  0  0  0  0  0  0  0  0
  191.2940  176.7470  146.4690 C   0  0  0  0  0  2  0  0  0  0  0  0
  192.1810  175.5810  146.8610 C   0  0  0  0  0  2  0  0  0  0  0  0
  192.7440  175.8200  148.2460 C   0  0  0  0  0  1  0  0  0  0  0  0
  1  3  2  0  0  0  0
  1  5  1  0  0  0  0
  2  6  1  0  0  0  0
  2 26  1  0  0  0  0
  3  4  1  0  0  0  0
  4  6  2  0  0  0  0
  5  2  2  0  0  0  0
  8 10  1  0  0  0  0
  9  7  2  0  0  0  0
  9  8  1  0  0  0  0
 10 11  2  0  0  0  0
 10  3  1  0  0  0  0
 12 13  1  0  0  0  0
 13  9  1  0  0  0  0
 14  5  1  0  0  0  0
 15 14  1  0  0  0  0
 16 25  2  0  0  0  0
 16 22  1  0  0  0  0
 18 16  1  0  0  0  0
 19 23  1  0  0  0  0
 19 18  2  0  0  0  0
 20 25  1  0  0  0  0
 21 17  1  0  0  0  0
 22 21  1  0  0  0  0
 23 20  2  0  0  0  0
 24 21  2  0  0  0  0
 24 15  1  0  0  0  0
 25 24  1  0  0  0  0
 26 27  1  0  0  0  0
 27 28  1  0  0  0  0
 29 30  2  0  0  0  0
 30 28  1  0  0  0  0
 31 32  1  0  0  0  0
 31 29  1  0  0  0  0
 32 33  1  0  0  0  0
M  END
>  <MODEL>
5

>  <REMARK>
 VINA RESULT:      -8.1      2.452      5.681
  Name = 
  11 active torsions:
  status: ('A' for Active; 'I' for Inactive)
    1  A    between atoms: C_1  and  C_10
    2  A    between atoms: C_1  and  N_26
    3  A    between atoms: C_6  and  C_8
    4  A    between atoms: C_7  and  C_15
    5  A    between atoms: C_7  and  C_25
    6  A    between atoms: C_8  and  C_10
    7  A    between atoms: C_11  and  C_19
    8  A    between atoms: C_12  and  C_16
    9  A    between atoms: C_15  and  C_32
   10  A    between atoms: C_17  and  C_29
   11  A    between atoms: C_21  and  C_29
                            x       y       z     vdW  Elec       q    Type
                         _______ _______ _______ _____ _____    ______ ____

>  <TORSDO>
F 11

$$$$
=
 OpenBabel10232409343D

 33 35  0  0  0  0  0  0  0  0999 V2000
  188.0200  178.1230  140.4500 C   0  0  0  0  0  3  0  0  0  0  0  0
  189.6260  176.7950  141.6920 C   0  0  0  0  0  0  0  0  0  0  0  0
  188.8830  178.1610  139.3480 C   0  0  0  0  0  0  0  0  0  0  0  0
  190.1160  177.5000  139.4250 C   0  0  0  0  0  3  0  0  0  0  0  0
  188.3820  177.4520  141.6230 C   0  0  0  0  0  0  0  0  0  0  0  0
  190.4880  176.8280  140.5910 C   0  0  0  0  0  3  0  0  0  0  0  0
  187.4270  176.1260  137.5130 N   0  0  0  0  0  2  0  0  0  0  0  0
  187.2360  178.4890  137.4300 N   0  0  0  0  0  2  0  0  0  0  0  0
  186.6890  177.1690  137.3160 C   0  0  0  0  0  0  0  0  0  0  0  0
  188.4560  178.8300  138.1000 C   0  0  0  0  0  0  0  0  0  0  0  0
  189.1560  179.7690  137.6360 O   0  0  0  0  0  0  0  0  0  0  0  0
  184.7670  175.6400  137.2760 C   0  0  0  0  0  1  0  0  0  0  0  0
  185.2880  176.9960  136.8460 C   0  0  0  0  0  2  0  0  0  0  0  0
  187.3960  177.3960  142.7500 C   0  0  0  0  0  2  0  0  0  0  0  0
  186.7490  178.7570  142.9910 C   0  0  0  0  0  2  0  0  0  0  0  0
  183.1400  178.6750  142.3570 C   0  0  0  0  0  0  0  0  0  0  0  0
  184.8210  178.6950  145.4320 N   0  0  0  0  0  1  0  0  0  0  0  0
  182.0480  178.7100  141.4920 C   0  0  0  0  0  3  0  0  0  0  0  0
  182.3080  178.7390  140.1090 C   0  0  0  0  0  3  0  0  0  0  0  0
  184.7190  178.7010  140.5210 C   0  0  0  0  0  3  0  0  0  0  0  0
  184.3990  178.6650  144.0730 C   0  0  0  0  0  0  0  0  0  0  0  0
  183.0960  178.6730  143.7040 N   0  0  0  0  0  2  0  0  0  0  0  0
  183.6350  178.7350  139.6280 C   0  0  0  0  0  3  0  0  0  0  0  0
  185.2570  178.6570  142.9810 C   0  0  0  0  0  0  0  0  0  0  0  0
  184.4280  178.6680  141.8840 C   0  0  0  0  0  0  0  0  0  0  0  0
  190.0600  176.0720  142.9250 C   0  0  0  0  0  2  0  0  0  0  0  0
  191.3860  176.6230  143.4120 C   0  0  0  0  0  2  0  0  0  0  0  0
  191.2500  177.0640  144.8580 C   0  0  0  0  0  2  0  0  0  0  0  0
  189.2880  177.7650  145.9840 C   0  0  0  0  0  3  0  0  0  0  0  0
  189.9020  176.8550  145.3180 N   0  0  0  0  0  0  0  0  0  0  0  0
  187.8900  177.5450  146.4550 C   0  0  0  0  0  2  0  0  0  0  0  0
  187.7170  178.0840  147.8620 C   0  0  0  0  0  2  0  0  0  0  0  0
  189.0730  178.2200  148.5200 C   0  0  0  0  0  1  0  0  0  0  0  0
  1  5  1  0  0  0  0
  2 26  1  0  0  0  0
  3  4  1  0  0  0  0
  3  1  2  0  0  0  0
  4  6  2  0  0  0  0
  5  2  2  0  0  0  0
  5 14  1  0  0  0  0
  6  2  1  0  0  0  0
  8 10  1  0  0  0  0
  9  8  1  0  0  0  0
  9  7  2  0  0  0  0
 10  3  1  0  0  0  0
 11 10  2  0  0  0  0
 13 12  1  0  0  0  0
 13  9  1  0  0  0  0
 14 15  1  0  0  0  0
 16 22  1  0  0  0  0
 18 16  1  0  0  0  0
 19 18  2  0  0  0  0
 20 25  1  0  0  0  0
 21 17  1  0  0  0  0
 22 21  1  0  0  0  0
 23 19  1  0  0  0  0
 23 20  2  0  0  0  0
 24 15  1  0  0  0  0
 24 21  2  0  0  0  0
 25 16  2  0  0  0  0
 25 24  1  0  0  0  0
 26 27  1  0  0  0  0
 27 28  1  0  0  0  0
 28 30  1  0  0  0  0
 29 31  1  0  0  0  0
 30 29  2  0  0  0  0
 31 32  1  0  0  0  0
 32 33  1  0  0  0  0
M  END
>  <MODEL>
6

>  <REMARK>
 VINA RESULT:      -8.0      0.947      1.333
  Name = 
  11 active torsions:
  status: ('A' for Active; 'I' for Inactive)
    1  A    between atoms: C_1  and  C_10
    2  A    between atoms: C_1  and  N_26
    3  A    between atoms: C_6  and  C_8
    4  A    between atoms: C_7  and  C_15
    5  A    between atoms: C_7  and  C_25
    6  A    between atoms: C_8  and  C_10
    7  A    between atoms: C_11  and  C_19
    8  A    between atoms: C_12  and  C_16
    9  A    between atoms: C_15  and  C_32
   10  A    between atoms: C_17  and  C_29
   11  A    between atoms: C_21  and  C_29
                            x       y       z     vdW  Elec       q    Type
                         _______ _______ _______ _____ _____    ______ ____

>  <TORSDO>
F 11

$$$$
=
 OpenBabel10232409343D

 33 35  0  0  0  0  0  0  0  0999 V2000
  185.6680  178.3930  141.3290 C   0  0  0  0  0  3  0  0  0  0  0  0
  185.4040  178.2260  143.7350 C   0  0  0  0  0  0  0  0  0  0  0  0
  184.3610  178.8820  141.2060 C   0  0  0  0  0  0  0  0  0  0  0  0
  183.5860  179.0510  142.3610 C   0  0  0  0  0  3  0  0  0  0  0  0
  186.1940  178.0570  142.5810 C   0  0  0  0  0  0  0  0  0  0  0  0
  184.1010  178.7200  143.6150 C   0  0  0  0  0  3  0  0  0  0  0  0
  182.8670  176.4950  139.9040 N   0  0  0  0  0  2  0  0  0  0  0  0
  182.6000  178.7890  139.3660 N   0  0  0  0  0  2  0  0  0  0  0  0
  182.0880  177.4640  139.5490 C   0  0  0  0  0  0  0  0  0  0  0  0
  183.8450  179.2800  139.8790 C   0  0  0  0  0  0  0  0  0  0  0  0
  184.4890  180.1210  139.1960 O   0  0  0  0  0  0  0  0  0  0  0  0
  180.0310  176.3640  140.3200 C   0  0  0  0  0  1  0  0  0  0  0  0
  180.6690  177.1740  139.2100 C   0  0  0  0  0  2  0  0  0  0  0  0
  187.6160  177.5930  142.6590 C   0  0  0  0  0  2  0  0  0  0  0  0
  188.5480  178.5190  141.8840 C   0  0  0  0  0  2  0  0  0  0  0  0
  190.1720  176.8860  139.0330 C   0  0  0  0  0  0  0  0  0  0  0  0
  190.5770  176.2300  142.4510 N   0  0  0  0  0  1  0  0  0  0  0  0
  190.3400  176.6980  137.6620 C   0  0  0  0  0  3  0  0  0  0  0  0
  189.6150  177.5360  136.7930 C   0  0  0  0  0  3  0  0  0  0  0  0
  188.5960  178.6930  138.6910 C   0  0  0  0  0  3  0  0  0  0  0  0
  190.2520  176.7130  141.1530 C   0  0  0  0  0  0  0  0  0  0  0  0
  190.7520  176.1710  140.0170 N   0  0  0  0  0  2  0  0  0  0  0  0
  188.7490  178.5260  137.3050 C   0  0  0  0  0  3  0  0  0  0  0  0
  189.3730  177.7570  140.8960 C   0  0  0  0  0  0  0  0  0  0  0  0
  189.3300  177.8520  139.5250 C   0  0  0  0  0  0  0  0  0  0  0  0
  185.9200  177.8760  145.0930 C   0  0  0  0  0  2  0  0  0  0  0  0
  184.9640  178.3770  146.1580 C   0  0  0  0  0  2  0  0  0  0  0  0
  185.7520  178.7920  147.3870 C   0  0  0  0  0  2  0  0  0  0  0  0
  187.8620  178.1500  148.2490 C   0  0  0  0  0  3  0  0  0  0  0  0
  187.1410  178.4490  147.2300 N   0  0  0  0  0  0  0  0  0  0  0  0
  189.3000  177.7910  148.0790 C   0  0  0  0  0  2  0  0  0  0  0  0
  189.4770  176.8760  146.8830 C   0  0  0  0  0  2  0  0  0  0  0  0
  189.8730  177.6960  145.6750 C   0  0  0  0  0  1  0  0  0  0  0  0
  1  5  1  0  0  0  0
  2 26  1  0  0  0  0
  3  1  2  0  0  0  0
  3  4  1  0  0  0  0
  4  6  2  0  0  0  0
  5 14  1  0  0  0  0
  5  2  2  0  0  0  0
  6  2  1  0  0  0  0
  8  9  1  0  0  0  0
  8 10  1  0  0  0  0
  9  7  2  0  0  0  0
 10  3  1  0  0  0  0
 11 10  2  0  0  0  0
 13  9  1  0  0  0  0
 13 12  1  0  0  0  0
 15 14  1  0  0  0  0
 16 25  2  0  0  0  0
 16 22  1  0  0  0  0
 18 16  1  0  0  0  0
 19 23  1  0  0  0  0
 19 18  2  0  0  0  0
 20 25  1  0  0  0  0
 21 17  1  0  0  0  0
 22 21  1  0  0  0  0
 23 20  2  0  0  0  0
 24 21  2  0  0  0  0
 24 15  1  0  0  0  0
 25 24  1  0  0  0  0
 26 27  1  0  0  0  0
 27 28  1  0  0  0  0
 30 28  1  0  0  0  0
 30 29  2  0  0  0  0
 31 29  1  0  0  0  0
 32 31  1  0  0  0  0
 33 32  1  0  0  0  0
M  END
>  <MODEL>
7

>  <REMARK>
 VINA RESULT:      -8.0      2.280      5.782
  Name = 
  11 active torsions:
  status: ('A' for Active; 'I' for Inactive)
    1  A    between atoms: C_1  and  C_10
    2  A    between atoms: C_1  and  N_26
    3  A    between atoms: C_6  and  C_8
    4  A    between atoms: C_7  and  C_15
    5  A    between atoms: C_7  and  C_25
    6  A    between atoms: C_8  and  C_10
    7  A    between atoms: C_11  and  C_19
    8  A    between atoms: C_12  and  C_16
    9  A    between atoms: C_15  and  C_32
   10  A    between atoms: C_17  and  C_29
   11  A    between atoms: C_21  and  C_29
                            x       y       z     vdW  Elec       q    Type
                         _______ _______ _______ _____ _____    ______ ____

>  <TORSDO>
F 11

$$$$
=
 OpenBabel10232409343D

 33 35  0  0  0  0  0  0  0  0999 V2000
  188.4360  178.3890  139.8370 C   0  0  0  0  0  3  0  0  0  0  0  0
  189.9560  176.9300  141.0420 C   0  0  0  0  0  0  0  0  0  0  0  0
  189.0050  177.9980  138.6190 C   0  0  0  0  0  0  0  0  0  0  0  0
  190.0450  177.0600  138.6230 C   0  0  0  0  0  3  0  0  0  0  0  0
  188.9060  177.8690  141.0490 C   0  0  0  0  0  0  0  0  0  0  0  0
  190.5210  176.5340  139.8250 C   0  0  0  0  0  3  0  0  0  0  0  0
  187.0840  175.9060  137.3700 N   0  0  0  0  0  2  0  0  0  0  0  0
  187.1180  178.2350  136.9210 N   0  0  0  0  0  2  0  0  0  0  0  0
  186.4310  176.9910  137.1060 C   0  0  0  0  0  0  0  0  0  0  0  0
  188.4570  178.5200  137.3490 C   0  0  0  0  0  0  0  0  0  0  0  0
  189.1650  179.2850  136.6420 O   0  0  0  0  0  0  0  0  0  0  0  0
  184.4380  175.5700  137.2990 C   0  0  0  0  0  1  0  0  0  0  0  0
  184.9640  176.9240  136.8700 C   0  0  0  0  0  2  0  0  0  0  0  0
  188.2230  178.2800  142.3170 C   0  0  0  0  0  2  0  0  0  0  0  0
  186.9420  177.4820  142.5430 C   0  0  0  0  0  2  0  0  0  0  0  0
  185.4330  178.5610  145.7050 C   0  0  0  0  0  0  0  0  0  0  0  0
  184.0420  178.6080  142.4890 N   0  0  0  0  0  1  0  0  0  0  0  0
  185.4650  178.7020  147.0910 C   0  0  0  0  0  3  0  0  0  0  0  0
  186.6450  178.3290  147.7600 C   0  0  0  0  0  2  0  0  0  0  0  0
  187.6940  177.6920  145.6440 C   0  0  0  0  0  3  0  0  0  0  0  0
  184.8440  178.5070  143.6600 C   0  0  0  0  0  0  0  0  0  0  0  0
  184.3920  178.8350  144.8950 N   0  0  0  0  0  0  0  0  0  0  0  0
  187.7520  177.8280  147.0410 C   0  0  0  0  0  3  0  0  0  0  0  0
  186.1500  178.0370  143.6850 C   0  0  0  0  0  0  0  0  0  0  0  0
  186.5130  178.0750  145.0100 C   0  0  0  0  0  0  0  0  0  0  0  0
  190.4960  176.3520  142.3090 C   0  0  0  0  0  2  0  0  0  0  0  0
  191.8140  177.0120  142.6620 C   0  0  0  0  0  2  0  0  0  0  0  0
  191.5570  178.1900  143.5860 C   0  0  0  0  0  2  0  0  0  0  0  0
  191.6340  177.1190  145.6960 C   0  0  0  0  0  3  0  0  0  0  0  0
  190.9460  177.7400  144.8090 N   0  0  0  0  0  0  0  0  0  0  0  0
  190.9960  176.6590  146.9640 C   0  0  0  0  0  2  0  0  0  0  0  0
  191.6800  175.4040  147.4730 C   0  0  0  0  0  2  0  0  0  0  0  0
  192.8160  175.7890  148.3960 C   0  0  0  0  0  1  0  0  0  0  0  0
  1  5  1  0  0  0  0
  2  5  2  0  0  0  0
  2 26  1  0  0  0  0
  3  4  1  0  0  0  0
  3  1  2  0  0  0  0
  4  6  2  0  0  0  0
  5 14  1  0  0  0  0
  6  2  1  0  0  0  0
  8  9  1  0  0  0  0
  8 10  1  0  0  0  0
  9  7  2  0  0  0  0
 10  3  1  0  0  0  0
 11 10  2  0  0  0  0
 13  9  1  0  0  0  0
 13 12  1  0  0  0  0
 14 15  1  0  0  0  0
 15 24  1  0  0  0  0
 16 18  2  0  0  0  0
 17 21  1  0  0  0  0
 18 19  1  0  0  0  0
 20 23  2  0  0  0  0
 21 24  1  0  0  0  0
 21 22  2  0  0  0  0
 22 16  1  0  0  0  0
 23 19  1  0  0  0  0
 24 25  2  0  0  0  0
 25 20  1  0  0  0  0
 25 16  1  0  0  0  0
 26 27  1  0  0  0  0
 27 28  1  0  0  0  0
 28 30  1  0  0  0  0
 29 31  1  0  0  0  0
 30 29  2  0  0  0  0
 31 32  1  0  0  0  0
 32 33  1  0  0  0  0
M  END
>  <MODEL>
8

>  <REMARK>
 VINA RESULT:      -8.0      1.356      2.705
  Name = 
  11 active torsions:
  status: ('A' for Active; 'I' for Inactive)
    1  A    between atoms: C_1  and  C_10
    2  A    between atoms: C_1  and  N_26
    3  A    between atoms: C_6  and  C_8
    4  A    between atoms: C_7  and  C_15
    5  A    between atoms: C_7  and  C_25
    6  A    between atoms: C_8  and  C_10
    7  A    between atoms: C_11  and  C_19
    8  A    between atoms: C_12  and  C_16
    9  A    between atoms: C_15  and  C_32
   10  A    between atoms: C_17  and  C_29
   11  A    between atoms: C_21  and  C_29
                            x       y       z     vdW  Elec       q    Type
                         _______ _______ _______ _____ _____    ______ ____

>  <TORSDO>
F 11

$$$$
=
 OpenBabel10232409343D

 33 35  0  0  0  0  0  0  0  0999 V2000
  191.0250  177.1940  140.3210 C   0  0  0  0  0  3  0  0  0  0  0  0
  188.7340  177.9600  140.0860 C   0  0  0  0  0  0  0  0  0  0  0  0
  191.1120  176.9910  138.9380 C   0  0  0  0  0  0  0  0  0  0  0  0
  190.0040  177.2870  138.1340 C   0  0  0  0  0  3  0  0  0  0  0  0
  189.8450  177.6700  140.9030 C   0  0  0  0  0  0  0  0  0  0  0  0
  188.8210  177.7620  138.7040 C   0  0  0  0  0  3  0  0  0  0  0  0
  190.7520  174.1600  137.7200 N   0  0  0  0  0  2  0  0  0  0  0  0
  192.4290  175.7370  137.1520 N   0  0  0  0  0  2  0  0  0  0  0  0
  191.5040  174.6960  136.8150 C   0  0  0  0  0  0  0  0  0  0  0  0
  192.3860  176.5390  138.3390 C   0  0  0  0  0  0  0  0  0  0  0  0
  193.4740  176.9140  138.8530 O   0  0  0  0  0  0  0  0  0  0  0  0
  190.3210  174.7040  134.6630 C   0  0  0  0  0  1  0  0  0  0  0  0
  191.4970  174.1410  135.4350 C   0  0  0  0  0  2  0  0  0  0  0  0
  189.8260  177.9220  142.3790 C   0  0  0  0  0  2  0  0  0  0  0  0
  189.2310  176.7410  143.1390 C   0  0  0  0  0  2  0  0  0  0  0  0
  189.3650  177.3150  146.7570 C   0  0  0  0  0  0  0  0  0  0  0  0
  191.9190  176.2280  144.6190 N   0  0  0  0  0  1  0  0  0  0  0  0
  188.7860  177.7400  147.9510 C   0  0  0  0  0  3  0  0  0  0  0  0
  187.4340  178.1330  147.9200 C   0  0  0  0  0  2  0  0  0  0  0  0
  187.3100  177.6650  145.5230 C   0  0  0  0  0  3  0  0  0  0  0  0
  190.7180  176.6470  145.2560 C   0  0  0  0  0  0  0  0  0  0  0  0
  190.6440  176.9300  146.5780 N   0  0  0  0  0  0  0  0  0  0  0  0
  186.7020  178.0950  146.7140 C   0  0  0  0  0  3  0  0  0  0  0  0
  189.5060  176.8440  144.6060 C   0  0  0  0  0  0  0  0  0  0  0  0
  188.6470  177.2780  145.5870 C   0  0  0  0  0  0  0  0  0  0  0  0
  187.4500  178.4620  140.6620 C   0  0  0  0  0  2  0  0  0  0  0  0
  186.3570  178.4200  139.6130 C   0  0  0  0  0  2  0  0  0  0  0  0
  185.0020  178.5080  140.2920 C   0  0  0  0  0  2  0  0  0  0  0  0
  184.4300  178.8110  142.5690 C   0  0  0  0  0  3  0  0  0  0  0  0
  185.1200  179.1880  141.5550 N   0  0  0  0  0  0  0  0  0  0  0  0
  184.5590  179.5180  143.8770 C   0  0  0  0  0  2  0  0  0  0  0  0
  183.4930  179.0370  144.8430 C   0  0  0  0  0  2  0  0  0  0  0  0
  182.2050  178.7870  144.0880 C   0  0  0  0  0  1  0  0  0  0  0  0
  1  5  1  0  0  0  0
  2 26  1  0  0  0  0
  2  5  2  0  0  0  0
  3  1  2  0  0  0  0
  4  6  2  0  0  0  0
  4  3  1  0  0  0  0
  5 14  1  0  0  0  0
  6  2  1  0  0  0  0
  8 10  1  0  0  0  0
  9  8  1  0  0  0  0
  9  7  2  0  0  0  0
 10 11  2  0  0  0  0
 10  3  1  0  0  0  0
 12 13  1  0  0  0  0
 13  9  1  0  0  0  0
 14 15  1  0  0  0  0
 15 24  1  0  0  0  0
 16 18  2  0  0  0  0
 17 21  1  0  0  0  0
 19 18  1  0  0  0  0
 20 25  1  0  0  0  0
 20 23  2  0  0  0  0
 21 22  2  0  0  0  0
 22 16  1  0  0  0  0
 23 19  1  0  0  0  0
 24 21  1  0  0  0  0
 24 25  2  0  0  0  0
 25 16  1  0  0  0  0
 27 28  1  0  0  0  0
 27 26  1  0  0  0  0
 28 30  1  0  0  0  0
 29 31  1  0  0  0  0
 30 29  2  0  0  0  0
 31 32  1  0  0  0  0
 33 32  1  0  0  0  0
M  END
>  <MODEL>
9

>  <REMARK>
 VINA RESULT:      -7.9      2.554      5.747
  Name = 
  11 active torsions:
  status: ('A' for Active; 'I' for Inactive)
    1  A    between atoms: C_1  and  C_10
    2  A    between atoms: C_1  and  N_26
    3  A    between atoms: C_6  and  C_8
    4  A    between atoms: C_7  and  C_15
    5  A    between atoms: C_7  and  C_25
    6  A    between atoms: C_8  and  C_10
    7  A    between atoms: C_11  and  C_19
    8  A    between atoms: C_12  and  C_16
    9  A    between atoms: C_15  and  C_32
   10  A    between atoms: C_17  and  C_29
   11  A    between atoms: C_21  and  C_29
                            x       y       z     vdW  Elec       q    Type
                         _______ _______ _______ _____ _____    ______ ____

>  <TORSDO>
F 11

$$$$
