=
 OpenBabel10232411373D

 27 32  0  0  1  0  0  0  0  0999 V2000
  189.5390  177.3290  141.6010 N   0  0  0  0  0  0  0  0  0  0  0  0
  187.9320  176.5000  143.2190 C   0  0  0  0  0  2  0  0  0  0  0  0
  184.1870  178.5770  145.9510 C   0  0  0  0  0  3  0  0  0  0  0  0
  186.8750  178.2460  145.3790 C   0  0  0  0  0  0  0  0  0  0  0  0
  191.1280  175.8180  144.5290 C   0  0  0  0  0  2  0  0  0  0  0  0
  192.6380  175.3430  146.4880 C   0  0  0  0  0  3  0  0  0  0  0  0
  190.6050  177.2930  142.5630 C   0  0  0  0  0  0  0  0  0  0  0  0
  186.4010  178.1790  146.6800 C   0  0  0  0  0  0  0  0  0  0  0  0
  191.2050  176.9620  146.9340 C   0  0  0  0  0  0  0  0  0  0  0  0
  185.0800  178.3450  146.9520 N   0  0  0  0  0  0  0  0  0  0  0  0
  188.3590  178.1320  145.2270 C   0  0  2  0  0  3  0  0  0  0  0  0
  188.8270  176.8970  144.4000 C   0  0  2  0  0  3  0  0  0  0  0  0
  185.9840  178.5210  144.3390 C   0  0  0  0  0  3  0  0  0  0  0  0
  190.3250  177.0160  144.0170 C   0  0  1  0  0  3  0  0  0  0  0  0
  188.1590  177.4370  142.0470 C   0  0  0  0  0  2  0  0  0  0  0  0
  191.7940  177.4930  142.1940 O   0  0  0  0  0  0  0  0  0  0  0  0
  187.6290  178.0120  147.9510 S   0  0  0  0  0  0  0  0  0  0  0  0
  190.0460  177.5500  146.8890 C   0  0  0  0  0  0  0  0  0  0  0  0
  184.6240  178.6740  144.6240 C   0  0  0  0  0  3  0  0  0  0  0  0
  192.7650  175.7630  147.8530 N   0  0  0  0  0  0  0  0  0  0  0  0
  191.6930  176.0650  145.9020 C   0  0  0  0  0  0  0  0  0  0  0  0
  191.9240  176.6790  148.1200 N   0  0  0  0  0  0  0  0  0  0  0  0
  188.8710  178.0610  146.6560 C   0  0  0  0  0  0  0  0  0  0  0  0
  189.8080  177.3530  140.1710 C   0  0  0  0  0  2  0  0  0  0  0  0
  188.7360  178.1470  139.4450 C   0  0  0  0  0  3  0  0  0  0  0  0
  188.2200  177.3320  138.2800 C   0  0  0  0  0  2  0  0  0  0  0  0
  189.2070  178.4540  138.0390 C   0  0  0  0  0  2  0  0  0  0  0  0
  1 15  1  0  0  0  0
  1  7  1  0  0  0  0
  3 10  1  0  0  0  0
  4  8  1  0  0  0  0
  5 21  1  0  0  0  0
  6 20  1  0  0  0  0
  7 14  1  0  0  0  0
  8 10  2  0  0  0  0
  8 17  1  0  0  0  0
  9 22  1  0  0  0  0
 11  4  1  1  0  0  0
 11 23  1  0  0  0  0
 12  2  1  6  0  0  0
 12 11  1  0  0  0  0
 13 19  1  0  0  0  0
 13  4  2  0  0  0  0
 14 12  1  0  0  0  0
 14  5  1  6  0  0  0
 15  2  1  0  0  0  0
 16  7  2  0  0  0  0
 18  9  2  0  0  0  0
 19  3  2  0  0  0  0
 20 22  2  0  0  0  0
 21  6  2  0  0  0  0
 21  9  1  0  0  0  0
 23 18  2  0  0  0  0
 23 17  1  0  0  0  0
 24  1  1  0  0  0  0
 25 24  1  0  0  0  0
 26 25  1  0  0  0  0
 27 26  1  0  0  0  0
 27 25  1  0  0  0  0
M  END
>  <MODEL>
1

>  <REMARK>
 VINA RESULT:     -10.4      0.000      0.000
  Name = 
  2 active torsions:
  status: ('A' for Active; 'I' for Inactive)
    1  A    between atoms: C_1  and  N_2
    2  A    between atoms: C_1  and  C_5
                            x       y       z     vdW  Elec       q    Type
                         _______ _______ _______ _____ _____    ______ ____

>  <TORSDO>
F 2

$$$$
=
 OpenBabel10232411373D

 27 32  0  0  1  0  0  0  0  0999 V2000
  190.9170  177.1710  144.3490 N   0  0  0  0  0  0  0  0  0  0  0  0
  190.1070  175.9830  142.3950 C   0  0  0  0  0  2  0  0  0  0  0  0
  190.8590  176.3750  137.3850 C   0  0  0  0  0  3  0  0  0  0  0  0
  189.8300  177.3430  139.7660 C   0  0  0  0  0  0  0  0  0  0  0  0
  187.2750  177.2860  144.0300 C   0  0  0  0  0  2  0  0  0  0  0  0
  184.8720  178.0380  143.9850 C   0  0  0  0  0  3  0  0  0  0  0  0
  189.6710  177.8700  144.5050 C   0  0  0  0  0  0  0  0  0  0  0  0
  189.0630  177.3050  138.6130 C   0  0  0  0  0  0  0  0  0  0  0  0
  185.9870  178.7620  142.2240 C   0  0  0  0  0  0  0  0  0  0  0  0
  189.5770  176.8310  137.4470 N   0  0  0  0  0  0  0  0  0  0  0  0
  189.1720  177.9680  140.9570 C   0  0  2  0  0  3  0  0  0  0  0  0
  188.9840  177.0020  142.1660 C   0  0  2  0  0  3  0  0  0  0  0  0
  191.1600  176.9170  139.7200 C   0  0  0  0  0  3  0  0  0  0  0  0
  188.6000  177.7840  143.4500 C   0  0  1  0  0  3  0  0  0  0  0  0
  191.3030  176.6520  143.0470 C   0  0  0  0  0  2  0  0  0  0  0  0
  189.4640  178.5660  145.5360 O   0  0  0  0  0  0  0  0  0  0  0  0
  187.4490  178.0370  138.7220 S   0  0  0  0  0  0  0  0  0  0  0  0
  186.8550  178.6610  141.2600 C   0  0  0  0  0  0  0  0  0  0  0  0
  191.6760  176.4150  138.5220 C   0  0  0  0  0  3  0  0  0  0  0  0
  183.9940  178.7260  143.0850 N   0  0  0  0  0  0  0  0  0  0  0  0
  186.0980  178.0500  143.4840 C   0  0  0  0  0  0  0  0  0  0  0  0
  184.6290  179.1230  142.0570 N   0  0  0  0  0  0  0  0  0  0  0  0
  187.8330  178.4490  140.4260 C   0  0  0  0  0  0  0  0  0  0  0  0
  191.8590  177.0430  145.4520 C   0  0  0  0  0  2  0  0  0  0  0  0
  191.6190  175.7450  146.2020 C   0  0  0  0  0  3  0  0  0  0  0  0
  190.8650  176.0440  147.4790 C   0  0  0  0  0  2  0  0  0  0  0  0
  192.3570  175.7880  147.5240 C   0  0  0  0  0  2  0  0  0  0  0  0
  1  7  1  0  0  0  0
  1 24  1  0  0  0  0
  2 15  1  0  0  0  0
  3 10  2  0  0  0  0
  3 19  1  0  0  0  0
  7 16  2  0  0  0  0
  8 17  1  0  0  0  0
  8  4  2  0  0  0  0
  9 21  1  0  0  0  0
 10  8  1  0  0  0  0
 11  4  1  6  0  0  0
 11 12  1  0  0  0  0
 12  2  1  1  0  0  0
 12 14  1  0  0  0  0
 13  4  1  0  0  0  0
 14  5  1  1  0  0  0
 14  7  1  0  0  0  0
 15  1  1  0  0  0  0
 17 23  1  0  0  0  0
 18  9  2  0  0  0  0
 19 13  2  0  0  0  0
 20  6  1  0  0  0  0
 21  6  2  0  0  0  0
 21  5  1  0  0  0  0
 22  9  1  0  0  0  0
 22 20  2  0  0  0  0
 23 11  1  0  0  0  0
 23 18  2  0  0  0  0
 24 25  1  0  0  0  0
 25 26  1  0  0  0  0
 25 27  1  0  0  0  0
 26 27  1  0  0  0  0
M  END
>  <MODEL>
2

>  <REMARK>
 VINA RESULT:      -9.1      2.822      7.250
  Name = 
  2 active torsions:
  status: ('A' for Active; 'I' for Inactive)
    1  A    between atoms: C_1  and  N_2
    2  A    between atoms: C_1  and  C_5
                            x       y       z     vdW  Elec       q    Type
                         _______ _______ _______ _____ _____    ______ ____

>  <TORSDO>
F 2

$$$$
=
 OpenBabel10232411373D

 27 32  0  0  1  0  0  0  0  0999 V2000
  190.7880  177.2640  140.5660 N   0  0  0  0  0  0  0  0  0  0  0  0
  190.7010  178.3560  142.7310 C   0  0  0  0  0  2  0  0  0  0  0  0
  191.2410  176.8320  147.5470 C   0  0  0  0  0  3  0  0  0  0  0  0
  189.8310  176.8900  145.1660 C   0  0  0  0  0  0  0  0  0  0  0  0
  187.5700  178.8780  141.2100 C   0  0  0  0  0  2  0  0  0  0  0  0
  185.1090  179.3890  141.3800 C   0  0  0  0  0  3  0  0  0  0  0  0
  189.3570  177.2920  140.4360 C   0  0  0  0  0  0  0  0  0  0  0  0
  189.2010  177.1050  146.3810 C   0  0  0  0  0  0  0  0  0  0  0  0
  185.7500  177.9380  142.9140 C   0  0  0  0  0  0  0  0  0  0  0  0
  189.9010  177.0720  147.5460 N   0  0  0  0  0  0  0  0  0  0  0  0
  188.9320  176.8680  143.9690 C   0  0  2  0  0  3  0  0  0  0  0  0
  189.2250  177.9870  142.9250 C   0  0  2  0  0  3  0  0  0  0  0  0
  191.1980  176.6040  145.1430 C   0  0  0  0  0  3  0  0  0  0  0  0
  188.4850  177.7120  141.5900 C   0  0  1  0  0  3  0  0  0  0  0  0
  191.4000  177.3090  141.8840 C   0  0  0  0  0  2  0  0  0  0  0  0
  188.8170  176.9640  139.3450 O   0  0  0  0  0  0  0  0  0  0  0  0
  187.4350  177.2770  146.3270 S   0  0  0  0  0  0  0  0  0  0  0  0
  186.5690  177.4450  143.7960 C   0  0  0  0  0  0  0  0  0  0  0  0
  191.9140  176.5880  146.3430 C   0  0  0  0  0  3  0  0  0  0  0  0
  184.0210  179.0760  142.2590 N   0  0  0  0  0  0  0  0  0  0  0  0
  186.1780  178.7020  141.7570 C   0  0  0  0  0  0  0  0  0  0  0  0
  184.3940  178.2590  143.1590 N   0  0  0  0  0  0  0  0  0  0  0  0
  187.5370  177.0160  144.5540 C   0  0  0  0  0  0  0  0  0  0  0  0
  191.6520  177.0980  139.4060 C   0  0  0  0  0  2  0  0  0  0  0  0
  191.2640  175.8490  138.6340 C   0  0  0  0  0  3  0  0  0  0  0  0
  192.4590  175.3660  137.8420 C   0  0  0  0  0  2  0  0  0  0  0  0
  191.3520  176.1330  137.1480 C   0  0  0  0  0  2  0  0  0  0  0  0
  1 15  1  0  0  0  0
  4  8  1  0  0  0  0
  5 21  1  0  0  0  0
  6 21  2  0  0  0  0
  6 20  1  0  0  0  0
  7  1  1  0  0  0  0
  7 14  1  0  0  0  0
  8 10  2  0  0  0  0
  9 22  1  0  0  0  0
  9 18  2  0  0  0  0
 10  3  1  0  0  0  0
 11 23  1  1  0  0  0
 11  4  1  0  0  0  0
 12  2  1  6  0  0  0
 12 11  1  0  0  0  0
 13  4  2  0  0  0  0
 13 19  1  0  0  0  0
 14  5  1  6  0  0  0
 14 12  1  0  0  0  0
 15  2  1  0  0  0  0
 16  7  2  0  0  0  0
 17  8  1  0  0  0  0
 18 23  2  0  0  0  0
 19  3  2  0  0  0  0
 20 22  2  0  0  0  0
 21  9  1  0  0  0  0
 23 17  1  0  0  0  0
 24  1  1  0  0  0  0
 25 24  1  0  0  0  0
 26 25  1  0  0  0  0
 27 26  1  0  0  0  0
 27 25  1  0  0  0  0
M  END
>  <MODEL>
3

>  <REMARK>
 VINA RESULT:      -8.7      2.269      5.356
  Name = 
  2 active torsions:
  status: ('A' for Active; 'I' for Inactive)
    1  A    between atoms: C_1  and  N_2
    2  A    between atoms: C_1  and  C_5
                            x       y       z     vdW  Elec       q    Type
                         _______ _______ _______ _____ _____    ______ ____

>  <TORSDO>
F 2

$$$$
=
 OpenBabel10232411373D

 27 32  0  0  1  0  0  0  0  0999 V2000
  185.6600  178.4540  142.2620 N   0  0  0  0  0  0  0  0  0  0  0  0
  186.8270  176.8610  143.6720 C   0  0  0  0  0  2  0  0  0  0  0  0
  189.0610  177.0630  148.2300 C   0  0  0  0  0  3  0  0  0  0  0  0
  188.9620  177.7350  145.5470 C   0  0  0  0  0  0  0  0  0  0  0  0
  188.6090  177.0210  140.6400 C   0  0  0  0  0  2  0  0  0  0  0  0
  190.7360  176.7040  139.3290 C   0  0  0  0  0  3  0  0  0  0  0  0
  186.7910  178.5860  141.3850 C   0  0  0  0  0  0  0  0  0  0  0  0
  190.1310  177.2750  146.1320 C   0  0  0  0  0  0  0  0  0  0  0  0
  191.1150  177.6570  141.2830 C   0  0  0  0  0  0  0  0  0  0  0  0
  190.1710  176.9500  147.4510 N   0  0  0  0  0  0  0  0  0  0  0  0
  189.0760  178.1390  144.1100 C   0  0  2  0  0  3  0  0  0  0  0  0
  188.1960  177.2990  143.1360 C   0  0  2  0  0  3  0  0  0  0  0  0
  187.8180  177.8950  146.3330 C   0  0  0  0  0  3  0  0  0  0  0  0
  188.1180  177.9670  141.7380 C   0  0  1  0  0  3  0  0  0  0  0  0
  185.8510  178.0230  143.6370 C   0  0  0  0  0  2  0  0  0  0  0  0
  186.6790  179.2260  140.3050 O   0  0  0  0  0  0  0  0  0  0  0  0
  191.5760  177.2810  145.1000 S   0  0  0  0  0  0  0  0  0  0  0  0
  190.9320  177.8360  142.5580 C   0  0  0  0  0  0  0  0  0  0  0  0
  187.8630  177.5420  147.6860 C   0  0  0  0  0  3  0  0  0  0  0  0
  192.1430  176.8800  139.5360 N   0  0  0  0  0  0  0  0  0  0  0  0
  190.0840  177.1760  140.3820 C   0  0  0  0  0  0  0  0  0  0  0  0
  192.3660  177.4060  140.6720 N   0  0  0  0  0  0  0  0  0  0  0  0
  190.5530  177.9710  143.7970 C   0  0  0  0  0  0  0  0  0  0  0  0
  184.3200  178.8300  141.8340 C   0  0  0  0  0  2  0  0  0  0  0  0
  183.6770  177.6960  141.0540 C   0  0  0  0  0  3  0  0  0  0  0  0
  183.3860  178.1670  139.6460 C   0  0  0  0  0  2  0  0  0  0  0  0
  182.2680  178.0940  140.6650 C   0  0  0  0  0  2  0  0  0  0  0  0
  1 15  1  0  0  0  0
  4  8  2  0  0  0  0
  4 13  1  0  0  0  0
  6 20  1  0  0  0  0
  6 21  2  0  0  0  0
  7 14  1  0  0  0  0
  7  1  1  0  0  0  0
  8 10  1  0  0  0  0
  9 18  2  0  0  0  0
 10  3  2  0  0  0  0
 11 23  1  6  0  0  0
 11  4  1  0  0  0  0
 12  2  1  1  0  0  0
 12 11  1  0  0  0  0
 13 19  2  0  0  0  0
 14  5  1  6  0  0  0
 14 12  1  0  0  0  0
 15  2  1  0  0  0  0
 16  7  2  0  0  0  0
 17  8  1  0  0  0  0
 18 23  2  0  0  0  0
 19  3  1  0  0  0  0
 20 22  2  0  0  0  0
 21  5  1  0  0  0  0
 21  9  1  0  0  0  0
 22  9  1  0  0  0  0
 23 17  1  0  0  0  0
 24  1  1  0  0  0  0
 25 24  1  0  0  0  0
 26 27  1  0  0  0  0
 26 25  1  0  0  0  0
 27 25  1  0  0  0  0
M  END
>  <MODEL>
4

>  <REMARK>
 VINA RESULT:      -8.6      2.662      4.991
  Name = 
  2 active torsions:
  status: ('A' for Active; 'I' for Inactive)
    1  A    between atoms: C_1  and  N_2
    2  A    between atoms: C_1  and  C_5
                            x       y       z     vdW  Elec       q    Type
                         _______ _______ _______ _____ _____    ______ ____

>  <TORSDO>
F 2

$$$$
=
 OpenBabel10232411373D

 27 32  0  0  1  0  0  0  0  0999 V2000
  186.6700  178.3210  145.5510 N   0  0  0  0  0  0  0  0  0  0  0  0
  187.2280  176.8230  143.7260 C   0  0  0  0  0  2  0  0  0  0  0  0
  190.8920  176.6540  140.2110 C   0  0  0  0  0  3  0  0  0  0  0  0
  188.6200  177.8090  141.2910 C   0  0  0  0  0  0  0  0  0  0  0  0
  183.9880  178.0380  143.0800 C   0  0  0  0  0  2  0  0  0  0  0  0
  182.1160  178.5410  141.4710 C   0  0  0  0  0  3  0  0  0  0  0  0
  185.5900  178.9090  144.8070 C   0  0  0  0  0  0  0  0  0  0  0  0
  188.7220  177.5510  139.9340 C   0  0  0  0  0  0  0  0  0  0  0  0
  184.0770  179.1430  140.6570 C   0  0  0  0  0  0  0  0  0  0  0  0
  189.8420  176.9860  139.4110 N   0  0  0  0  0  0  0  0  0  0  0  0
  187.3710  178.5110  141.7230 C   0  0  2  0  0  3  0  0  0  0  0  0
  186.4810  177.6910  142.7060 C   0  0  2  0  0  3  0  0  0  0  0  0
  189.6990  177.5120  142.1280 C   0  0  0  0  0  3  0  0  0  0  0  0
  185.3900  178.5870  143.3490 C   0  0  1  0  0  3  0  0  0  0  0  0
  187.7730  177.6830  144.8510 C   0  0  0  0  0  2  0  0  0  0  0  0
  184.7940  179.7060  145.3750 O   0  0  0  0  0  0  0  0  0  0  0  0
  187.3790  178.1300  138.9260 S   0  0  0  0  0  0  0  0  0  0  0  0
  185.3540  179.0070  140.4460 C   0  0  0  0  0  0  0  0  0  0  0  0
  190.8420  176.9160  141.5860 C   0  0  0  0  0  3  0  0  0  0  0  0
  181.9750  179.0210  140.1280 N   0  0  0  0  0  0  0  0  0  0  0  0
  183.3930  178.6100  141.8200 C   0  0  0  0  0  0  0  0  0  0  0  0
  183.1070  179.3450  139.6470 N   0  0  0  0  0  0  0  0  0  0  0  0
  186.6370  178.7880  140.4210 C   0  0  0  0  0  0  0  0  0  0  0  0
  186.7370  178.4260  147.0010 C   0  0  0  0  0  2  0  0  0  0  0  0
  187.8500  177.5450  147.5420 C   0  0  0  0  0  3  0  0  0  0  0  0
  187.8770  177.6530  149.0510 C   0  0  0  0  0  2  0  0  0  0  0  0
  188.8900  178.4130  148.2200 C   0  0  0  0  0  2  0  0  0  0  0  0
  1 24  1  0  0  0  0
  2 15  1  0  0  0  0
  3 19  1  0  0  0  0
  4 11  1  0  0  0  0
  4 13  1  0  0  0  0
  6 21  2  0  0  0  0
  7 16  2  0  0  0  0
  7  1  1  0  0  0  0
  8  4  2  0  0  0  0
  9 21  1  0  0  0  0
 10  8  1  0  0  0  0
 10  3  2  0  0  0  0
 11 23  1  6  0  0  0
 11 12  1  0  0  0  0
 12 14  1  0  0  0  0
 12  2  1  1  0  0  0
 14  5  1  1  0  0  0
 14  7  1  0  0  0  0
 15  1  1  0  0  0  0
 17  8  1  0  0  0  0
 17 23  1  0  0  0  0
 18  9  2  0  0  0  0
 19 13  2  0  0  0  0
 20  6  1  0  0  0  0
 21  5  1  0  0  0  0
 22 20  2  0  0  0  0
 22  9  1  0  0  0  0
 23 18  2  0  0  0  0
 24 25  1  0  0  0  0
 25 27  1  0  0  0  0
 25 26  1  0  0  0  0
 27 26  1  0  0  0  0
M  END
>  <MODEL>
5

>  <REMARK>
 VINA RESULT:      -8.5      3.603      8.063
  Name = 
  2 active torsions:
  status: ('A' for Active; 'I' for Inactive)
    1  A    between atoms: C_1  and  N_2
    2  A    between atoms: C_1  and  C_5
                            x       y       z     vdW  Elec       q    Type
                         _______ _______ _______ _____ _____    ______ ____

>  <TORSDO>
F 2

$$$$
=
 OpenBabel10232411373D

 27 32  0  0  1  0  0  0  0  0999 V2000
  189.3510  177.1520  145.7410 N   0  0  0  0  0  0  0  0  0  0  0  0
  188.7280  176.1080  143.6420 C   0  0  0  0  0  2  0  0  0  0  0  0
  190.1250  176.6810  138.7910 C   0  0  0  0  0  3  0  0  0  0  0  0
  188.8620  177.6010  141.0750 C   0  0  0  0  0  0  0  0  0  0  0  0
  185.7910  177.5100  144.9830 C   0  0  0  0  0  2  0  0  0  0  0  0
  183.4590  178.4140  144.6830 C   0  0  0  0  0  3  0  0  0  0  0  0
  188.1370  177.9200  145.7790 C   0  0  0  0  0  0  0  0  0  0  0  0
  188.2450  177.6640  139.8360 C   0  0  0  0  0  0  0  0  0  0  0  0
  184.8260  179.1450  143.1130 C   0  0  0  0  0  0  0  0  0  0  0  0
  188.8740  177.2120  138.7190 N   0  0  0  0  0  0  0  0  0  0  0  0
  188.0960  178.2110  142.2070 C   0  0  2  0  0  3  0  0  0  0  0  0
  187.7020  177.2050  143.3310 C   0  0  2  0  0  3  0  0  0  0  0  0
  190.1600  177.0950  141.1700 C   0  0  0  0  0  3  0  0  0  0  0  0
  187.2040  177.9500  144.5970 C   0  0  1  0  0  3  0  0  0  0  0  0
  189.8680  176.6700  144.4710 C   0  0  0  0  0  2  0  0  0  0  0  0
  187.8420  178.5810  146.8120 O   0  0  0  0  0  0  0  0  0  0  0  0
  186.6750  178.4910  139.7840 S   0  0  0  0  0  0  0  0  0  0  0  0
  185.8010  179.0340  142.2590 C   0  0  0  0  0  0  0  0  0  0  0  0
  190.7940  176.6170  140.0200 C   0  0  0  0  0  3  0  0  0  0  0  0
  182.7420  179.1950  143.7190 N   0  0  0  0  0  0  0  0  0  0  0  0
  184.7380  178.3710  144.3380 C   0  0  0  0  0  0  0  0  0  0  0  0
  183.5230  179.5980  142.8000 N   0  0  0  0  0  0  0  0  0  0  0  0
  186.8630  178.8000  141.5420 C   0  0  0  0  0  0  0  0  0  0  0  0
  190.1370  176.9160  146.9430 C   0  0  0  0  0  2  0  0  0  0  0  0
  191.6040  176.7440  146.5880 C   0  0  0  0  0  3  0  0  0  0  0  0
  191.9760  175.2830  146.7140 C   0  0  0  0  0  2  0  0  0  0  0  0
  192.3590  176.2580  147.8080 C   0  0  0  0  0  2  0  0  0  0  0  0
  1  7  1  0  0  0  0
  1 24  1  0  0  0  0
  2 15  1  0  0  0  0
  3 19  1  0  0  0  0
  4 13  1  0  0  0  0
  7 16  2  0  0  0  0
  8  4  2  0  0  0  0
  9 21  1  0  0  0  0
 10  3  2  0  0  0  0
 10  8  1  0  0  0  0
 11  4  1  6  0  0  0
 11 12  1  0  0  0  0
 12  2  1  1  0  0  0
 12 14  1  0  0  0  0
 14  5  1  1  0  0  0
 14  7  1  0  0  0  0
 15  1  1  0  0  0  0
 17  8  1  0  0  0  0
 17 23  1  0  0  0  0
 18  9  2  0  0  0  0
 19 13  2  0  0  0  0
 20  6  1  0  0  0  0
 21  6  2  0  0  0  0
 21  5  1  0  0  0  0
 22  9  1  0  0  0  0
 22 20  2  0  0  0  0
 23 11  1  0  0  0  0
 23 18  2  0  0  0  0
 25 26  1  0  0  0  0
 25 24  1  0  0  0  0
 25 27  1  0  0  0  0
 26 27  1  0  0  0  0
M  END
>  <MODEL>
6

>  <REMARK>
 VINA RESULT:      -8.3      2.682      7.133
  Name = 
  2 active torsions:
  status: ('A' for Active; 'I' for Inactive)
    1  A    between atoms: C_1  and  N_2
    2  A    between atoms: C_1  and  C_5
                            x       y       z     vdW  Elec       q    Type
                         _______ _______ _______ _____ _____    ______ ____

>  <TORSDO>
F 2

$$$$
=
 OpenBabel10232411373D

 27 32  0  0  1  0  0  0  0  0999 V2000
  191.3880  176.2180  145.8820 N   0  0  0  0  0  0  0  0  0  0  0  0
  189.9240  178.1310  145.5910 C   0  0  0  0  0  2  0  0  0  0  0  0
  184.9800  179.0170  146.3490 C   0  0  0  0  0  3  0  0  0  0  0  0
  187.0390  177.7840  144.9690 C   0  0  0  0  0  0  0  0  0  0  0  0
  191.2950  177.4170  142.4280 C   0  0  0  0  0  2  0  0  0  0  0  0
  191.1950  177.5530  139.9150 C   0  0  0  0  0  3  0  0  0  0  0  0
  191.4170  175.9580  144.4700 C   0  0  0  0  0  0  0  0  0  0  0  0
  186.0000  178.4150  144.3020 C   0  0  0  0  0  0  0  0  0  0  0  0
  189.2280  177.0580  140.7860 C   0  0  0  0  0  0  0  0  0  0  0  0
  184.9920  179.0160  144.9880 N   0  0  0  0  0  0  0  0  0  0  0  0
  188.0370  177.0900  144.0960 C   0  0  2  0  0  3  0  0  0  0  0  0
  189.4850  177.6580  144.2000 C   0  0  2  0  0  3  0  0  0  0  0  0
  187.0290  177.7390  146.3650 C   0  0  0  0  0  3  0  0  0  0  0  0
  190.5070  176.7040  143.5280 C   0  0  1  0  0  3  0  0  0  0  0  0
  190.2710  176.9410  146.4670 C   0  0  0  0  0  2  0  0  0  0  0  0
  192.2120  175.0970  144.0030 O   0  0  0  0  0  0  0  0  0  0  0  0
  186.0000  178.2620  142.5330 S   0  0  0  0  0  0  0  0  0  0  0  0
  188.2800  177.1470  141.6710 C   0  0  0  0  0  0  0  0  0  0  0  0
  185.9970  178.3730  147.0640 C   0  0  0  0  0  3  0  0  0  0  0  0
  190.1940  177.4960  138.8910 N   0  0  0  0  0  0  0  0  0  0  0  0
  190.6310  177.2840  141.0840 C   0  0  0  0  0  0  0  0  0  0  0  0
  189.0550  177.2350  139.3920 N   0  0  0  0  0  0  0  0  0  0  0  0
  187.4800  177.2600  142.6930 C   0  0  0  0  0  0  0  0  0  0  0  0
  192.4150  175.6920  146.7710 C   0  0  0  0  0  2  0  0  0  0  0  0
  192.0390  175.9480  148.2200 C   0  0  0  0  0  3  0  0  0  0  0  0
  193.1720  176.6840  148.9020 C   0  0  0  0  0  2  0  0  0  0  0  0
  192.9940  175.1970  149.1240 C   0  0  0  0  0  2  0  0  0  0  0  0
  1 15  1  0  0  0  0
  1 24  1  0  0  0  0
  2 15  1  0  0  0  0
  3 19  1  0  0  0  0
  4 13  1  0  0  0  0
  6 21  2  0  0  0  0
  7  1  1  0  0  0  0
  8  4  2  0  0  0  0
  8 10  1  0  0  0  0
  9 21  1  0  0  0  0
  9 18  2  0  0  0  0
 10  3  2  0  0  0  0
 11 23  1  6  0  0  0
 11 12  1  0  0  0  0
 11  4  1  0  0  0  0
 12  2  1  1  0  0  0
 13 19  2  0  0  0  0
 14  5  1  6  0  0  0
 14 12  1  0  0  0  0
 14  7  1  0  0  0  0
 16  7  2  0  0  0  0
 17 23  1  0  0  0  0
 17  8  1  0  0  0  0
 18 23  2  0  0  0  0
 20 22  2  0  0  0  0
 20  6  1  0  0  0  0
 21  5  1  0  0  0  0
 22  9  1  0  0  0  0
 24 25  1  0  0  0  0
 25 26  1  0  0  0  0
 25 27  1  0  0  0  0
 26 27  1  0  0  0  0
M  END
>  <MODEL>
7

>  <REMARK>
 VINA RESULT:      -8.2      1.888      5.823
  Name = 
  2 active torsions:
  status: ('A' for Active; 'I' for Inactive)
    1  A    between atoms: C_1  and  N_2
    2  A    between atoms: C_1  and  C_5
                            x       y       z     vdW  Elec       q    Type
                         _______ _______ _______ _____ _____    ______ ____

>  <TORSDO>
F 2

$$$$
=
 OpenBabel10232411373D

 27 32  0  0  1  0  0  0  0  0999 V2000
  184.3180  178.6670  141.2150 N   0  0  0  0  0  0  0  0  0  0  0  0
  186.6490  179.3360  141.3040 C   0  0  0  0  0  2  0  0  0  0  0  0
  191.0390  177.2660  139.8010 C   0  0  0  0  0  3  0  0  0  0  0  0
  188.8270  177.3200  141.4660 C   0  0  0  0  0  0  0  0  0  0  0  0
  185.5030  179.2280  144.6300 C   0  0  0  0  0  2  0  0  0  0  0  0
  185.9570  179.0210  147.0990 C   0  0  0  0  0  3  0  0  0  0  0  0
  184.3080  178.3290  142.6120 C   0  0  0  0  0  0  0  0  0  0  0  0
  190.1070  177.1600  141.9730 C   0  0  0  0  0  0  0  0  0  0  0  0
  187.1380  177.5710  145.9270 C   0  0  0  0  0  0  0  0  0  0  0  0
  191.1870  177.1320  141.1480 N   0  0  0  0  0  0  0  0  0  0  0  0
  187.7220  177.2470  142.4720 C   0  0  2  0  0  3  0  0  0  0  0  0
  186.8850  178.5550  142.6030 C   0  0  2  0  0  3  0  0  0  0  0  0
  188.6450  177.4210  140.0850 C   0  0  0  0  0  3  0  0  0  0  0  0
  185.5850  178.3080  143.4110 C   0  0  1  0  0  3  0  0  0  0  0  0
  185.5690  178.6650  140.4750 C   0  0  0  0  0  2  0  0  0  0  0  0
  183.2200  178.0450  143.1830 O   0  0  0  0  0  0  0  0  0  0  0  0
  190.2250  176.8540  143.7180 S   0  0  0  0  0  0  0  0  0  0  0  0
  187.8450  177.1840  144.9070 C   0  0  0  0  0  0  0  0  0  0  0  0
  189.7620  177.4080  139.2440 C   0  0  0  0  0  3  0  0  0  0  0  0
  186.8440  178.2900  147.9550 N   0  0  0  0  0  0  0  0  0  0  0  0
  186.1130  178.5970  145.8540 C   0  0  0  0  0  0  0  0  0  0  0  0
  187.5430  177.4710  147.2790 N   0  0  0  0  0  0  0  0  0  0  0  0
  188.4320  176.9180  143.7750 C   0  0  0  0  0  0  0  0  0  0  0  0
  183.0840  178.9280  140.4890 C   0  0  0  0  0  2  0  0  0  0  0  0
  183.3910  179.4840  139.1100 C   0  0  0  0  0  3  0  0  0  0  0  0
  182.2330  180.3440  138.6540 C   0  0  0  0  0  2  0  0  0  0  0  0
  182.3880  178.9370  138.1160 C   0  0  0  0  0  2  0  0  0  0  0  0
  1  7  1  0  0  0  0
  3 10  1  0  0  0  0
  4  8  1  0  0  0  0
  5 21  1  0  0  0  0
  6 20  1  0  0  0  0
  7 16  2  0  0  0  0
  7 14  1  0  0  0  0
  8 17  1  0  0  0  0
  9 22  1  0  0  0  0
 10  8  2  0  0  0  0
 11  4  1  6  0  0  0
 11 12  1  0  0  0  0
 11 23  1  0  0  0  0
 12  2  1  6  0  0  0
 12 14  1  0  0  0  0
 13  4  2  0  0  0  0
 14  5  1  1  0  0  0
 15  1  1  0  0  0  0
 15  2  1  0  0  0  0
 17 23  1  0  0  0  0
 18  9  2  0  0  0  0
 19  3  2  0  0  0  0
 19 13  1  0  0  0  0
 21  9  1  0  0  0  0
 21  6  2  0  0  0  0
 22 20  2  0  0  0  0
 23 18  2  0  0  0  0
 24  1  1  0  0  0  0
 25 24  1  0  0  0  0
 26 25  1  0  0  0  0
 27 26  1  0  0  0  0
 27 25  1  0  0  0  0
M  END
>  <MODEL>
8

>  <REMARK>
 VINA RESULT:      -8.2      3.385      5.916
  Name = 
  2 active torsions:
  status: ('A' for Active; 'I' for Inactive)
    1  A    between atoms: C_1  and  N_2
    2  A    between atoms: C_1  and  C_5
                            x       y       z     vdW  Elec       q    Type
                         _______ _______ _______ _____ _____    ______ ____

>  <TORSDO>
F 2

$$$$
=
 OpenBabel10232411373D

 27 32  0  0  1  0  0  0  0  0999 V2000
  186.1670  177.6820  144.5890 N   0  0  0  0  0  0  0  0  0  0  0  0
  184.9270  179.4330  143.4560 C   0  0  0  0  0  2  0  0  0  0  0  0
  180.2310  179.8630  141.5670 C   0  0  0  0  0  3  0  0  0  0  0  0
  182.7810  178.7880  141.5030 C   0  0  0  0  0  0  0  0  0  0  0  0
  187.7520  178.7480  141.4700 C   0  0  0  0  0  2  0  0  0  0  0  0
  188.9260  178.7880  139.2420 C   0  0  0  0  0  3  0  0  0  0  0  0
  186.9220  177.3780  143.4050 C   0  0  0  0  0  0  0  0  0  0  0  0
  182.1830  179.2930  140.3600 C   0  0  0  0  0  0  0  0  0  0  0  0
  186.8270  178.1360  139.0480 C   0  0  0  0  0  0  0  0  0  0  0  0
  180.9290  179.8160  140.4000 N   0  0  0  0  0  0  0  0  0  0  0  0
  184.1270  178.1640  141.3040 C   0  0  2  0  0  3  0  0  0  0  0  0
  185.2830  178.8730  142.0740 C   0  0  2  0  0  3  0  0  0  0  0  0
  182.0710  178.7900  142.7060 C   0  0  0  0  0  3  0  0  0  0  0  0
  186.5660  178.0000  142.0810 C   0  0  1  0  0  3  0  0  0  0  0  0
  184.8620  178.3130  144.4780 C   0  0  0  0  0  2  0  0  0  0  0  0
  187.8990  176.5830  143.4680 O   0  0  0  0  0  0  0  0  0  0  0  0
  183.0860  179.0800  138.8460 S   0  0  0  0  0  0  0  0  0  0  0  0
  185.5570  178.1620  139.3300 C   0  0  0  0  0  0  0  0  0  0  0  0
  180.7880  179.3450  142.7430 C   0  0  0  0  0  3  0  0  0  0  0  0
  188.5860  178.6000  137.8630 N   0  0  0  0  0  0  0  0  0  0  0  0
  187.8680  178.5060  139.9890 C   0  0  0  0  0  0  0  0  0  0  0  0
  187.3700  178.2470  137.7460 N   0  0  0  0  0  0  0  0  0  0  0  0
  184.3460  178.2320  139.8030 C   0  0  0  0  0  0  0  0  0  0  0  0
  186.6360  177.2880  145.9100 C   0  0  0  0  0  2  0  0  0  0  0  0
  187.7970  178.1680  146.3410 C   0  0  0  0  0  3  0  0  0  0  0  0
  188.9490  177.2890  146.7740 C   0  0  0  0  0  2  0  0  0  0  0  0
  188.0690  177.9490  147.8150 C   0  0  0  0  0  2  0  0  0  0  0  0
  1 24  1  0  0  0  0
  2 15  1  0  0  0  0
  3 19  1  0  0  0  0
  4 13  1  0  0  0  0
  6 21  2  0  0  0  0
  7 16  2  0  0  0  0
  7  1  1  0  0  0  0
  8 10  1  0  0  0  0
  8  4  2  0  0  0  0
  9 18  2  0  0  0  0
  9 21  1  0  0  0  0
 10  3  2  0  0  0  0
 11 23  1  6  0  0  0
 11  4  1  0  0  0  0
 11 12  1  0  0  0  0
 12 14  1  0  0  0  0
 12  2  1  1  0  0  0
 13 19  2  0  0  0  0
 14  5  1  1  0  0  0
 14  7  1  0  0  0  0
 15  1  1  0  0  0  0
 17 23  1  0  0  0  0
 17  8  1  0  0  0  0
 18 23  2  0  0  0  0
 20  6  1  0  0  0  0
 21  5  1  0  0  0  0
 22 20  2  0  0  0  0
 22  9  1  0  0  0  0
 24 25  1  0  0  0  0
 25 26  1  0  0  0  0
 25 27  1  0  0  0  0
 26 27  1  0  0  0  0
M  END
>  <MODEL>
9

>  <REMARK>
 VINA RESULT:      -8.0      3.795      7.204
  Name = 
  2 active torsions:
  status: ('A' for Active; 'I' for Inactive)
    1  A    between atoms: C_1  and  N_2
    2  A    between atoms: C_1  and  C_5
                            x       y       z     vdW  Elec       q    Type
                         _______ _______ _______ _____ _____    ______ ____

>  <TORSDO>
F 2

$$$$
