=
 OpenBabel10232412323D

 29 32  0  0  1  0  0  0  0  0999 V2000
  190.5010  177.1260  146.8110 C   0  0  0  0  0  0  0  0  0  0  0  0
  189.8300  177.1170  142.1370 C   0  0  0  0  0  2  0  0  0  0  0  0
  189.2480  177.7020  140.8470 C   0  0  0  0  0  0  0  0  0  0  0  0
  189.9670  177.5810  139.6200 N   0  0  0  0  0  2  0  0  0  0  0  0
  188.2040  177.7610  145.3610 C   0  0  0  0  0  0  0  0  0  0  0  0
  187.7010  177.6630  143.1600 C   0  0  1  0  0  3  0  0  0  0  0  0
  190.5690  177.2400  145.4060 C   0  0  0  0  0  3  0  0  0  0  0  0
  189.3950  177.5190  144.7110 C   0  0  0  0  0  0  0  0  0  0  0  0
  187.1390  178.0570  144.4530 N   0  0  0  0  0  0  0  0  0  0  0  0
  187.2920  178.4410  142.0070 N   0  0  0  0  0  2  0  0  0  0  0  0
  188.1110  177.6560  146.7510 C   0  0  0  0  0  3  0  0  0  0  0  0
  188.0830  178.3110  140.8420 N   0  0  0  0  0  0  0  0  0  0  0  0
  189.2720  177.3330  147.4720 C   0  0  0  0  0  3  0  0  0  0  0  0
  189.1880  177.8570  143.2910 C   0  0  1  0  0  3  0  0  0  0  0  0
  191.6310  176.8200  147.5730 O   0  0  0  0  0  0  0  0  0  0  0  0
  192.4040  175.6460  147.3640 C   0  0  0  0  0  1  0  0  0  0  0  0
  191.2600  176.9200  139.5320 C   0  0  0  0  0  2  0  0  0  0  0  0
  192.9400  175.7300  136.4120 O   0  0  0  0  0  0  0  0  0  0  0  0
  191.0590  174.8580  138.3460 O   0  0  0  0  0  0  0  0  0  0  0  0
  191.1590  174.2520  137.0770 C   0  0  0  0  0  2  0  0  0  0  0  0
  192.8380  176.3350  137.6800 C   0  0  0  0  0  2  0  0  0  0  0  0
  191.3940  176.2180  138.1940 C   0  0  2  0  0  3  0  0  0  0  0  0
  192.6000  174.3710  136.5630 C   0  0  0  0  0  2  0  0  0  0  0  0
  185.7300  177.9520  144.8350 C   0  0  2  0  0  3  0  0  0  0  0  0
  184.1220  178.0340  143.0540 O   0  0  0  0  0  0  0  0  0  0  0  0
  184.7750  180.0590  143.9020 O   0  0  0  0  0  1  0  0  0  0  0  0
  184.8270  178.6730  143.8810 C   0  0  0  0  0  0  0  0  0  0  0  0
  184.1350  178.3450  146.5970 F   0  0  0  0  0  0  0  0  0  0  0  0
  185.4840  178.3370  146.2920 C   0  0  0  0  0  2  0  0  0  0  0  0
  1 13  1  0  0  0  0
  1 15  1  0  0  0  0
  3  2  1  0  0  0  0
  4  3  1  0  0  0  0
  5 11  1  0  0  0  0
  6 10  1  6  0  0  0
  6 14  1  0  0  0  0
  6  9  1  0  0  0  0
  7  1  2  0  0  0  0
  8  5  2  0  0  0  0
  8  7  1  0  0  0  0
  9 24  1  0  0  0  0
  9  5  1  0  0  0  0
 11 13  2  0  0  0  0
 12  3  2  0  0  0  0
 12 10  1  0  0  0  0
 14  2  1  6  0  0  0
 14  8  1  0  0  0  0
 16 15  1  0  0  0  0
 17  4  1  0  0  0  0
 18 23  1  0  0  0  0
 18 21  1  0  0  0  0
 20 19  1  0  0  0  0
 21 22  1  0  0  0  0
 22 19  1  0  0  0  0
 22 17  1  1  0  0  0
 23 20  1  0  0  0  0
 24 29  1  1  0  0  0
 25 27  2  0  0  0  0
 27 26  1  0  0  0  0
 27 24  1  0  0  0  0
 29 28  1  0  0  0  0
M  END
>  <MODEL>
1

>  <REMARK>
 VINA RESULT:      -9.1      0.000      0.000
  Name = 
  6 active torsions:
  status: ('A' for Active; 'I' for Inactive)
    1  A    between atoms: C_1  and  N_15
    2  A    between atoms: C_1  and  C_23
    3  A    between atoms: C_2  and  O_6
    4  A    between atoms: C_5  and  C_12
    5  A    between atoms: C_5  and  N_21
    6  A    between atoms: C_5  and  C_24
                            x       y       z     vdW  Elec       q    Type
                         _______ _______ _______ _____ _____    ______ ____

>  <TORSDO>
F 6

$$$$
=
 OpenBabel10232412323D

 29 32  0  0  1  0  0  0  0  0999 V2000
  184.8020  178.6730  145.2590 C   0  0  0  0  0  0  0  0  0  0  0  0
  187.7420  178.0760  141.6130 C   0  0  0  0  0  2  0  0  0  0  0  0
  188.8500  177.3230  140.8700 C   0  0  0  0  0  0  0  0  0  0  0  0
  188.8610  177.2960  139.4420 N   0  0  0  0  0  2  0  0  0  0  0  0
  187.4610  177.8290  145.2620 C   0  0  0  0  0  0  0  0  0  0  0  0
  189.0140  177.6380  143.6300 C   0  0  1  0  0  3  0  0  0  0  0  0
  185.4450  178.3810  144.0370 C   0  0  0  0  0  3  0  0  0  0  0  0
  186.7840  178.0010  144.0730 C   0  0  0  0  0  0  0  0  0  0  0  0
  188.8130  177.4050  145.0610 N   0  0  0  0  0  0  0  0  0  0  0  0
  189.8890  176.7140  142.9360 N   0  0  0  0  0  2  0  0  0  0  0  0
  186.8460  178.1090  146.4840 C   0  0  0  0  0  3  0  0  0  0  0  0
  189.8080  176.7040  141.5240 N   0  0  0  0  0  0  0  0  0  0  0  0
  185.5090  178.5370  146.4730 C   0  0  0  0  0  3  0  0  0  0  0  0
  187.6540  177.4820  143.0020 C   0  0  1  0  0  3  0  0  0  0  0  0
  183.4690  179.0880  145.3000 O   0  0  0  0  0  0  0  0  0  0  0  0
  182.5560  178.8480  144.2380 C   0  0  0  0  0  1  0  0  0  0  0  0
  187.8450  177.9560  138.6390 C   0  0  0  0  0  2  0  0  0  0  0  0
  188.7070  177.5070  135.0290 O   0  0  0  0  0  0  0  0  0  0  0  0
  188.1210  175.9720  137.3400 O   0  0  0  0  0  0  0  0  0  0  0  0
  188.0270  175.4310  136.0420 C   0  0  0  0  0  2  0  0  0  0  0  0
  188.8000  178.0460  136.3260 C   0  0  0  0  0  2  0  0  0  0  0  0
  187.7970  177.3400  137.2530 C   0  0  2  0  0  3  0  0  0  0  0  0
  189.0260  176.1370  135.1160 C   0  0  0  0  0  2  0  0  0  0  0  0
  189.8380  177.5410  146.0970 C   0  0  2  0  0  3  0  0  0  0  0  0
  191.7510  176.1640  145.6380 O   0  0  0  0  0  1  0  0  0  0  0  0
  191.9210  178.3540  144.9910 O   0  0  0  0  0  0  0  0  0  0  0  0
  191.2190  177.3040  145.5630 C   0  0  0  0  0  0  0  0  0  0  0  0
  189.4110  177.5090  148.4670 F   0  0  0  0  0  0  0  0  0  0  0  0
  189.5320  176.7130  147.3420 C   0  0  0  0  0  2  0  0  0  0  0  0
  1 15  1  0  0  0  0
  1 13  1  0  0  0  0
  3 12  2  0  0  0  0
  3  2  1  0  0  0  0
  4  3  1  0  0  0  0
  5 11  1  0  0  0  0
  6 10  1  6  0  0  0
  6  9  1  0  0  0  0
  7  8  1  0  0  0  0
  7  1  2  0  0  0  0
  8  5  2  0  0  0  0
  9  5  1  0  0  0  0
  9 24  1  0  0  0  0
 12 10  1  0  0  0  0
 13 11  2  0  0  0  0
 14  2  1  6  0  0  0
 14  6  1  0  0  0  0
 14  8  1  0  0  0  0
 16 15  1  0  0  0  0
 17  4  1  0  0  0  0
 18 23  1  0  0  0  0
 18 21  1  0  0  0  0
 20 19  1  0  0  0  0
 21 22  1  0  0  0  0
 22 19  1  0  0  0  0
 22 17  1  1  0  0  0
 23 20  1  0  0  0  0
 24 29  1  1  0  0  0
 26 27  2  0  0  0  0
 27 25  1  0  0  0  0
 27 24  1  0  0  0  0
 29 28  1  0  0  0  0
M  END
>  <MODEL>
2

>  <REMARK>
 VINA RESULT:      -9.0      2.557      4.817
  Name = 
  6 active torsions:
  status: ('A' for Active; 'I' for Inactive)
    1  A    between atoms: C_1  and  N_15
    2  A    between atoms: C_1  and  C_23
    3  A    between atoms: C_2  and  O_6
    4  A    between atoms: C_5  and  C_12
    5  A    between atoms: C_5  and  N_21
    6  A    between atoms: C_5  and  C_24
                            x       y       z     vdW  Elec       q    Type
                         _______ _______ _______ _____ _____    ______ ____

>  <TORSDO>
F 6

$$$$
=
 OpenBabel10232412323D

 29 32  0  0  1  0  0  0  0  0999 V2000
  184.8710  178.5490  143.9840 C   0  0  0  0  0  0  0  0  0  0  0  0
  188.8760  177.3820  141.7730 C   0  0  0  0  0  2  0  0  0  0  0  0
  190.1300  176.5200  141.5980 C   0  0  0  0  0  0  0  0  0  0  0  0
  190.6480  176.2690  140.2910 N   0  0  0  0  0  2  0  0  0  0  0  0
  187.3000  177.7100  145.0690 C   0  0  0  0  0  0  0  0  0  0  0  0
  189.3180  177.2620  144.1540 C   0  0  1  0  0  3  0  0  0  0  0  0
  185.8880  178.0680  143.1330 C   0  0  0  0  0  3  0  0  0  0  0  0
  187.1020  177.6960  143.7050 C   0  0  0  0  0  0  0  0  0  0  0  0
  188.6070  177.2570  145.4340 N   0  0  0  0  0  0  0  0  0  0  0  0
  190.3270  176.2390  143.9650 N   0  0  0  0  0  2  0  0  0  0  0  0
  186.3080  178.1790  145.9320 C   0  0  0  0  0  3  0  0  0  0  0  0
  190.7540  176.0080  142.6370 N   0  0  0  0  0  0  0  0  0  0  0  0
  185.0890  178.6030  145.3770 C   0  0  0  0  0  3  0  0  0  0  0  0
  188.2650  177.0130  143.1080 C   0  0  1  0  0  3  0  0  0  0  0  0
  183.6370  178.9690  143.4800 O   0  0  0  0  0  0  0  0  0  0  0  0
  182.4230  178.8270  144.2050 C   0  0  0  0  0  1  0  0  0  0  0  0
  190.0250  176.7980  139.0890 C   0  0  0  0  0  2  0  0  0  0  0  0
  192.6070  175.8710  136.5480 O   0  0  0  0  0  0  0  0  0  0  0  0
  190.4530  174.7210  137.9910 O   0  0  0  0  0  0  0  0  0  0  0  0
  190.9650  174.1300  136.8180 C   0  0  0  0  0  2  0  0  0  0  0  0
  192.0940  176.4610  137.7200 C   0  0  0  0  0  2  0  0  0  0  0  0
  190.6030  176.1160  137.8620 C   0  0  2  0  0  3  0  0  0  0  0  0
  192.4530  174.4760  136.6750 C   0  0  0  0  0  2  0  0  0  0  0  0
  189.2020  177.5510  146.7380 C   0  0  2  0  0  3  0  0  0  0  0  0
  190.6370  175.7620  147.4490 O   0  0  0  0  0  1  0  0  0  0  0  0
  191.6840  177.5560  146.4870 O   0  0  0  0  0  0  0  0  0  0  0  0
  190.5400  176.8970  146.9120 C   0  0  0  0  0  0  0  0  0  0  0  0
  188.5440  178.0540  149.0000 F   0  0  0  0  0  0  0  0  0  0  0  0
  188.2490  177.2720  147.8980 C   0  0  0  0  0  2  0  0  0  0  0  0
  1 13  1  0  0  0  0
  3  2  1  0  0  0  0
  3 12  2  0  0  0  0
  4  3  1  0  0  0  0
  5  9  1  0  0  0  0
  5 11  1  0  0  0  0
  6 10  1  1  0  0  0
  6  9  1  0  0  0  0
  7  8  1  0  0  0  0
  7  1  2  0  0  0  0
  8  5  2  0  0  0  0
  9 24  1  0  0  0  0
 12 10  1  0  0  0  0
 13 11  2  0  0  0  0
 14  2  1  6  0  0  0
 14  8  1  0  0  0  0
 14  6  1  0  0  0  0
 15  1  1  0  0  0  0
 15 16  1  0  0  0  0
 17  4  1  0  0  0  0
 18 23  1  0  0  0  0
 18 21  1  0  0  0  0
 20 19  1  0  0  0  0
 21 22  1  0  0  0  0
 22 19  1  0  0  0  0
 22 17  1  1  0  0  0
 23 20  1  0  0  0  0
 24 27  1  0  0  0  0
 24 29  1  1  0  0  0
 26 27  2  0  0  0  0
 27 25  1  0  0  0  0
 29 28  1  0  0  0  0
M  END
>  <MODEL>
3

>  <REMARK>
 VINA RESULT:      -8.7      1.697      4.501
  Name = 
  6 active torsions:
  status: ('A' for Active; 'I' for Inactive)
    1  A    between atoms: C_1  and  N_15
    2  A    between atoms: C_1  and  C_23
    3  A    between atoms: C_2  and  O_6
    4  A    between atoms: C_5  and  C_12
    5  A    between atoms: C_5  and  N_21
    6  A    between atoms: C_5  and  C_24
                            x       y       z     vdW  Elec       q    Type
                         _______ _______ _______ _____ _____    ______ ____

>  <TORSDO>
F 6

$$$$
=
 OpenBabel10232412323D

 29 32  0  0  1  0  0  0  0  0999 V2000
  186.3300  177.9530  144.0630 C   0  0  0  0  0  0  0  0  0  0  0  0
  188.4590  178.3080  139.8640 C   0  0  0  0  0  2  0  0  0  0  0  0
  189.4540  177.8330  138.8010 C   0  0  0  0  0  0  0  0  0  0  0  0
  189.1600  178.0150  137.4150 N   0  0  0  0  0  2  0  0  0  0  0  0
  189.0000  177.4950  143.4000 C   0  0  0  0  0  0  0  0  0  0  0  0
  190.1750  177.7610  141.4870 C   0  0  1  0  0  3  0  0  0  0  0  0
  186.7210  177.9340  142.7070 C   0  0  0  0  0  3  0  0  0  0  0  0
  188.0680  177.7430  142.4150 C   0  0  0  0  0  0  0  0  0  0  0  0
  190.3140  177.2970  142.8680 N   0  0  0  0  0  0  0  0  0  0  0  0
  190.9720  177.0790  140.4870 N   0  0  0  0  0  2  0  0  0  0  0  0
  188.6380  177.5060  144.7480 C   0  0  0  0  0  3  0  0  0  0  0  0
  190.5900  177.2630  139.1380 N   0  0  0  0  0  0  0  0  0  0  0  0
  187.2920  177.7410  145.0730 C   0  0  0  0  0  3  0  0  0  0  0  0
  188.7370  177.5110  141.1210 C   0  0  1  0  0  3  0  0  0  0  0  0
  185.0000  178.1690  144.4360 O   0  0  0  0  0  0  0  0  0  0  0  0
  184.6370  178.7720  145.6700 C   0  0  0  0  0  1  0  0  0  0  0  0
  187.9300  178.6380  136.9520 C   0  0  0  0  0  2  0  0  0  0  0  0
  186.8280  175.3700  135.5110 O   0  0  0  0  0  0  0  0  0  0  0  0
  186.0840  177.2330  137.5150 O   0  0  0  0  0  0  0  0  0  0  0  0
  185.1790  176.2760  137.0130 C   0  0  0  0  0  2  0  0  0  0  0  0
  187.7310  176.3270  136.0130 C   0  0  0  0  0  2  0  0  0  0  0  0
  186.9610  177.5770  136.4670 C   0  0  2  0  0  3  0  0  0  0  0  0
  185.9480  175.0290  136.5570 C   0  0  0  0  0  2  0  0  0  0  0  0
  191.5190  177.4210  143.6900 C   0  0  2  0  0  3  0  0  0  0  0  0
  191.9370  175.0820  144.0350 O   0  0  0  0  0  0  0  0  0  0  0  0
  191.7350  176.3480  145.9320 O   0  0  0  0  0  1  0  0  0  0  0  0
  191.7460  176.2150  144.5510 C   0  0  0  0  0  0  0  0  0  0  0  0
  191.0240  179.7780  143.7520 F   0  0  0  0  0  0  0  0  0  0  0  0
  191.5640  178.7300  144.4760 C   0  0  0  0  0  2  0  0  0  0  0  0
  1 15  1  0  0  0  0
  1 13  1  0  0  0  0
  3 12  2  0  0  0  0
  3  2  1  0  0  0  0
  4  3  1  0  0  0  0
  5 11  1  0  0  0  0
  6 10  1  6  0  0  0
  6  9  1  0  0  0  0
  7  1  2  0  0  0  0
  8  7  1  0  0  0  0
  8  5  2  0  0  0  0
  9  5  1  0  0  0  0
  9 24  1  0  0  0  0
 11 13  2  0  0  0  0
 12 10  1  0  0  0  0
 14  2  1  6  0  0  0
 14  6  1  0  0  0  0
 14  8  1  0  0  0  0
 15 16  1  0  0  0  0
 17  4  1  0  0  0  0
 18 21  1  0  0  0  0
 18 23  1  0  0  0  0
 20 19  1  0  0  0  0
 21 22  1  0  0  0  0
 22 17  1  1  0  0  0
 22 19  1  0  0  0  0
 23 20  1  0  0  0  0
 24 29  1  1  0  0  0
 24 27  1  0  0  0  0
 25 27  2  0  0  0  0
 27 26  1  0  0  0  0
 28 29  1  0  0  0  0
M  END
>  <MODEL>
4

>  <REMARK>
 VINA RESULT:      -8.6      3.216      5.346
  Name = 
  6 active torsions:
  status: ('A' for Active; 'I' for Inactive)
    1  A    between atoms: C_1  and  N_15
    2  A    between atoms: C_1  and  C_23
    3  A    between atoms: C_2  and  O_6
    4  A    between atoms: C_5  and  C_12
    5  A    between atoms: C_5  and  N_21
    6  A    between atoms: C_5  and  C_24
                            x       y       z     vdW  Elec       q    Type
                         _______ _______ _______ _____ _____    ______ ____

>  <TORSDO>
F 6

$$$$
=
 OpenBabel10232412323D

 29 32  0  0  1  0  0  0  0  0999 V2000
  190.7820  176.9440  145.9370 C   0  0  0  0  0  0  0  0  0  0  0  0
  189.4080  177.3140  141.4350 C   0  0  0  0  0  2  0  0  0  0  0  0
  188.6570  178.0110  140.2960 C   0  0  0  0  0  0  0  0  0  0  0  0
  189.1760  177.9690  138.9670 N   0  0  0  0  0  2  0  0  0  0  0  0
  188.3140  177.7420  144.9100 C   0  0  0  0  0  0  0  0  0  0  0  0
  187.4790  177.8280  142.8110 C   0  0  1  0  0  3  0  0  0  0  0  0
  190.6390  177.1660  144.5500 C   0  0  0  0  0  3  0  0  0  0  0  0
  189.3840  177.5240  144.0680 C   0  0  0  0  0  0  0  0  0  0  0  0
  187.1340  178.1330  144.2000 N   0  0  0  0  0  0  0  0  0  0  0  0
  186.9260  178.7020  141.7950 N   0  0  0  0  0  2  0  0  0  0  0  0
  188.4300  177.5320  146.2850 C   0  0  0  0  0  3  0  0  0  0  0  0
  187.5260  178.6450  140.5160 N   0  0  0  0  0  0  0  0  0  0  0  0
  189.6750  177.1270  146.7930 C   0  0  0  0  0  3  0  0  0  0  0  0
  188.9750  177.9760  142.7250 C   0  0  1  0  0  3  0  0  0  0  0  0
  192.0040  176.5540  146.4910 O   0  0  0  0  0  0  0  0  0  0  0  0
  192.0950  175.7530  147.6610 C   0  0  0  0  0  1  0  0  0  0  0  0
  190.4170  177.2880  138.6330 C   0  0  0  0  0  2  0  0  0  0  0  0
  190.4580  174.3920  136.2690 O   0  0  0  0  0  0  0  0  0  0  0  0
  188.9570  176.7330  136.8260 O   0  0  0  0  0  0  0  0  0  0  0  0
  188.8730  176.0710  135.5850 C   0  0  0  0  0  2  0  0  0  0  0  0
  190.5420  175.0550  137.5080 C   0  0  0  0  0  2  0  0  0  0  0  0
  190.2680  176.5550  137.3130 C   0  0  2  0  0  3  0  0  0  0  0  0
  189.1490  174.5750  135.7790 C   0  0  0  0  0  2  0  0  0  0  0  0
  185.7970  178.0300  144.7870 C   0  0  2  0  0  3  0  0  0  0  0  0
  184.6260  180.0020  144.0780 O   0  0  0  0  0  1  0  0  0  0  0  0
  183.9460  178.0380  143.1150 O   0  0  0  0  0  0  0  0  0  0  0  0
  184.7650  178.7540  143.9770 C   0  0  0  0  0  0  0  0  0  0  0  0
  184.4820  178.4130  146.7680 F   0  0  0  0  0  0  0  0  0  0  0  0
  185.7700  178.4130  146.2650 C   0  0  0  0  0  2  0  0  0  0  0  0
  1 15  1  0  0  0  0
  1 13  1  0  0  0  0
  3 12  2  0  0  0  0
  3  2  1  0  0  0  0
  4  3  1  0  0  0  0
  5 11  1  0  0  0  0
  6 10  1  6  0  0  0
  6  9  1  0  0  0  0
  7  1  2  0  0  0  0
  8  7  1  0  0  0  0
  8  5  2  0  0  0  0
  9 24  1  0  0  0  0
  9  5  1  0  0  0  0
 11 13  2  0  0  0  0
 12 10  1  0  0  0  0
 14  2  1  6  0  0  0
 14  6  1  0  0  0  0
 14  8  1  0  0  0  0
 15 16  1  0  0  0  0
 17  4  1  0  0  0  0
 18 21  1  0  0  0  0
 19 22  1  0  0  0  0
 20 23  1  0  0  0  0
 20 19  1  0  0  0  0
 22 21  1  0  0  0  0
 22 17  1  1  0  0  0
 23 18  1  0  0  0  0
 24 29  1  1  0  0  0
 26 27  2  0  0  0  0
 27 25  1  0  0  0  0
 27 24  1  0  0  0  0
 29 28  1  0  0  0  0
M  END
>  <MODEL>
5

>  <REMARK>
 VINA RESULT:      -8.5      1.251      1.576
  Name = 
  6 active torsions:
  status: ('A' for Active; 'I' for Inactive)
    1  A    between atoms: C_1  and  N_15
    2  A    between atoms: C_1  and  C_23
    3  A    between atoms: C_2  and  O_6
    4  A    between atoms: C_5  and  C_12
    5  A    between atoms: C_5  and  N_21
    6  A    between atoms: C_5  and  C_24
                            x       y       z     vdW  Elec       q    Type
                         _______ _______ _______ _____ _____    ______ ____

>  <TORSDO>
F 6

$$$$
=
 OpenBabel10232412323D

 29 32  0  0  1  0  0  0  0  0999 V2000
  185.5590  178.1510  143.8310 C   0  0  0  0  0  0  0  0  0  0  0  0
  188.4250  178.4120  140.0890 C   0  0  0  0  0  2  0  0  0  0  0  0
  189.5790  177.8980  139.2230 C   0  0  0  0  0  0  0  0  0  0  0  0
  189.5480  178.0840  137.8070 N   0  0  0  0  0  2  0  0  0  0  0  0
  188.2880  177.5990  143.6630 C   0  0  0  0  0  0  0  0  0  0  0  0
  189.7990  177.8150  141.9960 C   0  0  1  0  0  3  0  0  0  0  0  0
  186.1890  178.1120  142.5690 C   0  0  0  0  0  3  0  0  0  0  0  0
  187.5600  177.8740  142.5250 C   0  0  0  0  0  0  0  0  0  0  0  0
  189.6690  177.3530  143.3780 N   0  0  0  0  0  0  0  0  0  0  0  0
  190.7400  177.1020  141.1550 N   0  0  0  0  0  2  0  0  0  0  0  0
  187.6880  177.6290  144.9230 C   0  0  0  0  0  3  0  0  0  0  0  0
  190.6150  177.2920  139.7600 N   0  0  0  0  0  0  0  0  0  0  0  0
  186.3150  177.9110  144.9990 C   0  0  0  0  0  3  0  0  0  0  0  0
  188.4430  177.6130  141.3740 C   0  0  1  0  0  3  0  0  0  0  0  0
  184.1920  178.4130  143.9570 O   0  0  0  0  0  0  0  0  0  0  0  0
  183.6090  178.8870  145.1630 C   0  0  0  0  0  1  0  0  0  0  0  0
  188.4450  178.7460  137.1290 C   0  0  0  0  0  2  0  0  0  0  0  0
  185.3000  176.7590  136.7610 O   0  0  0  0  0  0  0  0  0  0  0  0
  187.3040  177.9860  135.1740 O   0  0  0  0  0  0  0  0  0  0  0  0
  186.4550  176.9860  134.6610 C   0  0  0  0  0  2  0  0  0  0  0  0
  186.1490  177.7580  137.2740 C   0  0  0  0  0  2  0  0  0  0  0  0
  187.5010  177.7130  136.5420 C   0  0  2  0  0  3  0  0  0  0  0  0
  185.1060  177.0290  135.3920 C   0  0  0  0  0  2  0  0  0  0  0  0
  190.7080  177.4410  144.4050 C   0  0  2  0  0  3  0  0  0  0  0  0
  192.7320  178.7310  144.4710 O   0  0  0  0  0  1  0  0  0  0  0  0
  190.8070  179.9140  144.0950 O   0  0  0  0  0  0  0  0  0  0  0  0
  191.4800  178.7220  144.3240 C   0  0  0  0  0  0  0  0  0  0  0  0
  191.9430  175.8580  145.7370 F   0  0  0  0  0  0  0  0  0  0  0  0
  191.6070  176.2070  144.4410 C   0  0  0  0  0  2  0  0  0  0  0  0
  1 15  1  0  0  0  0
  1 13  1  0  0  0  0
  3 12  2  0  0  0  0
  3  2  1  0  0  0  0
  4  3  1  0  0  0  0
  5 11  1  0  0  0  0
  6 10  1  6  0  0  0
  6  9  1  0  0  0  0
  7  1  2  0  0  0  0
  8  7  1  0  0  0  0
  8  5  2  0  0  0  0
  9  5  1  0  0  0  0
  9 24  1  0  0  0  0
 11 13  2  0  0  0  0
 12 10  1  0  0  0  0
 14  2  1  6  0  0  0
 14  6  1  0  0  0  0
 14  8  1  0  0  0  0
 15 16  1  0  0  0  0
 17  4  1  0  0  0  0
 18 21  1  0  0  0  0
 19 22  1  0  0  0  0
 20 19  1  0  0  0  0
 20 23  1  0  0  0  0
 22 17  1  1  0  0  0
 22 21  1  0  0  0  0
 23 18  1  0  0  0  0
 24 29  1  6  0  0  0
 26 27  2  0  0  0  0
 27 24  1  0  0  0  0
 27 25  1  0  0  0  0
 29 28  1  0  0  0  0
M  END
>  <MODEL>
6

>  <REMARK>
 VINA RESULT:      -8.3      3.514      5.525
  Name = 
  6 active torsions:
  status: ('A' for Active; 'I' for Inactive)
    1  A    between atoms: C_1  and  N_15
    2  A    between atoms: C_1  and  C_23
    3  A    between atoms: C_2  and  O_6
    4  A    between atoms: C_5  and  C_12
    5  A    between atoms: C_5  and  N_21
    6  A    between atoms: C_5  and  C_24
                            x       y       z     vdW  Elec       q    Type
                         _______ _______ _______ _____ _____    ______ ____

>  <TORSDO>
F 6

$$$$
=
 OpenBabel10232412323D

 29 32  0  0  1  0  0  0  0  0999 V2000
  183.9390  178.8520  144.6960 C   0  0  0  0  0  0  0  0  0  0  0  0
  187.0970  178.0310  141.2840 C   0  0  0  0  0  2  0  0  0  0  0  0
  187.7110  178.3030  139.9070 C   0  0  0  0  0  0  0  0  0  0  0  0
  189.1150  178.1370  139.7060 N   0  0  0  0  0  2  0  0  0  0  0  0
  183.5760  178.8310  141.9300 C   0  0  0  0  0  0  0  0  0  0  0  0
  184.9440  178.3190  140.2050 C   0  0  1  0  0  3  0  0  0  0  0  0
  185.0600  178.7700  143.8430 C   0  0  0  0  0  3  0  0  0  0  0  0
  184.8400  178.7200  142.4700 C   0  0  0  0  0  0  0  0  0  0  0  0
  183.5900  178.7880  140.5000 N   0  0  0  0  0  0  0  0  0  0  0  0
  185.5630  178.8290  138.9980 N   0  0  0  0  0  2  0  0  0  0  0  0
  182.4500  178.9170  142.7520 C   0  0  0  0  0  3  0  0  0  0  0  0
  186.9640  178.6780  138.8910 N   0  0  0  0  0  0  0  0  0  0  0  0
  182.6430  178.9230  144.1430 C   0  0  0  0  0  3  0  0  0  0  0  0
  185.7950  178.8010  141.3500 C   0  0  1  0  0  3  0  0  0  0  0  0
  184.0790  178.8770  146.0860 O   0  0  0  0  0  0  0  0  0  0  0  0
  185.2460  178.4070  146.7480 C   0  0  0  0  0  1  0  0  0  0  0  0
  190.0140  177.7220  140.7700 C   0  0  0  0  0  2  0  0  0  0  0  0
  191.9290  175.7800  138.2130 O   0  0  0  0  0  0  0  0  0  0  0  0
  192.3510  177.6740  140.2810 O   0  0  0  0  0  0  0  0  0  0  0  0
  193.3980  176.8800  139.7720 C   0  0  0  0  0  2  0  0  0  0  0  0
  190.8830  176.5740  138.7220 C   0  0  0  0  0  2  0  0  0  0  0  0
  191.1650  176.9180  140.1940 C   0  0  2  0  0  3  0  0  0  0  0  0
  193.1160  176.5350  138.3040 C   0  0  0  0  0  2  0  0  0  0  0  0
  182.3940  178.4810  139.7140 C   0  0  2  0  0  3  0  0  0  0  0  0
  182.7940  176.8570  137.9920 O   0  0  0  0  0  0  0  0  0  0  0  0
  181.9980  176.0320  139.9740 O   0  0  0  0  0  1  0  0  0  0  0  0
  182.4140  177.0850  139.1710 C   0  0  0  0  0  0  0  0  0  0  0  0
  182.8330  180.6890  138.8560 F   0  0  0  0  0  0  0  0  0  0  0  0
  182.1070  179.5310  138.6430 C   0  0  0  0  0  2  0  0  0  0  0  0
  1 15  1  0  0  0  0
  3  2  1  0  0  0  0
  4  3  1  0  0  0  0
  4 17  1  0  0  0  0
  5  8  2  0  0  0  0
  5 11  1  0  0  0  0
  6 10  1  6  0  0  0
  6  9  1  0  0  0  0
  6 14  1  0  0  0  0
  7  1  2  0  0  0  0
  8  7  1  0  0  0  0
  9  5  1  0  0  0  0
 11 13  2  0  0  0  0
 12 10  1  0  0  0  0
 12  3  2  0  0  0  0
 13  1  1  0  0  0  0
 14  2  1  1  0  0  0
 14  8  1  0  0  0  0
 15 16  1  0  0  0  0
 18 23  1  0  0  0  0
 18 21  1  0  0  0  0
 20 19  1  0  0  0  0
 21 22  1  0  0  0  0
 22 19  1  0  0  0  0
 22 17  1  6  0  0  0
 23 20  1  0  0  0  0
 24 29  1  6  0  0  0
 24  9  1  0  0  0  0
 25 27  2  0  0  0  0
 27 24  1  0  0  0  0
 27 26  1  0  0  0  0
 29 28  1  0  0  0  0
M  END
>  <MODEL>
7

>  <REMARK>
 VINA RESULT:      -8.2      3.597      5.261
  Name = 
  6 active torsions:
  status: ('A' for Active; 'I' for Inactive)
    1  A    between atoms: C_1  and  N_15
    2  A    between atoms: C_1  and  C_23
    3  A    between atoms: C_2  and  O_6
    4  A    between atoms: C_5  and  C_12
    5  A    between atoms: C_5  and  N_21
    6  A    between atoms: C_5  and  C_24
                            x       y       z     vdW  Elec       q    Type
                         _______ _______ _______ _____ _____    ______ ____

>  <TORSDO>
F 6

$$$$
=
 OpenBabel10232412323D

 29 32  0  0  1  0  0  0  0  0999 V2000
  190.8630  177.2050  142.0520 C   0  0  0  0  0  0  0  0  0  0  0  0
  186.3130  177.7210  143.1990 C   0  0  0  0  0  2  0  0  0  0  0  0
  185.1850  178.3020  144.0580 C   0  0  0  0  0  0  0  0  0  0  0  0
  183.9150  178.5870  143.4710 N   0  0  0  0  0  2  0  0  0  0  0  0
  189.6920  177.3570  144.5790 C   0  0  0  0  0  0  0  0  0  0  0  0
  187.5420  177.4570  145.2720 C   0  0  1  0  0  3  0  0  0  0  0  0
  189.5000  177.5490  142.1720 C   0  0  0  0  0  3  0  0  0  0  0  0
  188.9380  177.5760  143.4450 C   0  0  0  0  0  0  0  0  0  0  0  0
  188.9160  177.4660  145.7760 N   0  0  0  0  0  0  0  0  0  0  0  0
  186.5740  178.2490  146.0030 N   0  0  0  0  0  2  0  0  0  0  0  0
  191.0430  177.0170  144.4870 C   0  0  0  0  0  3  0  0  0  0  0  0
  185.3590  178.5380  145.3400 N   0  0  0  0  0  0  0  0  0  0  0  0
  191.6230  176.9390  143.2110 C   0  0  0  0  0  3  0  0  0  0  0  0
  187.6160  178.0540  143.8910 C   0  0  1  0  0  3  0  0  0  0  0  0
  191.4900  177.1280  140.8050 O   0  0  0  0  0  0  0  0  0  0  0  0
  190.7800  177.2550  139.5810 C   0  0  0  0  0  1  0  0  0  0  0  0
  183.6330  178.3540  142.0640 C   0  0  0  0  0  2  0  0  0  0  0  0
  180.1300  179.4820  142.7220 O   0  0  0  0  0  0  0  0  0  0  0  0
  182.0250  179.3630  140.6150 O   0  0  0  0  0  0  0  0  0  0  0  0
  180.6470  179.5230  140.3700 C   0  0  0  0  0  2  0  0  0  0  0  0
  181.5080  179.3220  142.9650 C   0  0  0  0  0  2  0  0  0  0  0  0
  182.1600  178.5870  141.7830 C   0  0  2  0  0  3  0  0  0  0  0  0
  179.9950  180.2550  141.5510 C   0  0  0  0  0  2  0  0  0  0  0  0
  189.3570  176.8960  147.0510 C   0  0  2  0  0  3  0  0  0  0  0  0
  187.8290  177.2350  148.8700 O   0  0  0  0  0  1  0  0  0  0  0  0
  189.4360  178.8450  148.6050 O   0  0  0  0  0  0  0  0  0  0  0  0
  188.8270  177.6570  148.2270 C   0  0  0  0  0  0  0  0  0  0  0  0
  191.1900  175.4250  147.5800 F   0  0  0  0  0  0  0  0  0  0  0  0
  190.8690  176.6860  147.1110 C   0  0  0  0  0  2  0  0  0  0  0  0
  1  7  2  0  0  0  0
  1 13  1  0  0  0  0
  2  3  1  0  0  0  0
  3 12  2  0  0  0  0
  4  3  1  0  0  0  0
  5  9  1  0  0  0  0
  6  9  1  0  0  0  0
  6 10  1  1  0  0  0
  7  8  1  0  0  0  0
  8 14  1  0  0  0  0
  8  5  2  0  0  0  0
  9 24  1  0  0  0  0
 11  5  1  0  0  0  0
 12 10  1  0  0  0  0
 13 11  2  0  0  0  0
 14  2  1  6  0  0  0
 14  6  1  0  0  0  0
 15  1  1  0  0  0  0
 16 15  1  0  0  0  0
 17  4  1  0  0  0  0
 18 21  1  0  0  0  0
 19 22  1  0  0  0  0
 20 19  1  0  0  0  0
 20 23  1  0  0  0  0
 22 17  1  1  0  0  0
 22 21  1  0  0  0  0
 23 18  1  0  0  0  0
 24 29  1  6  0  0  0
 24 27  1  0  0  0  0
 27 26  2  0  0  0  0
 27 25  1  0  0  0  0
 29 28  1  0  0  0  0
M  END
>  <MODEL>
8

>  <REMARK>
 VINA RESULT:      -8.0      3.113      7.446
  Name = 
  6 active torsions:
  status: ('A' for Active; 'I' for Inactive)
    1  A    between atoms: C_1  and  N_15
    2  A    between atoms: C_1  and  C_23
    3  A    between atoms: C_2  and  O_6
    4  A    between atoms: C_5  and  C_12
    5  A    between atoms: C_5  and  N_21
    6  A    between atoms: C_5  and  C_24
                            x       y       z     vdW  Elec       q    Type
                         _______ _______ _______ _____ _____    ______ ____

>  <TORSDO>
F 6

$$$$
=
 OpenBabel10232412323D

 29 32  0  0  1  0  0  0  0  0999 V2000
  193.7420  175.8190  137.0030 C   0  0  0  0  0  0  0  0  0  0  0  0
  191.3510  177.3330  140.7820 C   0  0  0  0  0  2  0  0  0  0  0  0
  190.1060  177.3780  141.6740 C   0  0  0  0  0  0  0  0  0  0  0  0
  190.2450  177.5440  143.0860 N   0  0  0  0  0  2  0  0  0  0  0  0
  191.0480  176.5080  137.2210 C   0  0  0  0  0  0  0  0  0  0  0  0
  189.8150  177.3740  138.9070 C   0  0  1  0  0  3  0  0  0  0  0  0
  193.1840  176.0680  138.2750 C   0  0  0  0  0  3  0  0  0  0  0  0
  191.8470  176.4490  138.3430 C   0  0  0  0  0  0  0  0  0  0  0  0
  189.7040  176.8890  137.5300 N   0  0  0  0  0  0  0  0  0  0  0  0
  188.6750  177.1470  139.7730 N   0  0  0  0  0  2  0  0  0  0  0  0
  191.5750  176.2630  135.9520 C   0  0  0  0  0  3  0  0  0  0  0  0
  188.8990  177.2770  141.1630 N   0  0  0  0  0  0  0  0  0  0  0  0
  192.9330  175.9200  135.8510 C   0  0  0  0  0  3  0  0  0  0  0  0
  190.9620  176.6080  139.5120 C   0  0  1  0  0  3  0  0  0  0  0  0
  195.0840  175.4610  136.8520 O   0  0  0  0  0  0  0  0  0  0  0  0
  195.5870  174.1900  137.2380 C   0  0  0  0  0  1  0  0  0  0  0  0
  191.5400  177.6680  143.7360 C   0  0  0  0  0  2  0  0  0  0  0  0
  189.7650  177.6970  147.0260 O   0  0  0  0  0  0  0  0  0  0  0  0
  191.8330  176.3040  145.6740 O   0  0  0  0  0  0  0  0  0  0  0  0
  191.7010  176.2650  147.0760 C   0  0  0  0  0  2  0  0  0  0  0  0
  189.8990  177.7360  145.6250 C   0  0  0  0  0  2  0  0  0  0  0  0
  191.3770  177.5650  145.2410 C   0  0  2  0  0  3  0  0  0  0  0  0
  190.2250  176.4370  147.4600 C   0  0  0  0  0  2  0  0  0  0  0  0
  188.7840  177.4100  136.5170 C   0  0  2  0  0  3  0  0  0  0  0  0
  186.9090  178.8170  137.0350 O   0  0  0  0  0  0  0  0  0  0  0  0
  188.9690  179.8040  137.1900 O   0  0  0  0  0  1  0  0  0  0  0  0
  188.1600  178.7080  136.9310 C   0  0  0  0  0  0  0  0  0  0  0  0
  187.5720  175.3890  137.0190 F   0  0  0  0  0  0  0  0  0  0  0  0
  187.7570  176.3740  136.0650 C   0  0  0  0  0  2  0  0  0  0  0  0
  1  7  1  0  0  0  0
  2  3  1  0  0  0  0
  3  4  1  0  0  0  0
  4 17  1  0  0  0  0
  5  9  1  0  0  0  0
  5  8  1  0  0  0  0
  6 14  1  0  0  0  0
  6 10  1  1  0  0  0
  7  8  2  0  0  0  0
  8 14  1  0  0  0  0
  9  6  1  0  0  0  0
 10 12  1  0  0  0  0
 11  5  2  0  0  0  0
 12  3  2  0  0  0  0
 13 11  1  0  0  0  0
 13  1  2  0  0  0  0
 14  2  1  1  0  0  0
 15  1  1  0  0  0  0
 15 16  1  0  0  0  0
 18 23  1  0  0  0  0
 19 20  1  0  0  0  0
 20 23  1  0  0  0  0
 21 18  1  0  0  0  0
 22 17  1  6  0  0  0
 22 21  1  0  0  0  0
 22 19  1  0  0  0  0
 24 29  1  1  0  0  0
 24 27  1  0  0  0  0
 24  9  1  0  0  0  0
 27 25  2  0  0  0  0
 27 26  1  0  0  0  0
 29 28  1  0  0  0  0
M  END
>  <MODEL>
9

>  <REMARK>
 VINA RESULT:      -7.9      3.467      8.247
  Name = 
  6 active torsions:
  status: ('A' for Active; 'I' for Inactive)
    1  A    between atoms: C_1  and  N_15
    2  A    between atoms: C_1  and  C_23
    3  A    between atoms: C_2  and  O_6
    4  A    between atoms: C_5  and  C_12
    5  A    between atoms: C_5  and  N_21
    6  A    between atoms: C_5  and  C_24
                            x       y       z     vdW  Elec       q    Type
                         _______ _______ _______ _____ _____    ______ ____

>  <TORSDO>
F 6

$$$$
