=
 OpenBabel10232411053D

 39 40  0  0  1  0  0  0  0  0999 V2000
  189.2910  177.4550  138.4390 C   0  0  1  0  0  3  0  0  0  0  0  0
  189.0160  178.7330  139.2140 C   0  0  0  0  0  1  0  0  0  0  0  0
  190.7520  175.5340  138.6310 O   0  0  0  0  0  1  0  0  0  0  0  0
  189.9530  176.4270  139.3560 C   0  0  1  0  0  3  0  0  0  0  0  0
  190.7560  177.0770  140.4760 C   0  0  0  0  0  2  0  0  0  0  0  0
  190.2970  177.1850  142.9530 C   0  0  0  0  0  0  0  0  0  0  0  0
  190.1190  176.4920  144.1930 N   0  0  0  0  0  2  0  0  0  0  0  0
  190.3140  178.4470  142.9200 O   0  0  0  0  0  0  0  0  0  0  0  0
  190.4920  176.4340  141.7540 N   0  0  0  0  0  2  0  0  0  0  0  0
  188.3360  177.4270  145.6250 C   0  0  0  0  0  0  0  0  0  0  0  0
  189.5870  177.0610  145.3970 C   0  0  1  0  0  3  0  0  0  0  0  0
  187.2200  177.3780  144.7850 C   0  0  0  0  0  3  0  0  0  0  0  0
  188.2340  177.8600  146.9250 C   0  0  0  0  0  0  0  0  0  0  0  0
  185.9840  177.8110  145.2970 C   0  0  0  0  0  3  0  0  0  0  0  0
  190.3670  177.2620  146.6650 C   0  0  1  0  0  3  0  0  0  0  0  0
  185.8870  178.2720  146.6260 C   0  0  0  0  0  3  0  0  0  0  0  0
  187.0190  178.2960  147.4560 C   0  0  0  0  0  3  0  0  0  0  0  0
  189.3490  177.7950  147.5740 N   0  0  0  0  0  2  0  0  0  0  0  0
  190.8910  175.9670  147.2030 C   0  0  0  0  0  3  0  0  0  0  0  0
  193.3170  175.7300  147.9340 O   0  0  0  0  0  0  0  0  0  0  0  0
  192.1360  175.8480  147.5750 C   0  0  0  0  0  0  0  0  0  0  0  0
  188.0450  176.9330  137.8880 N   0  0  0  0  0  2  0  0  0  0  0  0
  187.2470  178.0640  137.4340 C   0  0  1  0  0  3  0  0  0  0  0  0
  187.6460  178.4290  136.1460 O   0  0  0  0  0  1  0  0  0  0  0  0
  185.7670  177.6870  137.4280 C   0  0  2  0  0  3  0  0  0  0  0  0
  185.7250  178.9830  139.4830 O   0  0  0  0  0  1  0  0  0  0  0  0
  182.9990  178.1600  137.3470 O   0  0  0  0  0  0  0  0  0  0  0  0
  185.0400  178.4300  138.4540 N   0  0  0  0  0  0  0  0  0  0  0  0
  183.6070  178.5310  138.3880 C   0  0  0  0  0  0  0  0  0  0  0  0
  182.8000  179.0660  139.5340 C   0  0  1  0  0  3  0  0  0  0  0  0
  181.5070  179.4100  139.1320 O   0  0  0  0  0  1  0  0  0  0  0  0
  182.7740  178.1120  140.7270 C   0  0  0  0  0  2  0  0  0  0  0  0
  182.2940  178.7460  141.8770 O   0  0  0  0  0  0  0  0  0  0  0  0
  182.8690  178.8820  144.1770 C   0  0  0  0  0  1  0  0  0  0  0  0
  183.3780  178.7660  142.7570 C   0  0  0  0  0  2  0  0  0  0  0  0
  185.6110  176.2540  137.6580 N   0  0  0  0  0  2  0  0  0  0  0  0
  185.1820  175.6590  136.4010 C   0  0  0  0  0  2  0  0  0  0  0  0
  185.3320  174.1500  136.4640 C   0  0  0  0  0  2  0  0  0  0  0  0
  184.8590  173.5760  135.2830 O   0  0  0  0  0  1  0  0  0  0  0  0
  1  2  1  1  0  0  0
  1  4  1  0  0  0  0
  4  3  1  6  0  0  0
  4  5  1  0  0  0  0
  5  9  1  0  0  0  0
  6  7  1  0  0  0  0
  8  6  2  0  0  0  0
  9  6  1  0  0  0  0
 10 13  1  0  0  0  0
 11  7  1  1  0  0  0
 11 10  1  0  0  0  0
 11 15  1  0  0  0  0
 12 14  1  0  0  0  0
 12 10  2  0  0  0  0
 13 17  2  0  0  0  0
 13 18  1  0  0  0  0
 14 16  2  0  0  0  0
 15 19  1  1  0  0  0
 15 18  1  0  0  0  0
 16 17  1  0  0  0  0
 19 21  2  0  0  0  0
 21 20  2  0  0  0  0
 22  1  1  0  0  0  0
 23 24  1  6  0  0  0
 23 22  1  0  0  0  0
 25 23  1  0  0  0  0
 25 36  1  1  0  0  0
 25 28  1  0  0  0  0
 27 29  2  0  0  0  0
 28 26  1  0  0  0  0
 29 28  1  0  0  0  0
 29 30  1  0  0  0  0
 30 31  1  6  0  0  0
 30 32  1  0  0  0  0
 32 33  1  0  0  0  0
 33 35  1  0  0  0  0
 35 34  1  0  0  0  0
 37 38  1  0  0  0  0
 37 36  1  0  0  0  0
 39 38  1  0  0  0  0
M  END
>  <MODEL>
1

>  <REMARK>
 VINA RESULT:      -7.3      0.000      0.000
  Name = 
  16 active torsions:
  status: ('A' for Active; 'I' for Inactive)
    1  A    between atoms: C_1  and  C_19
    2  A    between atoms: C_1  and  N_35
    3  A    between atoms: C_3  and  C_25
    4  A    between atoms: C_4  and  N_14
    5  A    between atoms: C_11  and  O_32
    6  A    between atoms: N_13  and  C_23
    7  A    between atoms: N_13  and  C_27
    8  A    between atoms: C_15  and  C_19
    9  A    between atoms: C_15  and  N_34
   10  A    between atoms: N_18  and  C_27
   11  A    between atoms: C_22  and  C_27
   12  A    between atoms: C_22  and  N_34
   13  A    between atoms: C_23  and  C_24
   14  A    between atoms: C_26  and  C_28
   15  A    between atoms: C_26  and  C_38
   16  A    between atoms: C_28  and  O_32
                            x       y       z     vdW  Elec       q    Type
                         _______ _______ _______ _____ _____    ______ ____

>  <TORSDO>
F 16

$$$$
=
 OpenBabel10232411053D

 39 40  0  0  1  0  0  0  0  0999 V2000
  189.5450  177.4530  138.4430 C   0  0  1  0  0  3  0  0  0  0  0  0
  190.8470  176.7490  138.0950 C   0  0  0  0  0  1  0  0  0  0  0  0
  188.3680  177.3170  140.5540 O   0  0  0  0  0  1  0  0  0  0  0  0
  189.5270  177.7990  139.9310 C   0  0  1  0  0  3  0  0  0  0  0  0
  190.7710  177.3040  140.6600 C   0  0  0  0  0  2  0  0  0  0  0  0
  190.2350  177.3480  143.1230 C   0  0  0  0  0  0  0  0  0  0  0  0
  189.9680  176.6210  144.3270 N   0  0  0  0  0  2  0  0  0  0  0  0
  190.3380  178.6060  143.1420 O   0  0  0  0  0  0  0  0  0  0  0  0
  190.4200  176.6320  141.9020 N   0  0  0  0  0  2  0  0  0  0  0  0
  188.1840  177.5520  145.7630 C   0  0  0  0  0  0  0  0  0  0  0  0
  189.4340  177.1790  145.5360 C   0  0  1  0  0  3  0  0  0  0  0  0
  187.0720  177.5230  144.9160 C   0  0  0  0  0  3  0  0  0  0  0  0
  188.0790  177.9680  147.0670 C   0  0  0  0  0  0  0  0  0  0  0  0
  185.8380  177.9590  145.4270 C   0  0  0  0  0  3  0  0  0  0  0  0
  190.2080  177.3560  146.8110 C   0  0  1  0  0  3  0  0  0  0  0  0
  185.7360  178.4020  146.7610 C   0  0  0  0  0  3  0  0  0  0  0  0
  186.8640  178.4060  147.5970 C   0  0  0  0  0  3  0  0  0  0  0  0
  189.1890  177.8860  147.7210 N   0  0  0  0  0  2  0  0  0  0  0  0
  190.7200  176.0510  147.3340 C   0  0  0  0  0  3  0  0  0  0  0  0
  193.2140  175.6220  147.5950 O   0  0  0  0  0  0  0  0  0  0  0  0
  191.9990  175.8330  147.4650 C   0  0  0  0  0  0  0  0  0  0  0  0
  189.4010  178.6540  137.6290 N   0  0  0  0  0  2  0  0  0  0  0  0
  188.3770  178.3950  136.6240 C   0  0  1  0  0  3  0  0  0  0  0  0
  188.8970  177.5550  135.6370 O   0  0  0  0  0  1  0  0  0  0  0  0
  187.1640  177.7370  137.2760 C   0  0  2  0  0  3  0  0  0  0  0  0
  185.7520  177.4970  135.3140 O   0  0  0  0  0  1  0  0  0  0  0  0
  187.2290  174.9280  137.2860 O   0  0  0  0  0  0  0  0  0  0  0  0
  186.4470  176.9050  136.3140 N   0  0  0  0  0  0  0  0  0  0  0  0
  186.4490  175.4750  136.4590 C   0  0  0  0  0  0  0  0  0  0  0  0
  185.5370  174.5980  135.6500 C   0  0  1  0  0  3  0  0  0  0  0  0
  186.1820  173.4270  135.2440 O   0  0  0  0  0  1  0  0  0  0  0  0
  184.2300  174.2860  136.3780 C   0  0  0  0  0  2  0  0  0  0  0  0
  183.4080  173.4540  135.6130 O   0  0  0  0  0  0  0  0  0  0  0  0
  183.2590  171.4920  136.9440 C   0  0  0  0  0  1  0  0  0  0  0  0
  182.6000  172.7940  136.5410 C   0  0  0  0  0  2  0  0  0  0  0  0
  186.2640  178.7540  137.8100 N   0  0  0  0  0  2  0  0  0  0  0  0
  185.3670  178.0910  138.7450 C   0  0  0  0  0  2  0  0  0  0  0  0
  184.8260  179.0950  139.7460 C   0  0  0  0  0  2  0  0  0  0  0  0
  184.3670  180.2310  139.0780 O   0  0  0  0  0  1  0  0  0  0  0  0
  1  2  1  6  0  0  0
  1  4  1  0  0  0  0
  4  3  1  1  0  0  0
  4  5  1  0  0  0  0
  5  9  1  0  0  0  0
  6  8  2  0  0  0  0
  6  7  1  0  0  0  0
  9  6  1  0  0  0  0
 10 13  1  0  0  0  0
 11  7  1  1  0  0  0
 11 10  1  0  0  0  0
 11 15  1  0  0  0  0
 12 14  1  0  0  0  0
 12 10  2  0  0  0  0
 13 17  2  0  0  0  0
 13 18  1  0  0  0  0
 14 16  2  0  0  0  0
 15 19  1  1  0  0  0
 15 18  1  0  0  0  0
 16 17  1  0  0  0  0
 19 21  2  0  0  0  0
 21 20  2  0  0  0  0
 22  1  1  0  0  0  0
 23 24  1  6  0  0  0
 23 25  1  0  0  0  0
 23 22  1  0  0  0  0
 25 36  1  6  0  0  0
 26 28  1  0  0  0  0
 28 29  1  0  0  0  0
 28 25  1  0  0  0  0
 29 27  2  0  0  0  0
 30 31  1  1  0  0  0
 30 32  1  0  0  0  0
 30 29  1  0  0  0  0
 33 32  1  0  0  0  0
 33 35  1  0  0  0  0
 35 34  1  0  0  0  0
 36 37  1  0  0  0  0
 37 38  1  0  0  0  0
 39 38  1  0  0  0  0
M  END
>  <MODEL>
2

>  <REMARK>
 VINA RESULT:      -7.2      1.667      4.013
  Name = 
  16 active torsions:
  status: ('A' for Active; 'I' for Inactive)
    1  A    between atoms: C_1  and  C_19
    2  A    between atoms: C_1  and  N_35
    3  A    between atoms: C_3  and  C_25
    4  A    between atoms: C_4  and  N_14
    5  A    between atoms: C_11  and  O_32
    6  A    between atoms: N_13  and  C_23
    7  A    between atoms: N_13  and  C_27
    8  A    between atoms: C_15  and  C_19
    9  A    between atoms: C_15  and  N_34
   10  A    between atoms: N_18  and  C_27
   11  A    between atoms: C_22  and  C_27
   12  A    between atoms: C_22  and  N_34
   13  A    between atoms: C_23  and  C_24
   14  A    between atoms: C_26  and  C_28
   15  A    between atoms: C_26  and  C_38
   16  A    between atoms: C_28  and  O_32
                            x       y       z     vdW  Elec       q    Type
                         _______ _______ _______ _____ _____    ______ ____

>  <TORSDO>
F 16

$$$$
=
 OpenBabel10232411053D

 39 40  0  0  1  0  0  0  0  0999 V2000
  190.3870  177.3340  137.7630 C   0  0  1  0  0  3  0  0  0  0  0  0
  189.3170  176.8210  136.8130 C   0  0  0  0  0  1  0  0  0  0  0  0
  188.9090  179.1240  138.4500 O   0  0  0  0  0  1  0  0  0  0  0  0
  189.7330  178.0920  138.9170 C   0  0  1  0  0  3  0  0  0  0  0  0
  188.9600  177.1720  139.8540 C   0  0  0  0  0  2  0  0  0  0  0  0
  188.3820  177.2410  142.3080 C   0  0  0  0  0  0  0  0  0  0  0  0
  187.8610  177.9780  143.4190 N   0  0  0  0  0  2  0  0  0  0  0  0
  188.6940  176.0240  142.4340 O   0  0  0  0  0  0  0  0  0  0  0  0
  188.5120  177.8860  141.0400 N   0  0  0  0  0  2  0  0  0  0  0  0
  189.0960  177.3570  145.4680 C   0  0  0  0  0  0  0  0  0  0  0  0
  187.9800  177.6010  144.7980 C   0  0  1  0  0  3  0  0  0  0  0  0
  190.4250  177.3820  145.0370 C   0  0  0  0  0  3  0  0  0  0  0  0
  188.7740  177.0980  146.7780 C   0  0  0  0  0  0  0  0  0  0  0  0
  191.4330  177.1060  145.9770 C   0  0  0  0  0  3  0  0  0  0  0  0
  186.8310  177.5040  145.7600 C   0  0  1  0  0  3  0  0  0  0  0  0
  191.0980  176.8220  147.3160 C   0  0  0  0  0  3  0  0  0  0  0  0
  189.7560  176.8190  147.7290 C   0  0  0  0  0  3  0  0  0  0  0  0
  187.5060  177.1610  147.0150 N   0  0  0  0  0  2  0  0  0  0  0  0
  186.1240  178.8130  145.9110 C   0  0  0  0  0  3  0  0  0  0  0  0
  183.6160  179.0090  145.5270 O   0  0  0  0  0  0  0  0  0  0  0  0
  184.8370  178.9110  145.7120 C   0  0  0  0  0  0  0  0  0  0  0  0
  191.1830  176.2170  138.2590 N   0  0  0  0  0  2  0  0  0  0  0  0
  192.5640  176.4310  137.8460 C   0  0  1  0  0  3  0  0  0  0  0  0
  193.3110  176.8850  138.9360 O   0  0  0  0  0  1  0  0  0  0  0  0
  193.1570  175.1260  137.3220 C   0  0  2  0  0  3  0  0  0  0  0  0
  194.9860  176.2310  136.1640 O   0  0  0  0  0  1  0  0  0  0  0  0
  195.1720  173.6380  138.5950 O   0  0  0  0  0  0  0  0  0  0  0  0
  194.5820  175.2810  137.0410 N   0  0  0  0  0  0  0  0  0  0  0  0
  195.5360  174.4020  137.6610 C   0  0  0  0  0  0  0  0  0  0  0  0
  196.9710  174.3600  137.2230 C   0  0  1  0  0  3  0  0  0  0  0  0
  197.7260  175.3550  137.8490 O   0  0  0  0  0  1  0  0  0  0  0  0
  197.6020  172.9820  137.4170 C   0  0  0  0  0  2  0  0  0  0  0  0
  197.2280  172.1020  136.3980 O   0  0  0  0  0  0  0  0  0  0  0  0
  199.4200  171.6330  137.1830 C   0  0  0  0  0  1  0  0  0  0  0  0
  198.2560  171.1590  136.3400 C   0  0  0  0  0  2  0  0  0  0  0  0
  192.4620  174.7070  136.1090 N   0  0  0  0  0  2  0  0  0  0  0  0
  191.9240  173.3780  136.3560 C   0  0  0  0  0  2  0  0  0  0  0  0
  190.4260  173.3710  136.1130 C   0  0  0  0  0  2  0  0  0  0  0  0
  189.7480  173.2840  137.3300 O   0  0  0  0  0  1  0  0  0  0  0  0
  1  2  1  6  0  0  0
  1 22  1  0  0  0  0
  1  4  1  0  0  0  0
  4  3  1  6  0  0  0
  4  5  1  0  0  0  0
  5  9  1  0  0  0  0
  6  8  2  0  0  0  0
  6  7  1  0  0  0  0
  9  6  1  0  0  0  0
 10 13  1  0  0  0  0
 11  7  1  1  0  0  0
 11 10  1  0  0  0  0
 11 15  1  0  0  0  0
 12 10  2  0  0  0  0
 12 14  1  0  0  0  0
 13 18  1  0  0  0  0
 13 17  2  0  0  0  0
 14 16  2  0  0  0  0
 15 19  1  1  0  0  0
 15 18  1  0  0  0  0
 16 17  1  0  0  0  0
 20 21  2  0  0  0  0
 21 19  2  0  0  0  0
 23 22  1  0  0  0  0
 23 24  1  1  0  0  0
 25 36  1  6  0  0  0
 25 23  1  0  0  0  0
 26 28  1  0  0  0  0
 28 25  1  0  0  0  0
 28 29  1  0  0  0  0
 29 27  2  0  0  0  0
 30 32  1  0  0  0  0
 30 29  1  0  0  0  0
 30 31  1  1  0  0  0
 33 32  1  0  0  0  0
 35 33  1  0  0  0  0
 35 34  1  0  0  0  0
 36 37  1  0  0  0  0
 38 37  1  0  0  0  0
 38 39  1  0  0  0  0
M  END
>  <MODEL>
3

>  <REMARK>
 VINA RESULT:      -7.2      4.469      8.730
  Name = 
  16 active torsions:
  status: ('A' for Active; 'I' for Inactive)
    1  A    between atoms: C_1  and  C_19
    2  A    between atoms: C_1  and  N_35
    3  A    between atoms: C_3  and  C_25
    4  A    between atoms: C_4  and  N_14
    5  A    between atoms: C_11  and  O_32
    6  A    between atoms: N_13  and  C_23
    7  A    between atoms: N_13  and  C_27
    8  A    between atoms: C_15  and  C_19
    9  A    between atoms: C_15  and  N_34
   10  A    between atoms: N_18  and  C_27
   11  A    between atoms: C_22  and  C_27
   12  A    between atoms: C_22  and  N_34
   13  A    between atoms: C_23  and  C_24
   14  A    between atoms: C_26  and  C_28
   15  A    between atoms: C_26  and  C_38
   16  A    between atoms: C_28  and  O_32
                            x       y       z     vdW  Elec       q    Type
                         _______ _______ _______ _____ _____    ______ ____

>  <TORSDO>
F 16

$$$$
=
 OpenBabel10232411053D

 39 40  0  0  1  0  0  0  0  0999 V2000
  190.4670  176.9540  138.4630 C   0  0  1  0  0  3  0  0  0  0  0  0
  189.2620  176.3470  137.7630 C   0  0  0  0  0  1  0  0  0  0  0  0
  188.7180  177.2710  140.1060 O   0  0  0  0  0  1  0  0  0  0  0  0
  190.0230  177.6390  139.7550 C   0  0  1  0  0  3  0  0  0  0  0  0
  190.9820  177.3780  140.9110 C   0  0  0  0  0  2  0  0  0  0  0  0
  189.9850  177.4920  143.2240 C   0  0  0  0  0  0  0  0  0  0  0  0
  189.3780  176.8100  144.3260 N   0  0  0  0  0  2  0  0  0  0  0  0
  190.2780  178.7170  143.3090 O   0  0  0  0  0  0  0  0  0  0  0  0
  190.2930  176.7630  142.0350 N   0  0  0  0  0  2  0  0  0  0  0  0
  187.4320  177.7720  145.5080 C   0  0  0  0  0  0  0  0  0  0  0  0
  188.7110  177.4390  145.4290 C   0  0  1  0  0  3  0  0  0  0  0  0
  186.4070  177.6240  144.5680 C   0  0  0  0  0  3  0  0  0  0  0  0
  187.1870  178.2860  146.7570 C   0  0  0  0  0  0  0  0  0  0  0  0
  185.1140  178.0440  144.9250 C   0  0  0  0  0  3  0  0  0  0  0  0
  189.3520  177.7530  146.7500 C   0  0  1  0  0  3  0  0  0  0  0  0
  184.8700  178.5880  146.2010 C   0  0  0  0  0  3  0  0  0  0  0  0
  185.9120  178.7110  147.1350 C   0  0  0  0  0  3  0  0  0  0  0  0
  188.2320  178.3080  147.5150 N   0  0  0  0  0  2  0  0  0  0  0  0
  189.8600  176.5190  147.4270 C   0  0  0  0  0  3  0  0  0  0  0  0
  192.3230  175.8870  147.3420 O   0  0  0  0  0  0  0  0  0  0  0  0
  191.1230  176.1960  147.3800 C   0  0  0  0  0  0  0  0  0  0  0  0
  191.4540  175.9160  138.7370 N   0  0  0  0  0  2  0  0  0  0  0  0
  192.6650  176.2400  137.9950 C   0  0  1  0  0  3  0  0  0  0  0  0
  193.6030  176.8070  138.8600 O   0  0  0  0  0  1  0  0  0  0  0  0
  193.2430  174.9740  137.3660 C   0  0  2  0  0  3  0  0  0  0  0  0
  194.9750  176.0870  136.0760 O   0  0  0  0  0  1  0  0  0  0  0  0
  195.3660  173.6200  138.6110 O   0  0  0  0  0  0  0  0  0  0  0  0
  194.6470  175.1660  137.0130 N   0  0  0  0  0  0  0  0  0  0  0  0
  195.6600  174.3520  137.6270 C   0  0  0  0  0  0  0  0  0  0  0  0
  197.0750  174.3400  137.1260 C   0  0  1  0  0  3  0  0  0  0  0  0
  197.7800  175.4640  137.5600 O   0  0  0  0  0  1  0  0  0  0  0  0
  197.8120  173.0510  137.4850 C   0  0  0  0  0  2  0  0  0  0  0  0
  197.6190  172.0650  136.5130 O   0  0  0  0  0  0  0  0  0  0  0  0
  197.9650  169.8690  137.3500 C   0  0  0  0  0  1  0  0  0  0  0  0
  198.6050  171.1100  136.7670 C   0  0  0  0  0  2  0  0  0  0  0  0
  192.4830  174.6110  136.1740 N   0  0  0  0  0  2  0  0  0  0  0  0
  191.9500  173.2740  136.3910 C   0  0  0  0  0  2  0  0  0  0  0  0
  190.8940  172.9610  135.3470 C   0  0  0  0  0  2  0  0  0  0  0  0
  189.6220  173.1860  135.8760 O   0  0  0  0  0  1  0  0  0  0  0  0
  1  2  1  1  0  0  0
  1 22  1  0  0  0  0
  1  4  1  0  0  0  0
  4  3  1  1  0  0  0
  4  5  1  0  0  0  0
  5  9  1  0  0  0  0
  6  8  2  0  0  0  0
  6  7  1  0  0  0  0
  9  6  1  0  0  0  0
 10 13  1  0  0  0  0
 11  7  1  1  0  0  0
 11 10  1  0  0  0  0
 11 15  1  0  0  0  0
 12 14  1  0  0  0  0
 12 10  2  0  0  0  0
 13 17  2  0  0  0  0
 13 18  1  0  0  0  0
 14 16  2  0  0  0  0
 15 19  1  1  0  0  0
 15 18  1  0  0  0  0
 16 17  1  0  0  0  0
 20 21  2  0  0  0  0
 21 19  2  0  0  0  0
 23 22  1  0  0  0  0
 23 24  1  1  0  0  0
 25 36  1  6  0  0  0
 25 23  1  0  0  0  0
 26 28  1  0  0  0  0
 28 25  1  0  0  0  0
 28 29  1  0  0  0  0
 29 27  2  0  0  0  0
 30 32  1  0  0  0  0
 30 31  1  1  0  0  0
 30 29  1  0  0  0  0
 33 35  1  0  0  0  0
 33 32  1  0  0  0  0
 35 34  1  0  0  0  0
 36 37  1  0  0  0  0
 38 39  1  0  0  0  0
 38 37  1  0  0  0  0
M  END
>  <MODEL>
4

>  <REMARK>
 VINA RESULT:      -7.0      4.431      8.272
  Name = 
  16 active torsions:
  status: ('A' for Active; 'I' for Inactive)
    1  A    between atoms: C_1  and  C_19
    2  A    between atoms: C_1  and  N_35
    3  A    between atoms: C_3  and  C_25
    4  A    between atoms: C_4  and  N_14
    5  A    between atoms: C_11  and  O_32
    6  A    between atoms: N_13  and  C_23
    7  A    between atoms: N_13  and  C_27
    8  A    between atoms: C_15  and  C_19
    9  A    between atoms: C_15  and  N_34
   10  A    between atoms: N_18  and  C_27
   11  A    between atoms: C_22  and  C_27
   12  A    between atoms: C_22  and  N_34
   13  A    between atoms: C_23  and  C_24
   14  A    between atoms: C_26  and  C_28
   15  A    between atoms: C_26  and  C_38
   16  A    between atoms: C_28  and  O_32
                            x       y       z     vdW  Elec       q    Type
                         _______ _______ _______ _____ _____    ______ ____

>  <TORSDO>
F 16

$$$$
=
 OpenBabel10232411053D

 39 40  0  0  1  0  0  0  0  0999 V2000
  189.3840  177.6800  138.2270 C   0  0  1  0  0  3  0  0  0  0  0  0
  190.6670  176.9270  137.9190 C   0  0  0  0  0  1  0  0  0  0  0  0
  188.1170  178.3690  140.1710 O   0  0  0  0  0  1  0  0  0  0  0  0
  189.4120  178.1810  139.6700 C   0  0  1  0  0  3  0  0  0  0  0  0
  190.2140  177.2670  140.5890 C   0  0  0  0  0  2  0  0  0  0  0  0
  189.0810  177.1850  142.8400 C   0  0  0  0  0  0  0  0  0  0  0  0
  188.2890  176.4540  143.7820 N   0  0  0  0  0  2  0  0  0  0  0  0
  189.5640  178.3100  143.1440 O   0  0  0  0  0  0  0  0  0  0  0  0
  189.3520  176.6110  141.5600 N   0  0  0  0  0  2  0  0  0  0  0  0
  188.2260  177.3170  146.0970 C   0  0  0  0  0  0  0  0  0  0  0  0
  187.6550  177.0060  144.9430 C   0  0  1  0  0  3  0  0  0  0  0  0
  189.5570  177.1860  146.5020 C   0  0  0  0  0  3  0  0  0  0  0  0
  187.2810  177.8820  146.9180 C   0  0  0  0  0  0  0  0  0  0  0  0
  189.9050  177.6260  147.7910 C   0  0  0  0  0  3  0  0  0  0  0  0
  186.2120  177.4180  145.0160 C   0  0  1  0  0  3  0  0  0  0  0  0
  188.9290  178.1890  148.6380 C   0  0  0  0  0  3  0  0  0  0  0  0
  187.6010  178.3240  148.2020 C   0  0  0  0  0  3  0  0  0  0  0  0
  186.1150  177.9690  146.3700 N   0  0  0  0  0  2  0  0  0  0  0  0
  185.8900  178.4830  144.0160 C   0  0  0  0  0  3  0  0  0  0  0  0
  183.6200  178.5730  142.8700 O   0  0  0  0  0  0  0  0  0  0  0  0
  184.7250  178.5260  143.4290 C   0  0  0  0  0  0  0  0  0  0  0  0
  189.2280  178.7910  137.2940 N   0  0  0  0  0  2  0  0  0  0  0  0
  188.2180  178.4160  136.3130 C   0  0  1  0  0  3  0  0  0  0  0  0
  188.7880  177.5660  135.3620 O   0  0  0  0  0  1  0  0  0  0  0  0
  187.0570  177.7090  137.0070 C   0  0  2  0  0  3  0  0  0  0  0  0
  185.6650  177.2310  135.0740 O   0  0  0  0  0  1  0  0  0  0  0  0
  187.3660  174.9220  137.1820 O   0  0  0  0  0  0  0  0  0  0  0  0
  186.4130  176.7620  136.1010 N   0  0  0  0  0  0  0  0  0  0  0  0
  186.5390  175.3480  136.3310 C   0  0  0  0  0  0  0  0  0  0  0  0
  185.7050  174.3490  135.5830 C   0  0  1  0  0  3  0  0  0  0  0  0
  186.4640  173.6540  134.6390 O   0  0  0  0  0  1  0  0  0  0  0  0
  184.9670  173.3890  136.5150 C   0  0  0  0  0  2  0  0  0  0  0  0
  185.3800  172.0690  136.3180 O   0  0  0  0  0  0  0  0  0  0  0  0
  183.1560  171.7560  137.0930 C   0  0  0  0  0  1  0  0  0  0  0  0
  184.2030  171.3560  136.0770 C   0  0  0  0  0  2  0  0  0  0  0  0
  186.0780  178.6850  137.4730 N   0  0  0  0  0  2  0  0  0  0  0  0
  185.1360  177.9790  138.3280 C   0  0  0  0  0  2  0  0  0  0  0  0
  184.8030  178.8250  139.5440 C   0  0  0  0  0  2  0  0  0  0  0  0
  184.4070  180.1010  139.1400 O   0  0  0  0  0  1  0  0  0  0  0  0
  1  2  1  6  0  0  0
  1  4  1  0  0  0  0
  4  3  1  1  0  0  0
  4  5  1  0  0  0  0
  5  9  1  0  0  0  0
  6  8  2  0  0  0  0
  6  7  1  0  0  0  0
  9  6  1  0  0  0  0
 10 12  2  0  0  0  0
 10 13  1  0  0  0  0
 11  7  1  6  0  0  0
 11 15  1  0  0  0  0
 11 10  1  0  0  0  0
 12 14  1  0  0  0  0
 13 17  2  0  0  0  0
 14 16  2  0  0  0  0
 15 19  1  6  0  0  0
 15 18  1  0  0  0  0
 17 16  1  0  0  0  0
 18 13  1  0  0  0  0
 20 21  2  0  0  0  0
 21 19  2  0  0  0  0
 22  1  1  0  0  0  0
 23 24  1  6  0  0  0
 23 25  1  0  0  0  0
 23 22  1  0  0  0  0
 25 36  1  6  0  0  0
 26 28  1  0  0  0  0
 28 29  1  0  0  0  0
 28 25  1  0  0  0  0
 29 27  2  0  0  0  0
 30 31  1  6  0  0  0
 30 29  1  0  0  0  0
 30 32  1  0  0  0  0
 33 32  1  0  0  0  0
 35 33  1  0  0  0  0
 35 34  1  0  0  0  0
 36 37  1  0  0  0  0
 37 38  1  0  0  0  0
 39 38  1  0  0  0  0
M  END
>  <MODEL>
5

>  <REMARK>
 VINA RESULT:      -7.0      2.037      5.121
  Name = 
  16 active torsions:
  status: ('A' for Active; 'I' for Inactive)
    1  A    between atoms: C_1  and  C_19
    2  A    between atoms: C_1  and  N_35
    3  A    between atoms: C_3  and  C_25
    4  A    between atoms: C_4  and  N_14
    5  A    between atoms: C_11  and  O_32
    6  A    between atoms: N_13  and  C_23
    7  A    between atoms: N_13  and  C_27
    8  A    between atoms: C_15  and  C_19
    9  A    between atoms: C_15  and  N_34
   10  A    between atoms: N_18  and  C_27
   11  A    between atoms: C_22  and  C_27
   12  A    between atoms: C_22  and  N_34
   13  A    between atoms: C_23  and  C_24
   14  A    between atoms: C_26  and  C_28
   15  A    between atoms: C_26  and  C_38
   16  A    between atoms: C_28  and  O_32
                            x       y       z     vdW  Elec       q    Type
                         _______ _______ _______ _____ _____    ______ ____

>  <TORSDO>
F 16

$$$$
=
 OpenBabel10232411053D

 39 40  0  0  1  0  0  0  0  0999 V2000
  189.4160  178.0580  139.0110 C   0  0  1  0  0  3  0  0  0  0  0  0
  188.2620  178.3410  139.9580 C   0  0  0  0  0  1  0  0  0  0  0  0
  191.0640  176.3480  138.5410 O   0  0  0  0  0  1  0  0  0  0  0  0
  190.2460  176.8890  139.5410 C   0  0  1  0  0  3  0  0  0  0  0  0
  191.0740  177.2690  140.7620 C   0  0  0  0  0  2  0  0  0  0  0  0
  190.3730  177.3200  143.1840 C   0  0  0  0  0  0  0  0  0  0  0  0
  189.9560  176.6000  144.3490 N   0  0  0  0  0  2  0  0  0  0  0  0
  190.5930  178.5610  143.2410 O   0  0  0  0  0  0  0  0  0  0  0  0
  190.5750  176.6110  141.9610 N   0  0  0  0  0  2  0  0  0  0  0  0
  188.1380  177.5580  145.7230 C   0  0  0  0  0  0  0  0  0  0  0  0
  189.3940  177.1850  145.5320 C   0  0  1  0  0  3  0  0  0  0  0  0
  187.0450  177.5040  144.8540 C   0  0  0  0  0  3  0  0  0  0  0  0
  188.0030  178.0040  147.0150 C   0  0  0  0  0  0  0  0  0  0  0  0
  185.7980  177.9470  145.3280 C   0  0  0  0  0  3  0  0  0  0  0  0
  190.1400  177.3960  146.8190 C   0  0  1  0  0  3  0  0  0  0  0  0
  185.6660  178.4210  146.6480 C   0  0  0  0  0  3  0  0  0  0  0  0
  186.7760  178.4510  147.5080 C   0  0  0  0  0  3  0  0  0  0  0  0
  189.1000  177.9430  147.6940 N   0  0  0  0  0  2  0  0  0  0  0  0
  190.6450  176.1060  147.3840 C   0  0  0  0  0  3  0  0  0  0  0  0
  193.1230  175.7440  147.8340 O   0  0  0  0  0  0  0  0  0  0  0  0
  191.9160  175.9220  147.6120 C   0  0  0  0  0  0  0  0  0  0  0  0
  188.9010  177.7670  137.6770 N   0  0  0  0  0  2  0  0  0  0  0  0
  187.5490  178.3030  137.5910 C   0  0  1  0  0  3  0  0  0  0  0  0
  187.5510  179.4410  136.7800 O   0  0  0  0  0  1  0  0  0  0  0  0
  186.6110  177.2520  137.0030 C   0  0  2  0  0  3  0  0  0  0  0  0
  184.9760  177.9320  138.6670 O   0  0  0  0  0  1  0  0  0  0  0  0
  184.4100  177.0370  135.2690 O   0  0  0  0  0  0  0  0  0  0  0  0
  185.2310  177.5090  137.4060 N   0  0  0  0  0  0  0  0  0  0  0  0
  184.1560  177.2690  136.4820 C   0  0  0  0  0  0  0  0  0  0  0  0
  182.7200  177.2800  136.9210 C   0  0  1  0  0  3  0  0  0  0  0  0
  181.8560  177.4560  135.8370 O   0  0  0  0  0  1  0  0  0  0  0  0
  182.3460  176.0410  137.7310 C   0  0  0  0  0  2  0  0  0  0  0  0
  181.2140  176.2690  138.5180 O   0  0  0  0  0  0  0  0  0  0  0  0
  180.4520  177.5750  140.3500 C   0  0  0  0  0  1  0  0  0  0  0  0
  181.6430  177.1340  139.5260 C   0  0  0  0  0  2  0  0  0  0  0  0
  187.0090  175.9190  137.4400 N   0  0  0  0  0  2  0  0  0  0  0  0
  187.0230  175.0640  136.2620 C   0  0  0  0  0  2  0  0  0  0  0  0
  188.4500  174.6700  135.9230 C   0  0  0  0  0  2  0  0  0  0  0  0
  189.0260  173.9970  137.0020 O   0  0  0  0  0  1  0  0  0  0  0  0
  1  4  1  0  0  0  0
  1  2  1  1  0  0  0
  4  3  1  6  0  0  0
  4  5  1  0  0  0  0
  5  9  1  0  0  0  0
  6  8  2  0  0  0  0
  6  7  1  0  0  0  0
  9  6  1  0  0  0  0
 10 13  1  0  0  0  0
 11  7  1  1  0  0  0
 11 10  1  0  0  0  0
 11 15  1  0  0  0  0
 12 14  1  0  0  0  0
 12 10  2  0  0  0  0
 13 17  2  0  0  0  0
 13 18  1  0  0  0  0
 14 16  2  0  0  0  0
 15 19  1  1  0  0  0
 15 18  1  0  0  0  0
 16 17  1  0  0  0  0
 19 21  2  0  0  0  0
 21 20  2  0  0  0  0
 22  1  1  0  0  0  0
 23 24  1  6  0  0  0
 23 22  1  0  0  0  0
 25 28  1  0  0  0  0
 25 36  1  1  0  0  0
 25 23  1  0  0  0  0
 27 29  2  0  0  0  0
 28 26  1  0  0  0  0
 29 30  1  0  0  0  0
 29 28  1  0  0  0  0
 30 31  1  6  0  0  0
 30 32  1  0  0  0  0
 32 33  1  0  0  0  0
 33 35  1  0  0  0  0
 35 34  1  0  0  0  0
 37 36  1  0  0  0  0
 38 37  1  0  0  0  0
 38 39  1  0  0  0  0
M  END
>  <MODEL>
6

>  <REMARK>
 VINA RESULT:      -6.9      1.629      2.013
  Name = 
  16 active torsions:
  status: ('A' for Active; 'I' for Inactive)
    1  A    between atoms: C_1  and  C_19
    2  A    between atoms: C_1  and  N_35
    3  A    between atoms: C_3  and  C_25
    4  A    between atoms: C_4  and  N_14
    5  A    between atoms: C_11  and  O_32
    6  A    between atoms: N_13  and  C_23
    7  A    between atoms: N_13  and  C_27
    8  A    between atoms: C_15  and  C_19
    9  A    between atoms: C_15  and  N_34
   10  A    between atoms: N_18  and  C_27
   11  A    between atoms: C_22  and  C_27
   12  A    between atoms: C_22  and  N_34
   13  A    between atoms: C_23  and  C_24
   14  A    between atoms: C_26  and  C_28
   15  A    between atoms: C_26  and  C_38
   16  A    between atoms: C_28  and  O_32
                            x       y       z     vdW  Elec       q    Type
                         _______ _______ _______ _____ _____    ______ ____

>  <TORSDO>
F 16

$$$$
=
 OpenBabel10232411053D

 39 40  0  0  1  0  0  0  0  0999 V2000
  189.6520  177.3370  138.1370 C   0  0  1  0  0  3  0  0  0  0  0  0
  189.2240  178.6980  138.6600 C   0  0  0  0  0  1  0  0  0  0  0  0
  191.8820  176.5610  138.6710 O   0  0  0  0  0  1  0  0  0  0  0  0
  190.5700  176.6580  139.1530 C   0  0  1  0  0  3  0  0  0  0  0  0
  190.5490  177.3500  140.5110 C   0  0  0  0  0  2  0  0  0  0  0  0
  189.2510  177.2700  142.6710 C   0  0  0  0  0  0  0  0  0  0  0  0
  188.4050  176.5330  143.5600 N   0  0  0  0  0  2  0  0  0  0  0  0
  189.6880  178.4080  142.9970 O   0  0  0  0  0  0  0  0  0  0  0  0
  189.6290  176.6880  141.4230 N   0  0  0  0  0  2  0  0  0  0  0  0
  188.1430  177.3850  145.8650 C   0  0  0  0  0  0  0  0  0  0  0  0
  187.6740  177.0850  144.6640 C   0  0  1  0  0  3  0  0  0  0  0  0
  189.4320  177.2410  146.3870 C   0  0  0  0  0  3  0  0  0  0  0  0
  187.1330  177.9540  146.6020 C   0  0  0  0  0  0  0  0  0  0  0  0
  189.6670  177.6720  147.7040 C   0  0  0  0  0  3  0  0  0  0  0  0
  186.2340  177.5090  144.6100 C   0  0  1  0  0  3  0  0  0  0  0  0
  188.6240  178.2390  148.4640 C   0  0  0  0  0  3  0  0  0  0  0  0
  187.3410  178.3880  147.9120 C   0  0  0  0  0  3  0  0  0  0  0  0
  186.0210  178.0540  145.9530 N   0  0  0  0  0  2  0  0  0  0  0  0
  186.0110  178.5810  143.5910 C   0  0  0  0  0  3  0  0  0  0  0  0
  184.4660  178.2100  141.6030 O   0  0  0  0  0  0  0  0  0  0  0  0
  185.2190  178.3880  142.5720 C   0  0  0  0  0  0  0  0  0  0  0  0
  188.4740  176.5170  137.8730 N   0  0  0  0  0  2  0  0  0  0  0  0
  187.7580  177.1080  136.7500 C   0  0  1  0  0  3  0  0  0  0  0  0
  188.4900  176.9140  135.5770 O   0  0  0  0  0  1  0  0  0  0  0  0
  186.3820  176.4610  136.6130 C   0  0  2  0  0  3  0  0  0  0  0  0
  185.6480  178.2770  138.0510 O   0  0  0  0  0  1  0  0  0  0  0  0
  183.7460  176.4770  135.6400 O   0  0  0  0  0  0  0  0  0  0  0  0
  185.3390  177.3540  137.1090 N   0  0  0  0  0  0  0  0  0  0  0  0
  183.9900  177.2200  136.6300 C   0  0  0  0  0  0  0  0  0  0  0  0
  182.8450  177.9400  137.2810 C   0  0  1  0  0  3  0  0  0  0  0  0
  181.8000  178.1590  136.3800 O   0  0  0  0  0  1  0  0  0  0  0  0
  182.3500  177.2330  138.5410 C   0  0  0  0  0  2  0  0  0  0  0  0
  181.8610  178.1460  139.4790 O   0  0  0  0  0  0  0  0  0  0  0  0
  180.6860  176.0910  139.6710 C   0  0  0  0  0  1  0  0  0  0  0  0
  181.0790  177.3850  140.3510 C   0  0  0  0  0  2  0  0  0  0  0  0
  186.3410  175.2030  137.3500 N   0  0  0  0  0  2  0  0  0  0  0  0
  186.2720  174.1290  136.3700 C   0  0  0  0  0  2  0  0  0  0  0  0
  186.0420  172.8020  137.0700 C   0  0  0  0  0  2  0  0  0  0  0  0
  185.0810  172.9520  138.0690 O   0  0  0  0  0  1  0  0  0  0  0  0
  1  2  1  1  0  0  0
  1  4  1  0  0  0  0
  4  3  1  6  0  0  0
  4  5  1  0  0  0  0
  5  9  1  0  0  0  0
  6  8  2  0  0  0  0
  6  7  1  0  0  0  0
  9  6  1  0  0  0  0
 10 12  2  0  0  0  0
 10 13  1  0  0  0  0
 11  7  1  6  0  0  0
 11 10  1  0  0  0  0
 12 14  1  0  0  0  0
 13 17  2  0  0  0  0
 14 16  2  0  0  0  0
 15 19  1  6  0  0  0
 15 11  1  0  0  0  0
 15 18  1  0  0  0  0
 17 16  1  0  0  0  0
 18 13  1  0  0  0  0
 20 21  2  0  0  0  0
 21 19  2  0  0  0  0
 22  1  1  0  0  0  0
 23 24  1  6  0  0  0
 23 22  1  0  0  0  0
 25 23  1  0  0  0  0
 25 28  1  0  0  0  0
 25 36  1  1  0  0  0
 27 29  2  0  0  0  0
 28 26  1  0  0  0  0
 29 28  1  0  0  0  0
 29 30  1  0  0  0  0
 30 31  1  6  0  0  0
 30 32  1  0  0  0  0
 32 33  1  0  0  0  0
 33 35  1  0  0  0  0
 34 35  1  0  0  0  0
 37 38  1  0  0  0  0
 37 36  1  0  0  0  0
 38 39  1  0  0  0  0
M  END
>  <MODEL>
7

>  <REMARK>
 VINA RESULT:      -6.8      1.933      3.397
  Name = 
  16 active torsions:
  status: ('A' for Active; 'I' for Inactive)
    1  A    between atoms: C_1  and  C_19
    2  A    between atoms: C_1  and  N_35
    3  A    between atoms: C_3  and  C_25
    4  A    between atoms: C_4  and  N_14
    5  A    between atoms: C_11  and  O_32
    6  A    between atoms: N_13  and  C_23
    7  A    between atoms: N_13  and  C_27
    8  A    between atoms: C_15  and  C_19
    9  A    between atoms: C_15  and  N_34
   10  A    between atoms: N_18  and  C_27
   11  A    between atoms: C_22  and  C_27
   12  A    between atoms: C_22  and  N_34
   13  A    between atoms: C_23  and  C_24
   14  A    between atoms: C_26  and  C_28
   15  A    between atoms: C_26  and  C_38
   16  A    between atoms: C_28  and  O_32
                            x       y       z     vdW  Elec       q    Type
                         _______ _______ _______ _____ _____    ______ ____

>  <TORSDO>
F 16

$$$$
=
 OpenBabel10232411053D

 39 40  0  0  1  0  0  0  0  0999 V2000
  187.3430  178.1180  137.3620 C   0  0  1  0  0  3  0  0  0  0  0  0
  185.9250  178.1560  137.9080 C   0  0  0  0  0  1  0  0  0  0  0  0
  189.3540  178.8870  138.4700 O   0  0  0  0  0  1  0  0  0  0  0  0
  188.3340  177.9280  138.5100 C   0  0  1  0  0  3  0  0  0  0  0  0
  187.6520  177.9280  139.8740 C   0  0  0  0  0  2  0  0  0  0  0  0
  188.6180  177.9660  142.2020 C   0  0  0  0  0  0  0  0  0  0  0  0
  189.4180  178.6380  143.1810 N   0  0  0  0  0  2  0  0  0  0  0  0
  187.9870  176.9140  142.5010 O   0  0  0  0  0  0  0  0  0  0  0  0
  188.5100  178.5180  140.8900 N   0  0  0  0  0  2  0  0  0  0  0  0
  189.2000  177.8230  145.5050 C   0  0  0  0  0  0  0  0  0  0  0  0
  189.8970  178.0610  144.4040 C   0  0  1  0  0  3  0  0  0  0  0  0
  187.8540  178.0710  145.7850 C   0  0  0  0  0  3  0  0  0  0  0  0
  190.0180  177.2010  146.4160 C   0  0  0  0  0  0  0  0  0  0  0  0
  187.3570  177.6890  147.0430 C   0  0  0  0  0  3  0  0  0  0  0  0
  191.2880  177.5350  144.6140 C   0  0  1  0  0  3  0  0  0  0  0  0
  188.2020  177.0670  147.9830 C   0  0  0  0  0  3  0  0  0  0  0  0
  189.5480  176.8140  147.6720 C   0  0  0  0  0  3  0  0  0  0  0  0
  191.2170  177.0080  145.9790 N   0  0  0  0  0  2  0  0  0  0  0  0
  191.6090  176.4260  143.6630 C   0  0  0  0  0  3  0  0  0  0  0  0
  192.3900  174.1540  144.5020 O   0  0  0  0  0  0  0  0  0  0  0  0
  192.0110  175.2620  144.0960 C   0  0  0  0  0  0  0  0  0  0  0  0
  187.4680  177.0420  136.3850 N   0  0  0  0  0  2  0  0  0  0  0  0
  188.0280  175.8810  137.0650 C   0  0  1  0  0  3  0  0  0  0  0  0
  187.0130  174.9540  137.3130 O   0  0  0  0  0  1  0  0  0  0  0  0
  189.1090  175.2420  136.1960 C   0  0  2  0  0  3  0  0  0  0  0  0
  190.5800  177.0330  135.4670 O   0  0  0  0  0  1  0  0  0  0  0  0
  191.0870  174.7160  138.1210 O   0  0  0  0  0  0  0  0  0  0  0  0
  190.3610  175.9870  136.2980 N   0  0  0  0  0  0  0  0  0  0  0  0
  191.3640  175.5790  137.2440 C   0  0  0  0  0  0  0  0  0  0  0  0
  192.7510  176.1520  137.2190 C   0  0  1  0  0  3  0  0  0  0  0  0
  193.1190  176.6550  138.4690 O   0  0  0  0  0  1  0  0  0  0  0  0
  193.7860  175.1560  136.6980 C   0  0  0  0  0  2  0  0  0  0  0  0
  195.0720  175.4780  137.1400 O   0  0  0  0  0  0  0  0  0  0  0  0
  195.7860  174.2860  139.0670 C   0  0  0  0  0  1  0  0  0  0  0  0
  195.6220  174.2660  137.5620 C   0  0  0  0  0  2  0  0  0  0  0  0
  188.6770  175.1980  134.8040 N   0  0  0  0  0  2  0  0  0  0  0  0
  188.5640  173.7960  134.4290 C   0  0  0  0  0  2  0  0  0  0  0  0
  189.2150  172.9230  135.4860 C   0  0  0  0  0  2  0  0  0  0  0  0
  189.7070  171.7560  134.8990 O   0  0  0  0  0  1  0  0  0  0  0  0
  1  2  1  1  0  0  0
  1  4  1  0  0  0  0
  4  3  1  1  0  0  0
  4  5  1  0  0  0  0
  5  9  1  0  0  0  0
  6  8  2  0  0  0  0
  6  7  1  0  0  0  0
  9  6  1  0  0  0  0
 10 12  2  0  0  0  0
 10 13  1  0  0  0  0
 11  7  1  6  0  0  0
 11 15  1  0  0  0  0
 11 10  1  0  0  0  0
 12 14  1  0  0  0  0
 13 17  2  0  0  0  0
 14 16  2  0  0  0  0
 15 19  1  6  0  0  0
 15 18  1  0  0  0  0
 17 16  1  0  0  0  0
 18 13  1  0  0  0  0
 19 21  2  0  0  0  0
 21 20  2  0  0  0  0
 22 23  1  0  0  0  0
 22  1  1  0  0  0  0
 23 24  1  6  0  0  0
 25 36  1  6  0  0  0
 25 28  1  0  0  0  0
 25 23  1  0  0  0  0
 26 28  1  0  0  0  0
 28 29  1  0  0  0  0
 29 27  2  0  0  0  0
 30 29  1  0  0  0  0
 30 31  1  1  0  0  0
 32 33  1  0  0  0  0
 32 30  1  0  0  0  0
 33 35  1  0  0  0  0
 35 34  1  0  0  0  0
 37 36  1  0  0  0  0
 37 38  1  0  0  0  0
 39 38  1  0  0  0  0
M  END
>  <MODEL>
8

>  <REMARK>
 VINA RESULT:      -6.7      3.065      6.243
  Name = 
  16 active torsions:
  status: ('A' for Active; 'I' for Inactive)
    1  A    between atoms: C_1  and  C_19
    2  A    between atoms: C_1  and  N_35
    3  A    between atoms: C_3  and  C_25
    4  A    between atoms: C_4  and  N_14
    5  A    between atoms: C_11  and  O_32
    6  A    between atoms: N_13  and  C_23
    7  A    between atoms: N_13  and  C_27
    8  A    between atoms: C_15  and  C_19
    9  A    between atoms: C_15  and  N_34
   10  A    between atoms: N_18  and  C_27
   11  A    between atoms: C_22  and  C_27
   12  A    between atoms: C_22  and  N_34
   13  A    between atoms: C_23  and  C_24
   14  A    between atoms: C_26  and  C_28
   15  A    between atoms: C_26  and  C_38
   16  A    between atoms: C_28  and  O_32
                            x       y       z     vdW  Elec       q    Type
                         _______ _______ _______ _____ _____    ______ ____

>  <TORSDO>
F 16

$$$$
=
 OpenBabel10232411053D

 39 40  0  0  1  0  0  0  0  0999 V2000
  188.7430  177.5470  137.8450 C   0  0  1  0  0  3  0  0  0  0  0  0
  190.1220  177.5260  137.2080 C   0  0  0  0  0  1  0  0  0  0  0  0
  187.3460  175.6040  137.4810 O   0  0  0  0  0  1  0  0  0  0  0  0
  187.7420  176.8330  136.9380 C   0  0  1  0  0  3  0  0  0  0  0  0
  186.5270  177.6950  136.6190 C   0  0  0  0  0  2  0  0  0  0  0  0
  184.9340  178.3350  138.4650 C   0  0  0  0  0  0  0  0  0  0  0  0
  184.5920  179.2350  139.5250 N   0  0  0  0  0  2  0  0  0  0  0  0
  184.1490  177.4040  138.1360 O   0  0  0  0  0  0  0  0  0  0  0  0
  186.1580  178.5250  137.7560 N   0  0  0  0  0  2  0  0  0  0  0  0
  183.7780  178.9880  141.8460 C   0  0  0  0  0  0  0  0  0  0  0  0
  183.6010  178.9960  140.5340 C   0  0  1  0  0  3  0  0  0  0  0  0
  184.9410  179.1880  142.5950 C   0  0  0  0  0  3  0  0  0  0  0  0
  182.5630  178.7880  142.4530 C   0  0  0  0  0  0  0  0  0  0  0  0
  184.8420  179.1530  143.9960 C   0  0  0  0  0  3  0  0  0  0  0  0
  182.1370  178.7960  140.2640 C   0  0  1  0  0  3  0  0  0  0  0  0
  183.5970  178.9290  144.6160 C   0  0  0  0  0  3  0  0  0  0  0  0
  182.4390  178.7470  143.8420 C   0  0  0  0  0  3  0  0  0  0  0  0
  181.5870  178.6680  141.6160 N   0  0  0  0  0  2  0  0  0  0  0  0
  181.5320  179.9840  139.5850 C   0  0  0  0  0  3  0  0  0  0  0  0
  180.7970  179.8800  137.1520 O   0  0  0  0  0  0  0  0  0  0  0  0
  181.1570  179.9290  138.3370 C   0  0  0  0  0  0  0  0  0  0  0  0
  188.7960  176.9140  139.1590 N   0  0  0  0  0  2  0  0  0  0  0  0
  189.2210  177.9190  140.1250 C   0  0  1  0  0  3  0  0  0  0  0  0
  188.1230  178.6980  140.4990 O   0  0  0  0  0  1  0  0  0  0  0  0
  189.8140  177.2380  141.3560 C   0  0  2  0  0  3  0  0  0  0  0  0
  189.7580  179.0900  142.9280 O   0  0  0  0  0  1  0  0  0  0  0  0
  187.8660  176.0760  143.0140 O   0  0  0  0  0  0  0  0  0  0  0  0
  189.3150  177.8580  142.5800 N   0  0  0  0  0  0  0  0  0  0  0  0
  188.3970  177.1430  143.4250 C   0  0  0  0  0  0  0  0  0  0  0  0
  188.0490  177.6300  144.8020 C   0  0  1  0  0  3  0  0  0  0  0  0
  186.9620  176.9310  145.3310 O   0  0  0  0  0  1  0  0  0  0  0  0
  189.2440  177.5960  145.7530 C   0  0  0  0  0  2  0  0  0  0  0  0
  189.0070  176.7500  146.8400 O   0  0  0  0  0  0  0  0  0  0  0  0
  188.1800  178.2550  148.4810 C   0  0  0  0  0  1  0  0  0  0  0  0
  189.3800  177.4920  147.9630 C   0  0  0  0  0  2  0  0  0  0  0  0
  191.2700  177.3180  141.3250 N   0  0  0  0  0  2  0  0  0  0  0  0
  191.7060  176.7680  140.0500 C   0  0  0  0  0  2  0  0  0  0  0  0
  193.0930  177.2830  139.7090 C   0  0  0  0  0  2  0  0  0  0  0  0
  193.5040  176.7640  138.4810 O   0  0  0  0  0  1  0  0  0  0  0  0
  1  2  1  6  0  0  0
  1 22  1  0  0  0  0
  4  3  1  1  0  0  0
  4  1  1  0  0  0  0
  5  4  1  0  0  0  0
  5  9  1  0  0  0  0
  6  7  1  0  0  0  0
  8  6  2  0  0  0  0
  9  6  1  0  0  0  0
 10 13  2  0  0  0  0
 10 12  1  0  0  0  0
 11  7  1  1  0  0  0
 11 10  1  0  0  0  0
 12 14  2  0  0  0  0
 13 17  1  0  0  0  0
 14 16  1  0  0  0  0
 15 19  1  1  0  0  0
 15 11  1  0  0  0  0
 15 18  1  0  0  0  0
 17 16  2  0  0  0  0
 18 13  1  0  0  0  0
 20 21  2  0  0  0  0
 21 19  2  0  0  0  0
 22 23  1  0  0  0  0
 23 24  1  1  0  0  0
 23 25  1  0  0  0  0
 25 36  1  6  0  0  0
 25 28  1  0  0  0  0
 27 29  2  0  0  0  0
 28 26  1  0  0  0  0
 28 29  1  0  0  0  0
 29 30  1  0  0  0  0
 30 31  1  1  0  0  0
 30 32  1  0  0  0  0
 32 33  1  0  0  0  0
 33 35  1  0  0  0  0
 35 34  1  0  0  0  0
 37 36  1  0  0  0  0
 38 37  1  0  0  0  0
 39 38  1  0  0  0  0
M  END
>  <MODEL>
9

>  <REMARK>
 VINA RESULT:      -6.7      2.286      7.640
  Name = 
  16 active torsions:
  status: ('A' for Active; 'I' for Inactive)
    1  A    between atoms: C_1  and  C_19
    2  A    between atoms: C_1  and  N_35
    3  A    between atoms: C_3  and  C_25
    4  A    between atoms: C_4  and  N_14
    5  A    between atoms: C_11  and  O_32
    6  A    between atoms: N_13  and  C_23
    7  A    between atoms: N_13  and  C_27
    8  A    between atoms: C_15  and  C_19
    9  A    between atoms: C_15  and  N_34
   10  A    between atoms: N_18  and  C_27
   11  A    between atoms: C_22  and  C_27
   12  A    between atoms: C_22  and  N_34
   13  A    between atoms: C_23  and  C_24
   14  A    between atoms: C_26  and  C_28
   15  A    between atoms: C_26  and  C_38
   16  A    between atoms: C_28  and  O_32
                            x       y       z     vdW  Elec       q    Type
                         _______ _______ _______ _____ _____    ______ ____

>  <TORSDO>
F 16

$$$$
