=
 OpenBabel10232410373D

 50 52  0  0  1  0  0  0  0  0999 V2000
  189.6690  176.9620  140.8800 C   0  0  0  0  0  0  0  0  0  0  0  0
  189.1190  175.8480  141.4840 O   0  0  0  0  0  0  0  0  0  0  0  0
  190.2340  177.8950  141.8870 C   0  0  0  0  0  2  0  0  0  0  0  0
  189.7850  177.2900  138.2950 C   0  0  0  0  0  0  0  0  0  0  0  0
  189.3000  175.9760  142.8510 C   0  0  0  0  0  3  0  0  0  0  0  0
  189.7180  177.1350  139.5900 C   0  0  0  0  0  0  0  0  0  0  0  0
  189.9330  177.1160  143.1250 C   0  0  0  0  0  0  0  0  0  0  0  0
  190.7330  179.0440  144.5060 C   0  0  0  0  0  1  0  0  0  0  0  0
  190.3050  177.5850  144.5040 C   0  0  1  0  0  3  0  0  0  0  0  0
  189.2390  177.3070  145.5720 C   0  0  0  0  0  3  0  0  0  0  0  0
  188.5960  177.3870  147.9990 C   0  0  0  0  0  2  0  0  0  0  0  0
  189.6800  177.7230  146.9800 C   0  0  0  0  0  2  0  0  0  0  0  0
  187.9100  177.9690  145.2000 C   0  0  0  0  0  2  0  0  0  0  0  0
  187.2860  178.0730  147.6210 C   0  0  0  0  0  2  0  0  0  0  0  0
  186.8400  177.6250  146.2310 C   0  0  0  0  0  2  0  0  0  0  0  0
  187.7730  176.8110  136.9330 C   0  0  0  0  0  0  0  0  0  0  0  0
  188.5870  177.7200  137.5280 C   0  0  0  0  0  0  0  0  0  0  0  0
  186.5990  177.1510  136.2390 O   0  0  0  0  0  0  0  0  0  0  0  0
  186.4900  177.3200  134.8320 C   0  0  0  0  0  1  0  0  0  0  0  0
  189.2120  180.0650  137.7900 O   0  0  0  0  0  1  0  0  0  0  0  0
  188.3340  179.1230  137.3730 N   0  0  0  0  0  2  0  0  0  0  0  0
  188.1100  175.3520  136.9560 C   0  0  0  0  0  2  0  0  0  0  0  0
  185.8930  173.9090  137.3240 C   0  0  0  0  0  0  0  0  0  0  0  0
  186.8970  174.5570  137.1630 C   0  0  0  0  0  0  0  0  0  0  0  0
  184.6710  173.1230  137.5090 C   0  0  0  0  0  2  0  0  0  0  0  0
  183.4440  173.9980  137.3260 C   0  0  0  0  0  2  0  0  0  0  0  0
  183.4880  175.1210  138.2490 N   0  0  0  0  0  2  0  0  0  0  0  0
  181.4480  175.7570  136.6430 O   0  0  0  0  0  0  0  0  0  0  0  0
  182.4430  176.3710  137.6000 P   0  0  2  0  0  0  0  0  0  0  0  0
  183.3720  177.5200  136.7750 O   0  0  0  0  0  1  0  0  0  0  0  0
  181.5390  177.1750  138.9630 C   0  0  1  0  0  3  0  0  0  0  0  0
  181.4410  176.2770  140.0280 O   0  0  0  0  0  1  0  0  0  0  0  0
  182.2390  178.4670  139.4150 C   0  0  1  0  0  3  0  0  0  0  0  0
  181.3970  179.2140  140.2410 O   0  0  0  0  0  1  0  0  0  0  0  0
  183.4180  178.2680  141.6550 C   0  0  0  0  0  1  0  0  0  0  0  0
  183.5710  178.2330  140.1430 C   0  0  2  0  0  3  0  0  0  0  0  0
  185.9980  178.7690  139.9120 O   0  0  0  0  0  1  0  0  0  0  0  0
  184.4270  180.1760  139.0220 O   0  0  0  0  0  0  0  0  0  0  0  0
  184.6790  179.1260  139.6690 C   0  0  0  0  0  0  0  0  0  0  0  0
  191.0100  176.8180  137.5820 C   0  0  0  0  0  2  0  0  0  0  0  0
  192.0300  176.5260  138.5010 O   0  0  0  0  0  0  0  0  0  0  0  0
  194.1650  176.0690  135.4860 C   0  0  0  0  0  1  0  0  0  0  0  0
  194.1910  173.6330  137.3200 N   0  0  0  0  0  0  0  0  0  0  0  0
  193.0420  174.1130  136.5590 C   0  0  0  0  0  2  0  0  0  0  0  0
  194.7710  172.3470  136.9780 C   0  0  0  0  0  1  0  0  0  0  0  0
  193.0580  175.6360  136.4300 C   0  0  1  0  0  3  0  0  0  0  0  0
  193.2390  176.3100  137.8030 C   0  0  2  0  0  3  0  0  0  0  0  0
  194.6920  174.3990  138.4240 C   0  0  0  0  0  0  0  0  0  0  0  0
  194.2490  175.7080  138.6220 O   0  0  0  0  0  0  0  0  0  0  0  0
  195.5640  173.9150  139.1950 O   0  0  0  0  0  0  0  0  0  0  0  0
  1  2  1  0  0  0  0
  1  3  1  0  0  0  0
  2  5  1  0  0  0  0
  3  7  1  0  0  0  0
  4  6  2  0  0  0  0
  5  7  2  0  0  0  0
  6  1  2  0  0  0  0
  7  9  1  0  0  0  0
  9  8  1  6  0  0  0
  9 10  1  0  0  0  0
 10 12  1  0  0  0  0
 12 11  1  0  0  0  0
 13 10  1  0  0  0  0
 13 15  1  0  0  0  0
 14 11  1  0  0  0  0
 15 14  1  0  0  0  0
 16 22  1  0  0  0  0
 16 17  2  0  0  0  0
 17  4  1  0  0  0  0
 18 16  1  0  0  0  0
 19 18  1  0  0  0  0
 21 17  1  0  0  0  0
 21 20  1  0  0  0  0
 22 24  1  0  0  0  0
 23 25  1  0  0  0  0
 24 23  3  0  0  0  0
 26 25  1  0  0  0  0
 26 27  1  0  0  0  0
 29 28  2  6  0  0  0
 29 27  1  0  0  0  0
 29 31  1  0  0  0  0
 30 29  1  0  0  0  0
 31 33  1  0  0  0  0
 31 32  1  1  0  0  0
 33 36  1  0  0  0  0
 33 34  1  1  0  0  0
 36 35  1  1  0  0  0
 38 39  2  0  0  0  0
 39 37  1  0  0  0  0
 39 36  1  0  0  0  0
 40  4  1  0  0  0  0
 40 41  1  0  0  0  0
 43 48  1  0  0  0  0
 44 43  1  0  0  0  0
 45 43  1  0  0  0  0
 46 42  1  6  0  0  0
 46 44  1  0  0  0  0
 46 47  1  0  0  0  0
 47 41  1  1  0  0  0
 47 49  1  0  0  0  0
 48 49  1  0  0  0  0
 48 50  2  0  0  0  0
M  END
>  <MODEL>
1

>  <REMARK>
 VINA RESULT:      -7.7      0.000      0.000
  Name = 
  18 active torsions:
  status: ('A' for Active; 'I' for Inactive)
    1  A    between atoms: O_1  and  C_10
    2  A    between atoms: O_1  and  C_34
    3  A    between atoms: O_2  and  C_13
    4  A    between atoms: C_3  and  C_42
    5  A    between atoms: C_5  and  C_8
    6  A    between atoms: C_5  and  C_27
    7  A    between atoms: C_8  and  P_36
    8  A    between atoms: C_9  and  C_37
    9  A    between atoms: C_10  and  C_32
   10  A    between atoms: C_13  and  C_35
   11  A    between atoms: N_18  and  P_36
   12  A    between atoms: N_18  and  C_43
   13  A    between atoms: C_26  and  C_32
   14  A    between atoms: C_26  and  N_41
   15  A    between atoms: C_27  and  C_40
   16  A    between atoms: C_30  and  C_35
   17  A    between atoms: C_37  and  C_43
   18  A    between atoms: C_42  and  C_49
                            x       y       z     vdW  Elec       q    Type
                         _______ _______ _______ _____ _____    ______ ____

>  <TORSDO>
F 18

$$$$
=
 OpenBabel10232410373D

 50 52  0  0  1  0  0  0  0  0999 V2000
  191.5930  176.0320  137.7140 C   0  0  0  0  0  0  0  0  0  0  0  0
  192.6300  176.8070  137.2320 O   0  0  0  0  0  0  0  0  0  0  0  0
  191.9760  174.5990  137.7750 C   0  0  0  0  0  2  0  0  0  0  0  0
  189.3120  177.0120  138.5150 C   0  0  0  0  0  0  0  0  0  0  0  0
  193.7020  175.9680  136.9790 C   0  0  0  0  0  3  0  0  0  0  0  0
  190.4480  176.5170  138.1040 C   0  0  0  0  0  0  0  0  0  0  0  0
  193.3800  174.7100  137.2780 C   0  0  0  0  0  0  0  0  0  0  0  0
  195.0260  173.2210  138.4350 C   0  0  0  0  0  1  0  0  0  0  0  0
  194.2990  173.5290  137.1360 C   0  0  1  0  0  3  0  0  0  0  0  0
  193.6290  172.2770  136.5520 C   0  0  0  0  0  3  0  0  0  0  0  0
  192.5630  171.1730  134.5640 C   0  0  0  0  0  2  0  0  0  0  0  0
  193.2560  172.4330  135.0730 C   0  0  0  0  0  2  0  0  0  0  0  0
  194.5070  171.0410  136.7650 C   0  0  0  0  0  2  0  0  0  0  0  0
  193.4630  169.9570  134.7670 C   0  0  0  0  0  2  0  0  0  0  0  0
  193.8000  169.7940  136.2460 C   0  0  0  0  0  2  0  0  0  0  0  0
  187.6390  176.5090  136.7610 C   0  0  0  0  0  0  0  0  0  0  0  0
  188.2750  177.4250  137.5350 C   0  0  0  0  0  0  0  0  0  0  0  0
  186.6140  176.8300  135.8540 O   0  0  0  0  0  0  0  0  0  0  0  0
  186.7810  177.0400  134.4570 C   0  0  0  0  0  1  0  0  0  0  0  0
  188.9660  179.7640  137.4250 O   0  0  0  0  0  1  0  0  0  0  0  0
  187.9940  178.8220  137.3740 N   0  0  0  0  0  2  0  0  0  0  0  0
  188.0310  175.0650  136.8070 C   0  0  0  0  0  2  0  0  0  0  0  0
  185.8860  173.5330  137.2410 C   0  0  0  0  0  0  0  0  0  0  0  0
  186.8510  174.2300  137.0480 C   0  0  0  0  0  0  0  0  0  0  0  0
  184.7200  172.6790  137.4770 C   0  0  0  0  0  2  0  0  0  0  0  0
  183.4470  173.3900  137.0550 C   0  0  0  0  0  2  0  0  0  0  0  0
  183.2110  174.5430  137.9100 N   0  0  0  0  0  2  0  0  0  0  0  0
  180.9270  175.1680  136.6690 O   0  0  0  0  0  1  0  0  0  0  0  0
  182.3050  175.7130  136.9690 P   0  0  2  0  0  0  0  0  0  0  0  0
  183.1100  176.0220  135.5130 O   0  0  0  0  0  0  0  0  0  0  0  0
  182.1390  177.2590  137.9190 C   0  0  1  0  0  3  0  0  0  0  0  0
  181.0230  177.1560  138.7520 O   0  0  0  0  0  1  0  0  0  0  0  0
  183.4010  177.5460  138.7480 C   0  0  1  0  0  3  0  0  0  0  0  0
  184.4980  177.7520  137.9090 O   0  0  0  0  0  1  0  0  0  0  0  0
  183.1500  180.0650  138.9460 C   0  0  0  0  0  1  0  0  0  0  0  0
  183.2660  178.7470  139.6940 C   0  0  2  0  0  3  0  0  0  0  0  0
  184.2640  177.9110  141.8240 O   0  0  0  0  0  1  0  0  0  0  0  0
  185.2850  179.6060  140.6710 O   0  0  0  0  0  0  0  0  0  0  0  0
  184.3240  178.7960  140.7570 C   0  0  0  0  0  0  0  0  0  0  0  0
  189.1670  177.3600  139.9610 C   0  0  0  0  0  2  0  0  0  0  0  0
  190.2240  176.8130  140.7060 O   0  0  0  0  0  0  0  0  0  0  0  0
  188.0240  176.7630  143.7080 C   0  0  0  0  0  1  0  0  0  0  0  0
  190.9800  176.9810  144.4250 N   0  0  0  0  0  0  0  0  0  0  0  0
  190.1930  178.0020  143.7390 C   0  0  0  0  0  2  0  0  0  0  0  0
  191.4900  177.2650  145.7550 C   0  0  0  0  0  1  0  0  0  0  0  0
  189.1200  177.3720  142.8520 C   0  0  1  0  0  3  0  0  0  0  0  0
  189.7220  176.3010  141.9230 C   0  0  2  0  0  3  0  0  0  0  0  0
  191.2900  175.7480  143.7620 C   0  0  0  0  0  0  0  0  0  0  0  0
  190.6440  175.4150  142.5710 O   0  0  0  0  0  0  0  0  0  0  0  0
  192.1110  174.9370  144.2710 O   0  0  0  0  0  0  0  0  0  0  0  0
  1  3  1  0  0  0  0
  1  6  2  0  0  0  0
  2  1  1  0  0  0  0
  4 40  1  0  0  0  0
  5  2  1  0  0  0  0
  5  7  2  0  0  0  0
  6  4  2  0  0  0  0
  7  3  1  0  0  0  0
  9  7  1  0  0  0  0
  9  8  1  1  0  0  0
 10 13  1  0  0  0  0
 10  9  1  0  0  0  0
 11 14  1  0  0  0  0
 11 12  1  0  0  0  0
 12 10  1  0  0  0  0
 14 15  1  0  0  0  0
 15 13  1  0  0  0  0
 16 22  1  0  0  0  0
 16 17  2  0  0  0  0
 17  4  1  0  0  0  0
 18 16  1  0  0  0  0
 19 18  1  0  0  0  0
 21 20  1  0  0  0  0
 21 17  1  0  0  0  0
 22 24  1  0  0  0  0
 23 25  1  0  0  0  0
 24 23  3  0  0  0  0
 26 25  1  0  0  0  0
 26 27  1  0  0  0  0
 28 29  1  0  0  0  0
 29 30  2  6  0  0  0
 29 27  1  0  0  0  0
 29 31  1  0  0  0  0
 31 33  1  0  0  0  0
 31 32  1  1  0  0  0
 33 34  1  6  0  0  0
 33 36  1  0  0  0  0
 36 35  1  6  0  0  0
 36 39  1  0  0  0  0
 38 39  2  0  0  0  0
 39 37  1  0  0  0  0
 40 41  1  0  0  0  0
 43 45  1  0  0  0  0
 44 43  1  0  0  0  0
 46 42  1  1  0  0  0
 46 44  1  0  0  0  0
 47 41  1  6  0  0  0
 47 49  1  0  0  0  0
 47 46  1  0  0  0  0
 48 50  2  0  0  0  0
 48 43  1  0  0  0  0
 49 48  1  0  0  0  0
M  END
>  <MODEL>
2

>  <REMARK>
 VINA RESULT:      -6.9      1.981      6.608
  Name = 
  18 active torsions:
  status: ('A' for Active; 'I' for Inactive)
    1  A    between atoms: O_1  and  C_10
    2  A    between atoms: O_1  and  C_34
    3  A    between atoms: O_2  and  C_13
    4  A    between atoms: C_3  and  C_42
    5  A    between atoms: C_5  and  C_8
    6  A    between atoms: C_5  and  C_27
    7  A    between atoms: C_8  and  P_36
    8  A    between atoms: C_9  and  C_37
    9  A    between atoms: C_10  and  C_32
   10  A    between atoms: C_13  and  C_35
   11  A    between atoms: N_18  and  P_36
   12  A    between atoms: N_18  and  C_43
   13  A    between atoms: C_26  and  C_32
   14  A    between atoms: C_26  and  N_41
   15  A    between atoms: C_27  and  C_40
   16  A    between atoms: C_30  and  C_35
   17  A    between atoms: C_37  and  C_43
   18  A    between atoms: C_42  and  C_49
                            x       y       z     vdW  Elec       q    Type
                         _______ _______ _______ _____ _____    ______ ____

>  <TORSDO>
F 18

$$$$
=
 OpenBabel10232410373D

 50 52  0  0  1  0  0  0  0  0999 V2000
  192.0980  175.7770  137.5630 C   0  0  0  0  0  0  0  0  0  0  0  0
  193.0710  176.4890  136.8870 O   0  0  0  0  0  0  0  0  0  0  0  0
  192.2730  174.3160  137.3740 C   0  0  0  0  0  2  0  0  0  0  0  0
  190.2790  176.8920  139.0630 C   0  0  0  0  0  0  0  0  0  0  0  0
  193.9040  175.5760  136.2630 C   0  0  0  0  0  3  0  0  0  0  0  0
  191.1810  176.3310  138.3030 C   0  0  0  0  0  0  0  0  0  0  0  0
  193.4950  174.3330  136.5160 C   0  0  0  0  0  0  0  0  0  0  0  0
  193.6310  172.6790  134.6430 C   0  0  0  0  0  1  0  0  0  0  0  0
  194.1630  173.0860  136.0080 C   0  0  1  0  0  3  0  0  0  0  0  0
  195.6960  173.1420  136.0230 C   0  0  0  0  0  3  0  0  0  0  0  0
  197.8140  172.9320  137.3580 C   0  0  0  0  0  2  0  0  0  0  0  0
  196.2930  172.8230  137.3990 C   0  0  0  0  0  2  0  0  0  0  0  0
  196.2860  172.2260  134.9480 C   0  0  0  0  0  2  0  0  0  0  0  0
  198.3820  171.9950  136.2950 C   0  0  0  0  0  2  0  0  0  0  0  0
  197.8050  172.3450  134.9250 C   0  0  0  0  0  2  0  0  0  0  0  0
  188.2240  176.8440  137.6820 C   0  0  0  0  0  0  0  0  0  0  0  0
  189.0900  177.5450  138.4590 C   0  0  0  0  0  0  0  0  0  0  0  0
  187.0550  177.3910  137.1260 O   0  0  0  0  0  0  0  0  0  0  0  0
  186.9300  177.9050  135.8050 C   0  0  0  0  0  1  0  0  0  0  0  0
  189.0300  179.8480  137.6520 O   0  0  0  0  0  1  0  0  0  0  0  0
  188.8990  178.9520  138.6590 N   0  0  0  0  0  2  0  0  0  0  0  0
  188.4940  175.4120  137.3370 C   0  0  0  0  0  2  0  0  0  0  0  0
  186.2010  174.0620  137.1060 C   0  0  0  0  0  0  0  0  0  0  0  0
  187.2330  174.6770  137.2110 C   0  0  0  0  0  0  0  0  0  0  0  0
  184.9520  173.3070  136.9820 C   0  0  0  0  0  2  0  0  0  0  0  0
  183.7870  174.1150  137.5230 C   0  0  0  0  0  2  0  0  0  0  0  0
  184.1290  175.5290  137.5510 N   0  0  0  0  0  2  0  0  0  0  0  0
  181.5000  175.4850  137.0690 O   0  0  0  0  0  1  0  0  0  0  0  0
  182.6340  176.4310  137.3910 P   0  0  2  0  0  0  0  0  0  0  0  0
  182.7820  177.5660  136.1450 O   0  0  0  0  0  0  0  0  0  0  0  0
  182.2690  177.2840  138.9590 C   0  0  1  0  0  3  0  0  0  0  0  0
  182.1830  176.3330  139.9780 O   0  0  0  0  0  1  0  0  0  0  0  0
  183.3450  178.3300  139.2920 C   0  0  1  0  0  3  0  0  0  0  0  0
  182.8570  179.6190  139.0650 O   0  0  0  0  0  1  0  0  0  0  0  0
  182.8410  178.6860  141.7550 C   0  0  0  0  0  1  0  0  0  0  0  0
  183.8740  178.2450  140.7310 C   0  0  2  0  0  3  0  0  0  0  0  0
  185.4070  179.6850  142.0750 O   0  0  0  0  0  1  0  0  0  0  0  0
  186.1160  178.8090  140.0820 O   0  0  0  0  0  0  0  0  0  0  0  0
  185.1910  178.9350  140.9280 C   0  0  0  0  0  0  0  0  0  0  0  0
  190.5740  177.0580  140.5180 C   0  0  0  0  0  2  0  0  0  0  0  0
  189.3970  176.9360  141.2740 O   0  0  0  0  0  0  0  0  0  0  0  0
  190.9230  179.2220  143.7850 C   0  0  0  0  0  1  0  0  0  0  0  0
  189.0650  177.1620  145.0520 N   0  0  0  0  0  0  0  0  0  0  0  0
  190.3350  176.8710  144.3940 C   0  0  0  0  0  2  0  0  0  0  0  0
  188.9450  176.9250  146.4790 C   0  0  0  0  0  1  0  0  0  0  0  0
  190.5990  177.8420  143.2420 C   0  0  1  0  0  3  0  0  0  0  0  0
  189.3910  177.9180  142.2900 C   0  0  2  0  0  3  0  0  0  0  0  0
  187.9440  177.6160  144.2810 C   0  0  0  0  0  0  0  0  0  0  0  0
  188.1250  178.0140  142.9560 O   0  0  0  0  0  0  0  0  0  0  0  0
  186.8000  177.7000  144.8040 O   0  0  0  0  0  0  0  0  0  0  0  0
  1  6  2  0  0  0  0
  2  1  1  0  0  0  0
  3  1  1  0  0  0  0
  4 40  1  0  0  0  0
  5  7  2  0  0  0  0
  5  2  1  0  0  0  0
  6  4  2  0  0  0  0
  7  3  1  0  0  0  0
  9  8  1  6  0  0  0
  9 10  1  0  0  0  0
  9  7  1  0  0  0  0
 10 12  1  0  0  0  0
 11 12  1  0  0  0  0
 13 10  1  0  0  0  0
 14 11  1  0  0  0  0
 15 13  1  0  0  0  0
 15 14  1  0  0  0  0
 16 17  2  0  0  0  0
 17 21  1  0  0  0  0
 17  4  1  0  0  0  0
 18 16  1  0  0  0  0
 19 18  1  0  0  0  0
 20 21  1  0  0  0  0
 22 16  1  0  0  0  0
 23 24  3  0  0  0  0
 24 22  1  0  0  0  0
 25 23  1  0  0  0  0
 25 26  1  0  0  0  0
 26 27  1  0  0  0  0
 28 29  1  0  0  0  0
 29 30  2  6  0  0  0
 29 27  1  0  0  0  0
 29 31  1  0  0  0  0
 31 33  1  0  0  0  0
 31 32  1  1  0  0  0
 33 34  1  1  0  0  0
 33 36  1  0  0  0  0
 36 39  1  0  0  0  0
 36 35  1  1  0  0  0
 38 39  2  0  0  0  0
 39 37  1  0  0  0  0
 40 41  1  0  0  0  0
 43 45  1  0  0  0  0
 44 43  1  0  0  0  0
 46 42  1  1  0  0  0
 46 44  1  0  0  0  0
 47 41  1  1  0  0  0
 47 49  1  0  0  0  0
 47 46  1  0  0  0  0
 48 50  2  0  0  0  0
 48 43  1  0  0  0  0
 49 48  1  0  0  0  0
M  END
>  <MODEL>
3

>  <REMARK>
 VINA RESULT:      -6.6      1.930      7.230
  Name = 
  18 active torsions:
  status: ('A' for Active; 'I' for Inactive)
    1  A    between atoms: O_1  and  C_10
    2  A    between atoms: O_1  and  C_34
    3  A    between atoms: O_2  and  C_13
    4  A    between atoms: C_3  and  C_42
    5  A    between atoms: C_5  and  C_8
    6  A    between atoms: C_5  and  C_27
    7  A    between atoms: C_8  and  P_36
    8  A    between atoms: C_9  and  C_37
    9  A    between atoms: C_10  and  C_32
   10  A    between atoms: C_13  and  C_35
   11  A    between atoms: N_18  and  P_36
   12  A    between atoms: N_18  and  C_43
   13  A    between atoms: C_26  and  C_32
   14  A    between atoms: C_26  and  N_41
   15  A    between atoms: C_27  and  C_40
   16  A    between atoms: C_30  and  C_35
   17  A    between atoms: C_37  and  C_43
   18  A    between atoms: C_42  and  C_49
                            x       y       z     vdW  Elec       q    Type
                         _______ _______ _______ _____ _____    ______ ____

>  <TORSDO>
F 18

$$$$
=
 OpenBabel10232410373D

 50 52  0  0  1  0  0  0  0  0999 V2000
  190.1880  176.4660  139.1390 C   0  0  0  0  0  0  0  0  0  0  0  0
  190.7850  175.9010  140.2500 O   0  0  0  0  0  0  0  0  0  0  0  0
  189.1770  177.4800  139.5290 C   0  0  0  0  0  2  0  0  0  0  0  0
  190.8630  175.8810  136.6880 C   0  0  0  0  0  0  0  0  0  0  0  0
  190.2360  176.4990  141.3730 C   0  0  0  0  0  3  0  0  0  0  0  0
  190.5140  176.1670  137.9140 C   0  0  0  0  0  0  0  0  0  0  0  0
  189.3260  177.4040  141.0130 C   0  0  0  0  0  0  0  0  0  0  0  0
  187.2120  178.6970  141.3560 C   0  0  0  0  0  1  0  0  0  0  0  0
  188.5310  178.2520  141.9650 C   0  0  1  0  0  3  0  0  0  0  0  0
  188.3310  177.6230  143.3510 C   0  0  0  0  0  3  0  0  0  0  0  0
  189.1360  177.4100  145.7210 C   0  0  0  0  0  2  0  0  0  0  0  0
  189.3650  178.0980  144.3790 C   0  0  0  0  0  2  0  0  0  0  0  0
  186.9070  177.8660  143.8580 C   0  0  0  0  0  2  0  0  0  0  0  0
  187.7180  177.6830  146.2180 C   0  0  0  0  0  2  0  0  0  0  0  0
  186.6990  177.1760  145.2020 C   0  0  0  0  0  2  0  0  0  0  0  0
  189.4610  174.6480  135.0610 C   0  0  0  0  0  0  0  0  0  0  0  0
  190.3930  174.6250  136.0480 C   0  0  0  0  0  0  0  0  0  0  0  0
  189.0150  173.5010  134.3820 O   0  0  0  0  0  0  0  0  0  0  0  0
  187.8320  172.7710  134.6810 C   0  0  0  0  0  1  0  0  0  0  0  0
  192.2190  173.1550  136.7290 O   0  0  0  0  0  1  0  0  0  0  0  0
  190.8970  173.3730  136.5330 N   0  0  0  0  0  2  0  0  0  0  0  0
  188.8130  175.9340  134.6520 C   0  0  0  0  0  2  0  0  0  0  0  0
  186.7940  176.5020  136.3070 C   0  0  0  0  0  0  0  0  0  0  0  0
  187.7060  176.2520  135.5580 C   0  0  0  0  0  0  0  0  0  0  0  0
  185.6890  176.7970  137.2220 C   0  0  0  0  0  2  0  0  0  0  0  0
  184.3950  176.1980  136.7020 C   0  0  0  0  0  2  0  0  0  0  0  0
  183.5090  175.8810  137.8110 N   0  0  0  0  0  2  0  0  0  0  0  0
  181.0950  175.6700  136.6840 O   0  0  0  0  0  1  0  0  0  0  0  0
  181.9590  176.6270  137.4710 P   0  0  2  0  0  0  0  0  0  0  0  0
  182.1920  178.0390  136.5660 O   0  0  0  0  0  0  0  0  0  0  0  0
  181.1230  177.0330  139.0380 C   0  0  1  0  0  3  0  0  0  0  0  0
  181.3960  176.0260  139.9660 O   0  0  0  0  0  1  0  0  0  0  0  0
  181.5790  178.3980  139.5800 C   0  0  1  0  0  3  0  0  0  0  0  0
  180.8740  178.7200  140.7410 O   0  0  0  0  0  1  0  0  0  0  0  0
  183.3920  178.3990  141.3570 C   0  0  0  0  0  1  0  0  0  0  0  0
  183.0840  178.4820  139.8710 C   0  0  2  0  0  3  0  0  0  0  0  0
  182.9970  180.7490  138.8290 O   0  0  0  0  0  0  0  0  0  0  0  0
  185.0060  179.6770  139.0660 O   0  0  0  0  0  1  0  0  0  0  0  0
  183.7560  179.6560  139.2220 C   0  0  0  0  0  0  0  0  0  0  0  0
  191.9110  176.7180  136.0300 C   0  0  0  0  0  2  0  0  0  0  0  0
  192.7770  175.9130  135.2720 O   0  0  0  0  0  0  0  0  0  0  0  0
  196.4410  176.2900  134.7380 C   0  0  0  0  0  1  0  0  0  0  0  0
  195.7670  174.0670  136.7150 N   0  0  0  0  0  0  0  0  0  0  0  0
  195.4570  174.0600  135.2880 C   0  0  0  0  0  2  0  0  0  0  0  0
  196.7210  173.1010  137.2290 C   0  0  0  0  0  1  0  0  0  0  0  0
  195.1630  175.4710  134.7770 C   0  0  1  0  0  3  0  0  0  0  0  0
  194.1110  176.1750  135.6550 C   0  0  2  0  0  3  0  0  0  0  0  0
  195.0890  174.9770  137.5930 C   0  0  0  0  0  0  0  0  0  0  0  0
  194.3220  176.0150  137.0630 O   0  0  0  0  0  0  0  0  0  0  0  0
  195.2160  174.8730  138.8430 O   0  0  0  0  0  0  0  0  0  0  0  0
  1  3  1  0  0  0  0
  1  2  1  0  0  0  0
  2  5  1  0  0  0  0
  3  7  1  0  0  0  0
  4  6  2  0  0  0  0
  6  1  2  0  0  0  0
  7  5  2  0  0  0  0
  7  9  1  0  0  0  0
  9  8  1  6  0  0  0
  9 10  1  0  0  0  0
 10 13  1  0  0  0  0
 10 12  1  0  0  0  0
 11 14  1  0  0  0  0
 12 11  1  0  0  0  0
 13 15  1  0  0  0  0
 15 14  1  0  0  0  0
 16 17  2  0  0  0  0
 17 21  1  0  0  0  0
 17  4  1  0  0  0  0
 18 19  1  0  0  0  0
 18 16  1  0  0  0  0
 21 20  1  0  0  0  0
 22 16  1  0  0  0  0
 22 24  1  0  0  0  0
 23 25  1  0  0  0  0
 24 23  3  0  0  0  0
 26 25  1  0  0  0  0
 26 27  1  0  0  0  0
 28 29  1  0  0  0  0
 29 30  2  6  0  0  0
 29 27  1  0  0  0  0
 29 31  1  0  0  0  0
 31 33  1  0  0  0  0
 31 32  1  1  0  0  0
 33 36  1  0  0  0  0
 33 34  1  1  0  0  0
 36 35  1  1  0  0  0
 37 39  2  0  0  0  0
 38 39  1  0  0  0  0
 39 36  1  0  0  0  0
 40  4  1  0  0  0  0
 41 40  1  0  0  0  0
 43 45  1  0  0  0  0
 43 48  1  0  0  0  0
 44 43  1  0  0  0  0
 46 42  1  1  0  0  0
 46 44  1  0  0  0  0
 46 47  1  0  0  0  0
 47 41  1  6  0  0  0
 47 49  1  0  0  0  0
 48 50  2  0  0  0  0
 49 48  1  0  0  0  0
M  END
>  <MODEL>
4

>  <REMARK>
 VINA RESULT:      -6.5      1.894      2.738
  Name = 
  18 active torsions:
  status: ('A' for Active; 'I' for Inactive)
    1  A    between atoms: O_1  and  C_10
    2  A    between atoms: O_1  and  C_34
    3  A    between atoms: O_2  and  C_13
    4  A    between atoms: C_3  and  C_42
    5  A    between atoms: C_5  and  C_8
    6  A    between atoms: C_5  and  C_27
    7  A    between atoms: C_8  and  P_36
    8  A    between atoms: C_9  and  C_37
    9  A    between atoms: C_10  and  C_32
   10  A    between atoms: C_13  and  C_35
   11  A    between atoms: N_18  and  P_36
   12  A    between atoms: N_18  and  C_43
   13  A    between atoms: C_26  and  C_32
   14  A    between atoms: C_26  and  N_41
   15  A    between atoms: C_27  and  C_40
   16  A    between atoms: C_30  and  C_35
   17  A    between atoms: C_37  and  C_43
   18  A    between atoms: C_42  and  C_49
                            x       y       z     vdW  Elec       q    Type
                         _______ _______ _______ _____ _____    ______ ____

>  <TORSDO>
F 18

$$$$
=
 OpenBabel10232410373D

 50 52  0  0  1  0  0  0  0  0999 V2000
  188.1670  178.1220  140.7730 C   0  0  0  0  0  0  0  0  0  0  0  0
  188.6270  179.2880  141.3560 O   0  0  0  0  0  0  0  0  0  0  0  0
  188.5430  176.9340  141.5780 C   0  0  0  0  0  2  0  0  0  0  0  0
  186.7250  178.0710  138.6000 C   0  0  0  0  0  0  0  0  0  0  0  0
  189.2830  178.9430  142.5260 C   0  0  0  0  0  3  0  0  0  0  0  0
  187.4570  178.0920  139.6820 C   0  0  0  0  0  0  0  0  0  0  0  0
  189.2540  177.6220  142.6970 C   0  0  0  0  0  0  0  0  0  0  0  0
  191.3750  176.8140  143.7500 C   0  0  0  0  0  1  0  0  0  0  0  0
  189.8610  176.8900  143.8610 C   0  0  1  0  0  3  0  0  0  0  0  0
  189.4200  177.4160  145.2340 C   0  0  0  0  0  3  0  0  0  0  0  0
  187.5350  177.8330  146.8400 C   0  0  0  0  0  2  0  0  0  0  0  0
  187.9150  177.2600  145.4790 C   0  0  0  0  0  2  0  0  0  0  0  0
  190.2260  176.7550  146.3540 C   0  0  0  0  0  2  0  0  0  0  0  0
  188.3340  177.1460  147.9440 C   0  0  0  0  0  2  0  0  0  0  0  0
  189.8300  177.3370  147.7070 C   0  0  0  0  0  2  0  0  0  0  0  0
  187.5910  177.1820  136.4570 C   0  0  0  0  0  0  0  0  0  0  0  0
  187.3530  178.2470  137.2660 C   0  0  0  0  0  0  0  0  0  0  0  0
  188.1340  177.2890  135.1650 O   0  0  0  0  0  0  0  0  0  0  0  0
  189.5160  177.4210  134.8570 C   0  0  0  0  0  1  0  0  0  0  0  0
  188.9050  180.1310  137.3170 O   0  0  0  0  0  1  0  0  0  0  0  0
  187.7630  179.5610  136.8640 N   0  0  0  0  0  2  0  0  0  0  0  0
  187.3110  175.7890  136.9270 C   0  0  0  0  0  2  0  0  0  0  0  0
  189.5640  174.3550  136.9630 C   0  0  0  0  0  0  0  0  0  0  0  0
  188.5490  175.0060  136.9520 C   0  0  0  0  0  0  0  0  0  0  0  0
  190.7960  173.5630  136.9660 C   0  0  0  0  0  2  0  0  0  0  0  0
  191.9790  174.4240  137.3700 C   0  0  0  0  0  2  0  0  0  0  0  0
  193.1720  174.0060  136.6490 N   0  0  0  0  0  2  0  0  0  0  0  0
  194.0460  175.7940  138.4340 O   0  0  0  0  0  1  0  0  0  0  0  0
  194.5160  174.9370  137.2810 P   0  0  2  0  0  0  0  0  0  0  0  0
  195.1410  175.9350  136.0650 O   0  0  0  0  0  0  0  0  0  0  0  0
  195.8150  173.8040  137.8740 C   0  0  1  0  0  3  0  0  0  0  0  0
  195.4360  173.3000  139.1200 O   0  0  0  0  0  1  0  0  0  0  0  0
  196.0520  172.6550  136.8810 C   0  0  1  0  0  3  0  0  0  0  0  0
  196.7880  173.1040  135.7830 O   0  0  0  0  0  1  0  0  0  0  0  0
  198.2300  171.3710  137.1070 C   0  0  0  0  0  1  0  0  0  0  0  0
  196.7620  171.4390  137.4930 C   0  0  2  0  0  3  0  0  0  0  0  0
  195.9310  169.2160  138.2680 O   0  0  0  0  0  1  0  0  0  0  0  0
  195.5370  169.8970  136.1180 O   0  0  0  0  0  0  0  0  0  0  0  0
  196.0540  170.1400  137.2400 C   0  0  0  0  0  0  0  0  0  0  0  0
  185.2380  178.0910  138.7440 C   0  0  0  0  0  2  0  0  0  0  0  0
  184.7710  179.4120  138.8260 O   0  0  0  0  0  0  0  0  0  0  0  0
  181.6020  177.8600  140.0110 C   0  0  0  0  0  1  0  0  0  0  0  0
  181.2620  179.3480  137.3710 N   0  0  0  0  0  0  0  0  0  0  0  0
  182.0500  178.1350  137.5680 C   0  0  0  0  0  2  0  0  0  0  0  0
  180.0780  179.2860  136.5330 C   0  0  0  0  0  1  0  0  0  0  0  0
  182.6740  178.1000  138.9630 C   0  0  1  0  0  3  0  0  0  0  0  0
  183.4290  179.4060  139.2690 C   0  0  2  0  0  3  0  0  0  0  0  0
  181.6940  180.5870  137.9490 C   0  0  0  0  0  0  0  0  0  0  0  0
  182.7200  180.5940  138.8950 O   0  0  0  0  0  0  0  0  0  0  0  0
  181.1250  181.6690  137.6410 O   0  0  0  0  0  0  0  0  0  0  0  0
  1  2  1  0  0  0  0
  1  3  1  0  0  0  0
  2  5  1  0  0  0  0
  3  7  1  0  0  0  0
  4 40  1  0  0  0  0
  4  6  2  0  0  0  0
  5  7  2  0  0  0  0
  6  1  2  0  0  0  0
  7  9  1  0  0  0  0
  9  8  1  1  0  0  0
  9 10  1  0  0  0  0
 10 12  1  0  0  0  0
 10 13  1  0  0  0  0
 11 14  1  0  0  0  0
 12 11  1  0  0  0  0
 13 15  1  0  0  0  0
 15 14  1  0  0  0  0
 16 22  1  0  0  0  0
 16 17  2  0  0  0  0
 17  4  1  0  0  0  0
 18 16  1  0  0  0  0
 19 18  1  0  0  0  0
 21 17  1  0  0  0  0
 21 20  1  0  0  0  0
 22 24  1  0  0  0  0
 23 25  1  0  0  0  0
 24 23  3  0  0  0  0
 25 26  1  0  0  0  0
 27 29  1  0  0  0  0
 27 26  1  0  0  0  0
 29 30  2  6  0  0  0
 29 31  1  0  0  0  0
 29 28  1  0  0  0  0
 31 32  1  1  0  0  0
 33 34  1  6  0  0  0
 33 36  1  0  0  0  0
 33 31  1  0  0  0  0
 36 35  1  6  0  0  0
 38 39  2  0  0  0  0
 39 36  1  0  0  0  0
 39 37  1  0  0  0  0
 40 41  1  0  0  0  0
 43 44  1  0  0  0  0
 43 48  1  0  0  0  0
 44 46  1  0  0  0  0
 45 43  1  0  0  0  0
 46 47  1  0  0  0  0
 46 42  1  1  0  0  0
 47 41  1  6  0  0  0
 48 49  1  0  0  0  0
 49 47  1  0  0  0  0
 50 48  2  0  0  0  0
M  END
>  <MODEL>
5

>  <REMARK>
 VINA RESULT:      -6.5      2.770      9.622
  Name = 
  18 active torsions:
  status: ('A' for Active; 'I' for Inactive)
    1  A    between atoms: O_1  and  C_10
    2  A    between atoms: O_1  and  C_34
    3  A    between atoms: O_2  and  C_13
    4  A    between atoms: C_3  and  C_42
    5  A    between atoms: C_5  and  C_8
    6  A    between atoms: C_5  and  C_27
    7  A    between atoms: C_8  and  P_36
    8  A    between atoms: C_9  and  C_37
    9  A    between atoms: C_10  and  C_32
   10  A    between atoms: C_13  and  C_35
   11  A    between atoms: N_18  and  P_36
   12  A    between atoms: N_18  and  C_43
   13  A    between atoms: C_26  and  C_32
   14  A    between atoms: C_26  and  N_41
   15  A    between atoms: C_27  and  C_40
   16  A    between atoms: C_30  and  C_35
   17  A    between atoms: C_37  and  C_43
   18  A    between atoms: C_42  and  C_49
                            x       y       z     vdW  Elec       q    Type
                         _______ _______ _______ _____ _____    ______ ____

>  <TORSDO>
F 18

$$$$
=
 OpenBabel10232410373D

 50 52  0  0  1  0  0  0  0  0999 V2000
  188.7910  178.1070  141.5520 C   0  0  0  0  0  0  0  0  0  0  0  0
  189.1960  179.2480  142.2180 O   0  0  0  0  0  0  0  0  0  0  0  0
  189.0030  176.8960  142.3830 C   0  0  0  0  0  2  0  0  0  0  0  0
  187.6900  178.1330  139.1880 C   0  0  0  0  0  0  0  0  0  0  0  0
  189.6570  178.8660  143.4660 C   0  0  0  0  0  3  0  0  0  0  0  0
  188.2520  178.1150  140.3660 C   0  0  0  0  0  0  0  0  0  0  0  0
  189.5610  177.5440  143.6070 C   0  0  0  0  0  0  0  0  0  0  0  0
  191.3900  177.0920  145.2540 C   0  0  0  0  0  1  0  0  0  0  0  0
  189.9630  176.7780  144.8360 C   0  0  1  0  0  3  0  0  0  0  0  0
  188.9860  176.9140  146.0110 C   0  0  0  0  0  3  0  0  0  0  0  0
  188.5940  177.7030  148.3630 C   0  0  0  0  0  2  0  0  0  0  0  0
  189.5990  177.6330  147.2180 C   0  0  0  0  0  2  0  0  0  0  0  0
  187.6930  177.6030  145.5670 C   0  0  0  0  0  2  0  0  0  0  0  0
  187.3220  178.4120  147.9050 C   0  0  0  0  0  2  0  0  0  0  0  0
  186.7030  177.6680  146.7240 C   0  0  0  0  0  2  0  0  0  0  0  0
  189.3270  177.3100  137.5220 C   0  0  0  0  0  0  0  0  0  0  0  0
  188.5160  178.3050  137.9650 C   0  0  0  0  0  0  0  0  0  0  0  0
  190.0930  177.3920  136.3460 O   0  0  0  0  0  0  0  0  0  0  0  0
  189.5970  177.2220  135.0240 C   0  0  0  0  0  1  0  0  0  0  0  0
  187.4650  179.9360  136.4850 O   0  0  0  0  0  1  0  0  0  0  0  0
  188.4910  179.5680  137.2870 N   0  0  0  0  0  2  0  0  0  0  0  0
  189.4810  176.0440  138.3060 C   0  0  0  0  0  2  0  0  0  0  0  0
  191.8040  174.8700  137.7030 C   0  0  0  0  0  0  0  0  0  0  0  0
  190.7520  175.3950  137.9710 C   0  0  0  0  0  0  0  0  0  0  0  0
  193.0850  174.2350  137.3860 C   0  0  0  0  0  2  0  0  0  0  0  0
  194.1590  175.2860  137.1720 C   0  0  0  0  0  2  0  0  0  0  0  0
  195.3310  174.6860  136.5530 N   0  0  0  0  0  2  0  0  0  0  0  0
  195.9430  174.8570  139.1490 O   0  0  0  0  0  1  0  0  0  0  0  0
  196.4830  174.3520  137.8310 P   0  0  2  0  0  0  0  0  0  0  0  0
  197.9490  175.1300  137.4960 O   0  0  0  0  0  0  0  0  0  0  0  0
  196.7550  172.5540  137.9490 C   0  0  1  0  0  3  0  0  0  0  0  0
  195.6100  171.9620  138.4850 O   0  0  0  0  0  1  0  0  0  0  0  0
  197.0810  171.9440  136.5760 C   0  0  1  0  0  3  0  0  0  0  0  0
  197.8720  172.8210  135.8300 O   0  0  0  0  0  1  0  0  0  0  0  0
  199.1500  170.6670  137.3070 C   0  0  0  0  0  1  0  0  0  0  0  0
  197.7820  170.5810  136.6500 C   0  0  2  0  0  3  0  0  0  0  0  0
  199.0310  169.3030  134.9060 O   0  0  0  0  0  1  0  0  0  0  0  0
  196.7970  169.7250  134.6340 O   0  0  0  0  0  0  0  0  0  0  0  0
  197.8350  169.8610  135.3350 C   0  0  0  0  0  0  0  0  0  0  0  0
  186.2000  178.2020  139.1080 C   0  0  0  0  0  2  0  0  0  0  0  0
  185.6740  178.8080  140.2610 O   0  0  0  0  0  0  0  0  0  0  0  0
  182.6160  176.6860  140.2420 C   0  0  0  0  0  1  0  0  0  0  0  0
  182.3680  179.0840  142.1100 N   0  0  0  0  0  0  0  0  0  0  0  0
  182.4570  179.1450  140.6550 C   0  0  0  0  0  2  0  0  0  0  0  0
  181.1370  179.5050  142.7550 C   0  0  0  0  0  1  0  0  0  0  0  0
  183.3320  178.0180  140.1050 C   0  0  1  0  0  3  0  0  0  0  0  0
  184.6920  177.9650  140.8250 C   0  0  2  0  0  3  0  0  0  0  0  0
  183.5030  178.6710  142.8840 C   0  0  0  0  0  0  0  0  0  0  0  0
  184.6060  178.0960  142.2500 O   0  0  0  0  0  0  0  0  0  0  0  0
  183.4970  178.7820  144.1390 O   0  0  0  0  0  0  0  0  0  0  0  0
  1  2  1  0  0  0  0
  1  3  1  0  0  0  0
  2  5  1  0  0  0  0
  3  7  1  0  0  0  0
  4  6  2  0  0  0  0
  5  7  2  0  0  0  0
  6  1  2  0  0  0  0
  7  9  1  0  0  0  0
  9  8  1  1  0  0  0
  9 10  1  0  0  0  0
 10 12  1  0  0  0  0
 12 11  1  0  0  0  0
 13 10  1  0  0  0  0
 13 15  1  0  0  0  0
 14 11  1  0  0  0  0
 15 14  1  0  0  0  0
 16 17  2  0  0  0  0
 16 22  1  0  0  0  0
 17  4  1  0  0  0  0
 18 16  1  0  0  0  0
 19 18  1  0  0  0  0
 20 21  1  0  0  0  0
 21 17  1  0  0  0  0
 23 24  3  0  0  0  0
 24 22  1  0  0  0  0
 25 23  1  0  0  0  0
 26 25  1  0  0  0  0
 27 26  1  0  0  0  0
 27 29  1  0  0  0  0
 29 30  2  6  0  0  0
 29 31  1  0  0  0  0
 29 28  1  0  0  0  0
 31 32  1  6  0  0  0
 33 34  1  1  0  0  0
 33 36  1  0  0  0  0
 33 31  1  0  0  0  0
 36 35  1  6  0  0  0
 37 39  1  0  0  0  0
 38 39  2  0  0  0  0
 39 36  1  0  0  0  0
 40  4  1  0  0  0  0
 40 41  1  0  0  0  0
 43 45  1  0  0  0  0
 43 48  1  0  0  0  0
 44 43  1  0  0  0  0
 46 42  1  1  0  0  0
 46 44  1  0  0  0  0
 46 47  1  0  0  0  0
 47 41  1  6  0  0  0
 47 49  1  0  0  0  0
 48 50  2  0  0  0  0
 49 48  1  0  0  0  0
M  END
>  <MODEL>
6

>  <REMARK>
 VINA RESULT:      -6.3      3.270     10.135
  Name = 
  18 active torsions:
  status: ('A' for Active; 'I' for Inactive)
    1  A    between atoms: O_1  and  C_10
    2  A    between atoms: O_1  and  C_34
    3  A    between atoms: O_2  and  C_13
    4  A    between atoms: C_3  and  C_42
    5  A    between atoms: C_5  and  C_8
    6  A    between atoms: C_5  and  C_27
    7  A    between atoms: C_8  and  P_36
    8  A    between atoms: C_9  and  C_37
    9  A    between atoms: C_10  and  C_32
   10  A    between atoms: C_13  and  C_35
   11  A    between atoms: N_18  and  P_36
   12  A    between atoms: N_18  and  C_43
   13  A    between atoms: C_26  and  C_32
   14  A    between atoms: C_26  and  N_41
   15  A    between atoms: C_27  and  C_40
   16  A    between atoms: C_30  and  C_35
   17  A    between atoms: C_37  and  C_43
   18  A    between atoms: C_42  and  C_49
                            x       y       z     vdW  Elec       q    Type
                         _______ _______ _______ _____ _____    ______ ____

>  <TORSDO>
F 18

$$$$
=
 OpenBabel10232410373D

 50 52  0  0  1  0  0  0  0  0999 V2000
  190.0160  176.5740  140.1650 C   0  0  0  0  0  0  0  0  0  0  0  0
  188.9490  176.3030  141.0000 O   0  0  0  0  0  0  0  0  0  0  0  0
  191.1580  177.1470  140.9200 C   0  0  0  0  0  2  0  0  0  0  0  0
  190.0250  176.0250  137.6150 C   0  0  0  0  0  0  0  0  0  0  0  0
  189.3220  176.6500  142.2870 C   0  0  0  0  0  3  0  0  0  0  0  0
  190.0190  176.3120  138.8890 C   0  0  0  0  0  0  0  0  0  0  0  0
  190.5670  177.1260  142.2920 C   0  0  0  0  0  0  0  0  0  0  0  0
  191.4740  179.1070  143.5240 C   0  0  0  0  0  1  0  0  0  0  0  0
  191.3050  177.5960  143.5140 C   0  0  1  0  0  3  0  0  0  0  0  0
  190.7220  177.0840  144.8380 C   0  0  0  0  0  3  0  0  0  0  0  0
  191.1590  176.1870  147.1430 C   0  0  0  0  0  2  0  0  0  0  0  0
  191.7990  176.7240  145.8670 C   0  0  0  0  0  2  0  0  0  0  0  0
  189.7260  178.0900  145.4200 C   0  0  0  0  0  2  0  0  0  0  0  0
  190.1870  177.2140  147.7180 C   0  0  0  0  0  2  0  0  0  0  0  0
  189.1000  177.5390  146.6960 C   0  0  0  0  0  2  0  0  0  0  0  0
  187.9550  176.9090  136.5830 C   0  0  0  0  0  0  0  0  0  0  0  0
  189.3110  176.8970  136.6470 C   0  0  0  0  0  0  0  0  0  0  0  0
  187.2200  177.7480  135.7260 O   0  0  0  0  0  0  0  0  0  0  0  0
  186.9740  177.5080  134.3460 C   0  0  0  0  0  1  0  0  0  0  0  0
  190.5040  177.2030  134.5390 O   0  0  0  0  0  1  0  0  0  0  0  0
  190.0810  177.6870  135.7310 N   0  0  0  0  0  2  0  0  0  0  0  0
  187.1410  175.9760  137.4250 C   0  0  0  0  0  2  0  0  0  0  0  0
  184.6190  175.9180  136.5470 C   0  0  0  0  0  0  0  0  0  0  0  0
  185.7560  175.9450  136.9500 C   0  0  0  0  0  0  0  0  0  0  0  0
  183.2420  175.8790  136.0510 C   0  0  0  0  0  2  0  0  0  0  0  0
  182.5880  177.2410  136.1940 C   0  0  0  0  0  2  0  0  0  0  0  0
  183.0620  177.8990  137.4020 N   0  0  0  0  0  2  0  0  0  0  0  0
  180.4180  177.6990  137.7440 O   0  0  0  0  0  0  0  0  0  0  0  0
  181.6510  178.3310  138.3490 P   0  0  2  0  0  0  0  0  0  0  0  0
  181.4650  180.0130  138.3620 O   0  0  0  0  0  1  0  0  0  0  0  0
  181.8560  177.7220  140.0550 C   0  0  1  0  0  3  0  0  0  0  0  0
  182.6330  176.5630  140.0270 O   0  0  0  0  0  1  0  0  0  0  0  0
  182.5090  178.7840  140.9540 C   0  0  1  0  0  3  0  0  0  0  0  0
  181.6560  179.1200  142.0080 O   0  0  0  0  0  1  0  0  0  0  0  0
  183.8670  178.3190  143.0490 C   0  0  0  0  0  1  0  0  0  0  0  0
  183.8690  178.3630  141.5290 C   0  0  2  0  0  3  0  0  0  0  0  0
  185.0620  179.4770  139.6410 O   0  0  0  0  0  0  0  0  0  0  0  0
  185.9290  179.5750  141.7580 O   0  0  0  0  0  1  0  0  0  0  0  0
  185.0200  179.1590  140.9910 C   0  0  0  0  0  0  0  0  0  0  0  0
  190.5660  174.7010  137.1840 C   0  0  0  0  0  2  0  0  0  0  0  0
  191.8540  174.5040  137.7070 O   0  0  0  0  0  0  0  0  0  0  0  0
  194.4470  172.2540  136.2690 C   0  0  0  0  0  1  0  0  0  0  0  0
  195.2750  175.1880  136.2030 N   0  0  0  0  0  0  0  0  0  0  0  0
  195.0970  174.3810  137.4070 C   0  0  0  0  0  2  0  0  0  0  0  0
  196.6060  175.6640  135.8700 C   0  0  0  0  0  1  0  0  0  0  0  0
  193.9880  173.3440  137.2200 C   0  0  1  0  0  3  0  0  0  0  0  0
  192.6970  173.9970  136.6930 C   0  0  2  0  0  3  0  0  0  0  0  0
  194.1400  175.5490  135.4050 C   0  0  0  0  0  0  0  0  0  0  0  0
  192.9070  174.9350  135.6300 O   0  0  0  0  0  0  0  0  0  0  0  0
  194.2560  176.3860  134.4700 O   0  0  0  0  0  0  0  0  0  0  0  0
  1  3  1  0  0  0  0
  1  2  1  0  0  0  0
  2  5  1  0  0  0  0
  3  7  1  0  0  0  0
  4  6  2  0  0  0  0
  5  7  2  0  0  0  0
  6  1  2  0  0  0  0
  7  9  1  0  0  0  0
  9  8  1  1  0  0  0
  9 10  1  0  0  0  0
 10 13  1  0  0  0  0
 10 12  1  0  0  0  0
 11 14  1  0  0  0  0
 12 11  1  0  0  0  0
 13 15  1  0  0  0  0
 15 14  1  0  0  0  0
 16 17  2  0  0  0  0
 16 22  1  0  0  0  0
 17  4  1  0  0  0  0
 18 16  1  0  0  0  0
 19 18  1  0  0  0  0
 20 21  1  0  0  0  0
 21 17  1  0  0  0  0
 23 24  3  0  0  0  0
 24 22  1  0  0  0  0
 25 26  1  0  0  0  0
 25 23  1  0  0  0  0
 26 27  1  0  0  0  0
 27 29  1  0  0  0  0
 29 28  2  6  0  0  0
 29 30  1  0  0  0  0
 29 31  1  0  0  0  0
 31 32  1  6  0  0  0
 31 33  1  0  0  0  0
 33 36  1  0  0  0  0
 33 34  1  1  0  0  0
 36 35  1  1  0  0  0
 37 39  2  0  0  0  0
 39 36  1  0  0  0  0
 39 38  1  0  0  0  0
 40  4  1  0  0  0  0
 40 41  1  0  0  0  0
 43 44  1  0  0  0  0
 45 43  1  0  0  0  0
 46 42  1  6  0  0  0
 46 44  1  0  0  0  0
 47 46  1  0  0  0  0
 47 41  1  1  0  0  0
 48 49  1  0  0  0  0
 48 43  1  0  0  0  0
 49 47  1  0  0  0  0
 50 48  2  0  0  0  0
M  END
>  <MODEL>
7

>  <REMARK>
 VINA RESULT:      -6.3      1.855      2.410
  Name = 
  18 active torsions:
  status: ('A' for Active; 'I' for Inactive)
    1  A    between atoms: O_1  and  C_10
    2  A    between atoms: O_1  and  C_34
    3  A    between atoms: O_2  and  C_13
    4  A    between atoms: C_3  and  C_42
    5  A    between atoms: C_5  and  C_8
    6  A    between atoms: C_5  and  C_27
    7  A    between atoms: C_8  and  P_36
    8  A    between atoms: C_9  and  C_37
    9  A    between atoms: C_10  and  C_32
   10  A    between atoms: C_13  and  C_35
   11  A    between atoms: N_18  and  P_36
   12  A    between atoms: N_18  and  C_43
   13  A    between atoms: C_26  and  C_32
   14  A    between atoms: C_26  and  N_41
   15  A    between atoms: C_27  and  C_40
   16  A    between atoms: C_30  and  C_35
   17  A    between atoms: C_37  and  C_43
   18  A    between atoms: C_42  and  C_49
                            x       y       z     vdW  Elec       q    Type
                         _______ _______ _______ _____ _____    ______ ____

>  <TORSDO>
F 18

$$$$
=
 OpenBabel10232410373D

 50 52  0  0  1  0  0  0  0  0999 V2000
  190.3600  176.5450  140.7470 C   0  0  0  0  0  0  0  0  0  0  0  0
  190.3760  175.4600  141.6020 O   0  0  0  0  0  0  0  0  0  0  0  0
  189.7700  177.7380  141.4030 C   0  0  0  0  0  2  0  0  0  0  0  0
  191.3560  176.4940  138.3370 C   0  0  0  0  0  0  0  0  0  0  0  0
  189.8400  175.8680  142.8120 C   0  0  0  0  0  3  0  0  0  0  0  0
  190.8460  176.5200  139.5390 C   0  0  0  0  0  0  0  0  0  0  0  0
  189.4880  177.1520  142.7480 C   0  0  0  0  0  0  0  0  0  0  0  0
  187.4100  177.5890  144.0720 C   0  0  0  0  0  1  0  0  0  0  0  0
  188.8780  177.9350  143.8760 C   0  0  1  0  0  3  0  0  0  0  0  0
  189.6590  177.8530  145.1950 C   0  0  0  0  0  3  0  0  0  0  0  0
  189.6140  177.3840  147.6620 C   0  0  0  0  0  2  0  0  0  0  0  0
  188.7910  177.4080  146.3780 C   0  0  0  0  0  2  0  0  0  0  0  0
  190.8830  176.9460  145.0470 C   0  0  0  0  0  2  0  0  0  0  0  0
  190.8170  176.4580  147.5000 C   0  0  0  0  0  2  0  0  0  0  0  0
  191.6900  176.9300  146.3400 C   0  0  0  0  0  2  0  0  0  0  0  0
  189.7620  176.5870  136.4440 C   0  0  0  0  0  0  0  0  0  0  0  0
  190.6110  175.8630  137.2180 C   0  0  0  0  0  0  0  0  0  0  0  0
  189.0690  176.0600  135.3400 O   0  0  0  0  0  0  0  0  0  0  0  0
  187.7670  175.4910  135.3780 C   0  0  0  0  0  1  0  0  0  0  0  0
  190.0730  173.5380  137.7320 O   0  0  0  0  0  1  0  0  0  0  0  0
  190.7540  174.4520  137.0020 N   0  0  0  0  0  2  0  0  0  0  0  0
  189.4850  178.0250  136.7540 C   0  0  0  0  0  2  0  0  0  0  0  0
  187.0100  178.2840  137.7270 C   0  0  0  0  0  0  0  0  0  0  0  0
  188.1270  178.1740  137.2860 C   0  0  0  0  0  0  0  0  0  0  0  0
  185.6560  178.4120  138.2700 C   0  0  0  0  0  2  0  0  0  0  0  0
  184.8210  177.1980  137.9030 C   0  0  0  0  0  2  0  0  0  0  0  0
  183.4870  177.6130  137.4960 N   0  0  0  0  0  2  0  0  0  0  0  0
  182.8810  176.3210  139.7560 O   0  0  0  0  0  1  0  0  0  0  0  0
  182.4510  177.4930  138.9050 P   0  0  2  0  0  0  0  0  0  0  0  0
  180.8460  177.2670  138.4160 O   0  0  0  0  0  0  0  0  0  0  0  0
  182.5830  179.0220  139.8880 C   0  0  1  0  0  3  0  0  0  0  0  0
  181.8140  180.0150  139.2770 O   0  0  0  0  0  1  0  0  0  0  0  0
  182.1190  178.8000  141.3360 C   0  0  1  0  0  3  0  0  0  0  0  0
  181.0860  177.8620  141.3780 O   0  0  0  0  0  1  0  0  0  0  0  0
  183.0010  178.8090  143.7170 C   0  0  0  0  0  1  0  0  0  0  0  0
  183.2380  178.3510  142.2870 C   0  0  2  0  0  3  0  0  0  0  0  0
  185.4860  177.6940  141.4230 O   0  0  0  0  0  0  0  0  0  0  0  0
  184.9720  179.9080  141.7060 O   0  0  0  0  0  1  0  0  0  0  0  0
  184.6140  178.7040  141.8050 C   0  0  0  0  0  0  0  0  0  0  0  0
  192.7810  176.9070  138.1580 C   0  0  0  0  0  2  0  0  0  0  0  0
  193.6450  175.9040  138.6280 O   0  0  0  0  0  0  0  0  0  0  0  0
  193.9980  172.7920  136.6160 C   0  0  0  0  0  1  0  0  0  0  0  0
  196.6780  173.8610  137.6030 N   0  0  0  0  0  0  0  0  0  0  0  0
  195.6180  173.3170  138.4450 C   0  0  0  0  0  2  0  0  0  0  0  0
  197.9380  173.1440  137.5120 C   0  0  0  0  0  1  0  0  0  0  0  0
  194.2370  173.6230  137.8640 C   0  0  1  0  0  3  0  0  0  0  0  0
  194.0880  175.1210  137.5390 C   0  0  2  0  0  3  0  0  0  0  0  0
  196.4910  175.1130  136.9290 C   0  0  0  0  0  0  0  0  0  0  0  0
  195.2220  175.6920  136.8750 O   0  0  0  0  0  0  0  0  0  0  0  0
  197.4560  175.6770  136.3470 O   0  0  0  0  0  0  0  0  0  0  0  0
  1  3  1  0  0  0  0
  1  2  1  0  0  0  0
  2  5  1  0  0  0  0
  3  7  1  0  0  0  0
  4  6  2  0  0  0  0
  6  1  2  0  0  0  0
  7  5  2  0  0  0  0
  7  9  1  0  0  0  0
  9  8  1  1  0  0  0
  9 10  1  0  0  0  0
 10 12  1  0  0  0  0
 12 11  1  0  0  0  0
 13 10  1  0  0  0  0
 13 15  1  0  0  0  0
 14 11  1  0  0  0  0
 15 14  1  0  0  0  0
 16 22  1  0  0  0  0
 16 17  2  0  0  0  0
 17  4  1  0  0  0  0
 18 19  1  0  0  0  0
 18 16  1  0  0  0  0
 21 17  1  0  0  0  0
 21 20  1  0  0  0  0
 22 24  1  0  0  0  0
 23 25  1  0  0  0  0
 24 23  3  0  0  0  0
 26 25  1  0  0  0  0
 27 26  1  0  0  0  0
 27 29  1  0  0  0  0
 29 30  2  6  0  0  0
 29 28  1  0  0  0  0
 29 31  1  0  0  0  0
 31 32  1  6  0  0  0
 31 33  1  0  0  0  0
 33 34  1  6  0  0  0
 33 36  1  0  0  0  0
 36 35  1  1  0  0  0
 37 39  2  0  0  0  0
 38 39  1  0  0  0  0
 39 36  1  0  0  0  0
 40  4  1  0  0  0  0
 40 41  1  0  0  0  0
 43 44  1  0  0  0  0
 45 43  1  0  0  0  0
 46 42  1  6  0  0  0
 46 44  1  0  0  0  0
 47 46  1  0  0  0  0
 47 41  1  1  0  0  0
 48 43  1  0  0  0  0
 49 48  1  0  0  0  0
 49 47  1  0  0  0  0
 50 48  2  0  0  0  0
M  END
>  <MODEL>
8

>  <REMARK>
 VINA RESULT:      -6.2      2.083      2.910
  Name = 
  18 active torsions:
  status: ('A' for Active; 'I' for Inactive)
    1  A    between atoms: O_1  and  C_10
    2  A    between atoms: O_1  and  C_34
    3  A    between atoms: O_2  and  C_13
    4  A    between atoms: C_3  and  C_42
    5  A    between atoms: C_5  and  C_8
    6  A    between atoms: C_5  and  C_27
    7  A    between atoms: C_8  and  P_36
    8  A    between atoms: C_9  and  C_37
    9  A    between atoms: C_10  and  C_32
   10  A    between atoms: C_13  and  C_35
   11  A    between atoms: N_18  and  P_36
   12  A    between atoms: N_18  and  C_43
   13  A    between atoms: C_26  and  C_32
   14  A    between atoms: C_26  and  N_41
   15  A    between atoms: C_27  and  C_40
   16  A    between atoms: C_30  and  C_35
   17  A    between atoms: C_37  and  C_43
   18  A    between atoms: C_42  and  C_49
                            x       y       z     vdW  Elec       q    Type
                         _______ _______ _______ _____ _____    ______ ____

>  <TORSDO>
F 18

$$$$
=
 OpenBabel10232410373D

 50 52  0  0  1  0  0  0  0  0999 V2000
  188.4100  177.5780  141.4640 C   0  0  0  0  0  0  0  0  0  0  0  0
  188.9520  176.5370  140.7340 O   0  0  0  0  0  0  0  0  0  0  0  0
  188.0170  178.7050  140.5820 C   0  0  0  0  0  2  0  0  0  0  0  0
  188.0330  177.4860  144.0430 C   0  0  0  0  0  0  0  0  0  0  0  0
  188.9290  176.9010  139.3990 C   0  0  0  0  0  3  0  0  0  0  0  0
  188.2310  177.5400  142.7540 C   0  0  0  0  0  0  0  0  0  0  0  0
  188.4020  178.1180  139.2630 C   0  0  0  0  0  0  0  0  0  0  0  0
  189.4520  178.7440  137.0800 C   0  0  0  0  0  1  0  0  0  0  0  0
  188.2130  178.8340  137.9560 C   0  0  1  0  0  3  0  0  0  0  0  0
  186.9480  178.4240  137.1910 C   0  0  0  0  0  3  0  0  0  0  0  0
  185.9210  176.9830  135.4070 C   0  0  0  0  0  2  0  0  0  0  0  0
  187.2050  177.3190  136.1590 C   0  0  0  0  0  2  0  0  0  0  0  0
  185.8350  178.0160  138.1580 C   0  0  0  0  0  2  0  0  0  0  0  0
  184.8310  176.5600  136.3890 C   0  0  0  0  0  2  0  0  0  0  0  0
  184.5610  177.6800  137.3900 C   0  0  0  0  0  2  0  0  0  0  0  0
  190.3530  177.0590  144.7970 C   0  0  0  0  0  0  0  0  0  0  0  0
  189.1640  177.6880  144.9850 C   0  0  0  0  0  0  0  0  0  0  0  0
  191.4760  177.2490  145.6220 O   0  0  0  0  0  0  0  0  0  0  0  0
  191.9900  176.3010  146.5490 C   0  0  0  0  0  1  0  0  0  0  0  0
  188.6020  178.0030  147.3390 O   0  0  0  0  0  1  0  0  0  0  0  0
  188.9630  178.5150  146.1390 N   0  0  0  0  0  2  0  0  0  0  0  0
  190.5290  176.0730  143.6840 C   0  0  0  0  0  2  0  0  0  0  0  0
  192.0020  177.1440  141.7310 C   0  0  0  0  0  0  0  0  0  0  0  0
  191.3430  176.6580  142.6150 C   0  0  0  0  0  0  0  0  0  0  0  0
  192.7970  177.7420  140.6550 C   0  0  0  0  0  2  0  0  0  0  0  0
  192.5790  176.9900  139.3540 C   0  0  0  0  0  2  0  0  0  0  0  0
  193.8540  176.5360  138.8190 N   0  0  0  0  0  2  0  0  0  0  0  0
  194.2980  176.5020  136.1830 O   0  0  0  0  0  0  0  0  0  0  0  0
  193.5300  175.7840  137.2690 P   0  0  2  0  0  0  0  0  0  0  0  0
  191.8740  175.8680  136.9280 O   0  0  0  0  0  1  0  0  0  0  0  0
  194.0590  174.0400  137.3180 C   0  0  1  0  0  3  0  0  0  0  0  0
  194.1730  173.5690  136.0090 O   0  0  0  0  0  1  0  0  0  0  0  0
  195.3930  173.8790  138.0630 C   0  0  1  0  0  3  0  0  0  0  0  0
  195.3790  172.7220  138.8440 O   0  0  0  0  0  1  0  0  0  0  0  0
  197.3860  172.5340  137.2480 C   0  0  0  0  0  1  0  0  0  0  0  0
  196.6210  173.8430  137.1420 C   0  0  2  0  0  3  0  0  0  0  0  0
  197.8540  175.7880  136.1780 O   0  0  0  0  0  0  0  0  0  0  0  0
  197.9460  175.3780  138.4290 O   0  0  0  0  0  1  0  0  0  0  0  0
  197.5210  175.0340  137.2940 C   0  0  0  0  0  0  0  0  0  0  0  0
  186.7110  177.0030  144.5430 C   0  0  0  0  0  2  0  0  0  0  0  0
  185.7700  176.9840  143.5010 O   0  0  0  0  0  0  0  0  0  0  0  0
  184.4790  180.3380  144.4700 C   0  0  0  0  0  1  0  0  0  0  0  0
  182.5140  178.7830  142.7330 N   0  0  0  0  0  0  0  0  0  0  0  0
  182.9110  178.4310  144.0930 C   0  0  0  0  0  2  0  0  0  0  0  0
  181.1380  179.1780  142.4860 C   0  0  0  0  0  1  0  0  0  0  0  0
  184.3610  178.8290  144.3680 C   0  0  1  0  0  3  0  0  0  0  0  0
  185.3030  178.2980  143.2710 C   0  0  2  0  0  3  0  0  0  0  0  0
  183.4570  178.6790  141.6590 C   0  0  0  0  0  0  0  0  0  0  0  0
  184.8110  178.4820  141.9370 O   0  0  0  0  0  0  0  0  0  0  0  0
  183.0820  178.8090  140.4630 O   0  0  0  0  0  0  0  0  0  0  0  0
  1  6  2  0  0  0  0
  2  1  1  0  0  0  0
  3  1  1  0  0  0  0
  4 40  1  0  0  0  0
  4 17  1  0  0  0  0
  5  2  1  0  0  0  0
  6  4  2  0  0  0  0
  7  5  2  0  0  0  0
  7  3  1  0  0  0  0
  9  8  1  6  0  0  0
  9  7  1  0  0  0  0
 10  9  1  0  0  0  0
 10 13  1  0  0  0  0
 11 12  1  0  0  0  0
 11 14  1  0  0  0  0
 12 10  1  0  0  0  0
 14 15  1  0  0  0  0
 15 13  1  0  0  0  0
 16 17  2  0  0  0  0
 16 18  1  0  0  0  0
 17 21  1  0  0  0  0
 18 19  1  0  0  0  0
 21 20  1  0  0  0  0
 22 16  1  0  0  0  0
 23 24  3  0  0  0  0
 24 22  1  0  0  0  0
 25 23  1  0  0  0  0
 26 25  1  0  0  0  0
 27 26  1  0  0  0  0
 29 28  2  6  0  0  0
 29 31  1  0  0  0  0
 29 27  1  0  0  0  0
 30 29  1  0  0  0  0
 31 32  1  6  0  0  0
 31 33  1  0  0  0  0
 33 34  1  6  0  0  0
 36 35  1  1  0  0  0
 36 39  1  0  0  0  0
 36 33  1  0  0  0  0
 37 39  2  0  0  0  0
 39 38  1  0  0  0  0
 41 40  1  0  0  0  0
 43 44  1  0  0  0  0
 44 46  1  0  0  0  0
 45 43  1  0  0  0  0
 46 42  1  6  0  0  0
 47 41  1  1  0  0  0
 47 46  1  0  0  0  0
 48 49  1  0  0  0  0
 48 43  1  0  0  0  0
 49 47  1  0  0  0  0
 50 48  2  0  0  0  0
M  END
>  <MODEL>
9

>  <REMARK>
 VINA RESULT:      -6.2      3.238     10.670
  Name = 
  18 active torsions:
  status: ('A' for Active; 'I' for Inactive)
    1  A    between atoms: O_1  and  C_10
    2  A    between atoms: O_1  and  C_34
    3  A    between atoms: O_2  and  C_13
    4  A    between atoms: C_3  and  C_42
    5  A    between atoms: C_5  and  C_8
    6  A    between atoms: C_5  and  C_27
    7  A    between atoms: C_8  and  P_36
    8  A    between atoms: C_9  and  C_37
    9  A    between atoms: C_10  and  C_32
   10  A    between atoms: C_13  and  C_35
   11  A    between atoms: N_18  and  P_36
   12  A    between atoms: N_18  and  C_43
   13  A    between atoms: C_26  and  C_32
   14  A    between atoms: C_26  and  N_41
   15  A    between atoms: C_27  and  C_40
   16  A    between atoms: C_30  and  C_35
   17  A    between atoms: C_37  and  C_43
   18  A    between atoms: C_42  and  C_49
                            x       y       z     vdW  Elec       q    Type
                         _______ _______ _______ _____ _____    ______ ____

>  <TORSDO>
F 18

$$$$
