=
 OpenBabel10232410023D

 28 30  0  0  1  0  0  0  0  0999 V2000
  189.0930  178.1830  141.6780 N   0  0  0  0  0  2  0  0  0  0  0  0
  190.7560  179.4180  143.4780 F   0  0  0  0  0  0  0  0  0  0  0  0
  189.9800  178.3820  143.8860 C   0  0  0  0  0  3  0  0  0  0  0  0
  189.1640  177.7620  143.0430 C   0  0  0  0  0  0  0  0  0  0  0  0
  188.1670  176.3960  143.6430 S   0  0  0  0  0  0  0  0  0  0  0  0
  185.4120  179.5750  141.5650 N   0  0  0  0  0  1  0  0  0  0  0  0
  184.4490  179.5460  143.8500 N   0  0  0  0  0  2  0  0  0  0  0  0
  186.1290  178.1090  143.2610 C   0  0  0  0  0  0  0  0  0  0  0  0
  187.6650  177.6600  146.5560 C   0  0  0  0  0  1  0  0  0  0  0  0
  185.2490  178.9420  142.8280 C   0  0  0  0  0  0  0  0  0  0  0  0
  186.8210  177.4690  144.1410 C   0  0  0  0  0  0  0  0  0  0  0  0
  185.5010  178.5920  145.9500 C   0  0  0  0  0  3  0  0  0  0  0  0
  184.2300  178.8850  145.1520 C   0  0  0  0  0  2  0  0  0  0  0  0
  186.5990  177.9030  145.5450 C   0  0  0  0  0  0  0  0  0  0  0  0
  188.6340  177.3310  140.6610 N   0  0  0  0  0  2  0  0  0  0  0  0
  188.3400  178.1540  138.2850 C   0  0  2  0  0  3  0  0  0  0  0  0
  189.2420  177.7480  139.3960 C   0  0  1  0  0  0  0  0  0  0  0  0
  189.0110  179.1020  139.0920 O   0  0  0  0  0  0  0  0  0  0  0  0
  190.8560  176.6170  137.8470 C   0  0  0  0  0  3  0  0  0  0  0  0
  194.4540  175.8570  138.1440 O   0  0  0  0  0  1  0  0  0  0  0  0
  193.1840  176.3260  138.4500 C   0  0  0  0  0  0  0  0  0  0  0  0
  191.6710  177.4450  139.9730 C   0  0  0  0  0  3  0  0  0  0  0  0
  192.1360  176.1470  137.5400 C   0  0  0  0  0  3  0  0  0  0  0  0
  190.6200  177.2740  139.0610 C   0  0  0  0  0  0  0  0  0  0  0  0
  192.9510  176.9730  139.6660 C   0  0  0  0  0  3  0  0  0  0  0  0
  186.8670  178.1290  138.6650 C   0  0  0  0  0  2  0  0  0  0  0  0
  186.8510  178.0130  136.1990 C   0  0  0  0  0  1  0  0  0  0  0  0
  186.0320  177.7840  137.4510 C   0  0  0  0  0  2  0  0  0  0  0  0
  1  4  1  0  0  0  0
  2  3  1  0  0  0  0
  4  5  1  0  0  0  0
  4  3  2  0  0  0  0
  5 11  1  0  0  0  0
  6 10  1  0  0  0  0
  7 13  1  0  0  0  0
  8 11  2  0  0  0  0
 10  8  2  0  0  0  0
 10  7  1  0  0  0  0
 11 14  1  0  0  0  0
 13 12  1  0  0  0  0
 14 12  2  0  0  0  0
 14  9  1  0  0  0  0
 15  1  1  0  0  0  0
 16 26  1  1  0  0  0
 16 18  1  0  0  0  0
 16 17  1  0  0  0  0
 17 15  1  1  0  0  0
 18 17  1  0  0  0  0
 19 24  1  0  0  0  0
 20 21  1  0  0  0  0
 21 25  2  0  0  0  0
 23 19  2  0  0  0  0
 23 21  1  0  0  0  0
 24 17  1  0  0  0  0
 24 22  2  0  0  0  0
 25 22  1  0  0  0  0
 27 28  1  0  0  0  0
 28 26  1  0  0  0  0
M  END
>  <MODEL>
1

>  <REMARK>
 VINA RESULT:      -7.8      0.000      0.000
  Name = 
  8 active torsions:
  status: ('A' for Active; 'I' for Inactive)
    1  A    between atoms: C_3  and  C_5
    2  A    between atoms: C_3  and  C_23
    3  A    between atoms: C_9  and  N_16
    4  A    between atoms: C_9  and  C_20
    5  A    between atoms: N_15  and  N_16
    6  A    between atoms: N_15  and  C_28
    7  A    between atoms: S_19  and  C_22
    8  A    between atoms: S_19  and  C_28
                            x       y       z     vdW  Elec       q    Type
                         _______ _______ _______ _____ _____    ______ ____

>  <TORSDO>
F 8

$$$$
=
 OpenBabel10232410023D

 28 30  0  0  1  0  0  0  0  0999 V2000
  189.2860  177.1400  141.6960 N   0  0  0  0  0  2  0  0  0  0  0  0
  192.0140  177.0540  141.9780 F   0  0  0  0  0  0  0  0  0  0  0  0
  191.4760  177.4580  140.8000 C   0  0  0  0  0  3  0  0  0  0  0  0
  190.1620  177.5110  140.6280 C   0  0  0  0  0  0  0  0  0  0  0  0
  189.5130  178.0580  139.0460 S   0  0  0  0  0  0  0  0  0  0  0  0
  193.6130  176.6770  137.2290 N   0  0  0  0  0  1  0  0  0  0  0  0
  192.2190  174.6680  136.8160 N   0  0  0  0  0  2  0  0  0  0  0  0
  191.3910  176.4580  137.9760 C   0  0  0  0  0  0  0  0  0  0  0  0
  187.8440  176.0710  137.1500 C   0  0  0  0  0  1  0  0  0  0  0  0
  192.4510  175.9040  137.5010 C   0  0  0  0  0  0  0  0  0  0  0  0
  190.1290  176.6130  138.1830 C   0  0  0  0  0  0  0  0  0  0  0  0
  189.6900  174.5070  136.9000 C   0  0  0  0  0  3  0  0  0  0  0  0
  191.0430  173.8280  137.1150 C   0  0  0  0  0  2  0  0  0  0  0  0
  189.2520  175.6790  137.4300 C   0  0  0  0  0  0  0  0  0  0  0  0
  188.8970  178.0530  142.6890 N   0  0  0  0  0  2  0  0  0  0  0  0
  187.0300  177.2460  144.1950 C   0  0  2  0  0  3  0  0  0  0  0  0
  188.4810  177.3010  143.8740 C   0  0  1  0  0  0  0  0  0  0  0  0
  187.7000  176.1720  143.5660 O   0  0  0  0  0  0  0  0  0  0  0  0
  189.0820  177.2820  146.3080 C   0  0  0  0  0  3  0  0  0  0  0  0
  192.2370  176.5510  148.0740 O   0  0  0  0  0  1  0  0  0  0  0  0
  191.3200  176.7260  147.0470 C   0  0  0  0  0  0  0  0  0  0  0  0
  190.7870  176.7090  144.6860 C   0  0  0  0  0  3  0  0  0  0  0  0
  190.0060  177.1030  147.3420 C   0  0  0  0  0  3  0  0  0  0  0  0
  189.4670  177.0780  144.9770 C   0  0  0  0  0  0  0  0  0  0  0  0
  191.7110  176.5310  145.7200 C   0  0  0  0  0  3  0  0  0  0  0  0
  186.1590  177.9590  143.1720 C   0  0  0  0  0  2  0  0  0  0  0  0
  185.2490  178.7260  145.3350 C   0  0  0  0  0  1  0  0  0  0  0  0
  184.9530  178.5620  143.8590 C   0  0  0  0  0  2  0  0  0  0  0  0
  1 15  1  0  0  0  0
  3  2  1  0  0  0  0
  4  3  2  0  0  0  0
  4  1  1  0  0  0  0
  5  4  1  0  0  0  0
  6 10  1  0  0  0  0
  7 13  1  0  0  0  0
  7 10  1  0  0  0  0
  8 11  2  0  0  0  0
  9 14  1  0  0  0  0
 10  8  2  0  0  0  0
 11  5  1  0  0  0  0
 12 13  1  0  0  0  0
 12 14  2  0  0  0  0
 14 11  1  0  0  0  0
 16 26  1  6  0  0  0
 17 15  1  6  0  0  0
 17 16  1  0  0  0  0
 17 24  1  0  0  0  0
 18 17  1  0  0  0  0
 18 16  1  0  0  0  0
 19 23  1  0  0  0  0
 21 23  2  0  0  0  0
 21 20  1  0  0  0  0
 22 24  1  0  0  0  0
 22 25  2  0  0  0  0
 24 19  2  0  0  0  0
 25 21  1  0  0  0  0
 26 28  1  0  0  0  0
 28 27  1  0  0  0  0
M  END
>  <MODEL>
2

>  <REMARK>
 VINA RESULT:      -7.7      3.313      7.561
  Name = 
  8 active torsions:
  status: ('A' for Active; 'I' for Inactive)
    1  A    between atoms: C_3  and  C_5
    2  A    between atoms: C_3  and  C_23
    3  A    between atoms: C_9  and  N_16
    4  A    between atoms: C_9  and  C_20
    5  A    between atoms: N_15  and  N_16
    6  A    between atoms: N_15  and  C_28
    7  A    between atoms: S_19  and  C_22
    8  A    between atoms: S_19  and  C_28
                            x       y       z     vdW  Elec       q    Type
                         _______ _______ _______ _____ _____    ______ ____

>  <TORSDO>
F 8

$$$$
=
 OpenBabel10232410023D

 28 30  0  0  1  0  0  0  0  0999 V2000
  188.8050  177.2920  141.5520 N   0  0  0  0  0  2  0  0  0  0  0  0
  191.4430  176.5390  141.5210 F   0  0  0  0  0  0  0  0  0  0  0  0
  190.9310  177.2210  140.4670 C   0  0  0  0  0  3  0  0  0  0  0  0
  189.6590  177.6010  140.4470 C   0  0  0  0  0  0  0  0  0  0  0  0
  189.0430  178.5040  139.0250 S   0  0  0  0  0  0  0  0  0  0  0  0
  191.2020  174.8620  137.0030 N   0  0  0  0  0  1  0  0  0  0  0  0
  188.8270  174.2020  136.7370 N   0  0  0  0  0  2  0  0  0  0  0  0
  189.4020  176.0920  137.8900 C   0  0  0  0  0  0  0  0  0  0  0  0
  186.3710  178.0610  137.2940 C   0  0  0  0  0  1  0  0  0  0  0  0
  189.8350  174.9980  137.3690 C   0  0  0  0  0  0  0  0  0  0  0  0
  188.5420  177.0110  138.1700 C   0  0  0  0  0  0  0  0  0  0  0  0
  186.7830  175.6840  136.9790 C   0  0  0  0  0  3  0  0  0  0  0  0
  187.4070  174.2960  137.1320 C   0  0  0  0  0  2  0  0  0  0  0  0
  187.2250  176.8580  137.4990 C   0  0  0  0  0  0  0  0  0  0  0  0
  188.6170  178.1860  142.6180 N   0  0  0  0  0  2  0  0  0  0  0  0
  186.8340  177.3200  144.1930 C   0  0  2  0  0  3  0  0  0  0  0  0
  188.2690  177.4160  143.8140 C   0  0  1  0  0  0  0  0  0  0  0  0
  187.5080  176.2680  143.5290 O   0  0  0  0  0  0  0  0  0  0  0  0
  190.6150  176.8740  144.5160 C   0  0  0  0  0  3  0  0  0  0  0  0
  192.1930  176.5530  147.8360 O   0  0  0  0  0  1  0  0  0  0  0  0
  191.2350  176.7710  146.8550 C   0  0  0  0  0  0  0  0  0  0  0  0
  188.9610  177.3200  146.2300 C   0  0  0  0  0  3  0  0  0  0  0  0
  191.5790  176.6560  145.5040 C   0  0  0  0  0  3  0  0  0  0  0  0
  189.3040  177.2140  144.8750 C   0  0  0  0  0  0  0  0  0  0  0  0
  189.9260  177.1010  147.2180 C   0  0  0  0  0  3  0  0  0  0  0  0
  185.9040  178.0150  143.2100 C   0  0  0  0  0  2  0  0  0  0  0  0
  185.1760  178.7660  145.4460 C   0  0  0  0  0  1  0  0  0  0  0  0
  184.8550  178.7990  143.9680 C   0  0  0  0  0  2  0  0  0  0  0  0
  1 15  1  0  0  0  0
  3  2  1  0  0  0  0
  4  3  2  0  0  0  0
  4  1  1  0  0  0  0
  5  4  1  0  0  0  0
  6 10  1  0  0  0  0
  7 13  1  0  0  0  0
  7 10  1  0  0  0  0
  8 11  2  0  0  0  0
  9 14  1  0  0  0  0
 10  8  2  0  0  0  0
 11  5  1  0  0  0  0
 12 13  1  0  0  0  0
 12 14  2  0  0  0  0
 14 11  1  0  0  0  0
 16 26  1  6  0  0  0
 17 15  1  6  0  0  0
 17 16  1  0  0  0  0
 17 24  1  0  0  0  0
 18 17  1  0  0  0  0
 18 16  1  0  0  0  0
 19 24  2  0  0  0  0
 19 23  1  0  0  0  0
 21 25  1  0  0  0  0
 21 20  1  0  0  0  0
 22 25  2  0  0  0  0
 23 21  2  0  0  0  0
 24 22  1  0  0  0  0
 26 28  1  0  0  0  0
 28 27  1  0  0  0  0
M  END
>  <MODEL>
3

>  <REMARK>
 VINA RESULT:      -7.6      3.192      7.081
  Name = 
  8 active torsions:
  status: ('A' for Active; 'I' for Inactive)
    1  A    between atoms: C_3  and  C_5
    2  A    between atoms: C_3  and  C_23
    3  A    between atoms: C_9  and  N_16
    4  A    between atoms: C_9  and  C_20
    5  A    between atoms: N_15  and  N_16
    6  A    between atoms: N_15  and  C_28
    7  A    between atoms: S_19  and  C_22
    8  A    between atoms: S_19  and  C_28
                            x       y       z     vdW  Elec       q    Type
                         _______ _______ _______ _____ _____    ______ ____

>  <TORSDO>
F 8

$$$$
=
 OpenBabel10232410023D

 28 30  0  0  1  0  0  0  0  0999 V2000
  188.5690  177.2860  141.8490 N   0  0  0  0  0  2  0  0  0  0  0  0
  186.4220  178.4290  140.5770 F   0  0  0  0  0  0  0  0  0  0  0  0
  187.5990  178.2980  139.9150 C   0  0  0  0  0  3  0  0  0  0  0  0
  188.6580  177.7510  140.4990 C   0  0  0  0  0  0  0  0  0  0  0  0
  190.1840  177.6020  139.5670 S   0  0  0  0  0  0  0  0  0  0  0  0
  190.2080  173.5420  137.2140 N   0  0  0  0  0  1  0  0  0  0  0  0
  188.4630  174.7920  135.9720 N   0  0  0  0  0  2  0  0  0  0  0  0
  189.4430  175.6790  137.8380 C   0  0  0  0  0  0  0  0  0  0  0  0
  189.0970  179.2330  137.0200 C   0  0  0  0  0  1  0  0  0  0  0  0
  189.2770  174.6140  137.1360 C   0  0  0  0  0  0  0  0  0  0  0  0
  189.3550  176.9320  138.1270 C   0  0  0  0  0  0  0  0  0  0  0  0
  188.0160  177.2870  136.0400 C   0  0  0  0  0  3  0  0  0  0  0  0
  187.4590  175.8700  135.8870 C   0  0  0  0  0  2  0  0  0  0  0  0
  188.7710  177.7800  137.0540 C   0  0  0  0  0  0  0  0  0  0  0  0
  188.5160  178.1720  142.9370 N   0  0  0  0  0  2  0  0  0  0  0  0
  186.8230  177.3460  144.6270 C   0  0  2  0  0  3  0  0  0  0  0  0
  188.2300  177.4030  144.1490 C   0  0  1  0  0  0  0  0  0  0  0  0
  187.4170  176.2800  143.9110 O   0  0  0  0  0  0  0  0  0  0  0  0
  190.6010  176.7830  144.6820 C   0  0  0  0  0  3  0  0  0  0  0  0
  192.3980  176.3920  147.8800 O   0  0  0  0  0  1  0  0  0  0  0  0
  191.3810  176.6460  146.9710 C   0  0  0  0  0  0  0  0  0  0  0  0
  189.0870  177.2690  146.5100 C   0  0  0  0  0  3  0  0  0  0  0  0
  191.6250  176.5290  145.5980 C   0  0  0  0  0  3  0  0  0  0  0  0
  189.3300  177.1620  145.1340 C   0  0  0  0  0  0  0  0  0  0  0  0
  190.1120  177.0140  147.4260 C   0  0  0  0  0  3  0  0  0  0  0  0
  185.8470  178.0750  143.7160 C   0  0  0  0  0  2  0  0  0  0  0  0
  185.0450  178.6160  145.9880 C   0  0  0  0  0  1  0  0  0  0  0  0
  185.0040  179.0310  144.5330 C   0  0  0  0  0  2  0  0  0  0  0  0
  1 15  1  0  0  0  0
  3  4  2  0  0  0  0
  3  2  1  0  0  0  0
  4  1  1  0  0  0  0
  5  4  1  0  0  0  0
  7 10  1  0  0  0  0
  8 11  2  0  0  0  0
  9 14  1  0  0  0  0
 10  6  1  0  0  0  0
 10  8  2  0  0  0  0
 11  5  1  0  0  0  0
 12 14  2  0  0  0  0
 13  7  1  0  0  0  0
 13 12  1  0  0  0  0
 14 11  1  0  0  0  0
 16 26  1  6  0  0  0
 17 15  1  6  0  0  0
 17 16  1  0  0  0  0
 17 24  1  0  0  0  0
 18 17  1  0  0  0  0
 18 16  1  0  0  0  0
 19 24  2  0  0  0  0
 19 23  1  0  0  0  0
 21 25  1  0  0  0  0
 21 20  1  0  0  0  0
 22 25  2  0  0  0  0
 23 21  2  0  0  0  0
 24 22  1  0  0  0  0
 26 28  1  0  0  0  0
 28 27  1  0  0  0  0
M  END
>  <MODEL>
4

>  <REMARK>
 VINA RESULT:      -7.5      3.338      7.387
  Name = 
  8 active torsions:
  status: ('A' for Active; 'I' for Inactive)
    1  A    between atoms: C_3  and  C_5
    2  A    between atoms: C_3  and  C_23
    3  A    between atoms: C_9  and  N_16
    4  A    between atoms: C_9  and  C_20
    5  A    between atoms: N_15  and  N_16
    6  A    between atoms: N_15  and  C_28
    7  A    between atoms: S_19  and  C_22
    8  A    between atoms: S_19  and  C_28
                            x       y       z     vdW  Elec       q    Type
                         _______ _______ _______ _____ _____    ______ ____

>  <TORSDO>
F 8

$$$$
=
 OpenBabel10232410023D

 28 30  0  0  1  0  0  0  0  0999 V2000
  188.3540  177.6500  141.4400 N   0  0  0  0  0  2  0  0  0  0  0  0
  190.3130  175.7900  141.9200 F   0  0  0  0  0  0  0  0  0  0  0  0
  190.3670  176.5420  140.7930 C   0  0  0  0  0  3  0  0  0  0  0  0
  189.4370  177.4500  140.5280 C   0  0  0  0  0  0  0  0  0  0  0  0
  189.5680  178.4150  139.0210 S   0  0  0  0  0  0  0  0  0  0  0  0
  185.0050  179.0600  139.9030 N   0  0  0  0  0  1  0  0  0  0  0  0
  184.8920  177.5150  137.9670 N   0  0  0  0  0  2  0  0  0  0  0  0
  186.8980  178.3230  138.7130 C   0  0  0  0  0  0  0  0  0  0  0  0
  189.0450  175.5430  137.6770 C   0  0  0  0  0  1  0  0  0  0  0  0
  185.6180  178.4450  138.7770 C   0  0  0  0  0  0  0  0  0  0  0  0
  188.0200  177.7900  138.3700 C   0  0  0  0  0  0  0  0  0  0  0  0
  186.7660  176.0880  137.0270 C   0  0  0  0  0  3  0  0  0  0  0  0
  185.4950  176.8990  136.7680 C   0  0  0  0  0  2  0  0  0  0  0  0
  187.9020  176.4960  137.6490 C   0  0  0  0  0  0  0  0  0  0  0  0
  188.4870  178.4490  142.5880 N   0  0  0  0  0  2  0  0  0  0  0  0
  186.7200  177.5700  144.1710 C   0  0  2  0  0  3  0  0  0  0  0  0
  188.1470  177.6390  143.7590 C   0  0  1  0  0  0  0  0  0  0  0  0
  187.3440  176.5270  143.4470 O   0  0  0  0  0  0  0  0  0  0  0  0
  188.8510  177.2600  146.1350 C   0  0  0  0  0  3  0  0  0  0  0  0
  192.1530  176.6810  147.6760 O   0  0  0  0  0  1  0  0  0  0  0  0
  191.1760  176.9080  146.7170 C   0  0  0  0  0  0  0  0  0  0  0  0
  190.5460  177.2490  144.4040 C   0  0  0  0  0  3  0  0  0  0  0  0
  189.8360  177.0300  147.1000 C   0  0  0  0  0  3  0  0  0  0  0  0
  189.2020  177.3630  144.7830 C   0  0  0  0  0  0  0  0  0  0  0  0
  191.5310  177.0190  145.3700 C   0  0  0  0  0  3  0  0  0  0  0  0
  185.7860  178.3320  143.2430 C   0  0  0  0  0  2  0  0  0  0  0  0
  184.6630  178.8310  145.3840 C   0  0  0  0  0  1  0  0  0  0  0  0
  184.4450  178.5290  143.9170 C   0  0  0  0  0  2  0  0  0  0  0  0
  1 15  1  0  0  0  0
  3  2  1  0  0  0  0
  4  3  2  0  0  0  0
  4  1  1  0  0  0  0
  5  4  1  0  0  0  0
  7 10  1  0  0  0  0
  8 10  2  0  0  0  0
 10  6  1  0  0  0  0
 11  8  2  0  0  0  0
 11  5  1  0  0  0  0
 12 14  2  0  0  0  0
 13 12  1  0  0  0  0
 13  7  1  0  0  0  0
 14  9  1  0  0  0  0
 14 11  1  0  0  0  0
 16 26  1  6  0  0  0
 17 15  1  6  0  0  0
 17 16  1  0  0  0  0
 17 24  1  0  0  0  0
 18 17  1  0  0  0  0
 18 16  1  0  0  0  0
 19 23  1  0  0  0  0
 21 23  2  0  0  0  0
 21 20  1  0  0  0  0
 22 24  1  0  0  0  0
 22 25  2  0  0  0  0
 24 19  2  0  0  0  0
 25 21  1  0  0  0  0
 26 28  1  0  0  0  0
 28 27  1  0  0  0  0
M  END
>  <MODEL>
5

>  <REMARK>
 VINA RESULT:      -7.3      2.906      6.469
  Name = 
  8 active torsions:
  status: ('A' for Active; 'I' for Inactive)
    1  A    between atoms: C_3  and  C_5
    2  A    between atoms: C_3  and  C_23
    3  A    between atoms: C_9  and  N_16
    4  A    between atoms: C_9  and  C_20
    5  A    between atoms: N_15  and  N_16
    6  A    between atoms: N_15  and  C_28
    7  A    between atoms: S_19  and  C_22
    8  A    between atoms: S_19  and  C_28
                            x       y       z     vdW  Elec       q    Type
                         _______ _______ _______ _____ _____    ______ ____

>  <TORSDO>
F 8

$$$$
=
 OpenBabel10232410023D

 28 30  0  0  1  0  0  0  0  0999 V2000
  188.5420  176.4330  142.5400 N   0  0  0  0  0  2  0  0  0  0  0  0
  190.4030  174.6180  143.4180 F   0  0  0  0  0  0  0  0  0  0  0  0
  190.8100  175.7080  142.7200 C   0  0  0  0  0  3  0  0  0  0  0  0
  189.9380  176.6060  142.2800 C   0  0  0  0  0  0  0  0  0  0  0  0
  190.5400  178.0290  141.3670 S   0  0  0  0  0  0  0  0  0  0  0  0
  193.4190  176.6630  137.9220 N   0  0  0  0  0  1  0  0  0  0  0  0
  191.2480  175.8080  137.0820 N   0  0  0  0  0  2  0  0  0  0  0  0
  191.4080  176.7960  139.1390 C   0  0  0  0  0  0  0  0  0  0  0  0
  187.9990  178.1090  139.4010 C   0  0  0  0  0  1  0  0  0  0  0  0
  192.0640  176.2950  138.1520 C   0  0  0  0  0  0  0  0  0  0  0  0
  190.3700  177.2070  139.7830 C   0  0  0  0  0  0  0  0  0  0  0  0
  188.9290  176.4570  137.8770 C   0  0  0  0  0  3  0  0  0  0  0  0
  189.8530  175.3800  137.3080 C   0  0  0  0  0  2  0  0  0  0  0  0
  189.1060  177.1980  139.0010 C   0  0  0  0  0  0  0  0  0  0  0  0
  188.0520  176.1940  143.8340 N   0  0  0  0  0  2  0  0  0  0  0  0
  188.3640  177.9830  145.5960 C   0  0  2  0  0  3  0  0  0  0  0  0
  187.6250  177.4690  144.4120 C   0  0  1  0  0  0  0  0  0  0  0  0
  188.5940  178.4810  144.2930 O   0  0  0  0  0  0  0  0  0  0  0  0
  185.7280  178.0560  142.8810 C   0  0  0  0  0  3  0  0  0  0  0  0
  182.3280  179.3330  143.5290 O   0  0  0  0  0  1  0  0  0  0  0  0
  183.6190  178.8720  143.7480 C   0  0  0  0  0  0  0  0  0  0  0  0
  185.4120  178.2980  145.2710 C   0  0  0  0  0  3  0  0  0  0  0  0
  184.4280  178.5190  142.6620 C   0  0  0  0  0  3  0  0  0  0  0  0
  186.2220  177.9360  144.1860 C   0  0  0  0  0  0  0  0  0  0  0  0
  184.1110  178.7630  145.0510 C   0  0  0  0  0  3  0  0  0  0  0  0
  189.5340  177.1010  146.0070 C   0  0  0  0  0  2  0  0  0  0  0  0
  188.3330  177.5840  148.1090 C   0  0  0  0  0  1  0  0  0  0  0  0
  189.6050  177.0180  147.5160 C   0  0  0  0  0  2  0  0  0  0  0  0
  1 15  1  0  0  0  0
  3  2  1  0  0  0  0
  4  1  1  0  0  0  0
  4  3  2  0  0  0  0
  5  4  1  0  0  0  0
  6 10  1  0  0  0  0
  7 13  1  0  0  0  0
  7 10  1  0  0  0  0
  8 11  2  0  0  0  0
 10  8  2  0  0  0  0
 11  5  1  0  0  0  0
 12 14  2  0  0  0  0
 13 12  1  0  0  0  0
 14  9  1  0  0  0  0
 14 11  1  0  0  0  0
 16 26  1  6  0  0  0
 17 15  1  6  0  0  0
 17 16  1  0  0  0  0
 18 17  1  0  0  0  0
 18 16  1  0  0  0  0
 19 24  1  0  0  0  0
 20 21  1  0  0  0  0
 21 25  2  0  0  0  0
 23 19  2  0  0  0  0
 23 21  1  0  0  0  0
 24 17  1  0  0  0  0
 24 22  2  0  0  0  0
 25 22  1  0  0  0  0
 26 28  1  0  0  0  0
 28 27  1  0  0  0  0
M  END
>  <MODEL>
6

>  <REMARK>
 VINA RESULT:      -7.2      2.923      8.042
  Name = 
  8 active torsions:
  status: ('A' for Active; 'I' for Inactive)
    1  A    between atoms: C_3  and  C_5
    2  A    between atoms: C_3  and  C_23
    3  A    between atoms: C_9  and  N_16
    4  A    between atoms: C_9  and  C_20
    5  A    between atoms: N_15  and  N_16
    6  A    between atoms: N_15  and  C_28
    7  A    between atoms: S_19  and  C_22
    8  A    between atoms: S_19  and  C_28
                            x       y       z     vdW  Elec       q    Type
                         _______ _______ _______ _____ _____    ______ ____

>  <TORSDO>
F 8

$$$$
=
 OpenBabel10232410023D

 28 30  0  0  1  0  0  0  0  0999 V2000
  190.4870  176.4700  141.4500 N   0  0  0  0  0  2  0  0  0  0  0  0
  191.2080  174.6250  143.3500 F   0  0  0  0  0  0  0  0  0  0  0  0
  191.0020  175.9150  143.7150 C   0  0  0  0  0  3  0  0  0  0  0  0
  190.6530  176.8340  142.8240 C   0  0  0  0  0  0  0  0  0  0  0  0
  190.3900  178.5220  143.3720 S   0  0  0  0  0  0  0  0  0  0  0  0
  191.1040  176.5020  147.5470 N   0  0  0  0  0  1  0  0  0  0  0  0
  188.6630  176.9290  147.6460 N   0  0  0  0  0  2  0  0  0  0  0  0
  189.9140  177.6500  145.8710 C   0  0  0  0  0  0  0  0  0  0  0  0
  187.3150  177.5900  143.2900 C   0  0  0  0  0  1  0  0  0  0  0  0
  189.9490  177.1800  147.0680 C   0  0  0  0  0  0  0  0  0  0  0  0
  189.3750  178.0180  144.7590 C   0  0  0  0  0  0  0  0  0  0  0  0
  187.1200  177.4870  145.7130 C   0  0  0  0  0  3  0  0  0  0  0  0
  187.4590  177.6530  147.1950 C   0  0  0  0  0  2  0  0  0  0  0  0
  187.9220  177.7250  144.6430 C   0  0  0  0  0  0  0  0  0  0  0  0
  191.1650  177.1370  140.4180 N   0  0  0  0  0  2  0  0  0  0  0  0
  191.4910  176.4380  138.0070 C   0  0  2  0  0  3  0  0  0  0  0  0
  190.5740  176.7370  139.1400 C   0  0  1  0  0  0  0  0  0  0  0  0
  190.8880  175.4150  138.7760 O   0  0  0  0  0  0  0  0  0  0  0  0
  188.5200  178.0870  139.6340 C   0  0  0  0  0  3  0  0  0  0  0  0
  185.1900  178.1980  138.0490 O   0  0  0  0  0  1  0  0  0  0  0  0
  186.5070  177.8440  138.3090 C   0  0  0  0  0  0  0  0  0  0  0  0
  188.4710  176.5330  137.7760 C   0  0  0  0  0  3  0  0  0  0  0  0
  187.1940  178.4430  139.3700 C   0  0  0  0  0  3  0  0  0  0  0  0
  189.1650  177.1360  138.8340 C   0  0  0  0  0  0  0  0  0  0  0  0
  187.1440  176.8880  137.5140 C   0  0  0  0  0  3  0  0  0  0  0  0
  192.9620  176.5400  138.3790 C   0  0  0  0  0  2  0  0  0  0  0  0
  194.3030  174.5360  137.8490 C   0  0  0  0  0  1  0  0  0  0  0  0
  193.8040  175.8640  137.3200 C   0  0  0  0  0  2  0  0  0  0  0  0
  1  4  1  0  0  0  0
  2  3  1  0  0  0  0
  4  5  1  0  0  0  0
  4  3  2  0  0  0  0
  5 11  1  0  0  0  0
  8 10  2  0  0  0  0
  9 14  1  0  0  0  0
 10  6  1  0  0  0  0
 10  7  1  0  0  0  0
 11  8  2  0  0  0  0
 12 13  1  0  0  0  0
 13  7  1  0  0  0  0
 14 11  1  0  0  0  0
 14 12  2  0  0  0  0
 15  1  1  0  0  0  0
 16 26  1  1  0  0  0
 16 18  1  0  0  0  0
 16 17  1  0  0  0  0
 17 15  1  1  0  0  0
 18 17  1  0  0  0  0
 20 21  1  0  0  0  0
 21 23  2  0  0  0  0
 22 24  1  0  0  0  0
 23 19  1  0  0  0  0
 24 17  1  0  0  0  0
 24 19  2  0  0  0  0
 25 22  2  0  0  0  0
 25 21  1  0  0  0  0
 28 27  1  0  0  0  0
 28 26  1  0  0  0  0
M  END
>  <MODEL>
7

>  <REMARK>
 VINA RESULT:      -6.9      2.623      5.078
  Name = 
  8 active torsions:
  status: ('A' for Active; 'I' for Inactive)
    1  A    between atoms: C_3  and  C_5
    2  A    between atoms: C_3  and  C_23
    3  A    between atoms: C_9  and  N_16
    4  A    between atoms: C_9  and  C_20
    5  A    between atoms: N_15  and  N_16
    6  A    between atoms: N_15  and  C_28
    7  A    between atoms: S_19  and  C_22
    8  A    between atoms: S_19  and  C_28
                            x       y       z     vdW  Elec       q    Type
                         _______ _______ _______ _____ _____    ______ ____

>  <TORSDO>
F 8

$$$$
=
 OpenBabel10232410023D

 28 30  0  0  1  0  0  0  0  0999 V2000
  189.1910  178.2040  141.5580 N   0  0  0  0  0  2  0  0  0  0  0  0
  190.7670  179.5440  143.3600 F   0  0  0  0  0  0  0  0  0  0  0  0
  190.0430  178.4740  143.7720 C   0  0  0  0  0  3  0  0  0  0  0  0
  189.2690  177.8030  142.9280 C   0  0  0  0  0  0  0  0  0  0  0  0
  188.3390  176.3930  143.5350 S   0  0  0  0  0  0  0  0  0  0  0  0
  187.9850  176.7650  148.1990 N   0  0  0  0  0  1  0  0  0  0  0  0
  186.4540  178.5730  147.4690 N   0  0  0  0  0  2  0  0  0  0  0  0
  187.6740  177.3780  145.9470 C   0  0  0  0  0  0  0  0  0  0  0  0
  185.4230  177.6630  143.0720 C   0  0  0  0  0  1  0  0  0  0  0  0
  187.5170  177.6560  147.1940 C   0  0  0  0  0  0  0  0  0  0  0  0
  187.3960  177.3880  144.6890 C   0  0  0  0  0  0  0  0  0  0  0  0
  185.4650  178.9120  145.1590 C   0  0  0  0  0  3  0  0  0  0  0  0
  185.9830  179.5370  146.4550 C   0  0  0  0  0  2  0  0  0  0  0  0
  186.1070  178.0410  144.3390 C   0  0  0  0  0  0  0  0  0  0  0  0
  188.6590  177.3640  140.5670 N   0  0  0  0  0  2  0  0  0  0  0  0
  188.2490  178.1950  138.2120 C   0  0  2  0  0  3  0  0  0  0  0  0
  189.2040  177.7710  139.2710 C   0  0  1  0  0  0  0  0  0  0  0  0
  188.9820  179.1300  138.9800 O   0  0  0  0  0  0  0  0  0  0  0  0
  190.7260  176.6870  137.5990 C   0  0  0  0  0  3  0  0  0  0  0  0
  194.3010  175.7840  137.7260 O   0  0  0  0  0  1  0  0  0  0  0  0
  193.0590  176.2760  138.1030 C   0  0  0  0  0  0  0  0  0  0  0  0
  191.6370  177.3470  139.7440 C   0  0  0  0  0  3  0  0  0  0  0  0
  191.9770  176.1930  137.2200 C   0  0  0  0  0  3  0  0  0  0  0  0
  190.5530  177.2720  138.8590 C   0  0  0  0  0  0  0  0  0  0  0  0
  192.8880  176.8510  139.3650 C   0  0  0  0  0  3  0  0  0  0  0  0
  186.7990  178.1970  138.6720 C   0  0  0  0  0  2  0  0  0  0  0  0
  186.7350  177.0140  136.5060 C   0  0  0  0  0  1  0  0  0  0  0  0
  185.9040  177.7420  137.5410 C   0  0  0  0  0  2  0  0  0  0  0  0
  1  4  1  0  0  0  0
  2  3  1  0  0  0  0
  4  5  1  0  0  0  0
  4  3  2  0  0  0  0
  5 11  1  0  0  0  0
  8 10  2  0  0  0  0
  9 14  1  0  0  0  0
 10  7  1  0  0  0  0
 10  6  1  0  0  0  0
 11  8  2  0  0  0  0
 12 13  1  0  0  0  0
 13  7  1  0  0  0  0
 14 11  1  0  0  0  0
 14 12  2  0  0  0  0
 15  1  1  0  0  0  0
 16 26  1  1  0  0  0
 16 18  1  0  0  0  0
 16 17  1  0  0  0  0
 17 15  1  1  0  0  0
 18 17  1  0  0  0  0
 19 24  1  0  0  0  0
 20 21  1  0  0  0  0
 21 25  2  0  0  0  0
 23 19  2  0  0  0  0
 23 21  1  0  0  0  0
 24 17  1  0  0  0  0
 24 22  2  0  0  0  0
 25 22  1  0  0  0  0
 27 28  1  0  0  0  0
 28 26  1  0  0  0  0
M  END
>  <MODEL>
8

>  <REMARK>
 VINA RESULT:      -6.8      1.519      2.237
  Name = 
  8 active torsions:
  status: ('A' for Active; 'I' for Inactive)
    1  A    between atoms: C_3  and  C_5
    2  A    between atoms: C_3  and  C_23
    3  A    between atoms: C_9  and  N_16
    4  A    between atoms: C_9  and  C_20
    5  A    between atoms: N_15  and  N_16
    6  A    between atoms: N_15  and  C_28
    7  A    between atoms: S_19  and  C_22
    8  A    between atoms: S_19  and  C_28
                            x       y       z     vdW  Elec       q    Type
                         _______ _______ _______ _____ _____    ______ ____

>  <TORSDO>
F 8

$$$$
=
 OpenBabel10232410023D

 28 30  0  0  1  0  0  0  0  0999 V2000
  188.2520  176.7980  142.0780 N   0  0  0  0  0  2  0  0  0  0  0  0
  190.8630  175.9620  142.2080 F   0  0  0  0  0  0  0  0  0  0  0  0
  190.4870  176.8330  141.2380 C   0  0  0  0  0  3  0  0  0  0  0  0
  189.2340  177.2580  141.1440 C   0  0  0  0  0  0  0  0  0  0  0  0
  188.8020  178.4130  139.8410 S   0  0  0  0  0  0  0  0  0  0  0  0
  191.7310  175.7110  137.3640 N   0  0  0  0  0  1  0  0  0  0  0  0
  189.5380  174.8130  136.6350 N   0  0  0  0  0  2  0  0  0  0  0  0
  189.6710  176.4250  138.2520 C   0  0  0  0  0  0  0  0  0  0  0  0
  186.4280  178.0380  137.7070 C   0  0  0  0  0  1  0  0  0  0  0  0
  190.3300  175.5630  137.5610 C   0  0  0  0  0  0  0  0  0  0  0  0
  188.6460  177.1190  138.6110 C   0  0  0  0  0  0  0  0  0  0  0  0
  187.2610  175.8910  136.9240 C   0  0  0  0  0  3  0  0  0  0  0  0
  188.0910  174.6090  136.8430 C   0  0  0  0  0  2  0  0  0  0  0  0
  187.4460  176.9530  137.7500 C   0  0  0  0  0  0  0  0  0  0  0  0
  188.6060  176.2990  143.3420 N   0  0  0  0  0  2  0  0  0  0  0  0
  189.5080  177.5900  145.3230 C   0  0  2  0  0  3  0  0  0  0  0  0
  188.4240  177.3640  144.3290 C   0  0  1  0  0  0  0  0  0  0  0  0
  189.3490  178.4150  144.1840 O   0  0  0  0  0  0  0  0  0  0  0  0
  186.1370  178.1290  143.6430 C   0  0  0  0  0  3  0  0  0  0  0  0
  183.1830  179.1630  145.5960 O   0  0  0  0  0  1  0  0  0  0  0  0
  184.4610  178.7170  145.2890 C   0  0  0  0  0  0  0  0  0  0  0  0
  186.6480  177.9640  146.0050 C   0  0  0  0  0  3  0  0  0  0  0  0
  184.8500  178.5770  143.9530 C   0  0  0  0  0  3  0  0  0  0  0  0
  187.0380  177.8140  144.6670 C   0  0  0  0  0  0  0  0  0  0  0  0
  185.3600  178.4130  146.3150 C   0  0  0  0  0  3  0  0  0  0  0  0
  190.7120  176.6840  145.1180 C   0  0  0  0  0  2  0  0  0  0  0  0
  191.2070  176.1220  147.4710 C   0  0  0  0  0  1  0  0  0  0  0  0
  191.6950  176.8770  146.2530 C   0  0  0  0  0  2  0  0  0  0  0  0
  1 15  1  0  0  0  0
  3  2  1  0  0  0  0
  4  3  2  0  0  0  0
  4  1  1  0  0  0  0
  5  4  1  0  0  0  0
  6 10  1  0  0  0  0
  7 13  1  0  0  0  0
  7 10  1  0  0  0  0
  8 11  2  0  0  0  0
  9 14  1  0  0  0  0
 10  8  2  0  0  0  0
 11  5  1  0  0  0  0
 12 14  2  0  0  0  0
 13 12  1  0  0  0  0
 14 11  1  0  0  0  0
 16 26  1  6  0  0  0
 17 15  1  6  0  0  0
 17 24  1  0  0  0  0
 17 16  1  0  0  0  0
 18 17  1  0  0  0  0
 18 16  1  0  0  0  0
 19 23  2  0  0  0  0
 19 24  1  0  0  0  0
 21 20  1  0  0  0  0
 21 25  2  0  0  0  0
 22 25  1  0  0  0  0
 23 21  1  0  0  0  0
 24 22  2  0  0  0  0
 26 28  1  0  0  0  0
 28 27  1  0  0  0  0
M  END
>  <MODEL>
9

>  <REMARK>
 VINA RESULT:      -6.8      3.058      8.058
  Name = 
  8 active torsions:
  status: ('A' for Active; 'I' for Inactive)
    1  A    between atoms: C_3  and  C_5
    2  A    between atoms: C_3  and  C_23
    3  A    between atoms: C_9  and  N_16
    4  A    between atoms: C_9  and  C_20
    5  A    between atoms: N_15  and  N_16
    6  A    between atoms: N_15  and  C_28
    7  A    between atoms: S_19  and  C_22
    8  A    between atoms: S_19  and  C_28
                            x       y       z     vdW  Elec       q    Type
                         _______ _______ _______ _____ _____    ______ ____

>  <TORSDO>
F 8

$$$$
