=
 OpenBabel10232410343D

 38 40  0  0  1  0  0  0  0  0999 V2000
  187.9320  178.0260  144.7360 C   0  0  2  0  0  3  0  0  0  0  0  0
  183.4600  178.4180  140.5600 C   0  0  0  0  0  3  0  0  0  0  0  0
  183.4580  178.8400  144.7310 N   0  0  0  0  0  0  0  0  0  0  0  0
  182.3570  178.9240  142.5790 C   0  0  0  0  0  0  0  0  0  0  0  0
  182.3430  178.7810  141.2300 N   0  0  0  0  0  0  0  0  0  0  0  0
  184.3390  178.7800  145.6790 C   0  0  0  0  0  3  0  0  0  0  0  0
  184.6100  178.1940  141.2400 N   0  0  0  0  0  0  0  0  0  0  0  0
  183.5370  178.7020  143.3100 C   0  0  0  0  0  0  0  0  0  0  0  0
  184.6880  178.3250  142.5910 C   0  0  0  0  0  0  0  0  0  0  0  0
  186.4660  178.2450  144.5050 C   0  0  0  0  0  0  0  0  0  0  0  0
  181.1540  179.2930  143.2480 N   0  0  0  0  0  1  0  0  0  0  0  0
  185.7390  178.5420  145.5330 N   0  0  0  0  0  0  0  0  0  0  0  0
  185.9560  178.0630  143.1840 N   0  0  0  0  0  2  0  0  0  0  0  0
  190.5510  177.3190  142.0670 C   0  0  1  0  0  3  0  0  0  0  0  0
  189.7150  178.2940  142.8730 C   0  0  2  0  0  3  0  0  0  0  0  0
  190.2860  175.9290  142.6410 C   0  0  0  0  0  2  0  0  0  0  0  0
  190.6110  178.9400  143.9240 C   0  0  0  0  0  1  0  0  0  0  0  0
  189.2540  176.0880  143.7410 C   0  0  0  0  0  2  0  0  0  0  0  0
  188.6100  177.4360  143.4880 C   0  0  1  0  0  3  0  0  0  0  0  0
  190.1410  177.3630  140.7050 O   0  0  0  0  0  0  0  0  0  0  0  0
  192.0870  177.1080  139.4890 O   0  0  0  0  0  0  0  0  0  0  0  0
  190.8840  176.7740  139.6810 C   0  0  0  0  0  0  0  0  0  0  0  0
  190.2770  175.8130  138.8710 O   0  0  0  0  0  0  0  0  0  0  0  0
  190.8780  175.3320  137.6720 C   0  0  0  0  0  2  0  0  0  0  0  0
  189.8310  175.1280  136.5860 C   0  0  0  0  0  2  0  0  0  0  0  0
  189.0070  176.3610  136.4070 C   0  0  0  0  0  0  0  0  0  0  0  0
  187.6270  176.3770  136.7920 N   0  0  0  0  0  0  0  0  0  0  0  0
  189.5380  177.3830  135.8950 O   0  0  0  0  0  0  0  0  0  0  0  0
  187.0600  175.2650  137.3210 O   0  0  0  0  0  1  0  0  0  0  0  0
  186.0580  177.9290  137.8410 C   0  0  0  0  0  1  0  0  0  0  0  0
  186.8150  177.5690  136.5750 C   0  0  0  0  0  3  0  0  0  0  0  0
  185.8390  177.3410  135.4370 C   0  0  0  0  0  1  0  0  0  0  0  0
  188.1410  177.1190  145.9470 C   0  0  0  0  0  2  0  0  0  0  0  0
  188.4070  178.3150  147.9850 O   0  0  0  0  0  1  0  0  0  0  0  0
  189.1200  177.7320  146.9360 C   0  0  1  0  0  3  0  0  0  0  0  0
  190.0520  176.6630  147.4820 C   0  0  0  0  0  2  0  0  0  0  0  0
  191.3930  176.7280  146.7770 C   0  0  0  0  0  2  0  0  0  0  0  0
  192.4170  176.1660  147.6360 N   0  0  0  0  0  1  0  0  0  0  0  0
  1 33  1  1  0  0  0
  2  5  2  0  0  0  0
  2  7  1  0  0  0  0
  3  6  2  0  0  0  0
  4 11  1  0  0  0  0
  4  8  2  0  0  0  0
  5  4  1  0  0  0  0
  7  9  2  0  0  0  0
  8  3  1  0  0  0  0
  9 13  1  0  0  0  0
  9  8  1  0  0  0  0
 10  1  1  0  0  0  0
 10 12  2  0  0  0  0
 12  6  1  0  0  0  0
 13 10  1  0  0  0  0
 14 20  1  6  0  0  0
 14 16  1  0  0  0  0
 14 15  1  0  0  0  0
 15 19  1  0  0  0  0
 15 17  1  1  0  0  0
 16 18  1  0  0  0  0
 19 18  1  0  0  0  0
 19  1  1  1  0  0  0
 21 22  2  0  0  0  0
 22 20  1  0  0  0  0
 23 22  1  0  0  0  0
 24 23  1  0  0  0  0
 25 24  1  0  0  0  0
 26 25  1  0  0  0  0
 26 27  1  0  0  0  0
 27 29  1  0  0  0  0
 28 26  2  0  0  0  0
 31 27  1  0  0  0  0
 31 30  1  0  0  0  0
 32 31  1  0  0  0  0
 33 35  1  0  0  0  0
 35 36  1  0  0  0  0
 35 34  1  1  0  0  0
 37 36  1  0  0  0  0
 37 38  1  0  0  0  0
M  END
>  <MODEL>
1

>  <REMARK>
 VINA RESULT:      -7.8      0.000      0.000
  Name = 
  13 active torsions:
  status: ('A' for Active; 'I' for Inactive)
    1  A    between atoms: C_1  and  C_7
    2  A    between atoms: C_3  and  C_18
    3  A    between atoms: C_4  and  O_29
    4  A    between atoms: C_7  and  C_31
    5  A    between atoms: C_10  and  C_19
    6  A    between atoms: C_10  and  C_31
    7  A    between atoms: C_17  and  C_18
    8  A    between atoms: C_17  and  O_26
    9  A    between atoms: C_19  and  C_30
   10  A    between atoms: C_19  and  C_38
   11  A    between atoms: N_21  and  C_24
   12  A    between atoms: O_26  and  C_33
   13  A    between atoms: O_29  and  C_33
                            x       y       z     vdW  Elec       q    Type
                         _______ _______ _______ _____ _____    ______ ____

>  <TORSDO>
F 13

$$$$
=
 OpenBabel10232410343D

 38 40  0  0  1  0  0  0  0  0999 V2000
  187.7500  177.9590  144.6930 C   0  0  2  0  0  3  0  0  0  0  0  0
  183.1030  178.3580  140.7150 C   0  0  0  0  0  3  0  0  0  0  0  0
  183.3060  178.9070  144.8660 N   0  0  0  0  0  0  0  0  0  0  0  0
  182.1090  178.9580  142.7650 C   0  0  0  0  0  0  0  0  0  0  0  0
  182.0280  178.7750  141.4230 N   0  0  0  0  0  0  0  0  0  0  0  0
  184.2280  178.8490  145.7740 C   0  0  0  0  0  3  0  0  0  0  0  0
  184.2760  178.1200  141.3490 N   0  0  0  0  0  0  0  0  0  0  0  0
  183.3150  178.7230  143.4480 C   0  0  0  0  0  0  0  0  0  0  0  0
  184.4200  178.2900  142.6900 C   0  0  0  0  0  0  0  0  0  0  0  0
  186.2820  178.2150  144.5230 C   0  0  0  0  0  0  0  0  0  0  0  0
  180.9500  179.3840  143.4760 N   0  0  0  0  0  1  0  0  0  0  0  0
  185.6120  178.5640  145.5720 N   0  0  0  0  0  0  0  0  0  0  0  0
  185.7070  178.0080  143.2330 N   0  0  0  0  0  2  0  0  0  0  0  0
  190.1360  177.0770  141.8620 C   0  0  1  0  0  3  0  0  0  0  0  0
  189.3180  178.0950  142.6340 C   0  0  2  0  0  3  0  0  0  0  0  0
  190.0240  175.7550  142.6200 C   0  0  0  0  0  2  0  0  0  0  0  0
  190.2670  178.9150  143.5010 C   0  0  0  0  0  1  0  0  0  0  0  0
  189.0970  175.9910  143.7970 C   0  0  0  0  0  2  0  0  0  0  0  0
  188.3410  177.2590  143.4580 C   0  0  1  0  0  3  0  0  0  0  0  0
  189.5910  176.9300  140.5560 O   0  0  0  0  0  0  0  0  0  0  0  0
  189.4380  178.6570  139.0310 O   0  0  0  0  0  0  0  0  0  0  0  0
  190.0690  177.6510  139.4610 C   0  0  0  0  0  0  0  0  0  0  0  0
  191.2550  177.2420  138.8470 O   0  0  0  0  0  0  0  0  0  0  0  0
  191.3260  176.0890  138.0130 C   0  0  0  0  0  2  0  0  0  0  0  0
  190.1220  176.0170  137.0850 C   0  0  0  0  0  2  0  0  0  0  0  0
  189.5790  174.6260  137.0320 C   0  0  0  0  0  0  0  0  0  0  0  0
  188.3260  174.3580  136.3900 N   0  0  0  0  0  0  0  0  0  0  0  0
  190.2280  173.6940  137.5760 O   0  0  0  0  0  0  0  0  0  0  0  0
  187.6230  175.3720  135.8270 O   0  0  0  0  0  1  0  0  0  0  0  0
  187.3920  172.6050  134.9660 C   0  0  0  0  0  1  0  0  0  0  0  0
  187.7780  173.0060  136.3780 C   0  0  0  0  0  3  0  0  0  0  0  0
  186.5670  172.9220  137.2880 C   0  0  0  0  0  1  0  0  0  0  0  0
  187.9930  177.1310  145.9540 C   0  0  0  0  0  2  0  0  0  0  0  0
  188.3160  178.3560  147.9660 O   0  0  0  0  0  1  0  0  0  0  0  0
  188.9950  177.8090  146.8770 C   0  0  1  0  0  3  0  0  0  0  0  0
  190.0220  176.8020  147.3660 C   0  0  0  0  0  2  0  0  0  0  0  0
  191.2630  176.8550  146.4980 C   0  0  0  0  0  2  0  0  0  0  0  0
  192.3360  176.1250  147.1450 N   0  0  0  0  0  1  0  0  0  0  0  0
  1 33  1  1  0  0  0
  2  7  1  0  0  0  0
  2  5  2  0  0  0  0
  3  6  2  0  0  0  0
  4  8  2  0  0  0  0
  4 11  1  0  0  0  0
  5  4  1  0  0  0  0
  7  9  2  0  0  0  0
  8  3  1  0  0  0  0
  9 13  1  0  0  0  0
  9  8  1  0  0  0  0
 10  1  1  0  0  0  0
 10 12  2  0  0  0  0
 12  6  1  0  0  0  0
 13 10  1  0  0  0  0
 14 20  1  6  0  0  0
 14 16  1  0  0  0  0
 14 15  1  0  0  0  0
 15 19  1  0  0  0  0
 15 17  1  1  0  0  0
 16 18  1  0  0  0  0
 19 18  1  0  0  0  0
 19  1  1  1  0  0  0
 21 22  2  0  0  0  0
 22 20  1  0  0  0  0
 23 22  1  0  0  0  0
 24 23  1  0  0  0  0
 25 24  1  0  0  0  0
 26 25  1  0  0  0  0
 26 28  2  0  0  0  0
 27 26  1  0  0  0  0
 29 27  1  0  0  0  0
 30 31  1  0  0  0  0
 31 27  1  0  0  0  0
 31 32  1  0  0  0  0
 33 35  1  0  0  0  0
 35 36  1  0  0  0  0
 35 34  1  1  0  0  0
 37 38  1  0  0  0  0
 37 36  1  0  0  0  0
M  END
>  <MODEL>
2

>  <REMARK>
 VINA RESULT:      -7.5      1.455      1.855
  Name = 
  13 active torsions:
  status: ('A' for Active; 'I' for Inactive)
    1  A    between atoms: C_1  and  C_7
    2  A    between atoms: C_3  and  C_18
    3  A    between atoms: C_4  and  O_29
    4  A    between atoms: C_7  and  C_31
    5  A    between atoms: C_10  and  C_19
    6  A    between atoms: C_10  and  C_31
    7  A    between atoms: C_17  and  C_18
    8  A    between atoms: C_17  and  O_26
    9  A    between atoms: C_19  and  C_30
   10  A    between atoms: C_19  and  C_38
   11  A    between atoms: N_21  and  C_24
   12  A    between atoms: O_26  and  C_33
   13  A    between atoms: O_29  and  C_33
                            x       y       z     vdW  Elec       q    Type
                         _______ _______ _______ _____ _____    ______ ____

>  <TORSDO>
F 13

$$$$
=
 OpenBabel10232410343D

 38 40  0  0  1  0  0  0  0  0999 V2000
  187.5140  178.1520  143.7940 C   0  0  2  0  0  3  0  0  0  0  0  0
  181.4120  178.7090  144.0080 C   0  0  0  0  0  3  0  0  0  0  0  0
  184.1480  178.9350  140.8390 N   0  0  0  0  0  0  0  0  0  0  0  0
  181.8910  178.9180  141.7110 C   0  0  0  0  0  0  0  0  0  0  0  0
  180.9970  178.8560  142.7290 N   0  0  0  0  0  0  0  0  0  0  0  0
  185.4310  178.8280  140.7010 C   0  0  0  0  0  3  0  0  0  0  0  0
  182.7360  178.6210  144.2800 N   0  0  0  0  0  0  0  0  0  0  0  0
  183.2710  178.8260  141.9640 C   0  0  0  0  0  0  0  0  0  0  0  0
  183.6800  178.6730  143.3030 C   0  0  0  0  0  0  0  0  0  0  0  0
  186.2650  178.4190  143.0080 C   0  0  0  0  0  0  0  0  0  0  0  0
  181.4130  179.0880  140.3790 N   0  0  0  0  0  1  0  0  0  0  0  0
  186.3830  178.5460  141.7270 N   0  0  0  0  0  0  0  0  0  0  0  0
  185.0370  178.5670  143.7220 N   0  0  0  0  0  2  0  0  0  0  0  0
  190.9700  177.2440  142.4850 C   0  0  1  0  0  3  0  0  0  0  0  0
  189.9720  178.2730  142.9780 C   0  0  2  0  0  3  0  0  0  0  0  0
  190.3170  175.8740  142.6620 C   0  0  0  0  0  2  0  0  0  0  0  0
  190.3490  178.6650  144.4020 C   0  0  0  0  0  1  0  0  0  0  0  0
  188.9200  176.1110  143.2020 C   0  0  0  0  0  2  0  0  0  0  0  0
  188.6190  177.5650  142.9010 C   0  0  1  0  0  3  0  0  0  0  0  0
  191.2400  177.4730  141.1070 O   0  0  0  0  0  0  0  0  0  0  0  0
  189.3650  177.7230  139.7830 O   0  0  0  0  0  0  0  0  0  0  0  0
  190.3820  177.0420  140.0950 C   0  0  0  0  0  0  0  0  0  0  0  0
  190.6620  175.8430  139.4350 O   0  0  0  0  0  0  0  0  0  0  0  0
  190.3150  175.6210  138.0720 C   0  0  0  0  0  2  0  0  0  0  0  0
  191.5110  175.8590  137.1620 C   0  0  0  0  0  2  0  0  0  0  0  0
  192.4880  174.7330  137.2680 C   0  0  0  0  0  0  0  0  0  0  0  0
  193.7940  174.9520  137.8150 N   0  0  0  0  0  0  0  0  0  0  0  0
  192.1540  173.5920  136.8520 O   0  0  0  0  0  0  0  0  0  0  0  0
  194.1520  176.1890  138.2390 O   0  0  0  0  0  1  0  0  0  0  0  0
  195.7130  174.0630  139.0410 C   0  0  0  0  0  1  0  0  0  0  0  0
  194.7600  173.8600  137.8770 C   0  0  0  0  0  3  0  0  0  0  0  0
  195.5400  173.7740  136.5790 C   0  0  0  0  0  1  0  0  0  0  0  0
  187.2070  177.2160  144.9620 C   0  0  0  0  0  2  0  0  0  0  0  0
  186.1260  178.2820  146.7930 O   0  0  0  0  0  1  0  0  0  0  0  0
  187.3810  177.9230  146.2980 C   0  0  1  0  0  3  0  0  0  0  0  0
  188.0790  177.0070  147.2890 C   0  0  0  0  0  2  0  0  0  0  0  0
  189.3330  177.6710  147.8230 C   0  0  0  0  0  2  0  0  0  0  0  0
  190.4910  176.8760  147.4630 N   0  0  0  0  0  1  0  0  0  0  0  0
  1 33  1  1  0  0  0
  2  7  1  0  0  0  0
  3  8  1  0  0  0  0
  4  8  2  0  0  0  0
  4  5  1  0  0  0  0
  5  2  2  0  0  0  0
  6  3  2  0  0  0  0
  6 12  1  0  0  0  0
  8  9  1  0  0  0  0
  9 13  1  0  0  0  0
  9  7  2  0  0  0  0
 10 13  1  0  0  0  0
 10  1  1  0  0  0  0
 11  4  1  0  0  0  0
 12 10  2  0  0  0  0
 14 20  1  6  0  0  0
 14 16  1  0  0  0  0
 14 15  1  0  0  0  0
 15 17  1  1  0  0  0
 16 18  1  0  0  0  0
 19 15  1  0  0  0  0
 19 18  1  0  0  0  0
 19  1  1  1  0  0  0
 21 22  2  0  0  0  0
 22 20  1  0  0  0  0
 23 22  1  0  0  0  0
 24 23  1  0  0  0  0
 25 26  1  0  0  0  0
 25 24  1  0  0  0  0
 26 27  1  0  0  0  0
 27 31  1  0  0  0  0
 27 29  1  0  0  0  0
 28 26  2  0  0  0  0
 31 30  1  0  0  0  0
 32 31  1  0  0  0  0
 33 35  1  0  0  0  0
 35 34  1  1  0  0  0
 35 36  1  0  0  0  0
 36 37  1  0  0  0  0
 38 37  1  0  0  0  0
M  END
>  <MODEL>
3

>  <REMARK>
 VINA RESULT:      -7.4      2.177      3.896
  Name = 
  13 active torsions:
  status: ('A' for Active; 'I' for Inactive)
    1  A    between atoms: C_1  and  C_7
    2  A    between atoms: C_3  and  C_18
    3  A    between atoms: C_4  and  O_29
    4  A    between atoms: C_7  and  C_31
    5  A    between atoms: C_10  and  C_19
    6  A    between atoms: C_10  and  C_31
    7  A    between atoms: C_17  and  C_18
    8  A    between atoms: C_17  and  O_26
    9  A    between atoms: C_19  and  C_30
   10  A    between atoms: C_19  and  C_38
   11  A    between atoms: N_21  and  C_24
   12  A    between atoms: O_26  and  C_33
   13  A    between atoms: O_29  and  C_33
                            x       y       z     vdW  Elec       q    Type
                         _______ _______ _______ _____ _____    ______ ____

>  <TORSDO>
F 13

$$$$
=
 OpenBabel10232410343D

 38 40  0  0  1  0  0  0  0  0999 V2000
  189.8170  175.4270  137.2740 C   0  0  2  0  0  3  0  0  0  0  0  0
  184.2510  172.8570  137.2500 C   0  0  0  0  0  3  0  0  0  0  0  0
  187.8020  171.8960  135.2380 N   0  0  0  0  0  0  0  0  0  0  0  0
  185.5010  171.4470  135.8370 C   0  0  0  0  0  0  0  0  0  0  0  0
  184.3440  171.7530  136.4740 N   0  0  0  0  0  0  0  0  0  0  0  0
  189.0060  172.3700  135.1860 C   0  0  0  0  0  3  0  0  0  0  0  0
  185.3250  173.6700  137.3950 N   0  0  0  0  0  0  0  0  0  0  0  0
  186.6320  172.2700  135.9720 C   0  0  0  0  0  0  0  0  0  0  0  0
  186.5130  173.4150  136.7840 C   0  0  0  0  0  0  0  0  0  0  0  0
  188.9550  174.3410  136.7030 C   0  0  0  0  0  0  0  0  0  0  0  0
  185.5520  170.2820  135.0170 N   0  0  0  0  0  1  0  0  0  0  0  0
  189.5190  173.4860  135.9130 N   0  0  0  0  0  0  0  0  0  0  0  0
  187.5640  174.3460  137.0200 N   0  0  0  0  0  2  0  0  0  0  0  0
  188.5570  178.3520  139.3570 C   0  0  1  0  0  3  0  0  0  0  0  0
  188.9580  176.8950  139.2300 C   0  0  2  0  0  3  0  0  0  0  0  0
  188.8800  179.0180  138.0200 C   0  0  0  0  0  2  0  0  0  0  0  0
  190.3300  176.7170  139.8710 C   0  0  0  0  0  1  0  0  0  0  0  0
  189.4140  177.9370  137.1000 C   0  0  0  0  0  2  0  0  0  0  0  0
  188.9720  176.6300  137.7250 C   0  0  1  0  0  3  0  0  0  0  0  0
  187.1600  178.4350  139.6100 O   0  0  0  0  0  0  0  0  0  0  0  0
  185.6280  179.5220  140.9540 O   0  0  0  0  0  0  0  0  0  0  0  0
  186.6450  178.7780  140.8610 C   0  0  0  0  0  0  0  0  0  0  0  0
  187.2730  178.2890  142.0080 O   0  0  0  0  0  0  0  0  0  0  0  0
  186.5470  177.7390  143.1030 C   0  0  0  0  0  2  0  0  0  0  0  0
  187.3660  176.6730  143.8160 C   0  0  0  0  0  2  0  0  0  0  0  0
  188.4780  177.2940  144.5970 C   0  0  0  0  0  0  0  0  0  0  0  0
  189.8420  176.9510  144.3220 N   0  0  0  0  0  0  0  0  0  0  0  0
  188.1990  178.1120  145.5140 O   0  0  0  0  0  0  0  0  0  0  0  0
  190.1300  176.0530  143.3470 O   0  0  0  0  0  1  0  0  0  0  0  0
  191.8280  178.3710  144.2390 C   0  0  0  0  0  1  0  0  0  0  0  0
  190.9210  177.5270  145.1160 C   0  0  0  0  0  3  0  0  0  0  0  0
  191.7260  176.4290  145.7840 C   0  0  0  0  0  1  0  0  0  0  0  0
  190.8660  175.8560  136.2490 C   0  0  0  0  0  2  0  0  0  0  0  0
  192.2070  174.7040  137.8400 O   0  0  0  0  0  1  0  0  0  0  0  0
  192.2750  175.5670  136.7450 C   0  0  1  0  0  3  0  0  0  0  0  0
  193.0990  174.9290  135.6400 C   0  0  0  0  0  2  0  0  0  0  0  0
  194.1700  175.8900  135.1630 C   0  0  0  0  0  2  0  0  0  0  0  0
  194.6140  176.7080  136.2750 N   0  0  0  0  0  1  0  0  0  0  0  0
  1 33  1  6  0  0  0
  2  7  1  0  0  0  0
  3  8  1  0  0  0  0
  4  8  2  0  0  0  0
  4  5  1  0  0  0  0
  5  2  2  0  0  0  0
  6  3  2  0  0  0  0
  6 12  1  0  0  0  0
  8  9  1  0  0  0  0
  9 13  1  0  0  0  0
  9  7  2  0  0  0  0
 10 13  1  0  0  0  0
 10  1  1  0  0  0  0
 11  4  1  0  0  0  0
 12 10  2  0  0  0  0
 14 20  1  6  0  0  0
 15 14  1  0  0  0  0
 15 17  1  6  0  0  0
 16 14  1  0  0  0  0
 18 19  1  0  0  0  0
 18 16  1  0  0  0  0
 19  1  1  1  0  0  0
 19 15  1  0  0  0  0
 20 22  1  0  0  0  0
 22 21  2  0  0  0  0
 22 23  1  0  0  0  0
 23 24  1  0  0  0  0
 24 25  1  0  0  0  0
 25 26  1  0  0  0  0
 26 28  2  0  0  0  0
 27 26  1  0  0  0  0
 27 31  1  0  0  0  0
 29 27  1  0  0  0  0
 30 31  1  0  0  0  0
 31 32  1  0  0  0  0
 33 35  1  0  0  0  0
 35 34  1  1  0  0  0
 36 35  1  0  0  0  0
 37 36  1  0  0  0  0
 37 38  1  0  0  0  0
M  END
>  <MODEL>
4

>  <REMARK>
 VINA RESULT:      -6.5      3.518      8.905
  Name = 
  13 active torsions:
  status: ('A' for Active; 'I' for Inactive)
    1  A    between atoms: C_1  and  C_7
    2  A    between atoms: C_3  and  C_18
    3  A    between atoms: C_4  and  O_29
    4  A    between atoms: C_7  and  C_31
    5  A    between atoms: C_10  and  C_19
    6  A    between atoms: C_10  and  C_31
    7  A    between atoms: C_17  and  C_18
    8  A    between atoms: C_17  and  O_26
    9  A    between atoms: C_19  and  C_30
   10  A    between atoms: C_19  and  C_38
   11  A    between atoms: N_21  and  C_24
   12  A    between atoms: O_26  and  C_33
   13  A    between atoms: O_29  and  C_33
                            x       y       z     vdW  Elec       q    Type
                         _______ _______ _______ _____ _____    ______ ____

>  <TORSDO>
F 13

$$$$
=
 OpenBabel10232410343D

 38 40  0  0  1  0  0  0  0  0999 V2000
  190.2100  177.2630  139.3550 C   0  0  2  0  0  3  0  0  0  0  0  0
  186.4960  177.6710  144.2160 C   0  0  0  0  0  3  0  0  0  0  0  0
  190.6640  177.3680  143.8780 N   0  0  0  0  0  0  0  0  0  0  0  0
  188.6440  177.6480  145.1810 C   0  0  0  0  0  0  0  0  0  0  0  0
  187.2960  177.7370  145.3040 N   0  0  0  0  0  0  0  0  0  0  0  0
  191.5210  177.2830  142.9110 C   0  0  0  0  0  3  0  0  0  0  0  0
  187.0420  177.5140  142.9860 N   0  0  0  0  0  0  0  0  0  0  0  0
  189.2390  177.4890  143.9170 C   0  0  0  0  0  0  0  0  0  0  0  0
  188.3860  177.4220  142.7990 C   0  0  0  0  0  0  0  0  0  0  0  0
  190.1250  177.2900  140.8520 C   0  0  0  0  0  0  0  0  0  0  0  0
  189.4520  177.7080  146.3540 N   0  0  0  0  0  1  0  0  0  0  0  0
  191.2380  177.2910  141.5120 N   0  0  0  0  0  0  0  0  0  0  0  0
  188.8320  177.2610  141.4560 N   0  0  0  0  0  2  0  0  0  0  0  0
  187.1400  177.5490  137.1250 C   0  0  1  0  0  3  0  0  0  0  0  0
  188.1210  178.1580  138.1080 C   0  0  2  0  0  3  0  0  0  0  0  0
  187.6600  176.1530  136.7880 C   0  0  0  0  0  2  0  0  0  0  0  0
  189.0640  179.0760  137.3380 C   0  0  0  0  0  1  0  0  0  0  0  0
  188.9110  175.9290  137.6170 C   0  0  0  0  0  2  0  0  0  0  0  0
  188.8410  176.9590  138.7250 C   0  0  1  0  0  3  0  0  0  0  0  0
  185.8610  177.4490  137.7400 O   0  0  0  0  0  0  0  0  0  0  0  0
  184.5410  177.2800  135.8520 O   0  0  0  0  0  0  0  0  0  0  0  0
  184.7400  176.9690  137.0600 C   0  0  0  0  0  0  0  0  0  0  0  0
  183.8400  176.1430  137.7370 O   0  0  0  0  0  0  0  0  0  0  0  0
  182.4920  175.9700  137.3130 C   0  0  0  0  0  2  0  0  0  0  0  0
  181.6130  177.1030  137.8250 C   0  0  0  0  0  2  0  0  0  0  0  0
  181.6420  177.1610  139.3170 C   0  0  0  0  0  0  0  0  0  0  0  0
  182.2980  178.2420  139.9910 N   0  0  0  0  0  0  0  0  0  0  0  0
  181.0970  176.2350  139.9760 O   0  0  0  0  0  0  0  0  0  0  0  0
  182.9000  179.2210  139.2720 O   0  0  0  0  0  1  0  0  0  0  0  0
  181.2670  179.1640  142.0060 C   0  0  0  0  0  1  0  0  0  0  0  0
  182.3620  178.2720  141.4480 C   0  0  0  0  0  3  0  0  0  0  0  0
  183.7190  178.7730  141.9050 C   0  0  0  0  0  1  0  0  0  0  0  0
  191.2520  176.2380  138.9090 C   0  0  0  0  0  2  0  0  0  0  0  0
  193.5230  176.9140  139.1030 O   0  0  0  0  0  1  0  0  0  0  0  0
  192.4350  176.9120  138.2300 C   0  0  1  0  0  3  0  0  0  0  0  0
  192.8010  176.1680  136.9570 C   0  0  0  0  0  2  0  0  0  0  0  0
  194.1480  175.4900  137.1140 C   0  0  0  0  0  2  0  0  0  0  0  0
  195.1040  176.1010  136.2100 N   0  0  0  0  0  1  0  0  0  0  0  0
  1 33  1  1  0  0  0
  1 10  1  0  0  0  0
  2  5  2  0  0  0  0
  3  8  1  0  0  0  0
  4  5  1  0  0  0  0
  4 11  1  0  0  0  0
  6  3  2  0  0  0  0
  7  2  1  0  0  0  0
  8  4  2  0  0  0  0
  9  7  2  0  0  0  0
  9  8  1  0  0  0  0
 10 13  1  0  0  0  0
 10 12  2  0  0  0  0
 12  6  1  0  0  0  0
 13  9  1  0  0  0  0
 14 20  1  1  0  0  0
 14 15  1  0  0  0  0
 15 17  1  6  0  0  0
 15 19  1  0  0  0  0
 16 14  1  0  0  0  0
 16 18  1  0  0  0  0
 18 19  1  0  0  0  0
 19  1  1  6  0  0  0
 21 22  2  0  0  0  0
 22 23  1  0  0  0  0
 22 20  1  0  0  0  0
 24 23  1  0  0  0  0
 24 25  1  0  0  0  0
 25 26  1  0  0  0  0
 26 28  2  0  0  0  0
 26 27  1  0  0  0  0
 27 31  1  0  0  0  0
 29 27  1  0  0  0  0
 31 32  1  0  0  0  0
 31 30  1  0  0  0  0
 35 33  1  0  0  0  0
 35 34  1  1  0  0  0
 36 37  1  0  0  0  0
 36 35  1  0  0  0  0
 38 37  1  0  0  0  0
M  END
>  <MODEL>
5

>  <REMARK>
 VINA RESULT:      -6.4      3.007      7.269
  Name = 
  13 active torsions:
  status: ('A' for Active; 'I' for Inactive)
    1  A    between atoms: C_1  and  C_7
    2  A    between atoms: C_3  and  C_18
    3  A    between atoms: C_4  and  O_29
    4  A    between atoms: C_7  and  C_31
    5  A    between atoms: C_10  and  C_19
    6  A    between atoms: C_10  and  C_31
    7  A    between atoms: C_17  and  C_18
    8  A    between atoms: C_17  and  O_26
    9  A    between atoms: C_19  and  C_30
   10  A    between atoms: C_19  and  C_38
   11  A    between atoms: N_21  and  C_24
   12  A    between atoms: O_26  and  C_33
   13  A    between atoms: O_29  and  C_33
                            x       y       z     vdW  Elec       q    Type
                         _______ _______ _______ _____ _____    ______ ____

>  <TORSDO>
F 13

$$$$
=
 OpenBabel10232410343D

 38 40  0  0  1  0  0  0  0  0999 V2000
  190.0900  177.1070  141.2810 C   0  0  2  0  0  3  0  0  0  0  0  0
  186.2790  177.2600  136.4810 C   0  0  0  0  0  3  0  0  0  0  0  0
  185.9630  178.7870  140.3730 N   0  0  0  0  0  0  0  0  0  0  0  0
  185.1330  178.5090  138.1170 C   0  0  0  0  0  0  0  0  0  0  0  0
  185.2200  178.0120  136.8580 N   0  0  0  0  0  0  0  0  0  0  0  0
  186.7050  178.8060  141.4340 C   0  0  0  0  0  3  0  0  0  0  0  0
  187.2690  176.9990  137.3670 N   0  0  0  0  0  0  0  0  0  0  0  0
  186.1470  178.2570  139.0570 C   0  0  0  0  0  0  0  0  0  0  0  0
  187.2410  177.4720  138.6420 C   0  0  0  0  0  0  0  0  0  0  0  0
  188.7490  177.5510  140.7750 C   0  0  0  0  0  0  0  0  0  0  0  0
  183.9930  179.2830  138.4790 N   0  0  0  0  0  1  0  0  0  0  0  0
  188.0150  178.2560  141.5730 N   0  0  0  0  0  0  0  0  0  0  0  0
  188.3450  177.1270  139.4740 N   0  0  0  0  0  2  0  0  0  0  0  0
  191.2000  177.1090  144.9210 C   0  0  1  0  0  3  0  0  0  0  0  0
  190.4640  176.4620  143.7640 C   0  0  2  0  0  3  0  0  0  0  0  0
  191.9280  178.3280  144.3560 C   0  0  0  0  0  2  0  0  0  0  0  0
  191.2990  175.2910  143.2590 C   0  0  0  0  0  1  0  0  0  0  0  0
  191.5700  178.4210  142.8850 C   0  0  0  0  0  2  0  0  0  0  0  0
  190.3230  177.5760  142.7270 C   0  0  1  0  0  3  0  0  0  0  0  0
  190.2580  177.5260  145.9030 O   0  0  0  0  0  0  0  0  0  0  0  0
  191.3850  176.5460  147.6640 O   0  0  0  0  0  0  0  0  0  0  0  0
  190.3570  177.1460  147.2420 C   0  0  0  0  0  0  0  0  0  0  0  0
  189.3000  177.4360  148.1070 O   0  0  0  0  0  0  0  0  0  0  0  0
  188.3120  178.4170  147.8070 C   0  0  0  0  0  2  0  0  0  0  0  0
  186.9770  177.7620  147.4870 C   0  0  0  0  0  2  0  0  0  0  0  0
  186.5170  178.1420  146.1170 C   0  0  0  0  0  0  0  0  0  0  0  0
  185.1410  178.4610  145.8730 N   0  0  0  0  0  0  0  0  0  0  0  0
  187.3520  178.1590  145.1740 O   0  0  0  0  0  0  0  0  0  0  0  0
  184.2460  178.4170  146.8900 O   0  0  0  0  0  1  0  0  0  0  0  0
  185.1650  180.1760  144.1320 C   0  0  0  0  0  1  0  0  0  0  0  0
  184.6890  178.7890  144.5260 C   0  0  0  0  0  3  0  0  0  0  0  0
  183.1750  178.7220  144.4480 C   0  0  0  0  0  1  0  0  0  0  0  0
  191.1930  177.6230  140.3590 C   0  0  0  0  0  2  0  0  0  0  0  0
  190.9030  176.9170  138.1070 O   0  0  0  0  0  1  0  0  0  0  0  0
  191.5540  176.5940  139.2980 C   0  0  1  0  0  3  0  0  0  0  0  0
  193.0560  176.5790  139.0730 C   0  0  0  0  0  2  0  0  0  0  0  0
  193.3830  175.8960  137.7590 C   0  0  0  0  0  2  0  0  0  0  0  0
  194.1350  176.8060  136.9160 N   0  0  0  0  0  1  0  0  0  0  0  0
  1 33  1  6  0  0  0
  2  5  2  0  0  0  0
  2  7  1  0  0  0  0
  3  6  2  0  0  0  0
  4 11  1  0  0  0  0
  4  8  2  0  0  0  0
  5  4  1  0  0  0  0
  6 12  1  0  0  0  0
  7  9  2  0  0  0  0
  8  3  1  0  0  0  0
  9  8  1  0  0  0  0
  9 13  1  0  0  0  0
 10  1  1  0  0  0  0
 10 12  2  0  0  0  0
 13 10  1  0  0  0  0
 14 20  1  1  0  0  0
 15 17  1  6  0  0  0
 15 14  1  0  0  0  0
 16 14  1  0  0  0  0
 18 16  1  0  0  0  0
 19  1  1  6  0  0  0
 19 18  1  0  0  0  0
 19 15  1  0  0  0  0
 20 22  1  0  0  0  0
 22 21  2  0  0  0  0
 22 23  1  0  0  0  0
 24 23  1  0  0  0  0
 25 24  1  0  0  0  0
 26 25  1  0  0  0  0
 27 26  1  0  0  0  0
 27 29  1  0  0  0  0
 28 26  2  0  0  0  0
 30 31  1  0  0  0  0
 31 27  1  0  0  0  0
 32 31  1  0  0  0  0
 35 34  1  6  0  0  0
 35 33  1  0  0  0  0
 36 35  1  0  0  0  0
 37 36  1  0  0  0  0
 38 37  1  0  0  0  0
M  END
>  <MODEL>
6

>  <REMARK>
 VINA RESULT:      -6.4      2.422      7.177
  Name = 
  13 active torsions:
  status: ('A' for Active; 'I' for Inactive)
    1  A    between atoms: C_1  and  C_7
    2  A    between atoms: C_3  and  C_18
    3  A    between atoms: C_4  and  O_29
    4  A    between atoms: C_7  and  C_31
    5  A    between atoms: C_10  and  C_19
    6  A    between atoms: C_10  and  C_31
    7  A    between atoms: C_17  and  C_18
    8  A    between atoms: C_17  and  O_26
    9  A    between atoms: C_19  and  C_30
   10  A    between atoms: C_19  and  C_38
   11  A    between atoms: N_21  and  C_24
   12  A    between atoms: O_26  and  C_33
   13  A    between atoms: O_29  and  C_33
                            x       y       z     vdW  Elec       q    Type
                         _______ _______ _______ _____ _____    ______ ____

>  <TORSDO>
F 13

$$$$
=
 OpenBabel10232410343D

 38 40  0  0  1  0  0  0  0  0999 V2000
  185.5170  177.4270  137.7350 C   0  0  2  0  0  3  0  0  0  0  0  0
  184.8590  179.5460  143.4500 C   0  0  0  0  0  3  0  0  0  0  0  0
  182.0940  178.0970  140.6510 N   0  0  0  0  0  0  0  0  0  0  0  0
  182.6680  178.9170  142.8540 C   0  0  0  0  0  0  0  0  0  0  0  0
  183.5520  179.3960  143.7640 N   0  0  0  0  0  0  0  0  0  0  0  0
  182.1400  177.6320  139.4430 C   0  0  0  0  0  3  0  0  0  0  0  0
  185.2960  179.2140  142.2110 N   0  0  0  0  0  0  0  0  0  0  0  0
  183.0940  178.5600  141.5620 C   0  0  0  0  0  0  0  0  0  0  0  0
  184.4590  178.7250  141.2570 C   0  0  0  0  0  0  0  0  0  0  0  0
  184.5500  177.7480  138.8340 C   0  0  0  0  0  0  0  0  0  0  0  0
  181.2970  178.7890  143.2200 N   0  0  0  0  0  1  0  0  0  0  0  0
  183.3070  177.4450  138.6420 N   0  0  0  0  0  0  0  0  0  0  0  0
  185.0450  178.4120  139.9970 N   0  0  0  0  0  2  0  0  0  0  0  0
  189.3050  177.6010  138.0640 C   0  0  1  0  0  3  0  0  0  0  0  0
  187.9870  176.8950  138.3170 C   0  0  2  0  0  3  0  0  0  0  0  0
  188.9980  178.8030  137.1730 C   0  0  0  0  0  2  0  0  0  0  0  0
  187.8830  175.7140  137.3580 C   0  0  0  0  0  1  0  0  0  0  0  0
  187.4980  178.8280  136.9560 C   0  0  0  0  0  2  0  0  0  0  0  0
  186.9230  177.9610  138.0570 C   0  0  1  0  0  3  0  0  0  0  0  0
  189.8440  178.0460  139.3030 O   0  0  0  0  0  0  0  0  0  0  0  0
  191.8520  176.9340  139.5620 O   0  0  0  0  0  0  0  0  0  0  0  0
  190.7380  177.2760  140.0490 C   0  0  0  0  0  0  0  0  0  0  0  0
  190.3810  176.8880  141.3420 O   0  0  0  0  0  0  0  0  0  0  0  0
  189.2290  177.4010  142.0050 C   0  0  0  0  0  2  0  0  0  0  0  0
  188.7780  176.4610  143.1140 C   0  0  0  0  0  2  0  0  0  0  0  0
  188.8490  177.1400  144.4430 C   0  0  0  0  0  0  0  0  0  0  0  0
  187.6630  177.3380  145.2230 N   0  0  0  0  0  0  0  0  0  0  0  0
  189.9640  177.5520  144.8610 O   0  0  0  0  0  0  0  0  0  0  0  0
  186.4650  176.9110  144.7540 O   0  0  0  0  0  1  0  0  0  0  0  0
  188.2460  177.1120  147.5860 C   0  0  0  0  0  1  0  0  0  0  0  0
  187.7310  178.0400  146.5010 C   0  0  0  0  0  3  0  0  0  0  0  0
  186.3620  178.5700  146.8820 C   0  0  0  0  0  1  0  0  0  0  0  0
  185.0120  177.9960  136.4100 C   0  0  0  0  0  2  0  0  0  0  0  0
  186.1320  176.8520  134.6520 O   0  0  0  0  0  1  0  0  0  0  0  0
  184.9210  176.9160  135.3430 C   0  0  1  0  0  3  0  0  0  0  0  0
  184.6240  175.5700  135.9830 C   0  0  0  0  0  2  0  0  0  0  0  0
  183.1640  175.2100  135.7920 C   0  0  0  0  0  2  0  0  0  0  0  0
  183.0660  173.9490  135.0820 N   0  0  0  0  0  1  0  0  0  0  0  0
  1 33  1  6  0  0  0
  1 10  1  0  0  0  0
  2  5  2  0  0  0  0
  3  8  1  0  0  0  0
  4 11  1  0  0  0  0
  4  5  1  0  0  0  0
  6  3  2  0  0  0  0
  7  2  1  0  0  0  0
  8  4  2  0  0  0  0
  9  8  1  0  0  0  0
  9  7  2  0  0  0  0
 10 13  1  0  0  0  0
 12 10  2  0  0  0  0
 12  6  1  0  0  0  0
 13  9  1  0  0  0  0
 14 15  1  0  0  0  0
 14 20  1  1  0  0  0
 15 17  1  6  0  0  0
 16 14  1  0  0  0  0
 18 16  1  0  0  0  0
 18 19  1  0  0  0  0
 19  1  1  6  0  0  0
 19 15  1  0  0  0  0
 20 22  1  0  0  0  0
 21 22  2  0  0  0  0
 22 23  1  0  0  0  0
 23 24  1  0  0  0  0
 24 25  1  0  0  0  0
 25 26  1  0  0  0  0
 26 28  2  0  0  0  0
 26 27  1  0  0  0  0
 27 31  1  0  0  0  0
 29 27  1  0  0  0  0
 31 32  1  0  0  0  0
 31 30  1  0  0  0  0
 35 34  1  1  0  0  0
 35 36  1  0  0  0  0
 35 33  1  0  0  0  0
 37 36  1  0  0  0  0
 38 37  1  0  0  0  0
M  END
>  <MODEL>
7

>  <REMARK>
 VINA RESULT:      -6.2      2.125      7.636
  Name = 
  13 active torsions:
  status: ('A' for Active; 'I' for Inactive)
    1  A    between atoms: C_1  and  C_7
    2  A    between atoms: C_3  and  C_18
    3  A    between atoms: C_4  and  O_29
    4  A    between atoms: C_7  and  C_31
    5  A    between atoms: C_10  and  C_19
    6  A    between atoms: C_10  and  C_31
    7  A    between atoms: C_17  and  C_18
    8  A    between atoms: C_17  and  O_26
    9  A    between atoms: C_19  and  C_30
   10  A    between atoms: C_19  and  C_38
   11  A    between atoms: N_21  and  C_24
   12  A    between atoms: O_26  and  C_33
   13  A    between atoms: O_29  and  C_33
                            x       y       z     vdW  Elec       q    Type
                         _______ _______ _______ _____ _____    ______ ____

>  <TORSDO>
F 13

$$$$
=
 OpenBabel10232410343D

 38 40  0  0  1  0  0  0  0  0999 V2000
  185.0350  177.7020  137.8970 C   0  0  2  0  0  3  0  0  0  0  0  0
  189.9290  174.1160  137.0170 C   0  0  0  0  0  3  0  0  0  0  0  0
  189.4480  177.7860  138.9870 N   0  0  0  0  0  0  0  0  0  0  0  0
  190.7800  175.8750  138.3320 C   0  0  0  0  0  0  0  0  0  0  0  0
  190.9500  174.6920  137.6900 N   0  0  0  0  0  0  0  0  0  0  0  0
  188.4700  178.6000  139.2230 C   0  0  0  0  0  3  0  0  0  0  0  0
  188.7180  174.7230  136.9810 N   0  0  0  0  0  0  0  0  0  0  0  0
  189.5350  176.5260  138.3150 C   0  0  0  0  0  0  0  0  0  0  0  0
  188.4850  175.9080  137.6070 C   0  0  0  0  0  0  0  0  0  0  0  0
  186.5080  177.5370  138.1230 C   0  0  0  0  0  0  0  0  0  0  0  0
  191.8870  176.4560  139.0180 N   0  0  0  0  0  1  0  0  0  0  0  0
  187.1040  178.4320  138.8410 N   0  0  0  0  0  0  0  0  0  0  0  0
  187.1690  176.4390  137.4940 N   0  0  0  0  0  2  0  0  0  0  0  0
  182.6930  178.5710  140.7690 C   0  0  1  0  0  3  0  0  0  0  0  0
  183.8550  178.9190  139.8580 C   0  0  2  0  0  3  0  0  0  0  0  0
  182.1040  177.2590  140.2510 C   0  0  0  0  0  2  0  0  0  0  0  0
  183.3740  179.9440  138.8370 C   0  0  0  0  0  1  0  0  0  0  0  0
  182.9570  176.8180  139.0780 C   0  0  0  0  0  2  0  0  0  0  0  0
  184.2530  177.5910  139.2160 C   0  0  1  0  0  3  0  0  0  0  0  0
  183.1740  178.3910  142.0960 O   0  0  0  0  0  0  0  0  0  0  0  0
  181.3520  179.3780  143.1150 O   0  0  0  0  0  0  0  0  0  0  0  0
  182.5370  178.9520  143.2040 C   0  0  0  0  0  0  0  0  0  0  0  0
  183.2330  179.0380  144.4120 O   0  0  0  0  0  0  0  0  0  0  0  0
  184.6170  179.3660  144.4760 C   0  0  0  0  0  2  0  0  0  0  0  0
  185.4500  178.1360  144.8080 C   0  0  0  0  0  2  0  0  0  0  0  0
  186.6210  178.0260  143.8870 C   0  0  0  0  0  0  0  0  0  0  0  0
  187.9090  177.6460  144.3880 N   0  0  0  0  0  0  0  0  0  0  0  0
  186.4650  178.2910  142.6650 O   0  0  0  0  0  0  0  0  0  0  0  0
  188.0710  177.3860  145.7090 O   0  0  0  0  0  1  0  0  0  0  0  0
  189.2580  176.1640  142.9900 C   0  0  0  0  0  1  0  0  0  0  0  0
  189.0590  177.5830  143.4930 C   0  0  0  0  0  3  0  0  0  0  0  0
  190.3090  178.0580  144.2080 C   0  0  0  0  0  1  0  0  0  0  0  0
  184.5420  176.6680  136.8860 C   0  0  0  0  0  2  0  0  0  0  0  0
  185.0930  177.1010  134.6140 O   0  0  0  0  0  1  0  0  0  0  0  0
  184.1150  177.3270  135.5830 C   0  0  1  0  0  3  0  0  0  0  0  0
  182.7880  176.7540  135.1160 C   0  0  0  0  0  2  0  0  0  0  0  0
  182.6400  175.3210  135.5900 C   0  0  0  0  0  2  0  0  0  0  0  0
  181.3420  175.1510  136.2140 N   0  0  0  0  0  1  0  0  0  0  0  0
  1 33  1  6  0  0  0
  1 10  1  0  0  0  0
  2  5  2  0  0  0  0
  3  6  2  0  0  0  0
  4 11  1  0  0  0  0
  5  4  1  0  0  0  0
  7  2  1  0  0  0  0
  7  9  2  0  0  0  0
  8  4  2  0  0  0  0
  8  3  1  0  0  0  0
  9  8  1  0  0  0  0
 10 12  2  0  0  0  0
 12  6  1  0  0  0  0
 13  9  1  0  0  0  0
 13 10  1  0  0  0  0
 14 20  1  1  0  0  0
 15 17  1  6  0  0  0
 15 14  1  0  0  0  0
 16 14  1  0  0  0  0
 18 19  1  0  0  0  0
 18 16  1  0  0  0  0
 19  1  1  6  0  0  0
 19 15  1  0  0  0  0
 20 22  1  0  0  0  0
 21 22  2  0  0  0  0
 22 23  1  0  0  0  0
 23 24  1  0  0  0  0
 24 25  1  0  0  0  0
 26 27  1  0  0  0  0
 26 25  1  0  0  0  0
 27 29  1  0  0  0  0
 28 26  2  0  0  0  0
 30 31  1  0  0  0  0
 31 32  1  0  0  0  0
 31 27  1  0  0  0  0
 35 34  1  6  0  0  0
 35 33  1  0  0  0  0
 36 35  1  0  0  0  0
 36 37  1  0  0  0  0
 37 38  1  0  0  0  0
M  END
>  <MODEL>
8

>  <REMARK>
 VINA RESULT:      -6.2      3.161      9.395
  Name = 
  13 active torsions:
  status: ('A' for Active; 'I' for Inactive)
    1  A    between atoms: C_1  and  C_7
    2  A    between atoms: C_3  and  C_18
    3  A    between atoms: C_4  and  O_29
    4  A    between atoms: C_7  and  C_31
    5  A    between atoms: C_10  and  C_19
    6  A    between atoms: C_10  and  C_31
    7  A    between atoms: C_17  and  C_18
    8  A    between atoms: C_17  and  O_26
    9  A    between atoms: C_19  and  C_30
   10  A    between atoms: C_19  and  C_38
   11  A    between atoms: N_21  and  C_24
   12  A    between atoms: O_26  and  C_33
   13  A    between atoms: O_29  and  C_33
                            x       y       z     vdW  Elec       q    Type
                         _______ _______ _______ _____ _____    ______ ____

>  <TORSDO>
F 13

$$$$
=
 OpenBabel10232410343D

 38 40  0  0  1  0  0  0  0  0999 V2000
  182.0750  177.8340  140.0180 C   0  0  2  0  0  3  0  0  0  0  0  0
  184.7410  173.2950  136.8750 C   0  0  0  0  0  3  0  0  0  0  0  0
  180.7330  174.0880  137.8160 N   0  0  0  0  0  0  0  0  0  0  0  0
  182.4460  172.7960  136.6980 C   0  0  0  0  0  0  0  0  0  0  0  0
  183.7390  172.5230  136.3950 N   0  0  0  0  0  0  0  0  0  0  0  0
  180.0870  175.0080  138.4590 C   0  0  0  0  0  3  0  0  0  0  0  0
  184.4540  174.3550  137.6680 N   0  0  0  0  0  0  0  0  0  0  0  0
  182.1180  173.8910  137.5150 C   0  0  0  0  0  0  0  0  0  0  0  0
  183.1770  174.6810  138.0040 C   0  0  0  0  0  0  0  0  0  0  0  0
  181.8610  176.5530  139.2660 C   0  0  0  0  0  0  0  0  0  0  0  0
  181.4210  171.9490  136.1840 N   0  0  0  0  0  1  0  0  0  0  0  0
  180.6410  176.1640  139.0870 N   0  0  0  0  0  0  0  0  0  0  0  0
  183.0100  175.8200  138.8430 N   0  0  0  0  0  2  0  0  0  0  0  0
  185.5960  179.0090  140.8560 C   0  0  1  0  0  3  0  0  0  0  0  0
  184.5330  178.6390  139.8400 C   0  0  2  0  0  3  0  0  0  0  0  0
  184.9280  178.9740  142.2290 C   0  0  0  0  0  2  0  0  0  0  0  0
  183.9910  179.9230  139.2220 C   0  0  0  0  0  1  0  0  0  0  0  0
  183.4940  178.5280  142.0170 C   0  0  0  0  0  2  0  0  0  0  0  0
  183.4780  177.8830  140.6470 C   0  0  1  0  0  3  0  0  0  0  0  0
  186.6460  178.0500  140.8080 O   0  0  0  0  0  0  0  0  0  0  0  0
  188.4170  178.7660  139.5090 O   0  0  0  0  0  0  0  0  0  0  0  0
  187.9840  178.4140  140.6420 C   0  0  0  0  0  0  0  0  0  0  0  0
  188.8360  178.3780  141.7480 O   0  0  0  0  0  0  0  0  0  0  0  0
  189.9180  177.4580  141.8500 C   0  0  0  0  0  2  0  0  0  0  0  0
  189.7170  176.5130  143.0270 C   0  0  0  0  0  2  0  0  0  0  0  0
  189.3710  177.2760  144.2640 C   0  0  0  0  0  0  0  0  0  0  0  0
  188.0350  177.2580  144.7810 N   0  0  0  0  0  0  0  0  0  0  0  0
  190.2670  177.9520  144.8370 O   0  0  0  0  0  0  0  0  0  0  0  0
  187.0730  176.5460  144.1450 O   0  0  0  0  0  1  0  0  0  0  0  0
  188.0760  177.2840  147.2240 C   0  0  0  0  0  1  0  0  0  0  0  0
  187.6920  178.0390  145.9650 C   0  0  0  0  0  3  0  0  0  0  0  0
  186.2070  178.3470  145.9790 C   0  0  0  0  0  1  0  0  0  0  0  0
  180.9960  177.9990  141.0860 C   0  0  0  0  0  2  0  0  0  0  0  0
  180.4140  180.2090  141.7430 O   0  0  0  0  0  1  0  0  0  0  0  0
  180.1240  179.2140  140.8090 C   0  0  1  0  0  3  0  0  0  0  0  0
  180.3840  179.7360  139.4060 C   0  0  0  0  0  2  0  0  0  0  0  0
  180.0790  181.2190  139.3330 C   0  0  0  0  0  2  0  0  0  0  0  0
  181.0790  181.8790  138.5150 N   0  0  0  0  0  1  0  0  0  0  0  0
  1 33  1  1  0  0  0
  2  7  1  0  0  0  0
  3  6  2  0  0  0  0
  4  8  2  0  0  0  0
  5  4  1  0  0  0  0
  5  2  2  0  0  0  0
  6 12  1  0  0  0  0
  7  9  2  0  0  0  0
  8  3  1  0  0  0  0
  8  9  1  0  0  0  0
  9 13  1  0  0  0  0
 10  1  1  0  0  0  0
 11  4  1  0  0  0  0
 12 10  2  0  0  0  0
 13 10  1  0  0  0  0
 14 20  1  1  0  0  0
 14 16  1  0  0  0  0
 15 17  1  1  0  0  0
 15 19  1  0  0  0  0
 15 14  1  0  0  0  0
 18 16  1  0  0  0  0
 19  1  1  6  0  0  0
 19 18  1  0  0  0  0
 21 22  2  0  0  0  0
 22 20  1  0  0  0  0
 22 23  1  0  0  0  0
 23 24  1  0  0  0  0
 24 25  1  0  0  0  0
 25 26  1  0  0  0  0
 26 27  1  0  0  0  0
 26 28  2  0  0  0  0
 27 31  1  0  0  0  0
 29 27  1  0  0  0  0
 31 32  1  0  0  0  0
 31 30  1  0  0  0  0
 35 33  1  0  0  0  0
 35 34  1  1  0  0  0
 36 35  1  0  0  0  0
 37 36  1  0  0  0  0
 38 37  1  0  0  0  0
M  END
>  <MODEL>
9

>  <REMARK>
 VINA RESULT:      -6.2      3.815      8.305
  Name = 
  13 active torsions:
  status: ('A' for Active; 'I' for Inactive)
    1  A    between atoms: C_1  and  C_7
    2  A    between atoms: C_3  and  C_18
    3  A    between atoms: C_4  and  O_29
    4  A    between atoms: C_7  and  C_31
    5  A    between atoms: C_10  and  C_19
    6  A    between atoms: C_10  and  C_31
    7  A    between atoms: C_17  and  C_18
    8  A    between atoms: C_17  and  O_26
    9  A    between atoms: C_19  and  C_30
   10  A    between atoms: C_19  and  C_38
   11  A    between atoms: N_21  and  C_24
   12  A    between atoms: O_26  and  C_33
   13  A    between atoms: O_29  and  C_33
                            x       y       z     vdW  Elec       q    Type
                         _______ _______ _______ _____ _____    ______ ____

>  <TORSDO>
F 13

$$$$
