=
 OpenBabel10232410203D

 29 33  0  0  1  0  0  0  0  0999 V2000
  188.2810  175.3020  137.3570 C   0  0  0  0  0  1  0  0  0  0  0  0
  189.4380  178.0180  136.4720 C   0  0  0  0  0  2  0  0  0  0  0  0
  188.2740  178.2650  138.6640 C   0  0  0  0  0  0  0  0  0  0  0  0
  190.2490  176.8860  137.0960 C   0  0  1  0  0  3  0  0  0  0  0  0
  189.3890  176.0630  138.0720 C   0  0  1  0  0  3  0  0  0  0  0  0
  188.7890  176.9430  139.1780 C   0  0  1  0  0  3  0  0  0  0  0  0
  188.9900  178.9890  137.5600 C   0  0  0  0  0  2  0  0  0  0  0  0
  187.3050  178.7810  139.1930 O   0  0  0  0  0  0  0  0  0  0  0  0
  192.0250  175.2780  136.2560 C   0  0  0  0  0  0  0  0  0  0  0  0
  195.7420  172.7880  135.6430 C   0  0  0  0  0  2  0  0  0  0  0  0
  192.6920  175.3170  137.5810 C   0  0  0  0  0  3  0  0  0  0  0  0
  194.6820  173.7970  135.8840 C   0  0  0  0  0  0  0  0  0  0  0  0
  192.4140  174.4990  135.2850 N   0  0  0  0  0  0  0  0  0  0  0  0
  193.9980  175.1750  137.7910 C   0  0  0  0  0  3  0  0  0  0  0  0
  190.8310  176.0420  136.0600 N   0  0  0  0  0  2  0  0  0  0  0  0
  193.5020  172.4190  134.3460 C   0  0  0  0  0  2  0  0  0  0  0  0
  193.5360  173.5990  135.2430 C   0  0  0  0  0  0  0  0  0  0  0  0
  194.9750  175.0210  136.6780 C   0  0  0  0  0  2  0  0  0  0  0  0
  195.0000  171.4390  134.6720 S   0  0  0  0  0  0  0  0  0  0  0  0
  190.7140  177.3670  142.3590 C   0  0  0  0  0  0  0  0  0  0  0  0
  191.0470  177.3300  140.2080 C   0  0  0  0  0  3  0  0  0  0  0  0
  189.8090  177.3270  144.5390 C   0  0  0  0  0  0  0  0  0  0  0  0
  188.4120  177.0690  143.9740 C   0  0  0  0  0  2  0  0  0  0  0  0
  189.9650  177.4240  145.9500 N   0  0  0  0  0  1  0  0  0  0  0  0
  189.4500  177.1290  141.7510 C   0  0  0  0  0  0  0  0  0  0  0  0
  189.7350  177.1110  140.3280 C   0  0  0  0  0  0  0  0  0  0  0  0
  191.6660  177.4870  141.4960 N   0  0  0  0  0  0  0  0  0  0  0  0
  188.3400  176.9810  142.4610 C   0  0  0  0  0  3  0  0  0  0  0  0
  190.8580  177.4620  143.7730 N   0  0  0  0  0  0  0  0  0  0  0  0
  2  4  1  0  0  0  0
  2  7  1  0  0  0  0
  3  6  1  0  0  0  0
  3  8  2  0  0  0  0
  4 15  1  6  0  0  0
  4  5  1  0  0  0  0
  5  1  1  6  0  0  0
  5  6  1  0  0  0  0
  6 26  1  1  0  0  0
  7  3  1  0  0  0  0
  9 11  1  0  0  0  0
 10 12  1  0  0  0  0
 11 14  2  0  0  0  0
 12 18  1  0  0  0  0
 13  9  2  0  0  0  0
 15  9  1  0  0  0  0
 16 19  1  0  0  0  0
 16 17  1  0  0  0  0
 17 13  1  0  0  0  0
 17 12  2  0  0  0  0
 18 14  1  0  0  0  0
 19 10  1  0  0  0  0
 20 29  1  0  0  0  0
 21 26  2  0  0  0  0
 21 27  1  0  0  0  0
 22 24  1  0  0  0  0
 23 22  1  0  0  0  0
 25 20  1  0  0  0  0
 25 28  2  0  0  0  0
 26 25  1  0  0  0  0
 27 20  2  0  0  0  0
 28 23  1  0  0  0  0
 29 22  2  0  0  0  0
M  END
>  <MODEL>
1

>  <REMARK>
 VINA RESULT:      -7.4      0.000      0.000
  Name = 
  2 active torsions:
  status: ('A' for Active; 'I' for Inactive)
    1  A    between atoms: C_14  and  N_23
    2  A    between atoms: C_15  and  C_19
                            x       y       z     vdW  Elec       q    Type
                         _______ _______ _______ _____ _____    ______ ____

>  <TORSDO>
F 2

$$$$
=
 OpenBabel10232410203D

 29 33  0  0  1  0  0  0  0  0999 V2000
  192.1800  176.6480  137.9050 C   0  0  0  0  0  1  0  0  0  0  0  0
  189.6930  178.2530  138.7590 C   0  0  0  0  0  2  0  0  0  0  0  0
  189.3010  177.2020  136.5320 C   0  0  0  0  0  0  0  0  0  0  0  0
  190.0590  176.8680  139.2840 C   0  0  1  0  0  3  0  0  0  0  0  0
  190.8130  176.0540  138.2160 C   0  0  1  0  0  3  0  0  0  0  0  0
  189.9950  175.9210  136.9240 C   0  0  1  0  0  3  0  0  0  0  0  0
  188.7360  178.1190  137.5780 C   0  0  0  0  0  2  0  0  0  0  0  0
  189.1400  177.4650  135.3520 O   0  0  0  0  0  0  0  0  0  0  0  0
  190.2370  176.9400  141.8150 C   0  0  0  0  0  0  0  0  0  0  0  0
  189.4680  177.2620  146.2530 C   0  0  0  0  0  2  0  0  0  0  0  0
  188.7690  176.7570  141.9270 C   0  0  0  0  0  3  0  0  0  0  0  0
  189.5800  177.3650  144.7780 C   0  0  0  0  0  0  0  0  0  0  0  0
  191.0330  176.9680  142.8490 N   0  0  0  0  0  0  0  0  0  0  0  0
  188.0050  177.2380  142.9050 C   0  0  0  0  0  3  0  0  0  0  0  0
  190.8320  176.9750  140.5140 N   0  0  0  0  0  2  0  0  0  0  0  0
  191.6960  176.3740  145.2140 C   0  0  0  0  0  2  0  0  0  0  0  0
  190.7020  176.8950  144.2460 C   0  0  0  0  0  0  0  0  0  0  0  0
  188.5460  178.0970  143.9940 C   0  0  0  0  0  2  0  0  0  0  0  0
  190.8840  176.2800  146.8400 S   0  0  0  0  0  0  0  0  0  0  0  0
  187.2500  173.3850  137.1230 C   0  0  0  0  0  0  0  0  0  0  0  0
  189.4240  173.4790  137.0490 C   0  0  0  0  0  3  0  0  0  0  0  0
  184.9370  173.8530  137.1850 C   0  0  0  0  0  0  0  0  0  0  0  0
  185.2200  175.3520  137.0890 C   0  0  0  0  0  2  0  0  0  0  0  0
  183.5850  173.4180  137.2630 N   0  0  0  0  0  1  0  0  0  0  0  0
  187.6000  174.7610  137.0320 C   0  0  0  0  0  0  0  0  0  0  0  0
  189.0510  174.7590  136.9820 C   0  0  0  0  0  0  0  0  0  0  0  0
  188.2810  172.6100  137.1340 N   0  0  0  0  0  0  0  0  0  0  0  0
  186.6890  175.7240  137.0110 C   0  0  0  0  0  3  0  0  0  0  0  0
  185.8920  172.9620  137.2000 N   0  0  0  0  0  0  0  0  0  0  0  0
  2  4  1  0  0  0  0
  3  6  1  0  0  0  0
  3  7  1  0  0  0  0
  4 15  1  1  0  0  0
  5  1  1  6  0  0  0
  5  4  1  0  0  0  0
  6 26  1  1  0  0  0
  6  5  1  0  0  0  0
  7  2  1  0  0  0  0
  8  3  2  0  0  0  0
  9 11  1  0  0  0  0
  9 13  2  0  0  0  0
 10 19  1  0  0  0  0
 11 14  2  0  0  0  0
 12 10  1  0  0  0  0
 13 17  1  0  0  0  0
 14 18  1  0  0  0  0
 15  9  1  0  0  0  0
 16 19  1  0  0  0  0
 17 12  2  0  0  0  0
 17 16  1  0  0  0  0
 18 12  1  0  0  0  0
 20 27  2  0  0  0  0
 20 29  1  0  0  0  0
 21 27  1  0  0  0  0
 22 29  2  0  0  0  0
 22 24  1  0  0  0  0
 23 22  1  0  0  0  0
 25 20  1  0  0  0  0
 26 25  1  0  0  0  0
 26 21  2  0  0  0  0
 28 25  2  0  0  0  0
 28 23  1  0  0  0  0
M  END
>  <MODEL>
2

>  <REMARK>
 VINA RESULT:      -7.2      3.708      7.656
  Name = 
  2 active torsions:
  status: ('A' for Active; 'I' for Inactive)
    1  A    between atoms: C_14  and  N_23
    2  A    between atoms: C_15  and  C_19
                            x       y       z     vdW  Elec       q    Type
                         _______ _______ _______ _____ _____    ______ ____

>  <TORSDO>
F 2

$$$$
=
 OpenBabel10232410203D

 29 33  0  0  1  0  0  0  0  0999 V2000
  185.1600  178.0250  137.6680 C   0  0  0  0  0  1  0  0  0  0  0  0
  183.2970  179.9110  139.2370 C   0  0  0  0  0  2  0  0  0  0  0  0
  182.0430  178.8450  137.3640 C   0  0  0  0  0  0  0  0  0  0  0  0
  183.7000  178.5110  139.6870 C   0  0  1  0  0  3  0  0  0  0  0  0
  183.9470  177.5910  138.4780 C   0  0  1  0  0  3  0  0  0  0  0  0
  182.7130  177.5090  137.5680 C   0  0  1  0  0  3  0  0  0  0  0  0
  181.9740  179.8470  138.4800 C   0  0  0  0  0  2  0  0  0  0  0  0
  181.4960  179.0900  136.3010 O   0  0  0  0  0  0  0  0  0  0  0  0
  184.7830  178.4960  141.9840 C   0  0  0  0  0  0  0  0  0  0  0  0
  185.6760  178.6760  146.4060 C   0  0  0  0  0  2  0  0  0  0  0  0
  183.4510  178.3230  142.6140 C   0  0  0  0  0  3  0  0  0  0  0  0
  185.2500  178.8270  144.9940 C   0  0  0  0  0  0  0  0  0  0  0  0
  185.8990  178.4820  142.6590 N   0  0  0  0  0  0  0  0  0  0  0  0
  183.1030  178.7780  143.8150 C   0  0  0  0  0  3  0  0  0  0  0  0
  184.8680  178.5690  140.5570 N   0  0  0  0  0  2  0  0  0  0  0  0
  187.3600  177.8030  144.6060 C   0  0  0  0  0  2  0  0  0  0  0  0
  186.0940  178.3650  144.0800 C   0  0  0  0  0  0  0  0  0  0  0  0
  184.0180  179.5940  144.6590 C   0  0  0  0  0  2  0  0  0  0  0  0
  187.1880  177.6630  146.4130 S   0  0  0  0  0  0  0  0  0  0  0  0
  180.4860  174.5940  138.3060 C   0  0  0  0  0  0  0  0  0  0  0  0
  180.8500  176.6250  139.0010 C   0  0  0  0  0  3  0  0  0  0  0  0
  180.5070  172.5170  137.1830 C   0  0  0  0  0  0  0  0  0  0  0  0
  181.6570  172.9900  136.2940 C   0  0  0  0  0  2  0  0  0  0  0  0
  179.9950  171.2040  136.9930 N   0  0  0  0  0  1  0  0  0  0  0  0
  181.5530  175.1120  137.5220 C   0  0  0  0  0  0  0  0  0  0  0  0
  181.7510  176.4570  138.0300 C   0  0  0  0  0  0  0  0  0  0  0  0
  180.0520  175.4420  139.1770 N   0  0  0  0  0  0  0  0  0  0  0  0
  182.1380  174.4030  136.5660 C   0  0  0  0  0  3  0  0  0  0  0  0
  179.9820  173.2760  138.1070 N   0  0  0  0  0  0  0  0  0  0  0  0
  2  4  1  0  0  0  0
  3  6  1  0  0  0  0
  3  7  1  0  0  0  0
  4 15  1  6  0  0  0
  5  1  1  6  0  0  0
  5  4  1  0  0  0  0
  6 26  1  1  0  0  0
  6  5  1  0  0  0  0
  7  2  1  0  0  0  0
  8  3  2  0  0  0  0
  9 11  1  0  0  0  0
  9 13  2  0  0  0  0
 10 19  1  0  0  0  0
 11 14  2  0  0  0  0
 12 10  1  0  0  0  0
 13 17  1  0  0  0  0
 14 18  1  0  0  0  0
 15  9  1  0  0  0  0
 16 19  1  0  0  0  0
 17 16  1  0  0  0  0
 17 12  2  0  0  0  0
 18 12  1  0  0  0  0
 20 27  2  0  0  0  0
 21 27  1  0  0  0  0
 22 29  2  0  0  0  0
 23 28  1  0  0  0  0
 23 22  1  0  0  0  0
 24 22  1  0  0  0  0
 25 26  1  0  0  0  0
 25 20  1  0  0  0  0
 26 21  2  0  0  0  0
 28 25  2  0  0  0  0
 29 20  1  0  0  0  0
M  END
>  <MODEL>
3

>  <REMARK>
 VINA RESULT:      -7.1      7.290     10.805
  Name = 
  2 active torsions:
  status: ('A' for Active; 'I' for Inactive)
    1  A    between atoms: C_14  and  N_23
    2  A    between atoms: C_15  and  C_19
                            x       y       z     vdW  Elec       q    Type
                         _______ _______ _______ _____ _____    ______ ____

>  <TORSDO>
F 2

$$$$
=
 OpenBabel10232410203D

 29 33  0  0  1  0  0  0  0  0999 V2000
  190.8910  178.7680  142.8980 C   0  0  0  0  0  1  0  0  0  0  0  0
  190.1100  175.8000  142.6200 C   0  0  0  0  0  2  0  0  0  0  0  0
  188.2640  177.0630  143.7220 C   0  0  0  0  0  0  0  0  0  0  0  0
  190.0590  176.8250  141.4910 C   0  0  1  0  0  3  0  0  0  0  0  0
  189.7560  178.2330  142.0350 C   0  0  1  0  0  3  0  0  0  0  0  0
  188.4400  178.2630  142.8250 C   0  0  1  0  0  3  0  0  0  0  0  0
  188.7440  175.7070  143.2910 C   0  0  0  0  0  2  0  0  0  0  0  0
  187.6690  177.1830  144.7800 O   0  0  0  0  0  0  0  0  0  0  0  0
  191.3630  176.4170  139.3510 C   0  0  0  0  0  0  0  0  0  0  0  0
  192.7730  175.1320  135.2580 C   0  0  0  0  0  2  0  0  0  0  0  0
  190.1090  176.0400  138.6540 C   0  0  0  0  0  3  0  0  0  0  0  0
  192.2350  175.3150  136.6280 C   0  0  0  0  0  0  0  0  0  0  0  0
  192.5150  176.5110  138.7450 N   0  0  0  0  0  0  0  0  0  0  0  0
  190.0160  175.1670  137.6550 C   0  0  0  0  0  3  0  0  0  0  0  0
  191.3000  176.8070  140.7270 N   0  0  0  0  0  2  0  0  0  0  0  0
  193.9900  176.9160  136.7330 C   0  0  0  0  0  2  0  0  0  0  0  0
  192.8380  176.2350  137.3710 C   0  0  0  0  0  0  0  0  0  0  0  0
  191.1860  174.3970  137.1520 C   0  0  0  0  0  2  0  0  0  0  0  0
  193.9970  176.4490  134.9740 S   0  0  0  0  0  0  0  0  0  0  0  0
  185.1940  178.7290  141.0220 C   0  0  0  0  0  0  0  0  0  0  0  0
  187.3230  178.5730  140.5960 C   0  0  0  0  0  3  0  0  0  0  0  0
  183.0580  178.8250  142.0220 C   0  0  0  0  0  0  0  0  0  0  0  0
  183.6800  178.6610  143.4090 C   0  0  0  0  0  2  0  0  0  0  0  0
  181.6440  178.9500  141.9210 N   0  0  0  0  0  1  0  0  0  0  0  0
  185.8530  178.5730  142.2730 C   0  0  0  0  0  0  0  0  0  0  0  0
  187.2590  178.4780  141.9270 C   0  0  0  0  0  0  0  0  0  0  0  0
  186.0140  178.7360  140.0250 N   0  0  0  0  0  0  0  0  0  0  0  0
  185.1920  178.5350  143.4210 C   0  0  0  0  0  3  0  0  0  0  0  0
  183.7770  178.8540  140.9330 N   0  0  0  0  0  0  0  0  0  0  0  0
  2  7  1  0  0  0  0
  3  8  2  0  0  0  0
  4 15  1  1  0  0  0
  4  5  1  0  0  0  0
  4  2  1  0  0  0  0
  5  6  1  0  0  0  0
  5  1  1  1  0  0  0
  6 26  1  6  0  0  0
  6  3  1  0  0  0  0
  7  3  1  0  0  0  0
  9 15  1  0  0  0  0
 10 12  1  0  0  0  0
 11  9  1  0  0  0  0
 12 18  1  0  0  0  0
 12 17  2  0  0  0  0
 13  9  2  0  0  0  0
 14 11  2  0  0  0  0
 16 17  1  0  0  0  0
 17 13  1  0  0  0  0
 18 14  1  0  0  0  0
 19 10  1  0  0  0  0
 19 16  1  0  0  0  0
 20 25  1  0  0  0  0
 21 26  2  0  0  0  0
 22 23  1  0  0  0  0
 23 28  1  0  0  0  0
 24 22  1  0  0  0  0
 25 28  2  0  0  0  0
 26 25  1  0  0  0  0
 27 21  1  0  0  0  0
 27 20  2  0  0  0  0
 29 20  1  0  0  0  0
 29 22  2  0  0  0  0
M  END
>  <MODEL>
4

>  <REMARK>
 VINA RESULT:      -7.1      3.621      5.189
  Name = 
  2 active torsions:
  status: ('A' for Active; 'I' for Inactive)
    1  A    between atoms: C_14  and  N_23
    2  A    between atoms: C_15  and  C_19
                            x       y       z     vdW  Elec       q    Type
                         _______ _______ _______ _____ _____    ______ ____

>  <TORSDO>
F 2

$$$$
=
 OpenBabel10232410203D

 29 33  0  0  1  0  0  0  0  0999 V2000
  182.0130  176.1790  139.3090 C   0  0  0  0  0  1  0  0  0  0  0  0
  182.3130  178.9770  138.0560 C   0  0  0  0  0  2  0  0  0  0  0  0
  181.8140  179.1870  140.4900 C   0  0  0  0  0  0  0  0  0  0  0  0
  183.4740  178.0610  138.4320 C   0  0  1  0  0  3  0  0  0  0  0  0
  183.1120  177.1780  139.6400 C   0  0  1  0  0  3  0  0  0  0  0  0
  182.7010  178.0220  140.8550 C   0  0  1  0  0  3  0  0  0  0  0  0
  182.0230  179.9370  139.2060 C   0  0  0  0  0  2  0  0  0  0  0  0
  180.9600  179.5630  141.2750 O   0  0  0  0  0  0  0  0  0  0  0  0
  185.2510  177.0280  136.9420 C   0  0  0  0  0  0  0  0  0  0  0  0
  189.0640  175.9300  134.7880 C   0  0  0  0  0  2  0  0  0  0  0  0
  186.3130  177.6120  137.7970 C   0  0  0  0  0  3  0  0  0  0  0  0
  187.8780  176.5290  135.4450 C   0  0  0  0  0  0  0  0  0  0  0  0
  185.5000  176.2270  135.9420 N   0  0  0  0  0  0  0  0  0  0  0  0
  187.5170  177.9910  137.3780 C   0  0  0  0  0  3  0  0  0  0  0  0
  183.8800  177.2540  137.2890 N   0  0  0  0  0  2  0  0  0  0  0  0
  186.8750  174.5020  134.7100 C   0  0  0  0  0  2  0  0  0  0  0  0
  186.7710  175.7960  135.4260 C   0  0  0  0  0  0  0  0  0  0  0  0
  187.9230  177.9300  135.9470 C   0  0  0  0  0  2  0  0  0  0  0  0
  188.6360  174.2170  134.3460 S   0  0  0  0  0  0  0  0  0  0  0  0
  185.3390  179.0720  143.2940 C   0  0  0  0  0  0  0  0  0  0  0  0
  185.0700  178.8060  141.1500 C   0  0  0  0  0  3  0  0  0  0  0  0
  185.0860  179.1950  145.6380 C   0  0  0  0  0  0  0  0  0  0  0  0
  183.6440  178.7000  145.5250 C   0  0  0  0  0  2  0  0  0  0  0  0
  185.6080  179.4860  146.9290 N   0  0  0  0  0  1  0  0  0  0  0  0
  184.0080  178.6080  143.1010 C   0  0  0  0  0  0  0  0  0  0  0  0
  183.8910  178.4470  141.6630 C   0  0  0  0  0  0  0  0  0  0  0  0
  185.9870  179.1980  142.1850 N   0  0  0  0  0  0  0  0  0  0  0  0
  183.1720  178.4160  144.1120 C   0  0  0  0  0  3  0  0  0  0  0  0
  185.8510  179.3590  144.5920 N   0  0  0  0  0  0  0  0  0  0  0  0
  2  4  1  0  0  0  0
  2  7  1  0  0  0  0
  3  6  1  0  0  0  0
  3  8  2  0  0  0  0
  4 15  1  6  0  0  0
  4  5  1  0  0  0  0
  5  1  1  6  0  0  0
  5  6  1  0  0  0  0
  6 26  1  6  0  0  0
  7  3  1  0  0  0  0
  9 15  1  0  0  0  0
  9 11  1  0  0  0  0
 10 12  1  0  0  0  0
 12 18  1  0  0  0  0
 13  9  2  0  0  0  0
 14 11  2  0  0  0  0
 16 17  1  0  0  0  0
 17 12  2  0  0  0  0
 17 13  1  0  0  0  0
 18 14  1  0  0  0  0
 19 16  1  0  0  0  0
 19 10  1  0  0  0  0
 20 29  1  0  0  0  0
 21 26  2  0  0  0  0
 21 27  1  0  0  0  0
 22 24  1  0  0  0  0
 23 22  1  0  0  0  0
 25 20  1  0  0  0  0
 25 28  2  0  0  0  0
 26 25  1  0  0  0  0
 27 20  2  0  0  0  0
 28 23  1  0  0  0  0
 29 22  2  0  0  0  0
M  END
>  <MODEL>
5

>  <REMARK>
 VINA RESULT:      -7.1      4.932      6.581
  Name = 
  2 active torsions:
  status: ('A' for Active; 'I' for Inactive)
    1  A    between atoms: C_14  and  N_23
    2  A    between atoms: C_15  and  C_19
                            x       y       z     vdW  Elec       q    Type
                         _______ _______ _______ _____ _____    ______ ____

>  <TORSDO>
F 2

$$$$
=
 OpenBabel10232410203D

 29 33  0  0  1  0  0  0  0  0999 V2000
  188.9500  178.9580  137.4080 C   0  0  0  0  0  1  0  0  0  0  0  0
  189.6640  175.9610  137.3410 C   0  0  0  0  0  2  0  0  0  0  0  0
  190.8360  177.0700  139.2420 C   0  0  0  0  0  0  0  0  0  0  0  0
  188.3600  176.5350  137.8860 C   0  0  1  0  0  3  0  0  0  0  0  0
  188.5780  177.9390  138.4770 C   0  0  1  0  0  3  0  0  0  0  0  0
  189.6430  177.9290  139.5820 C   0  0  1  0  0  3  0  0  0  0  0  0
  190.6650  175.7880  138.4790 C   0  0  0  0  0  2  0  0  0  0  0  0
  191.9420  177.3870  139.6460 O   0  0  0  0  0  0  0  0  0  0  0  0
  186.5130  175.4140  136.5510 C   0  0  0  0  0  0  0  0  0  0  0  0
  183.6760  172.4980  134.5930 C   0  0  0  0  0  2  0  0  0  0  0  0
  186.6870  174.1730  137.3460 C   0  0  0  0  0  3  0  0  0  0  0  0
  184.7890  173.2980  135.1590 C   0  0  0  0  0  0  0  0  0  0  0  0
  185.5760  175.5620  135.6560 N   0  0  0  0  0  0  0  0  0  0  0  0
  186.4730  172.9380  136.9010 C   0  0  0  0  0  3  0  0  0  0  0  0
  187.3340  176.5480  136.8510 N   0  0  0  0  0  2  0  0  0  0  0  0
  183.3050  175.0860  134.6540 C   0  0  0  0  0  2  0  0  0  0  0  0
  184.5940  174.6100  135.2110 C   0  0  0  0  0  0  0  0  0  0  0  0
  186.0870  172.6490  135.4930 C   0  0  0  0  0  2  0  0  0  0  0  0
  182.2650  173.6230  134.3490 S   0  0  0  0  0  0  0  0  0  0  0  0
  187.7920  177.4150  142.7930 C   0  0  0  0  0  0  0  0  0  0  0  0
  189.6500  176.8130  141.8320 C   0  0  0  0  0  3  0  0  0  0  0  0
  185.7020  178.3600  143.3520 C   0  0  0  0  0  0  0  0  0  0  0  0
  185.6290  179.0490  141.9890 C   0  0  0  0  0  2  0  0  0  0  0  0
  184.6300  178.5470  144.2680 N   0  0  0  0  0  1  0  0  0  0  0  0
  187.8040  178.0200  141.5060 C   0  0  0  0  0  0  0  0  0  0  0  0
  189.0550  177.5820  140.9160 C   0  0  0  0  0  0  0  0  0  0  0  0
  188.8460  176.7060  143.0190 N   0  0  0  0  0  0  0  0  0  0  0  0
  186.8160  178.7940  141.0780 C   0  0  0  0  0  3  0  0  0  0  0  0
  186.7120  177.6100  143.7020 N   0  0  0  0  0  0  0  0  0  0  0  0
  2  4  1  0  0  0  0
  2  7  1  0  0  0  0
  3  6  1  0  0  0  0
  3  8  2  0  0  0  0
  4 15  1  6  0  0  0
  4  5  1  0  0  0  0
  5  1  1  6  0  0  0
  5  6  1  0  0  0  0
  6 26  1  1  0  0  0
  7  3  1  0  0  0  0
  9 15  1  0  0  0  0
  9 11  1  0  0  0  0
 10 12  1  0  0  0  0
 12 17  2  0  0  0  0
 12 18  1  0  0  0  0
 13  9  2  0  0  0  0
 14 11  2  0  0  0  0
 16 17  1  0  0  0  0
 17 13  1  0  0  0  0
 18 14  1  0  0  0  0
 19 10  1  0  0  0  0
 19 16  1  0  0  0  0
 20 27  2  0  0  0  0
 20 29  1  0  0  0  0
 21 27  1  0  0  0  0
 22 29  2  0  0  0  0
 22 24  1  0  0  0  0
 23 22  1  0  0  0  0
 25 20  1  0  0  0  0
 26 25  1  0  0  0  0
 26 21  2  0  0  0  0
 28 25  2  0  0  0  0
 28 23  1  0  0  0  0
M  END
>  <MODEL>
6

>  <REMARK>
 VINA RESULT:      -7.0      4.004      6.099
  Name = 
  2 active torsions:
  status: ('A' for Active; 'I' for Inactive)
    1  A    between atoms: C_14  and  N_23
    2  A    between atoms: C_15  and  C_19
                            x       y       z     vdW  Elec       q    Type
                         _______ _______ _______ _____ _____    ______ ____

>  <TORSDO>
F 2

$$$$
=
 OpenBabel10232410203D

 29 33  0  0  1  0  0  0  0  0999 V2000
  189.3880  178.9570  138.3370 C   0  0  0  0  0  1  0  0  0  0  0  0
  186.9860  178.5160  140.2160 C   0  0  0  0  0  2  0  0  0  0  0  0
  186.3370  177.9800  137.8690 C   0  0  0  0  0  0  0  0  0  0  0  0
  188.1550  177.5490  140.0530 C   0  0  1  0  0  3  0  0  0  0  0  0
  188.7310  177.6140  138.6270 C   0  0  1  0  0  3  0  0  0  0  0  0
  187.6590  177.3180  137.5680 C   0  0  1  0  0  3  0  0  0  0  0  0
  185.8490  178.1110  139.2840 C   0  0  0  0  0  2  0  0  0  0  0  0
  185.6270  178.3540  136.9510 O   0  0  0  0  0  0  0  0  0  0  0  0
  189.0380  177.4530  142.4310 C   0  0  0  0  0  0  0  0  0  0  0  0
  189.5490  177.0850  146.9020 C   0  0  0  0  0  2  0  0  0  0  0  0
  187.8040  176.7530  142.8650 C   0  0  0  0  0  3  0  0  0  0  0  0
  189.1840  177.3520  145.4900 C   0  0  0  0  0  0  0  0  0  0  0  0
  190.0520  177.6690  143.2230 N   0  0  0  0  0  0  0  0  0  0  0  0
  187.2520  176.8430  144.0720 C   0  0  0  0  0  3  0  0  0  0  0  0
  189.1810  177.8120  141.0530 N   0  0  0  0  0  2  0  0  0  0  0  0
  191.5340  177.1400  145.2010 C   0  0  0  0  0  2  0  0  0  0  0  0
  190.1880  177.3580  144.6210 C   0  0  0  0  0  0  0  0  0  0  0  0
  187.7900  177.7360  145.1340 C   0  0  0  0  0  2  0  0  0  0  0  0
  191.3090  176.6200  146.9310 S   0  0  0  0  0  0  0  0  0  0  0  0
  186.7800  173.7140  137.0720 C   0  0  0  0  0  0  0  0  0  0  0  0
  188.5310  175.0070  137.1140 C   0  0  0  0  0  3  0  0  0  0  0  0
  184.6050  172.7990  137.1400 C   0  0  0  0  0  0  0  0  0  0  0  0
  184.0110  174.1840  137.3970 C   0  0  0  0  0  2  0  0  0  0  0  0
  183.7240  171.6850  137.0590 N   0  0  0  0  0  1  0  0  0  0  0  0
  186.3100  175.0360  137.3090 C   0  0  0  0  0  0  0  0  0  0  0  0
  187.5140  175.8470  137.3220 C   0  0  0  0  0  0  0  0  0  0  0  0
  188.0630  173.6570  136.9510 N   0  0  0  0  0  0  0  0  0  0  0  0
  185.0230  175.3120  137.4680 C   0  0  0  0  0  3  0  0  0  0  0  0
  185.8880  172.6060  136.9930 N   0  0  0  0  0  0  0  0  0  0  0  0
  3  7  1  0  0  0  0
  4  2  1  0  0  0  0
  4 15  1  1  0  0  0
  5  1  1  6  0  0  0
  5  4  1  0  0  0  0
  6 26  1  1  0  0  0
  6  3  1  0  0  0  0
  6  5  1  0  0  0  0
  7  2  1  0  0  0  0
  8  3  2  0  0  0  0
  9 11  1  0  0  0  0
  9 13  2  0  0  0  0
 10 19  1  0  0  0  0
 11 14  2  0  0  0  0
 12 10  1  0  0  0  0
 13 17  1  0  0  0  0
 14 18  1  0  0  0  0
 15  9  1  0  0  0  0
 16 19  1  0  0  0  0
 17 16  1  0  0  0  0
 17 12  2  0  0  0  0
 18 12  1  0  0  0  0
 20 25  1  0  0  0  0
 21 26  2  0  0  0  0
 22 23  1  0  0  0  0
 23 28  1  0  0  0  0
 24 22  1  0  0  0  0
 25 26  1  0  0  0  0
 25 28  2  0  0  0  0
 27 20  2  0  0  0  0
 27 21  1  0  0  0  0
 29 20  1  0  0  0  0
 29 22  2  0  0  0  0
M  END
>  <MODEL>
7

>  <REMARK>
 VINA RESULT:      -7.0      4.365      8.128
  Name = 
  2 active torsions:
  status: ('A' for Active; 'I' for Inactive)
    1  A    between atoms: C_14  and  N_23
    2  A    between atoms: C_15  and  C_19
                            x       y       z     vdW  Elec       q    Type
                         _______ _______ _______ _____ _____    ______ ____

>  <TORSDO>
F 2

$$$$
=
 OpenBabel10232410203D

 29 33  0  0  1  0  0  0  0  0999 V2000
  190.2940  175.6990  136.6410 C   0  0  0  0  0  1  0  0  0  0  0  0
  189.3120  178.3900  137.7750 C   0  0  0  0  0  2  0  0  0  0  0  0
  187.8470  177.6790  135.8870 C   0  0  0  0  0  0  0  0  0  0  0  0
  189.0530  177.0280  138.4130 C   0  0  1  0  0  3  0  0  0  0  0  0
  188.9620  175.9250  137.3430 C   0  0  1  0  0  3  0  0  0  0  0  0
  187.8720  176.2300  136.3060 C   0  0  1  0  0  3  0  0  0  0  0  0
  188.1380  178.7700  136.8780 C   0  0  0  0  0  2  0  0  0  0  0  0
  187.5240  177.9720  134.7480 O   0  0  0  0  0  0  0  0  0  0  0  0
  189.9110  176.9830  140.8020 C   0  0  0  0  0  0  0  0  0  0  0  0
  190.6110  177.6180  145.2170 C   0  0  0  0  0  2  0  0  0  0  0  0
  188.6300  177.5620  141.2770 C   0  0  0  0  0  3  0  0  0  0  0  0
  190.3610  177.6610  143.7560 C   0  0  0  0  0  0  0  0  0  0  0  0
  190.8640  176.6010  141.6080 N   0  0  0  0  0  0  0  0  0  0  0  0
  188.4890  178.3550  142.3360 C   0  0  0  0  0  3  0  0  0  0  0  0
  190.0760  176.7240  139.4040 N   0  0  0  0  0  2  0  0  0  0  0  0
  191.7580  175.7380  143.8080 C   0  0  0  0  0  2  0  0  0  0  0  0
  190.9250  176.6940  143.0420 C   0  0  0  0  0  0  0  0  0  0  0  0
  189.6470  178.8180  143.1490 C   0  0  0  0  0  2  0  0  0  0  0  0
  191.4700  176.0540  145.5770 S   0  0  0  0  0  0  0  0  0  0  0  0
  184.6520  174.5540  137.2170 C   0  0  0  0  0  0  0  0  0  0  0  0
  185.5710  176.5260  137.2710 C   0  0  0  0  0  3  0  0  0  0  0  0
  184.1520  172.2650  136.9230 C   0  0  0  0  0  0  0  0  0  0  0  0
  185.5470  172.0170  136.3470 C   0  0  0  0  0  2  0  0  0  0  0  0
  183.2540  171.1680  137.0290 N   0  0  0  0  0  1  0  0  0  0  0  0
  185.9670  174.4100  136.6930 C   0  0  0  0  0  0  0  0  0  0  0  0
  186.5260  175.7470  136.7580 C   0  0  0  0  0  0  0  0  0  0  0  0
  184.3860  175.7680  137.5650 N   0  0  0  0  0  0  0  0  0  0  0  0
  186.4370  173.2440  136.2720 C   0  0  0  0  0  3  0  0  0  0  0  0
  183.7610  173.4470  137.3180 N   0  0  0  0  0  0  0  0  0  0  0  0
  2  4  1  0  0  0  0
  3  6  1  0  0  0  0
  3  7  1  0  0  0  0
  4 15  1  1  0  0  0
  5  1  1  6  0  0  0
  5  4  1  0  0  0  0
  6 26  1  1  0  0  0
  6  5  1  0  0  0  0
  7  2  1  0  0  0  0
  8  3  2  0  0  0  0
  9 11  1  0  0  0  0
  9 13  2  0  0  0  0
 10 19  1  0  0  0  0
 11 14  2  0  0  0  0
 12 10  1  0  0  0  0
 13 17  1  0  0  0  0
 14 18  1  0  0  0  0
 15  9  1  0  0  0  0
 16 19  1  0  0  0  0
 17 12  2  0  0  0  0
 17 16  1  0  0  0  0
 18 12  1  0  0  0  0
 20 29  1  0  0  0  0
 20 27  2  0  0  0  0
 21 27  1  0  0  0  0
 22 24  1  0  0  0  0
 22 29  2  0  0  0  0
 23 22  1  0  0  0  0
 25 26  1  0  0  0  0
 25 20  1  0  0  0  0
 26 21  2  0  0  0  0
 28 23  1  0  0  0  0
 28 25  2  0  0  0  0
M  END
>  <MODEL>
8

>  <REMARK>
 VINA RESULT:      -6.8      4.068      7.601
  Name = 
  2 active torsions:
  status: ('A' for Active; 'I' for Inactive)
    1  A    between atoms: C_14  and  N_23
    2  A    between atoms: C_15  and  C_19
                            x       y       z     vdW  Elec       q    Type
                         _______ _______ _______ _____ _____    ______ ____

>  <TORSDO>
F 2

$$$$
=
 OpenBabel10232410203D

 29 33  0  0  1  0  0  0  0  0999 V2000
  191.4510  179.0240  142.9700 C   0  0  0  0  0  1  0  0  0  0  0  0
  190.3110  176.2620  142.2190 C   0  0  0  0  0  2  0  0  0  0  0  0
  191.2110  176.2040  144.5430 C   0  0  0  0  0  0  0  0  0  0  0  0
  189.4730  177.4670  142.6350 C   0  0  1  0  0  3  0  0  0  0  0  0
  190.2440  178.3620  143.6220 C   0  0  1  0  0  3  0  0  0  0  0  0
  190.6870  177.5820  144.8670 C   0  0  1  0  0  3  0  0  0  0  0  0
  190.6010  175.3920  143.4370 C   0  0  0  0  0  2  0  0  0  0  0  0
  192.0970  175.7200  145.2270 O   0  0  0  0  0  0  0  0  0  0  0  0
  189.1860  177.7310  140.1260 C   0  0  0  0  0  0  0  0  0  0  0  0
  189.4090  177.3740  135.6300 C   0  0  0  0  0  2  0  0  0  0  0  0
  189.7770  176.3870  139.9140 C   0  0  0  0  0  3  0  0  0  0  0  0
  189.5880  177.4790  137.0990 C   0  0  0  0  0  0  0  0  0  0  0  0
  188.6950  178.4560  139.1580 N   0  0  0  0  0  0  0  0  0  0  0  0
  190.4820  176.0150  138.8480 C   0  0  0  0  0  3  0  0  0  0  0  0
  189.0400  178.2190  141.4640 N   0  0  0  0  0  2  0  0  0  0  0  0
  187.6080  178.7810  136.9000 C   0  0  0  0  0  2  0  0  0  0  0  0
  188.6620  178.1760  137.7480 C   0  0  0  0  0  0  0  0  0  0  0  0
  190.8230  176.9560  137.7450 C   0  0  0  0  0  2  0  0  0  0  0  0
  187.7840  178.0870  135.2260 S   0  0  0  0  0  0  0  0  0  0  0  0
  187.6800  177.6870  147.0930 C   0  0  0  0  0  0  0  0  0  0  0  0
  189.8170  177.2880  147.2050 C   0  0  0  0  0  3  0  0  0  0  0  0
  185.4790  178.2130  146.4200 C   0  0  0  0  0  0  0  0  0  0  0  0
  185.9430  178.3850  144.9740 C   0  0  0  0  0  2  0  0  0  0  0  0
  184.1030  178.4130  146.7220 N   0  0  0  0  0  1  0  0  0  0  0  0
  188.1950  177.8280  145.7740 C   0  0  0  0  0  0  0  0  0  0  0  0
  189.6120  177.5480  145.9120 C   0  0  0  0  0  0  0  0  0  0  0  0
  188.5900  177.3730  147.9510 N   0  0  0  0  0  0  0  0  0  0  0  0
  187.4250  178.1520  144.7450 C   0  0  0  0  0  3  0  0  0  0  0  0
  186.3000  177.8900  147.3830 N   0  0  0  0  0  0  0  0  0  0  0  0
  2  4  1  0  0  0  0
  2  7  1  0  0  0  0
  3  6  1  0  0  0  0
  3  8  2  0  0  0  0
  4 15  1  6  0  0  0
  4  5  1  0  0  0  0
  5  1  1  6  0  0  0
  5  6  1  0  0  0  0
  6 26  1  1  0  0  0
  7  3  1  0  0  0  0
  9 15  1  0  0  0  0
 10 12  1  0  0  0  0
 11  9  1  0  0  0  0
 12 18  1  0  0  0  0
 12 17  2  0  0  0  0
 13  9  2  0  0  0  0
 14 11  2  0  0  0  0
 16 17  1  0  0  0  0
 17 13  1  0  0  0  0
 18 14  1  0  0  0  0
 19 10  1  0  0  0  0
 19 16  1  0  0  0  0
 20 29  1  0  0  0  0
 20 27  2  0  0  0  0
 21 27  1  0  0  0  0
 22 24  1  0  0  0  0
 22 29  2  0  0  0  0
 23 22  1  0  0  0  0
 25 26  1  0  0  0  0
 25 20  1  0  0  0  0
 26 21  2  0  0  0  0
 28 23  1  0  0  0  0
 28 25  2  0  0  0  0
M  END
>  <MODEL>
9

>  <REMARK>
 VINA RESULT:      -6.8      3.996      6.295
  Name = 
  2 active torsions:
  status: ('A' for Active; 'I' for Inactive)
    1  A    between atoms: C_14  and  N_23
    2  A    between atoms: C_15  and  C_19
                            x       y       z     vdW  Elec       q    Type
                         _______ _______ _______ _____ _____    ______ ____

>  <TORSDO>
F 2

$$$$
