=
 OpenBabel10232407513D

 61 65  0  0  1  0  0  0  0  0999 V2000
  185.8320  177.9910  144.9770 C   0  0  1  0  0  3  0  0  0  0  0  0
  187.0030  177.7650  147.0350 N   0  0  0  0  0  0  0  0  0  0  0  0
  187.0530  178.0420  145.7840 N   0  0  0  0  0  0  0  0  0  0  0  0
  188.1450  177.8820  147.8990 C   0  0  0  0  0  0  0  0  0  0  0  0
  188.0050  177.8380  149.1550 O   0  0  0  0  0  0  0  0  0  0  0  0
  189.4240  178.0650  147.3680 O   0  0  0  0  0  0  0  0  0  0  0  0
  190.2450  177.0250  146.8220 C   0  0  2  0  0  3  0  0  0  0  0  0
  191.5120  176.8220  147.6570 C   0  0  2  0  0  3  0  0  0  0  0  0
  192.4870  176.2030  146.8470 O   0  0  0  0  0  0  0  0  0  0  0  0
  191.8470  175.3870  147.7970 C   0  0  0  0  0  2  0  0  0  0  0  0
  190.6270  178.6920  144.9690 C   0  0  0  0  0  1  0  0  0  0  0  0
  190.5840  177.2110  145.3360 C   0  0  0  0  0  2  0  0  0  0  0  0
  185.3710  179.4360  144.7350 C   0  0  0  0  0  2  0  0  0  0  0  0
  184.6440  179.5880  143.4490 C   0  0  0  0  0  0  0  0  0  0  0  0
  185.2340  180.0430  142.4380 O   0  0  0  0  0  0  0  0  0  0  0  0
  183.2650  179.2030  143.3640 N   0  0  0  0  0  2  0  0  0  0  0  0
  182.7830  178.2190  142.3980 C   0  0  0  0  0  2  0  0  0  0  0  0
  180.0000  180.2280  140.9330 C   0  0  0  0  0  3  0  0  0  0  0  0
  182.0670  178.8590  141.2480 C   0  0  0  0  0  0  0  0  0  0  0  0
  182.7700  179.2050  140.2260 N   0  0  0  0  0  0  0  0  0  0  0  0
  180.5480  178.8650  141.2220 C   0  0  0  0  0  2  0  0  0  0  0  0
  182.2990  179.6900  138.9450 C   0  0  0  0  0  3  0  0  0  0  0  0
  181.1740  180.4020  138.7220 C   0  0  0  0  0  0  0  0  0  0  0  0
  180.2780  180.8810  139.7950 C   0  0  0  0  0  3  0  0  0  0  0  0
  180.6710  182.6380  135.5820 C   0  0  0  0  0  0  0  0  0  0  0  0
  180.9080  180.8350  137.3280 C   0  0  0  0  0  0  0  0  0  0  0  0
  180.8110  183.8300  135.2190 O   0  0  0  0  0  0  0  0  0  0  0  0
  180.6740  180.3110  134.9360 C   0  0  0  0  0  3  0  0  0  0  0  0
  180.5640  181.5830  134.5740 C   0  0  0  0  0  3  0  0  0  0  0  0
  180.9050  179.9350  136.3330 C   0  0  0  0  0  3  0  0  0  0  0  0
  180.6120  182.2980  137.0470 C   0  0  0  0  0  2  0  0  0  0  0  0
  186.1290  177.2530  143.6540 C   0  0  0  0  0  2  0  0  0  0  0  0
  188.2070  176.0620  143.1010 C   0  0  0  0  0  2  0  0  0  0  0  0
  188.8680  178.0700  141.0670 C   0  0  0  0  0  2  0  0  0  0  0  0
  187.5460  177.4190  143.1160 C   0  0  1  0  0  3  0  0  0  0  0  0
  189.8840  177.1110  141.5710 N   0  0  0  0  0  0  0  0  0  0  0  0
  189.6720  176.2100  142.7230 C   0  0  0  0  0  2  0  0  0  0  0  0
  192.1960  177.0650  141.9050 O   0  0  0  0  0  0  0  0  0  0  0  0
  191.2300  177.2330  141.1010 C   0  0  0  0  0  0  0  0  0  0  0  0
  187.4830  177.9030  141.6820 C   0  0  0  0  0  2  0  0  0  0  0  0
  191.5320  177.6500  139.6980 C   0  0  0  0  0  2  0  0  0  0  0  0
  192.0340  176.4890  138.8520 C   0  0  0  0  0  2  0  0  0  0  0  0
  190.8160  175.6230  138.5260 C   0  0  0  0  0  2  0  0  0  0  0  0
  190.5260  175.1870  136.2160 O   0  0  0  0  0  1  0  0  0  0  0  0
  190.0070  175.9340  137.2820 C   0  0  1  0  0  3  0  0  0  0  0  0
  188.4620  175.8370  137.2860 C   0  0  1  0  0  3  0  0  0  0  0  0
  187.8540  176.7710  138.1290 O   0  0  0  0  0  1  0  0  0  0  0  0
  187.8430  175.8410  135.8790 C   0  0  1  0  0  3  0  0  0  0  0  0
  185.5380  175.2130  135.9330 C   0  0  2  0  0  3  0  0  0  0  0  0
  186.8910  174.7980  135.6750 O   0  0  0  0  0  0  0  0  0  0  0  0
  187.2740  177.1850  135.5540 C   0  0  0  0  0  0  0  0  0  0  0  0
  185.8690  177.4240  135.9900 C   0  0  0  0  0  2  0  0  0  0  0  0
  187.8650  177.9440  134.8120 O   0  0  0  0  0  0  0  0  0  0  0  0
  185.4400  176.3350  136.7720 O   0  0  0  0  0  0  0  0  0  0  0  0
  184.6380  173.7720  136.5770 P   0  0  2  0  0  0  0  0  0  0  0  0
  183.0200  174.2070  136.7900 O   0  0  0  0  0  0  0  0  0  0  0  0
  185.1980  173.3470  137.9230 O   0  0  0  0  0  1  0  0  0  0  0  0
  184.6330  172.5210  135.4130 O   0  0  0  0  0  0  0  0  0  0  0  0
  183.3680  170.4700  136.7560 O   0  0  0  0  0  0  0  0  0  0  0  0
  183.2520  171.6130  135.7700 P   0  0  0  0  0  0  0  0  0  0  0  0
  181.9360  171.8050  135.0320 O   0  0  0  0  0  0  0  0  0  0  0  0
  1 32  1  6  0  0  0
  1  3  1  0  0  0  0
  2  4  1  0  0  0  0
  3  2  2  0  0  0  0
  4  5  2  0  0  0  0
  6  4  1  0  0  0  0
  7 12  1  6  0  0  0
  7  6  1  0  0  0  0
  8  7  1  6  0  0  0
  8 10  1  0  0  0  0
  9  8  1  0  0  0  0
  9 10  1  0  0  0  0
 11 12  1  0  0  0  0
 13  1  1  0  0  0  0
 14 13  1  0  0  0  0
 15 14  2  0  0  0  0
 16 14  1  0  0  0  0
 17 16  1  0  0  0  0
 18 21  1  0  0  0  0
 19 17  1  0  0  0  0
 20 19  2  0  0  0  0
 21 19  1  0  0  0  0
 22 20  1  0  0  0  0
 23 22  2  0  0  0  0
 23 24  1  0  0  0  0
 24 18  2  0  0  0  0
 25 31  1  0  0  0  0
 26 23  1  0  0  0  0
 27 25  2  0  0  0  0
 28 30  1  0  0  0  0
 29 28  2  0  0  0  0
 29 25  1  0  0  0  0
 30 26  2  0  0  0  0
 31 26  1  0  0  0  0
 33 35  1  0  0  0  0
 34 36  1  0  0  0  0
 34 40  1  0  0  0  0
 35 32  1  6  0  0  0
 36 37  1  0  0  0  0
 37 33  1  0  0  0  0
 39 36  1  0  0  0  0
 39 38  2  0  0  0  0
 40 35  1  0  0  0  0
 41 39  1  0  0  0  0
 42 41  1  0  0  0  0
 43 42  1  0  0  0  0
 45 44  1  6  0  0  0
 45 46  1  0  0  0  0
 45 43  1  0  0  0  0
 46 47  1  1  0  0  0
 48 46  1  1  0  0  0
 49 55  1  1  0  0  0
 49 54  1  0  0  0  0
 50 48  1  0  0  0  0
 50 49  1  0  0  0  0
 51 48  1  0  0  0  0
 51 52  1  0  0  0  0
 52 54  1  0  0  0  0
 53 51  2  0  0  0  0
 55 56  2  1  0  0  0
 55 57  1  0  0  0  0
 58 60  1  0  0  0  0
 58 55  1  0  0  0  0
 60 59  2  0  0  0  0
 61 60  2  0  0  0  0
M  END
>  <MODEL>
1

>  <REMARK>
 VINA RESULT:      -7.3      0.000      0.000
  Name = 
  22 active torsions:
  status: ('A' for Active; 'I' for Inactive)
    1  A    between atoms: C_1  and  C_6
    2  A    between atoms: C_1  and  N_32
    3  A    between atoms: C_3  and  C_12
    4  A    between atoms: P_5  and  C_11
    5  A    between atoms: P_5  and  O_36
    6  A    between atoms: C_8  and  C_23
    7  A    between atoms: C_8  and  C_42
    8  A    between atoms: C_10  and  C_47
    9  A    between atoms: C_12  and  C_42
   10  A    between atoms: C_14  and  C_19
   11  A    between atoms: C_16  and  C_45
   12  A    between atoms: C_17  and  C_18
   13  A    between atoms: C_17  and  C_53
   14  A    between atoms: C_18  and  C_55
   15  A    between atoms: C_19  and  C_38
   16  A    between atoms: C_19  and  O_52
   17  A    between atoms: N_22  and  C_33
   18  A    between atoms: C_33  and  O_52
   19  A    between atoms: O_36  and  P_40
   20  A    between atoms: N_37  and  C_42
   21  A    between atoms: C_47  and  C_61
   22  A    between atoms: C_53  and  C_61
                            x       y       z     vdW  Elec       q    Type
                         _______ _______ _______ _____ _____    ______ ____

>  <TORSDO>
F 22

$$$$
=
 OpenBabel10232407513D

 61 65  0  0  1  0  0  0  0  0999 V2000
  187.4260  178.2060  141.0320 C   0  0  1  0  0  3  0  0  0  0  0  0
  187.3270  177.3500  143.2500 N   0  0  0  0  0  0  0  0  0  0  0  0
  187.7370  178.2750  142.4620 N   0  0  0  0  0  0  0  0  0  0  0  0
  187.5220  177.4050  144.6730 C   0  0  0  0  0  0  0  0  0  0  0  0
  186.7160  176.8190  145.4520 O   0  0  0  0  0  0  0  0  0  0  0  0
  188.5920  178.1170  145.2180 O   0  0  0  0  0  0  0  0  0  0  0  0
  189.9010  177.5840  145.4540 C   0  0  2  0  0  3  0  0  0  0  0  0
  190.2770  176.5450  144.3960 C   0  0  2  0  0  3  0  0  0  0  0  0
  191.6650  176.3070  144.4740 O   0  0  0  0  0  0  0  0  0  0  0  0
  191.2220  177.0990  143.4000 C   0  0  0  0  0  2  0  0  0  0  0  0
  189.1300  177.6770  147.8540 C   0  0  0  0  0  1  0  0  0  0  0  0
  190.1050  177.0300  146.8720 C   0  0  0  0  0  2  0  0  0  0  0  0
  186.2750  179.1850  140.7570 C   0  0  0  0  0  2  0  0  0  0  0  0
  185.0480  178.8410  141.5200 C   0  0  0  0  0  0  0  0  0  0  0  0
  184.7790  179.4400  142.5910 O   0  0  0  0  0  0  0  0  0  0  0  0
  184.1630  177.8280  141.0210 N   0  0  0  0  0  2  0  0  0  0  0  0
  182.7490  178.0820  140.7540 C   0  0  0  0  0  2  0  0  0  0  0  0
  179.9830  176.6870  138.6740 C   0  0  0  0  0  3  0  0  0  0  0  0
  182.1350  177.0150  139.9020 C   0  0  0  0  0  0  0  0  0  0  0  0
  182.9310  176.2420  139.2480 N   0  0  0  0  0  0  0  0  0  0  0  0
  180.6460  176.7300  140.0150 C   0  0  0  0  0  2  0  0  0  0  0  0
  182.5960  175.0530  138.4910 C   0  0  0  0  0  3  0  0  0  0  0  0
  181.4360  174.8180  137.8410 C   0  0  0  0  0  0  0  0  0  0  0  0
  180.3420  175.8040  137.7300 C   0  0  0  0  0  3  0  0  0  0  0  0
  182.2250  171.8720  135.4300 C   0  0  0  0  0  0  0  0  0  0  0  0
  181.3250  173.5440  137.0890 C   0  0  0  0  0  0  0  0  0  0  0  0
  183.1610  171.4380  134.7170 O   0  0  0  0  0  0  0  0  0  0  0  0
  180.2790  171.3420  136.7580 C   0  0  0  0  0  3  0  0  0  0  0  0
  181.1290  170.9790  135.8060 C   0  0  0  0  0  3  0  0  0  0  0  0
  180.4140  172.6270  137.4490 C   0  0  0  0  0  3  0  0  0  0  0  0
  182.2310  173.3040  135.8940 C   0  0  0  0  0  2  0  0  0  0  0  0
  188.6900  178.5610  140.2200 C   0  0  0  0  0  2  0  0  0  0  0  0
  189.1000  178.5900  137.7970 C   0  0  0  0  0  2  0  0  0  0  0  0
  190.5980  176.0750  137.9750 C   0  0  0  0  0  2  0  0  0  0  0  0
  188.9480  177.6880  138.9970 C   0  0  1  0  0  3  0  0  0  0  0  0
  190.1170  176.6010  136.6730 N   0  0  0  0  0  0  0  0  0  0  0  0
  189.1980  177.7500  136.5330 C   0  0  0  0  0  2  0  0  0  0  0  0
  189.4200  175.7400  134.6150 O   0  0  0  0  0  0  0  0  0  0  0  0
  190.3280  175.8130  135.4980 C   0  0  0  0  0  0  0  0  0  0  0  0
  190.2600  176.9530  139.1750 C   0  0  0  0  0  2  0  0  0  0  0  0
  191.5630  174.9890  135.3220 C   0  0  0  0  0  2  0  0  0  0  0  0
  192.7340  175.8160  134.8120 C   0  0  0  0  0  2  0  0  0  0  0  0
  194.0070  175.0850  135.2380 C   0  0  0  0  0  2  0  0  0  0  0  0
  194.3560  176.8110  136.8230 O   0  0  0  0  0  1  0  0  0  0  0  0
  194.6770  175.4760  136.5410 C   0  0  1  0  0  3  0  0  0  0  0  0
  194.5090  174.6160  137.8170 C   0  0  1  0  0  3  0  0  0  0  0  0
  193.5310  173.6260  137.6900 O   0  0  0  0  0  1  0  0  0  0  0  0
  195.8340  174.0530  138.3570 C   0  0  1  0  0  3  0  0  0  0  0  0
  196.2530  171.8510  137.5300 C   0  0  2  0  0  3  0  0  0  0  0  0
  195.7860  172.6530  138.6290 O   0  0  0  0  0  0  0  0  0  0  0  0
  196.9680  174.4060  137.4500 C   0  0  0  0  0  0  0  0  0  0  0  0
  197.2220  173.4640  136.3230 C   0  0  0  0  0  2  0  0  0  0  0  0
  197.7410  175.2960  137.7440 O   0  0  0  0  0  0  0  0  0  0  0  0
  196.1940  172.5030  136.2870 O   0  0  0  0  0  0  0  0  0  0  0  0
  195.3140  170.2950  137.5520 P   0  0  2  0  0  0  0  0  0  0  0  0
  193.8910  170.5200  136.6710 O   0  0  0  0  0  0  0  0  0  0  0  0
  194.9390  169.9140  138.9740 O   0  0  0  0  0  1  0  0  0  0  0  0
  196.1830  169.0780  136.7260 O   0  0  0  0  0  0  0  0  0  0  0  0
  198.8800  169.6340  136.9020 O   0  0  0  0  0  0  0  0  0  0  0  0
  197.6650  168.9890  137.5360 P   0  0  0  0  0  0  0  0  0  0  0  0
  197.8560  168.1640  138.7990 O   0  0  0  0  0  0  0  0  0  0  0  0
  1 32  1  6  0  0  0
  1  3  1  0  0  0  0
  2  4  1  0  0  0  0
  3  2  2  0  0  0  0
  4  6  1  0  0  0  0
  4  5  2  0  0  0  0
  6  7  1  0  0  0  0
  7 12  1  1  0  0  0
  8  9  1  0  0  0  0
  8  7  1  1  0  0  0
 10  8  1  0  0  0  0
 10  9  1  0  0  0  0
 12 11  1  0  0  0  0
 13  1  1  0  0  0  0
 13 14  1  0  0  0  0
 14 15  2  0  0  0  0
 16 14  1  0  0  0  0
 17 16  1  0  0  0  0
 18 21  1  0  0  0  0
 19 21  1  0  0  0  0
 19 17  1  0  0  0  0
 20 19  2  0  0  0  0
 22 20  1  0  0  0  0
 23 22  2  0  0  0  0
 24 23  1  0  0  0  0
 24 18  2  0  0  0  0
 25 29  1  0  0  0  0
 25 31  1  0  0  0  0
 26 30  2  0  0  0  0
 26 23  1  0  0  0  0
 27 25  2  0  0  0  0
 28 30  1  0  0  0  0
 29 28  2  0  0  0  0
 31 26  1  0  0  0  0
 33 35  1  0  0  0  0
 34 40  1  0  0  0  0
 35 40  1  0  0  0  0
 35 32  1  1  0  0  0
 36 34  1  0  0  0  0
 37 36  1  0  0  0  0
 37 33  1  0  0  0  0
 38 39  2  0  0  0  0
 39 36  1  0  0  0  0
 41 39  1  0  0  0  0
 42 43  1  0  0  0  0
 42 41  1  0  0  0  0
 43 45  1  0  0  0  0
 45 44  1  1  0  0  0
 45 46  1  0  0  0  0
 46 47  1  6  0  0  0
 48 46  1  6  0  0  0
 48 50  1  0  0  0  0
 49 55  1  6  0  0  0
 49 50  1  0  0  0  0
 51 53  2  0  0  0  0
 51 48  1  0  0  0  0
 52 51  1  0  0  0  0
 54 52  1  0  0  0  0
 54 49  1  0  0  0  0
 55 56  2  6  0  0  0
 55 57  1  0  0  0  0
 58 60  1  0  0  0  0
 58 55  1  0  0  0  0
 59 60  2  0  0  0  0
 60 61  2  0  0  0  0
M  END
>  <MODEL>
2

>  <REMARK>
 VINA RESULT:      -6.8      4.840      7.525
  Name = 
  22 active torsions:
  status: ('A' for Active; 'I' for Inactive)
    1  A    between atoms: C_1  and  C_6
    2  A    between atoms: C_1  and  N_32
    3  A    between atoms: C_3  and  C_12
    4  A    between atoms: P_5  and  C_11
    5  A    between atoms: P_5  and  O_36
    6  A    between atoms: C_8  and  C_23
    7  A    between atoms: C_8  and  C_42
    8  A    between atoms: C_10  and  C_47
    9  A    between atoms: C_12  and  C_42
   10  A    between atoms: C_14  and  C_19
   11  A    between atoms: C_16  and  C_45
   12  A    between atoms: C_17  and  C_18
   13  A    between atoms: C_17  and  C_53
   14  A    between atoms: C_18  and  C_55
   15  A    between atoms: C_19  and  C_38
   16  A    between atoms: C_19  and  O_52
   17  A    between atoms: N_22  and  C_33
   18  A    between atoms: C_33  and  O_52
   19  A    between atoms: O_36  and  P_40
   20  A    between atoms: N_37  and  C_42
   21  A    between atoms: C_47  and  C_61
   22  A    between atoms: C_53  and  C_61
                            x       y       z     vdW  Elec       q    Type
                         _______ _______ _______ _____ _____    ______ ____

>  <TORSDO>
F 22

$$$$
=
 OpenBabel10232407513D

 61 65  0  0  1  0  0  0  0  0999 V2000
  187.1300  178.0480  142.3970 C   0  0  1  0  0  3  0  0  0  0  0  0
  187.3670  177.3620  144.6630 N   0  0  0  0  0  0  0  0  0  0  0  0
  187.2830  178.3300  143.8270 N   0  0  0  0  0  0  0  0  0  0  0  0
  187.4280  177.5710  146.0830 C   0  0  0  0  0  0  0  0  0  0  0  0
  186.4450  178.0750  146.6980 O   0  0  0  0  0  0  0  0  0  0  0  0
  188.5770  177.2390  146.8030 O   0  0  0  0  0  0  0  0  0  0  0  0
  189.8630  176.9750  146.2260 C   0  0  2  0  0  3  0  0  0  0  0  0
  190.9580  176.9630  147.2950 C   0  0  2  0  0  3  0  0  0  0  0  0
  192.1760  176.5980  146.6840 O   0  0  0  0  0  0  0  0  0  0  0  0
  191.5420  175.6120  147.4600 C   0  0  0  0  0  2  0  0  0  0  0  0
  190.8600  177.1280  143.9150 C   0  0  0  0  0  1  0  0  0  0  0  0
  190.2310  177.9110  145.0660 C   0  0  0  0  0  2  0  0  0  0  0  0
  185.9780  178.9150  141.8690 C   0  0  0  0  0  2  0  0  0  0  0  0
  184.9560  179.1890  142.9120 C   0  0  0  0  0  0  0  0  0  0  0  0
  185.0750  180.1840  143.6690 O   0  0  0  0  0  0  0  0  0  0  0  0
  183.8240  178.3180  143.0420 N   0  0  0  0  0  2  0  0  0  0  0  0
  182.4480  178.8000  142.9510 C   0  0  0  0  0  2  0  0  0  0  0  0
  180.7230  180.5060  140.1160 C   0  0  0  0  0  3  0  0  0  0  0  0
  181.9660  178.8670  141.5340 C   0  0  0  0  0  0  0  0  0  0  0  0
  182.6210  178.1970  140.6500 N   0  0  0  0  0  0  0  0  0  0  0  0
  180.6240  179.5110  141.2290 C   0  0  0  0  0  2  0  0  0  0  0  0
  182.2690  177.9740  139.2620 C   0  0  0  0  0  3  0  0  0  0  0  0
  181.5720  178.8140  138.4680 C   0  0  0  0  0  0  0  0  0  0  0  0
  181.1270  180.1600  138.8840 C   0  0  0  0  0  3  0  0  0  0  0  0
  181.3820  176.6500  135.2440 C   0  0  0  0  0  0  0  0  0  0  0  0
  181.3630  178.4010  137.0580 C   0  0  0  0  0  0  0  0  0  0  0  0
  181.4560  175.4500  134.8860 O   0  0  0  0  0  0  0  0  0  0  0  0
  180.4480  178.8360  134.8170 C   0  0  0  0  0  3  0  0  0  0  0  0
  180.7640  177.6320  134.3540 C   0  0  0  0  0  3  0  0  0  0  0  0
  180.7050  179.2060  136.2120 C   0  0  0  0  0  3  0  0  0  0  0  0
  181.9280  177.0730  136.5810 C   0  0  0  0  0  2  0  0  0  0  0  0
  188.4590  178.3550  141.6750 C   0  0  0  0  0  2  0  0  0  0  0  0
  188.9160  178.7620  139.2940 C   0  0  0  0  0  2  0  0  0  0  0  0
  190.1030  176.0930  139.0210 C   0  0  0  0  0  2  0  0  0  0  0  0
  188.6360  177.6870  140.3160 C   0  0  1  0  0  3  0  0  0  0  0  0
  189.7120  176.8940  137.8340 N   0  0  0  0  0  0  0  0  0  0  0  0
  188.9380  178.1520  137.9010 C   0  0  0  0  0  2  0  0  0  0  0  0
  188.9580  176.4990  135.6570 O   0  0  0  0  0  0  0  0  0  0  0  0
  189.8510  176.3060  136.5360 C   0  0  0  0  0  0  0  0  0  0  0  0
  189.8490  176.7810  140.3570 C   0  0  0  0  0  2  0  0  0  0  0  0
  190.9830  175.3850  136.2150 C   0  0  0  0  0  2  0  0  0  0  0  0
  192.3330  176.0770  136.3270 C   0  0  0  0  0  2  0  0  0  0  0  0
  193.3690  174.9810  136.5800 C   0  0  0  0  0  2  0  0  0  0  0  0
  194.1260  176.2900  138.4040 O   0  0  0  0  0  1  0  0  0  0  0  0
  194.5130  175.2590  137.5350 C   0  0  1  0  0  3  0  0  0  0  0  0
  195.1800  174.1190  138.3410 C   0  0  1  0  0  3  0  0  0  0  0  0
  194.4870  172.9080  138.2590 O   0  0  0  0  0  1  0  0  0  0  0  0
  196.6780  173.9480  138.0400 C   0  0  1  0  0  3  0  0  0  0  0  0
  197.0870  172.0190  136.6890 C   0  0  2  0  0  3  0  0  0  0  0  0
  197.0990  172.5840  138.0120 O   0  0  0  0  0  0  0  0  0  0  0  0
  197.0520  174.6720  136.7870 C   0  0  0  0  0  0  0  0  0  0  0  0
  196.8820  173.9120  135.5160 C   0  0  0  0  0  2  0  0  0  0  0  0
  197.6390  175.7350  136.8380 O   0  0  0  0  0  0  0  0  0  0  0  0
  196.2380  172.6910  135.7940 O   0  0  0  0  0  0  0  0  0  0  0  0
  196.6810  170.2560  136.8520 P   0  0  2  0  0  0  0  0  0  0  0  0
  195.4570  170.0960  138.0050 O   0  0  0  0  0  1  0  0  0  0  0  0
  197.8890  169.4690  137.3300 O   0  0  0  0  0  0  0  0  0  0  0  0
  196.0200  169.6720  135.3890 O   0  0  0  0  0  0  0  0  0  0  0  0
  193.6080  168.5380  136.0980 O   0  0  0  0  0  0  0  0  0  0  0  0
  194.3470  169.7660  135.6100 P   0  0  0  0  0  0  0  0  0  0  0  0
  193.5370  170.9860  135.2000 O   0  0  0  0  0  0  0  0  0  0  0  0
  1 32  1  6  0  0  0
  1  3  1  0  0  0  0
  2  4  1  0  0  0  0
  3  2  2  0  0  0  0
  4  5  2  0  0  0  0
  4  6  1  0  0  0  0
  7 12  1  6  0  0  0
  7  6  1  0  0  0  0
  8  7  1  6  0  0  0
  8 10  1  0  0  0  0
  9  8  1  0  0  0  0
  9 10  1  0  0  0  0
 11 12  1  0  0  0  0
 13  1  1  0  0  0  0
 13 14  1  0  0  0  0
 14 16  1  0  0  0  0
 14 15  2  0  0  0  0
 17 16  1  0  0  0  0
 18 21  1  0  0  0  0
 19 17  1  0  0  0  0
 20 19  2  0  0  0  0
 21 19  1  0  0  0  0
 22 20  1  0  0  0  0
 23 24  1  0  0  0  0
 23 22  2  0  0  0  0
 24 18  2  0  0  0  0
 25 31  1  0  0  0  0
 26 23  1  0  0  0  0
 27 25  2  0  0  0  0
 28 30  1  0  0  0  0
 29 28  2  0  0  0  0
 29 25  1  0  0  0  0
 30 26  2  0  0  0  0
 31 26  1  0  0  0  0
 33 35  1  0  0  0  0
 34 40  1  0  0  0  0
 35 40  1  0  0  0  0
 35 32  1  1  0  0  0
 36 37  1  0  0  0  0
 36 34  1  0  0  0  0
 37 33  1  0  0  0  0
 38 39  2  0  0  0  0
 39 36  1  0  0  0  0
 41 42  1  0  0  0  0
 41 39  1  0  0  0  0
 42 43  1  0  0  0  0
 43 45  1  0  0  0  0
 45 46  1  0  0  0  0
 45 44  1  1  0  0  0
 46 47  1  6  0  0  0
 48 46  1  6  0  0  0
 49 55  1  1  0  0  0
 49 50  1  0  0  0  0
 50 48  1  0  0  0  0
 51 53  2  0  0  0  0
 51 48  1  0  0  0  0
 52 54  1  0  0  0  0
 52 51  1  0  0  0  0
 54 49  1  0  0  0  0
 55 57  2  1  0  0  0
 55 56  1  0  0  0  0
 58 60  1  0  0  0  0
 58 55  1  0  0  0  0
 60 59  2  0  0  0  0
 61 60  2  0  0  0  0
M  END
>  <MODEL>
3

>  <REMARK>
 VINA RESULT:      -6.1      4.147      6.291
  Name = 
  22 active torsions:
  status: ('A' for Active; 'I' for Inactive)
    1  A    between atoms: C_1  and  C_6
    2  A    between atoms: C_1  and  N_32
    3  A    between atoms: C_3  and  C_12
    4  A    between atoms: P_5  and  C_11
    5  A    between atoms: P_5  and  O_36
    6  A    between atoms: C_8  and  C_23
    7  A    between atoms: C_8  and  C_42
    8  A    between atoms: C_10  and  C_47
    9  A    between atoms: C_12  and  C_42
   10  A    between atoms: C_14  and  C_19
   11  A    between atoms: C_16  and  C_45
   12  A    between atoms: C_17  and  C_18
   13  A    between atoms: C_17  and  C_53
   14  A    between atoms: C_18  and  C_55
   15  A    between atoms: C_19  and  C_38
   16  A    between atoms: C_19  and  O_52
   17  A    between atoms: N_22  and  C_33
   18  A    between atoms: C_33  and  O_52
   19  A    between atoms: O_36  and  P_40
   20  A    between atoms: N_37  and  C_42
   21  A    between atoms: C_47  and  C_61
   22  A    between atoms: C_53  and  C_61
                            x       y       z     vdW  Elec       q    Type
                         _______ _______ _______ _____ _____    ______ ____

>  <TORSDO>
F 22

$$$$
=
 OpenBabel10232407513D

 61 65  0  0  1  0  0  0  0  0999 V2000
  192.4090  173.5120  135.4830 C   0  0  1  0  0  3  0  0  0  0  0  0
  194.3890  172.9640  136.6820 N   0  0  0  0  0  0  0  0  0  0  0  0
  193.6190  172.7130  135.6880 N   0  0  0  0  0  0  0  0  0  0  0  0
  195.6350  172.2770  136.8880 C   0  0  0  0  0  0  0  0  0  0  0  0
  195.7610  171.4540  137.8390 O   0  0  0  0  0  0  0  0  0  0  0  0
  196.7280  172.5210  136.0540 O   0  0  0  0  0  0  0  0  0  0  0  0
  197.5150  173.7180  136.0570 C   0  0  2  0  0  3  0  0  0  0  0  0
  198.4790  173.7450  137.2460 C   0  0  2  0  0  3  0  0  0  0  0  0
  199.5930  174.5400  136.9010 O   0  0  0  0  0  0  0  0  0  0  0  0
  199.7890  173.1480  136.8980 C   0  0  0  0  0  2  0  0  0  0  0  0
  197.2830  175.9790  134.9640 C   0  0  0  0  0  1  0  0  0  0  0  0
  196.6890  175.0100  135.9850 C   0  0  0  0  0  2  0  0  0  0  0  0
  192.8460  174.9330  135.0980 C   0  0  0  0  0  2  0  0  0  0  0  0
  192.6410  175.9050  136.2030 C   0  0  0  0  0  0  0  0  0  0  0  0
  193.5880  176.6350  136.5880 O   0  0  0  0  0  0  0  0  0  0  0  0
  191.3520  176.0130  136.8230 N   0  0  0  0  0  2  0  0  0  0  0  0
  190.6140  177.2720  136.8850 C   0  0  0  0  0  2  0  0  0  0  0  0
  187.8920  178.0720  139.3080 C   0  0  0  0  0  3  0  0  0  0  0  0
  190.1030  177.5600  138.2630 C   0  0  0  0  0  0  0  0  0  0  0  0
  190.7550  177.0630  139.2560 N   0  0  0  0  0  0  0  0  0  0  0  0
  189.0050  178.5930  138.4540 C   0  0  0  0  0  2  0  0  0  0  0  0
  190.5590  177.3220  140.6680 C   0  0  0  0  0  3  0  0  0  0  0  0
  189.3930  177.6340  141.2710 C   0  0  0  0  0  0  0  0  0  0  0  0
  188.0910  177.6730  140.5740 C   0  0  0  0  0  3  0  0  0  0  0  0
  188.3670  177.5370  145.0200 C   0  0  0  0  0  0  0  0  0  0  0  0
  189.4150  177.8150  142.7430 C   0  0  0  0  0  0  0  0  0  0  0  0
  187.4930  177.0330  145.7640 O   0  0  0  0  0  0  0  0  0  0  0  0
  190.6380  178.3310  144.8140 C   0  0  0  0  0  3  0  0  0  0  0  0
  189.6120  178.0370  145.6030 C   0  0  0  0  0  3  0  0  0  0  0  0
  190.5540  178.1650  143.3610 C   0  0  0  0  0  3  0  0  0  0  0  0
  188.1320  177.6290  143.5350 C   0  0  0  0  0  2  0  0  0  0  0  0
  191.5490  172.8570  134.3820 C   0  0  0  0  0  2  0  0  0  0  0  0
  189.6120  171.4160  134.8450 C   0  0  0  0  0  2  0  0  0  0  0  0
  188.2710  173.6020  136.2680 C   0  0  0  0  0  2  0  0  0  0  0  0
  190.0470  172.8470  134.6420 C   0  0  1  0  0  3  0  0  0  0  0  0
  187.5310  172.3930  135.8300 N   0  0  0  0  0  0  0  0  0  0  0  0
  188.0960  171.3510  134.9470 C   0  0  0  0  0  2  0  0  0  0  0  0
  185.3610  171.8470  135.1550 O   0  0  0  0  0  0  0  0  0  0  0  0
  186.1160  172.3410  136.0450 C   0  0  0  0  0  0  0  0  0  0  0  0
  189.7570  173.5910  135.9290 C   0  0  0  0  0  2  0  0  0  0  0  0
  185.4900  172.9450  137.2600 C   0  0  0  0  0  2  0  0  0  0  0  0
  185.7200  174.4470  137.3360 C   0  0  0  0  0  2  0  0  0  0  0  0
  184.9840  175.0660  136.1460 C   0  0  0  0  0  2  0  0  0  0  0  0
  183.8940  177.0290  135.3920 O   0  0  0  0  0  1  0  0  0  0  0  0
  183.8740  176.0650  136.4090 C   0  0  1  0  0  3  0  0  0  0  0  0
  182.4200  175.5990  136.6610 C   0  0  1  0  0  3  0  0  0  0  0  0
  181.8970  174.8340  135.6150 O   0  0  0  0  0  1  0  0  0  0  0  0
  182.2190  174.9230  138.0270 C   0  0  1  0  0  3  0  0  0  0  0  0
  181.8920  176.5310  139.7630 C   0  0  2  0  0  3  0  0  0  0  0  0
  182.8120  175.6400  139.1080 O   0  0  0  0  0  0  0  0  0  0  0  0
  180.7710  174.6420  138.2710 C   0  0  0  0  0  0  0  0  0  0  0  0
  179.9870  175.7480  138.8920 C   0  0  0  0  0  2  0  0  0  0  0  0
  180.3290  173.5180  138.1480 O   0  0  0  0  0  0  0  0  0  0  0  0
  180.7950  176.8990  138.9660 O   0  0  0  0  0  0  0  0  0  0  0  0
  182.8430  177.9630  140.3520 P   0  0  2  0  0  0  0  0  0  0  0  0
  182.0320  178.6330  141.6730 O   0  0  0  0  0  1  0  0  0  0  0  0
  182.9460  179.0220  139.2690 O   0  0  0  0  0  0  0  0  0  0  0  0
  184.3590  177.4480  140.9500 O   0  0  0  0  0  0  0  0  0  0  0  0
  185.5410  179.7410  141.9270 O   0  0  0  0  0  0  0  0  0  0  0  0
  184.7020  178.5150  142.2170 P   0  0  0  0  0  0  0  0  0  0  0  0
  184.3240  178.2160  143.6590 O   0  0  0  0  0  0  0  0  0  0  0  0
  1 32  1  6  0  0  0
  1  3  1  0  0  0  0
  2  4  1  0  0  0  0
  3  2  2  0  0  0  0
  4  5  2  0  0  0  0
  6  7  1  0  0  0  0
  6  4  1  0  0  0  0
  7 12  1  1  0  0  0
  8  7  1  6  0  0  0
  9  8  1  0  0  0  0
 10  9  1  0  0  0  0
 10  8  1  0  0  0  0
 11 12  1  0  0  0  0
 13  1  1  0  0  0  0
 13 14  1  0  0  0  0
 14 15  2  0  0  0  0
 14 16  1  0  0  0  0
 16 17  1  0  0  0  0
 17 19  1  0  0  0  0
 18 24  2  0  0  0  0
 19 21  1  0  0  0  0
 19 20  2  0  0  0  0
 20 22  1  0  0  0  0
 21 18  1  0  0  0  0
 22 23  2  0  0  0  0
 23 26  1  0  0  0  0
 24 23  1  0  0  0  0
 25 29  1  0  0  0  0
 25 27  2  0  0  0  0
 26 30  2  0  0  0  0
 26 31  1  0  0  0  0
 28 29  2  0  0  0  0
 30 28  1  0  0  0  0
 31 25  1  0  0  0  0
 33 37  1  0  0  0  0
 35 32  1  1  0  0  0
 35 33  1  0  0  0  0
 35 40  1  0  0  0  0
 36 39  1  0  0  0  0
 36 34  1  0  0  0  0
 37 36  1  0  0  0  0
 38 39  2  0  0  0  0
 39 41  1  0  0  0  0
 40 34  1  0  0  0  0
 41 42  1  0  0  0  0
 43 45  1  0  0  0  0
 43 42  1  0  0  0  0
 45 44  1  6  0  0  0
 45 46  1  0  0  0  0
 46 47  1  6  0  0  0
 48 46  1  6  0  0  0
 48 51  1  0  0  0  0
 48 50  1  0  0  0  0
 49 55  1  6  0  0  0
 50 49  1  0  0  0  0
 51 52  1  0  0  0  0
 52 54  1  0  0  0  0
 53 51  2  0  0  0  0
 54 49  1  0  0  0  0
 55 57  2  6  0  0  0
 55 58  1  0  0  0  0
 55 56  1  0  0  0  0
 58 60  1  0  0  0  0
 59 60  2  0  0  0  0
 60 61  2  0  0  0  0
M  END
>  <MODEL>
4

>  <REMARK>
 VINA RESULT:      -6.0      4.307     10.204
  Name = 
  22 active torsions:
  status: ('A' for Active; 'I' for Inactive)
    1  A    between atoms: C_1  and  C_6
    2  A    between atoms: C_1  and  N_32
    3  A    between atoms: C_3  and  C_12
    4  A    between atoms: P_5  and  C_11
    5  A    between atoms: P_5  and  O_36
    6  A    between atoms: C_8  and  C_23
    7  A    between atoms: C_8  and  C_42
    8  A    between atoms: C_10  and  C_47
    9  A    between atoms: C_12  and  C_42
   10  A    between atoms: C_14  and  C_19
   11  A    between atoms: C_16  and  C_45
   12  A    between atoms: C_17  and  C_18
   13  A    between atoms: C_17  and  C_53
   14  A    between atoms: C_18  and  C_55
   15  A    between atoms: C_19  and  C_38
   16  A    between atoms: C_19  and  O_52
   17  A    between atoms: N_22  and  C_33
   18  A    between atoms: C_33  and  O_52
   19  A    between atoms: O_36  and  P_40
   20  A    between atoms: N_37  and  C_42
   21  A    between atoms: C_47  and  C_61
   22  A    between atoms: C_53  and  C_61
                            x       y       z     vdW  Elec       q    Type
                         _______ _______ _______ _____ _____    ______ ____

>  <TORSDO>
F 22

$$$$
=
 OpenBabel10232407513D

 61 65  0  0  1  0  0  0  0  0999 V2000
  186.8310  178.4100  143.4900 C   0  0  1  0  0  3  0  0  0  0  0  0
  187.2570  177.6020  145.6870 N   0  0  0  0  0  0  0  0  0  0  0  0
  187.4470  178.5230  144.8150 N   0  0  0  0  0  0  0  0  0  0  0  0
  187.7590  177.6960  147.0310 C   0  0  0  0  0  0  0  0  0  0  0  0
  187.2490  178.5150  147.8480 O   0  0  0  0  0  0  0  0  0  0  0  0
  188.8250  176.8980  147.4500 O   0  0  0  0  0  0  0  0  0  0  0  0
  190.0660  176.7480  146.7480 C   0  0  2  0  0  3  0  0  0  0  0  0
  191.2360  176.5760  147.7200 C   0  0  2  0  0  3  0  0  0  0  0  0
  192.4400  176.6380  146.9880 O   0  0  0  0  0  0  0  0  0  0  0  0
  192.0260  175.3630  147.4110 C   0  0  0  0  0  2  0  0  0  0  0  0
  190.7370  177.2790  144.3760 C   0  0  0  0  0  1  0  0  0  0  0  0
  190.3500  177.8640  145.7330 C   0  0  0  0  0  2  0  0  0  0  0  0
  187.9470  178.1040  142.4810 C   0  0  0  0  0  2  0  0  0  0  0  0
  187.5890  178.5210  141.1010 C   0  0  0  0  0  0  0  0  0  0  0  0
  186.8750  179.5370  140.9120 O   0  0  0  0  0  0  0  0  0  0  0  0
  188.0720  177.7630  139.9820 N   0  0  0  0  0  2  0  0  0  0  0  0
  188.8650  178.3630  138.9120 C   0  0  0  0  0  2  0  0  0  0  0  0
  189.8860  176.3450  135.9440 C   0  0  0  0  0  3  0  0  0  0  0  0
  189.7360  177.3570  138.2230 C   0  0  0  0  0  0  0  0  0  0  0  0
  190.9430  177.2220  138.6520 N   0  0  0  0  0  0  0  0  0  0  0  0
  189.1190  176.3890  137.2280 C   0  0  0  0  0  2  0  0  0  0  0  0
  191.9170  176.2220  138.2660 C   0  0  0  0  0  3  0  0  0  0  0  0
  192.0160  175.6240  137.0590 C   0  0  0  0  0  0  0  0  0  0  0  0
  191.1750  175.9750  135.8960 C   0  0  0  0  0  3  0  0  0  0  0  0
  194.9190  173.1440  137.7900 C   0  0  0  0  0  0  0  0  0  0  0  0
  193.1240  174.6560  136.8690 C   0  0  0  0  0  0  0  0  0  0  0  0
  195.4610  172.5570  138.7560 O   0  0  0  0  0  0  0  0  0  0  0  0
  194.3750  173.0950  135.4380 C   0  0  0  0  0  3  0  0  0  0  0  0
  195.1360  172.6500  136.4300 C   0  0  0  0  0  3  0  0  0  0  0  0
  193.3130  174.0770  135.6740 C   0  0  0  0  0  3  0  0  0  0  0  0
  194.0550  174.3530  138.0310 C   0  0  0  0  0  2  0  0  0  0  0  0
  185.7610  177.2980  143.5210 C   0  0  0  0  0  2  0  0  0  0  0  0
  184.1530  179.1560  143.5890 C   0  0  0  0  0  2  0  0  0  0  0  0
  182.8520  178.1770  141.1500 C   0  0  0  0  0  2  0  0  0  0  0  0
  184.3530  177.7330  143.1280 C   0  0  1  0  0  3  0  0  0  0  0  0
  182.2000  179.1810  142.0270 N   0  0  0  0  0  0  0  0  0  0  0  0
  182.7070  179.5700  143.3600 C   0  0  0  0  0  2  0  0  0  0  0  0
  180.0270  179.7950  142.6300 O   0  0  0  0  0  0  0  0  0  0  0  0
  180.8740  179.6130  141.7050 C   0  0  0  0  0  0  0  0  0  0  0  0
  184.2310  177.7290  141.6190 C   0  0  0  0  0  2  0  0  0  0  0  0
  180.4270  179.7670  140.2870 C   0  0  0  0  0  2  0  0  0  0  0  0
  181.5150  180.3650  139.4070 C   0  0  0  0  0  2  0  0  0  0  0  0
  181.2990  179.8050  138.0000 C   0  0  0  0  0  2  0  0  0  0  0  0
  179.9880  177.9940  137.2160 O   0  0  0  0  0  1  0  0  0  0  0  0
  181.2190  178.3030  137.8120 C   0  0  1  0  0  3  0  0  0  0  0  0
  182.3530  177.5210  137.1060 C   0  0  1  0  0  3  0  0  0  0  0  0
  182.8000  178.1370  135.9350 O   0  0  0  0  0  1  0  0  0  0  0  0
  183.5150  177.1470  138.0410 C   0  0  1  0  0  3  0  0  0  0  0  0
  184.7460  175.2770  137.2050 C   0  0  2  0  0  3  0  0  0  0  0  0
  183.7430  175.7410  138.1270 O   0  0  0  0  0  0  0  0  0  0  0  0
  184.7570  177.8910  137.6670 C   0  0  0  0  0  0  0  0  0  0  0  0
  185.6120  177.2550  136.6250 C   0  0  0  0  0  2  0  0  0  0  0  0
  185.1260  178.8470  138.3200 O   0  0  0  0  0  0  0  0  0  0  0  0
  184.9430  176.1290  136.1060 O   0  0  0  0  0  0  0  0  0  0  0  0
  184.2930  173.5880  136.7120 P   0  0  2  0  0  0  0  0  0  0  0  0
  185.2260  172.5040  137.6090 O   0  0  0  0  0  1  0  0  0  0  0  0
  184.5860  173.3620  135.2390 O   0  0  0  0  0  0  0  0  0  0  0  0
  182.6710  173.2700  137.1420 O   0  0  0  0  0  0  0  0  0  0  0  0
  181.1690  172.3270  135.0290 O   0  0  0  0  0  0  0  0  0  0  0  0
  181.7940  173.5210  135.7180 P   0  0  0  0  0  0  0  0  0  0  0  0
  181.7320  174.8740  135.0270 O   0  0  0  0  0  0  0  0  0  0  0  0
  1 13  1  6  0  0  0
  1 32  1  0  0  0  0
  1  3  1  0  0  0  0
  2  4  1  0  0  0  0
  3  2  2  0  0  0  0
  4  6  1  0  0  0  0
  4  5  2  0  0  0  0
  7 12  1  1  0  0  0
  7  6  1  0  0  0  0
  8  7  1  6  0  0  0
  9 10  1  0  0  0  0
  9  8  1  0  0  0  0
 10  8  1  0  0  0  0
 11 12  1  0  0  0  0
 14 13  1  0  0  0  0
 15 14  2  0  0  0  0
 16 14  1  0  0  0  0
 17 16  1  0  0  0  0
 18 21  1  0  0  0  0
 19 20  2  0  0  0  0
 19 17  1  0  0  0  0
 21 19  1  0  0  0  0
 22 20  1  0  0  0  0
 23 22  2  0  0  0  0
 24 18  2  0  0  0  0
 24 23  1  0  0  0  0
 25 31  1  0  0  0  0
 25 27  2  0  0  0  0
 26 23  1  0  0  0  0
 26 31  1  0  0  0  0
 28 30  1  0  0  0  0
 28 29  2  0  0  0  0
 29 25  1  0  0  0  0
 30 26  2  0  0  0  0
 34 40  1  0  0  0  0
 34 36  1  0  0  0  0
 35 32  1  6  0  0  0
 35 33  1  0  0  0  0
 36 37  1  0  0  0  0
 37 33  1  0  0  0  0
 39 36  1  0  0  0  0
 39 38  2  0  0  0  0
 40 35  1  0  0  0  0
 41 39  1  0  0  0  0
 42 41  1  0  0  0  0
 43 42  1  0  0  0  0
 45 44  1  6  0  0  0
 45 43  1  0  0  0  0
 46 47  1  6  0  0  0
 46 45  1  0  0  0  0
 48 46  1  6  0  0  0
 48 50  1  0  0  0  0
 49 55  1  6  0  0  0
 49 50  1  0  0  0  0
 51 48  1  0  0  0  0
 51 53  2  0  0  0  0
 52 51  1  0  0  0  0
 54 52  1  0  0  0  0
 54 49  1  0  0  0  0
 55 57  2  6  0  0  0
 55 58  1  0  0  0  0
 55 56  1  0  0  0  0
 59 60  2  0  0  0  0
 60 58  1  0  0  0  0
 61 60  2  0  0  0  0
M  END
>  <MODEL>
5

>  <REMARK>
 VINA RESULT:      -5.8      2.357      8.067
  Name = 
  22 active torsions:
  status: ('A' for Active; 'I' for Inactive)
    1  A    between atoms: C_1  and  C_6
    2  A    between atoms: C_1  and  N_32
    3  A    between atoms: C_3  and  C_12
    4  A    between atoms: P_5  and  C_11
    5  A    between atoms: P_5  and  O_36
    6  A    between atoms: C_8  and  C_23
    7  A    between atoms: C_8  and  C_42
    8  A    between atoms: C_10  and  C_47
    9  A    between atoms: C_12  and  C_42
   10  A    between atoms: C_14  and  C_19
   11  A    between atoms: C_16  and  C_45
   12  A    between atoms: C_17  and  C_18
   13  A    between atoms: C_17  and  C_53
   14  A    between atoms: C_18  and  C_55
   15  A    between atoms: C_19  and  C_38
   16  A    between atoms: C_19  and  O_52
   17  A    between atoms: N_22  and  C_33
   18  A    between atoms: C_33  and  O_52
   19  A    between atoms: O_36  and  P_40
   20  A    between atoms: N_37  and  C_42
   21  A    between atoms: C_47  and  C_61
   22  A    between atoms: C_53  and  C_61
                            x       y       z     vdW  Elec       q    Type
                         _______ _______ _______ _____ _____    ______ ____

>  <TORSDO>
F 22

$$$$
=
 OpenBabel10232407513D

 61 65  0  0  1  0  0  0  0  0999 V2000
  186.3720  177.0600  136.4210 C   0  0  1  0  0  3  0  0  0  0  0  0
  183.9950  177.0990  136.5150 N   0  0  0  0  0  0  0  0  0  0  0  0
  185.0530  177.1880  135.7960 N   0  0  0  0  0  0  0  0  0  0  0  0
  182.6730  177.1270  135.9510 C   0  0  0  0  0  0  0  0  0  0  0  0
  182.4920  176.8450  134.7320 O   0  0  0  0  0  0  0  0  0  0  0  0
  181.5730  177.4820  136.7340 O   0  0  0  0  0  0  0  0  0  0  0  0
  181.5810  177.5950  138.1630 C   0  0  2  0  0  3  0  0  0  0  0  0
  180.6130  176.5970  138.8040 C   0  0  2  0  0  3  0  0  0  0  0  0
  181.1300  176.2140  140.0590 O   0  0  0  0  0  0  0  0  0  0  0  0
  181.2520  175.2790  139.0160 C   0  0  0  0  0  2  0  0  0  0  0  0
  182.5720  179.8900  138.4970 C   0  0  0  0  0  1  0  0  0  0  0  0
  181.3310  179.0190  138.6790 C   0  0  0  0  0  2  0  0  0  0  0  0
  187.2930  176.3410  135.4250 C   0  0  0  0  0  2  0  0  0  0  0  0
  187.2640  174.8660  135.5940 C   0  0  0  0  0  0  0  0  0  0  0  0
  186.4440  174.1700  134.9430 O   0  0  0  0  0  0  0  0  0  0  0  0
  188.1840  174.2360  136.4960 N   0  0  0  0  0  2  0  0  0  0  0  0
  189.1100  173.1900  136.0690 C   0  0  0  0  0  2  0  0  0  0  0  0
  191.7740  175.3490  137.5440 C   0  0  0  0  0  3  0  0  0  0  0  0
  190.5410  173.5860  136.2730 C   0  0  0  0  0  0  0  0  0  0  0  0
  191.4350  172.6650  136.1660 N   0  0  0  0  0  0  0  0  0  0  0  0
  190.9060  175.0580  136.3600 C   0  0  0  0  0  2  0  0  0  0  0  0
  192.8750  172.8190  136.1600 C   0  0  0  0  0  3  0  0  0  0  0  0
  193.5810  173.7730  136.8030 C   0  0  0  0  0  0  0  0  0  0  0  0
  192.9770  174.7770  137.7030 C   0  0  0  0  0  3  0  0  0  0  0  0
  197.2870  174.8110  136.2540 C   0  0  0  0  0  0  0  0  0  0  0  0
  195.0600  173.7150  136.6940 C   0  0  0  0  0  0  0  0  0  0  0  0
  197.9820  175.8410  136.0830 O   0  0  0  0  0  0  0  0  0  0  0  0
  197.1890  172.5550  137.1110 C   0  0  0  0  0  3  0  0  0  0  0  0
  197.9310  173.5690  136.6820 C   0  0  0  0  0  3  0  0  0  0  0  0
  195.7280  172.6530  137.1680 C   0  0  0  0  0  3  0  0  0  0  0  0
  195.8010  174.8550  136.0170 C   0  0  0  0  0  2  0  0  0  0  0  0
  186.9000  178.4640  136.7830 C   0  0  0  0  0  2  0  0  0  0  0  0
  186.9860  177.7840  139.1440 C   0  0  0  0  0  2  0  0  0  0  0  0
  189.9180  177.8740  139.1080 C   0  0  0  0  0  2  0  0  0  0  0  0
  187.7200  178.5450  138.0660 C   0  0  1  0  0  3  0  0  0  0  0  0
  189.1580  177.8300  140.3830 N   0  0  0  0  0  0  0  0  0  0  0  0
  187.6900  177.9780  140.4780 C   0  0  0  0  0  2  0  0  0  0  0  0
  189.4190  178.5960  142.5750 O   0  0  0  0  0  0  0  0  0  0  0  0
  189.8830  177.9120  141.6140 C   0  0  0  0  0  0  0  0  0  0  0  0
  189.0500  177.8530  137.8550 C   0  0  0  0  0  2  0  0  0  0  0  0
  191.2310  177.2850  141.7690 C   0  0  0  0  0  2  0  0  0  0  0  0
  191.1710  175.9870  142.5600 C   0  0  0  0  0  2  0  0  0  0  0  0
  190.3320  176.2710  143.8070 C   0  0  0  0  0  2  0  0  0  0  0  0
  191.8230  177.6880  144.9820 O   0  0  0  0  0  1  0  0  0  0  0  0
  191.0380  176.5350  145.1220 C   0  0  1  0  0  3  0  0  0  0  0  0
  190.2550  176.5940  146.4560 C   0  0  1  0  0  3  0  0  0  0  0  0
  190.9340  175.9970  147.5210 O   0  0  0  0  0  1  0  0  0  0  0  0
  189.7500  178.0030  146.8100 C   0  0  1  0  0  3  0  0  0  0  0  0
  187.3860  178.1880  146.5130 C   0  0  2  0  0  3  0  0  0  0  0  0
  188.6910  178.4540  145.9670 O   0  0  0  0  0  0  0  0  0  0  0  0
  189.3860  178.0870  148.2570 C   0  0  0  0  0  0  0  0  0  0  0  0
  187.9930  177.6840  148.6050 C   0  0  0  0  0  2  0  0  0  0  0  0
  190.1240  178.6360  149.0500 O   0  0  0  0  0  0  0  0  0  0  0  0
  187.3690  177.1510  147.4600 O   0  0  0  0  0  0  0  0  0  0  0  0
  186.2620  177.8840  145.1180 P   0  0  2  0  0  0  0  0  0  0  0  0
  184.8740  177.1260  145.7090 O   0  0  0  0  0  1  0  0  0  0  0  0
  186.9090  176.9640  144.0970 O   0  0  0  0  0  0  0  0  0  0  0  0
  185.7360  179.3700  144.4600 O   0  0  0  0  0  0  0  0  0  0  0  0
  182.9980  179.1570  144.7200 O   0  0  0  0  0  0  0  0  0  0  0  0
  184.2070  179.0340  143.8180 P   0  0  0  0  0  0  0  0  0  0  0  0
  184.0160  178.4760  142.4170 O   0  0  0  0  0  0  0  0  0  0  0  0
  1 13  1  6  0  0  0
  1 32  1  0  0  0  0
  3  1  1  0  0  0  0
  3  2  2  0  0  0  0
  4  2  1  0  0  0  0
  4  6  1  0  0  0  0
  5  4  2  0  0  0  0
  6  7  1  0  0  0  0
  7 12  1  6  0  0  0
  8  7  1  6  0  0  0
  8 10  1  0  0  0  0
  8  9  1  0  0  0  0
 10  9  1  0  0  0  0
 11 12  1  0  0  0  0
 13 14  1  0  0  0  0
 14 16  1  0  0  0  0
 15 14  2  0  0  0  0
 17 19  1  0  0  0  0
 17 16  1  0  0  0  0
 18 24  2  0  0  0  0
 19 21  1  0  0  0  0
 20 19  2  0  0  0  0
 21 18  1  0  0  0  0
 22 20  1  0  0  0  0
 22 23  2  0  0  0  0
 23 24  1  0  0  0  0
 25 29  1  0  0  0  0
 26 23  1  0  0  0  0
 26 30  2  0  0  0  0
 27 25  2  0  0  0  0
 28 30  1  0  0  0  0
 29 28  2  0  0  0  0
 31 25  1  0  0  0  0
 31 26  1  0  0  0  0
 33 37  1  0  0  0  0
 34 36  1  0  0  0  0
 35 32  1  6  0  0  0
 35 33  1  0  0  0  0
 36 37  1  0  0  0  0
 36 39  1  0  0  0  0
 39 41  1  0  0  0  0
 39 38  2  0  0  0  0
 40 35  1  0  0  0  0
 40 34  1  0  0  0  0
 41 42  1  0  0  0  0
 42 43  1  0  0  0  0
 43 45  1  0  0  0  0
 45 44  1  6  0  0  0
 45 46  1  0  0  0  0
 46 47  1  1  0  0  0
 48 46  1  6  0  0  0
 48 51  1  0  0  0  0
 49 55  1  6  0  0  0
 49 54  1  0  0  0  0
 50 49  1  0  0  0  0
 50 48  1  0  0  0  0
 51 52  1  0  0  0  0
 51 53  2  0  0  0  0
 54 52  1  0  0  0  0
 55 57  2  6  0  0  0
 55 56  1  0  0  0  0
 58 55  1  0  0  0  0
 60 58  1  0  0  0  0
 60 59  2  0  0  0  0
 61 60  2  0  0  0  0
M  END
>  <MODEL>
6

>  <REMARK>
 VINA RESULT:      -5.7      3.732     11.439
  Name = 
  22 active torsions:
  status: ('A' for Active; 'I' for Inactive)
    1  A    between atoms: C_1  and  C_6
    2  A    between atoms: C_1  and  N_32
    3  A    between atoms: C_3  and  C_12
    4  A    between atoms: P_5  and  C_11
    5  A    between atoms: P_5  and  O_36
    6  A    between atoms: C_8  and  C_23
    7  A    between atoms: C_8  and  C_42
    8  A    between atoms: C_10  and  C_47
    9  A    between atoms: C_12  and  C_42
   10  A    between atoms: C_14  and  C_19
   11  A    between atoms: C_16  and  C_45
   12  A    between atoms: C_17  and  C_18
   13  A    between atoms: C_17  and  C_53
   14  A    between atoms: C_18  and  C_55
   15  A    between atoms: C_19  and  C_38
   16  A    between atoms: C_19  and  O_52
   17  A    between atoms: N_22  and  C_33
   18  A    between atoms: C_33  and  O_52
   19  A    between atoms: O_36  and  P_40
   20  A    between atoms: N_37  and  C_42
   21  A    between atoms: C_47  and  C_61
   22  A    between atoms: C_53  and  C_61
                            x       y       z     vdW  Elec       q    Type
                         _______ _______ _______ _____ _____    ______ ____

>  <TORSDO>
F 22

$$$$
=
 OpenBabel10232407513D

 61 65  0  0  1  0  0  0  0  0999 V2000
  186.4580  178.2960  145.0070 C   0  0  1  0  0  3  0  0  0  0  0  0
  188.0590  177.9080  146.7240 N   0  0  0  0  0  0  0  0  0  0  0  0
  186.9920  178.5150  146.3540 N   0  0  0  0  0  0  0  0  0  0  0  0
  188.5830  178.0110  148.0580 C   0  0  0  0  0  0  0  0  0  0  0  0
  188.0440  178.7860  148.9000 O   0  0  0  0  0  0  0  0  0  0  0  0
  189.7040  177.2720  148.4420 O   0  0  0  0  0  0  0  0  0  0  0  0
  190.9390  177.2130  147.7150 C   0  0  2  0  0  3  0  0  0  0  0  0
  190.8980  176.1250  146.6390 C   0  0  2  0  0  3  0  0  0  0  0  0
  191.9420  176.3640  145.7220 O   0  0  0  0  0  0  0  0  0  0  0  0
  190.6440  176.6970  145.2970 C   0  0  0  0  0  2  0  0  0  0  0  0
  192.9270  175.7720  148.2870 C   0  0  0  0  0  1  0  0  0  0  0  0
  192.1810  177.0650  148.6050 C   0  0  0  0  0  2  0  0  0  0  0  0
  186.9060  176.9010  144.5480 C   0  0  0  0  0  2  0  0  0  0  0  0
  187.7390  176.9520  143.3200 C   0  0  0  0  0  0  0  0  0  0  0  0
  187.9020  175.9200  142.6210 O   0  0  0  0  0  0  0  0  0  0  0  0
  188.3490  178.1890  142.9270 N   0  0  0  0  0  2  0  0  0  0  0  0
  188.1170  178.7990  141.6200 C   0  0  0  0  0  2  0  0  0  0  0  0
  188.8090  178.0670  138.0270 C   0  0  0  0  0  3  0  0  0  0  0  0
  188.8480  178.0840  140.5250 C   0  0  0  0  0  0  0  0  0  0  0  0
  190.0460  177.6820  140.7730 N   0  0  0  0  0  0  0  0  0  0  0  0
  188.0950  177.6570  139.2760 C   0  0  0  0  0  2  0  0  0  0  0  0
  190.8910  176.8420  139.9490 C   0  0  0  0  0  3  0  0  0  0  0  0
  190.8820  176.7740  138.6010 C   0  0  0  0  0  0  0  0  0  0  0  0
  190.0470  177.6360  137.7390 C   0  0  0  0  0  3  0  0  0  0  0  0
  194.2280  175.0260  137.6700 C   0  0  0  0  0  0  0  0  0  0  0  0
  191.8700  175.8720  137.9590 C   0  0  0  0  0  0  0  0  0  0  0  0
  195.4210  174.9700  138.0510 O   0  0  0  0  0  0  0  0  0  0  0  0
  192.3840  173.8800  136.6110 C   0  0  0  0  0  3  0  0  0  0  0  0
  193.6940  173.9710  136.8080 C   0  0  0  0  0  3  0  0  0  0  0  0
  191.4520  174.8170  137.2440 C   0  0  0  0  0  3  0  0  0  0  0  0
  193.3530  176.1740  138.0970 C   0  0  0  0  0  2  0  0  0  0  0  0
  184.9210  178.4240  145.0440 C   0  0  0  0  0  2  0  0  0  0  0  0
  184.7590  178.0420  142.6210 C   0  0  0  0  0  2  0  0  0  0  0  0
  182.0570  179.1810  142.5770 C   0  0  0  0  0  2  0  0  0  0  0  0
  184.2730  178.9140  143.7530 C   0  0  1  0  0  3  0  0  0  0  0  0
  182.8360  178.9830  141.3290 N   0  0  0  0  0  0  0  0  0  0  0  0
  184.2630  178.5990  141.2960 C   0  0  0  0  0  2  0  0  0  0  0  0
  183.0160  179.9900  139.2280 O   0  0  0  0  0  0  0  0  0  0  0  0
  182.2740  179.4350  140.0930 C   0  0  0  0  0  0  0  0  0  0  0  0
  182.7730  178.7330  143.8460 C   0  0  0  0  0  2  0  0  0  0  0  0
  180.8050  179.3550  139.8280 C   0  0  0  0  0  2  0  0  0  0  0  0
  180.4620  179.7200  138.3920 C   0  0  0  0  0  2  0  0  0  0  0  0
  180.4270  178.4120  137.6010 C   0  0  0  0  0  2  0  0  0  0  0  0
  179.9820  176.1460  138.1310 O   0  0  0  0  0  1  0  0  0  0  0  0
  180.9550  177.1480  138.2510 C   0  0  1  0  0  3  0  0  0  0  0  0
  182.3440  176.5750  137.8780 C   0  0  1  0  0  3  0  0  0  0  0  0
  182.7230  175.4890  138.6710 O   0  0  0  0  0  1  0  0  0  0  0  0
  182.5040  176.2770  136.3780 C   0  0  1  0  0  3  0  0  0  0  0  0
  183.9230  174.3920  136.0040 C   0  0  2  0  0  3  0  0  0  0  0  0
  183.8110  175.8260  136.0250 O   0  0  0  0  0  0  0  0  0  0  0  0
  181.4430  175.3340  135.9090 C   0  0  0  0  0  0  0  0  0  0  0  0
  181.7470  173.8820  136.0580 C   0  0  0  0  0  2  0  0  0  0  0  0
  180.4910  175.7400  135.2730 O   0  0  0  0  0  0  0  0  0  0  0  0
  182.9490  173.7360  136.7750 O   0  0  0  0  0  0  0  0  0  0  0  0
  185.6180  173.9700  136.5050 P   0  0  2  0  0  0  0  0  0  0  0  0
  185.5390  173.0100  137.8920 O   0  0  0  0  0  1  0  0  0  0  0  0
  186.4080  175.2240  136.8380 O   0  0  0  0  0  0  0  0  0  0  0  0
  186.3540  172.9980  135.3080 O   0  0  0  0  0  0  0  0  0  0  0  0
  188.7080  172.9810  136.7460 O   0  0  0  0  0  0  0  0  0  0  0  0
  188.0070  173.3260  135.4490 P   0  0  0  0  0  0  0  0  0  0  0  0
  188.7820  174.0840  134.3820 O   0  0  0  0  0  0  0  0  0  0  0  0
  1 13  1  1  0  0  0
  1 32  1  0  0  0  0
  1  3  1  0  0  0  0
  2  4  1  0  0  0  0
  3  2  2  0  0  0  0
  4  6  1  0  0  0  0
  4  5  2  0  0  0  0
  7  6  1  0  0  0  0
  7 12  1  1  0  0  0
  8  7  1  1  0  0  0
  9  8  1  0  0  0  0
 10  9  1  0  0  0  0
 10  8  1  0  0  0  0
 11 12  1  0  0  0  0
 14 13  1  0  0  0  0
 15 14  2  0  0  0  0
 16 14  1  0  0  0  0
 17 16  1  0  0  0  0
 18 21  1  0  0  0  0
 19 20  2  0  0  0  0
 19 17  1  0  0  0  0
 21 19  1  0  0  0  0
 22 20  1  0  0  0  0
 23 22  2  0  0  0  0
 24 18  2  0  0  0  0
 24 23  1  0  0  0  0
 25 27  2  0  0  0  0
 25 31  1  0  0  0  0
 26 31  1  0  0  0  0
 26 23  1  0  0  0  0
 28 29  2  0  0  0  0
 28 30  1  0  0  0  0
 29 25  1  0  0  0  0
 30 26  2  0  0  0  0
 33 35  1  0  0  0  0
 34 40  1  0  0  0  0
 35 40  1  0  0  0  0
 35 32  1  1  0  0  0
 36 34  1  0  0  0  0
 37 36  1  0  0  0  0
 37 33  1  0  0  0  0
 38 39  2  0  0  0  0
 39 36  1  0  0  0  0
 41 39  1  0  0  0  0
 42 41  1  0  0  0  0
 43 45  1  0  0  0  0
 43 42  1  0  0  0  0
 45 44  1  6  0  0  0
 46 45  1  0  0  0  0
 46 47  1  1  0  0  0
 48 46  1  1  0  0  0
 49 50  1  0  0  0  0
 49 55  1  1  0  0  0
 49 54  1  0  0  0  0
 50 48  1  0  0  0  0
 51 52  1  0  0  0  0
 51 48  1  0  0  0  0
 52 54  1  0  0  0  0
 53 51  2  0  0  0  0
 55 57  2  1  0  0  0
 55 56  1  0  0  0  0
 58 60  1  0  0  0  0
 58 55  1  0  0  0  0
 60 59  2  0  0  0  0
 61 60  2  0  0  0  0
M  END
>  <MODEL>
7

>  <REMARK>
 VINA RESULT:      -5.6      2.191      7.591
  Name = 
  22 active torsions:
  status: ('A' for Active; 'I' for Inactive)
    1  A    between atoms: C_1  and  C_6
    2  A    between atoms: C_1  and  N_32
    3  A    between atoms: C_3  and  C_12
    4  A    between atoms: P_5  and  C_11
    5  A    between atoms: P_5  and  O_36
    6  A    between atoms: C_8  and  C_23
    7  A    between atoms: C_8  and  C_42
    8  A    between atoms: C_10  and  C_47
    9  A    between atoms: C_12  and  C_42
   10  A    between atoms: C_14  and  C_19
   11  A    between atoms: C_16  and  C_45
   12  A    between atoms: C_17  and  C_18
   13  A    between atoms: C_17  and  C_53
   14  A    between atoms: C_18  and  C_55
   15  A    between atoms: C_19  and  C_38
   16  A    between atoms: C_19  and  O_52
   17  A    between atoms: N_22  and  C_33
   18  A    between atoms: C_33  and  O_52
   19  A    between atoms: O_36  and  P_40
   20  A    between atoms: N_37  and  C_42
   21  A    between atoms: C_47  and  C_61
   22  A    between atoms: C_53  and  C_61
                            x       y       z     vdW  Elec       q    Type
                         _______ _______ _______ _____ _____    ______ ____

>  <TORSDO>
F 22

$$$$
=
 OpenBabel10232407513D

 61 65  0  0  1  0  0  0  0  0999 V2000
  189.5550  176.6530  137.0690 C   0  0  1  0  0  3  0  0  0  0  0  0
  190.8250  176.5870  139.0800 N   0  0  0  0  0  0  0  0  0  0  0  0
  190.0160  177.2400  138.3290 N   0  0  0  0  0  0  0  0  0  0  0  0
  191.2440  177.0690  140.3670 C   0  0  0  0  0  0  0  0  0  0  0  0
  192.3500  177.6690  140.4970 O   0  0  0  0  0  0  0  0  0  0  0  0
  190.4490  176.8670  141.4960 O   0  0  0  0  0  0  0  0  0  0  0  0
  190.2940  177.8010  142.5730 C   0  0  2  0  0  3  0  0  0  0  0  0
  191.5090  177.7800  143.5040 C   0  0  2  0  0  3  0  0  0  0  0  0
  191.0790  178.1050  144.8080 O   0  0  0  0  0  0  0  0  0  0  0  0
  191.7590  179.1120  144.1000 C   0  0  0  0  0  2  0  0  0  0  0  0
  188.4740  176.1990  143.2690 C   0  0  0  0  0  1  0  0  0  0  0  0
  188.9880  177.6350  143.3620 C   0  0  0  0  0  2  0  0  0  0  0  0
  188.5190  175.5710  137.4090 C   0  0  0  0  0  2  0  0  0  0  0  0
  188.9170  174.2310  136.9060 C   0  0  0  0  0  0  0  0  0  0  0  0
  188.1030  173.5330  136.2520 O   0  0  0  0  0  0  0  0  0  0  0  0
  190.2410  173.7420  137.1610 N   0  0  0  0  0  2  0  0  0  0  0  0
  191.1480  173.3370  136.0900 C   0  0  0  0  0  2  0  0  0  0  0  0
  193.8020  175.0190  138.1030 C   0  0  0  0  0  3  0  0  0  0  0  0
  192.5780  173.6430  136.4140 C   0  0  0  0  0  0  0  0  0  0  0  0
  193.4620  172.7590  136.1040 N   0  0  0  0  0  0  0  0  0  0  0  0
  192.9600  175.0420  136.8650 C   0  0  0  0  0  2  0  0  0  0  0  0
  194.9040  172.8810  136.1660 C   0  0  0  0  0  3  0  0  0  0  0  0
  195.6060  173.6370  137.0380 C   0  0  0  0  0  0  0  0  0  0  0  0
  194.9930  174.4020  138.1430 C   0  0  0  0  0  3  0  0  0  0  0  0
  199.3750  174.3080  137.7150 C   0  0  0  0  0  0  0  0  0  0  0  0
  197.0860  173.5780  136.9500 C   0  0  0  0  0  0  0  0  0  0  0  0
  200.1130  174.9000  138.5380 O   0  0  0  0  0  0  0  0  0  0  0  0
  199.1370  172.4710  136.1650 C   0  0  0  0  0  3  0  0  0  0  0  0
  199.9430  173.2750  136.8470 C   0  0  0  0  0  3  0  0  0  0  0  0
  197.6800  172.5910  136.2620 C   0  0  0  0  0  3  0  0  0  0  0  0
  197.9140  174.6600  137.6210 C   0  0  0  0  0  2  0  0  0  0  0  0
  188.9570  177.7640  136.1800 C   0  0  0  0  0  2  0  0  0  0  0  0
  186.9110  176.8430  135.1750 C   0  0  0  0  0  2  0  0  0  0  0  0
  185.3810  177.4840  137.5930 C   0  0  0  0  0  2  0  0  0  0  0  0
  187.4340  177.8470  136.1730 C   0  0  1  0  0  3  0  0  0  0  0  0
  184.7060  177.1500  136.3140 N   0  0  0  0  0  0  0  0  0  0  0  0
  185.4080  177.0090  135.0200 C   0  0  0  0  0  2  0  0  0  0  0  0
  182.7130  177.6930  135.2210 O   0  0  0  0  0  0  0  0  0  0  0  0
  183.2780  177.2240  136.2550 C   0  0  0  0  0  0  0  0  0  0  0  0
  186.9040  177.4460  137.5330 C   0  0  0  0  0  2  0  0  0  0  0  0
  182.4290  176.8470  137.4250 C   0  0  0  0  0  2  0  0  0  0  0  0
  181.7630  178.0580  138.0610 C   0  0  0  0  0  2  0  0  0  0  0  0
  181.0320  177.5540  139.3060 C   0  0  0  0  0  2  0  0  0  0  0  0
  180.3660  177.8100  141.5660 O   0  0  0  0  0  1  0  0  0  0  0  0
  181.3690  178.1640  140.6530 C   0  0  1  0  0  3  0  0  0  0  0  0
  182.7610  177.9610  141.2990 C   0  0  1  0  0  3  0  0  0  0  0  0
  183.5240  176.9780  140.6640 O   0  0  0  0  0  1  0  0  0  0  0  0
  183.5460  179.2680  141.4900 C   0  0  1  0  0  3  0  0  0  0  0  0
  185.0930  179.1060  143.3050 C   0  0  2  0  0  3  0  0  0  0  0  0
  183.8090  179.5780  142.8590 O   0  0  0  0  0  0  0  0  0  0  0  0
  184.7970  179.2600  140.6710 C   0  0  0  0  0  0  0  0  0  0  0  0
  185.9940  178.6440  141.3110 C   0  0  0  0  0  2  0  0  0  0  0  0
  184.8630  179.8930  139.6360 O   0  0  0  0  0  0  0  0  0  0  0  0
  185.6100  178.0540  142.5310 O   0  0  0  0  0  0  0  0  0  0  0  0
  184.9340  178.6720  145.0630 P   0  0  2  0  0  0  0  0  0  0  0  0
  185.4940  177.0930  145.2730 O   0  0  0  0  0  0  0  0  0  0  0  0
  183.4800  178.7240  145.5000 O   0  0  0  0  0  1  0  0  0  0  0  0
  185.9650  179.6600  146.0010 O   0  0  0  0  0  0  0  0  0  0  0  0
  188.2770  178.3320  146.7090 O   0  0  0  0  0  0  0  0  0  0  0  0
  186.8090  178.5780  146.9890 P   0  0  0  0  0  0  0  0  0  0  0  0
  186.1200  177.7350  148.0510 O   0  0  0  0  0  0  0  0  0  0  0  0
  1 32  1  6  0  0  0
  1 13  1  0  0  0  0
  1  3  1  0  0  0  0
  2  4  1  0  0  0  0
  3  2  2  0  0  0  0
  4  5  2  0  0  0  0
  4  6  1  0  0  0  0
  6  7  1  0  0  0  0
  7 12  1  1  0  0  0
  8  7  1  6  0  0  0
  8 10  1  0  0  0  0
  8  9  1  0  0  0  0
 10  9  1  0  0  0  0
 11 12  1  0  0  0  0
 14 16  1  0  0  0  0
 14 13  1  0  0  0  0
 15 14  2  0  0  0  0
 17 19  1  0  0  0  0
 17 16  1  0  0  0  0
 18 24  2  0  0  0  0
 19 21  1  0  0  0  0
 20 22  1  0  0  0  0
 20 19  2  0  0  0  0
 21 18  1  0  0  0  0
 22 23  2  0  0  0  0
 23 24  1  0  0  0  0
 25 27  2  0  0  0  0
 26 23  1  0  0  0  0
 26 31  1  0  0  0  0
 28 30  1  0  0  0  0
 28 29  2  0  0  0  0
 29 25  1  0  0  0  0
 30 26  2  0  0  0  0
 31 25  1  0  0  0  0
 33 35  1  0  0  0  0
 35 32  1  1  0  0  0
 35 40  1  0  0  0  0
 36 34  1  0  0  0  0
 37 33  1  0  0  0  0
 37 36  1  0  0  0  0
 38 39  2  0  0  0  0
 39 36  1  0  0  0  0
 39 41  1  0  0  0  0
 40 34  1  0  0  0  0
 41 42  1  0  0  0  0
 42 43  1  0  0  0  0
 43 45  1  0  0  0  0
 45 46  1  0  0  0  0
 45 44  1  1  0  0  0
 46 47  1  6  0  0  0
 48 46  1  1  0  0  0
 48 50  1  0  0  0  0
 49 55  1  1  0  0  0
 50 49  1  0  0  0  0
 51 52  1  0  0  0  0
 51 48  1  0  0  0  0
 52 54  1  0  0  0  0
 53 51  2  0  0  0  0
 54 49  1  0  0  0  0
 55 56  2  1  0  0  0
 55 57  1  0  0  0  0
 55 58  1  0  0  0  0
 58 60  1  0  0  0  0
 59 60  2  0  0  0  0
 60 61  2  0  0  0  0
M  END
>  <MODEL>
8

>  <REMARK>
 VINA RESULT:      -5.4      4.242     11.318
  Name = 
  22 active torsions:
  status: ('A' for Active; 'I' for Inactive)
    1  A    between atoms: C_1  and  C_6
    2  A    between atoms: C_1  and  N_32
    3  A    between atoms: C_3  and  C_12
    4  A    between atoms: P_5  and  C_11
    5  A    between atoms: P_5  and  O_36
    6  A    between atoms: C_8  and  C_23
    7  A    between atoms: C_8  and  C_42
    8  A    between atoms: C_10  and  C_47
    9  A    between atoms: C_12  and  C_42
   10  A    between atoms: C_14  and  C_19
   11  A    between atoms: C_16  and  C_45
   12  A    between atoms: C_17  and  C_18
   13  A    between atoms: C_17  and  C_53
   14  A    between atoms: C_18  and  C_55
   15  A    between atoms: C_19  and  C_38
   16  A    between atoms: C_19  and  O_52
   17  A    between atoms: N_22  and  C_33
   18  A    between atoms: C_33  and  O_52
   19  A    between atoms: O_36  and  P_40
   20  A    between atoms: N_37  and  C_42
   21  A    between atoms: C_47  and  C_61
   22  A    between atoms: C_53  and  C_61
                            x       y       z     vdW  Elec       q    Type
                         _______ _______ _______ _____ _____    ______ ____

>  <TORSDO>
F 22

$$$$
=
 OpenBabel10232407513D

 61 65  0  0  1  0  0  0  0  0999 V2000
  188.8020  176.7110  137.0590 C   0  0  1  0  0  3  0  0  0  0  0  0
  186.6470  175.7720  136.6890 N   0  0  0  0  0  0  0  0  0  0  0  0
  187.7190  176.2600  136.1820 N   0  0  0  0  0  0  0  0  0  0  0  0
  185.5870  175.2310  135.8840 C   0  0  0  0  0  0  0  0  0  0  0  0
  184.4620  175.8060  135.8390 O   0  0  0  0  0  0  0  0  0  0  0  0
  185.7760  174.0570  135.1540 O   0  0  0  0  0  0  0  0  0  0  0  0
  185.9720  172.7560  135.7230 C   0  0  2  0  0  3  0  0  0  0  0  0
  186.8260  171.8730  134.8090 C   0  0  2  0  0  3  0  0  0  0  0  0
  187.1010  170.6650  135.4830 O   0  0  0  0  0  0  0  0  0  0  0  0
  188.1520  171.5950  135.4060 C   0  0  0  0  0  2  0  0  0  0  0  0
  184.3250  172.3240  137.5830 C   0  0  0  0  0  1  0  0  0  0  0  0
  184.6710  172.0450  136.1220 C   0  0  0  0  0  2  0  0  0  0  0  0
  189.9730  177.1490  136.1680 C   0  0  0  0  0  2  0  0  0  0  0  0
  190.8080  176.0020  135.7290 C   0  0  0  0  0  0  0  0  0  0  0  0
  190.4790  175.3290  134.7200 O   0  0  0  0  0  0  0  0  0  0  0  0
  192.0000  175.6720  136.4550 N   0  0  0  0  0  2  0  0  0  0  0  0
  193.3150  175.6130  135.8220 C   0  0  0  0  0  2  0  0  0  0  0  0
  195.7760  174.2870  138.2930 C   0  0  0  0  0  3  0  0  0  0  0  0
  194.1700  174.5240  136.3940 C   0  0  0  0  0  0  0  0  0  0  0  0
  193.7770  173.3090  136.2270 N   0  0  0  0  0  0  0  0  0  0  0  0
  195.5520  174.8600  136.9290 C   0  0  0  0  0  2  0  0  0  0  0  0
  194.4950  172.0910  136.5420 C   0  0  0  0  0  3  0  0  0  0  0  0
  195.3950  171.9250  137.5340 C   0  0  0  0  0  0  0  0  0  0  0  0
  195.7240  172.9670  138.5290 C   0  0  0  0  0  3  0  0  0  0  0  0
  197.8970  168.9500  137.4820 C   0  0  0  0  0  0  0  0  0  0  0  0
  195.9790  170.5720  137.7030 C   0  0  0  0  0  0  0  0  0  0  0  0
  199.1090  168.7180  137.2590 O   0  0  0  0  0  0  0  0  0  0  0  0
  195.9040  168.3200  138.6910 C   0  0  0  0  0  3  0  0  0  0  0  0
  197.1010  167.9780  138.2300 C   0  0  0  0  0  3  0  0  0  0  0  0
  195.3580  169.6620  138.4690 C   0  0  0  0  0  3  0  0  0  0  0  0
  197.2680  170.2220  136.9790 C   0  0  0  0  0  2  0  0  0  0  0  0
  188.2900  177.8650  137.9460 C   0  0  0  0  0  2  0  0  0  0  0  0
  188.1100  178.4700  140.3220 C   0  0  0  0  0  2  0  0  0  0  0  0
  190.5680  176.9890  140.9300 C   0  0  0  0  0  2  0  0  0  0  0  0
  189.0830  178.1090  139.2250 C   0  0  1  0  0  3  0  0  0  0  0  0
  189.9910  177.9640  141.8900 N   0  0  0  0  0  0  0  0  0  0  0  0
  188.8750  178.8790  141.5710 C   0  0  0  0  0  2  0  0  0  0  0  0
  190.7660  179.4200  143.5460 O   0  0  0  0  0  0  0  0  0  0  0  0
  190.7040  178.2340  143.1010 C   0  0  0  0  0  0  0  0  0  0  0  0
  189.7710  176.8270  139.6410 C   0  0  0  0  0  2  0  0  0  0  0  0
  191.4650  177.1630  143.8140 C   0  0  0  0  0  2  0  0  0  0  0  0
  190.8670  176.8470  145.1760 C   0  0  0  0  0  2  0  0  0  0  0  0
  189.3980  176.4920  144.9410 C   0  0  0  0  0  2  0  0  0  0  0  0
  188.8820  178.6020  145.8880 O   0  0  0  0  0  1  0  0  0  0  0  0
  188.3250  177.3530  145.5770 C   0  0  1  0  0  3  0  0  0  0  0  0
  186.9480  177.5500  144.8980 C   0  0  1  0  0  3  0  0  0  0  0  0
  185.9980  176.6040  145.2940 O   0  0  0  0  0  1  0  0  0  0  0  0
  186.4100  178.9870  145.0030 C   0  0  1  0  0  3  0  0  0  0  0  0
  184.3600  179.2470  143.8030 C   0  0  2  0  0  3  0  0  0  0  0  0
  185.7850  179.4470  143.8050 O   0  0  0  0  0  0  0  0  0  0  0  0
  185.5140  179.1310  146.1910 C   0  0  0  0  0  0  0  0  0  0  0  0
  184.0790  178.7900  145.9730 C   0  0  0  0  0  2  0  0  0  0  0  0
  185.9090  179.6800  147.2000 O   0  0  0  0  0  0  0  0  0  0  0  0
  183.9270  178.2430  144.6850 O   0  0  0  0  0  0  0  0  0  0  0  0
  183.8570  178.9370  142.0840 P   0  0  2  0  0  0  0  0  0  0  0  0
  182.4300  179.7900  141.7870 O   0  0  0  0  0  0  0  0  0  0  0  0
  183.5830  177.4600  141.8630 O   0  0  0  0  0  1  0  0  0  0  0  0
  185.0170  179.5850  141.0110 O   0  0  0  0  0  0  0  0  0  0  0  0
  184.8800  178.3080  138.5700 O   0  0  0  0  0  0  0  0  0  0  0  0
  184.3350  179.3910  139.4770 P   0  0  0  0  0  0  0  0  0  0  0  0
  183.2970  180.3520  138.9180 O   0  0  0  0  0  0  0  0  0  0  0  0
  1 13  1  6  0  0  0
  1 32  1  0  0  0  0
  3  2  2  0  0  0  0
  3  1  1  0  0  0  0
  4  2  1  0  0  0  0
  5  4  2  0  0  0  0
  6  7  1  0  0  0  0
  6  4  1  0  0  0  0
  7 12  1  6  0  0  0
  8 10  1  0  0  0  0
  8  9  1  0  0  0  0
  8  7  1  1  0  0  0
 10  9  1  0  0  0  0
 12 11  1  0  0  0  0
 14 13  1  0  0  0  0
 14 16  1  0  0  0  0
 15 14  2  0  0  0  0
 17 19  1  0  0  0  0
 17 16  1  0  0  0  0
 18 24  2  0  0  0  0
 19 21  1  0  0  0  0
 20 19  2  0  0  0  0
 20 22  1  0  0  0  0
 21 18  1  0  0  0  0
 22 23  2  0  0  0  0
 23 26  1  0  0  0  0
 23 24  1  0  0  0  0
 25 29  1  0  0  0  0
 26 30  2  0  0  0  0
 27 25  2  0  0  0  0
 29 28  2  0  0  0  0
 30 28  1  0  0  0  0
 31 25  1  0  0  0  0
 31 26  1  0  0  0  0
 33 37  1  0  0  0  0
 34 36  1  0  0  0  0
 35 32  1  6  0  0  0
 35 40  1  0  0  0  0
 35 33  1  0  0  0  0
 36 39  1  0  0  0  0
 37 36  1  0  0  0  0
 39 38  2  0  0  0  0
 39 41  1  0  0  0  0
 40 34  1  0  0  0  0
 41 42  1  0  0  0  0
 43 42  1  0  0  0  0
 43 45  1  0  0  0  0
 45 44  1  6  0  0  0
 46 47  1  1  0  0  0
 46 45  1  0  0  0  0
 48 46  1  6  0  0  0
 48 51  1  0  0  0  0
 49 55  1  6  0  0  0
 49 50  1  0  0  0  0
 49 54  1  0  0  0  0
 50 48  1  0  0  0  0
 51 53  2  0  0  0  0
 52 51  1  0  0  0  0
 54 52  1  0  0  0  0
 55 56  2  6  0  0  0
 57 55  1  0  0  0  0
 58 55  1  0  0  0  0
 59 60  2  0  0  0  0
 60 58  1  0  0  0  0
 61 60  2  0  0  0  0
M  END
>  <MODEL>
9

>  <REMARK>
 VINA RESULT:      -5.4      4.437     12.035
  Name = 
  22 active torsions:
  status: ('A' for Active; 'I' for Inactive)
    1  A    between atoms: C_1  and  C_6
    2  A    between atoms: C_1  and  N_32
    3  A    between atoms: C_3  and  C_12
    4  A    between atoms: P_5  and  C_11
    5  A    between atoms: P_5  and  O_36
    6  A    between atoms: C_8  and  C_23
    7  A    between atoms: C_8  and  C_42
    8  A    between atoms: C_10  and  C_47
    9  A    between atoms: C_12  and  C_42
   10  A    between atoms: C_14  and  C_19
   11  A    between atoms: C_16  and  C_45
   12  A    between atoms: C_17  and  C_18
   13  A    between atoms: C_17  and  C_53
   14  A    between atoms: C_18  and  C_55
   15  A    between atoms: C_19  and  C_38
   16  A    between atoms: C_19  and  O_52
   17  A    between atoms: N_22  and  C_33
   18  A    between atoms: C_33  and  O_52
   19  A    between atoms: O_36  and  P_40
   20  A    between atoms: N_37  and  C_42
   21  A    between atoms: C_47  and  C_61
   22  A    between atoms: C_53  and  C_61
                            x       y       z     vdW  Elec       q    Type
                         _______ _______ _______ _____ _____    ______ ____

>  <TORSDO>
F 22

$$$$
