=
 OpenBabel10232412443D

 39 43  0  0  1  0  0  0  0  0999 V2000
  187.5090  177.8820  137.6390 C   0  0  0  0  0  3  0  0  0  0  0  0
  187.8650  178.0580  140.0780 C   0  0  0  0  0  3  0  0  0  0  0  0
  188.8350  177.1780  137.4210 C   0  0  0  0  0  3  0  0  0  0  0  0
  190.0280  177.1310  140.9930 C   0  0  0  0  0  0  0  0  0  0  0  0
  191.0640  176.5420  140.3940 C   0  0  0  0  0  2  0  0  0  0  0  0
  189.0480  177.4580  139.9720 C   0  0  0  0  0  0  0  0  0  0  0  0
  187.0710  178.2780  138.8490 C   0  0  0  0  0  3  0  0  0  0  0  0
  189.5860  177.0110  138.7130 C   0  0  0  0  0  0  0  0  0  0  0  0
  190.7810  176.4630  138.9430 C   0  0  0  0  0  0  0  0  0  0  0  0
  192.8340  176.5710  137.5310 C   0  0  0  0  0  3  0  0  0  0  0  0
  193.7140  176.0200  136.5950 C   0  0  0  0  0  3  0  0  0  0  0  0
  191.6980  175.8610  137.9470 C   0  0  0  0  0  0  0  0  0  0  0  0
  193.4700  174.7470  136.0710 C   0  0  0  0  0  0  0  0  0  0  0  0
  192.3390  174.0340  136.4740 C   0  0  0  0  0  3  0  0  0  0  0  0
  191.4590  174.5880  137.4080 C   0  0  0  0  0  3  0  0  0  0  0  0
  194.3990  174.1620  135.0650 C   0  0  0  0  0  2  0  0  0  0  0  0
  195.7070  174.7870  135.1800 N   0  0  0  0  0  2  0  0  0  0  0  0
  196.5600  173.8390  135.8790 C   0  0  0  0  0  2  0  0  0  0  0  0
  197.6010  174.5650  136.7270 C   0  0  1  0  0  3  0  0  0  0  0  0
  197.3680  175.9430  136.6770 O   0  0  0  0  0  1  0  0  0  0  0  0
  196.1990  174.2090  138.7870 C   0  0  0  0  0  3  0  0  0  0  0  0
  197.6020  174.0680  138.1750 C   0  0  2  0  0  3  0  0  0  0  0  0
  199.6120  175.1560  138.9810 O   0  0  0  0  0  0  0  0  0  0  0  0
  198.3680  174.9730  139.0400 C   0  0  0  0  0  0  0  0  0  0  0  0
  196.2390  175.2160  139.8630 N   0  0  0  0  0  0  0  0  0  0  0  0
  197.5600  175.5900  139.9580 O   0  0  0  0  0  0  0  0  0  0  0  0
  189.4340  177.3260  144.6570 C   0  0  0  0  0  0  0  0  0  0  0  0
  189.9180  177.3930  142.4370 C   0  0  0  0  0  0  0  0  0  0  0  0
  189.1800  176.6210  143.4200 C   0  0  0  0  0  0  0  0  0  0  0  0
  190.1870  178.3490  144.4100 N   0  0  0  0  0  0  0  0  0  0  0  0
  190.4920  178.3870  143.0370 N   0  0  0  0  0  0  0  0  0  0  0  0
  188.4840  175.5860  143.2440 O   0  0  0  0  0  0  0  0  0  0  0  0
  188.8900  177.0060  146.0090 C   0  0  0  0  0  2  0  0  0  0  0  0
  186.8510  178.1220  145.3090 C   0  0  0  0  0  3  0  0  0  0  0  0
  187.6850  177.8400  146.3210 C   0  0  0  0  0  0  0  0  0  0  0  0
  184.5530  178.6310  146.1810 C   0  0  0  0  0  1  0  0  0  0  0  0
  185.6810  178.8990  145.3600 O   0  0  0  0  0  0  0  0  0  0  0  0
  187.4500  178.3050  147.7000 C   0  0  0  0  0  3  0  0  0  0  0  0
  188.2440  177.9800  148.7150 C   0  0  0  0  0  2  0  0  0  0  0  0
  1  7  1  0  0  0  0
  3  1  2  0  0  0  0
  3  8  1  0  0  0  0
  4 28  1  0  0  0  0
  5  4  1  0  0  0  0
  6  2  1  0  0  0  0
  6  4  2  0  0  0  0
  7  2  2  0  0  0  0
  8  9  2  0  0  0  0
  8  6  1  0  0  0  0
  9  5  1  0  0  0  0
 10 12  1  0  0  0  0
 11 10  2  0  0  0  0
 12  9  1  0  0  0  0
 13 14  2  0  0  0  0
 13 11  1  0  0  0  0
 14 15  1  0  0  0  0
 15 12  2  0  0  0  0
 16 17  1  0  0  0  0
 16 13  1  0  0  0  0
 17 18  1  0  0  0  0
 18 19  1  0  0  0  0
 19 20  1  1  0  0  0
 21 25  2  0  0  0  0
 22 19  1  6  0  0  0
 22 21  1  0  0  0  0
 22 24  1  0  0  0  0
 23 24  2  0  0  0  0
 24 26  1  0  0  0  0
 25 26  1  0  0  0  0
 27 33  1  0  0  0  0
 28 31  2  0  0  0  0
 28 29  1  0  0  0  0
 29 27  1  0  0  0  0
 30 27  2  0  0  0  0
 31 30  1  0  0  0  0
 32 29  2  0  0  0  0
 33 35  1  0  0  0  0
 34 37  1  0  0  0  0
 34 35  2  0  0  0  0
 35 38  1  0  0  0  0
 37 36  1  0  0  0  0
 38 39  2  0  0  0  0
M  END
>  <MODEL>
1

>  <REMARK>
 VINA RESULT:      -8.6      0.000      0.000
  Name = 
  11 active torsions:
  status: ('A' for Active; 'I' for Inactive)
    1  A    between atoms: C_2  and  C_4
    2  A    between atoms: C_2  and  C_35
    3  A    between atoms: C_5  and  C_22
    4  A    between atoms: C_10  and  C_35
    5  A    between atoms: C_11  and  O_30
    6  A    between atoms: C_12  and  C_22
    7  A    between atoms: C_12  and  N_39
    8  A    between atoms: C_13  and  C_38
    9  A    between atoms: C_15  and  C_23
   10  A    between atoms: C_16  and  C_25
   11  A    between atoms: C_23  and  N_39
                            x       y       z     vdW  Elec       q    Type
                         _______ _______ _______ _____ _____    ______ ____

>  <TORSDO>
F 11

$$$$
=
 OpenBabel10232412443D

 39 43  0  0  1  0  0  0  0  0999 V2000
  180.9870  178.9600  144.0450 C   0  0  0  0  0  3  0  0  0  0  0  0
  181.8030  178.8080  141.7180 C   0  0  0  0  0  3  0  0  0  0  0  0
  182.3770  178.7710  144.6230 C   0  0  0  0  0  2  0  0  0  0  0  0
  184.2760  178.4210  141.3890 C   0  0  0  0  0  0  0  0  0  0  0  0
  185.2730  178.2720  142.2620 C   0  0  0  0  0  3  0  0  0  0  0  0
  183.0500  178.6250  142.1420 C   0  0  0  0  0  0  0  0  0  0  0  0
  180.7310  178.9780  142.7230 C   0  0  0  0  0  3  0  0  0  0  0  0
  183.4020  178.5870  143.5380 C   0  0  0  0  0  0  0  0  0  0  0  0
  184.7170  178.3800  143.6300 C   0  0  0  0  0  0  0  0  0  0  0  0
  186.4200  177.2100  145.0250 C   0  0  0  0  0  3  0  0  0  0  0  0
  187.1950  177.0960  146.1840 C   0  0  0  0  0  3  0  0  0  0  0  0
  185.5240  178.2780  144.8670 C   0  0  0  0  0  0  0  0  0  0  0  0
  187.0850  178.0550  147.1950 C   0  0  0  0  0  0  0  0  0  0  0  0
  186.1920  179.1200  147.0500 C   0  0  0  0  0  3  0  0  0  0  0  0
  185.4170  179.2300  145.8920 C   0  0  0  0  0  3  0  0  0  0  0  0
  187.8990  177.9310  148.4340 C   0  0  0  0  0  2  0  0  0  0  0  0
  189.2830  178.2780  148.1530 N   0  0  0  0  0  2  0  0  0  0  0  0
  189.8490  177.1590  147.4160 C   0  0  0  0  0  2  0  0  0  0  0  0
  190.8590  177.6450  146.3800 C   0  0  1  0  0  3  0  0  0  0  0  0
  191.9660  176.7910  146.3680 O   0  0  0  0  0  1  0  0  0  0  0  0
  190.3310  176.3920  144.2600 C   0  0  0  0  0  3  0  0  0  0  0  0
  190.2370  177.7450  144.9840 C   0  0  2  0  0  3  0  0  0  0  0  0
  191.2420  179.8210  144.2360 O   0  0  0  0  0  0  0  0  0  0  0  0
  191.0600  178.5820  144.1020 C   0  0  0  0  0  0  0  0  0  0  0  0
  191.2400  176.5210  143.1080 N   0  0  0  0  0  0  0  0  0  0  0  0
  191.5980  177.8500  143.0780 O   0  0  0  0  0  0  0  0  0  0  0  0
  184.2620  177.8950  137.7100 C   0  0  0  0  0  0  0  0  0  0  0  0
  184.4160  178.3830  139.9240 C   0  0  0  0  0  0  0  0  0  0  0  0
  183.7740  177.4640  139.0010 C   0  0  0  0  0  0  0  0  0  0  0  0
  185.0670  178.8930  137.8770 N   0  0  0  0  0  0  0  0  0  0  0  0
  185.1580  179.1990  139.2470 N   0  0  0  0  0  0  0  0  0  0  0  0
  182.9830  176.5180  139.2580 O   0  0  0  0  0  0  0  0  0  0  0  0
  183.9660  177.2840  136.3810 C   0  0  0  0  0  2  0  0  0  0  0  0
  185.0060  175.1000  136.5940 C   0  0  0  0  0  3  0  0  0  0  0  0
  185.0240  176.2970  135.9890 C   0  0  0  0  0  0  0  0  0  0  0  0
  186.1720  173.0110  137.3530 C   0  0  0  0  0  1  0  0  0  0  0  0
  185.9060  174.0370  136.4060 O   0  0  0  0  0  0  0  0  0  0  0  0
  186.0230  176.6590  134.9670 C   0  0  0  0  0  3  0  0  0  0  0  0
  186.9370  177.6040  135.1570 C   0  0  0  0  0  2  0  0  0  0  0  0
  1  3  1  0  0  0  0
  2  6  2  0  0  0  0
  2  7  1  0  0  0  0
  4  6  1  0  0  0  0
  4  5  2  0  0  0  0
  5  9  1  0  0  0  0
  6  8  1  0  0  0  0
  7  1  2  0  0  0  0
  8  9  2  0  0  0  0
  8  3  1  0  0  0  0
  9 12  1  0  0  0  0
 10 11  1  0  0  0  0
 11 13  2  0  0  0  0
 12 10  2  0  0  0  0
 12 15  1  0  0  0  0
 13 16  1  0  0  0  0
 14 13  1  0  0  0  0
 15 14  2  0  0  0  0
 17 16  1  0  0  0  0
 18 17  1  0  0  0  0
 19 20  1  6  0  0  0
 19 18  1  0  0  0  0
 21 22  1  0  0  0  0
 22 19  1  1  0  0  0
 24 23  2  0  0  0  0
 24 22  1  0  0  0  0
 25 21  2  0  0  0  0
 26 25  1  0  0  0  0
 26 24  1  0  0  0  0
 27 30  2  0  0  0  0
 27 29  1  0  0  0  0
 28  4  1  0  0  0  0
 29 32  2  0  0  0  0
 29 28  1  0  0  0  0
 30 31  1  0  0  0  0
 31 28  2  0  0  0  0
 33 27  1  0  0  0  0
 35 33  1  0  0  0  0
 35 34  2  0  0  0  0
 37 34  1  0  0  0  0
 37 36  1  0  0  0  0
 38 39  2  0  0  0  0
 38 35  1  0  0  0  0
M  END
>  <MODEL>
2

>  <REMARK>
 VINA RESULT:      -8.5      5.849     10.050
  Name = 
  11 active torsions:
  status: ('A' for Active; 'I' for Inactive)
    1  A    between atoms: C_2  and  C_4
    2  A    between atoms: C_2  and  C_35
    3  A    between atoms: C_5  and  C_22
    4  A    between atoms: C_10  and  C_35
    5  A    between atoms: C_11  and  O_30
    6  A    between atoms: C_12  and  C_22
    7  A    between atoms: C_12  and  N_39
    8  A    between atoms: C_13  and  C_38
    9  A    between atoms: C_15  and  C_23
   10  A    between atoms: C_16  and  C_25
   11  A    between atoms: C_23  and  N_39
                            x       y       z     vdW  Elec       q    Type
                         _______ _______ _______ _____ _____    ______ ____

>  <TORSDO>
F 11

$$$$
=
 OpenBabel10232412443D

 39 43  0  0  1  0  0  0  0  0999 V2000
  187.6220  178.3730  138.3030 C   0  0  0  0  0  3  0  0  0  0  0  0
  189.7210  177.4590  137.3740 C   0  0  0  0  0  3  0  0  0  0  0  0
  188.0820  178.1750  139.7350 C   0  0  0  0  0  2  0  0  0  0  0  0
  191.4620  176.6710  139.0250 C   0  0  0  0  0  0  0  0  0  0  0  0
  191.4720  176.6470  140.3580 C   0  0  0  0  0  3  0  0  0  0  0  0
  190.1950  177.2410  138.5970 C   0  0  0  0  0  0  0  0  0  0  0  0
  188.3720  178.0470  137.2320 C   0  0  0  0  0  3  0  0  0  0  0  0
  189.4520  177.5560  139.7900 C   0  0  0  0  0  0  0  0  0  0  0  0
  190.1930  177.2120  140.8450 C   0  0  0  0  0  0  0  0  0  0  0  0
  188.9730  176.4360  142.8760 C   0  0  0  0  0  3  0  0  0  0  0  0
  188.6280  176.5560  144.2260 C   0  0  0  0  0  3  0  0  0  0  0  0
  189.8390  177.3610  142.2760 C   0  0  0  0  0  0  0  0  0  0  0  0
  189.1550  177.6000  144.9920 C   0  0  0  0  0  0  0  0  0  0  0  0
  190.0150  178.5300  144.4020 C   0  0  0  0  0  3  0  0  0  0  0  0
  190.3550  178.4100  143.0520 C   0  0  0  0  0  3  0  0  0  0  0  0
  188.7810  177.7370  146.4260 C   0  0  0  0  0  2  0  0  0  0  0  0
  187.3660  177.4510  146.5960 N   0  0  0  0  0  2  0  0  0  0  0  0
  186.6500  178.6640  146.2380 C   0  0  0  0  0  2  0  0  0  0  0  0
  185.2540  178.3390  145.7140 C   0  0  1  0  0  3  0  0  0  0  0  0
  184.3330  178.4010  146.7640 O   0  0  0  0  0  1  0  0  0  0  0  0
  183.3120  179.4250  144.5350 C   0  0  0  0  0  3  0  0  0  0  0  0
  184.8420  179.2770  144.5760 C   0  0  2  0  0  3  0  0  0  0  0  0
  186.2240  178.3900  142.7930 O   0  0  0  0  0  0  0  0  0  0  0  0
  185.0890  178.6560  143.2690 C   0  0  0  0  0  0  0  0  0  0  0  0
  182.8000  178.8190  143.2930 N   0  0  0  0  0  0  0  0  0  0  0  0
  183.9200  178.4180  142.5990 O   0  0  0  0  0  0  0  0  0  0  0  0
  193.9270  174.9980  136.8030 C   0  0  0  0  0  0  0  0  0  0  0  0
  192.5540  176.1990  138.1580 C   0  0  0  0  0  0  0  0  0  0  0  0
  192.6870  174.8930  137.5390 C   0  0  0  0  0  0  0  0  0  0  0  0
  194.4280  176.1760  136.9900 N   0  0  0  0  0  0  0  0  0  0  0  0
  193.5750  176.9220  137.8240 N   0  0  0  0  0  0  0  0  0  0  0  0
  191.9110  173.9040  137.6190 O   0  0  0  0  0  0  0  0  0  0  0  0
  194.5950  173.9320  136.0000 C   0  0  0  0  0  2  0  0  0  0  0  0
  197.0020  173.6990  136.2190 C   0  0  0  0  0  3  0  0  0  0  0  0
  195.7950  173.3860  136.7120 C   0  0  0  0  0  0  0  0  0  0  0  0
  199.0520  174.0010  137.6350 C   0  0  0  0  0  1  0  0  0  0  0  0
  198.2550  173.2840  136.7020 O   0  0  0  0  0  0  0  0  0  0  0  0
  195.6180  172.5490  137.9130 C   0  0  0  0  0  3  0  0  0  0  0  0
  195.4690  171.2290  137.8560 C   0  0  0  0  0  2  0  0  0  0  0  0
  1  3  1  0  0  0  0
  2  6  2  0  0  0  0
  3  8  1  0  0  0  0
  4  5  2  0  0  0  0
  5  9  1  0  0  0  0
  6  4  1  0  0  0  0
  6  8  1  0  0  0  0
  7  2  1  0  0  0  0
  7  1  2  0  0  0  0
  8  9  2  0  0  0  0
  9 12  1  0  0  0  0
 10 11  1  0  0  0  0
 11 13  2  0  0  0  0
 12 10  2  0  0  0  0
 12 15  1  0  0  0  0
 13 16  1  0  0  0  0
 14 13  1  0  0  0  0
 15 14  2  0  0  0  0
 16 17  1  0  0  0  0
 18 17  1  0  0  0  0
 19 18  1  0  0  0  0
 19 20  1  1  0  0  0
 21 22  1  0  0  0  0
 22 19  1  1  0  0  0
 23 24  2  0  0  0  0
 24 22  1  0  0  0  0
 25 21  2  0  0  0  0
 26 24  1  0  0  0  0
 26 25  1  0  0  0  0
 27 30  2  0  0  0  0
 27 29  1  0  0  0  0
 28  4  1  0  0  0  0
 29 32  2  0  0  0  0
 29 28  1  0  0  0  0
 30 31  1  0  0  0  0
 31 28  2  0  0  0  0
 33 35  1  0  0  0  0
 33 27  1  0  0  0  0
 34 37  1  0  0  0  0
 34 35  2  0  0  0  0
 35 38  1  0  0  0  0
 37 36  1  0  0  0  0
 39 38  2  0  0  0  0
M  END
>  <MODEL>
3

>  <REMARK>
 VINA RESULT:      -8.4      2.293     10.950
  Name = 
  11 active torsions:
  status: ('A' for Active; 'I' for Inactive)
    1  A    between atoms: C_2  and  C_4
    2  A    between atoms: C_2  and  C_35
    3  A    between atoms: C_5  and  C_22
    4  A    between atoms: C_10  and  C_35
    5  A    between atoms: C_11  and  O_30
    6  A    between atoms: C_12  and  C_22
    7  A    between atoms: C_12  and  N_39
    8  A    between atoms: C_13  and  C_38
    9  A    between atoms: C_15  and  C_23
   10  A    between atoms: C_16  and  C_25
   11  A    between atoms: C_23  and  N_39
                            x       y       z     vdW  Elec       q    Type
                         _______ _______ _______ _____ _____    ______ ____

>  <TORSDO>
F 11

$$$$
=
 OpenBabel10232412443D

 39 43  0  0  1  0  0  0  0  0999 V2000
  181.1290  179.0790  143.6650 C   0  0  0  0  0  3  0  0  0  0  0  0
  182.0390  178.8080  141.3840 C   0  0  0  0  0  3  0  0  0  0  0  0
  182.4840  178.8650  144.3120 C   0  0  0  0  0  2  0  0  0  0  0  0
  184.5090  178.3240  141.1820 C   0  0  0  0  0  0  0  0  0  0  0  0
  185.4610  178.1760  142.1030 C   0  0  0  0  0  3  0  0  0  0  0  0
  183.2590  178.5990  141.8700 C   0  0  0  0  0  0  0  0  0  0  0  0
  180.9310  179.0540  142.3340 C   0  0  0  0  0  3  0  0  0  0  0  0
  183.5480  178.6040  143.2810 C   0  0  0  0  0  0  0  0  0  0  0  0
  184.8500  178.3560  143.4400 C   0  0  0  0  0  0  0  0  0  0  0  0
  186.4960  177.2180  144.9270 C   0  0  0  0  0  3  0  0  0  0  0  0
  187.2150  177.1240  146.1220 C   0  0  0  0  0  3  0  0  0  0  0  0
  185.5980  178.2750  144.7160 C   0  0  0  0  0  0  0  0  0  0  0  0
  187.0480  178.0920  147.1170 C   0  0  0  0  0  0  0  0  0  0  0  0
  186.1520  179.1460  146.9190 C   0  0  0  0  0  3  0  0  0  0  0  0
  185.4320  179.2360  145.7240 C   0  0  0  0  0  3  0  0  0  0  0  0
  187.8030  177.9890  148.3950 C   0  0  0  0  0  2  0  0  0  0  0  0
  189.2030  178.3100  148.1680 N   0  0  0  0  0  2  0  0  0  0  0  0
  189.7840  177.1700  147.4770 C   0  0  0  0  0  2  0  0  0  0  0  0
  190.8560  177.6200  146.4890 C   0  0  1  0  0  3  0  0  0  0  0  0
  191.9890  176.8140  146.6270 O   0  0  0  0  0  1  0  0  0  0  0  0
  190.6730  176.2430  144.3890 C   0  0  0  0  0  3  0  0  0  0  0  0
  190.3450  177.5930  145.0450 C   0  0  2  0  0  3  0  0  0  0  0  0
  191.1300  179.7600  144.2920 O   0  0  0  0  0  0  0  0  0  0  0  0
  191.1230  178.5040  144.1970 C   0  0  0  0  0  0  0  0  0  0  0  0
  191.6510  176.4560  143.3070 N   0  0  0  0  0  0  0  0  0  0  0  0
  191.8340  177.8190  143.2490 O   0  0  0  0  0  0  0  0  0  0  0  0
  185.5630  178.1640  137.6210 C   0  0  0  0  0  0  0  0  0  0  0  0
  184.7100  178.2240  139.7270 C   0  0  0  0  0  0  0  0  0  0  0  0
  185.9570  178.3710  138.9970 C   0  0  0  0  0  0  0  0  0  0  0  0
  184.2880  177.9490  137.5770 N   0  0  0  0  0  0  0  0  0  0  0  0
  183.7610  177.9800  138.8810 N   0  0  0  0  0  0  0  0  0  0  0  0
  187.1060  178.6200  139.4490 O   0  0  0  0  0  0  0  0  0  0  0  0
  186.4320  178.2400  136.4100 C   0  0  0  0  0  2  0  0  0  0  0  0
  188.6790  177.3260  136.5240 C   0  0  0  0  0  3  0  0  0  0  0  0
  187.3740  177.0750  136.3440 C   0  0  0  0  0  0  0  0  0  0  0  0
  190.8070  176.3380  137.4140 C   0  0  0  0  0  1  0  0  0  0  0  0
  189.7380  176.4030  136.4810 O   0  0  0  0  0  0  0  0  0  0  0  0
  186.8490  175.7190  136.1010 C   0  0  0  0  0  3  0  0  0  0  0  0
  186.6870  174.8250  137.0710 C   0  0  0  0  0  2  0  0  0  0  0  0
  1  3  1  0  0  0  0
  2  6  2  0  0  0  0
  2  7  1  0  0  0  0
  4  6  1  0  0  0  0
  4  5  2  0  0  0  0
  5  9  1  0  0  0  0
  6  8  1  0  0  0  0
  7  1  2  0  0  0  0
  8  9  2  0  0  0  0
  8  3  1  0  0  0  0
  9 12  1  0  0  0  0
 10 11  1  0  0  0  0
 11 13  2  0  0  0  0
 12 10  2  0  0  0  0
 12 15  1  0  0  0  0
 13 16  1  0  0  0  0
 14 13  1  0  0  0  0
 15 14  2  0  0  0  0
 17 16  1  0  0  0  0
 18 17  1  0  0  0  0
 19 20  1  6  0  0  0
 19 18  1  0  0  0  0
 21 22  1  0  0  0  0
 22 19  1  1  0  0  0
 24 23  2  0  0  0  0
 24 22  1  0  0  0  0
 25 21  2  0  0  0  0
 26 25  1  0  0  0  0
 26 24  1  0  0  0  0
 27 29  1  0  0  0  0
 28  4  1  0  0  0  0
 29 32  2  0  0  0  0
 29 28  1  0  0  0  0
 30 27  2  0  0  0  0
 30 31  1  0  0  0  0
 31 28  2  0  0  0  0
 33 27  1  0  0  0  0
 35 33  1  0  0  0  0
 35 34  2  0  0  0  0
 37 34  1  0  0  0  0
 37 36  1  0  0  0  0
 38 35  1  0  0  0  0
 38 39  2  0  0  0  0
M  END
>  <MODEL>
4

>  <REMARK>
 VINA RESULT:      -8.3      4.354      9.840
  Name = 
  11 active torsions:
  status: ('A' for Active; 'I' for Inactive)
    1  A    between atoms: C_2  and  C_4
    2  A    between atoms: C_2  and  C_35
    3  A    between atoms: C_5  and  C_22
    4  A    between atoms: C_10  and  C_35
    5  A    between atoms: C_11  and  O_30
    6  A    between atoms: C_12  and  C_22
    7  A    between atoms: C_12  and  N_39
    8  A    between atoms: C_13  and  C_38
    9  A    between atoms: C_15  and  C_23
   10  A    between atoms: C_16  and  C_25
   11  A    between atoms: C_23  and  N_39
                            x       y       z     vdW  Elec       q    Type
                         _______ _______ _______ _____ _____    ______ ____

>  <TORSDO>
F 11

$$$$
=
 OpenBabel10232412443D

 39 43  0  0  1  0  0  0  0  0999 V2000
  190.3620  176.9320  146.4050 C   0  0  0  0  0  3  0  0  0  0  0  0
  191.4350  176.8500  144.1810 C   0  0  0  0  0  3  0  0  0  0  0  0
  189.0060  177.2780  145.8200 C   0  0  0  0  0  2  0  0  0  0  0  0
  189.9770  177.3510  142.1810 C   0  0  0  0  0  0  0  0  0  0  0  0
  188.6850  177.6680  142.0840 C   0  0  0  0  0  3  0  0  0  0  0  0
  190.2860  177.1630  143.5890 C   0  0  0  0  0  0  0  0  0  0  0  0
  191.4640  176.7370  145.6560 C   0  0  0  0  0  3  0  0  0  0  0  0
  189.0680  177.3930  144.3220 C   0  0  0  0  0  0  0  0  0  0  0  0
  188.1060  177.6920  143.4460 C   0  0  0  0  0  0  0  0  0  0  0  0
  185.7620  178.0860  142.6920 C   0  0  0  0  0  3  0  0  0  0  0  0
  184.4180  178.3680  142.9490 C   0  0  0  0  0  3  0  0  0  0  0  0
  186.6870  177.9960  143.7430 C   0  0  0  0  0  0  0  0  0  0  0  0
  183.9820  178.5550  144.2640 C   0  0  0  0  0  0  0  0  0  0  0  0
  184.8950  178.4730  145.3180 C   0  0  0  0  0  3  0  0  0  0  0  0
  186.2400  178.1940  145.0580 C   0  0  0  0  0  3  0  0  0  0  0  0
  182.5530  178.8670  144.5410 C   0  0  0  0  0  2  0  0  0  0  0  0
  181.9370  179.4480  143.3590 N   0  0  0  0  0  2  0  0  0  0  0  0
  180.6610  178.7730  143.1810 C   0  0  0  0  0  2  0  0  0  0  0  0
  180.2520  178.7610  141.7110 C   0  0  1  0  0  3  0  0  0  0  0  0
  180.0270  180.0710  141.2770 O   0  0  0  0  0  1  0  0  0  0  0  0
  181.8440  179.0540  139.7830 C   0  0  0  0  0  3  0  0  0  0  0  0
  181.3010  178.0730  140.8340 C   0  0  2  0  0  3  0  0  0  0  0  0
  180.1440  175.9950  140.3640 O   0  0  0  0  0  0  0  0  0  0  0  0
  180.6800  177.0630  139.9680 C   0  0  0  0  0  0  0  0  0  0  0  0
  181.4340  178.6030  138.4410 N   0  0  0  0  0  0  0  0  0  0  0  0
  180.7780  177.4100  138.6470 O   0  0  0  0  0  0  0  0  0  0  0  0
  191.8740  176.8660  139.0220 C   0  0  0  0  0  0  0  0  0  0  0  0
  190.9080  177.2190  141.0490 C   0  0  0  0  0  0  0  0  0  0  0  0
  190.5950  176.8000  139.6940 C   0  0  0  0  0  0  0  0  0  0  0  0
  192.7740  177.2490  139.8690 N   0  0  0  0  0  0  0  0  0  0  0  0
  192.1750  177.4730  141.1220 N   0  0  0  0  0  0  0  0  0  0  0  0
  189.4810  176.4590  139.2160 O   0  0  0  0  0  0  0  0  0  0  0  0
  192.1700  176.5030  137.6050 C   0  0  0  0  0  2  0  0  0  0  0  0
  193.8560  174.7570  137.6830 C   0  0  0  0  0  3  0  0  0  0  0  0
  192.5650  175.0620  137.4850 C   0  0  0  0  0  0  0  0  0  0  0  0
  195.3500  172.9390  138.5560 C   0  0  0  0  0  1  0  0  0  0  0  0
  194.4550  173.4890  137.5990 O   0  0  0  0  0  0  0  0  0  0  0  0
  191.5450  174.0440  137.1720 C   0  0  0  0  0  3  0  0  0  0  0  0
  190.3940  174.3390  136.5760 C   0  0  0  0  0  2  0  0  0  0  0  0
  2  7  1  0  0  0  0
  3  1  1  0  0  0  0
  4  6  1  0  0  0  0
  5  4  2  0  0  0  0
  5  9  1  0  0  0  0
  6  2  2  0  0  0  0
  6  8  1  0  0  0  0
  7  1  2  0  0  0  0
  8  3  1  0  0  0  0
  9 12  1  0  0  0  0
  9  8  2  0  0  0  0
 10 11  2  0  0  0  0
 10 12  1  0  0  0  0
 11 13  1  0  0  0  0
 12 15  2  0  0  0  0
 13 16  1  0  0  0  0
 13 14  2  0  0  0  0
 15 14  1  0  0  0  0
 17 16  1  0  0  0  0
 18 17  1  0  0  0  0
 19 20  1  6  0  0  0
 19 18  1  0  0  0  0
 21 22  1  0  0  0  0
 22 19  1  1  0  0  0
 24 23  2  0  0  0  0
 24 22  1  0  0  0  0
 25 26  1  0  0  0  0
 25 21  2  0  0  0  0
 26 24  1  0  0  0  0
 27 29  1  0  0  0  0
 27 30  2  0  0  0  0
 28 31  2  0  0  0  0
 28  4  1  0  0  0  0
 29 28  1  0  0  0  0
 30 31  1  0  0  0  0
 32 29  2  0  0  0  0
 33 27  1  0  0  0  0
 35 33  1  0  0  0  0
 35 34  2  0  0  0  0
 37 34  1  0  0  0  0
 37 36  1  0  0  0  0
 38 35  1  0  0  0  0
 39 38  2  0  0  0  0
M  END
>  <MODEL>
5

>  <REMARK>
 VINA RESULT:      -8.2      4.087     11.797
  Name = 
  11 active torsions:
  status: ('A' for Active; 'I' for Inactive)
    1  A    between atoms: C_2  and  C_4
    2  A    between atoms: C_2  and  C_35
    3  A    between atoms: C_5  and  C_22
    4  A    between atoms: C_10  and  C_35
    5  A    between atoms: C_11  and  O_30
    6  A    between atoms: C_12  and  C_22
    7  A    between atoms: C_12  and  N_39
    8  A    between atoms: C_13  and  C_38
    9  A    between atoms: C_15  and  C_23
   10  A    between atoms: C_16  and  C_25
   11  A    between atoms: C_23  and  N_39
                            x       y       z     vdW  Elec       q    Type
                         _______ _______ _______ _____ _____    ______ ____

>  <TORSDO>
F 11

$$$$
=
 OpenBabel10232412443D

 39 43  0  0  1  0  0  0  0  0999 V2000
  187.2850  178.5400  137.2450 C   0  0  0  0  0  3  0  0  0  0  0  0
  189.5680  177.6970  136.8210 C   0  0  0  0  0  3  0  0  0  0  0  0
  187.3700  178.2440  138.7300 C   0  0  0  0  0  2  0  0  0  0  0  0
  190.8490  176.7990  138.8040 C   0  0  0  0  0  0  0  0  0  0  0  0
  190.5210  176.6820  140.0910 C   0  0  0  0  0  3  0  0  0  0  0  0
  189.7210  177.3950  138.1070 C   0  0  0  0  0  0  0  0  0  0  0  0
  188.2870  178.2920  136.3810 C   0  0  0  0  0  3  0  0  0  0  0  0
  188.6930  177.6250  139.0900 C   0  0  0  0  0  0  0  0  0  0  0  0
  189.1490  177.2100  140.2740 C   0  0  0  0  0  0  0  0  0  0  0  0
  187.5960  178.3390  141.8640 C   0  0  0  0  0  3  0  0  0  0  0  0
  186.9160  178.4030  143.0840 C   0  0  0  0  0  3  0  0  0  0  0  0
  188.4420  177.2580  141.5740 C   0  0  0  0  0  0  0  0  0  0  0  0
  187.0690  177.3800  144.0240 C   0  0  0  0  0  0  0  0  0  0  0  0
  187.9130  176.3010  143.7480 C   0  0  0  0  0  3  0  0  0  0  0  0
  188.5940  176.2410  142.5290 C   0  0  0  0  0  3  0  0  0  0  0  0
  186.3560  177.4500  145.3280 C   0  0  0  0  0  2  0  0  0  0  0  0
  186.8800  178.5530  146.1180 N   0  0  0  0  0  2  0  0  0  0  0  0
  187.4440  177.9690  147.3240 C   0  0  0  0  0  2  0  0  0  0  0  0
  188.9590  178.1440  147.3570 C   0  0  1  0  0  3  0  0  0  0  0  0
  189.4030  178.1460  148.6830 O   0  0  0  0  0  1  0  0  0  0  0  0
  190.5870  176.2260  147.4650 C   0  0  0  0  0  3  0  0  0  0  0  0
  189.6740  177.0570  146.5490 C   0  0  2  0  0  3  0  0  0  0  0  0
  190.4000  178.3720  144.6460 O   0  0  0  0  0  0  0  0  0  0  0  0
  190.6650  177.6460  145.6400 C   0  0  0  0  0  0  0  0  0  0  0  0
  191.9930  176.4590  147.0870 N   0  0  0  0  0  0  0  0  0  0  0  0
  191.9390  177.2850  145.9870 O   0  0  0  0  0  0  0  0  0  0  0  0
  193.8510  175.2640  137.2410 C   0  0  0  0  0  0  0  0  0  0  0  0
  192.1330  176.3910  138.2130 C   0  0  0  0  0  0  0  0  0  0  0  0
  192.4910  175.0810  137.6980 C   0  0  0  0  0  0  0  0  0  0  0  0
  194.2130  176.4830  137.4750 N   0  0  0  0  0  0  0  0  0  0  0  0
  193.1480  177.1830  138.0720 N   0  0  0  0  0  0  0  0  0  0  0  0
  191.7900  174.0360  137.6580 O   0  0  0  0  0  0  0  0  0  0  0  0
  194.7520  174.2310  136.6490 C   0  0  0  0  0  2  0  0  0  0  0  0
  197.1240  174.7330  136.5240 C   0  0  0  0  0  3  0  0  0  0  0  0
  196.1130  174.2750  137.2760 C   0  0  0  0  0  0  0  0  0  0  0  0
  199.4730  173.8550  136.6460 C   0  0  0  0  0  1  0  0  0  0  0  0
  198.4770  174.8400  136.8880 O   0  0  0  0  0  0  0  0  0  0  0  0
  196.2940  173.8350  138.6720 C   0  0  0  0  0  3  0  0  0  0  0  0
  196.6520  174.6630  139.6470 C   0  0  0  0  0  2  0  0  0  0  0  0
  1  3  1  0  0  0  0
  2  6  2  0  0  0  0
  3  8  1  0  0  0  0
  4  5  2  0  0  0  0
  5  9  1  0  0  0  0
  6  4  1  0  0  0  0
  6  8  1  0  0  0  0
  7  2  1  0  0  0  0
  7  1  2  0  0  0  0
  8  9  2  0  0  0  0
  9 12  1  0  0  0  0
 10 11  1  0  0  0  0
 11 13  2  0  0  0  0
 12 10  2  0  0  0  0
 12 15  1  0  0  0  0
 13 16  1  0  0  0  0
 14 13  1  0  0  0  0
 15 14  2  0  0  0  0
 16 17  1  0  0  0  0
 17 18  1  0  0  0  0
 18 19  1  0  0  0  0
 19 20  1  1  0  0  0
 22 19  1  1  0  0  0
 22 21  1  0  0  0  0
 23 24  2  0  0  0  0
 24 26  1  0  0  0  0
 24 22  1  0  0  0  0
 25 21  2  0  0  0  0
 26 25  1  0  0  0  0
 27 30  2  0  0  0  0
 27 29  1  0  0  0  0
 28  4  1  0  0  0  0
 29 28  1  0  0  0  0
 30 31  1  0  0  0  0
 31 28  2  0  0  0  0
 32 29  2  0  0  0  0
 33 27  1  0  0  0  0
 33 35  1  0  0  0  0
 34 37  1  0  0  0  0
 34 35  2  0  0  0  0
 35 38  1  0  0  0  0
 36 37  1  0  0  0  0
 38 39  2  0  0  0  0
M  END
>  <MODEL>
6

>  <REMARK>
 VINA RESULT:      -8.1      2.280      9.901
  Name = 
  11 active torsions:
  status: ('A' for Active; 'I' for Inactive)
    1  A    between atoms: C_2  and  C_4
    2  A    between atoms: C_2  and  C_35
    3  A    between atoms: C_5  and  C_22
    4  A    between atoms: C_10  and  C_35
    5  A    between atoms: C_11  and  O_30
    6  A    between atoms: C_12  and  C_22
    7  A    between atoms: C_12  and  N_39
    8  A    between atoms: C_13  and  C_38
    9  A    between atoms: C_15  and  C_23
   10  A    between atoms: C_16  and  C_25
   11  A    between atoms: C_23  and  N_39
                            x       y       z     vdW  Elec       q    Type
                         _______ _______ _______ _____ _____    ______ ____

>  <TORSDO>
F 11

$$$$
=
 OpenBabel10232412443D

 39 43  0  0  1  0  0  0  0  0999 V2000
  187.5620  177.7050  137.2320 C   0  0  0  0  0  3  0  0  0  0  0  0
  187.7900  178.0600  139.6660 C   0  0  0  0  0  3  0  0  0  0  0  0
  188.8870  176.9720  137.1390 C   0  0  0  0  0  3  0  0  0  0  0  0
  189.8860  177.1790  140.7650 C   0  0  0  0  0  0  0  0  0  0  0  0
  190.9430  176.5340  140.2690 C   0  0  0  0  0  2  0  0  0  0  0  0
  188.9670  177.4400  139.6700 C   0  0  0  0  0  0  0  0  0  0  0  0
  187.0660  178.1960  138.3830 C   0  0  0  0  0  3  0  0  0  0  0  0
  189.5650  176.8930  138.4790 C   0  0  0  0  0  0  0  0  0  0  0  0
  190.7370  176.3500  138.8140 C   0  0  0  0  0  0  0  0  0  0  0  0
  192.9360  176.2590  137.6420 C   0  0  0  0  0  3  0  0  0  0  0  0
  193.8580  175.6270  136.8020 C   0  0  0  0  0  3  0  0  0  0  0  0
  191.6960  175.6640  137.9180 C   0  0  0  0  0  0  0  0  0  0  0  0
  193.5500  174.3880  136.2340 C   0  0  0  0  0  0  0  0  0  0  0  0
  192.3150  173.7890  136.4970 C   0  0  0  0  0  3  0  0  0  0  0  0
  191.3950  174.4240  137.3350 C   0  0  0  0  0  3  0  0  0  0  0  0
  194.5230  173.7170  135.3290 C   0  0  0  0  0  2  0  0  0  0  0  0
  195.8720  173.8770  135.8500 N   0  0  0  0  0  2  0  0  0  0  0  0
  196.2120  172.6280  136.5120 C   0  0  0  0  0  2  0  0  0  0  0  0
  197.2260  172.8620  137.6280 C   0  0  1  0  0  3  0  0  0  0  0  0
  198.4050  172.1660  137.3440 O   0  0  0  0  0  1  0  0  0  0  0  0
  199.0290  174.5990  137.8930 C   0  0  0  0  0  3  0  0  0  0  0  0
  197.5130  174.3520  137.8320 C   0  0  2  0  0  3  0  0  0  0  0  0
  195.9300  174.8360  139.6030 O   0  0  0  0  0  0  0  0  0  0  0  0
  197.1140  174.7840  139.1770 C   0  0  0  0  0  0  0  0  0  0  0  0
  199.3920  175.0530  139.2470 N   0  0  0  0  0  0  0  0  0  0  0  0
  198.1980  175.1590  139.9240 O   0  0  0  0  0  0  0  0  0  0  0  0
  189.1020  177.6560  144.3670 C   0  0  0  0  0  0  0  0  0  0  0  0
  189.7030  177.5510  142.1770 C   0  0  0  0  0  0  0  0  0  0  0  0
  188.9050  176.8610  143.1750 C   0  0  0  0  0  0  0  0  0  0  0  0
  189.8790  178.6510  144.0840 N   0  0  0  0  0  0  0  0  0  0  0  0
  190.2560  178.5820  142.7300 N   0  0  0  0  0  0  0  0  0  0  0  0
  188.2070  175.8220  143.0390 O   0  0  0  0  0  0  0  0  0  0  0  0
  188.4830  177.4430  145.7080 C   0  0  0  0  0  2  0  0  0  0  0  0
  190.7330  176.9090  146.4500 C   0  0  0  0  0  3  0  0  0  0  0  0
  189.5250  177.3880  146.7840 C   0  0  0  0  0  0  0  0  0  0  0  0
  192.5070  175.5100  147.5420 C   0  0  0  0  0  1  0  0  0  0  0  0
  191.8460  176.7420  147.2910 O   0  0  0  0  0  0  0  0  0  0  0  0
  189.2040  177.8600  148.1430 C   0  0  0  0  0  3  0  0  0  0  0  0
  188.0340  178.4080  148.4570 C   0  0  0  0  0  2  0  0  0  0  0  0
  1  7  1  0  0  0  0
  2  6  1  0  0  0  0
  3  1  2  0  0  0  0
  3  8  1  0  0  0  0
  4 28  1  0  0  0  0
  5  4  1  0  0  0  0
  6  4  2  0  0  0  0
  7  2  2  0  0  0  0
  8  9  2  0  0  0  0
  8  6  1  0  0  0  0
  9  5  1  0  0  0  0
 10 12  1  0  0  0  0
 11 10  2  0  0  0  0
 12  9  1  0  0  0  0
 13 14  2  0  0  0  0
 13 11  1  0  0  0  0
 14 15  1  0  0  0  0
 15 12  2  0  0  0  0
 16 17  1  0  0  0  0
 16 13  1  0  0  0  0
 17 18  1  0  0  0  0
 18 19  1  0  0  0  0
 19 20  1  6  0  0  0
 21 25  2  0  0  0  0
 22 19  1  1  0  0  0
 22 21  1  0  0  0  0
 22 24  1  0  0  0  0
 24 23  2  0  0  0  0
 24 26  1  0  0  0  0
 25 26  1  0  0  0  0
 27 33  1  0  0  0  0
 28 31  2  0  0  0  0
 28 29  1  0  0  0  0
 29 27  1  0  0  0  0
 30 27  2  0  0  0  0
 31 30  1  0  0  0  0
 32 29  2  0  0  0  0
 33 35  1  0  0  0  0
 34 35  2  0  0  0  0
 34 37  1  0  0  0  0
 35 38  1  0  0  0  0
 37 36  1  0  0  0  0
 38 39  2  0  0  0  0
M  END
>  <MODEL>
7

>  <REMARK>
 VINA RESULT:      -8.1      1.541      2.315
  Name = 
  11 active torsions:
  status: ('A' for Active; 'I' for Inactive)
    1  A    between atoms: C_2  and  C_4
    2  A    between atoms: C_2  and  C_35
    3  A    between atoms: C_5  and  C_22
    4  A    between atoms: C_10  and  C_35
    5  A    between atoms: C_11  and  O_30
    6  A    between atoms: C_12  and  C_22
    7  A    between atoms: C_12  and  N_39
    8  A    between atoms: C_13  and  C_38
    9  A    between atoms: C_15  and  C_23
   10  A    between atoms: C_16  and  C_25
   11  A    between atoms: C_23  and  N_39
                            x       y       z     vdW  Elec       q    Type
                         _______ _______ _______ _____ _____    ______ ____

>  <TORSDO>
F 11

$$$$
=
 OpenBabel10232412443D

 39 43  0  0  1  0  0  0  0  0999 V2000
  188.6580  177.3700  146.7470 C   0  0  0  0  0  3  0  0  0  0  0  0
  186.3270  177.9090  146.1320 C   0  0  0  0  0  3  0  0  0  0  0  0
  189.1230  177.3930  145.3030 C   0  0  0  0  0  3  0  0  0  0  0  0
  185.8210  178.1890  143.6740 C   0  0  0  0  0  0  0  0  0  0  0  0
  186.5980  178.0960  142.5930 C   0  0  0  0  0  3  0  0  0  0  0  0
  186.6490  177.9370  144.8420 C   0  0  2  0  0  3  0  0  0  0  0  0
  187.3860  177.6070  147.1190 C   0  0  0  0  0  3  0  0  0  0  0  0
  187.9850  177.6880  144.3650 C   0  0  0  0  0  0  0  0  0  0  0  0
  187.9750  177.7790  143.0340 C   0  0  0  0  0  0  0  0  0  0  0  0
  188.9020  177.5300  140.7320 C   0  0  0  0  0  3  0  0  0  0  0  0
  189.9730  177.3730  139.8470 C   0  0  0  0  0  3  0  0  0  0  0  0
  189.1250  177.6080  142.1150 C   0  0  0  0  0  0  0  0  0  0  0  0
  191.2800  177.3000  140.3370 C   0  0  0  0  0  0  0  0  0  0  0  0
  191.5130  177.3720  141.7130 C   0  0  0  0  0  3  0  0  0  0  0  0
  190.4400  177.5260  142.5960 C   0  0  0  0  0  3  0  0  0  0  0  0
  192.4210  177.1210  139.3990 C   0  0  0  0  0  2  0  0  0  0  0  0
  191.9340  176.6440  138.1150 N   0  0  0  0  0  2  0  0  0  0  0  0
  193.0910  176.1440  137.3900 C   0  0  0  0  0  2  0  0  0  0  0  0
  193.2070  174.6280  137.5280 C   0  0  1  0  0  3  0  0  0  0  0  0
  192.3990  174.0080  136.5710 O   0  0  0  0  0  1  0  0  0  0  0  0
  194.7020  172.6860  136.9520 C   0  0  0  0  0  3  0  0  0  0  0  0
  194.6580  174.1560  137.3990 C   0  0  2  0  0  3  0  0  0  0  0  0
  195.5590  175.0300  139.4730 O   0  0  0  0  0  0  0  0  0  0  0  0
  195.2960  174.0570  138.7180 C   0  0  0  0  0  0  0  0  0  0  0  0
  195.2590  171.8650  138.0410 N   0  0  0  0  0  0  0  0  0  0  0  0
  195.6050  172.7610  139.0270 O   0  0  0  0  0  0  0  0  0  0  0  0
  182.2510  179.0410  143.0900 C   0  0  0  0  0  0  0  0  0  0  0  0
  184.3820  178.4950  143.6620 C   0  0  0  0  0  0  0  0  0  0  0  0
  183.5710  178.8810  142.5220 C   0  0  0  0  0  0  0  0  0  0  0  0
  182.3090  178.8000  144.3600 N   0  0  0  0  0  0  0  0  0  0  0  0
  183.6270  178.4560  144.7130 N   0  0  0  0  0  0  0  0  0  0  0  0
  183.9270  179.0390  141.3240 O   0  0  0  0  0  0  0  0  0  0  0  0
  181.0090  179.4750  142.3850 C   0  0  0  0  0  2  0  0  0  0  0  0
  180.7450  177.3940  141.1630 C   0  0  0  0  0  3  0  0  0  0  0  0
  180.8280  178.7310  141.0970 C   0  0  0  0  0  0  0  0  0  0  0  0
  181.6640  175.8020  139.4540 C   0  0  0  0  0  1  0  0  0  0  0  0
  180.6000  176.4950  140.0930 O   0  0  0  0  0  0  0  0  0  0  0  0
  180.7360  179.4730  139.8260 C   0  0  0  0  0  3  0  0  0  0  0  0
  181.7450  179.5510  138.9650 C   0  0  0  0  0  2  0  0  0  0  0  0
  1  7  1  0  0  0  0
  2  7  2  0  0  0  0
  3  1  2  0  0  0  0
  4  6  1  0  0  0  0
  5  9  1  0  0  0  0
  5  4  2  0  0  0  0
  6  2  1  6  0  0  0
  8  6  1  0  0  0  0
  8  3  1  0  0  0  0
  9  8  2  0  0  0  0
 10 12  1  0  0  0  0
 11 13  1  0  0  0  0
 11 10  2  0  0  0  0
 12 15  2  0  0  0  0
 12  9  1  0  0  0  0
 13 14  2  0  0  0  0
 14 15  1  0  0  0  0
 16 13  1  0  0  0  0
 17 16  1  0  0  0  0
 18 19  1  0  0  0  0
 18 17  1  0  0  0  0
 19 20  1  6  0  0  0
 21 22  1  0  0  0  0
 21 25  2  0  0  0  0
 22 19  1  1  0  0  0
 22 24  1  0  0  0  0
 24 26  1  0  0  0  0
 24 23  2  0  0  0  0
 25 26  1  0  0  0  0
 27 30  2  0  0  0  0
 28  4  1  0  0  0  0
 28 31  2  0  0  0  0
 29 27  1  0  0  0  0
 29 28  1  0  0  0  0
 30 31  1  0  0  0  0
 32 29  2  0  0  0  0
 33 27  1  0  0  0  0
 35 34  2  0  0  0  0
 35 33  1  0  0  0  0
 36 37  1  0  0  0  0
 37 34  1  0  0  0  0
 38 35  1  0  0  0  0
 39 38  2  0  0  0  0
M  END
>  <MODEL>
8

>  <REMARK>
 VINA RESULT:      -7.9      3.800      6.484
  Name = 
  11 active torsions:
  status: ('A' for Active; 'I' for Inactive)
    1  A    between atoms: C_2  and  C_4
    2  A    between atoms: C_2  and  C_35
    3  A    between atoms: C_5  and  C_22
    4  A    between atoms: C_10  and  C_35
    5  A    between atoms: C_11  and  O_30
    6  A    between atoms: C_12  and  C_22
    7  A    between atoms: C_12  and  N_39
    8  A    between atoms: C_13  and  C_38
    9  A    between atoms: C_15  and  C_23
   10  A    between atoms: C_16  and  C_25
   11  A    between atoms: C_23  and  N_39
                            x       y       z     vdW  Elec       q    Type
                         _______ _______ _______ _____ _____    ______ ____

>  <TORSDO>
F 11

$$$$
=
 OpenBabel10232412443D

 39 43  0  0  1  0  0  0  0  0999 V2000
  180.6570  179.0390  142.2110 C   0  0  0  0  0  3  0  0  0  0  0  0
  182.3090  178.9520  144.0460 C   0  0  0  0  0  3  0  0  0  0  0  0
  181.6920  178.6830  141.1620 C   0  0  0  0  0  3  0  0  0  0  0  0
  184.6940  178.4070  143.4210 C   0  0  0  0  0  0  0  0  0  0  0  0
  185.2640  178.1490  142.2440 C   0  0  0  0  0  3  0  0  0  0  0  0
  183.2790  178.6480  143.1900 C   0  0  2  0  0  3  0  0  0  0  0  0
  180.9410  179.1590  143.5220 C   0  0  0  0  0  3  0  0  0  0  0  0
  183.0550  178.5090  141.7740 C   0  0  0  0  0  0  0  0  0  0  0  0
  184.2210  178.2120  141.1950 C   0  0  0  0  0  0  0  0  0  0  0  0
  183.5490  177.2230  139.0070 C   0  0  0  0  0  3  0  0  0  0  0  0
  183.7630  176.9850  137.6470 C   0  0  0  0  0  3  0  0  0  0  0  0
  184.4710  177.9690  139.7560 C   0  0  0  0  0  0  0  0  0  0  0  0
  184.9010  177.4990  137.0180 C   0  0  0  0  0  0  0  0  0  0  0  0
  185.8290  178.2390  137.7550 C   0  0  0  0  0  3  0  0  0  0  0  0
  185.6130  178.4730  139.1160 C   0  0  0  0  0  3  0  0  0  0  0  0
  185.1390  177.2380  135.5720 C   0  0  0  0  0  2  0  0  0  0  0  0
  186.4910  177.6370  135.2150 N   0  0  0  0  0  2  0  0  0  0  0  0
  187.2220  176.4150  134.9240 C   0  0  0  0  0  2  0  0  0  0  0  0
  188.5800  176.4130  135.6200 C   0  0  1  0  0  3  0  0  0  0  0  0
  189.0770  177.7180  135.6810 O   0  0  0  0  0  1  0  0  0  0  0  0
  189.4380  176.5430  137.9840 C   0  0  0  0  0  3  0  0  0  0  0  0
  188.5000  175.7980  137.0200 C   0  0  2  0  0  3  0  0  0  0  0  0
  188.6400  173.4480  136.4450 O   0  0  0  0  0  0  0  0  0  0  0  0
  189.0990  174.4580  137.0400 C   0  0  0  0  0  0  0  0  0  0  0  0
  190.5210  175.6360  138.4020 N   0  0  0  0  0  0  0  0  0  0  0  0
  190.2230  174.4250  137.8190 O   0  0  0  0  0  0  0  0  0  0  0  0
  186.7460  178.0380  146.4980 C   0  0  0  0  0  0  0  0  0  0  0  0
  185.3930  178.4380  144.7160 C   0  0  0  0  0  0  0  0  0  0  0  0
  186.4260  177.5310  145.1820 C   0  0  0  0  0  0  0  0  0  0  0  0
  185.9980  179.0640  146.7460 N   0  0  0  0  0  0  0  0  0  0  0  0
  185.1640  179.3150  145.6400 N   0  0  0  0  0  0  0  0  0  0  0  0
  186.9270  176.5400  144.5880 O   0  0  0  0  0  0  0  0  0  0  0  0
  187.7220  177.4710  147.4740 C   0  0  0  0  0  2  0  0  0  0  0  0
  190.0880  176.9580  147.6600 C   0  0  0  0  0  3  0  0  0  0  0  0
  189.1270  177.5820  146.9630 C   0  0  0  0  0  0  0  0  0  0  0  0
  192.3090  175.8030  147.4770 C   0  0  0  0  0  1  0  0  0  0  0  0
  191.4670  176.9440  147.3870 O   0  0  0  0  0  0  0  0  0  0  0  0
  189.4040  178.3460  145.7330 C   0  0  0  0  0  3  0  0  0  0  0  0
  190.0690  177.8350  144.7030 C   0  0  0  0  0  2  0  0  0  0  0  0
  1  7  1  0  0  0  0
  3  8  1  0  0  0  0
  3  1  2  0  0  0  0
  4 28  1  0  0  0  0
  5  4  2  0  0  0  0
  6  4  1  0  0  0  0
  6  2  1  6  0  0  0
  7  2  2  0  0  0  0
  8  6  1  0  0  0  0
  9  8  2  0  0  0  0
  9  5  1  0  0  0  0
 10 12  1  0  0  0  0
 11 10  2  0  0  0  0
 12  9  1  0  0  0  0
 13 11  1  0  0  0  0
 13 14  2  0  0  0  0
 14 15  1  0  0  0  0
 15 12  2  0  0  0  0
 16 13  1  0  0  0  0
 17 16  1  0  0  0  0
 18 17  1  0  0  0  0
 18 19  1  0  0  0  0
 19 20  1  1  0  0  0
 21 25  2  0  0  0  0
 22 19  1  6  0  0  0
 22 24  1  0  0  0  0
 22 21  1  0  0  0  0
 23 24  2  0  0  0  0
 24 26  1  0  0  0  0
 26 25  1  0  0  0  0
 27 30  2  0  0  0  0
 27 33  1  0  0  0  0
 28 29  1  0  0  0  0
 28 31  2  0  0  0  0
 29 27  1  0  0  0  0
 31 30  1  0  0  0  0
 32 29  2  0  0  0  0
 35 33  1  0  0  0  0
 35 34  2  0  0  0  0
 37 36  1  0  0  0  0
 37 34  1  0  0  0  0
 38 35  1  0  0  0  0
 39 38  2  0  0  0  0
M  END
>  <MODEL>
9

>  <REMARK>
 VINA RESULT:      -7.9      4.654      7.317
  Name = 
  11 active torsions:
  status: ('A' for Active; 'I' for Inactive)
    1  A    between atoms: C_2  and  C_4
    2  A    between atoms: C_2  and  C_35
    3  A    between atoms: C_5  and  C_22
    4  A    between atoms: C_10  and  C_35
    5  A    between atoms: C_11  and  O_30
    6  A    between atoms: C_12  and  C_22
    7  A    between atoms: C_12  and  N_39
    8  A    between atoms: C_13  and  C_38
    9  A    between atoms: C_15  and  C_23
   10  A    between atoms: C_16  and  C_25
   11  A    between atoms: C_23  and  N_39
                            x       y       z     vdW  Elec       q    Type
                         _______ _______ _______ _____ _____    ______ ____

>  <TORSDO>
F 11

$$$$
