=
 OpenBabel10232411573D

 61 64  0  0  1  0  0  0  0  0999 V2000
  188.8580  177.0250  141.8730 C   0  0  2  0  0  3  0  0  0  0  0  0
  189.6020  177.5290  140.6120 C   0  0  1  0  0  3  0  0  0  0  0  0
  190.8620  176.7040  140.2870 C   0  0  0  0  0  2  0  0  0  0  0  0
  191.9320  177.5560  139.6070 C   0  0  0  0  0  1  0  0  0  0  0  0
  188.6870  177.6300  139.3610 C   0  0  0  0  0  2  0  0  0  0  0  0
  188.8030  176.4290  138.4320 C   0  0  0  0  0  2  0  0  0  0  0  0
  188.8720  176.7890  136.9440 C   0  0  1  0  0  3  0  0  0  0  0  0
  188.8500  178.3120  136.7960 C   0  0  0  0  0  1  0  0  0  0  0  0
  190.1170  176.2410  136.2410 C   0  0  0  0  0  2  0  0  0  0  0  0
  190.6710  175.1340  136.9950 N   0  0  0  0  0  2  0  0  0  0  0  0
  191.9390  174.5100  135.0730 N   0  0  0  0  0  2  0  0  0  0  0  0
  192.0160  174.9360  136.4720 C   0  0  2  0  0  3  0  0  0  0  0  0
  192.2480  173.5260  136.1360 C   0  0  2  0  0  3  0  0  0  0  0  0
  193.7290  173.1670  136.1030 C   0  0  0  0  0  0  0  0  0  0  0  0
  194.1650  172.2360  135.1840 O   0  0  0  0  0  1  0  0  0  0  0  0
  194.6040  173.7680  136.9250 C   0  0  0  0  0  3  0  0  0  0  0  0
  196.0730  173.4620  137.1000 C   0  0  2  0  0  3  0  0  0  0  0  0
  197.2270  174.7640  136.6480 S   0  0  0  0  0  0  0  0  0  0  0  0
  198.2500  174.1640  135.7320 O   0  0  0  0  0  0  0  0  0  0  0  0
  196.4800  175.8360  135.8910 O   0  0  0  0  0  0  0  0  0  0  0  0
  197.6940  174.5750  139.1630 C   0  0  0  0  0  1  0  0  0  0  0  0
  198.0200  175.4300  138.0380 N   0  0  0  0  0  2  0  0  0  0  0  0
  196.4270  172.1240  136.4500 C   0  0  0  0  0  2  0  0  0  0  0  0
  197.3900  171.3430  137.3280 C   0  0  0  0  0  2  0  0  0  0  0  0
  197.2270  169.8590  137.0580 C   0  0  0  0  0  1  0  0  0  0  0  0
  187.3680  177.4240  141.9050 C   0  0  0  0  0  2  0  0  0  0  0  0
  187.2090  178.7780  141.2470 C   0  0  0  0  0  2  0  0  0  0  0  0
  185.7990  178.9480  140.7150 C   0  0  0  0  0  2  0  0  0  0  0  0
  185.7850  178.4570  139.2740 C   0  0  0  0  0  2  0  0  0  0  0  0
  181.2940  176.7710  138.6050 C   0  0  0  0  0  2  0  0  0  0  0  0
  180.7000  177.6150  139.7520 C   0  0  1  0  0  3  0  0  0  0  0  0
  182.1830  179.6620  139.2400 C   0  0  0  0  0  0  0  0  0  0  0  0
  181.6880  177.8670  140.7210 O   0  0  0  0  0  0  0  0  0  0  0  0
  181.8710  180.2880  138.2400 O   0  0  0  0  0  0  0  0  0  0  0  0
  183.6270  179.5590  139.6260 C   0  0  0  0  0  2  0  0  0  0  0  0
  184.3900  178.6160  138.6980 C   0  0  2  0  0  3  0  0  0  0  0  0
  183.7450  177.2290  138.6120 C   0  0  0  0  0  2  0  0  0  0  0  0
  182.4810  177.2820  137.7800 C   0  0  1  0  0  3  0  0  0  0  0  0
  181.1350  179.0110  140.0920 C   0  0  2  0  0  3  0  0  0  0  0  0
  182.6770  176.3840  136.5600 C   0  0  0  0  0  2  0  0  0  0  0  0
  183.1730  174.9920  136.9560 C   0  0  0  0  0  2  0  0  0  0  0  0
  187.3610  173.4040  135.8760 C   0  0  0  0  0  2  0  0  0  0  0  0
  186.7520  173.6860  137.2390 C   0  0  0  0  0  2  0  0  0  0  0  0
  184.5730  174.6710  136.4270 C   0  0  2  0  0  3  0  0  0  0  0  0
  185.8270  173.8180  134.3470 C   0  0  0  0  0  2  0  0  0  0  0  0
  186.9500  174.3810  134.9600 O   0  0  0  0  0  0  0  0  0  0  0  0
  184.5470  174.4390  134.9060 C   0  0  0  0  0  2  0  0  0  0  0  0
  185.2380  173.5390  137.2250 C   0  0  0  0  0  2  0  0  0  0  0  0
  189.6280  177.5210  143.1130 C   0  0  0  0  0  2  0  0  0  0  0  0
  191.4320  176.3710  144.0080 C   0  0  0  0  0  1  0  0  0  0  0  0
  189.9780  176.4780  144.0730 N   0  0  0  0  0  0  0  0  0  0  0  0
  189.6250  177.0220  145.3870 C   0  0  0  0  0  2  0  0  0  0  0  0
  188.5010  178.0630  145.3930 C   0  0  0  0  0  2  0  0  0  0  0  0
  187.6340  178.1370  146.6510 C   0  0  2  0  0  3  0  0  0  0  0  0
  188.9170  178.1380  148.7710 C   0  0  0  0  0  1  0  0  0  0  0  0
  188.2520  177.2610  147.7300 C   0  0  0  0  0  2  0  0  0  0  0  0
  186.3110  177.6070  146.3440 N   0  0  0  0  0  2  0  0  0  0  0  0
  185.3360  178.6720  146.5610 C   0  0  0  0  0  2  0  0  0  0  0  0
  185.0040  178.6520  144.0860 O   0  0  0  0  0  0  0  0  0  0  0  0
  184.4750  178.8150  145.3500 C   0  0  0  0  0  0  0  0  0  0  0  0
  183.2460  179.0580  145.4950 O   0  0  0  0  0  1  0  0  0  0  0  0
  1 26  1  1  0  0  0
  1 49  1  0  0  0  0
  2  5  1  6  0  0  0
  2  1  1  0  0  0  0
  3  2  1  0  0  0  0
  4  3  1  0  0  0  0
  6  5  1  0  0  0  0
  7  8  1  1  0  0  0
  7  6  1  0  0  0  0
  9  7  1  0  0  0  0
  9 10  1  0  0  0  0
 11 13  1  0  0  0  0
 11 12  1  0  0  0  0
 12 10  1  1  0  0  0
 13 14  1  6  0  0  0
 13 12  1  0  0  0  0
 14 16  2  0  0  0  0
 15 14  1  0  0  0  0
 16 17  1  0  0  0  0
 17 23  1  6  0  0  0
 18 17  1  0  0  0  0
 18 22  1  0  0  0  0
 19 18  2  0  0  0  0
 20 18  2  0  0  0  0
 22 21  1  0  0  0  0
 23 24  1  0  0  0  0
 25 24  1  0  0  0  0
 27 26  1  0  0  0  0
 28 27  1  0  0  0  0
 29 28  1  0  0  0  0
 31 30  1  6  0  0  0
 31 39  1  0  0  0  0
 31 33  1  0  0  0  0
 32 35  1  0  0  0  0
 34 32  2  0  0  0  0
 36 29  1  1  0  0  0
 36 35  1  0  0  0  0
 37 36  1  0  0  0  0
 38 40  1  6  0  0  0
 38 30  1  0  0  0  0
 38 37  1  0  0  0  0
 39 32  1  6  0  0  0
 39 33  1  0  0  0  0
 40 41  1  0  0  0  0
 42 43  1  0  0  0  0
 44 41  1  1  0  0  0
 44 48  1  0  0  0  0
 45 47  1  0  0  0  0
 45 46  1  0  0  0  0
 46 42  1  0  0  0  0
 47 44  1  0  0  0  0
 48 43  1  0  0  0  0
 49 51  1  0  0  0  0
 50 51  1  0  0  0  0
 51 52  1  0  0  0  0
 52 53  1  0  0  0  0
 54 53  1  6  0  0  0
 54 56  1  0  0  0  0
 56 55  1  0  0  0  0
 57 58  1  0  0  0  0
 57 54  1  0  0  0  0
 59 60  2  0  0  0  0
 60 61  1  0  0  0  0
 60 58  1  0  0  0  0
M  END
>  <MODEL>
1

>  <REMARK>
 VINA RESULT:      -5.6      0.000      0.000
  Name = 
  31 active torsions:
  status: ('A' for Active; 'I' for Inactive)
    1  A    between atoms: C_1  and  N_8
    2  A    between atoms: C_1  and  C_21
    3  A    between atoms: C_1  and  C_28
    4  A    between atoms: C_4  and  S_15
    5  A    between atoms: C_4  and  C_46
    6  A    between atoms: C_4  and  C_51
    7  A    between atoms: C_7  and  N_8
    8  A    between atoms: C_7  and  C_42
    9  A    between atoms: C_9  and  C_34
   10  A    between atoms: C_9  and  C_39
   11  A    between atoms: C_10  and  C_53
   12  A    between atoms: C_11  and  C_29
   13  A    between atoms: C_11  and  C_39
   14  A    between atoms: C_14  and  C_36
   15  A    between atoms: C_14  and  C_43
   16  A    between atoms: S_15  and  N_38
   17  A    between atoms: C_19  and  C_45
   18  A    between atoms: C_23  and  N_41
   19  A    between atoms: C_23  and  C_43
   20  A    between atoms: C_25  and  C_58
   21  A    between atoms: C_26  and  C_28
   22  A    between atoms: C_26  and  N_59
   23  A    between atoms: C_32  and  C_55
   24  A    between atoms: C_32  and  N_59
   25  A    between atoms: C_33  and  C_51
   26  A    between atoms: C_34  and  C_55
   27  A    between atoms: C_35  and  N_41
   28  A    between atoms: C_36  and  C_53
   29  A    between atoms: C_47  and  C_49
   30  A    between atoms: C_47  and  C_58
   31  A    between atoms: C_53  and  C_55
                            x       y       z     vdW  Elec       q    Type
                         _______ _______ _______ _____ _____    ______ ____

>  <TORSDO>
F 31

$$$$
=
 OpenBabel10232411573D

 61 64  0  0  1  0  0  0  0  0999 V2000
  188.8730  177.0070  141.8470 C   0  0  2  0  0  3  0  0  0  0  0  0
  189.5920  177.5460  140.5850 C   0  0  1  0  0  3  0  0  0  0  0  0
  190.8500  176.7370  140.2190 C   0  0  0  0  0  2  0  0  0  0  0  0
  192.1240  177.5530  140.4270 C   0  0  0  0  0  1  0  0  0  0  0  0
  188.6550  177.6720  139.3540 C   0  0  0  0  0  2  0  0  0  0  0  0
  188.8550  176.5640  138.3280 C   0  0  0  0  0  2  0  0  0  0  0  0
  188.9850  177.0580  136.8840 C   0  0  1  0  0  3  0  0  0  0  0  0
  189.0090  178.5890  136.8790 C   0  0  0  0  0  1  0  0  0  0  0  0
  190.2380  176.5410  136.1730 C   0  0  0  0  0  2  0  0  0  0  0  0
  190.7630  175.3810  136.8650 N   0  0  0  0  0  2  0  0  0  0  0  0
  191.9850  174.7520  134.9140 N   0  0  0  0  0  2  0  0  0  0  0  0
  192.0950  175.1640  136.3150 C   0  0  2  0  0  3  0  0  0  0  0  0
  192.2960  173.7530  135.9640 C   0  0  2  0  0  3  0  0  0  0  0  0
  193.7700  173.3690  135.9000 C   0  0  0  0  0  0  0  0  0  0  0  0
  194.6070  174.0880  135.0740 O   0  0  0  0  0  1  0  0  0  0  0  0
  194.2580  172.3740  136.6590 C   0  0  0  0  0  3  0  0  0  0  0  0
  195.6530  171.7960  136.6440 C   0  0  2  0  0  3  0  0  0  0  0  0
  195.7820  170.0030  136.6570 S   0  0  0  0  0  0  0  0  0  0  0  0
  196.4140  169.6040  137.9570 O   0  0  0  0  0  0  0  0  0  0  0  0
  194.3930  169.4140  136.6030 O   0  0  0  0  0  0  0  0  0  0  0  0
  197.8360  168.6540  135.9260 C   0  0  0  0  0  1  0  0  0  0  0  0
  196.7510  169.4200  135.3440 N   0  0  0  0  0  2  0  0  0  0  0  0
  196.5180  172.4460  137.7250 C   0  0  0  0  0  2  0  0  0  0  0  0
  197.8750  172.8320  137.1610 C   0  0  0  0  0  2  0  0  0  0  0  0
  198.0020  174.3430  137.1430 C   0  0  0  0  0  1  0  0  0  0  0  0
  187.3710  177.3580  141.8920 C   0  0  0  0  0  2  0  0  0  0  0  0
  187.1820  178.7710  141.3840 C   0  0  0  0  0  2  0  0  0  0  0  0
  185.7870  178.9500  140.8160 C   0  0  0  0  0  2  0  0  0  0  0  0
  185.8310  178.5600  139.3460 C   0  0  0  0  0  2  0  0  0  0  0  0
  181.3870  176.8230  138.5180 C   0  0  0  0  0  2  0  0  0  0  0  0
  180.7510  177.6260  139.6720 C   0  0  1  0  0  3  0  0  0  0  0  0
  182.2130  179.7090  139.2520 C   0  0  0  0  0  0  0  0  0  0  0  0
  181.7100  177.8680  140.6720 O   0  0  0  0  0  0  0  0  0  0  0  0
  181.9150  180.3570  138.2620 O   0  0  0  0  0  0  0  0  0  0  0  0
  183.6480  179.6180  139.6720 C   0  0  0  0  0  2  0  0  0  0  0  0
  184.4490  178.7130  138.7390 C   0  0  2  0  0  3  0  0  0  0  0  0
  183.8290  177.3190  138.6000 C   0  0  0  0  0  2  0  0  0  0  0  0
  182.5860  177.3740  137.7380 C   0  0  1  0  0  3  0  0  0  0  0  0
  181.1540  179.0190  140.0590 C   0  0  2  0  0  3  0  0  0  0  0  0
  182.8270  176.5120  136.5000 C   0  0  0  0  0  2  0  0  0  0  0  0
  181.5640  175.7570  136.0810 C   0  0  0  0  0  2  0  0  0  0  0  0
  181.2850  171.1590  135.9720 C   0  0  0  0  0  2  0  0  0  0  0  0
  180.4710  172.1620  136.7730 C   0  0  0  0  0  2  0  0  0  0  0  0
  181.7370  174.2370  136.0820 C   0  0  2  0  0  3  0  0  0  0  0  0
  182.6910  172.2860  134.7000 C   0  0  0  0  0  2  0  0  0  0  0  0
  182.6200  171.5760  135.9030 O   0  0  0  0  0  0  0  0  0  0  0  0
  182.6990  173.7910  134.9680 C   0  0  0  0  0  2  0  0  0  0  0  0
  180.3830  173.5090  136.0720 C   0  0  0  0  0  2  0  0  0  0  0  0
  189.6350  177.5160  143.0860 C   0  0  0  0  0  2  0  0  0  0  0  0
  191.4470  176.3340  143.9210 C   0  0  0  0  0  1  0  0  0  0  0  0
  190.0000  176.4800  144.0470 N   0  0  0  0  0  0  0  0  0  0  0  0
  189.7200  177.0540  145.3660 C   0  0  0  0  0  2  0  0  0  0  0  0
  188.6470  178.1470  145.3980 C   0  0  0  0  0  2  0  0  0  0  0  0
  187.6330  178.0870  146.5410 C   0  0  2  0  0  3  0  0  0  0  0  0
  188.7410  178.0510  148.7570 C   0  0  0  0  0  1  0  0  0  0  0  0
  188.1810  177.1920  147.6420 C   0  0  0  0  0  2  0  0  0  0  0  0
  186.3990  177.4870  146.0470 N   0  0  0  0  0  2  0  0  0  0  0  0
  185.2830  178.3160  146.4930 C   0  0  0  0  0  2  0  0  0  0  0  0
  184.7600  178.2620  144.0520 O   0  0  0  0  0  0  0  0  0  0  0  0
  184.3980  178.6300  145.3320 C   0  0  0  0  0  0  0  0  0  0  0  0
  183.2980  179.2110  145.5370 O   0  0  0  0  0  1  0  0  0  0  0  0
  1 26  1  1  0  0  0
  1 49  1  0  0  0  0
  2  5  1  6  0  0  0
  2  1  1  0  0  0  0
  3  4  1  0  0  0  0
  3  2  1  0  0  0  0
  6  5  1  0  0  0  0
  7  8  1  1  0  0  0
  7  6  1  0  0  0  0
  9 10  1  0  0  0  0
  9  7  1  0  0  0  0
 11 13  1  0  0  0  0
 11 12  1  0  0  0  0
 12 10  1  1  0  0  0
 13 14  1  6  0  0  0
 13 12  1  0  0  0  0
 14 16  2  0  0  0  0
 15 14  1  0  0  0  0
 17 18  1  0  0  0  0
 17 16  1  1  0  0  0
 17 23  1  0  0  0  0
 18 19  2  0  0  0  0
 20 18  2  0  0  0  0
 22 21  1  0  0  0  0
 22 18  1  0  0  0  0
 24 23  1  0  0  0  0
 25 24  1  0  0  0  0
 27 26  1  0  0  0  0
 28 27  1  0  0  0  0
 29 28  1  0  0  0  0
 31 30  1  6  0  0  0
 31 39  1  0  0  0  0
 31 33  1  0  0  0  0
 32 35  1  0  0  0  0
 34 32  2  0  0  0  0
 36 29  1  1  0  0  0
 36 35  1  0  0  0  0
 37 36  1  0  0  0  0
 38 40  1  6  0  0  0
 38 30  1  0  0  0  0
 38 37  1  0  0  0  0
 39 32  1  6  0  0  0
 39 33  1  0  0  0  0
 41 40  1  0  0  0  0
 42 43  1  0  0  0  0
 44 41  1  6  0  0  0
 45 47  1  0  0  0  0
 45 46  1  0  0  0  0
 46 42  1  0  0  0  0
 47 44  1  0  0  0  0
 48 44  1  0  0  0  0
 48 43  1  0  0  0  0
 49 51  1  0  0  0  0
 50 51  1  0  0  0  0
 51 52  1  0  0  0  0
 52 53  1  0  0  0  0
 54 53  1  6  0  0  0
 54 56  1  0  0  0  0
 56 55  1  0  0  0  0
 57 58  1  0  0  0  0
 57 54  1  0  0  0  0
 59 60  2  0  0  0  0
 60 61  1  0  0  0  0
 60 58  1  0  0  0  0
M  END
>  <MODEL>
2

>  <REMARK>
 VINA RESULT:      -5.3      1.850      2.533
  Name = 
  31 active torsions:
  status: ('A' for Active; 'I' for Inactive)
    1  A    between atoms: C_1  and  N_8
    2  A    between atoms: C_1  and  C_21
    3  A    between atoms: C_1  and  C_28
    4  A    between atoms: C_4  and  S_15
    5  A    between atoms: C_4  and  C_46
    6  A    between atoms: C_4  and  C_51
    7  A    between atoms: C_7  and  N_8
    8  A    between atoms: C_7  and  C_42
    9  A    between atoms: C_9  and  C_34
   10  A    between atoms: C_9  and  C_39
   11  A    between atoms: C_10  and  C_53
   12  A    between atoms: C_11  and  C_29
   13  A    between atoms: C_11  and  C_39
   14  A    between atoms: C_14  and  C_36
   15  A    between atoms: C_14  and  C_43
   16  A    between atoms: S_15  and  N_38
   17  A    between atoms: C_19  and  C_45
   18  A    between atoms: C_23  and  N_41
   19  A    between atoms: C_23  and  C_43
   20  A    between atoms: C_25  and  C_58
   21  A    between atoms: C_26  and  C_28
   22  A    between atoms: C_26  and  N_59
   23  A    between atoms: C_32  and  C_55
   24  A    between atoms: C_32  and  N_59
   25  A    between atoms: C_33  and  C_51
   26  A    between atoms: C_34  and  C_55
   27  A    between atoms: C_35  and  N_41
   28  A    between atoms: C_36  and  C_53
   29  A    between atoms: C_47  and  C_49
   30  A    between atoms: C_47  and  C_58
   31  A    between atoms: C_53  and  C_55
                            x       y       z     vdW  Elec       q    Type
                         _______ _______ _______ _____ _____    ______ ____

>  <TORSDO>
F 31

$$$$
=
 OpenBabel10232411573D

 61 64  0  0  1  0  0  0  0  0999 V2000
  188.3940  176.8920  136.8450 C   0  0  2  0  0  3  0  0  0  0  0  0
  188.3560  178.0190  137.9070 C   0  0  1  0  0  3  0  0  0  0  0  0
  186.9300  178.3410  138.3910 C   0  0  0  0  0  2  0  0  0  0  0  0
  186.8450  178.3660  139.9160 C   0  0  0  0  0  1  0  0  0  0  0  0
  189.2880  177.7490  139.1190 C   0  0  0  0  0  2  0  0  0  0  0  0
  190.7680  177.8550  138.7750 C   0  0  0  0  0  2  0  0  0  0  0  0
  191.6690  176.9040  139.5690 C   0  0  1  0  0  3  0  0  0  0  0  0
  193.1160  177.3960  139.4800 C   0  0  0  0  0  1  0  0  0  0  0  0
  191.2780  176.7810  141.0430 C   0  0  0  0  0  2  0  0  0  0  0  0
  192.3020  177.3690  141.8830 N   0  0  0  0  0  2  0  0  0  0  0  0
  190.9990  176.1430  143.4610 N   0  0  0  0  0  2  0  0  0  0  0  0
  191.7470  177.3800  143.2310 C   0  0  2  0  0  3  0  0  0  0  0  0
  190.2800  177.4110  143.1950 C   0  0  2  0  0  3  0  0  0  0  0  0
  189.6740  177.9500  144.4860 C   0  0  0  0  0  0  0  0  0  0  0  0
  190.2900  179.0110  145.1140 O   0  0  0  0  0  1  0  0  0  0  0  0
  188.5420  177.4300  144.9880 C   0  0  0  0  0  3  0  0  0  0  0  0
  187.8680  177.7660  146.2970 C   0  0  2  0  0  3  0  0  0  0  0  0
  188.7470  177.3060  147.7970 S   0  0  0  0  0  0  0  0  0  0  0  0
  189.3940  178.5450  148.3390 O   0  0  0  0  0  0  0  0  0  0  0  0
  187.7480  176.8070  148.8130 O   0  0  0  0  0  0  0  0  0  0  0  0
  191.2480  176.7580  147.6650 C   0  0  0  0  0  1  0  0  0  0  0  0
  189.9620  176.1110  147.4880 N   0  0  0  0  0  2  0  0  0  0  0  0
  186.4210  177.2730  146.3010 C   0  0  0  0  0  2  0  0  0  0  0  0
  185.5110  178.2840  145.6240 C   0  0  0  0  0  2  0  0  0  0  0  0
  185.5820  179.6040  146.3680 C   0  0  0  0  0  1  0  0  0  0  0  0
  187.0460  176.1600  136.6800 C   0  0  0  0  0  2  0  0  0  0  0  0
  186.5710  176.3230  135.2520 C   0  0  0  0  0  2  0  0  0  0  0  0
  185.6920  175.1550  134.8480 C   0  0  0  0  0  2  0  0  0  0  0  0
  184.2450  175.5560  135.0990 C   0  0  0  0  0  2  0  0  0  0  0  0
  180.2990  173.1230  136.5020 C   0  0  0  0  0  2  0  0  0  0  0  0
  180.6470  171.8780  135.6600 C   0  0  1  0  0  3  0  0  0  0  0  0
  183.1770  172.0600  136.1290 C   0  0  0  0  0  0  0  0  0  0  0  0
  181.4130  172.2540  134.5430 O   0  0  0  0  0  0  0  0  0  0  0  0
  183.5170  171.7410  137.2560 O   0  0  0  0  0  0  0  0  0  0  0  0
  183.9140  173.1510  135.4160 C   0  0  0  0  0  2  0  0  0  0  0  0
  183.5810  174.5250  135.9930 C   0  0  2  0  0  3  0  0  0  0  0  0
  182.0750  174.8030  136.0100 C   0  0  0  0  0  2  0  0  0  0  0  0
  181.4000  174.0030  137.1050 C   0  0  1  0  0  3  0  0  0  0  0  0
  182.0390  171.3590  135.4470 C   0  0  2  0  0  3  0  0  0  0  0  0
  180.7810  174.9850  138.0980 C   0  0  0  0  0  2  0  0  0  0  0  0
  181.7920  175.4360  139.1540 C   0  0  0  0  0  2  0  0  0  0  0  0
  182.1250  180.0200  138.8200 C   0  0  0  0  0  2  0  0  0  0  0  0
  181.2900  179.0460  138.0050 C   0  0  0  0  0  2  0  0  0  0  0  0
  182.1680  176.9160  139.0430 C   0  0  2  0  0  3  0  0  0  0  0  0
  183.1970  178.8690  140.3660 C   0  0  0  0  0  2  0  0  0  0  0  0
  183.3730  179.4520  139.1070 O   0  0  0  0  0  0  0  0  0  0  0  0
  183.0350  177.3550  140.2350 C   0  0  0  0  0  2  0  0  0  0  0  0
  180.9340  177.8000  138.8030 C   0  0  0  0  0  2  0  0  0  0  0  0
  189.5450  175.9320  137.2060 C   0  0  0  0  0  2  0  0  0  0  0  0
  190.4920  175.7230  135.1000 C   0  0  0  0  0  1  0  0  0  0  0  0
  189.8720  174.9530  136.1740 N   0  0  0  0  0  0  0  0  0  0  0  0
  190.9020  174.0930  136.7630 C   0  0  0  0  0  2  0  0  0  0  0  0
  192.2980  174.7130  136.8740 C   0  0  0  0  0  2  0  0  0  0  0  0
  193.4200  174.0340  136.0870 C   0  0  2  0  0  3  0  0  0  0  0  0
  193.4000  171.5670  135.8600 C   0  0  0  0  0  1  0  0  0  0  0  0
  193.7770  172.7210  136.7660 C   0  0  0  0  0  2  0  0  0  0  0  0
  194.6010  174.8900  136.1150 N   0  0  0  0  0  2  0  0  0  0  0  0
  194.2760  176.1320  135.4180 C   0  0  0  0  0  2  0  0  0  0  0  0
  195.4380  178.2860  134.9260 O   0  0  0  0  0  0  0  0  0  0  0  0
  195.5150  176.9460  135.2460 C   0  0  0  0  0  0  0  0  0  0  0  0
  196.6380  176.4020  135.4250 O   0  0  0  0  0  1  0  0  0  0  0  0
  1 26  1  1  0  0  0
  1 49  1  0  0  0  0
  1  2  1  0  0  0  0
  2  3  1  1  0  0  0
  2  5  1  0  0  0  0
  3  4  1  0  0  0  0
  6  5  1  0  0  0  0
  6  7  1  0  0  0  0
  7  8  1  1  0  0  0
  7  9  1  0  0  0  0
  9 10  1  0  0  0  0
 12 10  1  6  0  0  0
 12 11  1  0  0  0  0
 13 12  1  0  0  0  0
 13 11  1  0  0  0  0
 13 14  1  1  0  0  0
 14 16  2  0  0  0  0
 14 15  1  0  0  0  0
 17 16  1  6  0  0  0
 17 23  1  0  0  0  0
 17 18  1  0  0  0  0
 18 19  2  0  0  0  0
 18 20  2  0  0  0  0
 22 21  1  0  0  0  0
 22 18  1  0  0  0  0
 24 23  1  0  0  0  0
 24 25  1  0  0  0  0
 27 26  1  0  0  0  0
 28 29  1  0  0  0  0
 28 27  1  0  0  0  0
 30 38  1  0  0  0  0
 31 30  1  1  0  0  0
 32 34  2  0  0  0  0
 33 31  1  0  0  0  0
 35 36  1  0  0  0  0
 35 32  1  0  0  0  0
 36 29  1  6  0  0  0
 36 37  1  0  0  0  0
 37 38  1  0  0  0  0
 38 40  1  1  0  0  0
 39 33  1  6  0  0  0
 39 31  1  0  0  0  0
 39 32  1  0  0  0  0
 40 41  1  0  0  0  0
 42 46  1  0  0  0  0
 43 48  1  0  0  0  0
 43 42  1  0  0  0  0
 44 41  1  1  0  0  0
 44 47  1  0  0  0  0
 46 45  1  0  0  0  0
 47 45  1  0  0  0  0
 48 44  1  0  0  0  0
 50 51  1  0  0  0  0
 51 52  1  0  0  0  0
 51 49  1  0  0  0  0
 52 53  1  0  0  0  0
 54 57  1  0  0  0  0
 54 56  1  1  0  0  0
 54 53  1  0  0  0  0
 55 56  1  0  0  0  0
 58 57  1  0  0  0  0
 59 60  2  0  0  0  0
 60 58  1  0  0  0  0
 60 61  1  0  0  0  0
M  END
>  <MODEL>
3

>  <REMARK>
 VINA RESULT:      -5.2      3.030      9.699
  Name = 
  31 active torsions:
  status: ('A' for Active; 'I' for Inactive)
    1  A    between atoms: C_1  and  N_8
    2  A    between atoms: C_1  and  C_21
    3  A    between atoms: C_1  and  C_28
    4  A    between atoms: C_4  and  S_15
    5  A    between atoms: C_4  and  C_46
    6  A    between atoms: C_4  and  C_51
    7  A    between atoms: C_7  and  N_8
    8  A    between atoms: C_7  and  C_42
    9  A    between atoms: C_9  and  C_34
   10  A    between atoms: C_9  and  C_39
   11  A    between atoms: C_10  and  C_53
   12  A    between atoms: C_11  and  C_29
   13  A    between atoms: C_11  and  C_39
   14  A    between atoms: C_14  and  C_36
   15  A    between atoms: C_14  and  C_43
   16  A    between atoms: S_15  and  N_38
   17  A    between atoms: C_19  and  C_45
   18  A    between atoms: C_23  and  N_41
   19  A    between atoms: C_23  and  C_43
   20  A    between atoms: C_25  and  C_58
   21  A    between atoms: C_26  and  C_28
   22  A    between atoms: C_26  and  N_59
   23  A    between atoms: C_32  and  C_55
   24  A    between atoms: C_32  and  N_59
   25  A    between atoms: C_33  and  C_51
   26  A    between atoms: C_34  and  C_55
   27  A    between atoms: C_35  and  N_41
   28  A    between atoms: C_36  and  C_53
   29  A    between atoms: C_47  and  C_49
   30  A    between atoms: C_47  and  C_58
   31  A    between atoms: C_53  and  C_55
                            x       y       z     vdW  Elec       q    Type
                         _______ _______ _______ _____ _____    ______ ____

>  <TORSDO>
F 31

$$$$
=
 OpenBabel10232411573D

 61 64  0  0  1  0  0  0  0  0999 V2000
  185.7810  178.2700  140.9030 C   0  0  2  0  0  3  0  0  0  0  0  0
  185.1220  178.1250  142.2970 C   0  0  1  0  0  3  0  0  0  0  0  0
  185.8780  177.1540  143.2220 C   0  0  0  0  0  2  0  0  0  0  0  0
  187.0600  177.8370  143.9090 C   0  0  0  0  0  1  0  0  0  0  0  0
  184.8950  179.4840  143.0110 C   0  0  0  0  0  2  0  0  0  0  0  0
  183.5410  179.5840  143.7010 C   0  0  0  0  0  2  0  0  0  0  0  0
  183.5860  179.3540  145.2140 C   0  0  1  0  0  3  0  0  0  0  0  0
  183.1900  177.9050  145.5130 C   0  0  0  0  0  1  0  0  0  0  0  0
  184.9590  179.6290  145.8330 C   0  0  0  0  0  2  0  0  0  0  0  0
  185.1420  178.8230  147.0230 N   0  0  0  0  0  2  0  0  0  0  0  0
  186.6060  177.1500  147.8870 N   0  0  0  0  0  2  0  0  0  0  0  0
  186.4500  178.1980  146.8780 C   0  0  2  0  0  3  0  0  0  0  0  0
  187.2890  178.4540  148.0550 C   0  0  2  0  0  3  0  0  0  0  0  0
  188.7770  178.3090  147.7580 C   0  0  0  0  0  0  0  0  0  0  0  0
  189.6840  178.6250  148.7470 O   0  0  0  0  0  1  0  0  0  0  0  0
  189.2030  177.8480  146.5710 C   0  0  0  0  0  3  0  0  0  0  0  0
  190.6240  177.7420  146.0730 C   0  0  2  0  0  3  0  0  0  0  0  0
  190.8940  178.0760  144.3280 S   0  0  0  0  0  0  0  0  0  0  0  0
  190.0270  179.2400  143.9510 O   0  0  0  0  0  0  0  0  0  0  0  0
  192.3370  178.4710  144.1250 O   0  0  0  0  0  0  0  0  0  0  0  0
  191.5250  175.7220  143.5310 C   0  0  0  0  0  1  0  0  0  0  0  0
  190.4830  176.7120  143.3420 N   0  0  0  0  0  2  0  0  0  0  0  0
  191.2530  176.4190  146.5120 C   0  0  0  0  0  2  0  0  0  0  0  0
  191.9950  176.5910  147.8270 C   0  0  0  0  0  2  0  0  0  0  0  0
  192.7360  175.3090  148.1590 C   0  0  0  0  0  1  0  0  0  0  0  0
  187.0890  179.0880  140.9270 C   0  0  0  0  0  2  0  0  0  0  0  0
  188.2480  178.1520  141.1940 C   0  0  0  0  0  2  0  0  0  0  0  0
  188.7750  177.5750  139.8940 C   0  0  0  0  0  2  0  0  0  0  0  0
  188.7540  178.6840  138.8510 C   0  0  0  0  0  2  0  0  0  0  0  0
  188.7750  174.7950  135.9650 C   0  0  0  0  0  2  0  0  0  0  0  0
  187.2450  174.8090  135.7690 C   0  0  1  0  0  3  0  0  0  0  0  0
  187.1100  177.3840  135.6840 C   0  0  0  0  0  0  0  0  0  0  0  0
  186.6250  175.3900  136.8900 O   0  0  0  0  0  0  0  0  0  0  0  0
  187.5300  177.8880  134.6550 O   0  0  0  0  0  0  0  0  0  0  0  0
  187.2790  178.1080  136.9840 C   0  0  0  0  0  2  0  0  0  0  0  0
  188.7290  178.0740  137.4620 C   0  0  2  0  0  3  0  0  0  0  0  0
  189.2820  176.6490  137.5540 C   0  0  0  0  0  2  0  0  0  0  0  0
  189.5590  176.0970  136.1710 C   0  0  1  0  0  3  0  0  0  0  0  0
  186.4160  176.0550  135.6550 C   0  0  2  0  0  3  0  0  0  0  0  0
  191.0560  175.8130  136.0620 C   0  0  0  0  0  2  0  0  0  0  0  0
  191.4510  174.5570  136.8410 C   0  0  0  0  0  2  0  0  0  0  0  0
  195.8810  173.3720  136.3850 C   0  0  0  0  0  2  0  0  0  0  0  0
  194.6440  172.4920  136.4630 C   0  0  0  0  0  2  0  0  0  0  0  0
  192.9640  174.3280  136.8970 C   0  0  2  0  0  3  0  0  0  0  0  0
  195.2240  175.4760  136.4490 C   0  0  0  0  0  2  0  0  0  0  0  0
  195.7460  174.4610  137.2550 O   0  0  0  0  0  0  0  0  0  0  0  0
  193.7280  175.6500  136.7120 C   0  0  0  0  0  2  0  0  0  0  0  0
  193.4060  173.2070  135.9430 C   0  0  0  0  0  2  0  0  0  0  0  0
  184.7350  178.8600  139.9370 C   0  0  0  0  0  2  0  0  0  0  0  0
  182.4390  179.1720  140.0470 C   0  0  0  0  0  1  0  0  0  0  0  0
  183.4640  178.1430  139.9010 N   0  0  0  0  0  0  0  0  0  0  0  0
  183.3630  177.5970  138.5450 C   0  0  0  0  0  2  0  0  0  0  0  0
  183.5280  176.0780  138.4280 C   0  0  0  0  0  2  0  0  0  0  0  0
  182.6320  175.3600  137.4180 C   0  0  2  0  0  3  0  0  0  0  0  0
  182.2410  172.9880  136.8180 C   0  0  0  0  0  1  0  0  0  0  0  0
  183.2980  174.0580  137.0030 C   0  0  0  0  0  2  0  0  0  0  0  0
  182.4970  176.1950  136.2300 N   0  0  0  0  0  2  0  0  0  0  0  0
  181.4350  177.1660  136.4770 C   0  0  0  0  0  2  0  0  0  0  0  0
  180.8990  179.4770  135.6990 O   0  0  0  0  0  1  0  0  0  0  0  0
  181.5190  178.2660  135.4710 C   0  0  0  0  0  0  0  0  0  0  0  0
  182.1900  178.0860  134.4190 O   0  0  0  0  0  0  0  0  0  0  0  0
  1 49  1  6  0  0  0
  1 26  1  0  0  0  0
  1  2  1  0  0  0  0
  2  5  1  1  0  0  0
  2  3  1  0  0  0  0
  3  4  1  0  0  0  0
  5  6  1  0  0  0  0
  6  7  1  0  0  0  0
  7  8  1  6  0  0  0
  7  9  1  0  0  0  0
  9 10  1  0  0  0  0
 11 13  1  0  0  0  0
 12 10  1  1  0  0  0
 12 11  1  0  0  0  0
 12 13  1  0  0  0  0
 13 14  1  6  0  0  0
 14 15  1  0  0  0  0
 16 14  2  0  0  0  0
 17 23  1  6  0  0  0
 17 16  1  0  0  0  0
 18 17  1  0  0  0  0
 19 18  2  0  0  0  0
 20 18  2  0  0  0  0
 22 21  1  0  0  0  0
 22 18  1  0  0  0  0
 23 24  1  0  0  0  0
 24 25  1  0  0  0  0
 26 27  1  0  0  0  0
 28 27  1  0  0  0  0
 29 28  1  0  0  0  0
 30 38  1  0  0  0  0
 31 30  1  1  0  0  0
 31 33  1  0  0  0  0
 32 35  1  0  0  0  0
 34 32  2  0  0  0  0
 35 36  1  0  0  0  0
 36 37  1  0  0  0  0
 36 29  1  1  0  0  0
 38 40  1  1  0  0  0
 38 37  1  0  0  0  0
 39 32  1  1  0  0  0
 39 31  1  0  0  0  0
 39 33  1  0  0  0  0
 40 41  1  0  0  0  0
 42 43  1  0  0  0  0
 42 46  1  0  0  0  0
 44 41  1  6  0  0  0
 45 47  1  0  0  0  0
 45 46  1  0  0  0  0
 47 44  1  0  0  0  0
 48 43  1  0  0  0  0
 48 44  1  0  0  0  0
 51 49  1  0  0  0  0
 51 50  1  0  0  0  0
 52 51  1  0  0  0  0
 53 52  1  0  0  0  0
 54 56  1  6  0  0  0
 54 53  1  0  0  0  0
 55 56  1  0  0  0  0
 57 58  1  0  0  0  0
 57 54  1  0  0  0  0
 60 59  1  0  0  0  0
 60 58  1  0  0  0  0
 61 60  2  0  0  0  0
M  END
>  <MODEL>
4

>  <REMARK>
 VINA RESULT:      -3.8      3.097      9.494
  Name = 
  31 active torsions:
  status: ('A' for Active; 'I' for Inactive)
    1  A    between atoms: C_1  and  N_8
    2  A    between atoms: C_1  and  C_21
    3  A    between atoms: C_1  and  C_28
    4  A    between atoms: C_4  and  S_15
    5  A    between atoms: C_4  and  C_46
    6  A    between atoms: C_4  and  C_51
    7  A    between atoms: C_7  and  N_8
    8  A    between atoms: C_7  and  C_42
    9  A    between atoms: C_9  and  C_34
   10  A    between atoms: C_9  and  C_39
   11  A    between atoms: C_10  and  C_53
   12  A    between atoms: C_11  and  C_29
   13  A    between atoms: C_11  and  C_39
   14  A    between atoms: C_14  and  C_36
   15  A    between atoms: C_14  and  C_43
   16  A    between atoms: S_15  and  N_38
   17  A    between atoms: C_19  and  C_45
   18  A    between atoms: C_23  and  N_41
   19  A    between atoms: C_23  and  C_43
   20  A    between atoms: C_25  and  C_58
   21  A    between atoms: C_26  and  C_28
   22  A    between atoms: C_26  and  N_59
   23  A    between atoms: C_32  and  C_55
   24  A    between atoms: C_32  and  N_59
   25  A    between atoms: C_33  and  C_51
   26  A    between atoms: C_34  and  C_55
   27  A    between atoms: C_35  and  N_41
   28  A    between atoms: C_36  and  C_53
   29  A    between atoms: C_47  and  C_49
   30  A    between atoms: C_47  and  C_58
   31  A    between atoms: C_53  and  C_55
                            x       y       z     vdW  Elec       q    Type
                         _______ _______ _______ _____ _____    ______ ____

>  <TORSDO>
F 31

$$$$
=
 OpenBabel10232411573D

 61 64  0  0  1  0  0  0  0  0999 V2000
  187.8200  177.2640  139.7160 C   0  0  2  0  0  3  0  0  0  0  0  0
  188.1910  177.0750  138.2240 C   0  0  1  0  0  3  0  0  0  0  0  0
  187.9690  178.3460  137.3840 C   0  0  0  0  0  2  0  0  0  0  0  0
  189.1730  179.2840  137.4540 C   0  0  0  0  0  1  0  0  0  0  0  0
  189.6320  176.5350  138.0160 C   0  0  0  0  0  2  0  0  0  0  0  0
  189.7410  175.5390  136.8700 C   0  0  0  0  0  2  0  0  0  0  0  0
  191.1080  174.8560  136.7580 C   0  0  1  0  0  3  0  0  0  0  0  0
  191.5020  174.7650  135.2810 C   0  0  0  0  0  1  0  0  0  0  0  0
  192.2170  175.5800  137.5230 C   0  0  0  0  0  2  0  0  0  0  0  0
  193.3750  175.7650  136.6700 N   0  0  0  0  0  2  0  0  0  0  0  0
  195.5440  174.8310  136.3310 N   0  0  0  0  0  2  0  0  0  0  0  0
  194.4450  174.9910  137.2850 C   0  0  2  0  0  3  0  0  0  0  0  0
  194.6220  173.7030  136.6040 C   0  0  2  0  0  3  0  0  0  0  0  0
  195.3110  172.6650  137.4820 C   0  0  0  0  0  0  0  0  0  0  0  0
  195.3270  172.8580  138.8470 O   0  0  0  0  0  1  0  0  0  0  0  0
  195.8610  171.5630  136.9480 C   0  0  0  0  0  3  0  0  0  0  0  0
  196.6680  170.4960  137.6480 C   0  0  2  0  0  3  0  0  0  0  0  0
  198.1280  169.8950  136.7890 S   0  0  0  0  0  0  0  0  0  0  0  0
  198.7700  168.8560  137.6590 O   0  0  0  0  0  0  0  0  0  0  0  0
  197.6980  169.2380  135.5000 O   0  0  0  0  0  0  0  0  0  0  0  0
  199.9550  171.4280  137.7320 C   0  0  0  0  0  1  0  0  0  0  0  0
  199.2630  171.1690  136.4840 N   0  0  0  0  0  2  0  0  0  0  0  0
  195.7630  169.3560  138.1180 C   0  0  0  0  0  2  0  0  0  0  0  0
  194.9450  168.8120  136.9600 C   0  0  0  0  0  2  0  0  0  0  0  0
  193.6090  168.3140  137.4770 C   0  0  0  0  0  1  0  0  0  0  0  0
  187.0580  178.5760  139.9960 C   0  0  0  0  0  2  0  0  0  0  0  0
  185.7090  178.5160  139.3120 C   0  0  0  0  0  2  0  0  0  0  0  0
  184.6410  178.0530  140.2850 C   0  0  0  0  0  2  0  0  0  0  0  0
  183.3650  178.8210  139.9720 C   0  0  0  0  0  2  0  0  0  0  0  0
  181.7570  176.0260  136.3580 C   0  0  0  0  0  2  0  0  0  0  0  0
  180.3210  176.5850  136.4320 C   0  0  1  0  0  3  0  0  0  0  0  0
  181.1030  178.9930  136.9260 C   0  0  0  0  0  0  0  0  0  0  0  0
  180.0460  177.0230  137.7400 O   0  0  0  0  0  0  0  0  0  0  0  0
  181.5850  179.5840  135.9730 O   0  0  0  0  0  0  0  0  0  0  0  0
  181.6280  179.2590  138.3030 C   0  0  0  0  0  2  0  0  0  0  0  0
  183.0060  178.6350  138.5090 C   0  0  2  0  0  3  0  0  0  0  0  0
  183.0230  177.1360  138.1970 C   0  0  0  0  0  2  0  0  0  0  0  0
  182.9670  176.9040  136.7020 C   0  0  1  0  0  3  0  0  0  0  0  0
  179.9820  178.0170  136.7310 C   0  0  2  0  0  3  0  0  0  0  0  0
  184.2500  176.1900  136.2830 C   0  0  0  0  0  2  0  0  0  0  0  0
  184.0430  175.3490  135.0210 C   0  0  0  0  0  2  0  0  0  0  0  0
  187.3900  172.1810  135.0110 C   0  0  0  0  0  2  0  0  0  0  0  0
  187.3440  173.5470  134.3460 C   0  0  0  0  0  2  0  0  0  0  0  0
  184.9600  174.1260  134.9490 C   0  0  2  0  0  3  0  0  0  0  0  0
  185.5150  171.9130  136.1410 C   0  0  0  0  0  2  0  0  0  0  0  0
  186.1310  171.5730  134.9330 O   0  0  0  0  0  0  0  0  0  0  0  0
  184.4950  173.0310  135.9250 C   0  0  0  0  0  2  0  0  0  0  0  0
  186.4400  174.5130  135.0960 C   0  0  0  0  0  2  0  0  0  0  0  0
  189.1100  177.1420  140.5500 C   0  0  0  0  0  2  0  0  0  0  0  0
  187.9950  178.2230  142.2720 C   0  0  0  0  0  1  0  0  0  0  0  0
  189.2760  178.1690  141.5740 N   0  0  0  0  0  0  0  0  0  0  0  0
  190.2730  177.6350  142.5050 C   0  0  0  0  0  3  0  0  0  0  0  0
  190.1690  178.1380  143.9480 C   0  0  0  0  0  3  0  0  0  0  0  0
  191.0030  177.4030  144.9980 C   0  0  2  0  0  3  0  0  0  0  0  0
  192.3540  175.3710  145.4300 C   0  0  0  0  0  1  0  0  0  0  0  0
  191.5650  176.1310  144.3830 C   0  0  0  0  0  2  0  0  0  0  0  0
  190.1360  177.0220  146.1070 N   0  0  0  0  0  2  0  0  0  0  0  0
  188.7730  176.9050  145.5960 C   0  0  0  0  0  2  0  0  0  0  0  0
  186.7980  178.4160  145.8120 O   0  0  0  0  0  0  0  0  0  0  0  0
  187.8610  177.7660  146.4050 C   0  0  0  0  0  0  0  0  0  0  0  0
  188.0550  177.8710  147.6460 O   0  0  0  0  0  1  0  0  0  0  0  0
  1 26  1  6  0  0  0
  1 49  1  0  0  0  0
  2  3  1  6  0  0  0
  2  1  1  0  0  0  0
  3  4  1  0  0  0  0
  5  2  1  0  0  0  0
  6  5  1  0  0  0  0
  7  8  1  6  0  0  0
  7  6  1  0  0  0  0
  7  9  1  0  0  0  0
 10  9  1  0  0  0  0
 11 13  1  0  0  0  0
 11 12  1  0  0  0  0
 12 10  1  6  0  0  0
 13 12  1  0  0  0  0
 13 14  1  1  0  0  0
 14 15  1  0  0  0  0
 16 14  2  0  0  0  0
 17 16  1  6  0  0  0
 17 23  1  0  0  0  0
 18 17  1  0  0  0  0
 18 19  2  0  0  0  0
 20 18  2  0  0  0  0
 22 18  1  0  0  0  0
 22 21  1  0  0  0  0
 24 25  1  0  0  0  0
 24 23  1  0  0  0  0
 27 26  1  0  0  0  0
 27 28  1  0  0  0  0
 29 28  1  0  0  0  0
 30 38  1  0  0  0  0
 31 30  1  1  0  0  0
 31 39  1  0  0  0  0
 31 33  1  0  0  0  0
 32 35  1  0  0  0  0
 34 32  2  0  0  0  0
 35 36  1  0  0  0  0
 36 29  1  1  0  0  0
 37 36  1  0  0  0  0
 38 40  1  1  0  0  0
 38 37  1  0  0  0  0
 39 32  1  1  0  0  0
 39 33  1  0  0  0  0
 41 40  1  0  0  0  0
 43 42  1  0  0  0  0
 43 48  1  0  0  0  0
 44 41  1  1  0  0  0
 44 48  1  0  0  0  0
 44 47  1  0  0  0  0
 46 42  1  0  0  0  0
 46 45  1  0  0  0  0
 47 45  1  0  0  0  0
 49 51  1  0  0  0  0
 51 50  1  0  0  0  0
 51 52  1  0  0  0  0
 52 53  2  0  0  0  0
 54 53  1  6  0  0  0
 54 57  1  0  0  0  0
 56 54  1  0  0  0  0
 56 55  1  0  0  0  0
 58 57  1  0  0  0  0
 58 60  1  0  0  0  0
 59 60  2  0  0  0  0
 60 61  1  0  0  0  0
M  END
>  <MODEL>
5

>  <REMARK>
 VINA RESULT:      -3.6      2.231      3.326
  Name = 
  31 active torsions:
  status: ('A' for Active; 'I' for Inactive)
    1  A    between atoms: C_1  and  N_8
    2  A    between atoms: C_1  and  C_21
    3  A    between atoms: C_1  and  C_28
    4  A    between atoms: C_4  and  S_15
    5  A    between atoms: C_4  and  C_46
    6  A    between atoms: C_4  and  C_51
    7  A    between atoms: C_7  and  N_8
    8  A    between atoms: C_7  and  C_42
    9  A    between atoms: C_9  and  C_34
   10  A    between atoms: C_9  and  C_39
   11  A    between atoms: C_10  and  C_53
   12  A    between atoms: C_11  and  C_29
   13  A    between atoms: C_11  and  C_39
   14  A    between atoms: C_14  and  C_36
   15  A    between atoms: C_14  and  C_43
   16  A    between atoms: S_15  and  N_38
   17  A    between atoms: C_19  and  C_45
   18  A    between atoms: C_23  and  N_41
   19  A    between atoms: C_23  and  C_43
   20  A    between atoms: C_25  and  C_58
   21  A    between atoms: C_26  and  C_28
   22  A    between atoms: C_26  and  N_59
   23  A    between atoms: C_32  and  C_55
   24  A    between atoms: C_32  and  N_59
   25  A    between atoms: C_33  and  C_51
   26  A    between atoms: C_34  and  C_55
   27  A    between atoms: C_35  and  N_41
   28  A    between atoms: C_36  and  C_53
   29  A    between atoms: C_47  and  C_49
   30  A    between atoms: C_47  and  C_58
   31  A    between atoms: C_53  and  C_55
                            x       y       z     vdW  Elec       q    Type
                         _______ _______ _______ _____ _____    ______ ____

>  <TORSDO>
F 31

$$$$
=
 OpenBabel10232411573D

 61 64  0  0  1  0  0  0  0  0999 V2000
  189.6570  177.6370  138.8510 C   0  0  2  0  0  3  0  0  0  0  0  0
  189.6090  177.4630  140.3900 C   0  0  1  0  0  3  0  0  0  0  0  0
  190.8810  177.9720  141.0920 C   0  0  0  0  0  2  0  0  0  0  0  0
  191.7490  176.8170  141.5910 C   0  0  0  0  0  1  0  0  0  0  0  0
  188.3470  178.0930  141.0370 C   0  0  0  0  0  2  0  0  0  0  0  0
  187.1890  178.2610  140.0620 C   0  0  0  0  0  2  0  0  0  0  0  0
  186.1110  179.2450  140.5260 C   0  0  1  0  0  3  0  0  0  0  0  0
  184.7750  178.8620  139.8840 C   0  0  0  0  0  1  0  0  0  0  0  0
  185.9360  179.2860  142.0460 C   0  0  0  0  0  2  0  0  0  0  0  0
  185.0820  178.2000  142.4810 N   0  0  0  0  0  2  0  0  0  0  0  0
  185.9030  178.0920  144.7180 N   0  0  0  0  0  2  0  0  0  0  0  0
  185.8810  177.4210  143.4170 C   0  0  2  0  0  3  0  0  0  0  0  0
  187.0830  178.1590  143.8240 C   0  0  2  0  0  3  0  0  0  0  0  0
  188.1850  177.2430  144.3440 C   0  0  0  0  0  0  0  0  0  0  0  0
  188.1330  175.9010  144.0320 O   0  0  0  0  0  1  0  0  0  0  0  0
  189.2100  177.7320  145.0600 C   0  0  0  0  0  3  0  0  0  0  0  0
  190.3190  176.9630  145.7370 C   0  0  2  0  0  3  0  0  0  0  0  0
  190.3560  177.0140  147.5330 S   0  0  0  0  0  0  0  0  0  0  0  0
  189.8900  175.6800  148.0340 O   0  0  0  0  0  0  0  0  0  0  0  0
  191.7820  177.2200  147.9850 O   0  0  0  0  0  0  0  0  0  0  0  0
  187.9690  177.9230  147.7650 C   0  0  0  0  0  1  0  0  0  0  0  0
  189.3240  178.2560  148.1610 N   0  0  0  0  0  2  0  0  0  0  0  0
  191.6740  177.3140  145.1200 C   0  0  0  0  0  2  0  0  0  0  0  0
  191.5010  178.3050  143.9810 C   0  0  0  0  0  2  0  0  0  0  0  0
  190.9010  179.5900  144.5180 C   0  0  0  0  0  1  0  0  0  0  0  0
  188.4170  177.0670  138.1320 C   0  0  0  0  0  2  0  0  0  0  0  0
  188.0160  178.0140  137.0210 C   0  0  0  0  0  2  0  0  0  0  0  0
  187.1820  177.2900  135.9820 C   0  0  0  0  0  2  0  0  0  0  0  0
  185.7170  177.4740  136.3520 C   0  0  0  0  0  2  0  0  0  0  0  0
  182.2510  174.1360  136.8980 C   0  0  0  0  0  2  0  0  0  0  0  0
  182.9380  173.1250  135.9560 C   0  0  1  0  0  3  0  0  0  0  0  0
  185.3110  173.7220  136.7730 C   0  0  0  0  0  0  0  0  0  0  0  0
  183.7180  173.8100  135.0080 O   0  0  0  0  0  0  0  0  0  0  0  0
  185.5930  173.3060  137.8850 O   0  0  0  0  0  0  0  0  0  0  0  0
  185.8710  175.0310  136.3100 C   0  0  0  0  0  2  0  0  0  0  0  0
  185.1980  176.2090  137.0100 C   0  0  2  0  0  3  0  0  0  0  0  0
  183.6730  176.1840  136.8650 C   0  0  0  0  0  2  0  0  0  0  0  0
  183.0740  175.1100  137.7490 C   0  0  1  0  0  3  0  0  0  0  0  0
  184.4230  172.9260  135.8630 C   0  0  2  0  0  3  0  0  0  0  0  0
  182.1630  175.7890  138.7700 C   0  0  0  0  0  2  0  0  0  0  0  0
  180.9260  176.3990  138.1080 C   0  0  0  0  0  2  0  0  0  0  0  0
  181.1550  180.8450  139.2970 C   0  0  0  0  0  2  0  0  0  0  0  0
  181.1030  179.6070  140.1760 C   0  0  0  0  0  2  0  0  0  0  0  0
  180.7980  177.9080  138.3320 C   0  0  2  0  0  3  0  0  0  0  0  0
  181.1830  180.1840  137.1930 C   0  0  0  0  0  2  0  0  0  0  0  0
  180.3250  180.6720  138.1820 O   0  0  0  0  0  0  0  0  0  0  0  0
  180.9900  178.6780  137.0140 C   0  0  0  0  0  2  0  0  0  0  0  0
  181.6970  178.3920  139.4800 C   0  0  0  0  0  2  0  0  0  0  0  0
  190.9720  177.0160  138.3400 C   0  0  0  0  0  2  0  0  0  0  0  0
  190.5870  175.3150  136.8120 C   0  0  0  0  0  1  0  0  0  0  0  0
  190.9500  175.5630  138.2040 N   0  0  0  0  0  0  0  0  0  0  0  0
  192.3380  175.1320  138.3910 C   0  0  0  0  0  2  0  0  0  0  0  0
  193.0820  174.7230  137.1160 C   0  0  0  0  0  2  0  0  0  0  0  0
  194.5660  175.0830  137.0360 C   0  0  2  0  0  3  0  0  0  0  0  0
  194.5510  176.7780  135.2290 C   0  0  0  0  0  1  0  0  0  0  0  0
  194.9320  175.3560  135.5850 C   0  0  0  0  0  2  0  0  0  0  0  0
  195.3530  173.9420  137.4910 N   0  0  0  0  0  2  0  0  0  0  0  0
  195.0590  172.8110  136.6150 C   0  0  0  0  0  2  0  0  0  0  0  0
  194.9330  170.3240  136.7850 O   0  0  0  0  0  0  0  0  0  0  0  0
  195.2370  171.5360  137.3690 C   0  0  0  0  0  0  0  0  0  0  0  0
  195.6980  171.5750  138.5420 O   0  0  0  0  0  1  0  0  0  0  0  0
  1 26  1  6  0  0  0
  1  2  1  0  0  0  0
  2  5  1  1  0  0  0
  2  3  1  0  0  0  0
  3  4  1  0  0  0  0
  6  7  1  0  0  0  0
  6  5  1  0  0  0  0
  7  8  1  6  0  0  0
  7  9  1  0  0  0  0
  9 10  1  0  0  0  0
 12 10  1  6  0  0  0
 12 13  1  0  0  0  0
 12 11  1  0  0  0  0
 13 14  1  1  0  0  0
 13 11  1  0  0  0  0
 14 16  2  0  0  0  0
 15 14  1  0  0  0  0
 17 16  1  6  0  0  0
 17 18  1  0  0  0  0
 18 20  2  0  0  0  0
 18 19  2  0  0  0  0
 18 22  1  0  0  0  0
 21 22  1  0  0  0  0
 23 17  1  0  0  0  0
 24 25  1  0  0  0  0
 24 23  1  0  0  0  0
 27 26  1  0  0  0  0
 28 29  1  0  0  0  0
 28 27  1  0  0  0  0
 30 38  1  0  0  0  0
 31 30  1  1  0  0  0
 32 34  2  0  0  0  0
 33 31  1  0  0  0  0
 35 32  1  0  0  0  0
 35 36  1  0  0  0  0
 36 29  1  6  0  0  0
 37 36  1  0  0  0  0
 37 38  1  0  0  0  0
 38 40  1  1  0  0  0
 39 33  1  6  0  0  0
 39 31  1  0  0  0  0
 39 32  1  0  0  0  0
 41 40  1  0  0  0  0
 42 43  1  0  0  0  0
 44 41  1  6  0  0  0
 44 48  1  0  0  0  0
 45 46  1  0  0  0  0
 46 42  1  0  0  0  0
 47 45  1  0  0  0  0
 47 44  1  0  0  0  0
 48 43  1  0  0  0  0
 49  1  1  0  0  0  0
 50 51  1  0  0  0  0
 51 49  1  0  0  0  0
 51 52  1  0  0  0  0
 53 52  1  0  0  0  0
 54 56  1  6  0  0  0
 54 53  1  0  0  0  0
 54 57  1  0  0  0  0
 55 56  1  0  0  0  0
 58 60  1  0  0  0  0
 58 57  1  0  0  0  0
 59 60  2  0  0  0  0
 60 61  1  0  0  0  0
M  END
>  <MODEL>
6

>  <REMARK>
 VINA RESULT:      -3.4      2.885      9.257
  Name = 
  31 active torsions:
  status: ('A' for Active; 'I' for Inactive)
    1  A    between atoms: C_1  and  N_8
    2  A    between atoms: C_1  and  C_21
    3  A    between atoms: C_1  and  C_28
    4  A    between atoms: C_4  and  S_15
    5  A    between atoms: C_4  and  C_46
    6  A    between atoms: C_4  and  C_51
    7  A    between atoms: C_7  and  N_8
    8  A    between atoms: C_7  and  C_42
    9  A    between atoms: C_9  and  C_34
   10  A    between atoms: C_9  and  C_39
   11  A    between atoms: C_10  and  C_53
   12  A    between atoms: C_11  and  C_29
   13  A    between atoms: C_11  and  C_39
   14  A    between atoms: C_14  and  C_36
   15  A    between atoms: C_14  and  C_43
   16  A    between atoms: S_15  and  N_38
   17  A    between atoms: C_19  and  C_45
   18  A    between atoms: C_23  and  N_41
   19  A    between atoms: C_23  and  C_43
   20  A    between atoms: C_25  and  C_58
   21  A    between atoms: C_26  and  C_28
   22  A    between atoms: C_26  and  N_59
   23  A    between atoms: C_32  and  C_55
   24  A    between atoms: C_32  and  N_59
   25  A    between atoms: C_33  and  C_51
   26  A    between atoms: C_34  and  C_55
   27  A    between atoms: C_35  and  N_41
   28  A    between atoms: C_36  and  C_53
   29  A    between atoms: C_47  and  C_49
   30  A    between atoms: C_47  and  C_58
   31  A    between atoms: C_53  and  C_55
                            x       y       z     vdW  Elec       q    Type
                         _______ _______ _______ _____ _____    ______ ____

>  <TORSDO>
F 31

$$$$
=
 OpenBabel10232411573D

 61 64  0  0  1  0  0  0  0  0999 V2000
  188.5380  177.0450  141.6110 C   0  0  2  0  0  3  0  0  0  0  0  0
  188.6070  177.3770  140.1000 C   0  0  1  0  0  3  0  0  0  0  0  0
  188.8440  178.8730  139.8230 C   0  0  0  0  0  2  0  0  0  0  0  0
  189.0090  179.1500  138.3290 C   0  0  0  0  0  1  0  0  0  0  0  0
  189.6450  176.5150  139.3310 C   0  0  0  0  0  2  0  0  0  0  0  0
  189.0590  175.8070  138.1170 C   0  0  0  0  0  2  0  0  0  0  0  0
  190.1040  175.1900  137.1830 C   0  0  1  0  0  3  0  0  0  0  0  0
  189.4070  174.6860  135.9150 C   0  0  0  0  0  1  0  0  0  0  0  0
  191.2160  176.1620  136.7820 C   0  0  0  0  0  2  0  0  0  0  0  0
  191.7810  175.7780  135.5040 N   0  0  0  0  0  2  0  0  0  0  0  0
  193.9110  175.1520  134.6310 N   0  0  0  0  0  2  0  0  0  0  0  0
  193.0470  175.1270  135.8130 C   0  0  2  0  0  3  0  0  0  0  0  0
  193.2170  173.9030  135.0210 C   0  0  2  0  0  3  0  0  0  0  0  0
  194.2050  172.9290  135.6510 C   0  0  0  0  0  0  0  0  0  0  0  0
  194.4910  173.0510  136.9940 O   0  0  0  0  0  1  0  0  0  0  0  0
  194.7630  171.9450  134.9270 C   0  0  0  0  0  3  0  0  0  0  0  0
  195.8320  170.9690  135.3570 C   0  0  2  0  0  3  0  0  0  0  0  0
  195.2690  169.4570  136.1510 S   0  0  0  0  0  0  0  0  0  0  0  0
  194.2890  169.8440  137.2170 O   0  0  0  0  0  0  0  0  0  0  0  0
  194.5510  168.6080  135.1290 O   0  0  0  0  0  0  0  0  0  0  0  0
  197.2590  169.4950  137.7680 C   0  0  0  0  0  1  0  0  0  0  0  0
  196.5820  168.5820  136.8680 N   0  0  0  0  0  2  0  0  0  0  0  0
  196.9180  171.6780  136.1670 C   0  0  0  0  0  2  0  0  0  0  0  0
  198.1340  171.9550  135.3020 C   0  0  0  0  0  2  0  0  0  0  0  0
  199.0950  172.8550  136.0550 C   0  0  0  0  0  1  0  0  0  0  0  0
  187.9650  178.1950  142.4640 C   0  0  0  0  0  2  0  0  0  0  0  0
  186.7290  178.7420  141.7830 C   0  0  0  0  0  2  0  0  0  0  0  0
  185.5240  177.8740  142.0920 C   0  0  0  0  0  2  0  0  0  0  0  0
  184.3470  178.7980  142.3760 C   0  0  0  0  0  2  0  0  0  0  0  0
  181.7520  176.3840  139.0750 C   0  0  0  0  0  2  0  0  0  0  0  0
  180.4360  176.5140  139.8700 C   0  0  1  0  0  3  0  0  0  0  0  0
  180.9580  178.9110  140.6670 C   0  0  0  0  0  0  0  0  0  0  0  0
  180.7160  176.6160  141.2440 O   0  0  0  0  0  0  0  0  0  0  0  0
  180.8540  179.7740  139.8100 O   0  0  0  0  0  0  0  0  0  0  0  0
  181.9990  179.0520  141.7350 C   0  0  0  0  0  2  0  0  0  0  0  0
  183.4010  178.7930  141.1900 C   0  0  2  0  0  3  0  0  0  0  0  0
  183.5160  177.4360  140.4880 C   0  0  0  0  0  2  0  0  0  0  0  0
  182.8270  177.4750  139.1410 C   0  0  1  0  0  3  0  0  0  0  0  0
  180.0430  177.7230  140.6690 C   0  0  2  0  0  3  0  0  0  0  0  0
  183.8780  177.2200  138.0620 C   0  0  0  0  0  2  0  0  0  0  0  0
  183.3010  176.4300  136.8860 C   0  0  0  0  0  2  0  0  0  0  0  0
  184.3790  172.0220  136.0840 C   0  0  0  0  0  2  0  0  0  0  0  0
  183.1320  172.8010  135.7010 C   0  0  0  0  0  2  0  0  0  0  0  0
  183.7170  174.9570  136.8810 C   0  0  2  0  0  3  0  0  0  0  0  0
  185.7620  173.4090  137.0980 C   0  0  0  0  0  2  0  0  0  0  0  0
  184.8130  172.4150  137.3560 O   0  0  0  0  0  0  0  0  0  0  0  0
  185.1700  174.7930  137.3600 C   0  0  0  0  0  2  0  0  0  0  0  0
  183.4200  174.2850  135.5310 C   0  0  0  0  0  2  0  0  0  0  0  0
  189.9440  176.6130  142.0720 C   0  0  0  0  0  2  0  0  0  0  0  0
  189.8150  178.5890  143.2800 C   0  0  0  0  0  1  0  0  0  0  0  0
  190.7610  177.6870  142.6300 N   0  0  0  0  0  0  0  0  0  0  0  0
  191.5730  177.0570  143.6750 C   0  0  0  0  0  2  0  0  0  0  0  0
  190.8180  176.6500  144.9440 C   0  0  0  0  0  2  0  0  0  0  0  0
  191.5140  176.9170  146.2790 C   0  0  2  0  0  3  0  0  0  0  0  0
  192.6770  175.8480  148.1880 C   0  0  0  0  0  1  0  0  0  0  0  0
  192.0330  175.6020  146.8390 C   0  0  0  0  0  2  0  0  0  0  0  0
  190.5390  177.4540  147.2210 N   0  0  0  0  0  2  0  0  0  0  0  0
  189.3510  177.8450  146.4680 C   0  0  0  0  0  2  0  0  0  0  0  0
  188.2210  176.8420  148.4550 O   0  0  0  0  0  1  0  0  0  0  0  0
  188.1280  177.3850  147.1900 C   0  0  0  0  0  0  0  0  0  0  0  0
  187.0010  177.5250  146.6420 O   0  0  0  0  0  0  0  0  0  0  0  0
  1 49  1  1  0  0  0
  1 26  1  0  0  0  0
  2  5  1  1  0  0  0
  2  1  1  0  0  0  0
  3  2  1  0  0  0  0
  4  3  1  0  0  0  0
  6  5  1  0  0  0  0
  7  8  1  6  0  0  0
  7  6  1  0  0  0  0
  9  7  1  0  0  0  0
 10  9  1  0  0  0  0
 11 13  1  0  0  0  0
 11 12  1  0  0  0  0
 12 10  1  6  0  0  0
 13 14  1  1  0  0  0
 13 12  1  0  0  0  0
 14 15  1  0  0  0  0
 16 14  2  0  0  0  0
 17 16  1  1  0  0  0
 17 18  1  0  0  0  0
 17 23  1  0  0  0  0
 18 22  1  0  0  0  0
 18 19  2  0  0  0  0
 20 18  2  0  0  0  0
 22 21  1  0  0  0  0
 24 25  1  0  0  0  0
 24 23  1  0  0  0  0
 27 28  1  0  0  0  0
 27 26  1  0  0  0  0
 28 29  1  0  0  0  0
 30 38  1  0  0  0  0
 31 30  1  6  0  0  0
 31 39  1  0  0  0  0
 31 33  1  0  0  0  0
 32 35  1  0  0  0  0
 34 32  2  0  0  0  0
 36 35  1  0  0  0  0
 36 29  1  1  0  0  0
 37 36  1  0  0  0  0
 38 40  1  6  0  0  0
 38 37  1  0  0  0  0
 39 32  1  6  0  0  0
 39 33  1  0  0  0  0
 41 40  1  0  0  0  0
 42 46  1  0  0  0  0
 43 42  1  0  0  0  0
 44 41  1  6  0  0  0
 44 47  1  0  0  0  0
 45 46  1  0  0  0  0
 45 47  1  0  0  0  0
 48 43  1  0  0  0  0
 48 44  1  0  0  0  0
 49 51  1  0  0  0  0
 51 50  1  0  0  0  0
 51 52  1  0  0  0  0
 52 53  1  0  0  0  0
 54 53  1  6  0  0  0
 54 56  1  0  0  0  0
 54 57  1  0  0  0  0
 56 55  1  0  0  0  0
 58 60  1  0  0  0  0
 58 57  1  0  0  0  0
 60 59  1  0  0  0  0
 61 60  2  0  0  0  0
M  END
>  <MODEL>
7

>  <REMARK>
 VINA RESULT:      -3.3      2.259      3.167
  Name = 
  31 active torsions:
  status: ('A' for Active; 'I' for Inactive)
    1  A    between atoms: C_1  and  N_8
    2  A    between atoms: C_1  and  C_21
    3  A    between atoms: C_1  and  C_28
    4  A    between atoms: C_4  and  S_15
    5  A    between atoms: C_4  and  C_46
    6  A    between atoms: C_4  and  C_51
    7  A    between atoms: C_7  and  N_8
    8  A    between atoms: C_7  and  C_42
    9  A    between atoms: C_9  and  C_34
   10  A    between atoms: C_9  and  C_39
   11  A    between atoms: C_10  and  C_53
   12  A    between atoms: C_11  and  C_29
   13  A    between atoms: C_11  and  C_39
   14  A    between atoms: C_14  and  C_36
   15  A    between atoms: C_14  and  C_43
   16  A    between atoms: S_15  and  N_38
   17  A    between atoms: C_19  and  C_45
   18  A    between atoms: C_23  and  N_41
   19  A    between atoms: C_23  and  C_43
   20  A    between atoms: C_25  and  C_58
   21  A    between atoms: C_26  and  C_28
   22  A    between atoms: C_26  and  N_59
   23  A    between atoms: C_32  and  C_55
   24  A    between atoms: C_32  and  N_59
   25  A    between atoms: C_33  and  C_51
   26  A    between atoms: C_34  and  C_55
   27  A    between atoms: C_35  and  N_41
   28  A    between atoms: C_36  and  C_53
   29  A    between atoms: C_47  and  C_49
   30  A    between atoms: C_47  and  C_58
   31  A    between atoms: C_53  and  C_55
                            x       y       z     vdW  Elec       q    Type
                         _______ _______ _______ _____ _____    ______ ____

>  <TORSDO>
F 31

$$$$
=
 OpenBabel10232411573D

 61 65  0  0  1  0  0  0  0  0999 V2000
  188.3890  177.3310  141.5770 C   0  0  2  0  0  3  0  0  0  0  0  0
  188.7240  177.3930  140.0660 C   0  0  1  0  0  3  0  0  0  0  0  0
  188.8240  178.8340  139.5310 C   0  0  0  0  0  2  0  0  0  0  0  0
  188.8460  178.8670  138.0040 C   0  0  0  0  0  1  0  0  0  0  0  0
  189.9950  176.5870  139.6870 C   0  0  0  0  0  2  0  0  0  0  0  0
  189.8170  175.7340  138.4390 C   0  0  0  0  0  2  0  0  0  0  0  0
  191.1260  175.1940  137.8530 C   0  0  1  0  0  3  0  0  0  0  0  0
  190.8680  174.6970  136.4270 C   0  0  0  0  0  1  0  0  0  0  0  0
  192.2520  176.2290  137.8190 C   0  0  0  0  0  2  0  0  0  0  0  0
  193.0640  176.0460  136.6330 N   0  0  0  0  0  2  0  0  0  0  0  0
  195.3520  175.5450  136.1780 N   0  0  0  0  0  2  0  0  0  0  0  0
  194.2180  175.2660  137.0610 C   0  0  2  0  0  3  0  0  0  0  0  0
  194.5940  174.2800  136.0410 C   0  0  2  0  0  3  0  0  0  0  0  0
  195.4010  173.1210  136.6150 C   0  0  0  0  0  0  0  0  0  0  0  0
  195.4210  172.9410  137.9820 O   0  0  0  0  0  1  0  0  0  0  0  0
  196.0520  172.2660  135.8100 C   0  0  0  0  0  3  0  0  0  0  0  0
  196.9760  171.1400  136.2060 C   0  0  2  0  0  3  0  0  0  0  0  0
  196.2030  169.5680  136.6100 S   0  0  0  0  0  0  0  0  0  0  0  0
  196.2400  168.7150  135.3770 O   0  0  0  0  0  0  0  0  0  0  0  0
  197.0160  168.8870  137.6850 O   0  0  0  0  0  0  0  0  0  0  0  0
  194.3510  168.8920  138.2500 C   0  0  0  0  0  1  0  0  0  0  0  0
  194.5590  169.7730  137.1170 N   0  0  0  0  0  2  0  0  0  0  0  0
  197.9530  171.5980  137.2890 C   0  0  0  0  0  2  0  0  0  0  0  0
  199.3330  171.8340  136.6970 C   0  0  0  0  0  2  0  0  0  0  0  0
  200.2170  172.5030  137.7320 C   0  0  0  0  0  1  0  0  0  0  0  0
  187.6260  178.5710  142.0860 C   0  0  2  0  0  3  0  0  0  0  0  0
  186.3890  178.7680  141.2370 C   0  0  0  0  0  2  0  0  0  0  0  0
  185.1990  178.0620  141.8590 C   0  0  0  0  0  2  0  0  0  0  0  0
  184.0550  179.0630  141.9400 C   0  0  0  0  0  2  0  0  0  0  0  0
  181.9550  176.3270  138.5400 C   0  0  0  0  0  2  0  0  0  0  0  0
  180.5930  176.2990  139.2640 C   0  0  1  0  0  3  0  0  0  0  0  0
  180.7730  178.7470  140.0560 C   0  0  0  0  0  0  0  0  0  0  0  0
  180.7840  176.4430  140.6490 O   0  0  0  0  0  0  0  0  0  0  0  0
  180.6100  179.5850  139.1830 O   0  0  0  0  0  0  0  0  0  0  0  0
  181.7300  179.0220  141.1740 C   0  0  0  0  0  2  0  0  0  0  0  0
  183.1810  178.9350  140.7060 C   0  0  2  0  0  3  0  0  0  0  0  0
  183.4990  177.5970  140.0290 C   0  0  0  0  0  2  0  0  0  0  0  0
  182.8830  177.5430  138.6470 C   0  0  1  0  0  3  0  0  0  0  0  0
  180.0120  177.4550  140.0250 C   0  0  2  0  0  3  0  0  0  0  0  0
  184.0130  177.4120  137.6280 C   0  0  0  0  0  2  0  0  0  0  0  0
  183.7150  176.3290  136.5890 C   0  0  0  0  0  2  0  0  0  0  0  0
  186.3390  172.5730  136.0950 C   0  0  0  0  0  2  0  0  0  0  0  0
  184.8760  172.7880  135.7460 C   0  0  0  0  0  2  0  0  0  0  0  0
  184.6540  175.1240  136.6810 C   0  0  2  0  0  3  0  0  0  0  0  0
  187.1390  174.4770  136.8700 C   0  0  0  0  0  2  0  0  0  0  0  0
  186.6450  173.2380  137.2900 O   0  0  0  0  0  0  0  0  0  0  0  0
  186.0800  175.5640  137.0550 C   0  0  0  0  0  2  0  0  0  0  0  0
  184.5780  174.2440  135.4230 C   0  0  0  0  0  2  0  0  0  0  0  0
  189.7020  177.0880  142.3480 C   0  0  0  0  0  2  0  0  0  0  0  0
  189.0420  179.1530  143.1730 C   0  0  0  0  0  2  0  0  0  0  0  0
  190.1700  178.2280  143.1320 N   0  0  0  0  0  0  0  0  0  0  0  0
  190.3770  177.7110  144.4870 C   0  0  0  0  0  2  0  0  0  0  0  0
  189.3520  176.6780  144.9660 C   0  0  0  0  0  2  0  0  0  0  0  0
  188.6100  176.9910  146.2660 C   0  0  2  0  0  3  0  0  0  0  0  0
  187.1100  178.6260  147.3680 C   0  0  0  0  0  1  0  0  0  0  0  0
  187.9910  178.3760  146.1620 C   0  0  0  0  0  2  0  0  0  0  0  0
  189.5690  177.0070  147.3640 N   0  0  0  0  0  2  0  0  0  0  0  0
  190.5570  175.9610  147.1180 C   0  0  0  0  0  2  0  0  0  0  0  0
  191.9780  177.5210  148.4520 O   0  0  0  0  0  1  0  0  0  0  0  0
  191.8630  176.3550  147.7240 C   0  0  0  0  0  0  0  0  0  0  0  0
  192.8580  175.5930  147.5880 O   0  0  0  0  0  0  0  0  0  0  0  0
  1  2  1  6  0  0  0
  1 26  1  0  0  0  0
  1 49  1  0  0  0  0
  2  3  1  1  0  0  0
  4  3  1  0  0  0  0
  5  2  1  0  0  0  0
  6  5  1  0  0  0  0
  7  8  1  6  0  0  0
  7  6  1  0  0  0  0
  9  7  1  0  0  0  0
 10  9  1  0  0  0  0
 11 12  1  0  0  0  0
 12 10  1  6  0  0  0
 13 11  1  0  0  0  0
 13 14  1  1  0  0  0
 13 12  1  0  0  0  0
 14 15  1  0  0  0  0
 16 14  2  0  0  0  0
 17 16  1  1  0  0  0
 17 18  1  0  0  0  0
 17 23  1  0  0  0  0
 18 22  1  0  0  0  0
 18 20  2  0  0  0  0
 19 18  2  0  0  0  0
 22 21  1  0  0  0  0
 24 23  1  0  0  0  0
 24 25  1  0  0  0  0
 26 27  1  6  0  0  0
 26 50  1  0  0  0  0
 27 28  1  0  0  0  0
 28 29  1  0  0  0  0
 30 38  1  0  0  0  0
 31 30  1  6  0  0  0
 31 39  1  0  0  0  0
 31 33  1  0  0  0  0
 32 35  1  0  0  0  0
 34 32  2  0  0  0  0
 36 35  1  0  0  0  0
 36 29  1  1  0  0  0
 37 36  1  0  0  0  0
 38 40  1  6  0  0  0
 38 37  1  0  0  0  0
 39 32  1  6  0  0  0
 39 33  1  0  0  0  0
 41 40  1  0  0  0  0
 42 46  1  0  0  0  0
 43 42  1  0  0  0  0
 44 41  1  6  0  0  0
 44 47  1  0  0  0  0
 45 47  1  0  0  0  0
 45 46  1  0  0  0  0
 48 43  1  0  0  0  0
 48 44  1  0  0  0  0
 49 51  1  0  0  0  0
 51 50  1  0  0  0  0
 51 52  1  0  0  0  0
 52 53  1  0  0  0  0
 54 53  1  6  0  0  0
 54 57  1  0  0  0  0
 56 54  1  0  0  0  0
 56 55  1  0  0  0  0
 58 57  1  0  0  0  0
 58 60  1  0  0  0  0
 60 59  1  0  0  0  0
 61 60  2  0  0  0  0
M  END
>  <MODEL>
8

>  <REMARK>
 VINA RESULT:      -3.0      2.595      3.531
  Name = 
  31 active torsions:
  status: ('A' for Active; 'I' for Inactive)
    1  A    between atoms: C_1  and  N_8
    2  A    between atoms: C_1  and  C_21
    3  A    between atoms: C_1  and  C_28
    4  A    between atoms: C_4  and  S_15
    5  A    between atoms: C_4  and  C_46
    6  A    between atoms: C_4  and  C_51
    7  A    between atoms: C_7  and  N_8
    8  A    between atoms: C_7  and  C_42
    9  A    between atoms: C_9  and  C_34
   10  A    between atoms: C_9  and  C_39
   11  A    between atoms: C_10  and  C_53
   12  A    between atoms: C_11  and  C_29
   13  A    between atoms: C_11  and  C_39
   14  A    between atoms: C_14  and  C_36
   15  A    between atoms: C_14  and  C_43
   16  A    between atoms: S_15  and  N_38
   17  A    between atoms: C_19  and  C_45
   18  A    between atoms: C_23  and  N_41
   19  A    between atoms: C_23  and  C_43
   20  A    between atoms: C_25  and  C_58
   21  A    between atoms: C_26  and  C_28
   22  A    between atoms: C_26  and  N_59
   23  A    between atoms: C_32  and  C_55
   24  A    between atoms: C_32  and  N_59
   25  A    between atoms: C_33  and  C_51
   26  A    between atoms: C_34  and  C_55
   27  A    between atoms: C_35  and  N_41
   28  A    between atoms: C_36  and  C_53
   29  A    between atoms: C_47  and  C_49
   30  A    between atoms: C_47  and  C_58
   31  A    between atoms: C_53  and  C_55
                            x       y       z     vdW  Elec       q    Type
                         _______ _______ _______ _____ _____    ______ ____

>  <TORSDO>
F 31

$$$$
=
 OpenBabel10232411573D

 61 64  0  0  1  0  0  0  0  0999 V2000
  186.6570  178.0580  140.7490 C   0  0  2  0  0  3  0  0  0  0  0  0
  186.1370  178.0150  142.2070 C   0  0  1  0  0  3  0  0  0  0  0  0
  186.9550  177.0730  143.1100 C   0  0  0  0  0  2  0  0  0  0  0  0
  188.1230  177.8010  143.7730 C   0  0  0  0  0  1  0  0  0  0  0  0
  186.0240  179.4200  142.8580 C   0  0  0  0  0  2  0  0  0  0  0  0
  184.6840  179.6610  143.5410 C   0  0  0  0  0  2  0  0  0  0  0  0
  184.6070  179.1370  144.9780 C   0  0  1  0  0  3  0  0  0  0  0  0
  184.8110  177.6190  144.9690 C   0  0  0  0  0  1  0  0  0  0  0  0
  185.6400  179.7690  145.9150 C   0  0  0  0  0  2  0  0  0  0  0  0
  185.6170  179.1080  147.2040 N   0  0  0  0  0  2  0  0  0  0  0  0
  186.9700  177.6890  148.5630 N   0  0  0  0  0  2  0  0  0  0  0  0
  186.7750  178.2240  147.2140 C   0  0  2  0  0  3  0  0  0  0  0  0
  187.8460  178.7700  148.0560 C   0  0  2  0  0  3  0  0  0  0  0  0
  189.2170  178.2080  147.6980 C   0  0  0  0  0  0  0  0  0  0  0  0
  190.2660  178.4140  148.5690 O   0  0  0  0  0  1  0  0  0  0  0  0
  189.4000  177.4940  146.5760 C   0  0  0  0  0  3  0  0  0  0  0  0
  190.6970  176.9590  146.0170 C   0  0  2  0  0  3  0  0  0  0  0  0
  191.6750  175.9170  147.1080 S   0  0  0  0  0  0  0  0  0  0  0  0
  190.7220  175.1160  147.9430 O   0  0  0  0  0  0  0  0  0  0  0  0
  192.4900  174.9630  146.2680 O   0  0  0  0  0  0  0  0  0  0  0  0
  193.1370  175.9800  149.2130 C   0  0  0  0  0  1  0  0  0  0  0  0
  192.6980  176.8560  148.1440 N   0  0  0  0  0  2  0  0  0  0  0  0
  191.5240  178.0860  145.3990 C   0  0  0  0  0  2  0  0  0  0  0  0
  191.8760  177.7610  143.9580 C   0  0  0  0  0  2  0  0  0  0  0  0
  191.0220  176.6030  143.4790 C   0  0  0  0  0  1  0  0  0  0  0  0
  188.0110  178.7810  140.6020 C   0  0  0  0  0  2  0  0  0  0  0  0
  189.1200  177.8320  141.0020 C   0  0  0  0  0  2  0  0  0  0  0  0
  189.9910  177.4980  139.8070 C   0  0  0  0  0  2  0  0  0  0  0  0
  189.2640  177.9710  138.5560 C   0  0  0  0  0  2  0  0  0  0  0  0
  189.9460  173.4520  136.9530 C   0  0  0  0  0  2  0  0  0  0  0  0
  188.4850  173.2930  136.4830 C   0  0  1  0  0  3  0  0  0  0  0  0
  188.3120  175.7260  135.6450 C   0  0  0  0  0  0  0  0  0  0  0  0
  187.6420  174.1100  137.2570 O   0  0  0  0  0  0  0  0  0  0  0  0
  188.9160  175.9590  134.6100 O   0  0  0  0  0  0  0  0  0  0  0  0
  188.2030  176.7910  136.6920 C   0  0  0  0  0  2  0  0  0  0  0  0
  189.5290  177.0030  137.4180 C   0  0  2  0  0  3  0  0  0  0  0  0
  190.0850  175.7050  138.0120 C   0  0  0  0  0  2  0  0  0  0  0  0
  190.6430  174.8180  136.9190 C   0  0  1  0  0  3  0  0  0  0  0  0
  187.6670  174.3910  135.8680 C   0  0  2  0  0  3  0  0  0  0  0  0
  192.1380  174.6320  137.1740 C   0  0  0  0  0  2  0  0  0  0  0  0
  192.9130  174.4280  135.8700 C   0  0  0  0  0  2  0  0  0  0  0  0
  197.0070  172.3210  136.0510 C   0  0  0  0  0  2  0  0  0  0  0  0
  196.3590  173.0860  134.9090 C   0  0  0  0  0  2  0  0  0  0  0  0
  194.1340  173.5190  136.0260 C   0  0  2  0  0  3  0  0  0  0  0  0
  195.6530  172.4180  137.7890 C   0  0  0  0  0  2  0  0  0  0  0  0
  196.0370  171.5800  136.7380 O   0  0  0  0  0  0  0  0  0  0  0  0
  194.3020  173.0670  137.4870 C   0  0  0  0  0  2  0  0  0  0  0  0
  195.3950  174.1490  135.4140 C   0  0  0  0  0  2  0  0  0  0  0  0
  185.5570  178.6810  139.8660 C   0  0  0  0  0  2  0  0  0  0  0  0
  183.5920  179.9130  139.8200 C   0  0  0  0  0  1  0  0  0  0  0  0
  184.2560  178.8140  140.5150 N   0  0  0  0  0  0  0  0  0  0  0  0
  183.5330  177.5790  140.1960 C   0  0  0  0  0  2  0  0  0  0  0  0
  182.3600  177.7310  139.2230 C   0  0  0  0  0  2  0  0  0  0  0  0
  182.1490  176.6020  138.2130 C   0  0  2  0  0  3  0  0  0  0  0  0
  180.4880  174.7650  138.2870 C   0  0  0  0  0  1  0  0  0  0  0  0
  181.7150  175.3480  138.9560 C   0  0  0  0  0  2  0  0  0  0  0  0
  183.4170  176.3170  137.5520 N   0  0  0  0  0  2  0  0  0  0  0  0
  183.7070  177.4170  136.6370 C   0  0  0  0  0  2  0  0  0  0  0  0
  182.5180  175.9740  134.9820 O   0  0  0  0  0  1  0  0  0  0  0  0
  182.9400  177.2290  135.3700 C   0  0  0  0  0  0  0  0  0  0  0  0
  182.6540  178.2370  134.6690 O   0  0  0  0  0  0  0  0  0  0  0  0
  1 49  1  6  0  0  0
  1  2  1  0  0  0  0
  2  5  1  1  0  0  0
  2  3  1  0  0  0  0
  3  4  1  0  0  0  0
  5  6  1  0  0  0  0
  6  7  1  0  0  0  0
  7  8  1  6  0  0  0
  7  9  1  0  0  0  0
  9 10  1  0  0  0  0
 12 10  1  1  0  0  0
 12 13  1  0  0  0  0
 12 11  1  0  0  0  0
 13 14  1  6  0  0  0
 13 11  1  0  0  0  0
 14 15  1  0  0  0  0
 16 14  2  0  0  0  0
 17 23  1  1  0  0  0
 17 16  1  0  0  0  0
 17 18  1  0  0  0  0
 18 19  2  0  0  0  0
 18 22  1  0  0  0  0
 20 18  2  0  0  0  0
 22 21  1  0  0  0  0
 24 23  1  0  0  0  0
 25 24  1  0  0  0  0
 26  1  1  0  0  0  0
 26 27  1  0  0  0  0
 28 27  1  0  0  0  0
 29 28  1  0  0  0  0
 31 30  1  1  0  0  0
 31 33  1  0  0  0  0
 32 35  1  0  0  0  0
 34 32  2  0  0  0  0
 35 36  1  0  0  0  0
 36 37  1  0  0  0  0
 36 29  1  1  0  0  0
 38 30  1  0  0  0  0
 38 40  1  1  0  0  0
 38 37  1  0  0  0  0
 39 32  1  1  0  0  0
 39 31  1  0  0  0  0
 39 33  1  0  0  0  0
 41 40  1  0  0  0  0
 42 46  1  0  0  0  0
 43 48  1  0  0  0  0
 43 42  1  0  0  0  0
 44 41  1  1  0  0  0
 44 47  1  0  0  0  0
 46 45  1  0  0  0  0
 47 45  1  0  0  0  0
 48 44  1  0  0  0  0
 49 51  1  0  0  0  0
 50 51  1  0  0  0  0
 52 51  1  0  0  0  0
 53 52  1  0  0  0  0
 54 56  1  1  0  0  0
 54 53  1  0  0  0  0
 55 56  1  0  0  0  0
 57 54  1  0  0  0  0
 58 57  1  0  0  0  0
 59 60  1  0  0  0  0
 60 58  1  0  0  0  0
 61 60  2  0  0  0  0
M  END
>  <MODEL>
9

>  <REMARK>
 VINA RESULT:      -2.9      3.540      9.715
  Name = 
  31 active torsions:
  status: ('A' for Active; 'I' for Inactive)
    1  A    between atoms: C_1  and  N_8
    2  A    between atoms: C_1  and  C_21
    3  A    between atoms: C_1  and  C_28
    4  A    between atoms: C_4  and  S_15
    5  A    between atoms: C_4  and  C_46
    6  A    between atoms: C_4  and  C_51
    7  A    between atoms: C_7  and  N_8
    8  A    between atoms: C_7  and  C_42
    9  A    between atoms: C_9  and  C_34
   10  A    between atoms: C_9  and  C_39
   11  A    between atoms: C_10  and  C_53
   12  A    between atoms: C_11  and  C_29
   13  A    between atoms: C_11  and  C_39
   14  A    between atoms: C_14  and  C_36
   15  A    between atoms: C_14  and  C_43
   16  A    between atoms: S_15  and  N_38
   17  A    between atoms: C_19  and  C_45
   18  A    between atoms: C_23  and  N_41
   19  A    between atoms: C_23  and  C_43
   20  A    between atoms: C_25  and  C_58
   21  A    between atoms: C_26  and  C_28
   22  A    between atoms: C_26  and  N_59
   23  A    between atoms: C_32  and  C_55
   24  A    between atoms: C_32  and  N_59
   25  A    between atoms: C_33  and  C_51
   26  A    between atoms: C_34  and  C_55
   27  A    between atoms: C_35  and  N_41
   28  A    between atoms: C_36  and  C_53
   29  A    between atoms: C_47  and  C_49
   30  A    between atoms: C_47  and  C_58
   31  A    between atoms: C_53  and  C_55
                            x       y       z     vdW  Elec       q    Type
                         _______ _______ _______ _____ _____    ______ ____

>  <TORSDO>
F 31

$$$$
