=
 OpenBabel10232409333D

 33 35  0  0  1  0  0  0  0  0999 V2000
  190.4670  177.1120  139.0450 N   0  0  0  0  0  0  0  0  0  0  0  0
  190.3820  177.1890  136.8480 C   0  0  0  0  0  2  0  0  0  0  0  0
  191.3820  176.9030  137.9110 C   0  0  0  0  0  2  0  0  0  0  0  0
  189.4640  177.3860  138.0010 C   0  0  2  0  0  3  0  0  0  0  0  0
  190.7310  176.7090  144.7420 C   0  0  0  0  0  2  0  0  0  0  0  0
  187.5860  177.4360  144.2050 C   0  0  0  0  0  2  0  0  0  0  0  0
  191.8020  177.1110  142.5270 C   0  0  0  0  0  3  0  0  0  0  0  0
  190.5280  177.0120  140.4690 C   0  0  0  0  0  0  0  0  0  0  0  0
  187.8370  177.6860  145.6350 C   0  0  0  0  0  0  0  0  0  0  0  0
  190.2360  177.9440  145.3280 N   0  0  0  0  0  2  0  0  0  0  0  0
  190.6540  176.7880  143.2600 C   0  0  0  0  0  0  0  0  0  0  0  0
  189.3810  176.6940  141.2020 C   0  0  0  0  0  3  0  0  0  0  0  0
  188.1040  176.2380  143.3980 C   0  0  0  0  0  2  0  0  0  0  0  0
  189.4360  176.5820  142.5940 C   0  0  0  0  0  0  0  0  0  0  0  0
  191.7400  177.2190  141.1350 C   0  0  0  0  0  3  0  0  0  0  0  0
  187.3720  176.2190  143.8100 N   0  0  0  0  0  2  0  0  0  0  0  0
  189.0550  177.9810  146.1330 C   0  0  0  0  0  0  0  0  0  0  0  0
  189.1840  178.4110  147.4880 N   0  0  0  0  0  1  0  0  0  0  0  0
  186.6260  177.7990  146.5090 C   0  0  0  0  0  2  0  0  0  0  0  0
  185.3990  178.9010  145.7430 S   0  0  0  0  0  1  0  0  0  0  0  0
  189.0130  178.8400  138.0560 C   0  0  0  0  0  2  0  0  0  0  0  0
  187.6250  178.9440  137.6450 N   0  0  0  0  0  2  0  0  0  0  0  0
  186.8850  177.9550  138.4060 C   0  0  0  0  0  2  0  0  0  0  0  0
  184.3820  178.1640  138.2530 C   0  0  0  0  0  0  0  0  0  0  0  0
  185.6270  177.6620  137.7360 N   0  0  0  0  0  0  0  0  0  0  0  0
  183.3030  177.9260  137.6470 O   0  0  0  0  0  0  0  0  0  0  0  0
  185.6770  176.9610  136.4570 C   0  0  0  0  0  2  0  0  0  0  0  0
  186.5080  175.6960  136.5780 C   0  0  0  0  0  1  0  0  0  0  0  0
  184.3440  178.9440  139.5460 C   0  0  0  0  0  2  0  0  0  0  0  0
  182.6010  178.5920  141.1490 C   0  0  0  0  0  1  0  0  0  0  0  0
  183.9220  178.1640  140.7190 N   0  0  0  0  0  0  0  0  0  0  0  0
  184.8480  178.3550  141.8290 C   0  0  0  0  0  2  0  0  0  0  0  0
  185.7340  179.4700  141.5410 N   0  0  0  0  0  1  0  0  0  0  0  0
  1  8  1  0  0  0  0
  2  3  1  0  0  0  0
  2  4  1  0  0  0  0
  3  1  1  0  0  0  0
  4 21  1  1  0  0  0
  4  1  1  0  0  0  0
  5 10  1  0  0  0  0
  6  9  1  0  0  0  0
  7 11  1  0  0  0  0
  8 15  1  0  0  0  0
  8 12  2  0  0  0  0
  9 17  2  0  0  0  0
  9 19  1  0  0  0  0
 10 17  1  0  0  0  0
 11  5  1  0  0  0  0
 12 14  1  0  0  0  0
 13 16  1  0  0  0  0
 14 11  2  0  0  0  0
 14 13  1  0  0  0  0
 15  7  2  0  0  0  0
 16  6  1  0  0  0  0
 17 18  1  0  0  0  0
 20 19  1  0  0  0  0
 22 21  1  0  0  0  0
 22 23  1  0  0  0  0
 24 29  1  0  0  0  0
 25 24  1  0  0  0  0
 25 23  1  0  0  0  0
 26 24  2  0  0  0  0
 27 28  1  0  0  0  0
 27 25  1  0  0  0  0
 29 31  1  0  0  0  0
 31 30  1  0  0  0  0
 31 32  1  0  0  0  0
 33 32  1  0  0  0  0
M  END
>  <MODEL>
1

>  <REMARK>
 VINA RESULT:      -6.9      0.000      0.000
  Name = 
  10 active torsions:
  status: ('A' for Active; 'I' for Inactive)
    1  A    between atoms: N_1  and  C_7
    2  A    between atoms: C_5  and  N_15
    3  A    between atoms: C_5  and  C_28
    4  A    between atoms: C_8  and  C_9
    5  A    between atoms: C_13  and  N_32
    6  A    between atoms: N_15  and  C_27
    7  A    between atoms: C_17  and  C_26
    8  A    between atoms: C_18  and  N_22
    9  A    between atoms: N_22  and  C_27
   10  A    between atoms: C_26  and  N_32
                            x       y       z     vdW  Elec       q    Type
                         _______ _______ _______ _____ _____    ______ ____

>  <TORSDO>
F 10

$$$$
=
 OpenBabel10232409333D

 33 35  0  0  1  0  0  0  0  0999 V2000
  190.4380  177.1900  142.1490 N   0  0  0  0  0  0  0  0  0  0  0  0
  190.8970  177.1820  144.3010 C   0  0  0  0  0  2  0  0  0  0  0  0
  191.6120  176.9810  143.0120 C   0  0  0  0  0  2  0  0  0  0  0  0
  189.7200  177.4030  143.4180 C   0  0  2  0  0  3  0  0  0  0  0  0
  189.3750  177.3770  136.5340 C   0  0  0  0  0  2  0  0  0  0  0  0
  186.3810  177.1770  137.8400 C   0  0  0  0  0  2  0  0  0  0  0  0
  190.8780  176.8750  138.4590 C   0  0  0  0  0  3  0  0  0  0  0  0
  190.1680  177.2370  140.7470 C   0  0  0  0  0  0  0  0  0  0  0  0
  186.2390  176.8480  136.4110 C   0  0  0  0  0  0  0  0  0  0  0  0
  188.5760  176.2190  136.1650 N   0  0  0  0  0  2  0  0  0  0  0  0
  189.6480  177.3540  137.9960 C   0  0  0  0  0  0  0  0  0  0  0  0
  188.9370  177.7110  140.2830 C   0  0  0  0  0  3  0  0  0  0  0  0
  187.2500  178.3000  138.4220 C   0  0  0  0  0  2  0  0  0  0  0  0
  188.6710  177.7720  138.9120 C   0  0  0  0  0  0  0  0  0  0  0  0
  191.1390  176.8200  139.8310 C   0  0  0  0  0  3  0  0  0  0  0  0
  186.4510  178.4230  138.1920 N   0  0  0  0  0  2  0  0  0  0  0  0
  187.2430  176.3470  135.6630 C   0  0  0  0  0  0  0  0  0  0  0  0
  186.9760  175.8630  134.3470 N   0  0  0  0  0  1  0  0  0  0  0  0
  184.8500  176.9030  135.8540 C   0  0  0  0  0  2  0  0  0  0  0  0
  183.8940  175.4570  136.4040 S   0  0  0  0  0  1  0  0  0  0  0  0
  188.6930  176.3020  143.6470 C   0  0  0  0  0  2  0  0  0  0  0  0
  187.3800  176.8830  143.8530 N   0  0  0  0  0  2  0  0  0  0  0  0
  187.5810  178.1390  144.5510 C   0  0  0  0  0  2  0  0  0  0  0  0
  185.4220  178.6890  145.7210 C   0  0  0  0  0  0  0  0  0  0  0  0
  186.7620  178.1670  145.7550 N   0  0  0  0  0  0  0  0  0  0  0  0
  184.7140  178.6800  146.7630 O   0  0  0  0  0  0  0  0  0  0  0  0
  187.2870  177.5310  146.9580 C   0  0  0  0  0  2  0  0  0  0  0  0
  188.7500  177.8880  147.1520 C   0  0  0  0  0  1  0  0  0  0  0  0
  184.8600  179.2890  144.4540 C   0  0  0  0  0  2  0  0  0  0  0  0
  184.2570  178.2730  142.3720 C   0  0  0  0  0  1  0  0  0  0  0  0
  183.8730  178.4470  143.7630 N   0  0  0  0  0  0  0  0  0  0  0  0
  182.5520  179.0620  143.7970 C   0  0  0  0  0  2  0  0  0  0  0  0
  181.9280  178.9550  142.4900 N   0  0  0  0  0  1  0  0  0  0  0  0
  1  3  1  0  0  0  0
  1  4  1  0  0  0  0
  3  2  1  0  0  0  0
  4 21  1  1  0  0  0
  4  2  1  0  0  0  0
  5 11  1  0  0  0  0
  6 16  1  0  0  0  0
  7 15  1  0  0  0  0
  8  1  1  0  0  0  0
  9  6  1  0  0  0  0
 10  5  1  0  0  0  0
 11  7  2  0  0  0  0
 11 14  1  0  0  0  0
 12  8  1  0  0  0  0
 13 14  1  0  0  0  0
 14 12  2  0  0  0  0
 15  8  2  0  0  0  0
 16 13  1  0  0  0  0
 17 10  1  0  0  0  0
 17  9  2  0  0  0  0
 18 17  1  0  0  0  0
 19 20  1  0  0  0  0
 19  9  1  0  0  0  0
 21 22  1  0  0  0  0
 22 23  1  0  0  0  0
 23 25  1  0  0  0  0
 24 25  1  0  0  0  0
 24 26  2  0  0  0  0
 25 27  1  0  0  0  0
 27 28  1  0  0  0  0
 29 24  1  0  0  0  0
 30 31  1  0  0  0  0
 31 32  1  0  0  0  0
 31 29  1  0  0  0  0
 33 32  1  0  0  0  0
M  END
>  <MODEL>
2

>  <REMARK>
 VINA RESULT:      -6.8      2.940      7.153
  Name = 
  10 active torsions:
  status: ('A' for Active; 'I' for Inactive)
    1  A    between atoms: N_1  and  C_7
    2  A    between atoms: C_5  and  N_15
    3  A    between atoms: C_5  and  C_28
    4  A    between atoms: C_8  and  C_9
    5  A    between atoms: C_13  and  N_32
    6  A    between atoms: N_15  and  C_27
    7  A    between atoms: C_17  and  C_26
    8  A    between atoms: C_18  and  N_22
    9  A    between atoms: N_22  and  C_27
   10  A    between atoms: C_26  and  N_32
                            x       y       z     vdW  Elec       q    Type
                         _______ _______ _______ _____ _____    ______ ____

>  <TORSDO>
F 10

$$$$
=
 OpenBabel10232409333D

 33 35  0  0  1  0  0  0  0  0999 V2000
  181.7310  178.2550  140.9640 N   0  0  0  0  0  0  0  0  0  0  0  0
  180.2970  177.9430  139.3240 C   0  0  0  0  0  2  0  0  0  0  0  0
  180.2950  178.4670  140.7170 C   0  0  0  0  0  2  0  0  0  0  0  0
  181.7490  177.7440  139.5820 C   0  0  2  0  0  3  0  0  0  0  0  0
  185.4240  179.2750  145.2080 C   0  0  0  0  0  2  0  0  0  0  0  0
  187.1130  177.2910  143.2300 C   0  0  0  0  0  2  0  0  0  0  0  0
  183.0980  179.1300  144.3210 C   0  0  0  0  0  3  0  0  0  0  0  0
  182.6570  178.5070  142.0220 C   0  0  0  0  0  0  0  0  0  0  0  0
  187.8240  177.3020  144.5200 C   0  0  0  0  0  0  0  0  0  0  0  0
  185.8600  178.0070  145.7710 N   0  0  0  0  0  2  0  0  0  0  0  0
  184.4750  179.0290  144.0900 C   0  0  0  0  0  0  0  0  0  0  0  0
  184.0330  178.4020  141.7930 C   0  0  0  0  0  3  0  0  0  0  0  0
  186.5040  178.5120  142.5280 C   0  0  0  0  0  2  0  0  0  0  0  0
  184.9450  178.6610  142.8210 C   0  0  0  0  0  0  0  0  0  0  0  0
  182.1920  178.8740  143.2890 C   0  0  0  0  0  3  0  0  0  0  0  0
  187.3000  178.2730  142.4020 N   0  0  0  0  0  2  0  0  0  0  0  0
  187.2210  177.5730  145.6950 C   0  0  0  0  0  0  0  0  0  0  0  0
  187.9240  177.3650  146.9200 N   0  0  0  0  0  1  0  0  0  0  0  0
  189.2320  176.7930  144.5040 C   0  0  0  0  0  2  0  0  0  0  0  0
  190.4000  178.1760  144.3430 S   0  0  0  0  0  1  0  0  0  0  0  0
  182.0750  176.2570  139.5610 C   0  0  0  0  0  2  0  0  0  0  0  0
  183.2390  176.0170  138.7290 N   0  0  0  0  0  2  0  0  0  0  0  0
  183.7190  177.3150  138.2930 C   0  0  0  0  0  2  0  0  0  0  0  0
  185.5080  177.4380  136.5270 C   0  0  0  0  0  0  0  0  0  0  0  0
  184.1330  177.2400  136.8990 N   0  0  0  0  0  0  0  0  0  0  0  0
  185.8570  177.3420  135.3200 O   0  0  0  0  0  0  0  0  0  0  0  0
  183.1430  176.8290  135.9090 C   0  0  0  0  0  2  0  0  0  0  0  0
  182.0460  177.8720  135.7910 C   0  0  0  0  0  1  0  0  0  0  0  0
  186.5420  177.8020  137.5660 C   0  0  0  0  0  2  0  0  0  0  0  0
  188.3750  176.2670  137.6820 C   0  0  0  0  0  1  0  0  0  0  0  0
  187.9330  177.5500  137.1610 N   0  0  0  0  0  0  0  0  0  0  0  0
  188.8210  178.5830  137.6780 C   0  0  0  0  0  2  0  0  0  0  0  0
  188.6060  178.7410  139.1070 N   0  0  0  0  0  1  0  0  0  0  0  0
  1  8  1  0  0  0  0
  2  4  1  0  0  0  0
  2  3  1  0  0  0  0
  3  1  1  0  0  0  0
  4 21  1  1  0  0  0
  4  1  1  0  0  0  0
  5 10  1  0  0  0  0
  6  9  1  0  0  0  0
  8 15  1  0  0  0  0
  9 17  2  0  0  0  0
 11  7  1  0  0  0  0
 11  5  1  0  0  0  0
 12  8  2  0  0  0  0
 12 14  1  0  0  0  0
 13 14  1  0  0  0  0
 14 11  2  0  0  0  0
 15  7  2  0  0  0  0
 16 13  1  0  0  0  0
 16  6  1  0  0  0  0
 17 10  1  0  0  0  0
 17 18  1  0  0  0  0
 19  9  1  0  0  0  0
 20 19  1  0  0  0  0
 22 21  1  0  0  0  0
 23 22  1  0  0  0  0
 24 25  1  0  0  0  0
 24 29  1  0  0  0  0
 25 23  1  0  0  0  0
 26 24  2  0  0  0  0
 27 25  1  0  0  0  0
 28 27  1  0  0  0  0
 31 29  1  0  0  0  0
 31 32  1  0  0  0  0
 31 30  1  0  0  0  0
 32 33  1  0  0  0  0
M  END
>  <MODEL>
3

>  <REMARK>
 VINA RESULT:      -6.8      2.305      5.871
  Name = 
  10 active torsions:
  status: ('A' for Active; 'I' for Inactive)
    1  A    between atoms: N_1  and  C_7
    2  A    between atoms: C_5  and  N_15
    3  A    between atoms: C_5  and  C_28
    4  A    between atoms: C_8  and  C_9
    5  A    between atoms: C_13  and  N_32
    6  A    between atoms: N_15  and  C_27
    7  A    between atoms: C_17  and  C_26
    8  A    between atoms: C_18  and  N_22
    9  A    between atoms: N_22  and  C_27
   10  A    between atoms: C_26  and  N_32
                            x       y       z     vdW  Elec       q    Type
                         _______ _______ _______ _____ _____    ______ ____

>  <TORSDO>
F 10

$$$$
=
 OpenBabel10232409333D

 33 35  0  0  1  0  0  0  0  0999 V2000
  188.1500  177.6460  144.6460 N   0  0  0  0  0  0  0  0  0  0  0  0
  187.0310  177.9320  146.5200 C   0  0  0  0  0  2  0  0  0  0  0  0
  188.2340  177.1950  146.0450 C   0  0  0  0  0  2  0  0  0  0  0  0
  186.9640  178.3900  145.1060 C   0  0  2  0  0  3  0  0  0  0  0  0
  191.2260  177.0040  139.8690 C   0  0  0  0  0  2  0  0  0  0  0  0
  188.1790  177.3700  138.7340 C   0  0  0  0  0  2  0  0  0  0  0  0
  190.8920  176.6660  142.3170 C   0  0  0  0  0  3  0  0  0  0  0  0
  188.9150  177.4870  143.4500 C   0  0  0  0  0  0  0  0  0  0  0  0
  188.9780  176.8230  137.6240 C   0  0  0  0  0  0  0  0  0  0  0  0
  190.6780  175.8990  139.0990 N   0  0  0  0  0  2  0  0  0  0  0  0
  190.4280  177.1970  141.1090 C   0  0  0  0  0  0  0  0  0  0  0  0
  188.4490  178.0130  142.2420 C   0  0  0  0  0  3  0  0  0  0  0  0
  188.6260  178.4690  139.7080 C   0  0  0  0  0  2  0  0  0  0  0  0
  189.1980  177.8720  141.0700 C   0  0  0  0  0  0  0  0  0  0  0  0
  190.1400  176.8130  143.4850 C   0  0  0  0  0  3  0  0  0  0  0  0
  188.2380  178.6420  138.9820 N   0  0  0  0  0  2  0  0  0  0  0  0
  190.0960  176.0920  137.8070 C   0  0  0  0  0  0  0  0  0  0  0  0
  190.7000  175.4270  136.6970 N   0  0  0  0  0  1  0  0  0  0  0  0
  188.3790  176.9410  136.2570 C   0  0  0  0  0  2  0  0  0  0  0  0
  186.7710  176.0940  136.1990 S   0  0  0  0  0  1  0  0  0  0  0  0
  185.7010  177.8480  144.4500 C   0  0  0  0  0  2  0  0  0  0  0  0
  185.1310  178.8490  143.5690 N   0  0  0  0  0  2  0  0  0  0  0  0
  184.5030  178.1350  142.4720 C   0  0  0  0  0  2  0  0  0  0  0  0
  182.4030  178.2780  141.0920 C   0  0  0  0  0  0  0  0  0  0  0  0
  183.1570  178.6480  142.2600 N   0  0  0  0  0  0  0  0  0  0  0  0
  181.2290  178.7070  140.9360 O   0  0  0  0  0  0  0  0  0  0  0  0
  182.5470  179.4370  143.3250 C   0  0  0  0  0  2  0  0  0  0  0  0
  181.6570  178.5610  144.1900 C   0  0  0  0  0  1  0  0  0  0  0  0
  183.0200  177.4090  140.0220 C   0  0  0  0  0  2  0  0  0  0  0  0
  183.2200  177.1710  137.6480 C   0  0  0  0  0  1  0  0  0  0  0  0
  183.3060  178.1050  138.7580 N   0  0  0  0  0  0  0  0  0  0  0  0
  184.6480  178.6740  138.7720 C   0  0  0  0  0  2  0  0  0  0  0  0
  184.5720  180.1000  139.0430 N   0  0  0  0  0  1  0  0  0  0  0  0
  1  4  1  0  0  0  0
  1  3  1  0  0  0  0
  3  2  1  0  0  0  0
  4 21  1  6  0  0  0
  4  2  1  0  0  0  0
  5 11  1  0  0  0  0
  6 16  1  0  0  0  0
  7 15  1  0  0  0  0
  8 15  2  0  0  0  0
  8  1  1  0  0  0  0
  9 17  2  0  0  0  0
  9  6  1  0  0  0  0
 10  5  1  0  0  0  0
 11  7  2  0  0  0  0
 12  8  1  0  0  0  0
 13 14  1  0  0  0  0
 14 11  1  0  0  0  0
 14 12  2  0  0  0  0
 16 13  1  0  0  0  0
 17 10  1  0  0  0  0
 18 17  1  0  0  0  0
 19  9  1  0  0  0  0
 20 19  1  0  0  0  0
 22 21  1  0  0  0  0
 23 22  1  0  0  0  0
 24 25  1  0  0  0  0
 25 23  1  0  0  0  0
 25 27  1  0  0  0  0
 26 24  2  0  0  0  0
 27 28  1  0  0  0  0
 29 24  1  0  0  0  0
 30 31  1  0  0  0  0
 31 32  1  0  0  0  0
 31 29  1  0  0  0  0
 32 33  1  0  0  0  0
M  END
>  <MODEL>
4

>  <REMARK>
 VINA RESULT:      -6.7      2.470      6.274
  Name = 
  10 active torsions:
  status: ('A' for Active; 'I' for Inactive)
    1  A    between atoms: N_1  and  C_7
    2  A    between atoms: C_5  and  N_15
    3  A    between atoms: C_5  and  C_28
    4  A    between atoms: C_8  and  C_9
    5  A    between atoms: C_13  and  N_32
    6  A    between atoms: N_15  and  C_27
    7  A    between atoms: C_17  and  C_26
    8  A    between atoms: C_18  and  N_22
    9  A    between atoms: N_22  and  C_27
   10  A    between atoms: C_26  and  N_32
                            x       y       z     vdW  Elec       q    Type
                         _______ _______ _______ _____ _____    ______ ____

>  <TORSDO>
F 10

$$$$
=
 OpenBabel10232409333D

 33 35  0  0  1  0  0  0  0  0999 V2000
  190.0230  177.7910  142.5760 N   0  0  0  0  0  0  0  0  0  0  0  0
  190.0660  178.2080  144.7370 C   0  0  0  0  0  2  0  0  0  0  0  0
  191.0320  178.0580  143.6150 C   0  0  0  0  0  2  0  0  0  0  0  0
  189.0550  177.9490  143.6760 C   0  0  2  0  0  3  0  0  0  0  0  0
  189.9900  176.8950  136.9290 C   0  0  0  0  0  2  0  0  0  0  0  0
  186.8160  177.2640  137.6300 C   0  0  0  0  0  2  0  0  0  0  0  0
  191.0530  176.6670  139.1730 C   0  0  0  0  0  3  0  0  0  0  0  0
  190.0100  177.5680  141.1650 C   0  0  0  0  0  0  0  0  0  0  0  0
  186.8820  176.6570  136.2900 C   0  0  0  0  0  0  0  0  0  0  0  0
  189.1200  175.7680  136.6340 N   0  0  0  0  0  2  0  0  0  0  0  0
  189.9980  177.1550  138.3940 C   0  0  0  0  0  0  0  0  0  0  0  0
  188.9540  178.0510  140.3860 C   0  0  0  0  0  3  0  0  0  0  0  0
  187.7120  178.3950  138.1500 C   0  0  0  0  0  2  0  0  0  0  0  0
  188.9420  177.8480  139.0030 C   0  0  0  0  0  0  0  0  0  0  0  0
  191.0610  176.8770  140.5550 C   0  0  0  0  0  3  0  0  0  0  0  0
  186.9890  178.5440  137.7480 N   0  0  0  0  0  2  0  0  0  0  0  0
  187.9250  175.9160  135.8630 C   0  0  0  0  0  0  0  0  0  0  0  0
  187.8290  175.1940  134.6350 N   0  0  0  0  0  1  0  0  0  0  0  0
  185.6320  176.7270  135.4690 C   0  0  0  0  0  2  0  0  0  0  0  0
  184.4570  175.4460  136.0010 S   0  0  0  0  0  1  0  0  0  0  0  0
  188.3400  176.6340  143.9580 C   0  0  0  0  0  2  0  0  0  0  0  0
  186.9530  176.8870  144.2990 N   0  0  0  0  0  2  0  0  0  0  0  0
  186.5350  178.0430  143.5290 C   0  0  0  0  0  2  0  0  0  0  0  0
  184.0940  178.6550  143.5560 C   0  0  0  0  0  0  0  0  0  0  0  0
  185.3920  178.6740  144.1740 N   0  0  0  0  0  0  0  0  0  0  0  0
  183.1080  179.1800  144.1390 O   0  0  0  0  0  0  0  0  0  0  0  0
  185.5710  179.2060  145.5210 C   0  0  0  0  0  2  0  0  0  0  0  0
  184.8820  178.3160  146.5390 C   0  0  0  0  0  1  0  0  0  0  0  0
  183.9020  178.0460  142.1860 C   0  0  0  0  0  2  0  0  0  0  0  0
  182.1880  178.5580  140.5950 C   0  0  0  0  0  1  0  0  0  0  0  0
  183.4580  178.9930  141.1520 N   0  0  0  0  0  0  0  0  0  0  0  0
  184.4300  179.0700  140.0680 C   0  0  0  0  0  2  0  0  0  0  0  0
  184.1270  180.2110  139.2210 N   0  0  0  0  0  1  0  0  0  0  0  0
  1  3  1  0  0  0  0
  1  4  1  0  0  0  0
  3  2  1  0  0  0  0
  4 21  1  1  0  0  0
  4  2  1  0  0  0  0
  5 11  1  0  0  0  0
  6 16  1  0  0  0  0
  7 15  1  0  0  0  0
  8  1  1  0  0  0  0
  9  6  1  0  0  0  0
 10  5  1  0  0  0  0
 11 14  1  0  0  0  0
 11  7  2  0  0  0  0
 12  8  1  0  0  0  0
 13 14  1  0  0  0  0
 14 12  2  0  0  0  0
 15  8  2  0  0  0  0
 16 13  1  0  0  0  0
 17  9  2  0  0  0  0
 17 10  1  0  0  0  0
 18 17  1  0  0  0  0
 19 20  1  0  0  0  0
 19  9  1  0  0  0  0
 21 22  1  0  0  0  0
 23 25  1  0  0  0  0
 23 22  1  0  0  0  0
 24 26  2  0  0  0  0
 24 25  1  0  0  0  0
 25 27  1  0  0  0  0
 27 28  1  0  0  0  0
 29 24  1  0  0  0  0
 30 31  1  0  0  0  0
 31 29  1  0  0  0  0
 32 31  1  0  0  0  0
 33 32  1  0  0  0  0
M  END
>  <MODEL>
5

>  <REMARK>
 VINA RESULT:      -6.6      2.715      6.782
  Name = 
  10 active torsions:
  status: ('A' for Active; 'I' for Inactive)
    1  A    between atoms: N_1  and  C_7
    2  A    between atoms: C_5  and  N_15
    3  A    between atoms: C_5  and  C_28
    4  A    between atoms: C_8  and  C_9
    5  A    between atoms: C_13  and  N_32
    6  A    between atoms: N_15  and  C_27
    7  A    between atoms: C_17  and  C_26
    8  A    between atoms: C_18  and  N_22
    9  A    between atoms: N_22  and  C_27
   10  A    between atoms: C_26  and  N_32
                            x       y       z     vdW  Elec       q    Type
                         _______ _______ _______ _____ _____    ______ ____

>  <TORSDO>
F 10

$$$$
=
 OpenBabel10232409333D

 33 35  0  0  1  0  0  0  0  0999 V2000
  190.4650  176.9380  139.2370 N   0  0  0  0  0  0  0  0  0  0  0  0
  191.2840  176.3480  137.2810 C   0  0  0  0  0  2  0  0  0  0  0  0
  191.7710  176.5620  138.6710 C   0  0  0  0  0  2  0  0  0  0  0  0
  189.9680  176.7180  137.8670 C   0  0  2  0  0  3  0  0  0  0  0  0
  188.3530  178.2850  144.3760 C   0  0  0  0  0  2  0  0  0  0  0  0
  191.2760  177.0050  145.0990 C   0  0  0  0  0  2  0  0  0  0  0  0
  188.0480  177.7030  141.9710 C   0  0  0  0  0  3  0  0  0  0  0  0
  189.9420  177.2730  140.5230 C   0  0  0  0  0  0  0  0  0  0  0  0
  190.5060  177.0290  146.3550 C   0  0  0  0  0  0  0  0  0  0  0  0
  188.3570  177.0970  145.2160 N   0  0  0  0  0  2  0  0  0  0  0  0
  188.9150  177.9580  143.0390 C   0  0  0  0  0  0  0  0  0  0  0  0
  190.8080  177.5230  141.5920 C   0  0  0  0  0  3  0  0  0  0  0  0
  191.3190  178.1230  144.0490 C   0  0  0  0  0  2  0  0  0  0  0  0
  190.3020  177.8640  142.8500 C   0  0  0  0  0  0  0  0  0  0  0  0
  188.5600  177.3650  140.7150 C   0  0  0  0  0  3  0  0  0  0  0  0
  191.8530  178.0950  144.6970 N   0  0  0  0  0  2  0  0  0  0  0  0
  189.1580  177.0080  146.3970 C   0  0  0  0  0  0  0  0  0  0  0  0
  188.4890  176.8270  147.6450 N   0  0  0  0  0  1  0  0  0  0  0  0
  191.2940  176.8720  147.6180 C   0  0  0  0  0  2  0  0  0  0  0  0
  192.4500  175.4760  147.4680 S   0  0  0  0  0  1  0  0  0  0  0  0
  189.4820  178.0250  137.2550 C   0  0  0  0  0  2  0  0  0  0  0  0
  188.2760  177.7940  136.4830 N   0  0  0  0  0  2  0  0  0  0  0  0
  187.1570  177.9610  137.3920 C   0  0  0  0  0  2  0  0  0  0  0  0
  184.7890  177.1280  137.5680 C   0  0  0  0  0  0  0  0  0  0  0  0
  186.1410  176.9570  137.1090 N   0  0  0  0  0  0  0  0  0  0  0  0
  183.9130  176.2660  137.2910 O   0  0  0  0  0  0  0  0  0  0  0  0
  186.5000  175.8440  136.2360 C   0  0  0  0  0  2  0  0  0  0  0  0
  186.8730  174.6240  137.0590 C   0  0  0  0  0  1  0  0  0  0  0  0
  184.4090  178.3170  138.4190 C   0  0  0  0  0  2  0  0  0  0  0  0
  182.2950  178.6110  139.5030 C   0  0  0  0  0  1  0  0  0  0  0  0
  183.6040  177.9880  139.6050 N   0  0  0  0  0  0  0  0  0  0  0  0
  184.2470  178.4750  140.8190 C   0  0  0  0  0  2  0  0  0  0  0  0
  185.2580  179.4610  140.4760 N   0  0  0  0  0  1  0  0  0  0  0  0
  1  8  1  0  0  0  0
  2  4  1  0  0  0  0
  2  3  1  0  0  0  0
  3  1  1  0  0  0  0
  4 21  1  6  0  0  0
  4  1  1  0  0  0  0
  5 10  1  0  0  0  0
  6  9  1  0  0  0  0
  7 11  1  0  0  0  0
  8 15  1  0  0  0  0
  8 12  2  0  0  0  0
  9 17  2  0  0  0  0
  9 19  1  0  0  0  0
 10 17  1  0  0  0  0
 11  5  1  0  0  0  0
 12 14  1  0  0  0  0
 13 16  1  0  0  0  0
 14 11  2  0  0  0  0
 14 13  1  0  0  0  0
 15  7  2  0  0  0  0
 16  6  1  0  0  0  0
 17 18  1  0  0  0  0
 20 19  1  0  0  0  0
 22 21  1  0  0  0  0
 22 23  1  0  0  0  0
 24 29  1  0  0  0  0
 25 23  1  0  0  0  0
 25 24  1  0  0  0  0
 26 24  2  0  0  0  0
 27 28  1  0  0  0  0
 27 25  1  0  0  0  0
 29 31  1  0  0  0  0
 30 31  1  0  0  0  0
 31 32  1  0  0  0  0
 33 32  1  0  0  0  0
M  END
>  <MODEL>
6

>  <REMARK>
 VINA RESULT:      -6.5      1.935      2.633
  Name = 
  10 active torsions:
  status: ('A' for Active; 'I' for Inactive)
    1  A    between atoms: N_1  and  C_7
    2  A    between atoms: C_5  and  N_15
    3  A    between atoms: C_5  and  C_28
    4  A    between atoms: C_8  and  C_9
    5  A    between atoms: C_13  and  N_32
    6  A    between atoms: N_15  and  C_27
    7  A    between atoms: C_17  and  C_26
    8  A    between atoms: C_18  and  N_22
    9  A    between atoms: N_22  and  C_27
   10  A    between atoms: C_26  and  N_32
                            x       y       z     vdW  Elec       q    Type
                         _______ _______ _______ _____ _____    ______ ____

>  <TORSDO>
F 10

$$$$
=
 OpenBabel10232409333D

 33 35  0  0  1  0  0  0  0  0999 V2000
  185.5100  178.3970  144.3780 N   0  0  0  0  0  0  0  0  0  0  0  0
  185.9220  178.2120  146.5320 C   0  0  0  0  0  2  0  0  0  0  0  0
  185.0120  178.9770  145.6360 C   0  0  0  0  0  2  0  0  0  0  0  0
  186.4080  177.6250  145.2540 C   0  0  2  0  0  3  0  0  0  0  0  0
  184.2810  178.7980  138.8080 C   0  0  0  0  0  2  0  0  0  0  0  0
  181.7500  177.0970  139.9960 C   0  0  0  0  0  2  0  0  0  0  0  0
  185.9150  178.7910  140.6910 C   0  0  0  0  0  3  0  0  0  0  0  0
  185.1980  178.4950  142.9870 C   0  0  0  0  0  0  0  0  0  0  0  0
  181.7220  176.9250  138.5330 C   0  0  0  0  0  0  0  0  0  0  0  0
  184.0810  177.4620  138.2710 N   0  0  0  0  0  2  0  0  0  0  0  0
  184.5850  178.7150  140.2610 C   0  0  0  0  0  0  0  0  0  0  0  0
  183.8710  178.4150  142.5560 C   0  0  0  0  0  3  0  0  0  0  0  0
  182.0360  178.4080  140.7420 C   0  0  0  0  0  2  0  0  0  0  0  0
  183.5580  178.5230  141.1980 C   0  0  0  0  0  0  0  0  0  0  0  0
  186.2200  178.6850  142.0510 C   0  0  0  0  0  3  0  0  0  0  0  0
  181.2600  178.1840  140.5090 N   0  0  0  0  0  2  0  0  0  0  0  0
  182.8170  177.0350  137.7540 C   0  0  0  0  0  0  0  0  0  0  0  0
  182.7520  176.6550  136.3790 N   0  0  0  0  0  1  0  0  0  0  0  0
  180.4400  176.4150  137.9520 C   0  0  0  0  0  2  0  0  0  0  0  0
  180.3900  174.6000  138.0350 S   0  0  0  0  0  1  0  0  0  0  0  0
  187.8600  178.0240  145.0260 C   0  0  0  0  0  2  0  0  0  0  0  0
  188.6890  176.8390  144.9150 N   0  0  0  0  0  2  0  0  0  0  0  0
  188.8160  176.5460  143.5000 C   0  0  0  0  0  2  0  0  0  0  0  0
  190.4970  177.0670  141.7000 C   0  0  0  0  0  0  0  0  0  0  0  0
  190.1900  176.7710  143.0740 N   0  0  0  0  0  0  0  0  0  0  0  0
  191.6870  177.2880  141.3510 O   0  0  0  0  0  0  0  0  0  0  0  0
  191.2270  176.8220  144.0990 C   0  0  0  0  0  2  0  0  0  0  0  0
  191.9500  175.4890  144.1890 C   0  0  0  0  0  1  0  0  0  0  0  0
  189.4080  177.0750  140.6530 C   0  0  0  0  0  2  0  0  0  0  0  0
  189.1520  178.7520  138.9640 C   0  0  0  0  0  1  0  0  0  0  0  0
  189.8430  177.5240  139.3220 N   0  0  0  0  0  0  0  0  0  0  0  0
  189.5400  176.5190  138.3100 C   0  0  0  0  0  2  0  0  0  0  0  0
  190.4960  175.4290  138.4030 N   0  0  0  0  0  1  0  0  0  0  0  0
  1  4  1  0  0  0  0
  1  3  1  0  0  0  0
  3  2  1  0  0  0  0
  4 21  1  6  0  0  0
  4  2  1  0  0  0  0
  5 11  1  0  0  0  0
  6 16  1  0  0  0  0
  7 15  1  0  0  0  0
  8  1  1  0  0  0  0
  9  6  1  0  0  0  0
 10  5  1  0  0  0  0
 11  7  2  0  0  0  0
 11 14  1  0  0  0  0
 12  8  1  0  0  0  0
 13 14  1  0  0  0  0
 14 12  2  0  0  0  0
 15  8  2  0  0  0  0
 16 13  1  0  0  0  0
 17 10  1  0  0  0  0
 17  9  2  0  0  0  0
 18 17  1  0  0  0  0
 19 20  1  0  0  0  0
 19  9  1  0  0  0  0
 22 21  1  0  0  0  0
 23 22  1  0  0  0  0
 24 25  1  0  0  0  0
 25 23  1  0  0  0  0
 25 27  1  0  0  0  0
 26 24  2  0  0  0  0
 27 28  1  0  0  0  0
 29 24  1  0  0  0  0
 30 31  1  0  0  0  0
 31 29  1  0  0  0  0
 32 33  1  0  0  0  0
 32 31  1  0  0  0  0
M  END
>  <MODEL>
7

>  <REMARK>
 VINA RESULT:      -6.5      2.976      8.130
  Name = 
  10 active torsions:
  status: ('A' for Active; 'I' for Inactive)
    1  A    between atoms: N_1  and  C_7
    2  A    between atoms: C_5  and  N_15
    3  A    between atoms: C_5  and  C_28
    4  A    between atoms: C_8  and  C_9
    5  A    between atoms: C_13  and  N_32
    6  A    between atoms: N_15  and  C_27
    7  A    between atoms: C_17  and  C_26
    8  A    between atoms: C_18  and  N_22
    9  A    between atoms: N_22  and  C_27
   10  A    between atoms: C_26  and  N_32
                            x       y       z     vdW  Elec       q    Type
                         _______ _______ _______ _____ _____    ______ ____

>  <TORSDO>
F 10

$$$$
=
 OpenBabel10232409333D

 33 35  0  0  1  0  0  0  0  0999 V2000
  190.0140  177.4810  140.8050 N   0  0  0  0  0  0  0  0  0  0  0  0
  191.9010  177.2720  141.9180 C   0  0  0  0  0  2  0  0  0  0  0  0
  191.4460  177.3300  140.5020 C   0  0  0  0  0  2  0  0  0  0  0  0
  190.4520  177.4370  142.2110 C   0  0  2  0  0  3  0  0  0  0  0  0
  185.1800  178.2060  137.8390 C   0  0  0  0  0  2  0  0  0  0  0  0
  184.1220  178.0290  140.9300 C   0  0  0  0  0  2  0  0  0  0  0  0
  187.5570  177.4700  138.0000 C   0  0  0  0  0  3  0  0  0  0  0  0
  188.8030  177.6630  140.0680 C   0  0  0  0  0  0  0  0  0  0  0  0
  182.9420  177.8330  140.0700 C   0  0  0  0  0  0  0  0  0  0  0  0
  184.2640  177.1220  138.1550 N   0  0  0  0  0  2  0  0  0  0  0  0
  186.4380  178.0440  138.6140 C   0  0  0  0  0  0  0  0  0  0  0  0
  187.6840  178.2310  140.6830 C   0  0  0  0  0  3  0  0  0  0  0  0
  185.2390  179.0560  140.7030 C   0  0  0  0  0  2  0  0  0  0  0  0
  186.5000  178.4230  139.9640 C   0  0  0  0  0  0  0  0  0  0  0  0
  188.7380  177.2840  138.7240 C   0  0  0  0  0  3  0  0  0  0  0  0
  184.5470  179.2360  141.1450 N   0  0  0  0  0  2  0  0  0  0  0  0
  183.0140  177.3540  138.8110 C   0  0  0  0  0  0  0  0  0  0  0  0
  181.8190  176.9990  138.1160 N   0  0  0  0  0  1  0  0  0  0  0  0
  181.6080  177.9990  140.7290 C   0  0  0  0  0  2  0  0  0  0  0  0
  180.9060  179.6270  140.3270 S   0  0  0  0  0  1  0  0  0  0  0  0
  189.9230  176.1870  142.9020 C   0  0  0  0  0  2  0  0  0  0  0  0
  188.9980  176.5560  143.9560 N   0  0  0  0  0  2  0  0  0  0  0  0
  189.7020  177.4780  144.8280 C   0  0  0  0  0  2  0  0  0  0  0  0
  188.3450  177.5020  146.9480 C   0  0  0  0  0  0  0  0  0  0  0  0
  189.5110  177.0820  146.2170 N   0  0  0  0  0  0  0  0  0  0  0  0
  188.1790  177.1280  148.1400 O   0  0  0  0  0  0  0  0  0  0  0  0
  190.4620  176.1420  146.8000 C   0  0  0  0  0  2  0  0  0  0  0  0
  191.5480  176.8870  147.5550 C   0  0  0  0  0  1  0  0  0  0  0  0
  187.3310  178.4260  146.3170 C   0  0  0  0  0  2  0  0  0  0  0  0
  185.7780  177.9680  144.5540 C   0  0  0  0  0  1  0  0  0  0  0  0
  186.0530  177.7860  145.9690 N   0  0  0  0  0  0  0  0  0  0  0  0
  184.9550  178.3730  146.7270 C   0  0  0  0  0  2  0  0  0  0  0  0
  184.1020  179.1400  145.8360 N   0  0  0  0  0  1  0  0  0  0  0  0
  1  4  1  0  0  0  0
  2  4  1  0  0  0  0
  3  1  1  0  0  0  0
  3  2  1  0  0  0  0
  4 21  1  1  0  0  0
  5 10  1  0  0  0  0
  5 11  1  0  0  0  0
  6 16  1  0  0  0  0
  7 11  2  0  0  0  0
  7 15  1  0  0  0  0
  8 12  1  0  0  0  0
  8  1  1  0  0  0  0
  9 19  1  0  0  0  0
  9  6  1  0  0  0  0
 10 17  1  0  0  0  0
 11 14  1  0  0  0  0
 13 16  1  0  0  0  0
 14 12  2  0  0  0  0
 14 13  1  0  0  0  0
 15  8  2  0  0  0  0
 17  9  2  0  0  0  0
 18 17  1  0  0  0  0
 20 19  1  0  0  0  0
 21 22  1  0  0  0  0
 22 23  1  0  0  0  0
 23 25  1  0  0  0  0
 24 26  2  0  0  0  0
 25 27  1  0  0  0  0
 25 24  1  0  0  0  0
 27 28  1  0  0  0  0
 29 24  1  0  0  0  0
 30 31  1  0  0  0  0
 31 29  1  0  0  0  0
 31 32  1  0  0  0  0
 33 32  1  0  0  0  0
M  END
>  <MODEL>
8

>  <REMARK>
 VINA RESULT:      -6.5      2.964      7.159
  Name = 
  10 active torsions:
  status: ('A' for Active; 'I' for Inactive)
    1  A    between atoms: N_1  and  C_7
    2  A    between atoms: C_5  and  N_15
    3  A    between atoms: C_5  and  C_28
    4  A    between atoms: C_8  and  C_9
    5  A    between atoms: C_13  and  N_32
    6  A    between atoms: N_15  and  C_27
    7  A    between atoms: C_17  and  C_26
    8  A    between atoms: C_18  and  N_22
    9  A    between atoms: N_22  and  C_27
   10  A    between atoms: C_26  and  N_32
                            x       y       z     vdW  Elec       q    Type
                         _______ _______ _______ _____ _____    ______ ____

>  <TORSDO>
F 10

$$$$
=
 OpenBabel10232409333D

 33 35  0  0  1  0  0  0  0  0999 V2000
  190.4350  177.2870  140.9470 N   0  0  0  0  0  0  0  0  0  0  0  0
  191.5910  177.4940  142.8080 C   0  0  0  0  0  2  0  0  0  0  0  0
  191.8440  177.4450  141.3430 C   0  0  0  0  0  2  0  0  0  0  0  0
  190.1700  177.3460  142.3960 C   0  0  2  0  0  3  0  0  0  0  0  0
  187.4920  176.9350  136.0580 C   0  0  0  0  0  2  0  0  0  0  0  0
  185.1620  177.5420  138.2720 C   0  0  0  0  0  2  0  0  0  0  0  0
  189.4870  176.3940  137.4530 C   0  0  0  0  0  3  0  0  0  0  0  0
  189.6960  177.2010  139.7280 C   0  0  0  0  0  0  0  0  0  0  0  0
  184.4750  177.0610  137.0610 C   0  0  0  0  0  0  0  0  0  0  0  0
  186.4510  175.9300  136.2030 N   0  0  0  0  0  2  0  0  0  0  0  0
  188.2590  177.0530  137.3270 C   0  0  0  0  0  0  0  0  0  0  0  0
  188.4670  177.8550  139.6020 C   0  0  0  0  0  3  0  0  0  0  0  0
  186.3380  178.5270  138.3080 C   0  0  0  0  0  2  0  0  0  0  0  0
  187.7440  177.7850  138.4070 C   0  0  0  0  0  0  0  0  0  0  0  0
  190.2050  176.4710  138.6500 C   0  0  0  0  0  3  0  0  0  0  0  0
  185.5380  178.7830  138.3290 N   0  0  0  0  0  2  0  0  0  0  0  0
  185.0620  176.2650  136.1440 C   0  0  0  0  0  0  0  0  0  0  0  0
  184.2770  175.6750  135.1080 N   0  0  0  0  0  1  0  0  0  0  0  0
  183.0040  177.3290  136.9840 C   0  0  0  0  0  2  0  0  0  0  0  0
  182.2360  177.1030  138.6160 S   0  0  0  0  0  1  0  0  0  0  0  0
  189.6260  176.0150  142.8980 C   0  0  0  0  0  2  0  0  0  0  0  0
  188.2540  176.1760  143.3420 N   0  0  0  0  0  2  0  0  0  0  0  0
  187.9640  177.5980  143.3060 C   0  0  0  0  0  2  0  0  0  0  0  0
  186.9800  178.1600  145.5530 C   0  0  0  0  0  0  0  0  0  0  0  0
  186.8140  177.8850  144.1510 N   0  0  0  0  0  0  0  0  0  0  0  0
  185.9780  178.4350  146.2660 O   0  0  0  0  0  0  0  0  0  0  0  0
  185.5090  178.0170  143.5120 C   0  0  0  0  0  2  0  0  0  0  0  0
  185.6430  178.7150  142.1710 C   0  0  0  0  0  1  0  0  0  0  0  0
  188.3440  178.0820  146.1970 C   0  0  0  0  0  2  0  0  0  0  0  0
  188.2410  178.0330  148.5880 C   0  0  0  0  0  1  0  0  0  0  0  0
  188.4100  177.2260  147.3910 N   0  0  0  0  0  0  0  0  0  0  0  0
  189.6980  176.5500  147.4740 C   0  0  0  0  0  2  0  0  0  0  0  0
  190.5250  176.9310  146.3410 N   0  0  0  0  0  1  0  0  0  0  0  0
  1  3  1  0  0  0  0
  1  4  1  0  0  0  0
  3  2  1  0  0  0  0
  4  2  1  0  0  0  0
  4 21  1  1  0  0  0
  5 10  1  0  0  0  0
  5 11  1  0  0  0  0
  6 16  1  0  0  0  0
  7 15  1  0  0  0  0
  8  1  1  0  0  0  0
  9  6  1  0  0  0  0
 11  7  2  0  0  0  0
 11 14  1  0  0  0  0
 12  8  1  0  0  0  0
 13 16  1  0  0  0  0
 13 14  1  0  0  0  0
 14 12  2  0  0  0  0
 15  8  2  0  0  0  0
 17 10  1  0  0  0  0
 17  9  2  0  0  0  0
 18 17  1  0  0  0  0
 19  9  1  0  0  0  0
 19 20  1  0  0  0  0
 21 22  1  0  0  0  0
 23 22  1  0  0  0  0
 23 25  1  0  0  0  0
 24 29  1  0  0  0  0
 24 26  2  0  0  0  0
 25 24  1  0  0  0  0
 27 25  1  0  0  0  0
 28 27  1  0  0  0  0
 29 31  1  0  0  0  0
 31 32  1  0  0  0  0
 31 30  1  0  0  0  0
 33 32  1  0  0  0  0
M  END
>  <MODEL>
9

>  <REMARK>
 VINA RESULT:      -6.5      2.612      7.264
  Name = 
  10 active torsions:
  status: ('A' for Active; 'I' for Inactive)
    1  A    between atoms: N_1  and  C_7
    2  A    between atoms: C_5  and  N_15
    3  A    between atoms: C_5  and  C_28
    4  A    between atoms: C_8  and  C_9
    5  A    between atoms: C_13  and  N_32
    6  A    between atoms: N_15  and  C_27
    7  A    between atoms: C_17  and  C_26
    8  A    between atoms: C_18  and  N_22
    9  A    between atoms: N_22  and  C_27
   10  A    between atoms: C_26  and  N_32
                            x       y       z     vdW  Elec       q    Type
                         _______ _______ _______ _____ _____    ______ ____

>  <TORSDO>
F 10

$$$$
