=
 OpenBabel10232408273D

 45 51  0  0  1  0  0  0  0  0999 V2000
  187.0310  178.2350  139.3540 C   0  0  0  0  0  0  0  0  0  0  0  0
  185.6940  178.5930  141.0170 C   0  0  0  0  0  0  0  0  0  0  0  0
  186.8530  178.7040  141.5810 N   0  0  0  0  0  0  0  0  0  0  0  0
  187.8700  178.4800  140.5630 C   0  0  1  0  0  3  0  0  0  0  0  0
  185.7710  178.2950  139.6300 N   0  0  0  0  0  0  0  0  0  0  0  0
  181.9600  179.0280  143.0320 N   0  0  0  0  0  0  0  0  0  0  0  0
  182.0000  178.8230  141.6920 C   0  0  0  0  0  3  0  0  0  0  0  0
  183.0970  179.1210  143.7680 C   0  0  0  0  0  3  0  0  0  0  0  0
  183.2250  178.6940  141.0420 C   0  0  0  0  0  3  0  0  0  0  0  0
  184.4230  178.7830  141.7640 C   0  0  0  0  0  0  0  0  0  0  0  0
  184.3610  179.0240  143.1630 C   0  0  0  0  0  0  0  0  0  0  0  0
  185.2090  178.8880  145.4810 C   0  0  0  0  0  2  0  0  0  0  0  0
  185.5960  179.1010  144.0260 C   0  0  0  0  0  3  0  0  0  0  0  0
  185.9060  177.7840  144.7250 C   0  0  0  0  0  2  0  0  0  0  0  0
  186.5450  178.0790  136.8650 C   0  0  0  0  0  1  0  0  0  0  0  0
  187.5680  177.9330  137.9830 C   0  0  1  0  0  3  0  0  0  0  0  0
  188.8610  178.6420  137.6890 C   0  0  0  0  0  0  0  0  0  0  0  0
  190.1380  177.9820  137.6470 N   0  0  0  0  0  2  0  0  0  0  0  0
  188.8260  179.8890  137.5310 O   0  0  0  0  0  0  0  0  0  0  0  0
  189.4170  175.6190  137.4780 C   0  0  0  0  0  3  0  0  0  0  0  0
  190.4160  176.5970  137.4100 C   0  0  0  0  0  0  0  0  0  0  0  0
  191.0130  173.9150  136.8470 C   0  0  0  0  0  3  0  0  0  0  0  0
  189.7130  174.2820  137.2030 C   0  0  0  0  0  3  0  0  0  0  0  0
  191.7110  176.2240  137.0320 C   0  0  0  0  0  3  0  0  0  0  0  0
  192.0170  174.8830  136.7580 C   0  0  0  0  0  0  0  0  0  0  0  0
  193.3420  174.4830  136.3950 N   0  0  0  0  0  2  0  0  0  0  0  0
  195.3470  172.9180  139.0180 O   0  0  0  0  0  1  0  0  0  0  0  0
  194.4430  174.3880  137.3430 C   0  0  1  0  0  0  0  0  0  0  0  0
  194.4960  175.3590  138.3460 O   0  0  0  0  0  1  0  0  0  0  0  0
  194.8650  172.9740  137.7080 C   0  0  1  0  0  3  0  0  0  0  0  0
  195.7400  173.8420  136.7720 C   0  0  2  0  0  3  0  0  0  0  0  0
  197.7820  175.8510  136.5980 O   0  0  0  0  0  0  0  0  0  0  0  0
  198.4820  173.3340  137.4570 O   0  0  0  0  0  1  0  0  0  0  0  0
  197.1020  174.9640  138.9540 O   0  0  0  0  0  1  0  0  0  0  0  0
  197.2820  174.5240  137.5190 P   0  0  0  0  0  0  0  0  0  0  0  0
  188.6790  177.2350  140.8970 C   0  0  0  0  0  2  0  0  0  0  0  0
  189.7900  177.5610  141.8890 C   0  0  1  0  0  3  0  0  0  0  0  0
  189.3300  177.3400  143.2740 N   0  0  0  0  0  0  0  0  0  0  0  0
  190.0590  176.2650  143.9170 C   0  0  0  0  0  2  0  0  0  0  0  0
  190.6320  178.2450  145.0060 O   0  0  0  0  0  0  0  0  0  0  0  0
  189.6150  178.5250  144.0770 C   0  0  0  0  0  2  0  0  0  0  0  0
  190.6010  176.8600  145.1840 C   0  0  0  0  0  2  0  0  0  0  0  0
  191.8160  177.5490  140.5020 N   0  0  0  0  0  2  0  0  0  0  0  0
  192.2430  177.5800  141.9070 C   0  0  0  0  0  2  0  0  0  0  0  0
  191.0720  176.7990  141.5260 C   0  0  1  0  0  3  0  0  0  0  0  0
  1  5  2  0  0  0  0
  1  4  1  0  0  0  0
  2  3  2  0  0  0  0
  2 10  1  0  0  0  0
  4 36  1  1  0  0  0
  4  3  1  0  0  0  0
  5  2  1  0  0  0  0
  6  8  1  0  0  0  0
  7  6  2  0  0  0  0
  9  7  1  0  0  0  0
  9 10  2  0  0  0  0
 10 11  1  0  0  0  0
 11  8  2  0  0  0  0
 11 13  1  0  0  0  0
 13 14  1  0  0  0  0
 13 12  1  0  0  0  0
 14 12  1  0  0  0  0
 16 15  1  6  0  0  0
 16  1  1  0  0  0  0
 17 16  1  0  0  0  0
 18 17  1  0  0  0  0
 19 17  2  0  0  0  0
 21 20  1  0  0  0  0
 21 18  1  0  0  0  0
 22 23  1  0  0  0  0
 23 20  2  0  0  0  0
 24 21  2  0  0  0  0
 25 22  2  0  0  0  0
 25 24  1  0  0  0  0
 26 25  1  0  0  0  0
 26 28  1  0  0  0  0
 28 30  1  0  0  0  0
 28 29  1  1  0  0  0
 30 27  1  1  0  0  0
 31 28  1  0  0  0  0
 31 35  1  1  0  0  0
 31 30  1  0  0  0  0
 32 35  2  0  0  0  0
 33 35  1  0  0  0  0
 35 34  1  0  0  0  0
 37 36  1  6  0  0  0
 37 38  1  0  0  0  0
 38 39  1  0  0  0  0
 38 41  1  0  0  0  0
 39 42  1  0  0  0  0
 40 42  1  0  0  0  0
 41 40  1  0  0  0  0
 43 45  1  0  0  0  0
 43 44  1  0  0  0  0
 45 37  1  1  0  0  0
 45 44  1  0  0  0  0
M  END
>  <MODEL>
1

>  <REMARK>
 VINA RESULT:      -8.4      0.000      0.000
  Name = 
  12 active torsions:
  status: ('A' for Active; 'I' for Inactive)
    1  A    between atoms: C_6  and  C_44
    2  A    between atoms: N_7  and  C_41
    3  A    between atoms: C_9  and  C_24
    4  A    between atoms: C_14  and  N_16
    5  A    between atoms: N_16  and  C_39
    6  A    between atoms: C_18  and  N_43
    7  A    between atoms: C_19  and  C_24
    8  A    between atoms: C_22  and  C_26
    9  A    between atoms: C_31  and  C_41
   10  A    between atoms: C_32  and  C_35
   11  A    between atoms: C_35  and  C_41
   12  A    between atoms: P_36  and  C_38
                            x       y       z     vdW  Elec       q    Type
                         _______ _______ _______ _____ _____    ______ ____

>  <TORSDO>
F 12

$$$$
=
 OpenBabel10232408273D

 45 51  0  0  1  0  0  0  0  0999 V2000
  187.0670  178.2100  139.5640 C   0  0  0  0  0  0  0  0  0  0  0  0
  185.6370  178.5880  141.1420 C   0  0  0  0  0  0  0  0  0  0  0  0
  186.7610  178.7830  141.7520 N   0  0  0  0  0  0  0  0  0  0  0  0
  187.8350  178.5560  140.7950 C   0  0  1  0  0  3  0  0  0  0  0  0
  185.7940  178.2240  139.7780 N   0  0  0  0  0  0  0  0  0  0  0  0
  181.9560  179.1770  143.2160 N   0  0  0  0  0  0  0  0  0  0  0  0
  183.1330  179.1730  143.8900 C   0  0  0  0  0  3  0  0  0  0  0  0
  181.9080  178.9750  141.8740 C   0  0  0  0  0  3  0  0  0  0  0  0
  184.3290  178.9690  143.2040 C   0  0  0  0  0  3  0  0  0  0  0  0
  184.3250  178.7560  141.8190 C   0  0  0  0  0  0  0  0  0  0  0  0
  183.0780  178.7390  141.1350 C   0  0  0  0  0  0  0  0  0  0  0  0
  181.6430  179.0900  139.1530 C   0  0  0  0  0  2  0  0  0  0  0  0
  182.9780  178.5520  139.6420 C   0  0  0  0  0  3  0  0  0  0  0  0
  182.9040  179.8740  138.8890 C   0  0  0  0  0  2  0  0  0  0  0  0
  186.7260  177.9730  137.0560 C   0  0  0  0  0  1  0  0  0  0  0  0
  187.6830  177.8650  138.2370 C   0  0  1  0  0  3  0  0  0  0  0  0
  188.9910  178.5660  137.9950 C   0  0  0  0  0  0  0  0  0  0  0  0
  190.2550  177.8850  137.9120 N   0  0  0  0  0  2  0  0  0  0  0  0
  188.9820  179.8220  137.9230 O   0  0  0  0  0  0  0  0  0  0  0  0
  189.4870  175.5540  137.5810 C   0  0  0  0  0  3  0  0  0  0  0  0
  190.5060  176.5140  137.5810 C   0  0  0  0  0  0  0  0  0  0  0  0
  191.0510  173.8650  136.8390 C   0  0  0  0  0  3  0  0  0  0  0  0
  189.7580  174.2330  137.2160 C   0  0  0  0  0  3  0  0  0  0  0  0
  191.7940  176.1420  137.1820 C   0  0  0  0  0  3  0  0  0  0  0  0
  192.0750  174.8170  136.8180 C   0  0  0  0  0  0  0  0  0  0  0  0
  193.3930  174.4160  136.4310 N   0  0  0  0  0  2  0  0  0  0  0  0
  195.4770  173.0410  139.1000 O   0  0  0  0  0  1  0  0  0  0  0  0
  194.5260  174.3840  137.3450 C   0  0  1  0  0  0  0  0  0  0  0  0
  194.6220  175.4300  138.2660 O   0  0  0  0  0  1  0  0  0  0  0  0
  194.9490  172.9990  137.8060 C   0  0  1  0  0  3  0  0  0  0  0  0
  195.7980  173.7810  136.7750 C   0  0  2  0  0  3  0  0  0  0  0  0
  197.7960  175.8130  136.4290 O   0  0  0  0  0  0  0  0  0  0  0  0
  198.5830  173.3290  137.3100 O   0  0  0  0  0  1  0  0  0  0  0  0
  197.2680  174.9790  138.8430 O   0  0  0  0  0  1  0  0  0  0  0  0
  197.3700  174.5030  137.4110 P   0  0  0  0  0  0  0  0  0  0  0  0
  188.6830  177.3690  141.2310 C   0  0  0  0  0  2  0  0  0  0  0  0
  189.5860  177.7490  142.3980 C   0  0  1  0  0  3  0  0  0  0  0  0
  189.2180  176.9890  143.6080 N   0  0  0  0  0  0  0  0  0  0  0  0
  188.8070  177.8650  144.6880 C   0  0  0  0  0  2  0  0  0  0  0  0
  186.9310  176.6510  144.0220 O   0  0  0  0  0  0  0  0  0  0  0  0
  188.0500  176.1610  143.3270 C   0  0  0  0  0  2  0  0  0  0  0  0
  187.4510  177.3710  145.1010 C   0  0  0  0  0  2  0  0  0  0  0  0
  191.9050  178.3030  142.9880 N   0  0  0  0  0  2  0  0  0  0  0  0
  191.7830  176.8390  143.0020 C   0  0  0  0  0  2  0  0  0  0  0  0
  191.0620  177.6130  141.9980 C   0  0  1  0  0  3  0  0  0  0  0  0
  1  5  2  0  0  0  0
  1  4  1  0  0  0  0
  2  3  2  0  0  0  0
  2 10  1  0  0  0  0
  4 36  1  1  0  0  0
  4  3  1  0  0  0  0
  5  2  1  0  0  0  0
  6  7  1  0  0  0  0
  8  6  2  0  0  0  0
  9  7  2  0  0  0  0
 10  9  1  0  0  0  0
 11 10  2  0  0  0  0
 11  8  1  0  0  0  0
 12 13  1  0  0  0  0
 13 11  1  0  0  0  0
 14 12  1  0  0  0  0
 14 13  1  0  0  0  0
 16 15  1  6  0  0  0
 16  1  1  0  0  0  0
 17 16  1  0  0  0  0
 18 17  1  0  0  0  0
 19 17  2  0  0  0  0
 21 20  1  0  0  0  0
 21 18  1  0  0  0  0
 22 23  1  0  0  0  0
 23 20  2  0  0  0  0
 24 21  2  0  0  0  0
 25 22  2  0  0  0  0
 25 24  1  0  0  0  0
 26 25  1  0  0  0  0
 26 28  1  0  0  0  0
 28 30  1  0  0  0  0
 28 29  1  1  0  0  0
 30 27  1  1  0  0  0
 31 28  1  0  0  0  0
 31 35  1  1  0  0  0
 31 30  1  0  0  0  0
 32 35  2  0  0  0  0
 33 35  1  0  0  0  0
 35 34  1  0  0  0  0
 37 36  1  6  0  0  0
 37 38  1  0  0  0  0
 38 39  1  0  0  0  0
 39 42  1  0  0  0  0
 40 42  1  0  0  0  0
 41 38  1  0  0  0  0
 41 40  1  0  0  0  0
 43 44  1  0  0  0  0
 45 37  1  1  0  0  0
 45 43  1  0  0  0  0
 45 44  1  0  0  0  0
M  END
>  <MODEL>
2

>  <REMARK>
 VINA RESULT:      -8.3      1.073      2.118
  Name = 
  12 active torsions:
  status: ('A' for Active; 'I' for Inactive)
    1  A    between atoms: C_6  and  C_44
    2  A    between atoms: N_7  and  C_41
    3  A    between atoms: C_9  and  C_24
    4  A    between atoms: C_14  and  N_16
    5  A    between atoms: N_16  and  C_39
    6  A    between atoms: C_18  and  N_43
    7  A    between atoms: C_19  and  C_24
    8  A    between atoms: C_22  and  C_26
    9  A    between atoms: C_31  and  C_41
   10  A    between atoms: C_32  and  C_35
   11  A    between atoms: C_35  and  C_41
   12  A    between atoms: P_36  and  C_38
                            x       y       z     vdW  Elec       q    Type
                         _______ _______ _______ _____ _____    ______ ____

>  <TORSDO>
F 12

$$$$
=
 OpenBabel10232408273D

 45 51  0  0  1  0  0  0  0  0999 V2000
  188.2610  178.3300  140.2420 C   0  0  0  0  0  0  0  0  0  0  0  0
  186.2020  178.6320  140.8320 C   0  0  0  0  0  0  0  0  0  0  0  0
  186.8160  178.7110  141.9680 N   0  0  0  0  0  0  0  0  0  0  0  0
  188.2390  178.5190  141.7210 C   0  0  1  0  0  3  0  0  0  0  0  0
  187.0750  178.3890  139.7380 N   0  0  0  0  0  0  0  0  0  0  0  0
  181.9920  179.0640  140.2980 N   0  0  0  0  0  0  0  0  0  0  0  0
  182.8380  179.2110  139.2490 C   0  0  0  0  0  3  0  0  0  0  0  0
  182.4530  178.7970  141.5470 C   0  0  0  0  0  3  0  0  0  0  0  0
  184.2120  179.0790  139.4360 C   0  0  0  0  0  3  0  0  0  0  0  0
  184.7310  178.8040  140.7090 C   0  0  0  0  0  0  0  0  0  0  0  0
  183.8290  178.6780  141.8000 C   0  0  0  0  0  0  0  0  0  0  0  0
  184.4230  179.6330  144.0020 C   0  0  0  0  0  2  0  0  0  0  0  0
  184.2930  178.3490  143.1980 C   0  0  0  0  0  3  0  0  0  0  0  0
  183.2590  178.7080  144.2580 C   0  0  0  0  0  2  0  0  0  0  0  0
  190.1050  176.6950  139.6210 C   0  0  0  0  0  1  0  0  0  0  0  0
  189.4990  178.0780  139.4280 C   0  0  1  0  0  3  0  0  0  0  0  0
  189.3340  178.4470  137.9790 C   0  0  0  0  0  0  0  0  0  0  0  0
  189.9160  177.6990  136.8970 N   0  0  0  0  0  2  0  0  0  0  0  0
  188.7030  179.5010  137.7080 O   0  0  0  0  0  0  0  0  0  0  0  0
  189.4110  175.2830  137.0860 C   0  0  0  0  0  3  0  0  0  0  0  0
  190.3220  176.3260  136.8820 C   0  0  0  0  0  0  0  0  0  0  0  0
  191.1690  173.6560  136.7540 C   0  0  0  0  0  3  0  0  0  0  0  0
  189.8320  173.9520  137.0280 C   0  0  0  0  0  3  0  0  0  0  0  0
  191.6540  176.0200  136.5880 C   0  0  0  0  0  3  0  0  0  0  0  0
  192.0860  174.6860  136.5300 C   0  0  0  0  0  0  0  0  0  0  0  0
  193.4520  174.3580  136.2540 N   0  0  0  0  0  2  0  0  0  0  0  0
  195.2670  173.0370  139.1370 O   0  0  0  0  0  1  0  0  0  0  0  0
  194.4960  174.3400  137.2690 C   0  0  1  0  0  0  0  0  0  0  0  0
  194.5210  175.4100  138.1670 O   0  0  0  0  0  1  0  0  0  0  0  0
  194.8580  172.9640  137.8020 C   0  0  1  0  0  3  0  0  0  0  0  0
  195.8070  173.7090  136.8330 C   0  0  2  0  0  3  0  0  0  0  0  0
  197.8430  175.7210  136.6260 O   0  0  0  0  0  0  0  0  0  0  0  0
  198.5310  173.2490  137.6150 O   0  0  0  0  0  1  0  0  0  0  0  0
  197.1010  174.9350  138.9990 O   0  0  0  0  0  1  0  0  0  0  0  0
  197.3240  174.4330  137.5900 P   0  0  0  0  0  0  0  0  0  0  0  0
  188.7250  177.2550  142.4160 C   0  0  0  0  0  2  0  0  0  0  0  0
  189.3610  177.5870  143.7610 C   0  0  1  0  0  3  0  0  0  0  0  0
  188.6470  176.9050  144.8570 N   0  0  0  0  0  0  0  0  0  0  0  0
  189.4020  176.9390  146.0940 C   0  0  0  0  0  2  0  0  0  0  0  0
  187.4970  178.2480  146.4030 O   0  0  0  0  0  0  0  0  0  0  0  0
  187.4080  177.6180  145.1490 C   0  0  0  0  0  2  0  0  0  0  0  0
  188.4680  177.5330  147.1080 C   0  0  0  0  0  2  0  0  0  0  0  0
  191.5020  178.1400  142.6930 N   0  0  0  0  0  2  0  0  0  0  0  0
  191.6140  178.4930  144.1140 C   0  0  0  0  0  2  0  0  0  0  0  0
  190.8690  177.3010  143.7240 C   0  0  1  0  0  3  0  0  0  0  0  0
  1  4  1  0  0  0  0
  2  3  2  0  0  0  0
  4  3  1  0  0  0  0
  4 36  1  1  0  0  0
  5  1  2  0  0  0  0
  5  2  1  0  0  0  0
  6  8  1  0  0  0  0
  7  9  1  0  0  0  0
  7  6  2  0  0  0  0
  8 11  2  0  0  0  0
  9 10  2  0  0  0  0
 10  2  1  0  0  0  0
 10 11  1  0  0  0  0
 11 13  1  0  0  0  0
 12 14  1  0  0  0  0
 13 12  1  0  0  0  0
 13 14  1  0  0  0  0
 16 15  1  6  0  0  0
 16  1  1  0  0  0  0
 17 16  1  0  0  0  0
 18 17  1  0  0  0  0
 19 17  2  0  0  0  0
 21 18  1  0  0  0  0
 21 20  2  0  0  0  0
 22 23  2  0  0  0  0
 23 20  1  0  0  0  0
 24 21  1  0  0  0  0
 25 24  2  0  0  0  0
 25 22  1  0  0  0  0
 26 25  1  0  0  0  0
 26 28  1  0  0  0  0
 28 30  1  0  0  0  0
 28 29  1  1  0  0  0
 30 27  1  1  0  0  0
 31 28  1  0  0  0  0
 31 35  1  1  0  0  0
 31 30  1  0  0  0  0
 32 35  2  0  0  0  0
 35 33  1  0  0  0  0
 35 34  1  0  0  0  0
 37 36  1  6  0  0  0
 37 38  1  0  0  0  0
 38 41  1  0  0  0  0
 38 39  1  0  0  0  0
 39 42  1  0  0  0  0
 40 42  1  0  0  0  0
 41 40  1  0  0  0  0
 43 45  1  0  0  0  0
 43 44  1  0  0  0  0
 45 37  1  6  0  0  0
 45 44  1  0  0  0  0
M  END
>  <MODEL>
3

>  <REMARK>
 VINA RESULT:      -8.1      1.297      1.742
  Name = 
  12 active torsions:
  status: ('A' for Active; 'I' for Inactive)
    1  A    between atoms: C_6  and  C_44
    2  A    between atoms: N_7  and  C_41
    3  A    between atoms: C_9  and  C_24
    4  A    between atoms: C_14  and  N_16
    5  A    between atoms: N_16  and  C_39
    6  A    between atoms: C_18  and  N_43
    7  A    between atoms: C_19  and  C_24
    8  A    between atoms: C_22  and  C_26
    9  A    between atoms: C_31  and  C_41
   10  A    between atoms: C_32  and  C_35
   11  A    between atoms: C_35  and  C_41
   12  A    between atoms: P_36  and  C_38
                            x       y       z     vdW  Elec       q    Type
                         _______ _______ _______ _____ _____    ______ ____

>  <TORSDO>
F 12

$$$$
=
 OpenBabel10232408273D

 45 51  0  0  1  0  0  0  0  0999 V2000
  188.8290  177.3550  141.4760 C   0  0  0  0  0  0  0  0  0  0  0  0
  189.0000  177.2600  143.6300 C   0  0  0  0  0  0  0  0  0  0  0  0
  187.7270  177.4310  143.4740 N   0  0  0  0  0  0  0  0  0  0  0  0
  187.4600  177.5190  142.0440 C   0  0  1  0  0  3  0  0  0  0  0  0
  189.7160  177.2140  142.4030 N   0  0  0  0  0  0  0  0  0  0  0  0
  190.9540  176.8920  147.4050 N   0  0  0  0  0  0  0  0  0  0  0  0
  191.6600  176.7920  146.2510 C   0  0  0  0  0  3  0  0  0  0  0  0
  189.6100  177.0900  147.3970 C   0  0  0  0  0  3  0  0  0  0  0  0
  191.0100  176.9020  145.0240 C   0  0  0  0  0  3  0  0  0  0  0  0
  189.6240  177.1070  144.9700 C   0  0  0  0  0  0  0  0  0  0  0  0
  188.8990  177.1830  146.1900 C   0  0  0  0  0  0  0  0  0  0  0  0
  186.9860  177.7090  147.6660 C   0  0  0  0  0  2  0  0  0  0  0  0
  187.4120  177.4360  146.2320 C   0  0  0  0  0  3  0  0  0  0  0  0
  187.0700  178.8500  146.6830 C   0  0  0  0  0  2  0  0  0  0  0  0
  189.0280  178.7420  139.3550 C   0  0  0  0  0  1  0  0  0  0  0  0
  189.1570  177.3730  140.0090 C   0  0  1  0  0  3  0  0  0  0  0  0
  190.4600  176.6930  139.6900 C   0  0  0  0  0  0  0  0  0  0  0  0
  190.6360  175.7900  138.5840 N   0  0  0  0  0  2  0  0  0  0  0  0
  191.4280  176.8800  140.4700 O   0  0  0  0  0  0  0  0  0  0  0  0
  190.0320  176.6210  136.3310 C   0  0  0  0  0  3  0  0  0  0  0  0
  189.8710  175.7040  137.3760 C   0  0  0  0  0  0  0  0  0  0  0  0
  188.4020  175.4250  135.0040 C   0  0  0  0  0  3  0  0  0  0  0  0
  189.2970  176.4870  135.1500 C   0  0  0  0  0  3  0  0  0  0  0  0
  188.9880  174.6310  137.2120 C   0  0  0  0  0  3  0  0  0  0  0  0
  188.2440  174.4910  136.0310 C   0  0  0  0  0  0  0  0  0  0  0  0
  187.3180  173.4130  135.8590 N   0  0  0  0  0  2  0  0  0  0  0  0
  184.1730  172.4500  137.4500 O   0  0  0  0  0  1  0  0  0  0  0  0
  185.8970  173.5170  136.1560 C   0  0  1  0  0  0  0  0  0  0  0  0
  185.0160  173.3560  135.0830 O   0  0  0  0  0  1  0  0  0  0  0  0
  185.4730  172.9600  137.5050 C   0  0  1  0  0  3  0  0  0  0  0  0
  185.5390  174.4880  137.2670 C   0  0  2  0  0  3  0  0  0  0  0  0
  184.1970  176.9000  136.4820 O   0  0  0  0  0  1  0  0  0  0  0  0
  183.1920  175.4650  138.6030 O   0  0  0  0  0  1  0  0  0  0  0  0
  182.9720  174.6230  136.1440 O   0  0  0  0  0  0  0  0  0  0  0  0
  183.9170  175.3430  137.0790 P   0  0  0  0  0  0  0  0  0  0  0  0
  186.9120  178.8950  141.6980 C   0  0  0  0  0  2  0  0  0  0  0  0
  185.3950  178.9250  141.8390 C   0  0  1  0  0  3  0  0  0  0  0  0
  184.7510  178.3020  140.6670 N   0  0  0  0  0  0  0  0  0  0  0  0
  183.4080  178.8080  140.4590 C   0  0  0  0  0  2  0  0  0  0  0  0
  184.7130  179.5340  138.6680 O   0  0  0  0  0  0  0  0  0  0  0  0
  185.4840  178.6640  139.4590 C   0  0  0  0  0  2  0  0  0  0  0  0
  183.3880  179.2950  139.0390 C   0  0  0  0  0  2  0  0  0  0  0  0
  184.8080  179.3890  144.1780 N   0  0  0  0  0  2  0  0  0  0  0  0
  183.6350  178.7760  143.5420 C   0  0  0  0  0  2  0  0  0  0  0  0
  184.9720  178.3170  143.1840 C   0  0  1  0  0  3  0  0  0  0  0  0
  1  4  1  0  0  0  0
  1  5  2  0  0  0  0
  2 10  1  0  0  0  0
  3  2  2  0  0  0  0
  4 36  1  1  0  0  0
  4  3  1  0  0  0  0
  5  2  1  0  0  0  0
  7  6  2  0  0  0  0
  8  6  1  0  0  0  0
  9  7  1  0  0  0  0
 10  9  2  0  0  0  0
 10 11  1  0  0  0  0
 11 13  1  0  0  0  0
 11  8  2  0  0  0  0
 13 14  1  0  0  0  0
 13 12  1  0  0  0  0
 14 12  1  0  0  0  0
 16 15  1  1  0  0  0
 16  1  1  0  0  0  0
 17 16  1  0  0  0  0
 17 19  2  0  0  0  0
 18 17  1  0  0  0  0
 20 21  1  0  0  0  0
 21 18  1  0  0  0  0
 22 23  1  0  0  0  0
 22 25  2  0  0  0  0
 23 20  2  0  0  0  0
 24 21  2  0  0  0  0
 25 24  1  0  0  0  0
 26 25  1  0  0  0  0
 26 28  1  0  0  0  0
 28 29  1  6  0  0  0
 28 31  1  0  0  0  0
 28 30  1  0  0  0  0
 30 27  1  6  0  0  0
 31 35  1  6  0  0  0
 31 30  1  0  0  0  0
 32 35  1  0  0  0  0
 34 35  2  0  0  0  0
 35 33  1  0  0  0  0
 37 36  1  6  0  0  0
 38 37  1  0  0  0  0
 39 38  1  0  0  0  0
 40 42  1  0  0  0  0
 40 41  1  0  0  0  0
 41 38  1  0  0  0  0
 42 39  1  0  0  0  0
 44 43  1  0  0  0  0
 45 37  1  6  0  0  0
 45 44  1  0  0  0  0
 45 43  1  0  0  0  0
M  END
>  <MODEL>
4

>  <REMARK>
 VINA RESULT:      -7.8      3.948      7.456
  Name = 
  12 active torsions:
  status: ('A' for Active; 'I' for Inactive)
    1  A    between atoms: C_6  and  C_44
    2  A    between atoms: N_7  and  C_41
    3  A    between atoms: C_9  and  C_24
    4  A    between atoms: C_14  and  N_16
    5  A    between atoms: N_16  and  C_39
    6  A    between atoms: C_18  and  N_43
    7  A    between atoms: C_19  and  C_24
    8  A    between atoms: C_22  and  C_26
    9  A    between atoms: C_31  and  C_41
   10  A    between atoms: C_32  and  C_35
   11  A    between atoms: C_35  and  C_41
   12  A    between atoms: P_36  and  C_38
                            x       y       z     vdW  Elec       q    Type
                         _______ _______ _______ _____ _____    ______ ____

>  <TORSDO>
F 12

$$$$
=
 OpenBabel10232408273D

 45 51  0  0  1  0  0  0  0  0999 V2000
  188.0030  178.4150  139.9820 C   0  0  0  0  0  0  0  0  0  0  0  0
  185.9880  178.6950  140.7150 C   0  0  0  0  0  0  0  0  0  0  0  0
  186.6850  178.8550  141.7930 N   0  0  0  0  0  0  0  0  0  0  0  0
  188.0900  178.6880  141.4460 C   0  0  1  0  0  3  0  0  0  0  0  0
  186.7800  178.4130  139.5700 N   0  0  0  0  0  0  0  0  0  0  0  0
  181.7370  178.9820  140.4920 N   0  0  0  0  0  0  0  0  0  0  0  0
  182.4960  179.1010  139.3740 C   0  0  0  0  0  3  0  0  0  0  0  0
  182.3010  178.7900  141.7120 C   0  0  0  0  0  3  0  0  0  0  0  0
  183.8830  179.0170  139.4590 C   0  0  0  0  0  3  0  0  0  0  0  0
  184.5070  178.8190  140.6990 C   0  0  0  0  0  0  0  0  0  0  0  0
  183.6960  178.7220  141.8630 C   0  0  0  0  0  0  0  0  0  0  0  0
  184.3570  179.7910  143.9920 C   0  0  0  0  0  2  0  0  0  0  0  0
  184.2750  178.4750  143.2330 C   0  0  0  0  0  3  0  0  0  0  0  0
  183.2890  178.7880  144.3510 C   0  0  0  0  0  2  0  0  0  0  0  0
  189.7480  176.7410  139.1980 C   0  0  0  0  0  1  0  0  0  0  0  0
  189.1820  178.1510  139.0870 C   0  0  1  0  0  3  0  0  0  0  0  0
  188.9470  178.5770  137.6640 C   0  0  0  0  0  0  0  0  0  0  0  0
  188.7510  177.6530  136.5800 N   0  0  0  0  0  2  0  0  0  0  0  0
  188.9830  179.8060  137.4040 O   0  0  0  0  0  0  0  0  0  0  0  0
  189.1600  175.2140  136.4580 C   0  0  0  0  0  3  0  0  0  0  0  0
  188.2920  176.2970  136.6380 C   0  0  0  0  0  0  0  0  0  0  0  0
  187.3430  173.6670  136.8510 C   0  0  0  0  0  3  0  0  0  0  0  0
  188.6880  173.9030  136.5590 C   0  0  0  0  0  3  0  0  0  0  0  0
  186.9510  176.0520  136.9510 C   0  0  0  0  0  3  0  0  0  0  0  0
  186.4680  174.7390  137.0510 C   0  0  0  0  0  0  0  0  0  0  0  0
  185.0930  174.4720  137.3460 N   0  0  0  0  0  2  0  0  0  0  0  0
  181.6540  174.3980  136.1130 O   0  0  0  0  0  1  0  0  0  0  0  0
  183.9950  174.8280  136.4590 C   0  0  1  0  0  0  0  0  0  0  0  0
  184.1300  174.4710  135.1140 O   0  0  0  0  0  1  0  0  0  0  0  0
  182.6090  174.7410  137.0750 C   0  0  1  0  0  3  0  0  0  0  0  0
  183.2710  176.1150  136.8130 C   0  0  2  0  0  3  0  0  0  0  0  0
  181.7660  178.4110  135.9750 O   0  0  0  0  0  1  0  0  0  0  0  0
  181.5270  176.0810  134.5320 O   0  0  0  0  0  1  0  0  0  0  0  0
  183.6830  177.5450  134.4340 O   0  0  0  0  0  0  0  0  0  0  0  0
  182.6060  177.0680  135.3820 P   0  0  0  0  0  0  0  0  0  0  0  0
  188.6670  177.4790  142.1690 C   0  0  0  0  0  2  0  0  0  0  0  0
  189.4110  177.9070  143.4290 C   0  0  1  0  0  3  0  0  0  0  0  0
  188.9230  177.1530  144.6000 N   0  0  0  0  0  0  0  0  0  0  0  0
  188.6550  178.0260  145.7270 C   0  0  0  0  0  2  0  0  0  0  0  0
  186.6110  177.1640  145.0100 O   0  0  0  0  0  0  0  0  0  0  0  0
  187.6390  176.5380  144.2830 C   0  0  0  0  0  2  0  0  0  0  0  0
  187.2370  177.7340  146.1210 C   0  0  0  0  0  2  0  0  0  0  0  0
  191.5810  178.9940  143.7990 N   0  0  0  0  0  2  0  0  0  0  0  0
  191.6110  177.7010  144.4950 C   0  0  0  0  0  2  0  0  0  0  0  0
  190.9280  177.8130  143.2120 C   0  0  1  0  0  3  0  0  0  0  0  0
  1  4  1  0  0  0  0
  2  3  2  0  0  0  0
  4  3  1  0  0  0  0
  4 36  1  1  0  0  0
  5  1  2  0  0  0  0
  5  2  1  0  0  0  0
  6  8  1  0  0  0  0
  7  9  1  0  0  0  0
  7  6  2  0  0  0  0
  8 11  2  0  0  0  0
  9 10  2  0  0  0  0
 10  2  1  0  0  0  0
 10 11  1  0  0  0  0
 11 13  1  0  0  0  0
 12 14  1  0  0  0  0
 13 12  1  0  0  0  0
 13 14  1  0  0  0  0
 16 15  1  6  0  0  0
 16  1  1  0  0  0  0
 17 16  1  0  0  0  0
 18 21  1  0  0  0  0
 18 17  1  0  0  0  0
 19 17  2  0  0  0  0
 20 23  2  0  0  0  0
 20 21  1  0  0  0  0
 21 24  2  0  0  0  0
 22 25  2  0  0  0  0
 23 22  1  0  0  0  0
 24 25  1  0  0  0  0
 25 26  1  0  0  0  0
 28 29  1  6  0  0  0
 28 31  1  0  0  0  0
 28 30  1  0  0  0  0
 28 26  1  0  0  0  0
 30 27  1  6  0  0  0
 31 35  1  6  0  0  0
 31 30  1  0  0  0  0
 33 35  1  0  0  0  0
 34 35  2  0  0  0  0
 35 32  1  0  0  0  0
 37 36  1  6  0  0  0
 37 38  1  0  0  0  0
 38 39  1  0  0  0  0
 39 42  1  0  0  0  0
 40 42  1  0  0  0  0
 41 38  1  0  0  0  0
 41 40  1  0  0  0  0
 43 44  1  0  0  0  0
 45 37  1  1  0  0  0
 45 43  1  0  0  0  0
 45 44  1  0  0  0  0
M  END
>  <MODEL>
5

>  <REMARK>
 VINA RESULT:      -7.7      4.568      6.715
  Name = 
  12 active torsions:
  status: ('A' for Active; 'I' for Inactive)
    1  A    between atoms: C_6  and  C_44
    2  A    between atoms: N_7  and  C_41
    3  A    between atoms: C_9  and  C_24
    4  A    between atoms: C_14  and  N_16
    5  A    between atoms: N_16  and  C_39
    6  A    between atoms: C_18  and  N_43
    7  A    between atoms: C_19  and  C_24
    8  A    between atoms: C_22  and  C_26
    9  A    between atoms: C_31  and  C_41
   10  A    between atoms: C_32  and  C_35
   11  A    between atoms: C_35  and  C_41
   12  A    between atoms: P_36  and  C_38
                            x       y       z     vdW  Elec       q    Type
                         _______ _______ _______ _____ _____    ______ ____

>  <TORSDO>
F 12

$$$$
=
 OpenBabel10232408273D

 45 51  0  0  1  0  0  0  0  0999 V2000
  187.9380  177.7450  140.3380 C   0  0  0  0  0  0  0  0  0  0  0  0
  188.6290  177.7870  142.3870 C   0  0  0  0  0  0  0  0  0  0  0  0
  187.3490  177.8900  142.5390 N   0  0  0  0  0  0  0  0  0  0  0  0
  186.7400  177.8790  141.2150 C   0  0  1  0  0  3  0  0  0  0  0  0
  189.0290  177.7010  141.0270 N   0  0  0  0  0  0  0  0  0  0  0  0
  191.4270  177.7950  145.6080 N   0  0  0  0  0  0  0  0  0  0  0  0
  191.8320  178.0690  144.3430 C   0  0  0  0  0  3  0  0  0  0  0  0
  190.1330  177.4920  145.8870 C   0  0  0  0  0  3  0  0  0  0  0  0
  190.9130  178.0520  143.2970 C   0  0  0  0  0  3  0  0  0  0  0  0
  189.5670  177.7450  143.5400 C   0  0  0  0  0  0  0  0  0  0  0  0
  189.1670  177.4360  144.8690 C   0  0  0  0  0  0  0  0  0  0  0  0
  187.5600  177.2390  146.7370 C   0  0  0  0  0  2  0  0  0  0  0  0
  187.7360  177.1270  145.2310 C   0  0  0  0  0  3  0  0  0  0  0  0
  187.0140  178.3220  145.8410 C   0  0  0  0  0  2  0  0  0  0  0  0
  186.5400  178.0090  138.2320 C   0  0  0  0  0  1  0  0  0  0  0  0
  187.9010  177.6890  138.8360 C   0  0  1  0  0  3  0  0  0  0  0  0
  189.0220  178.4560  138.1910 C   0  0  0  0  0  0  0  0  0  0  0  0
  190.2700  177.8590  137.7980 N   0  0  0  0  0  2  0  0  0  0  0  0
  188.8790  179.6960  138.0440 O   0  0  0  0  0  0  0  0  0  0  0  0
  189.5360  175.5140  137.4930 C   0  0  0  0  0  3  0  0  0  0  0  0
  190.5440  176.4850  137.4980 C   0  0  0  0  0  0  0  0  0  0  0  0
  191.1340  173.8300  136.8160 C   0  0  0  0  0  3  0  0  0  0  0  0
  189.8280  174.1900  137.1580 C   0  0  0  0  0  3  0  0  0  0  0  0
  191.8440  176.1210  137.1330 C   0  0  0  0  0  3  0  0  0  0  0  0
  192.1470  174.7930  136.7990 C   0  0  0  0  0  0  0  0  0  0  0  0
  193.4780  174.4000  136.4480 N   0  0  0  0  0  2  0  0  0  0  0  0
  195.4220  172.9330  139.1710 O   0  0  0  0  0  1  0  0  0  0  0  0
  194.5740  174.3250  137.4030 C   0  0  1  0  0  0  0  0  0  0  0  0
  194.6630  175.3550  138.3430 O   0  0  0  0  0  1  0  0  0  0  0  0
  194.9430  172.9220  137.8580 C   0  0  1  0  0  3  0  0  0  0  0  0
  195.8500  173.6960  136.8720 C   0  0  2  0  0  3  0  0  0  0  0  0
  197.9280  175.6600  136.6150 O   0  0  0  0  0  0  0  0  0  0  0  0
  198.5920  173.1530  137.5300 O   0  0  0  0  0  1  0  0  0  0  0  0
  197.2650  174.8480  139.0030 O   0  0  0  0  0  1  0  0  0  0  0  0
  197.4160  174.3670  137.5770 P   0  0  0  0  0  0  0  0  0  0  0  0
  186.0440  179.2060  140.9480 C   0  0  0  0  0  2  0  0  0  0  0  0
  184.5410  179.0840  141.1740 C   0  0  1  0  0  3  0  0  0  0  0  0
  183.8930  178.4400  140.0150 N   0  0  0  0  0  0  0  0  0  0  0  0
  183.1220  177.2760  140.4090 C   0  0  0  0  0  2  0  0  0  0  0  0
  181.6150  178.8900  139.6600 O   0  0  0  0  0  0  0  0  0  0  0  0
  182.9210  179.3570  139.4290 C   0  0  0  0  0  2  0  0  0  0  0  0
  181.7440  177.5140  139.8630 C   0  0  0  0  0  2  0  0  0  0  0  0
  184.3500  179.3780  143.6040 N   0  0  0  0  0  2  0  0  0  0  0  0
  183.0400  178.9350  143.1090 C   0  0  0  0  0  2  0  0  0  0  0  0
  184.2560  178.3930  142.5150 C   0  0  1  0  0  3  0  0  0  0  0  0
  1  5  2  0  0  0  0
  1  4  1  0  0  0  0
  2  3  2  0  0  0  0
  2 10  1  0  0  0  0
  4 36  1  6  0  0  0
  4  3  1  0  0  0  0
  5  2  1  0  0  0  0
  6  8  1  0  0  0  0
  7  6  2  0  0  0  0
  9 10  2  0  0  0  0
  9  7  1  0  0  0  0
 10 11  1  0  0  0  0
 11 13  1  0  0  0  0
 11  8  2  0  0  0  0
 13 14  1  0  0  0  0
 13 12  1  0  0  0  0
 14 12  1  0  0  0  0
 16 15  1  6  0  0  0
 16  1  1  0  0  0  0
 17 16  1  0  0  0  0
 18 17  1  0  0  0  0
 19 17  2  0  0  0  0
 20 21  1  0  0  0  0
 21 18  1  0  0  0  0
 22 23  1  0  0  0  0
 23 20  2  0  0  0  0
 24 21  2  0  0  0  0
 25 22  2  0  0  0  0
 25 24  1  0  0  0  0
 26 25  1  0  0  0  0
 26 28  1  0  0  0  0
 28 30  1  0  0  0  0
 28 29  1  1  0  0  0
 30 27  1  1  0  0  0
 31 28  1  0  0  0  0
 31 35  1  1  0  0  0
 31 30  1  0  0  0  0
 32 35  2  0  0  0  0
 33 35  1  0  0  0  0
 35 34  1  0  0  0  0
 37 36  1  6  0  0  0
 38 39  1  0  0  0  0
 38 37  1  0  0  0  0
 40 42  1  0  0  0  0
 41 40  1  0  0  0  0
 41 38  1  0  0  0  0
 42 39  1  0  0  0  0
 44 43  1  0  0  0  0
 45 37  1  6  0  0  0
 45 44  1  0  0  0  0
 45 43  1  0  0  0  0
M  END
>  <MODEL>
6

>  <REMARK>
 VINA RESULT:      -7.6      1.690      4.886
  Name = 
  12 active torsions:
  status: ('A' for Active; 'I' for Inactive)
    1  A    between atoms: C_6  and  C_44
    2  A    between atoms: N_7  and  C_41
    3  A    between atoms: C_9  and  C_24
    4  A    between atoms: C_14  and  N_16
    5  A    between atoms: N_16  and  C_39
    6  A    between atoms: C_18  and  N_43
    7  A    between atoms: C_19  and  C_24
    8  A    between atoms: C_22  and  C_26
    9  A    between atoms: C_31  and  C_41
   10  A    between atoms: C_32  and  C_35
   11  A    between atoms: C_35  and  C_41
   12  A    between atoms: P_36  and  C_38
                            x       y       z     vdW  Elec       q    Type
                         _______ _______ _______ _____ _____    ______ ____

>  <TORSDO>
F 12

$$$$
=
 OpenBabel10232408273D

 45 51  0  0  1  0  0  0  0  0999 V2000
  188.8820  177.2780  141.6170 C   0  0  0  0  0  0  0  0  0  0  0  0
  189.1770  177.0900  143.7520 C   0  0  0  0  0  0  0  0  0  0  0  0
  187.8900  177.1850  143.6710 N   0  0  0  0  0  0  0  0  0  0  0  0
  187.5390  177.3240  142.2640 C   0  0  1  0  0  3  0  0  0  0  0  0
  189.8250  177.1500  142.4890 N   0  0  0  0  0  0  0  0  0  0  0  0
  191.3630  176.6460  147.3880 N   0  0  0  0  0  0  0  0  0  0  0  0
  191.9820  176.5000  146.1900 C   0  0  0  0  0  3  0  0  0  0  0  0
  190.0350  176.9160  147.4700 C   0  0  0  0  0  3  0  0  0  0  0  0
  191.2560  176.6350  145.0090 C   0  0  0  0  0  3  0  0  0  0  0  0
  189.8830  176.9140  145.0480 C   0  0  0  0  0  0  0  0  0  0  0  0
  189.2480  177.0380  146.3130 C   0  0  0  0  0  0  0  0  0  0  0  0
  187.4610  177.6270  147.9170 C   0  0  0  0  0  2  0  0  0  0  0  0
  187.7830  177.3710  146.4540 C   0  0  0  0  0  3  0  0  0  0  0  0
  187.5500  178.7890  146.9590 C   0  0  0  0  0  2  0  0  0  0  0  0
  188.9310  178.7880  139.5740 C   0  0  0  0  0  1  0  0  0  0  0  0
  189.1260  177.3870  140.1380 C   0  0  1  0  0  3  0  0  0  0  0  0
  190.4230  176.7580  139.7090 C   0  0  0  0  0  0  0  0  0  0  0  0
  190.5400  175.8610  138.5910 N   0  0  0  0  0  2  0  0  0  0  0  0
  191.4460  176.9870  140.4030 O   0  0  0  0  0  0  0  0  0  0  0  0
  189.6720  176.6930  136.4270 C   0  0  0  0  0  3  0  0  0  0  0  0
  189.6790  175.7410  137.4530 C   0  0  0  0  0  0  0  0  0  0  0  0
  188.0300  175.3990  135.2100 C   0  0  0  0  0  3  0  0  0  0  0  0
  188.8480  176.5270  135.3110 C   0  0  0  0  0  3  0  0  0  0  0  0
  188.8730  174.6040  137.3340 C   0  0  0  0  0  3  0  0  0  0  0  0
  188.0400  174.4310  136.2180 C   0  0  0  0  0  0  0  0  0  0  0  0
  187.1920  173.2850  136.0940 N   0  0  0  0  0  2  0  0  0  0  0  0
  183.9260  172.2260  137.3460 O   0  0  0  0  0  1  0  0  0  0  0  0
  185.7430  173.3370  136.2280 C   0  0  1  0  0  0  0  0  0  0  0  0
  184.9950  173.1210  135.0680 O   0  0  0  0  0  1  0  0  0  0  0  0
  185.1920  172.7880  137.5340 C   0  0  1  0  0  3  0  0  0  0  0  0
  185.2270  174.3130  137.2710 C   0  0  2  0  0  3  0  0  0  0  0  0
  182.8770  174.2360  135.6240 O   0  0  0  0  0  0  0  0  0  0  0  0
  183.8830  176.6850  136.3690 O   0  0  0  0  0  1  0  0  0  0  0  0
  182.6620  175.1250  138.0660 O   0  0  0  0  0  1  0  0  0  0  0  0
  183.6040  175.0980  136.8840 P   0  0  0  0  0  0  0  0  0  0  0  0
  186.8870  178.6770  142.0180 C   0  0  0  0  0  2  0  0  0  0  0  0
  185.4420  178.5080  141.5620 C   0  0  1  0  0  3  0  0  0  0  0  0
  184.5360  179.3160  142.4000 N   0  0  0  0  0  0  0  0  0  0  0  0
  183.5060  178.5010  143.0170 C   0  0  0  0  0  2  0  0  0  0  0  0
  184.8910  179.2850  144.7220 O   0  0  0  0  0  0  0  0  0  0  0  0
  185.2830  179.8890  143.5150 C   0  0  0  0  0  2  0  0  0  0  0  0
  183.6060  178.7880  144.4870 C   0  0  0  0  0  2  0  0  0  0  0  0
  184.2190  177.9900  139.4970 N   0  0  0  0  0  2  0  0  0  0  0  0
  184.0390  179.4220  139.7700 C   0  0  0  0  0  2  0  0  0  0  0  0
  185.3210  178.7890  140.0580 C   0  0  1  0  0  3  0  0  0  0  0  0
  1  4  1  0  0  0  0
  1  5  2  0  0  0  0
  2 10  1  0  0  0  0
  3  2  2  0  0  0  0
  4 36  1  1  0  0  0
  4  3  1  0  0  0  0
  5  2  1  0  0  0  0
  6  8  1  0  0  0  0
  7  6  2  0  0  0  0
  9 10  2  0  0  0  0
  9  7  1  0  0  0  0
 10 11  1  0  0  0  0
 11 13  1  0  0  0  0
 11  8  2  0  0  0  0
 13 14  1  0  0  0  0
 13 12  1  0  0  0  0
 14 12  1  0  0  0  0
 16 15  1  1  0  0  0
 16  1  1  0  0  0  0
 17 16  1  0  0  0  0
 17 19  2  0  0  0  0
 18 17  1  0  0  0  0
 20 21  1  0  0  0  0
 21 18  1  0  0  0  0
 22 23  1  0  0  0  0
 22 25  2  0  0  0  0
 23 20  2  0  0  0  0
 24 21  2  0  0  0  0
 25 24  1  0  0  0  0
 26 25  1  0  0  0  0
 26 28  1  0  0  0  0
 28 29  1  6  0  0  0
 28 31  1  0  0  0  0
 28 30  1  0  0  0  0
 30 27  1  6  0  0  0
 31 35  1  6  0  0  0
 31 30  1  0  0  0  0
 32 35  2  0  0  0  0
 33 35  1  0  0  0  0
 35 34  1  0  0  0  0
 37 36  1  1  0  0  0
 37 38  1  0  0  0  0
 38 39  1  0  0  0  0
 38 41  1  0  0  0  0
 39 42  1  0  0  0  0
 41 40  1  0  0  0  0
 42 40  1  0  0  0  0
 43 44  1  0  0  0  0
 43 45  1  0  0  0  0
 44 45  1  0  0  0  0
 45 37  1  1  0  0  0
M  END
>  <MODEL>
7

>  <REMARK>
 VINA RESULT:      -7.5      4.122      7.430
  Name = 
  12 active torsions:
  status: ('A' for Active; 'I' for Inactive)
    1  A    between atoms: C_6  and  C_44
    2  A    between atoms: N_7  and  C_41
    3  A    between atoms: C_9  and  C_24
    4  A    between atoms: C_14  and  N_16
    5  A    between atoms: N_16  and  C_39
    6  A    between atoms: C_18  and  N_43
    7  A    between atoms: C_19  and  C_24
    8  A    between atoms: C_22  and  C_26
    9  A    between atoms: C_31  and  C_41
   10  A    between atoms: C_32  and  C_35
   11  A    between atoms: C_35  and  C_41
   12  A    between atoms: P_36  and  C_38
                            x       y       z     vdW  Elec       q    Type
                         _______ _______ _______ _____ _____    ______ ____

>  <TORSDO>
F 12

$$$$
=
 OpenBabel10232408273D

 45 51  0  0  1  0  0  0  0  0999 V2000
  188.0450  178.3100  142.8350 C   0  0  0  0  0  0  0  0  0  0  0  0
  185.9370  178.4250  143.3050 C   0  0  0  0  0  0  0  0  0  0  0  0
  186.4690  178.3810  144.4840 N   0  0  0  0  0  0  0  0  0  0  0  0
  187.9140  178.2970  144.3200 C   0  0  1  0  0  3  0  0  0  0  0  0
  186.8940  178.3770  142.2560 N   0  0  0  0  0  0  0  0  0  0  0  0
  181.7170  178.8610  142.8580 N   0  0  0  0  0  0  0  0  0  0  0  0
  182.2930  178.9480  144.0830 C   0  0  0  0  0  3  0  0  0  0  0  0
  182.4550  178.6130  141.7450 C   0  0  0  0  0  3  0  0  0  0  0  0
  183.6710  178.7930  144.2190 C   0  0  0  0  0  3  0  0  0  0  0  0
  184.4700  178.5370  143.0970 C   0  0  0  0  0  0  0  0  0  0  0  0
  183.8440  178.4230  141.8260 C   0  0  0  0  0  0  0  0  0  0  0  0
  183.6750  178.1700  139.3720 C   0  0  0  0  0  2  0  0  0  0  0  0
  184.6260  178.1830  140.5580 C   0  0  0  0  0  3  0  0  0  0  0  0
  184.5670  179.3650  139.5990 C   0  0  0  0  0  2  0  0  0  0  0  0
  190.5460  178.7620  142.8650 C   0  0  0  0  0  1  0  0  0  0  0  0
  189.3480  178.2340  142.0880 C   0  0  1  0  0  3  0  0  0  0  0  0
  189.5970  176.8830  141.4760 C   0  0  0  0  0  0  0  0  0  0  0  0
  189.0670  176.4770  140.2020 N   0  0  0  0  0  2  0  0  0  0  0  0
  190.2550  176.0460  142.1450 O   0  0  0  0  0  0  0  0  0  0  0  0
  189.3970  178.4010  138.6800 C   0  0  0  0  0  3  0  0  0  0  0  0
  188.6450  177.3030  139.1100 C   0  0  0  0  0  0  0  0  0  0  0  0
  187.8040  178.8250  136.9110 C   0  0  0  0  0  3  0  0  0  0  0  0
  188.9780  179.1640  137.5880 C   0  0  0  0  0  3  0  0  0  0  0  0
  187.4820  176.9570  138.4140 C   0  0  0  0  0  3  0  0  0  0  0  0
  187.0520  177.7200  137.3180 C   0  0  0  0  0  0  0  0  0  0  0  0
  185.8500  177.3930  136.6110 N   0  0  0  0  0  2  0  0  0  0  0  0
  184.1650  174.7570  134.7240 O   0  0  0  0  0  1  0  0  0  0  0  0
  185.4290  176.0290  136.3270 C   0  0  1  0  0  0  0  0  0  0  0  0
  184.6070  175.4130  137.2750 O   0  0  0  0  0  1  0  0  0  0  0  0
  185.1650  175.7240  134.8620 C   0  0  1  0  0  3  0  0  0  0  0  0
  186.4370  175.1890  135.5630 C   0  0  2  0  0  3  0  0  0  0  0  0
  187.6920  172.6460  135.1150 O   0  0  0  0  0  0  0  0  0  0  0  0
  184.9640  172.7250  135.4610 O   0  0  0  0  0  1  0  0  0  0  0  0
  186.6140  173.1130  137.4430 O   0  0  0  0  0  1  0  0  0  0  0  0
  186.4340  173.3900  135.9680 P   0  0  0  0  0  0  0  0  0  0  0  0
  188.4270  176.9770  144.8770 C   0  0  0  0  0  2  0  0  0  0  0  0
  189.5340  177.2140  145.8990 C   0  0  1  0  0  3  0  0  0  0  0  0
  189.0470  176.9450  147.2650 N   0  0  0  0  0  0  0  0  0  0  0  0
  189.3510  178.0370  148.1690 C   0  0  0  0  0  2  0  0  0  0  0  0
  187.0340  177.9630  147.9180 O   0  0  0  0  0  0  0  0  0  0  0  0
  187.5910  176.8560  147.2540 C   0  0  0  0  0  2  0  0  0  0  0  0
  188.0340  178.4190  148.7800 C   0  0  0  0  0  2  0  0  0  0  0  0
  191.9830  177.2640  145.7230 N   0  0  0  0  0  2  0  0  0  0  0  0
  191.6310  176.2180  146.6910 C   0  0  0  0  0  2  0  0  0  0  0  0
  190.7930  176.4240  145.5150 C   0  0  1  0  0  3  0  0  0  0  0  0
  1  4  1  0  0  0  0
  2  3  2  0  0  0  0
  4  3  1  0  0  0  0
  4 36  1  6  0  0  0
  5  1  2  0  0  0  0
  5  2  1  0  0  0  0
  6  7  1  0  0  0  0
  7  9  2  0  0  0  0
  8 11  1  0  0  0  0
  8  6  2  0  0  0  0
 10  2  1  0  0  0  0
 10  9  1  0  0  0  0
 11 10  2  0  0  0  0
 12 14  1  0  0  0  0
 12 13  1  0  0  0  0
 13 11  1  0  0  0  0
 14 13  1  0  0  0  0
 16  1  1  0  0  0  0
 16 15  1  1  0  0  0
 17 16  1  0  0  0  0
 17 19  2  0  0  0  0
 18 17  1  0  0  0  0
 20 21  1  0  0  0  0
 21 18  1  0  0  0  0
 22 25  2  0  0  0  0
 22 23  1  0  0  0  0
 23 20  2  0  0  0  0
 24 21  2  0  0  0  0
 25 24  1  0  0  0  0
 26 25  1  0  0  0  0
 28 26  1  0  0  0  0
 28 29  1  1  0  0  0
 30 27  1  1  0  0  0
 30 31  1  0  0  0  0
 30 28  1  0  0  0  0
 31 35  1  1  0  0  0
 31 28  1  0  0  0  0
 32 35  2  0  0  0  0
 33 35  1  0  0  0  0
 35 34  1  0  0  0  0
 37 36  1  6  0  0  0
 37 38  1  0  0  0  0
 38 39  1  0  0  0  0
 39 42  1  0  0  0  0
 40 42  1  0  0  0  0
 41 38  1  0  0  0  0
 41 40  1  0  0  0  0
 43 44  1  0  0  0  0
 45 43  1  0  0  0  0
 45 37  1  1  0  0  0
 45 44  1  0  0  0  0
M  END
>  <MODEL>
8

>  <REMARK>
 VINA RESULT:      -7.4      4.346      6.251
  Name = 
  12 active torsions:
  status: ('A' for Active; 'I' for Inactive)
    1  A    between atoms: C_6  and  C_44
    2  A    between atoms: N_7  and  C_41
    3  A    between atoms: C_9  and  C_24
    4  A    between atoms: C_14  and  N_16
    5  A    between atoms: N_16  and  C_39
    6  A    between atoms: C_18  and  N_43
    7  A    between atoms: C_19  and  C_24
    8  A    between atoms: C_22  and  C_26
    9  A    between atoms: C_31  and  C_41
   10  A    between atoms: C_32  and  C_35
   11  A    between atoms: C_35  and  C_41
   12  A    between atoms: P_36  and  C_38
                            x       y       z     vdW  Elec       q    Type
                         _______ _______ _______ _____ _____    ______ ____

>  <TORSDO>
F 12

$$$$
=
 OpenBabel10232408273D

 45 51  0  0  1  0  0  0  0  0999 V2000
  189.5400  176.2430  137.0080 C   0  0  0  0  0  0  0  0  0  0  0  0
  191.1420  174.7930  136.9000 C   0  0  0  0  0  0  0  0  0  0  0  0
  190.9240  174.8520  138.1740 N   0  0  0  0  0  0  0  0  0  0  0  0
  189.8510  175.8110  138.4010 C   0  0  1  0  0  3  0  0  0  0  0  0
  190.2990  175.6530  136.1460 N   0  0  0  0  0  0  0  0  0  0  0  0
  193.9380  172.1230  135.0980 N   0  0  0  0  0  0  0  0  0  0  0  0
  192.6490  171.7460  135.2880 C   0  0  0  0  0  3  0  0  0  0  0  0
  194.3840  173.3440  135.4910 C   0  0  0  0  0  3  0  0  0  0  0  0
  191.7470  172.6210  135.8870 C   0  0  0  0  0  3  0  0  0  0  0  0
  192.1640  173.8920  136.3080 C   0  0  0  0  0  0  0  0  0  0  0  0
  193.5250  174.2580  136.1230 C   0  0  0  0  0  0  0  0  0  0  0  0
  195.4140  175.8320  135.8620 C   0  0  0  0  0  2  0  0  0  0  0  0
  194.0570  175.6150  136.5120 C   0  0  0  0  0  3  0  0  0  0  0  0
  194.2050  176.5510  135.3200 C   0  0  0  0  0  2  0  0  0  0  0  0
  188.9270  178.7020  136.8170 C   0  0  0  0  0  1  0  0  0  0  0  0
  188.4910  177.2540  136.6370 C   0  0  1  0  0  3  0  0  0  0  0  0
  187.8720  176.9920  135.2910 C   0  0  0  0  0  0  0  0  0  0  0  0
  187.0210  175.8660  135.0130 N   0  0  0  0  0  2  0  0  0  0  0  0
  188.1650  177.7690  134.3470 O   0  0  0  0  0  0  0  0  0  0  0  0
  186.6970  173.8630  136.4310 C   0  0  0  0  0  3  0  0  0  0  0  0
  186.2450  175.0900  135.9330 C   0  0  0  0  0  0  0  0  0  0  0  0
  184.7110  173.6620  137.7970 C   0  0  0  0  0  3  0  0  0  0  0  0
  185.9330  173.1480  137.3560 C   0  0  0  0  0  3  0  0  0  0  0  0
  185.0300  175.6080  136.3950 C   0  0  0  0  0  3  0  0  0  0  0  0
  184.2550  174.8950  137.3210 C   0  0  0  0  0  0  0  0  0  0  0  0
  182.9990  175.4010  137.7850 N   0  0  0  0  0  2  0  0  0  0  0  0
  181.4390  178.0770  139.7220 O   0  0  0  0  0  1  0  0  0  0  0  0
  182.7970  176.7740  138.2250 C   0  0  1  0  0  0  0  0  0  0  0  0
  182.3870  177.6930  137.2550 O   0  0  0  0  0  1  0  0  0  0  0  0
  182.2290  176.9290  139.6270 C   0  0  1  0  0  3  0  0  0  0  0  0
  183.7180  177.2360  139.3400 C   0  0  2  0  0  3  0  0  0  0  0  0
  185.4710  179.2180  138.2270 O   0  0  0  0  0  0  0  0  0  0  0  0
  184.6740  179.4860  140.8460 O   0  0  0  0  0  1  0  0  0  0  0  0
  183.0400  179.9150  138.8590 O   0  0  0  0  0  1  0  0  0  0  0  0
  184.1770  179.0210  139.2980 P   0  0  0  0  0  0  0  0  0  0  0  0
  190.3670  176.9920  139.2100 C   0  0  0  0  0  2  0  0  0  0  0  0
  189.7840  176.9790  140.6190 C   0  0  1  0  0  3  0  0  0  0  0  0
  190.7890  176.5100  141.5920 N   0  0  0  0  0  0  0  0  0  0  0  0
  191.5060  177.6160  142.1980 C   0  0  0  0  0  2  0  0  0  0  0  0
  190.2230  176.6160  143.8690 O   0  0  0  0  0  0  0  0  0  0  0  0
  190.1180  175.8410  142.7010 C   0  0  0  0  0  2  0  0  0  0  0  0
  191.3480  177.4220  143.6790 C   0  0  0  0  0  2  0  0  0  0  0  0
  187.9060  178.5120  140.2290 N   0  0  0  0  0  2  0  0  0  0  0  0
  187.9080  178.1700  141.6580 C   0  0  0  0  0  2  0  0  0  0  0  0
  189.1750  178.3460  140.9570 C   0  0  1  0  0  3  0  0  0  0  0  0
  1  4  1  0  0  0  0
  2  3  2  0  0  0  0
  3  4  1  0  0  0  0
  4 36  1  1  0  0  0
  5  2  1  0  0  0  0
  5  1  2  0  0  0  0
  6  7  2  0  0  0  0
  6  8  1  0  0  0  0
  7  9  1  0  0  0  0
  8 11  2  0  0  0  0
  9 10  2  0  0  0  0
 10  2  1  0  0  0  0
 11 10  1  0  0  0  0
 11 13  1  0  0  0  0
 12 13  1  0  0  0  0
 14 12  1  0  0  0  0
 14 13  1  0  0  0  0
 16 15  1  6  0  0  0
 16  1  1  0  0  0  0
 17 16  1  0  0  0  0
 18 17  1  0  0  0  0
 18 21  1  0  0  0  0
 19 17  2  0  0  0  0
 20 23  1  0  0  0  0
 21 24  1  0  0  0  0
 21 20  2  0  0  0  0
 23 22  2  0  0  0  0
 24 25  2  0  0  0  0
 25 26  1  0  0  0  0
 25 22  1  0  0  0  0
 26 28  1  0  0  0  0
 28 29  1  6  0  0  0
 28 31  1  0  0  0  0
 28 30  1  0  0  0  0
 30 27  1  6  0  0  0
 31 35  1  6  0  0  0
 31 30  1  0  0  0  0
 32 35  2  0  0  0  0
 34 35  1  0  0  0  0
 35 33  1  0  0  0  0
 37 36  1  6  0  0  0
 37 38  1  0  0  0  0
 38 39  1  0  0  0  0
 38 41  1  0  0  0  0
 39 42  1  0  0  0  0
 41 40  1  0  0  0  0
 42 40  1  0  0  0  0
 43 45  1  0  0  0  0
 43 44  1  0  0  0  0
 45 37  1  6  0  0  0
 45 44  1  0  0  0  0
M  END
>  <MODEL>
9

>  <REMARK>
 VINA RESULT:      -7.3      4.366      9.302
  Name = 
  12 active torsions:
  status: ('A' for Active; 'I' for Inactive)
    1  A    between atoms: C_6  and  C_44
    2  A    between atoms: N_7  and  C_41
    3  A    between atoms: C_9  and  C_24
    4  A    between atoms: C_14  and  N_16
    5  A    between atoms: N_16  and  C_39
    6  A    between atoms: C_18  and  N_43
    7  A    between atoms: C_19  and  C_24
    8  A    between atoms: C_22  and  C_26
    9  A    between atoms: C_31  and  C_41
   10  A    between atoms: C_32  and  C_35
   11  A    between atoms: C_35  and  C_41
   12  A    between atoms: P_36  and  C_38
                            x       y       z     vdW  Elec       q    Type
                         _______ _______ _______ _____ _____    ______ ____

>  <TORSDO>
F 12

$$$$
