=
 OpenBabel10232409373D

 33 38  0  0  1  0  0  0  0  0999 V2000
  188.2860  178.2100  140.3080 C   0  0  2  0  0  3  0  0  0  0  0  0
  190.5190  176.3230  140.5360 N   0  0  0  0  0  0  0  0  0  0  0  0
  188.7050  177.6030  141.6090 C   0  0  0  0  0  0  0  0  0  0  0  0
  190.9490  176.8850  136.9480 N   0  0  1  0  0  0  0  0  0  0  0  0
  186.7700  178.2850  140.2680 C   0  0  0  0  0  1  0  0  0  0  0  0
  191.1060  176.2360  143.7860 C   0  0  0  0  0  3  0  0  0  0  0  0
  189.7320  176.6770  141.6670 C   0  0  0  0  0  0  0  0  0  0  0  0
  189.8150  177.8040  136.6540 C   0  0  2  0  0  3  0  0  0  0  0  0
  190.0450  176.6130  142.9950 C   0  0  0  0  0  0  0  0  0  0  0  0
  189.6450  177.6670  144.8600 N   0  0  0  0  0  2  0  0  0  0  0  0
  190.1560  176.7070  139.3450 C   0  0  0  0  0  0  0  0  0  0  0  0
  190.9370  176.2900  138.2300 N   0  0  0  0  0  2  0  0  0  0  0  0
  189.2310  177.4040  143.6420 N   0  0  0  0  0  0  0  0  0  0  0  0
  188.9110  178.2500  137.8340 C   0  0  2  0  0  3  0  0  0  0  0  0
  189.7850  176.4220  136.1290 C   0  0  2  0  0  3  0  0  0  0  0  0
  188.4300  178.0970  142.8490 N   0  0  0  0  0  0  0  0  0  0  0  0
  190.7670  176.9060  144.9820 C   0  0  0  0  0  0  0  0  0  0  0  0
  191.5960  176.8780  146.2150 C   0  0  0  0  0  1  0  0  0  0  0  0
  188.8280  177.3900  139.0970 C   0  0  2  0  0  3  0  0  0  0  0  0
  186.4870  177.7770  137.4060 O   0  0  0  0  0  1  0  0  0  0  0  0
  187.5660  178.6480  137.3160 C   0  0  0  0  0  0  0  0  0  0  0  0
  187.4140  179.7740  136.7720 O   0  0  0  0  0  0  0  0  0  0  0  0
  188.8030  175.4690  136.8240 C   0  0  0  0  0  2  0  0  0  0  0  0
  187.1170  173.2280  134.4780 O   0  0  0  0  0  0  0  0  0  0  0  0
  188.5490  174.2970  135.9880 N   0  0  0  0  0  0  0  0  0  0  0  0
  186.5430  175.4040  135.0290 N   0  0  0  0  0  1  0  0  0  0  0  0
  187.3910  174.2640  135.1400 C   0  0  0  0  0  0  0  0  0  0  0  0
  190.4920  173.3200  137.0420 N   0  0  0  0  0  2  0  0  0  0  0  0
  192.5370  171.9170  135.9990 O   0  0  0  0  0  0  0  0  0  0  0  0
  192.4860  174.4080  135.6000 O   0  0  0  0  0  0  0  0  0  0  0  0
  190.2840  172.9520  134.8110 C   0  0  0  0  0  2  0  0  0  0  0  0
  189.4130  173.1130  136.0640 C   0  0  2  0  0  3  0  0  0  0  0  0
  191.6970  173.1500  135.8260 S   0  0  0  0  0  0  0  0  0  0  0  0
  1  5  1  1  0  0  0
  1  3  1  0  0  0  0
  2  7  1  0  0  0  0
  3  7  1  0  0  0  0
  3 16  2  0  0  0  0
  4 12  1  1  0  0  0
  6 17  2  0  0  0  0
  7  9  2  0  0  0  0
  8  4  1  0  0  0  0
  8 14  1  0  0  0  0
  9 13  1  0  0  0  0
  9  6  1  0  0  0  0
 10 17  1  0  0  0  0
 11  2  2  0  0  0  0
 12 11  1  0  0  0  0
 13 10  1  0  0  0  0
 14 19  1  0  0  0  0
 15  8  1  0  0  0  0
 15 23  1  0  0  0  0
 15  4  1  0  0  0  0
 16 13  1  0  0  0  0
 17 18  1  0  0  0  0
 19 11  1  0  0  0  0
 19  1  1  0  0  0  0
 21 20  1  0  0  0  0
 21 14  1  0  0  0  0
 22 21  2  0  0  0  0
 24 27  2  0  0  0  0
 25 32  1  0  0  0  0
 25 23  1  0  0  0  0
 26 27  1  0  0  0  0
 27 25  1  0  0  0  0
 30 33  2  0  0  0  0
 31 33  1  0  0  0  0
 31 32  1  0  0  0  0
 32 28  1  0  0  0  0
 33 29  2  0  0  0  0
 33 28  1  0  0  0  0
M  END
>  <MODEL>
1

>  <REMARK>
 VINA RESULT:      -7.1      0.000      0.000
  Name = 
  4 active torsions:
  status: ('A' for Active; 'I' for Inactive)
    1  A    between atoms: C_1  and  N_7
    2  A    between atoms: C_1  and  C_25
    3  A    between atoms: N_7  and  C_24
    4  A    between atoms: C_23  and  C_27
                            x       y       z     vdW  Elec       q    Type
                         _______ _______ _______ _____ _____    ______ ____

>  <TORSDO>
F 4

$$$$
=
 OpenBabel10232409373D

 33 38  0  0  1  0  0  0  0  0999 V2000
  188.3140  178.2370  140.2960 C   0  0  2  0  0  3  0  0  0  0  0  0
  190.4670  176.2590  140.5230 N   0  0  0  0  0  0  0  0  0  0  0  0
  188.7270  177.6350  141.6010 C   0  0  0  0  0  0  0  0  0  0  0  0
  190.8620  176.7430  136.9190 N   0  0  1  0  0  0  0  0  0  0  0  0
  186.8020  178.3770  140.2790 C   0  0  0  0  0  1  0  0  0  0  0  0
  191.1020  176.2000  143.7640 C   0  0  0  0  0  3  0  0  0  0  0  0
  189.7140  176.6650  141.6590 C   0  0  0  0  0  0  0  0  0  0  0  0
  189.7650  177.7050  136.6260 C   0  0  2  0  0  3  0  0  0  0  0  0
  190.0450  176.6100  142.9830 C   0  0  0  0  0  0  0  0  0  0  0  0
  189.7210  177.7100  144.8360 N   0  0  0  0  0  2  0  0  0  0  0  0
  190.1020  176.6380  139.3300 C   0  0  0  0  0  0  0  0  0  0  0  0
  190.8460  176.1700  138.2110 N   0  0  0  0  0  2  0  0  0  0  0  0
  189.2760  177.4460  143.6290 N   0  0  0  0  0  0  0  0  0  0  0  0
  188.9000  178.2100  137.8130 C   0  0  2  0  0  3  0  0  0  0  0  0
  189.6670  176.3180  136.1260 C   0  0  2  0  0  3  0  0  0  0  0  0
  188.4940  178.1600  142.8370 N   0  0  0  0  0  0  0  0  0  0  0  0
  190.8110  176.9040  144.9530 C   0  0  0  0  0  0  0  0  0  0  0  0
  191.6580  176.8600  146.1740 C   0  0  0  0  0  1  0  0  0  0  0  0
  188.8000  177.3740  139.0920 C   0  0  2  0  0  3  0  0  0  0  0  0
  186.4580  177.8210  137.4000 O   0  0  0  0  0  1  0  0  0  0  0  0
  187.5650  178.6570  137.3090 C   0  0  0  0  0  0  0  0  0  0  0  0
  187.4470  179.7920  136.7760 O   0  0  0  0  0  0  0  0  0  0  0  0
  188.6550  175.4190  136.8520 C   0  0  0  0  0  2  0  0  0  0  0  0
  189.2740  172.1090  135.4280 O   0  0  0  0  0  0  0  0  0  0  0  0
  188.4320  174.1870  136.0980 N   0  0  0  0  0  0  0  0  0  0  0  0
  190.5550  173.2510  136.9850 N   0  0  0  0  0  1  0  0  0  0  0  0
  189.4140  173.1410  136.1370 C   0  0  0  0  0  0  0  0  0  0  0  0
  186.4660  175.2720  135.2070 N   0  0  0  0  0  2  0  0  0  0  0  0
  183.9460  174.3750  134.9140 O   0  0  0  0  0  0  0  0  0  0  0  0
  184.7250  174.9740  137.2370 O   0  0  0  0  0  0  0  0  0  0  0  0
  186.2010  173.1100  135.8470 C   0  0  0  0  0  2  0  0  0  0  0  0
  187.2590  174.0330  135.2300 C   0  0  2  0  0  3  0  0  0  0  0  0
  185.0980  174.4690  135.8730 S   0  0  0  0  0  0  0  0  0  0  0  0
  1  5  1  1  0  0  0
  1  3  1  0  0  0  0
  2  7  1  0  0  0  0
  3  7  1  0  0  0  0
  3 16  2  0  0  0  0
  4 12  1  1  0  0  0
  6 17  2  0  0  0  0
  7  9  2  0  0  0  0
  8  4  1  0  0  0  0
  8 14  1  0  0  0  0
  9 13  1  0  0  0  0
  9  6  1  0  0  0  0
 10 17  1  0  0  0  0
 11  2  2  0  0  0  0
 12 11  1  0  0  0  0
 13 10  1  0  0  0  0
 14 19  1  0  0  0  0
 15  8  1  0  0  0  0
 15 23  1  0  0  0  0
 15  4  1  0  0  0  0
 16 13  1  0  0  0  0
 17 18  1  0  0  0  0
 19 11  1  0  0  0  0
 19  1  1  0  0  0  0
 21 20  1  0  0  0  0
 21 14  1  0  0  0  0
 22 21  2  0  0  0  0
 24 27  2  0  0  0  0
 25 27  1  0  0  0  0
 25 23  1  0  0  0  0
 27 26  1  0  0  0  0
 28 32  1  0  0  0  0
 28 33  1  0  0  0  0
 29 33  2  0  0  0  0
 31 33  1  0  0  0  0
 32 31  1  0  0  0  0
 32 25  1  0  0  0  0
 33 30  2  0  0  0  0
M  END
>  <MODEL>
2

>  <REMARK>
 VINA RESULT:      -7.0      1.573      2.886
  Name = 
  4 active torsions:
  status: ('A' for Active; 'I' for Inactive)
    1  A    between atoms: C_1  and  N_7
    2  A    between atoms: C_1  and  C_25
    3  A    between atoms: N_7  and  C_24
    4  A    between atoms: C_23  and  C_27
                            x       y       z     vdW  Elec       q    Type
                         _______ _______ _______ _____ _____    ______ ____

>  <TORSDO>
F 4

$$$$
=
 OpenBabel10232409373D

 33 38  0  0  1  0  0  0  0  0999 V2000
  182.7350  179.2100  143.0870 C   0  0  2  0  0  3  0  0  0  0  0  0
  185.4230  178.1750  142.5390 N   0  0  0  0  0  0  0  0  0  0  0  0
  183.6360  178.6870  144.1590 C   0  0  0  0  0  0  0  0  0  0  0  0
  184.7320  179.1080  139.0710 N   0  0  1  0  0  0  0  0  0  0  0  0
  181.3120  178.7720  143.3870 C   0  0  0  0  0  1  0  0  0  0  0  0
  186.8130  178.0560  145.5330 C   0  0  0  0  0  3  0  0  0  0  0  0
  184.8790  178.1600  143.8530 C   0  0  0  0  0  0  0  0  0  0  0  0
  183.3350  179.6090  139.1710 C   0  0  2  0  0  3  0  0  0  0  0  0
  185.5230  178.1090  145.0570 C   0  0  0  0  0  0  0  0  0  0  0  0
  185.3030  178.8280  147.1020 N   0  0  0  0  0  2  0  0  0  0  0  0
  184.6700  178.4990  141.5260 C   0  0  0  0  0  0  0  0  0  0  0  0
  185.2310  178.4520  140.2190 N   0  0  0  0  0  2  0  0  0  0  0  0
  184.6960  178.5300  145.9770 N   0  0  0  0  0  0  0  0  0  0  0  0
  182.6670  179.6380  140.5720 C   0  0  2  0  0  3  0  0  0  0  0  0
  183.6020  178.3410  138.4610 C   0  0  2  0  0  3  0  0  0  0  0  0
  183.5470  178.9680  145.4900 N   0  0  0  0  0  0  0  0  0  0  0  0
  186.5980  178.4840  146.8620 C   0  0  0  0  0  0  0  0  0  0  0  0
  187.6790  178.6480  147.8680 C   0  0  0  0  0  1  0  0  0  0  0  0
  183.1780  178.7100  141.6780 C   0  0  2  0  0  3  0  0  0  0  0  0
  180.4150  180.7370  140.6290 O   0  0  0  0  0  1  0  0  0  0  0  0
  181.1800  179.5950  140.4230 C   0  0  0  0  0  0  0  0  0  0  0  0
  180.6130  178.5090  140.1310 O   0  0  0  0  0  0  0  0  0  0  0  0
  183.1730  177.0640  139.1980 C   0  0  0  0  0  2  0  0  0  0  0  0
  181.3150  174.2800  137.7270 O   0  0  0  0  0  0  0  0  0  0  0  0
  182.7810  176.0290  138.2440 N   0  0  0  0  0  0  0  0  0  0  0  0
  180.7820  175.5030  139.6210 N   0  0  0  0  0  1  0  0  0  0  0  0
  181.6170  175.2290  138.4980 C   0  0  0  0  0  0  0  0  0  0  0  0
  183.4880  174.3130  136.6960 N   0  0  0  0  0  2  0  0  0  0  0  0
  185.9230  173.7370  135.7050 O   0  0  0  0  0  0  0  0  0  0  0  0
  185.4390  173.1010  138.0980 O   0  0  0  0  0  0  0  0  0  0  0  0
  185.1060  175.7440  137.3970 C   0  0  0  0  0  2  0  0  0  0  0  0
  183.6080  175.7320  137.0680 C   0  0  2  0  0  3  0  0  0  0  0  0
  185.1670  174.0490  136.9650 S   0  0  0  0  0  0  0  0  0  0  0  0
  1  5  1  1  0  0  0
  1  3  1  0  0  0  0
  2  7  1  0  0  0  0
  3 16  2  0  0  0  0
  4  8  1  0  0  0  0
  4 12  1  1  0  0  0
  6 17  2  0  0  0  0
  7  3  1  0  0  0  0
  7  9  2  0  0  0  0
  8 14  1  0  0  0  0
  9  6  1  0  0  0  0
  9 13  1  0  0  0  0
 11 19  1  0  0  0  0
 11  2  2  0  0  0  0
 12 11  1  0  0  0  0
 13 10  1  0  0  0  0
 14 19  1  0  0  0  0
 15  4  1  0  0  0  0
 15  8  1  0  0  0  0
 15 23  1  0  0  0  0
 16 13  1  0  0  0  0
 17 10  1  0  0  0  0
 17 18  1  0  0  0  0
 19  1  1  0  0  0  0
 21 14  1  0  0  0  0
 21 20  1  0  0  0  0
 22 21  2  0  0  0  0
 24 27  2  0  0  0  0
 25 27  1  0  0  0  0
 25 23  1  0  0  0  0
 27 26  1  0  0  0  0
 28 33  1  0  0  0  0
 28 32  1  0  0  0  0
 29 33  2  0  0  0  0
 32 31  1  0  0  0  0
 32 25  1  0  0  0  0
 33 31  1  0  0  0  0
 33 30  2  0  0  0  0
M  END
>  <MODEL>
3

>  <REMARK>
 VINA RESULT:      -6.9      5.023      6.390
  Name = 
  4 active torsions:
  status: ('A' for Active; 'I' for Inactive)
    1  A    between atoms: C_1  and  N_7
    2  A    between atoms: C_1  and  C_25
    3  A    between atoms: N_7  and  C_24
    4  A    between atoms: C_23  and  C_27
                            x       y       z     vdW  Elec       q    Type
                         _______ _______ _______ _____ _____    ______ ____

>  <TORSDO>
F 4

$$$$
=
 OpenBabel10232409373D

 33 38  0  0  1  0  0  0  0  0999 V2000
  187.9000  177.9040  142.5480 C   0  0  2  0  0  3  0  0  0  0  0  0
  190.5940  176.7910  142.2290 N   0  0  0  0  0  0  0  0  0  0  0  0
  188.6310  177.2200  143.6590 C   0  0  0  0  0  0  0  0  0  0  0  0
  190.4030  178.1300  138.8310 N   0  0  1  0  0  0  0  0  0  0  0  0
  186.4340  177.5130  142.6130 C   0  0  0  0  0  1  0  0  0  0  0  0
  191.5720  176.2730  145.3410 C   0  0  0  0  0  3  0  0  0  0  0  0
  189.8820  176.6620  143.4540 C   0  0  0  0  0  0  0  0  0  0  0  0
  189.0260  178.6920  138.8100 C   0  0  2  0  0  3  0  0  0  0  0  0
  190.3590  176.4470  144.7150 C   0  0  0  0  0  0  0  0  0  0  0  0
  189.9010  176.9510  146.7850 N   0  0  0  0  0  2  0  0  0  0  0  0
  189.9940  177.2630  141.1730 C   0  0  0  0  0  0  0  0  0  0  0  0
  190.7210  177.3280  139.9500 N   0  0  0  0  0  2  0  0  0  0  0  0
  189.4350  176.8100  145.5650 N   0  0  0  0  0  0  0  0  0  0  0  0
  188.1810  178.6050  140.1100 C   0  0  2  0  0  3  0  0  0  0  0  0
  189.3340  177.4950  138.0000 C   0  0  2  0  0  3  0  0  0  0  0  0
  188.3780  177.3600  144.9900 N   0  0  0  0  0  0  0  0  0  0  0  0
  191.2010  176.5660  146.6720 C   0  0  0  0  0  0  0  0  0  0  0  0
  192.1460  176.5610  147.8200 C   0  0  0  0  0  1  0  0  0  0  0  0
  188.5050  177.5370  141.1580 C   0  0  2  0  0  3  0  0  0  0  0  0
  185.8460  179.4110  140.5400 O   0  0  0  0  0  1  0  0  0  0  0  0
  186.7260  178.6580  139.7700 C   0  0  0  0  0  0  0  0  0  0  0  0
  186.2880  177.9980  138.7910 O   0  0  0  0  0  0  0  0  0  0  0  0
  188.7610  176.1710  138.5250 C   0  0  0  0  0  2  0  0  0  0  0  0
  187.3580  174.1130  135.8490 O   0  0  0  0  0  0  0  0  0  0  0  0
  188.6870  175.1830  137.4510 N   0  0  0  0  0  0  0  0  0  0  0  0
  186.3510  175.8760  136.9660 N   0  0  0  0  0  1  0  0  0  0  0  0
  187.4620  175.0160  136.7210 C   0  0  0  0  0  0  0  0  0  0  0  0
  190.9420  174.5750  138.0660 N   0  0  0  0  0  2  0  0  0  0  0  0
  193.0970  174.0470  136.5420 O   0  0  0  0  0  0  0  0  0  0  0  0
  192.3730  176.4520  136.7740 O   0  0  0  0  0  0  0  0  0  0  0  0
  190.5090  174.6530  135.8380 C   0  0  0  0  0  2  0  0  0  0  0  0
  189.8170  174.2940  137.1600 C   0  0  2  0  0  3  0  0  0  0  0  0
  191.9610  175.0080  136.7490 S   0  0  0  0  0  0  0  0  0  0  0  0
  1  5  1  6  0  0  0
  1  3  1  0  0  0  0
  2  7  1  0  0  0  0
  3 16  2  0  0  0  0
  4 12  1  1  0  0  0
  6 17  2  0  0  0  0
  7  3  1  0  0  0  0
  7  9  2  0  0  0  0
  8  4  1  0  0  0  0
  8 14  1  0  0  0  0
  9  6  1  0  0  0  0
  9 13  1  0  0  0  0
 11  2  2  0  0  0  0
 12 11  1  0  0  0  0
 13 10  1  0  0  0  0
 14 19  1  0  0  0  0
 15 23  1  0  0  0  0
 15  8  1  0  0  0  0
 15  4  1  0  0  0  0
 16 13  1  0  0  0  0
 17 10  1  0  0  0  0
 17 18  1  0  0  0  0
 19 11  1  0  0  0  0
 19  1  1  0  0  0  0
 21 14  1  0  0  0  0
 21 20  1  0  0  0  0
 22 21  2  0  0  0  0
 24 27  2  0  0  0  0
 25 23  1  0  0  0  0
 27 26  1  0  0  0  0
 27 25  1  0  0  0  0
 29 33  2  0  0  0  0
 31 33  1  0  0  0  0
 31 32  1  0  0  0  0
 32 25  1  0  0  0  0
 32 28  1  0  0  0  0
 33 30  2  0  0  0  0
 33 28  1  0  0  0  0
M  END
>  <MODEL>
4

>  <REMARK>
 VINA RESULT:      -6.7      1.595      2.137
  Name = 
  4 active torsions:
  status: ('A' for Active; 'I' for Inactive)
    1  A    between atoms: C_1  and  N_7
    2  A    between atoms: C_1  and  C_25
    3  A    between atoms: N_7  and  C_24
    4  A    between atoms: C_23  and  C_27
                            x       y       z     vdW  Elec       q    Type
                         _______ _______ _______ _____ _____    ______ ____

>  <TORSDO>
F 4

$$$$
=
 OpenBabel10232409373D

 33 38  0  0  1  0  0  0  0  0999 V2000
  187.9530  177.9950  142.5050 C   0  0  2  0  0  3  0  0  0  0  0  0
  190.5940  176.7730  142.1430 N   0  0  0  0  0  0  0  0  0  0  0  0
  188.6750  177.2850  143.6050 C   0  0  0  0  0  0  0  0  0  0  0  0
  190.3990  178.1090  138.7450 N   0  0  1  0  0  0  0  0  0  0  0  0
  186.4740  177.6630  142.5970 C   0  0  0  0  0  1  0  0  0  0  0  0
  191.6040  176.2250  145.2400 C   0  0  0  0  0  3  0  0  0  0  0  0
  189.8980  176.6770  143.3810 C   0  0  0  0  0  0  0  0  0  0  0  0
  189.0440  178.7260  138.7460 C   0  0  2  0  0  3  0  0  0  0  0  0
  190.3880  176.4460  144.6350 C   0  0  0  0  0  0  0  0  0  0  0  0
  189.9870  176.9740  146.7100 N   0  0  0  0  0  2  0  0  0  0  0  0
  189.9950  177.2660  141.0960 C   0  0  0  0  0  0  0  0  0  0  0  0
  190.7030  177.2980  139.8610 N   0  0  0  0  0  2  0  0  0  0  0  0
  189.4950  176.8480  145.4990 N   0  0  0  0  0  0  0  0  0  0  0  0
  188.2200  178.6770  140.0600 C   0  0  2  0  0  3  0  0  0  0  0  0
  189.2900  177.5160  137.9340 C   0  0  2  0  0  3  0  0  0  0  0  0
  188.4510  177.4390  144.9410 N   0  0  0  0  0  0  0  0  0  0  0  0
  191.2680  176.5360  146.5760 C   0  0  0  0  0  0  0  0  0  0  0  0
  192.2320  176.4960  147.7070 C   0  0  0  0  0  1  0  0  0  0  0  0
  188.5180  177.6000  141.1060 C   0  0  2  0  0  3  0  0  0  0  0  0
  185.8920  179.4110  140.6330 O   0  0  0  0  0  1  0  0  0  0  0  0
  186.7620  178.7880  139.7450 C   0  0  0  0  0  0  0  0  0  0  0  0
  186.3150  178.2940  138.6770 O   0  0  0  0  0  0  0  0  0  0  0  0
  188.6740  176.2170  138.4740 C   0  0  0  0  0  2  0  0  0  0  0  0
  190.0350  173.5870  136.3310 O   0  0  0  0  0  0  0  0  0  0  0  0
  188.7280  175.1650  137.4620 N   0  0  0  0  0  0  0  0  0  0  0  0
  191.0770  174.6650  138.0970 N   0  0  0  0  0  1  0  0  0  0  0  0
  189.9500  174.4390  137.2550 C   0  0  0  0  0  0  0  0  0  0  0  0
  187.7910  175.4820  135.2580 N   0  0  0  0  0  2  0  0  0  0  0  0
  185.3020  176.1530  134.4880 O   0  0  0  0  0  0  0  0  0  0  0  0
  186.7650  177.9610  135.4650 O   0  0  0  0  0  0  0  0  0  0  0  0
  186.3440  175.7080  136.9920 C   0  0  0  0  0  2  0  0  0  0  0  0
  187.5800  174.8930  136.5900 C   0  0  2  0  0  3  0  0  0  0  0  0
  186.4160  176.5000  135.4330 S   0  0  0  0  0  0  0  0  0  0  0  0
  1  5  1  6  0  0  0
  1  3  1  0  0  0  0
  2  7  1  0  0  0  0
  3 16  2  0  0  0  0
  4  8  1  0  0  0  0
  4 12  1  1  0  0  0
  6 17  2  0  0  0  0
  7  3  1  0  0  0  0
  7  9  2  0  0  0  0
  8 14  1  0  0  0  0
  9  6  1  0  0  0  0
  9 13  1  0  0  0  0
 11 19  1  0  0  0  0
 11  2  2  0  0  0  0
 12 11  1  0  0  0  0
 13 10  1  0  0  0  0
 14 19  1  0  0  0  0
 15 23  1  0  0  0  0
 15  4  1  0  0  0  0
 15  8  1  0  0  0  0
 16 13  1  0  0  0  0
 17 10  1  0  0  0  0
 17 18  1  0  0  0  0
 19  1  1  0  0  0  0
 21 14  1  0  0  0  0
 21 20  1  0  0  0  0
 22 21  2  0  0  0  0
 24 27  2  0  0  0  0
 25 23  1  0  0  0  0
 27 25  1  0  0  0  0
 27 26  1  0  0  0  0
 28 33  1  0  0  0  0
 28 32  1  0  0  0  0
 29 33  2  0  0  0  0
 32 31  1  0  0  0  0
 32 25  1  0  0  0  0
 33 30  2  0  0  0  0
 33 31  1  0  0  0  0
M  END
>  <MODEL>
5

>  <REMARK>
 VINA RESULT:      -6.7      2.032      3.352
  Name = 
  4 active torsions:
  status: ('A' for Active; 'I' for Inactive)
    1  A    between atoms: C_1  and  N_7
    2  A    between atoms: C_1  and  C_25
    3  A    between atoms: N_7  and  C_24
    4  A    between atoms: C_23  and  C_27
                            x       y       z     vdW  Elec       q    Type
                         _______ _______ _______ _____ _____    ______ ____

>  <TORSDO>
F 4

$$$$
=
 OpenBabel10232409373D

 33 38  0  0  1  0  0  0  0  0999 V2000
  187.1270  178.4430  140.6750 C   0  0  2  0  0  3  0  0  0  0  0  0
  189.3540  176.8500  141.7250 N   0  0  0  0  0  0  0  0  0  0  0  0
  187.1630  177.9260  142.0770 C   0  0  0  0  0  0  0  0  0  0  0  0
  190.8620  177.3690  138.4340 N   0  0  1  0  0  0  0  0  0  0  0  0
  185.7070  178.3300  140.1480 C   0  0  0  0  0  1  0  0  0  0  0  0
  188.8600  176.9190  144.9900 C   0  0  0  0  0  3  0  0  0  0  0  0
  188.2090  177.1340  142.5200 C   0  0  0  0  0  0  0  0  0  0  0  0
  189.7940  178.1340  137.7340 C   0  0  2  0  0  3  0  0  0  0  0  0
  188.0790  177.1430  143.8790 C   0  0  0  0  0  0  0  0  0  0  0  0
  186.9840  178.1870  145.4480 N   0  0  0  0  0  2  0  0  0  0  0  0
  189.3590  177.1560  140.4580 C   0  0  0  0  0  0  0  0  0  0  0  0
  190.4990  176.8100  139.6790 N   0  0  0  0  0  2  0  0  0  0  0  0
  187.0180  177.8440  144.1810 N   0  0  0  0  0  0  0  0  0  0  0  0
  188.5130  178.4970  138.5330 C   0  0  2  0  0  3  0  0  0  0  0  0
  190.0850  176.7470  137.3170 C   0  0  2  0  0  3  0  0  0  0  0  0
  186.4490  178.4140  143.1310 N   0  0  0  0  0  0  0  0  0  0  0  0
  188.0810  177.5730  145.9690 C   0  0  0  0  0  0  0  0  0  0  0  0
  188.4620  177.6780  147.4020 C   0  0  0  0  0  1  0  0  0  0  0  0
  188.1170  177.6650  139.7560 C   0  0  2  0  0  3  0  0  0  0  0  0
  186.3820  177.7500  137.4430 O   0  0  0  0  0  1  0  0  0  0  0  0
  187.3740  178.7130  137.5880 C   0  0  0  0  0  0  0  0  0  0  0  0
  187.3260  179.7670  136.9000 O   0  0  0  0  0  0  0  0  0  0  0  0
  189.0390  175.6980  137.7200 C   0  0  0  0  0  2  0  0  0  0  0  0
  190.4920  172.7900  136.0490 O   0  0  0  0  0  0  0  0  0  0  0  0
  189.1420  174.5170  136.8660 N   0  0  0  0  0  0  0  0  0  0  0  0
  191.4350  174.0890  137.7190 N   0  0  0  0  0  1  0  0  0  0  0  0
  190.3610  173.7600  136.8410 C   0  0  0  0  0  0  0  0  0  0  0  0
  186.8050  174.8300  136.3380 N   0  0  0  0  0  2  0  0  0  0  0  0
  184.8980  173.0470  135.6850 O   0  0  0  0  0  0  0  0  0  0  0  0
  185.6320  173.1640  138.0960 O   0  0  0  0  0  0  0  0  0  0  0  0
  187.5760  172.6990  136.2000 C   0  0  0  0  0  2  0  0  0  0  0  0
  188.0480  174.1390  135.9630 C   0  0  2  0  0  3  0  0  0  0  0  0
  186.0100  173.3370  136.6520 S   0  0  0  0  0  0  0  0  0  0  0  0
  1  5  1  6  0  0  0
  1  3  1  0  0  0  0
  2  7  1  0  0  0  0
  3  7  1  0  0  0  0
  3 16  2  0  0  0  0
  4 12  1  1  0  0  0
  6 17  2  0  0  0  0
  7  9  2  0  0  0  0
  8  4  1  0  0  0  0
  8 14  1  0  0  0  0
  9 13  1  0  0  0  0
  9  6  1  0  0  0  0
 10 17  1  0  0  0  0
 11  2  2  0  0  0  0
 12 11  1  0  0  0  0
 13 10  1  0  0  0  0
 14 19  1  0  0  0  0
 15 23  1  0  0  0  0
 15  8  1  0  0  0  0
 15  4  1  0  0  0  0
 16 13  1  0  0  0  0
 17 18  1  0  0  0  0
 19 11  1  0  0  0  0
 19  1  1  0  0  0  0
 20 21  1  0  0  0  0
 21 14  1  0  0  0  0
 22 21  2  0  0  0  0
 24 27  2  0  0  0  0
 25 23  1  0  0  0  0
 27 25  1  0  0  0  0
 27 26  1  0  0  0  0
 28 33  1  0  0  0  0
 29 33  2  0  0  0  0
 31 33  1  0  0  0  0
 32 31  1  0  0  0  0
 32 28  1  0  0  0  0
 32 25  1  0  0  0  0
 33 30  2  0  0  0  0
M  END
>  <MODEL>
6

>  <REMARK>
 VINA RESULT:      -6.6      2.011      3.066
  Name = 
  4 active torsions:
  status: ('A' for Active; 'I' for Inactive)
    1  A    between atoms: C_1  and  N_7
    2  A    between atoms: C_1  and  C_25
    3  A    between atoms: N_7  and  C_24
    4  A    between atoms: C_23  and  C_27
                            x       y       z     vdW  Elec       q    Type
                         _______ _______ _______ _____ _____    ______ ____

>  <TORSDO>
F 4

$$$$
=
 OpenBabel10232409373D

 33 38  0  0  1  0  0  0  0  0999 V2000
  188.1830  174.5910  136.5230 C   0  0  2  0  0  3  0  0  0  0  0  0
  185.7530  176.1320  137.0850 N   0  0  0  0  0  0  0  0  0  0  0  0
  186.8120  174.0000  136.4420 C   0  0  0  0  0  0  0  0  0  0  0  0
  188.0310  178.9520  137.5670 N   0  0  1  0  0  0  0  0  0  0  0  0
  189.1250  173.5620  137.1250 C   0  0  0  0  0  1  0  0  0  0  0  0
  183.3480  174.2200  135.8720 C   0  0  0  0  0  3  0  0  0  0  0  0
  185.6920  174.7470  136.7650 C   0  0  0  0  0  0  0  0  0  0  0  0
  189.3550  178.3010  137.3720 C   0  0  2  0  0  3  0  0  0  0  0  0
  184.6530  174.0190  136.2610 C   0  0  0  0  0  0  0  0  0  0  0  0
  184.2820  172.3190  134.9500 N   0  0  0  0  0  2  0  0  0  0  0  0
  186.9060  176.7020  137.2960 C   0  0  0  0  0  0  0  0  0  0  0  0
  186.9270  178.0760  137.6670 N   0  0  0  0  0  2  0  0  0  0  0  0
  185.1390  172.9250  135.7380 N   0  0  0  0  0  0  0  0  0  0  0  0
  189.3810  176.7920  137.0070 C   0  0  2  0  0  3  0  0  0  0  0  0
  188.9680  178.7710  138.7180 C   0  0  2  0  0  3  0  0  0  0  0  0
  186.4610  172.8810  135.7480 N   0  0  0  0  0  0  0  0  0  0  0  0
  183.1550  173.0720  135.0720 C   0  0  0  0  0  0  0  0  0  0  0  0
  181.8940  172.7660  134.3460 C   0  0  0  0  0  1  0  0  0  0  0  0
  188.1890  175.9020  137.3680 C   0  0  2  0  0  3  0  0  0  0  0  0
  190.9010  175.7760  138.7230 O   0  0  0  0  0  1  0  0  0  0  0  0
  190.6910  176.1970  137.4150 C   0  0  0  0  0  0  0  0  0  0  0  0
  191.6210  176.0980  136.5710 O   0  0  0  0  0  0  0  0  0  0  0  0
  188.6020  177.6720  139.7260 C   0  0  0  0  0  2  0  0  0  0  0  0
  186.6790  179.3740  142.3280 O   0  0  0  0  0  0  0  0  0  0  0  0
  188.2670  178.2560  141.0230 N   0  0  0  0  0  0  0  0  0  0  0  0
  185.9440  178.6680  140.2470 N   0  0  0  0  0  1  0  0  0  0  0  0
  186.9540  178.7930  141.2450 C   0  0  0  0  0  0  0  0  0  0  0  0
  190.5050  177.6600  141.7110 N   0  0  0  0  0  2  0  0  0  0  0  0
  191.4450  176.8120  144.0860 O   0  0  0  0  0  0  0  0  0  0  0  0
  190.1210  175.1820  142.6870 O   0  0  0  0  0  0  0  0  0  0  0  0
  188.9140  177.5740  143.3290 C   0  0  0  0  0  2  0  0  0  0  0  0
  189.2790  178.3850  142.0780 C   0  0  2  0  0  3  0  0  0  0  0  0
  190.3560  176.6160  143.0700 S   0  0  0  0  0  0  0  0  0  0  0  0
  1  5  1  1  0  0  0
  1 19  1  0  0  0  0
  2 11  2  0  0  0  0
  3  1  1  0  0  0  0
  3  7  1  0  0  0  0
  4 12  1  1  0  0  0
  4 15  1  0  0  0  0
  6  9  1  0  0  0  0
  7  2  1  0  0  0  0
  8  4  1  0  0  0  0
  8 15  1  0  0  0  0
  9  7  2  0  0  0  0
 10 17  1  0  0  0  0
 10 13  1  0  0  0  0
 11 19  1  0  0  0  0
 11 12  1  0  0  0  0
 13 16  1  0  0  0  0
 13  9  1  0  0  0  0
 14 19  1  0  0  0  0
 14  8  1  0  0  0  0
 14 21  1  0  0  0  0
 15 23  1  0  0  0  0
 16  3  2  0  0  0  0
 17  6  2  0  0  0  0
 18 17  1  0  0  0  0
 21 20  1  0  0  0  0
 22 21  2  0  0  0  0
 23 25  1  0  0  0  0
 25 27  1  0  0  0  0
 25 32  1  0  0  0  0
 26 27  1  0  0  0  0
 27 24  2  0  0  0  0
 28 32  1  0  0  0  0
 28 33  1  0  0  0  0
 30 33  2  0  0  0  0
 32 31  1  0  0  0  0
 33 31  1  0  0  0  0
 33 29  2  0  0  0  0
M  END
>  <MODEL>
7

>  <REMARK>
 VINA RESULT:      -6.5      3.551      7.708
  Name = 
  4 active torsions:
  status: ('A' for Active; 'I' for Inactive)
    1  A    between atoms: C_1  and  N_7
    2  A    between atoms: C_1  and  C_25
    3  A    between atoms: N_7  and  C_24
    4  A    between atoms: C_23  and  C_27
                            x       y       z     vdW  Elec       q    Type
                         _______ _______ _______ _____ _____    ______ ____

>  <TORSDO>
F 4

$$$$
=
 OpenBabel10232409373D

 33 38  0  0  1  0  0  0  0  0999 V2000
  186.9000  174.8860  136.5000 C   0  0  2  0  0  3  0  0  0  0  0  0
  185.2260  176.9940  137.6640 N   0  0  0  0  0  0  0  0  0  0  0  0
  185.4500  174.6900  136.8120 C   0  0  0  0  0  0  0  0  0  0  0  0
  188.2290  179.0680  137.4310 N   0  0  1  0  0  0  0  0  0  0  0  0
  187.6510  173.6120  136.8490 C   0  0  0  0  0  1  0  0  0  0  0  0
  182.1570  175.8640  137.2040 C   0  0  0  0  0  3  0  0  0  0  0  0
  184.7070  175.6940  137.4080 C   0  0  0  0  0  0  0  0  0  0  0  0
  189.2220  178.0960  136.8990 C   0  0  2  0  0  3  0  0  0  0  0  0
  183.4120  175.2990  137.2270 C   0  0  0  0  0  0  0  0  0  0  0  0
  182.2520  173.8300  136.1110 N   0  0  0  0  0  2  0  0  0  0  0  0
  186.5030  177.2210  137.5370 C   0  0  0  0  0  0  0  0  0  0  0  0
  186.9980  178.5180  137.8520 N   0  0  0  0  0  2  0  0  0  0  0  0
  183.4220  174.1430  136.6190 N   0  0  0  0  0  0  0  0  0  0  0  0
  188.7360  176.6560  136.5820 C   0  0  2  0  0  3  0  0  0  0  0  0
  189.3560  178.5840  138.2880 C   0  0  2  0  0  3  0  0  0  0  0  0
  184.6340  173.7440  136.2700 N   0  0  0  0  0  0  0  0  0  0  0  0
  181.4500  174.8530  136.5160 C   0  0  0  0  0  0  0  0  0  0  0  0
  180.0070  174.9340  136.1710 C   0  0  0  0  0  1  0  0  0  0  0  0
  187.4900  176.1020  137.2770 C   0  0  2  0  0  3  0  0  0  0  0  0
  190.1680  174.9870  137.7870 O   0  0  0  0  0  1  0  0  0  0  0  0
  189.8940  175.7100  136.6310 C   0  0  0  0  0  0  0  0  0  0  0  0
  190.6410  175.5850  135.6250 O   0  0  0  0  0  0  0  0  0  0  0  0
  188.9890  177.5750  139.3860 C   0  0  0  0  0  2  0  0  0  0  0  0
  191.7770  177.6100  141.7500 O   0  0  0  0  0  0  0  0  0  0  0  0
  189.7510  177.8440  140.6030 N   0  0  0  0  0  0  0  0  0  0  0  0
  191.7940  176.9130  139.5410 N   0  0  0  0  0  1  0  0  0  0  0  0
  191.1320  177.4600  140.6790 C   0  0  0  0  0  0  0  0  0  0  0  0
  189.5750  177.7550  143.0110 N   0  0  0  0  0  2  0  0  0  0  0  0
  187.4200  177.8460  144.6200 O   0  0  0  0  0  0  0  0  0  0  0  0
  187.8560  175.7120  143.3470 O   0  0  0  0  0  0  0  0  0  0  0  0
  187.6240  178.0350  141.8850 C   0  0  0  0  0  2  0  0  0  0  0  0
  189.1050  178.4230  141.7870 C   0  0  2  0  0  3  0  0  0  0  0  0
  187.9870  177.2080  143.3840 S   0  0  0  0  0  0  0  0  0  0  0  0
  1  3  1  0  0  0  0
  1  5  1  1  0  0  0
  1 19  1  0  0  0  0
  3  7  1  0  0  0  0
  4 12  1  1  0  0  0
  4 15  1  0  0  0  0
  6  9  1  0  0  0  0
  7  2  1  0  0  0  0
  8  4  1  0  0  0  0
  8 15  1  0  0  0  0
  9  7  2  0  0  0  0
 10 17  1  0  0  0  0
 10 13  1  0  0  0  0
 11  2  2  0  0  0  0
 11 12  1  0  0  0  0
 13  9  1  0  0  0  0
 14 21  1  0  0  0  0
 14  8  1  0  0  0  0
 14 19  1  0  0  0  0
 15 23  1  0  0  0  0
 16 13  1  0  0  0  0
 16  3  2  0  0  0  0
 17  6  2  0  0  0  0
 18 17  1  0  0  0  0
 19 11  1  0  0  0  0
 21 20  1  0  0  0  0
 22 21  2  0  0  0  0
 23 25  1  0  0  0  0
 25 27  1  0  0  0  0
 25 32  1  0  0  0  0
 26 27  1  0  0  0  0
 27 24  2  0  0  0  0
 28 33  1  0  0  0  0
 30 33  2  0  0  0  0
 31 33  1  0  0  0  0
 32 31  1  0  0  0  0
 32 28  1  0  0  0  0
 33 29  2  0  0  0  0
M  END
>  <MODEL>
8

>  <REMARK>
 VINA RESULT:      -6.3      3.993      7.771
  Name = 
  4 active torsions:
  status: ('A' for Active; 'I' for Inactive)
    1  A    between atoms: C_1  and  N_7
    2  A    between atoms: C_1  and  C_25
    3  A    between atoms: N_7  and  C_24
    4  A    between atoms: C_23  and  C_27
                            x       y       z     vdW  Elec       q    Type
                         _______ _______ _______ _____ _____    ______ ____

>  <TORSDO>
F 4

$$$$
=
 OpenBabel10232409373D

 33 38  0  0  1  0  0  0  0  0999 V2000
  187.2130  178.2780  142.3270 C   0  0  2  0  0  3  0  0  0  0  0  0
  187.8710  177.8850  139.4960 N   0  0  0  0  0  0  0  0  0  0  0  0
  188.4970  177.6620  141.8720 C   0  0  0  0  0  0  0  0  0  0  0  0
  184.6710  179.5320  138.8490 N   0  0  1  0  0  0  0  0  0  0  0  0
  186.7310  177.5440  143.5660 C   0  0  0  0  0  1  0  0  0  0  0  0
  191.1130  177.2520  139.5550 C   0  0  0  0  0  3  0  0  0  0  0  0
  188.7490  177.4470  140.5270 C   0  0  0  0  0  0  0  0  0  0  0  0
  184.1620  179.7480  140.2310 C   0  0  2  0  0  3  0  0  0  0  0  0
  190.0920  177.2050  140.4770 C   0  0  0  0  0  0  0  0  0  0  0  0
  191.8640  177.3370  141.7380 N   0  0  0  0  0  2  0  0  0  0  0  0
  186.6810  178.3220  139.7970 C   0  0  0  0  0  0  0  0  0  0  0  0
  185.8090  178.7020  138.7380 N   0  0  0  0  0  2  0  0  0  0  0  0
  190.5560  177.2330  141.6980 N   0  0  0  0  0  0  0  0  0  0  0  0
  185.0630  179.3090  141.4180 C   0  0  2  0  0  3  0  0  0  0  0  0
  183.4920  178.7630  139.3570 C   0  0  2  0  0  3  0  0  0  0  0  0
  189.6480  177.5800  142.5960 N   0  0  0  0  0  0  0  0  0  0  0  0
  192.2240  177.2880  140.4260 C   0  0  0  0  0  0  0  0  0  0  0  0
  193.6360  177.3740  139.9710 C   0  0  0  0  0  1  0  0  0  0  0  0
  186.1310  178.2330  141.2050 C   0  0  2  0  0  3  0  0  0  0  0  0
  184.2650  179.9130  143.7160 O   0  0  0  0  0  1  0  0  0  0  0  0
  184.2180  179.0540  142.6250 C   0  0  0  0  0  0  0  0  0  0  0  0
  183.4730  178.0380  142.6620 O   0  0  0  0  0  0  0  0  0  0  0  0
  183.7410  177.2880  139.7030 C   0  0  0  0  0  2  0  0  0  0  0  0
  180.5030  175.6730  139.1820 O   0  0  0  0  0  0  0  0  0  0  0  0
  182.7120  176.4410  139.1040 N   0  0  0  0  0  0  0  0  0  0  0  0
  181.0240  177.3690  140.6720 N   0  0  0  0  0  1  0  0  0  0  0  0
  181.3780  176.4580  139.6340 C   0  0  0  0  0  0  0  0  0  0  0  0
  184.4820  175.5220  137.7400 N   0  0  0  0  0  2  0  0  0  0  0  0
  184.5910  175.0410  135.0950 O   0  0  0  0  0  0  0  0  0  0  0  0
  184.7630  177.4350  135.8690 O   0  0  0  0  0  0  0  0  0  0  0  0
  182.5450  176.0050  136.6580 C   0  0  0  0  0  2  0  0  0  0  0  0
  183.0380  175.5040  138.0220 C   0  0  2  0  0  3  0  0  0  0  0  0
  184.2130  176.0620  136.1290 S   0  0  0  0  0  0  0  0  0  0  0  0
  1  5  1  1  0  0  0
  2 11  2  0  0  0  0
  2  7  1  0  0  0  0
  3  1  1  0  0  0  0
  3 16  2  0  0  0  0
  4 12  1  1  0  0  0
  4 15  1  0  0  0  0
  4  8  1  0  0  0  0
  6 17  2  0  0  0  0
  6  9  1  0  0  0  0
  7  3  1  0  0  0  0
  8 14  1  0  0  0  0
  9  7  2  0  0  0  0
  9 13  1  0  0  0  0
 11 19  1  0  0  0  0
 12 11  1  0  0  0  0
 13 10  1  0  0  0  0
 13 16  1  0  0  0  0
 14 21  1  0  0  0  0
 15 23  1  0  0  0  0
 15  8  1  0  0  0  0
 17 10  1  0  0  0  0
 18 17  1  0  0  0  0
 19 14  1  0  0  0  0
 19  1  1  0  0  0  0
 21 22  2  0  0  0  0
 21 20  1  0  0  0  0
 24 27  2  0  0  0  0
 25 27  1  0  0  0  0
 25 23  1  0  0  0  0
 27 26  1  0  0  0  0
 28 32  1  0  0  0  0
 29 33  2  0  0  0  0
 30 33  2  0  0  0  0
 31 32  1  0  0  0  0
 32 25  1  0  0  0  0
 33 31  1  0  0  0  0
 33 28  1  0  0  0  0
M  END
>  <MODEL>
9

>  <REMARK>
 VINA RESULT:      -6.2      4.132      5.993
  Name = 
  4 active torsions:
  status: ('A' for Active; 'I' for Inactive)
    1  A    between atoms: C_1  and  N_7
    2  A    between atoms: C_1  and  C_25
    3  A    between atoms: N_7  and  C_24
    4  A    between atoms: C_23  and  C_27
                            x       y       z     vdW  Elec       q    Type
                         _______ _______ _______ _____ _____    ______ ____

>  <TORSDO>
F 4

$$$$
