=
 OpenBabel10232411493D

 47 53  0  0  1  0  0  0  0  0999 V2000
  185.8450  177.7470  143.6370 S   0  0  0  0  0  0  0  0  0  0  0  0
  186.0240  178.6670  145.9560 C   0  0  0  0  0  0  0  0  0  0  0  0
  191.1120  176.1110  143.6280 C   0  0  0  0  0  2  0  0  0  0  0  0
  186.7770  177.9580  145.0220 C   0  0  0  0  0  0  0  0  0  0  0  0
  190.2060  176.3140  144.8110 C   0  0  1  0  0  3  0  0  0  0  0  0
  186.5510  179.0190  147.3240 C   0  0  0  0  0  2  0  0  0  0  0  0
  187.7800  178.1810  147.7140 C   0  0  0  0  0  2  0  0  0  0  0  0
  188.7250  178.0680  146.5230 C   0  0  1  0  0  3  0  0  0  0  0  0
  190.7970  176.8430  146.0880 C   0  0  0  0  0  0  0  0  0  0  0  0
  184.7660  179.0650  145.4920 C   0  0  0  0  0  3  0  0  0  0  0  0
  190.1390  176.0700  142.4430 C   0  0  1  0  0  3  0  0  0  0  0  0
  188.7800  176.5400  142.9750 C   0  0  0  0  0  2  0  0  0  0  0  0
  184.5280  178.6340  144.1900 C   0  0  0  0  0  0  0  0  0  0  0  0
  190.0550  177.5590  146.8930 N   0  0  0  0  0  0  0  0  0  0  0  0
  188.0650  177.2730  145.3800 C   0  0  2  0  0  3  0  0  0  0  0  0
  189.1200  177.2030  144.2870 C   0  0  1  0  0  3  0  0  0  0  0  0
  190.5950  176.9780  141.4020 N   0  0  0  0  0  2  0  0  0  0  0  0
  188.9000  176.4250  139.8920 O   0  0  0  0  0  0  0  0  0  0  0  0
  189.9450  177.0850  140.1340 C   0  0  0  0  0  0  0  0  0  0  0  0
  190.5360  177.9460  139.0770 C   0  0  0  0  0  2  0  0  0  0  0  0
  190.4590  177.2340  137.7390 C   0  0  0  0  0  2  0  0  0  0  0  0
  191.1280  174.7770  137.2160 C   0  0  0  0  0  0  0  0  0  0  0  0
  193.5400  174.3910  136.7960 C   0  0  0  0  0  2  0  0  0  0  0  0
  193.8140  175.3770  137.9350 C   0  0  0  0  0  2  0  0  0  0  0  0
  191.4870  176.1540  137.6610 C   0  0  0  0  0  0  0  0  0  0  0  0
  192.7610  176.4480  137.9580 C   0  0  0  0  0  3  0  0  0  0  0  0
  192.1050  173.9440  136.8230 C   0  0  0  0  0  3  0  0  0  0  0  0
  189.1560  174.5240  135.7030 C   0  0  0  0  0  2  0  0  0  0  0  0
  189.6910  174.3420  137.1170 C   0  0  0  0  0  3  0  0  0  0  0  0
  189.5680  173.1530  136.1810 C   0  0  0  0  0  2  0  0  0  0  0  0
  192.3460  175.7320  147.6530 C   0  0  0  0  0  1  0  0  0  0  0  0
  192.0870  176.4580  146.4620 O   0  0  0  0  0  0  0  0  0  0  0  0
  183.2560  178.8210  143.4290 C   0  0  0  0  0  2  0  0  0  0  0  0
  183.3740  178.3090  141.9980 C   0  0  0  0  0  2  0  0  0  0  0  0
  182.0460  178.4060  141.2650 C   0  0  0  0  0  2  0  0  0  0  0  0
  182.2330  179.0750  139.9120 C   0  0  0  0  0  2  0  0  0  0  0  0
  183.1970  178.2870  139.0770 C   0  0  0  0  0  0  0  0  0  0  0  0
  184.4900  178.8130  138.8770 C   0  0  0  0  0  0  0  0  0  0  0  0
  184.8320  180.0180  139.4870 O   0  0  0  0  0  1  0  0  0  0  0  0
  185.4210  178.1230  138.0660 C   0  0  0  0  0  0  0  0  0  0  0  0
  183.7630  176.4030  137.6580 C   0  0  0  0  0  3  0  0  0  0  0  0
  185.0380  176.9250  137.4630 C   0  0  0  0  0  3  0  0  0  0  0  0
  182.8320  177.0610  138.4620 C   0  0  0  0  0  0  0  0  0  0  0  0
  181.5210  176.3940  138.6000 C   0  0  0  0  0  3  0  0  0  0  0  0
  181.2690  175.3540  139.3860 C   0  0  0  0  0  2  0  0  0  0  0  0
  187.3050  178.7280  136.5330 C   0  0  0  0  0  1  0  0  0  0  0  0
  186.7260  178.5740  137.8190 O   0  0  0  0  0  0  0  0  0  0  0  0
  1 13  1  0  0  0  0
  1  4  1  0  0  0  0
  2  6  1  0  0  0  0
  4  2  2  0  0  0  0
  5  3  1  6  0  0  0
  5  9  1  0  0  0  0
  6  7  1  0  0  0  0
  8 14  1  0  0  0  0
  8  7  1  1  0  0  0
  9 32  1  0  0  0  0
  9 14  2  0  0  0  0
 10  2  1  0  0  0  0
 11 17  1  6  0  0  0
 11 12  1  0  0  0  0
 11  3  1  0  0  0  0
 13 10  2  0  0  0  0
 15  4  1  6  0  0  0
 15  8  1  0  0  0  0
 16 12  1  6  0  0  0
 16  5  1  0  0  0  0
 16 15  1  0  0  0  0
 18 19  2  0  0  0  0
 19 17  1  0  0  0  0
 20 19  1  0  0  0  0
 21 20  1  0  0  0  0
 22 25  1  0  0  0  0
 23 27  1  0  0  0  0
 23 24  1  0  0  0  0
 24 26  1  0  0  0  0
 25 21  1  0  0  0  0
 25 26  2  0  0  0  0
 27 22  2  0  0  0  0
 28 30  1  0  0  0  0
 28 29  1  0  0  0  0
 29 22  1  0  0  0  0
 30 29  1  0  0  0  0
 32 31  1  0  0  0  0
 33 13  1  0  0  0  0
 34 33  1  0  0  0  0
 35 34  1  0  0  0  0
 36 35  1  0  0  0  0
 37 36  1  0  0  0  0
 38 37  1  0  0  0  0
 38 39  1  0  0  0  0
 40 38  2  0  0  0  0
 41 43  1  0  0  0  0
 42 41  2  0  0  0  0
 42 40  1  0  0  0  0
 43 44  1  0  0  0  0
 43 37  2  0  0  0  0
 44 45  2  0  0  0  0
 46 47  1  0  0  0  0
 47 40  1  0  0  0  0
M  END
>  <MODEL>
1

>  <REMARK>
 VINA RESULT:      -9.3      0.000      0.000
  Name = 
  13 active torsions:
  status: ('A' for Active; 'I' for Inactive)
    1  A    between atoms: C_2  and  C_46
    2  A    between atoms: N_4  and  C_34
    3  A    between atoms: C_5  and  C_24
    4  A    between atoms: C_6  and  C_20
    5  A    between atoms: C_7  and  C_39
    6  A    between atoms: C_7  and  C_43
    7  A    between atoms: C_11  and  C_14
    8  A    between atoms: C_11  and  C_32
    9  A    between atoms: C_14  and  C_29
   10  A    between atoms: C_24  and  C_41
   11  A    between atoms: C_25  and  O_44
   12  A    between atoms: O_27  and  C_30
   13  A    between atoms: C_41  and  C_43
                            x       y       z     vdW  Elec       q    Type
                         _______ _______ _______ _____ _____    ______ ____

>  <TORSDO>
F 13

$$$$
=
 OpenBabel10232411493D

 47 53  0  0  1  0  0  0  0  0999 V2000
  187.1200  176.1870  136.9790 S   0  0  0  0  0  0  0  0  0  0  0  0
  188.2450  174.7000  135.3120 C   0  0  0  0  0  0  0  0  0  0  0  0
  191.8030  176.9760  139.7840 C   0  0  0  0  0  2  0  0  0  0  0  0
  188.5480  175.5010  136.4110 C   0  0  0  0  0  0  0  0  0  0  0  0
  191.6410  176.6190  138.3320 C   0  0  1  0  0  3  0  0  0  0  0  0
  189.2990  173.9420  134.5450 C   0  0  0  0  0  2  0  0  0  0  0  0
  190.7180  174.4650  134.8250 C   0  0  0  0  0  2  0  0  0  0  0  0
  190.8840  174.7310  136.3160 C   0  0  1  0  0  3  0  0  0  0  0  0
  192.6520  175.7060  137.6970 C   0  0  0  0  0  0  0  0  0  0  0  0
  186.8790  174.6210  135.0210 C   0  0  0  0  0  3  0  0  0  0  0  0
  190.4030  177.4560  140.1870 C   0  0  1  0  0  3  0  0  0  0  0  0
  189.4610  177.0740  139.0400 C   0  0  0  0  0  2  0  0  0  0  0  0
  186.1140  175.3940  135.8890 C   0  0  0  0  0  0  0  0  0  0  0  0
  192.2890  174.9290  136.7100 N   0  0  0  0  0  0  0  0  0  0  0  0
  189.9570  175.8750  136.7690 C   0  0  2  0  0  3  0  0  0  0  0  0
  190.2530  176.0600  138.2490 C   0  0  1  0  0  3  0  0  0  0  0  0
  189.9850  176.7800  141.4060 N   0  0  0  0  0  2  0  0  0  0  0  0
  190.7960  178.4330  142.8450 O   0  0  0  0  0  0  0  0  0  0  0  0
  190.2400  177.3100  142.7070 C   0  0  0  0  0  0  0  0  0  0  0  0
  189.8890  176.5090  143.9090 C   0  0  0  0  0  2  0  0  0  0  0  0
  188.4250  176.7190  144.2500 C   0  0  0  0  0  2  0  0  0  0  0  0
  186.9690  177.8430  146.0860 C   0  0  0  0  0  0  0  0  0  0  0  0
  187.9040  177.7810  148.3810 C   0  0  0  0  0  2  0  0  0  0  0  0
  189.2690  178.0630  147.7460 C   0  0  0  0  0  2  0  0  0  0  0  0
  188.2860  177.3400  145.6000 C   0  0  0  0  0  0  0  0  0  0  0  0
  189.3600  177.4040  146.3990 C   0  0  0  0  0  3  0  0  0  0  0  0
  186.8000  178.0640  147.4000 C   0  0  0  0  0  3  0  0  0  0  0  0
  184.5760  178.5320  145.8770 C   0  0  0  0  0  2  0  0  0  0  0  0
  185.8090  178.0200  145.1440 C   0  0  0  0  0  3  0  0  0  0  0  0
  185.4190  179.4860  145.0650 C   0  0  0  0  0  2  0  0  0  0  0  0
  194.8160  174.6420  138.2140 C   0  0  0  0  0  1  0  0  0  0  0  0
  193.9930  175.7900  138.0810 O   0  0  0  0  0  0  0  0  0  0  0  0
  184.6360  175.5950  135.8070 C   0  0  0  0  0  2  0  0  0  0  0  0
  184.2310  176.9980  136.2400 C   0  0  0  0  0  2  0  0  0  0  0  0
  183.0920  176.9600  137.2460 C   0  0  0  0  0  2  0  0  0  0  0  0
  182.7550  178.3640  137.7220 C   0  0  0  0  0  2  0  0  0  0  0  0
  183.0010  178.4810  139.1960 C   0  0  0  0  0  0  0  0  0  0  0  0
  184.2610  178.9450  139.6260 C   0  0  0  0  0  0  0  0  0  0  0  0
  185.2100  179.3080  138.6740 O   0  0  0  0  0  1  0  0  0  0  0  0
  184.5520  179.0360  141.0070 C   0  0  0  0  0  0  0  0  0  0  0  0
  182.3360  178.1940  141.5110 C   0  0  0  0  0  3  0  0  0  0  0  0
  183.5800  178.6530  141.9320 C   0  0  0  0  0  3  0  0  0  0  0  0
  182.0230  178.1060  140.1540 C   0  0  0  0  0  0  0  0  0  0  0  0
  180.6640  177.6190  139.8410 C   0  0  0  0  0  3  0  0  0  0  0  0
  180.1900  176.4170  140.1450 C   0  0  0  0  0  2  0  0  0  0  0  0
  186.9730  178.7310  141.5620 C   0  0  0  0  0  1  0  0  0  0  0  0
  185.7760  179.4910  141.5190 O   0  0  0  0  0  0  0  0  0  0  0  0
  2  4  2  0  0  0  0
  3 11  1  0  0  0  0
  4  1  1  0  0  0  0
  5  3  1  1  0  0  0
  6  7  1  0  0  0  0
  6  2  1  0  0  0  0
  8  7  1  6  0  0  0
  8 14  1  0  0  0  0
  8 15  1  0  0  0  0
  9 32  1  0  0  0  0
  9  5  1  0  0  0  0
 10  2  1  0  0  0  0
 10 13  2  0  0  0  0
 11 17  1  1  0  0  0
 12 11  1  0  0  0  0
 13  1  1  0  0  0  0
 14  9  2  0  0  0  0
 15  4  1  1  0  0  0
 15 16  1  0  0  0  0
 16  5  1  0  0  0  0
 16 12  1  6  0  0  0
 17 19  1  0  0  0  0
 19 18  2  0  0  0  0
 19 20  1  0  0  0  0
 20 21  1  0  0  0  0
 21 25  1  0  0  0  0
 22 27  2  0  0  0  0
 24 23  1  0  0  0  0
 25 22  1  0  0  0  0
 25 26  2  0  0  0  0
 26 24  1  0  0  0  0
 27 23  1  0  0  0  0
 29 28  1  0  0  0  0
 29 22  1  0  0  0  0
 30 29  1  0  0  0  0
 30 28  1  0  0  0  0
 32 31  1  0  0  0  0
 33 13  1  0  0  0  0
 33 34  1  0  0  0  0
 34 35  1  0  0  0  0
 35 36  1  0  0  0  0
 36 37  1  0  0  0  0
 37 38  2  0  0  0  0
 37 43  1  0  0  0  0
 38 40  1  0  0  0  0
 39 38  1  0  0  0  0
 40 47  1  0  0  0  0
 40 42  2  0  0  0  0
 41 42  1  0  0  0  0
 43 41  2  0  0  0  0
 44 45  2  0  0  0  0
 44 43  1  0  0  0  0
 47 46  1  0  0  0  0
M  END
>  <MODEL>
2

>  <REMARK>
 VINA RESULT:      -9.2      2.090      7.961
  Name = 
  13 active torsions:
  status: ('A' for Active; 'I' for Inactive)
    1  A    between atoms: C_2  and  C_46
    2  A    between atoms: N_4  and  C_34
    3  A    between atoms: C_5  and  C_24
    4  A    between atoms: C_6  and  C_20
    5  A    between atoms: C_7  and  C_39
    6  A    between atoms: C_7  and  C_43
    7  A    between atoms: C_11  and  C_14
    8  A    between atoms: C_11  and  C_32
    9  A    between atoms: C_14  and  C_29
   10  A    between atoms: C_24  and  C_41
   11  A    between atoms: C_25  and  O_44
   12  A    between atoms: O_27  and  C_30
   13  A    between atoms: C_41  and  C_43
                            x       y       z     vdW  Elec       q    Type
                         _______ _______ _______ _____ _____    ______ ____

>  <TORSDO>
F 13

$$$$
=
 OpenBabel10232411493D

 47 53  0  0  1  0  0  0  0  0999 V2000
  182.9440  174.7860  138.0280 S   0  0  0  0  0  0  0  0  0  0  0  0
  182.6990  175.7180  135.7190 C   0  0  0  0  0  0  0  0  0  0  0  0
  181.2440  179.4880  140.3560 C   0  0  0  0  0  2  0  0  0  0  0  0
  182.4580  176.0640  137.0470 C   0  0  0  0  0  0  0  0  0  0  0  0
  180.9300  178.9680  138.9800 C   0  0  1  0  0  3  0  0  0  0  0  0
  182.3650  176.6320  134.5680 C   0  0  0  0  0  2  0  0  0  0  0  0
  181.3850  177.7470  134.9690 C   0  0  0  0  0  2  0  0  0  0  0  0
  181.7810  178.3180  136.3250 C   0  0  1  0  0  3  0  0  0  0  0  0
  180.7910  179.9520  137.8520 C   0  0  0  0  0  0  0  0  0  0  0  0
  183.3240  174.4760  135.5570 C   0  0  0  0  0  3  0  0  0  0  0  0
  181.7930  178.2530  141.0820 C   0  0  1  0  0  3  0  0  0  0  0  0
  182.0330  177.1850  140.0100 C   0  0  0  0  0  2  0  0  0  0  0  0
  183.5440  173.8390  136.7740 C   0  0  0  0  0  0  0  0  0  0  0  0
  181.0970  179.5840  136.6350 N   0  0  0  0  0  0  0  0  0  0  0  0
  181.6260  177.2550  137.4280 C   0  0  2  0  0  3  0  0  0  0  0  0
  182.0110  177.9640  138.7170 C   0  0  1  0  0  3  0  0  0  0  0  0
  183.0530  178.5850  141.7300 N   0  0  0  0  0  2  0  0  0  0  0  0
  182.1340  178.7880  143.8690 O   0  0  0  0  0  0  0  0  0  0  0  0
  183.1480  178.8710  143.1270 C   0  0  0  0  0  0  0  0  0  0  0  0
  184.4460  179.3170  143.6970 C   0  0  0  0  0  2  0  0  0  0  0  0
  185.5270  178.3090  143.3510 C   0  0  0  0  0  2  0  0  0  0  0  0
  187.5680  177.1420  144.4580 C   0  0  0  0  0  0  0  0  0  0  0  0
  188.2130  178.0030  146.6920 C   0  0  0  0  0  2  0  0  0  0  0  0
  186.7150  178.1010  146.9970 C   0  0  0  0  0  2  0  0  0  0  0  0
  186.3330  177.9700  144.5610 C   0  0  0  0  0  0  0  0  0  0  0  0
  185.9550  178.4580  145.7510 C   0  0  0  0  0  3  0  0  0  0  0  0
  188.4460  177.1500  145.4750 C   0  0  0  0  0  3  0  0  0  0  0  0
  188.7680  177.1890  142.2660 C   0  0  0  0  0  2  0  0  0  0  0  0
  187.8870  176.3740  143.2040 C   0  0  0  0  0  3  0  0  0  0  0  0
  189.3790  176.1050  143.1210 C   0  0  0  0  0  2  0  0  0  0  0  0
  180.9440  182.4120  137.9420 C   0  0  0  0  0  1  0  0  0  0  0  0
  180.2180  181.2020  138.0950 O   0  0  0  0  0  0  0  0  0  0  0  0
  184.1160  172.4700  136.9510 C   0  0  0  0  0  2  0  0  0  0  0  0
  185.5990  172.4270  136.5990 C   0  0  0  0  0  2  0  0  0  0  0  0
  186.3670  173.5320  137.3040 C   0  0  0  0  0  2  0  0  0  0  0  0
  187.3210  174.2170  136.3380 C   0  0  0  0  0  2  0  0  0  0  0  0
  188.1190  175.2620  137.0560 C   0  0  0  0  0  0  0  0  0  0  0  0
  189.4220  174.9320  137.4800 C   0  0  0  0  0  0  0  0  0  0  0  0
  189.9290  173.6680  137.1870 O   0  0  0  0  0  1  0  0  0  0  0  0
  190.1980  175.8740  138.1930 C   0  0  0  0  0  0  0  0  0  0  0  0
  188.3670  177.4560  138.0620 C   0  0  0  0  0  3  0  0  0  0  0  0
  189.6530  177.1260  138.4780 C   0  0  0  0  0  3  0  0  0  0  0  0
  187.5870  176.5460  137.3470 C   0  0  0  0  0  0  0  0  0  0  0  0
  186.2470  177.0250  136.9500 C   0  0  0  0  0  3  0  0  0  0  0  0
  185.4840  177.8460  137.6610 C   0  0  0  0  0  2  0  0  0  0  0  0
  192.6390  176.4130  138.3200 C   0  0  0  0  0  1  0  0  0  0  0  0
  191.5030  175.6280  138.6470 O   0  0  0  0  0  0  0  0  0  0  0  0
  2  4  2  0  0  0  0
  3 11  1  0  0  0  0
  4  1  1  0  0  0  0
  5  3  1  1  0  0  0
  6  7  1  0  0  0  0
  6  2  1  0  0  0  0
  8  7  1  6  0  0  0
  8 14  1  0  0  0  0
  8 15  1  0  0  0  0
  9 32  1  0  0  0  0
  9  5  1  0  0  0  0
 10  2  1  0  0  0  0
 10 13  2  0  0  0  0
 11 17  1  6  0  0  0
 12 11  1  0  0  0  0
 13 33  1  0  0  0  0
 13  1  1  0  0  0  0
 14  9  2  0  0  0  0
 15  4  1  6  0  0  0
 15 16  1  0  0  0  0
 16  5  1  0  0  0  0
 16 12  1  1  0  0  0
 17 19  1  0  0  0  0
 19 20  1  0  0  0  0
 19 18  2  0  0  0  0
 21 20  1  0  0  0  0
 21 25  1  0  0  0  0
 22 25  1  0  0  0  0
 22 27  2  0  0  0  0
 23 24  1  0  0  0  0
 25 26  2  0  0  0  0
 26 24  1  0  0  0  0
 27 23  1  0  0  0  0
 28 30  1  0  0  0  0
 28 29  1  0  0  0  0
 29 22  1  0  0  0  0
 30 29  1  0  0  0  0
 31 32  1  0  0  0  0
 34 33  1  0  0  0  0
 34 35  1  0  0  0  0
 36 37  1  0  0  0  0
 36 35  1  0  0  0  0
 37 43  2  0  0  0  0
 37 38  1  0  0  0  0
 38 40  2  0  0  0  0
 39 38  1  0  0  0  0
 40 42  1  0  0  0  0
 40 47  1  0  0  0  0
 41 42  2  0  0  0  0
 43 41  1  0  0  0  0
 44 43  1  0  0  0  0
 44 45  2  0  0  0  0
 46 47  1  0  0  0  0
M  END
>  <MODEL>
3

>  <REMARK>
 VINA RESULT:      -8.8      3.168      9.417
  Name = 
  13 active torsions:
  status: ('A' for Active; 'I' for Inactive)
    1  A    between atoms: C_2  and  C_46
    2  A    between atoms: N_4  and  C_34
    3  A    between atoms: C_5  and  C_24
    4  A    between atoms: C_6  and  C_20
    5  A    between atoms: C_7  and  C_39
    6  A    between atoms: C_7  and  C_43
    7  A    between atoms: C_11  and  C_14
    8  A    between atoms: C_11  and  C_32
    9  A    between atoms: C_14  and  C_29
   10  A    between atoms: C_24  and  C_41
   11  A    between atoms: C_25  and  O_44
   12  A    between atoms: O_27  and  C_30
   13  A    between atoms: C_41  and  C_43
                            x       y       z     vdW  Elec       q    Type
                         _______ _______ _______ _____ _____    ______ ____

>  <TORSDO>
F 13

$$$$
=
 OpenBabel10232411493D

 47 53  0  0  1  0  0  0  0  0999 V2000
  184.6740  179.2520  143.0070 S   0  0  0  0  0  0  0  0  0  0  0  0
  182.3850  178.7760  143.8950 C   0  0  0  0  0  0  0  0  0  0  0  0
  183.0940  178.3570  137.7990 C   0  0  0  0  0  2  0  0  0  0  0  0
  183.0610  178.9000  142.6830 C   0  0  0  0  0  0  0  0  0  0  0  0
  182.2460  178.7900  138.9640 C   0  0  1  0  0  3  0  0  0  0  0  0
  180.9090  178.4760  143.9740 C   0  0  0  0  0  2  0  0  0  0  0  0
  180.1840  178.7380  142.6440 C   0  0  0  0  0  2  0  0  0  0  0  0
  181.0240  178.2080  141.4870 C   0  0  1  0  0  3  0  0  0  0  0  0
  180.8310  178.2900  139.0500 C   0  0  0  0  0  0  0  0  0  0  0  0
  183.2040  178.9010  145.0220 C   0  0  0  0  0  3  0  0  0  0  0  0
  184.5240  178.6130  138.2900 C   0  0  1  0  0  3  0  0  0  0  0  0
  184.4270  178.8960  139.7940 C   0  0  0  0  0  2  0  0  0  0  0  0
  184.5300  179.1530  144.6800 C   0  0  0  0  0  0  0  0  0  0  0  0
  180.2740  178.1320  140.2230 N   0  0  0  0  0  0  0  0  0  0  0  0
  182.3420  178.9950  141.3680 C   0  0  2  0  0  3  0  0  0  0  0  0
  183.0530  178.3960  140.1650 C   0  0  1  0  0  3  0  0  0  0  0  0
  185.3380  177.4280  138.0690 N   0  0  0  0  0  2  0  0  0  0  0  0
  187.2060  178.6040  137.3010 O   0  0  0  0  0  0  0  0  0  0  0  0
  186.6640  177.4920  137.5420 C   0  0  0  0  0  0  0  0  0  0  0  0
  187.3930  176.2340  137.2320 C   0  0  0  0  0  2  0  0  0  0  0  0
  188.6410  176.5540  136.4290 C   0  0  0  0  0  2  0  0  0  0  0  0
  190.5820  174.9070  136.9510 C   0  0  0  0  0  0  0  0  0  0  0  0
  192.5480  175.8960  138.0930 C   0  0  0  0  0  2  0  0  0  0  0  0
  191.5540  176.7090  138.9270 C   0  0  0  0  0  2  0  0  0  0  0  0
  189.8670  176.1910  137.2000 C   0  0  0  0  0  0  0  0  0  0  0  0
  190.3490  177.0600  138.0990 C   0  0  0  0  0  3  0  0  0  0  0  0
  191.8430  174.7680  137.3890 C   0  0  0  0  0  3  0  0  0  0  0  0
  190.3520  173.8910  134.6800 C   0  0  0  0  0  2  0  0  0  0  0  0
  189.9460  173.8060  136.1450 C   0  0  0  0  0  3  0  0  0  0  0  0
  191.0150  172.8830  135.5880 C   0  0  0  0  0  2  0  0  0  0  0  0
  179.9870  176.8740  137.2160 C   0  0  0  0  0  1  0  0  0  0  0  0
  180.0870  178.1240  137.8800 O   0  0  0  0  0  0  0  0  0  0  0  0
  185.6430  179.4170  145.6390 C   0  0  0  0  0  2  0  0  0  0  0  0
  185.9390  178.2020  146.5110 C   0  0  0  0  0  2  0  0  0  0  0  0
  187.4240  178.0860  146.8120 C   0  0  0  0  0  2  0  0  0  0  0  0
  187.9740  176.7720  146.2800 C   0  0  0  0  0  2  0  0  0  0  0  0
  188.9660  177.0330  145.1870 C   0  0  0  0  0  0  0  0  0  0  0  0
  188.4980  177.0740  143.8580 C   0  0  0  0  0  0  0  0  0  0  0  0
  187.1370  176.9070  143.6140 O   0  0  0  0  0  1  0  0  0  0  0  0
  189.4030  177.2810  142.7910 C   0  0  0  0  0  0  0  0  0  0  0  0
  191.2260  177.3940  144.3840 C   0  0  0  0  0  3  0  0  0  0  0  0
  190.7600  177.4340  143.0740 C   0  0  0  0  0  3  0  0  0  0  0  0
  190.3510  177.2020  145.4530 C   0  0  0  0  0  0  0  0  0  0  0  0
  190.9690  177.1960  146.7950 C   0  0  0  0  0  3  0  0  0  0  0  0
  191.6790  176.1990  147.3070 C   0  0  0  0  0  2  0  0  0  0  0  0
  188.3680  178.4400  140.8290 C   0  0  0  0  0  1  0  0  0  0  0  0
  189.0210  177.3400  141.4430 O   0  0  0  0  0  0  0  0  0  0  0  0
  1 13  1  0  0  0  0
  2  6  1  0  0  0  0
  2 10  1  0  0  0  0
  3 11  1  0  0  0  0
  4  1  1  0  0  0  0
  4  2  2  0  0  0  0
  5  3  1  6  0  0  0
  5  9  1  0  0  0  0
  5 16  1  0  0  0  0
  7  6  1  0  0  0  0
  8  7  1  1  0  0  0
  9 14  2  0  0  0  0
 11 17  1  1  0  0  0
 11 12  1  0  0  0  0
 13 10  2  0  0  0  0
 13 33  1  0  0  0  0
 14  8  1  0  0  0  0
 15  8  1  0  0  0  0
 15  4  1  1  0  0  0
 16 12  1  6  0  0  0
 16 15  1  0  0  0  0
 18 19  2  0  0  0  0
 19 17  1  0  0  0  0
 20 19  1  0  0  0  0
 21 25  1  0  0  0  0
 21 20  1  0  0  0  0
 22 25  1  0  0  0  0
 22 27  2  0  0  0  0
 23 24  1  0  0  0  0
 25 26  2  0  0  0  0
 26 24  1  0  0  0  0
 27 23  1  0  0  0  0
 28 30  1  0  0  0  0
 28 29  1  0  0  0  0
 29 22  1  0  0  0  0
 30 29  1  0  0  0  0
 31 32  1  0  0  0  0
 32  9  1  0  0  0  0
 33 34  1  0  0  0  0
 34 35  1  0  0  0  0
 36 35  1  0  0  0  0
 37 43  1  0  0  0  0
 37 36  1  0  0  0  0
 38 37  2  0  0  0  0
 39 38  1  0  0  0  0
 40 42  2  0  0  0  0
 40 38  1  0  0  0  0
 41 43  2  0  0  0  0
 42 41  1  0  0  0  0
 43 44  1  0  0  0  0
 44 45  2  0  0  0  0
 46 47  1  0  0  0  0
 47 40  1  0  0  0  0
M  END
>  <MODEL>
4

>  <REMARK>
 VINA RESULT:      -8.8      2.414      7.383
  Name = 
  13 active torsions:
  status: ('A' for Active; 'I' for Inactive)
    1  A    between atoms: C_2  and  C_46
    2  A    between atoms: N_4  and  C_34
    3  A    between atoms: C_5  and  C_24
    4  A    between atoms: C_6  and  C_20
    5  A    between atoms: C_7  and  C_39
    6  A    between atoms: C_7  and  C_43
    7  A    between atoms: C_11  and  C_14
    8  A    between atoms: C_11  and  C_32
    9  A    between atoms: C_14  and  C_29
   10  A    between atoms: C_24  and  C_41
   11  A    between atoms: C_25  and  O_44
   12  A    between atoms: O_27  and  C_30
   13  A    between atoms: C_41  and  C_43
                            x       y       z     vdW  Elec       q    Type
                         _______ _______ _______ _____ _____    ______ ____

>  <TORSDO>
F 13

$$$$
=
 OpenBabel10232411493D

 47 53  0  0  1  0  0  0  0  0999 V2000
  186.2720  177.6300  143.6630 S   0  0  0  0  0  0  0  0  0  0  0  0
  186.0390  178.7180  145.9040 C   0  0  0  0  0  0  0  0  0  0  0  0
  191.4950  176.1660  144.6570 C   0  0  0  0  0  2  0  0  0  0  0  0
  186.9520  177.9690  145.1650 C   0  0  0  0  0  0  0  0  0  0  0  0
  190.3990  176.4240  145.6540 C   0  0  1  0  0  3  0  0  0  0  0  0
  186.3200  179.1820  147.3100 C   0  0  0  0  0  2  0  0  0  0  0  0
  187.4810  178.4130  147.9620 C   0  0  0  0  0  2  0  0  0  0  0  0
  188.6160  178.2470  146.9570 C   0  0  1  0  0  3  0  0  0  0  0  0
  190.7550  177.0600  146.9690 C   0  0  0  0  0  0  0  0  0  0  0  0
  184.8690  179.0420  145.2080 C   0  0  0  0  0  3  0  0  0  0  0  0
  190.7380  176.0110  143.3330 C   0  0  1  0  0  3  0  0  0  0  0  0
  189.3000  176.4740  143.5930 C   0  0  0  0  0  2  0  0  0  0  0  0
  184.8630  178.5130  143.9200 C   0  0  0  0  0  0  0  0  0  0  0  0
  189.8740  177.8070  147.5820 N   0  0  0  0  0  0  0  0  0  0  0  0
  188.1740  177.3530  145.7830 C   0  0  2  0  0  3  0  0  0  0  0  0
  189.3990  177.2390  144.8900 C   0  0  1  0  0  3  0  0  0  0  0  0
  191.3460  176.8570  142.3180 N   0  0  0  0  0  2  0  0  0  0  0  0
  189.9250  176.1640  140.5970 O   0  0  0  0  0  0  0  0  0  0  0  0
  190.9090  176.8630  140.9580 C   0  0  0  0  0  0  0  0  0  0  0  0
  191.6520  177.6650  139.9510 C   0  0  0  0  0  2  0  0  0  0  0  0
  191.1860  177.2890  138.5560 C   0  0  0  0  0  2  0  0  0  0  0  0
  191.3210  175.0100  137.3150 C   0  0  0  0  0  0  0  0  0  0  0  0
  193.5490  174.4150  136.4070 C   0  0  0  0  0  2  0  0  0  0  0  0
  194.1400  174.9910  137.6980 C   0  0  0  0  0  2  0  0  0  0  0  0
  191.9800  176.1400  138.0310 C   0  0  0  0  0  0  0  0  0  0  0  0
  193.3130  176.1520  138.1730 C   0  0  0  0  0  3  0  0  0  0  0  0
  192.0700  174.1890  136.5620 C   0  0  0  0  0  3  0  0  0  0  0  0
  189.2140  175.0160  135.9720 C   0  0  0  0  0  2  0  0  0  0  0  0
  189.8270  174.8310  137.3540 C   0  0  0  0  0  3  0  0  0  0  0  0
  189.4240  173.6260  136.5220 C   0  0  0  0  0  2  0  0  0  0  0  0
  192.3570  175.4060  147.8500 C   0  0  0  0  0  1  0  0  0  0  0  0
  191.9700  176.7440  147.5800 O   0  0  0  0  0  0  0  0  0  0  0  0
  183.7350  178.6040  142.9450 C   0  0  0  0  0  2  0  0  0  0  0  0
  184.1210  178.0440  141.5810 C   0  0  0  0  0  2  0  0  0  0  0  0
  184.7480  179.1130  140.7010 C   0  0  0  0  0  2  0  0  0  0  0  0
  183.9250  179.3120  139.4390 C   0  0  0  0  0  2  0  0  0  0  0  0
  183.9140  178.0530  138.6260 C   0  0  0  0  0  0  0  0  0  0  0  0
  182.7300  177.2880  138.5980 C   0  0  0  0  0  0  0  0  0  0  0  0
  181.6130  177.7460  139.2920 O   0  0  0  0  0  1  0  0  0  0  0  0
  182.6850  176.0730  137.8760 C   0  0  0  0  0  0  0  0  0  0  0  0
  184.9980  176.3930  137.2280 C   0  0  0  0  0  3  0  0  0  0  0  0
  183.8280  175.6420  137.2020 C   0  0  0  0  0  3  0  0  0  0  0  0
  185.0630  177.6000  137.9250 C   0  0  0  0  0  0  0  0  0  0  0  0
  186.3580  178.3090  137.8590 C   0  0  0  0  0  3  0  0  0  0  0  0
  187.5420  177.7680  138.1170 C   0  0  0  0  0  2  0  0  0  0  0  0
  180.4040  175.5320  137.0010 C   0  0  0  0  0  1  0  0  0  0  0  0
  181.5480  175.2560  137.7930 O   0  0  0  0  0  0  0  0  0  0  0  0
  1 13  1  0  0  0  0
  1  4  1  0  0  0  0
  2  6  1  0  0  0  0
  4  2  2  0  0  0  0
  5  3  1  6  0  0  0
  5  9  1  0  0  0  0
  6  7  1  0  0  0  0
  8 14  1  0  0  0  0
  8  7  1  1  0  0  0
  9 32  1  0  0  0  0
  9 14  2  0  0  0  0
 10  2  1  0  0  0  0
 11 17  1  6  0  0  0
 11 12  1  0  0  0  0
 11  3  1  0  0  0  0
 13 10  2  0  0  0  0
 15  4  1  6  0  0  0
 15  8  1  0  0  0  0
 16 12  1  6  0  0  0
 16  5  1  0  0  0  0
 16 15  1  0  0  0  0
 18 19  2  0  0  0  0
 19 17  1  0  0  0  0
 20 19  1  0  0  0  0
 21 20  1  0  0  0  0
 22 29  1  0  0  0  0
 22 25  1  0  0  0  0
 23 27  1  0  0  0  0
 23 24  1  0  0  0  0
 24 26  1  0  0  0  0
 25 26  2  0  0  0  0
 25 21  1  0  0  0  0
 27 22  2  0  0  0  0
 28 30  1  0  0  0  0
 28 29  1  0  0  0  0
 30 29  1  0  0  0  0
 32 31  1  0  0  0  0
 33 13  1  0  0  0  0
 34 33  1  0  0  0  0
 35 34  1  0  0  0  0
 36 35  1  0  0  0  0
 37 36  1  0  0  0  0
 38 37  1  0  0  0  0
 38 39  1  0  0  0  0
 40 38  2  0  0  0  0
 41 43  1  0  0  0  0
 42 41  2  0  0  0  0
 42 40  1  0  0  0  0
 43 37  2  0  0  0  0
 44 43  1  0  0  0  0
 44 45  2  0  0  0  0
 46 47  1  0  0  0  0
 47 40  1  0  0  0  0
M  END
>  <MODEL>
5

>  <REMARK>
 VINA RESULT:      -8.7      1.368      2.286
  Name = 
  13 active torsions:
  status: ('A' for Active; 'I' for Inactive)
    1  A    between atoms: C_2  and  C_46
    2  A    between atoms: N_4  and  C_34
    3  A    between atoms: C_5  and  C_24
    4  A    between atoms: C_6  and  C_20
    5  A    between atoms: C_7  and  C_39
    6  A    between atoms: C_7  and  C_43
    7  A    between atoms: C_11  and  C_14
    8  A    between atoms: C_11  and  C_32
    9  A    between atoms: C_14  and  C_29
   10  A    between atoms: C_24  and  C_41
   11  A    between atoms: C_25  and  O_44
   12  A    between atoms: O_27  and  C_30
   13  A    between atoms: C_41  and  C_43
                            x       y       z     vdW  Elec       q    Type
                         _______ _______ _______ _____ _____    ______ ____

>  <TORSDO>
F 13

$$$$
=
 OpenBabel10232411493D

 47 53  0  0  1  0  0  0  0  0999 V2000
  183.3390  174.8330  137.8970 S   0  0  0  0  0  0  0  0  0  0  0  0
  183.0790  175.8080  135.6080 C   0  0  0  0  0  0  0  0  0  0  0  0
  181.3230  179.3650  140.3100 C   0  0  0  0  0  2  0  0  0  0  0  0
  182.7950  176.1050  136.9390 C   0  0  0  0  0  0  0  0  0  0  0  0
  181.0630  178.8620  138.9160 C   0  0  1  0  0  3  0  0  0  0  0  0
  182.7110  176.7300  134.4740 C   0  0  0  0  0  2  0  0  0  0  0  0
  181.6590  177.7740  134.8840 C   0  0  0  0  0  2  0  0  0  0  0  0
  181.9980  178.3330  136.2610 C   0  0  1  0  0  3  0  0  0  0  0  0
  180.8860  179.8660  137.8100 C   0  0  0  0  0  0  0  0  0  0  0  0
  183.7790  174.6100  135.4270 C   0  0  0  0  0  3  0  0  0  0  0  0
  181.9310  178.1460  141.0150 C   0  0  1  0  0  3  0  0  0  0  0  0
  182.2530  177.1220  139.9210 C   0  0  0  0  0  2  0  0  0  0  0  0
  184.0160  173.9560  136.6320 C   0  0  0  0  0  0  0  0  0  0  0  0
  181.2340  179.5480  136.5900 N   0  0  0  0  0  0  0  0  0  0  0  0
  181.8870  177.2340  137.3350 C   0  0  2  0  0  3  0  0  0  0  0  0
  182.2060  177.9310  138.6480 C   0  0  1  0  0  3  0  0  0  0  0  0
  183.1580  178.5350  141.6940 N   0  0  0  0  0  2  0  0  0  0  0  0
  182.1550  178.8020  143.7880 O   0  0  0  0  0  0  0  0  0  0  0  0
  183.1940  178.8800  143.0800 C   0  0  0  0  0  0  0  0  0  0  0  0
  184.4590  179.3810  143.6790 C   0  0  0  0  0  2  0  0  0  0  0  0
  185.5950  178.4360  143.3310 C   0  0  0  0  0  2  0  0  0  0  0  0
  187.5840  177.2200  144.4800 C   0  0  0  0  0  0  0  0  0  0  0  0
  188.1110  177.9700  146.7830 C   0  0  0  0  0  2  0  0  0  0  0  0
  186.6000  178.0490  147.0170 C   0  0  0  0  0  2  0  0  0  0  0  0
  186.3410  178.0390  144.5620 C   0  0  0  0  0  0  0  0  0  0  0  0
  185.9010  178.4660  145.7540 C   0  0  0  0  0  3  0  0  0  0  0  0
  188.4090  177.1790  145.5390 C   0  0  0  0  0  3  0  0  0  0  0  0
  189.0120  177.3110  142.4310 C   0  0  0  0  0  2  0  0  0  0  0  0
  187.9690  176.5160  143.2070 C   0  0  0  0  0  3  0  0  0  0  0  0
  189.4330  176.1170  143.2530 C   0  0  0  0  0  2  0  0  0  0  0  0
  180.8090  182.3300  137.7490 C   0  0  0  0  0  1  0  0  0  0  0  0
  180.2350  181.0730  138.0730 O   0  0  0  0  0  0  0  0  0  0  0  0
  184.6660  172.6190  136.7860 C   0  0  0  0  0  2  0  0  0  0  0  0
  186.0120  172.5590  136.0730 C   0  0  0  0  0  2  0  0  0  0  0  0
  187.0990  173.2450  136.8850 C   0  0  0  0  0  2  0  0  0  0  0  0
  187.7020  174.3980  136.0990 C   0  0  0  0  0  2  0  0  0  0  0  0
  188.3640  175.3660  137.0320 C   0  0  0  0  0  0  0  0  0  0  0  0
  187.6090  176.4600  137.5030 C   0  0  0  0  0  0  0  0  0  0  0  0
  186.2770  176.5790  137.1160 O   0  0  0  0  0  1  0  0  0  0  0  0
  188.2030  177.4190  138.3560 C   0  0  0  0  0  0  0  0  0  0  0  0
  190.2910  176.1950  138.2500 C   0  0  0  0  0  3  0  0  0  0  0  0
  189.5430  177.2720  138.7130 C   0  0  0  0  0  3  0  0  0  0  0  0
  189.7240  175.2300  137.4170 C   0  0  0  0  0  0  0  0  0  0  0  0
  190.6200  174.1290  137.0090 C   0  0  0  0  0  3  0  0  0  0  0  0
  191.9250  174.0750  137.2450 C   0  0  0  0  0  2  0  0  0  0  0  0
  186.5450  178.4840  139.8990 C   0  0  0  0  0  1  0  0  0  0  0  0
  187.5230  178.5320  138.8720 O   0  0  0  0  0  0  0  0  0  0  0  0
  2  4  2  0  0  0  0
  3 11  1  0  0  0  0
  4  1  1  0  0  0  0
  5  3  1  1  0  0  0
  6  7  1  0  0  0  0
  6  2  1  0  0  0  0
  8  7  1  6  0  0  0
  8 14  1  0  0  0  0
  8 15  1  0  0  0  0
  9 32  1  0  0  0  0
  9  5  1  0  0  0  0
 10  2  1  0  0  0  0
 10 13  2  0  0  0  0
 11 17  1  6  0  0  0
 12 11  1  0  0  0  0
 13 33  1  0  0  0  0
 13  1  1  0  0  0  0
 14  9  2  0  0  0  0
 15  4  1  6  0  0  0
 15 16  1  0  0  0  0
 16  5  1  0  0  0  0
 16 12  1  1  0  0  0
 17 19  1  0  0  0  0
 19 20  1  0  0  0  0
 19 18  2  0  0  0  0
 21 20  1  0  0  0  0
 21 25  1  0  0  0  0
 22 25  1  0  0  0  0
 22 27  2  0  0  0  0
 23 24  1  0  0  0  0
 25 26  2  0  0  0  0
 26 24  1  0  0  0  0
 27 23  1  0  0  0  0
 28 29  1  0  0  0  0
 28 30  1  0  0  0  0
 29 30  1  0  0  0  0
 29 22  1  0  0  0  0
 31 32  1  0  0  0  0
 34 33  1  0  0  0  0
 34 35  1  0  0  0  0
 36 35  1  0  0  0  0
 36 37  1  0  0  0  0
 37 43  2  0  0  0  0
 37 38  1  0  0  0  0
 38 40  2  0  0  0  0
 39 38  1  0  0  0  0
 40 42  1  0  0  0  0
 40 47  1  0  0  0  0
 41 42  2  0  0  0  0
 43 41  1  0  0  0  0
 44 45  2  0  0  0  0
 44 43  1  0  0  0  0
 47 46  1  0  0  0  0
M  END
>  <MODEL>
6

>  <REMARK>
 VINA RESULT:      -8.5      3.056      9.498
  Name = 
  13 active torsions:
  status: ('A' for Active; 'I' for Inactive)
    1  A    between atoms: C_2  and  C_46
    2  A    between atoms: N_4  and  C_34
    3  A    between atoms: C_5  and  C_24
    4  A    between atoms: C_6  and  C_20
    5  A    between atoms: C_7  and  C_39
    6  A    between atoms: C_7  and  C_43
    7  A    between atoms: C_11  and  C_14
    8  A    between atoms: C_11  and  C_32
    9  A    between atoms: C_14  and  C_29
   10  A    between atoms: C_24  and  C_41
   11  A    between atoms: C_25  and  O_44
   12  A    between atoms: O_27  and  C_30
   13  A    between atoms: C_41  and  C_43
                            x       y       z     vdW  Elec       q    Type
                         _______ _______ _______ _____ _____    ______ ____

>  <TORSDO>
F 13

$$$$
=
 OpenBabel10232411493D

 47 53  0  0  1  0  0  0  0  0999 V2000
  186.0600  177.6280  143.4800 S   0  0  0  0  0  0  0  0  0  0  0  0
  185.9330  178.6320  145.7680 C   0  0  0  0  0  0  0  0  0  0  0  0
  191.3330  176.1630  144.1610 C   0  0  0  0  0  2  0  0  0  0  0  0
  186.8120  177.9160  144.9580 C   0  0  0  0  0  0  0  0  0  0  0  0
  190.2860  176.3780  145.2190 C   0  0  1  0  0  3  0  0  0  0  0  0
  186.2820  179.0470  147.1750 C   0  0  0  0  0  2  0  0  0  0  0  0
  187.4780  178.2630  147.7390 C   0  0  0  0  0  2  0  0  0  0  0  0
  188.5620  178.1400  146.6750 C   0  0  1  0  0  3  0  0  0  0  0  0
  190.7040  176.9680  146.5370 C   0  0  0  0  0  0  0  0  0  0  0  0
  184.7290  178.9730  145.1430 C   0  0  0  0  0  3  0  0  0  0  0  0
  190.5110  176.0500  142.8710 C   0  0  1  0  0  3  0  0  0  0  0  0
  189.0860  176.4940  143.2190 C   0  0  0  0  0  2  0  0  0  0  0  0
  184.6610  178.4910  143.8390 C   0  0  0  0  0  0  0  0  0  0  0  0
  189.8520  177.6870  147.2200 N   0  0  0  0  0  0  0  0  0  0  0  0
  188.0660  177.2860  145.4920 C   0  0  2  0  0  3  0  0  0  0  0  0
  189.2460  177.2130  144.5360 C   0  0  1  0  0  3  0  0  0  0  0  0
  191.0640  176.9370  141.8580 N   0  0  0  0  0  2  0  0  0  0  0  0
  190.1310  175.7870  140.0500 O   0  0  0  0  0  0  0  0  0  0  0  0
  190.8600  176.7300  140.4600 C   0  0  0  0  0  0  0  0  0  0  0  0
  191.5520  177.6070  139.4790 C   0  0  0  0  0  2  0  0  0  0  0  0
  192.8120  176.9210  138.9840 C   0  0  0  0  0  2  0  0  0  0  0  0
  193.4930  175.1930  137.1660 C   0  0  0  0  0  0  0  0  0  0  0  0
  191.6660  174.4350  135.6720 C   0  0  0  0  0  2  0  0  0  0  0  0
  191.1760  175.8860  135.6680 C   0  0  0  0  0  2  0  0  0  0  0  0
  192.5570  176.2310  137.6850 C   0  0  0  0  0  0  0  0  0  0  0  0
  191.4430  176.5260  137.0010 C   0  0  0  0  0  3  0  0  0  0  0  0
  193.0710  174.3570  136.2030 C   0  0  0  0  0  3  0  0  0  0  0  0
  194.9820  173.6730  138.4760 C   0  0  0  0  0  2  0  0  0  0  0  0
  194.8630  175.0130  137.7630 C   0  0  0  0  0  3  0  0  0  0  0  0
  195.5730  173.8470  137.0980 C   0  0  0  0  0  2  0  0  0  0  0  0
  192.2060  175.3790  147.6770 C   0  0  0  0  0  1  0  0  0  0  0  0
  191.9500  176.6380  147.0760 O   0  0  0  0  0  0  0  0  0  0  0  0
  183.4860  178.6100  142.9250 C   0  0  0  0  0  2  0  0  0  0  0  0
  183.8140  178.1260  141.5170 C   0  0  0  0  0  2  0  0  0  0  0  0
  184.7890  179.0630  140.8230 C   0  0  0  0  0  2  0  0  0  0  0  0
  184.2380  179.5010  139.4750 C   0  0  0  0  0  2  0  0  0  0  0  0
  184.3850  178.3940  138.4750 C   0  0  0  0  0  0  0  0  0  0  0  0
  185.6780  178.0860  138.0060 C   0  0  0  0  0  0  0  0  0  0  0  0
  186.7670  178.7920  138.5130 O   0  0  0  0  0  1  0  0  0  0  0  0
  185.8600  177.0750  137.0350 C   0  0  0  0  0  0  0  0  0  0  0  0
  183.4670  176.6990  137.0030 C   0  0  0  0  0  3  0  0  0  0  0  0
  184.7450  176.3970  136.5430 C   0  0  0  0  0  3  0  0  0  0  0  0
  183.2630  177.6850  137.9690 C   0  0  0  0  0  0  0  0  0  0  0  0
  181.8610  177.8970  138.3830 C   0  0  0  0  0  3  0  0  0  0  0  0
  181.1730  179.0190  138.2150 C   0  0  0  0  0  2  0  0  0  0  0  0
  187.8150  177.4040  135.5060 C   0  0  0  0  0  1  0  0  0  0  0  0
  187.1110  176.7040  136.5200 O   0  0  0  0  0  0  0  0  0  0  0  0
  1 13  1  0  0  0  0
  1  4  1  0  0  0  0
  2  6  1  0  0  0  0
  4  2  2  0  0  0  0
  5  3  1  6  0  0  0
  5  9  1  0  0  0  0
  6  7  1  0  0  0  0
  8 14  1  0  0  0  0
  8  7  1  1  0  0  0
  9 32  1  0  0  0  0
  9 14  2  0  0  0  0
 10  2  1  0  0  0  0
 11 17  1  6  0  0  0
 11 12  1  0  0  0  0
 11  3  1  0  0  0  0
 13 10  2  0  0  0  0
 15  4  1  6  0  0  0
 15  8  1  0  0  0  0
 16 12  1  6  0  0  0
 16  5  1  0  0  0  0
 16 15  1  0  0  0  0
 18 19  2  0  0  0  0
 19 17  1  0  0  0  0
 20 19  1  0  0  0  0
 21 20  1  0  0  0  0
 22 25  1  0  0  0  0
 22 29  1  0  0  0  0
 23 27  1  0  0  0  0
 24 23  1  0  0  0  0
 24 26  1  0  0  0  0
 25 21  1  0  0  0  0
 26 25  2  0  0  0  0
 27 22  2  0  0  0  0
 29 28  1  0  0  0  0
 30 29  1  0  0  0  0
 30 28  1  0  0  0  0
 32 31  1  0  0  0  0
 33 13  1  0  0  0  0
 34 33  1  0  0  0  0
 35 34  1  0  0  0  0
 36 35  1  0  0  0  0
 37 36  1  0  0  0  0
 38 37  1  0  0  0  0
 38 39  1  0  0  0  0
 40 38  2  0  0  0  0
 41 43  1  0  0  0  0
 42 41  2  0  0  0  0
 42 40  1  0  0  0  0
 43 44  1  0  0  0  0
 43 37  2  0  0  0  0
 45 44  2  0  0  0  0
 46 47  1  0  0  0  0
 47 40  1  0  0  0  0
M  END
>  <MODEL>
7

>  <REMARK>
 VINA RESULT:      -8.4      1.188      2.088
  Name = 
  13 active torsions:
  status: ('A' for Active; 'I' for Inactive)
    1  A    between atoms: C_2  and  C_46
    2  A    between atoms: N_4  and  C_34
    3  A    between atoms: C_5  and  C_24
    4  A    between atoms: C_6  and  C_20
    5  A    between atoms: C_7  and  C_39
    6  A    between atoms: C_7  and  C_43
    7  A    between atoms: C_11  and  C_14
    8  A    between atoms: C_11  and  C_32
    9  A    between atoms: C_14  and  C_29
   10  A    between atoms: C_24  and  C_41
   11  A    between atoms: C_25  and  O_44
   12  A    between atoms: O_27  and  C_30
   13  A    between atoms: C_41  and  C_43
                            x       y       z     vdW  Elec       q    Type
                         _______ _______ _______ _____ _____    ______ ____

>  <TORSDO>
F 13

$$$$
=
 OpenBabel10232411493D

 47 53  0  0  1  0  0  0  0  0999 V2000
  184.7010  179.1150  143.2580 S   0  0  0  0  0  0  0  0  0  0  0  0
  182.3230  178.7840  143.9600 C   0  0  0  0  0  0  0  0  0  0  0  0
  183.4460  178.5540  137.9160 C   0  0  0  0  0  2  0  0  0  0  0  0
  183.0940  178.9030  142.8060 C   0  0  0  0  0  0  0  0  0  0  0  0
  182.5500  179.0040  139.0370 C   0  0  1  0  0  3  0  0  0  0  0  0
  180.8280  178.5980  143.9220 C   0  0  0  0  0  2  0  0  0  0  0  0
  180.2240  178.9680  142.5560 C   0  0  0  0  0  2  0  0  0  0  0  0
  181.1050  178.4200  141.4390 C   0  0  1  0  0  3  0  0  0  0  0  0
  181.0990  178.6140  139.0010 C   0  0  0  0  0  0  0  0  0  0  0  0
  183.0650  178.8000  145.1460 C   0  0  0  0  0  3  0  0  0  0  0  0
  184.8510  178.6780  138.5180 C   0  0  1  0  0  3  0  0  0  0  0  0
  184.6660  178.9070  140.0220 C   0  0  0  0  0  2  0  0  0  0  0  0
  184.4270  178.9620  144.9100 C   0  0  0  0  0  0  0  0  0  0  0  0
  180.4460  178.4540  140.1230 N   0  0  0  0  0  0  0  0  0  0  0  0
  182.4840  179.1060  141.4480 C   0  0  2  0  0  3  0  0  0  0  0  0
  183.2340  178.5010  140.2720 C   0  0  1  0  0  3  0  0  0  0  0  0
  185.5880  177.4420  138.3010 N   0  0  0  0  0  2  0  0  0  0  0  0
  186.9230  178.2990  136.5850 O   0  0  0  0  0  0  0  0  0  0  0  0
  186.5930  177.3120  137.2950 C   0  0  0  0  0  0  0  0  0  0  0  0
  187.2220  175.9870  137.0520 C   0  0  0  0  0  2  0  0  0  0  0  0
  186.2170  174.8870  137.3430 C   0  0  0  0  0  2  0  0  0  0  0  0
  185.6990  172.4580  136.5760 C   0  0  0  0  0  0  0  0  0  0  0  0
  187.2030  171.5420  134.8320 C   0  0  0  0  0  2  0  0  0  0  0  0
  188.3520  172.2290  135.5760 C   0  0  0  0  0  2  0  0  0  0  0  0
  186.6400  173.6080  136.7000 C   0  0  0  0  0  0  0  0  0  0  0  0
  187.8760  173.5150  136.1900 C   0  0  0  0  0  3  0  0  0  0  0  0
  185.9780  171.4770  135.7020 C   0  0  0  0  0  3  0  0  0  0  0  0
  183.2390  172.8890  136.4830 C   0  0  0  0  0  2  0  0  0  0  0  0
  184.4050  172.4260  137.3450 C   0  0  0  0  0  3  0  0  0  0  0  0
  183.4550  171.4150  136.7280 C   0  0  0  0  0  2  0  0  0  0  0  0
  180.0220  177.3240  137.1950 C   0  0  0  0  0  1  0  0  0  0  0  0
  180.4320  178.5530  137.7750 O   0  0  0  0  0  0  0  0  0  0  0  0
  185.4830  179.0990  145.9570 C   0  0  0  0  0  2  0  0  0  0  0  0
  186.3780  177.8670  146.0230 C   0  0  0  0  0  2  0  0  0  0  0  0
  187.6980  178.1020  145.3080 C   0  0  0  0  0  2  0  0  0  0  0  0
  188.3740  176.7790  144.9900 C   0  0  0  0  0  2  0  0  0  0  0  0
  189.5010  176.9940  144.0260 C   0  0  0  0  0  0  0  0  0  0  0  0
  189.2020  177.0310  142.6490 C   0  0  0  0  0  0  0  0  0  0  0  0
  187.8760  176.9020  142.2410 O   0  0  0  0  0  1  0  0  0  0  0  0
  190.2380  177.1950  141.7000 C   0  0  0  0  0  0  0  0  0  0  0  0
  191.8540  177.2730  143.5040 C   0  0  0  0  0  3  0  0  0  0  0  0
  191.5540  177.3090  142.1460 C   0  0  0  0  0  3  0  0  0  0  0  0
  190.8470  177.1230  144.4590 C   0  0  0  0  0  0  0  0  0  0  0  0
  191.2960  177.1160  145.8670 C   0  0  0  0  0  3  0  0  0  0  0  0
  191.9810  176.1400  146.4480 C   0  0  0  0  0  2  0  0  0  0  0  0
  191.0020  176.9440  139.3300 C   0  0  0  0  0  1  0  0  0  0  0  0
  190.0260  177.2470  140.3140 O   0  0  0  0  0  0  0  0  0  0  0  0
  1 13  1  0  0  0  0
  2 10  1  0  0  0  0
  3 11  1  0  0  0  0
  4  1  1  0  0  0  0
  4  2  2  0  0  0  0
  5  3  1  6  0  0  0
  5 16  1  0  0  0  0
  6  2  1  0  0  0  0
  7  6  1  0  0  0  0
  8 15  1  0  0  0  0
  8  7  1  1  0  0  0
  9  5  1  0  0  0  0
  9 14  2  0  0  0  0
 11 17  1  1  0  0  0
 11 12  1  0  0  0  0
 13 10  2  0  0  0  0
 13 33  1  0  0  0  0
 14  8  1  0  0  0  0
 15  4  1  1  0  0  0
 16 12  1  6  0  0  0
 16 15  1  0  0  0  0
 18 19  2  0  0  0  0
 19 17  1  0  0  0  0
 20 19  1  0  0  0  0
 20 21  1  0  0  0  0
 22 25  1  0  0  0  0
 22 29  1  0  0  0  0
 23 24  1  0  0  0  0
 23 27  1  0  0  0  0
 24 26  1  0  0  0  0
 25 21  1  0  0  0  0
 26 25  2  0  0  0  0
 27 22  2  0  0  0  0
 28 30  1  0  0  0  0
 28 29  1  0  0  0  0
 30 29  1  0  0  0  0
 31 32  1  0  0  0  0
 32  9  1  0  0  0  0
 33 34  1  0  0  0  0
 35 34  1  0  0  0  0
 36 35  1  0  0  0  0
 37 43  1  0  0  0  0
 37 36  1  0  0  0  0
 38 37  2  0  0  0  0
 39 38  1  0  0  0  0
 40 42  2  0  0  0  0
 40 38  1  0  0  0  0
 41 43  2  0  0  0  0
 42 41  1  0  0  0  0
 43 44  1  0  0  0  0
 44 45  2  0  0  0  0
 46 47  1  0  0  0  0
 47 40  1  0  0  0  0
M  END
>  <MODEL>
8

>  <REMARK>
 VINA RESULT:      -8.4      2.736      7.745
  Name = 
  13 active torsions:
  status: ('A' for Active; 'I' for Inactive)
    1  A    between atoms: C_2  and  C_46
    2  A    between atoms: N_4  and  C_34
    3  A    between atoms: C_5  and  C_24
    4  A    between atoms: C_6  and  C_20
    5  A    between atoms: C_7  and  C_39
    6  A    between atoms: C_7  and  C_43
    7  A    between atoms: C_11  and  C_14
    8  A    between atoms: C_11  and  C_32
    9  A    between atoms: C_14  and  C_29
   10  A    between atoms: C_24  and  C_41
   11  A    between atoms: C_25  and  O_44
   12  A    between atoms: O_27  and  C_30
   13  A    between atoms: C_41  and  C_43
                            x       y       z     vdW  Elec       q    Type
                         _______ _______ _______ _____ _____    ______ ____

>  <TORSDO>
F 13

$$$$
=
 OpenBabel10232411493D

 47 53  0  0  1  0  0  0  0  0999 V2000
  188.0310  174.9880  136.7330 S   0  0  0  0  0  0  0  0  0  0  0  0
  189.2890  173.1790  135.5500 C   0  0  0  0  0  0  0  0  0  0  0  0
  192.5760  176.8050  139.2760 C   0  0  0  0  0  2  0  0  0  0  0  0
  189.5120  174.2660  136.3920 C   0  0  0  0  0  0  0  0  0  0  0  0
  192.4770  176.0580  137.9750 C   0  0  1  0  0  3  0  0  0  0  0  0
  190.4070  172.3110  135.0310 C   0  0  0  0  0  2  0  0  0  0  0  0
  191.7850  172.9790  135.1760 C   0  0  0  0  0  2  0  0  0  0  0  0
  191.8910  173.6500  136.5400 C   0  0  1  0  0  3  0  0  0  0  0  0
  193.5580  175.0730  137.6250 C   0  0  0  0  0  0  0  0  0  0  0  0
  187.9390  172.9380  135.2740 C   0  0  0  0  0  3  0  0  0  0  0  0
  191.1390  177.2860  139.5150 C   0  0  1  0  0  3  0  0  0  0  0  0
  190.2560  176.5480  138.5040 C   0  0  0  0  0  2  0  0  0  0  0  0
  187.1050  173.8670  135.8890 C   0  0  0  0  0  0  0  0  0  0  0  0
  193.2690  174.0360  136.8830 N   0  0  0  0  0  0  0  0  0  0  0  0
  190.8870  174.8130  136.6520 C   0  0  2  0  0  3  0  0  0  0  0  0
  191.1270  175.4100  138.0300 C   0  0  1  0  0  3  0  0  0  0  0  0
  190.7250  176.9410  140.8670 N   0  0  0  0  0  2  0  0  0  0  0  0
  188.6550  178.0160  140.7260 O   0  0  0  0  0  0  0  0  0  0  0  0
  189.4790  177.3650  141.4220 C   0  0  0  0  0  0  0  0  0  0  0  0
  189.1740  177.0750  142.8480 C   0  0  0  0  0  2  0  0  0  0  0  0
  189.7020  178.2000  143.7200 C   0  0  0  0  0  2  0  0  0  0  0  0
  188.7490  177.6980  146.0850 C   0  0  0  0  0  0  0  0  0  0  0  0
  190.0910  176.1440  147.4730 C   0  0  0  0  0  2  0  0  0  0  0  0
  191.3320  176.8540  146.9260 C   0  0  0  0  0  2  0  0  0  0  0  0
  189.8890  177.7300  145.1240 C   0  0  0  0  0  0  0  0  0  0  0  0
  191.0960  177.2910  145.5080 C   0  0  0  0  0  3  0  0  0  0  0  0
  188.8570  176.9590  147.2000 C   0  0  0  0  0  3  0  0  0  0  0  0
  186.3660  177.4190  145.3870 C   0  0  0  0  0  2  0  0  0  0  0  0
  187.4560  178.4060  145.7810 C   0  0  0  0  0  3  0  0  0  0  0  0
  186.3890  177.9980  146.7810 C   0  0  0  0  0  2  0  0  0  0  0  0
  195.6090  174.5060  138.8720 C   0  0  0  0  0  1  0  0  0  0  0  0
  194.8800  175.3430  137.9880 O   0  0  0  0  0  0  0  0  0  0  0  0
  185.6210  173.9430  135.7360 C   0  0  0  0  0  2  0  0  0  0  0  0
  184.9520  174.5050  136.9850 C   0  0  0  0  0  2  0  0  0  0  0  0
  183.8020  175.4320  136.6260 C   0  0  0  0  0  2  0  0  0  0  0  0
  184.3220  176.8210  136.2950 C   0  0  0  0  0  2  0  0  0  0  0  0
  183.8960  177.7960  137.3500 C   0  0  0  0  0  0  0  0  0  0  0  0
  184.8450  178.1920  138.3140 C   0  0  0  0  0  0  0  0  0  0  0  0
  186.1430  177.6950  138.2290 O   0  0  0  0  0  1  0  0  0  0  0  0
  184.4780  179.0810  139.3510 C   0  0  0  0  0  0  0  0  0  0  0  0
  182.2260  179.1610  138.4610 C   0  0  0  0  0  3  0  0  0  0  0  0
  183.1660  179.5500  139.4100 C   0  0  0  0  0  3  0  0  0  0  0  0
  182.5670  178.2930  137.4230 C   0  0  0  0  0  0  0  0  0  0  0  0
  181.4820  177.9720  136.4730 C   0  0  0  0  0  3  0  0  0  0  0  0
  180.7480  178.8630  135.8190 C   0  0  0  0  0  2  0  0  0  0  0  0
  185.3600  179.0870  141.6930 C   0  0  0  0  0  1  0  0  0  0  0  0
  185.3610  179.5290  140.3450 O   0  0  0  0  0  0  0  0  0  0  0  0
  2  4  2  0  0  0  0
  3 11  1  0  0  0  0
  4  1  1  0  0  0  0
  5 16  1  0  0  0  0
  5  3  1  1  0  0  0
  6  7  1  0  0  0  0
  6  2  1  0  0  0  0
  8  7  1  6  0  0  0
  8 15  1  0  0  0  0
  8 14  1  0  0  0  0
  9  5  1  0  0  0  0
  9 32  1  0  0  0  0
 10  2  1  0  0  0  0
 10 13  2  0  0  0  0
 11 17  1  1  0  0  0
 12 11  1  0  0  0  0
 13  1  1  0  0  0  0
 14  9  2  0  0  0  0
 15  4  1  1  0  0  0
 15 16  1  0  0  0  0
 16 12  1  6  0  0  0
 17 19  1  0  0  0  0
 18 19  2  0  0  0  0
 19 20  1  0  0  0  0
 20 21  1  0  0  0  0
 21 25  1  0  0  0  0
 22 27  2  0  0  0  0
 24 23  1  0  0  0  0
 25 26  2  0  0  0  0
 25 22  1  0  0  0  0
 26 24  1  0  0  0  0
 27 23  1  0  0  0  0
 28 29  1  0  0  0  0
 28 30  1  0  0  0  0
 29 22  1  0  0  0  0
 29 30  1  0  0  0  0
 32 31  1  0  0  0  0
 33 13  1  0  0  0  0
 33 34  1  0  0  0  0
 35 34  1  0  0  0  0
 36 35  1  0  0  0  0
 36 37  1  0  0  0  0
 37 43  2  0  0  0  0
 37 38  1  0  0  0  0
 38 40  2  0  0  0  0
 39 38  1  0  0  0  0
 40 42  1  0  0  0  0
 40 47  1  0  0  0  0
 41 42  2  0  0  0  0
 43 41  1  0  0  0  0
 44 43  1  0  0  0  0
 45 44  2  0  0  0  0
 47 46  1  0  0  0  0
M  END
>  <MODEL>
9

>  <REMARK>
 VINA RESULT:      -8.3      2.311      7.974
  Name = 
  13 active torsions:
  status: ('A' for Active; 'I' for Inactive)
    1  A    between atoms: C_2  and  C_46
    2  A    between atoms: N_4  and  C_34
    3  A    between atoms: C_5  and  C_24
    4  A    between atoms: C_6  and  C_20
    5  A    between atoms: C_7  and  C_39
    6  A    between atoms: C_7  and  C_43
    7  A    between atoms: C_11  and  C_14
    8  A    between atoms: C_11  and  C_32
    9  A    between atoms: C_14  and  C_29
   10  A    between atoms: C_24  and  C_41
   11  A    between atoms: C_25  and  O_44
   12  A    between atoms: O_27  and  C_30
   13  A    between atoms: C_41  and  C_43
                            x       y       z     vdW  Elec       q    Type
                         _______ _______ _______ _____ _____    ______ ____

>  <TORSDO>
F 13

$$$$
