=
 OpenBabel10232410323D

 43 48  0  0  1  0  0  0  0  0999 V2000
  187.8660  178.0790  141.5370 C   0  0  0  0  0  3  0  0  0  0  0  0
  189.5890  177.8430  139.7800 C   0  0  1  0  0  3  0  0  0  0  0  0
  188.8100  178.4050  137.5690 F   0  0  0  0  0  0  0  0  0  0  0  0
  188.4210  177.8260  138.7610 C   0  0  2  0  0  3  0  0  0  0  0  0
  187.2260  178.5040  139.2600 N   0  0  0  0  0  0  0  0  0  0  0  0
  185.7070  179.1800  140.9410 N   0  0  0  0  0  2  0  0  0  0  0  0
  186.9250  178.5670  140.5210 C   0  0  0  0  0  0  0  0  0  0  0  0
  189.1130  177.7060  141.2220 C   0  0  0  0  0  0  0  0  0  0  0  0
  192.2500  173.6060  136.1540 C   0  0  0  0  0  2  0  0  0  0  0  0
  190.1900  175.9630  138.3700 C   0  0  0  0  0  2  0  0  0  0  0  0
  191.7880  177.5400  139.0410 N   0  0  0  0  0  2  0  0  0  0  0  0
  193.3390  173.4510  137.1290 N   0  0  2  0  0  0  0  0  0  0  0  0
  190.9730  174.1190  136.8400 C   0  0  0  0  0  2  0  0  0  0  0  0
  191.3000  174.9710  138.0630 C   0  0  1  0  0  3  0  0  0  0  0  0
  193.7660  174.7850  137.5980 C   0  0  0  0  0  2  0  0  0  0  0  0
  192.8480  176.6130  138.9830 N   0  0  0  0  0  2  0  0  0  0  0  0
  192.5920  175.7440  137.8380 C   0  0  2  0  0  3  0  0  0  0  0  0
  190.6280  176.8500  139.4580 N   0  0  1  0  0  0  0  0  0  0  0  0
  195.6110  170.9150  137.3700 S   0  0  0  0  0  0  0  0  0  0  0  0
  195.1730  170.2560  138.6470 O   0  0  0  0  0  0  0  0  0  0  0  0
  196.7790  170.2440  136.7030 O   0  0  0  0  0  0  0  0  0  0  0  0
  194.4820  172.8380  136.4490 C   0  0  2  0  0  3  0  0  0  0  0  0
  194.2830  171.3210  136.2800 C   0  0  0  0  0  2  0  0  0  0  0  0
  195.6600  172.6860  137.4230 C   0  0  2  0  0  3  0  0  0  0  0  0
  196.9260  173.2260  136.7760 C   0  0  0  0  0  2  0  0  0  0  0  0
  197.2990  174.4610  138.8740 C   0  0  0  0  0  2  0  0  0  0  0  0
  197.2800  174.5770  137.3640 C   0  0  0  0  0  3  0  0  0  0  0  0
  198.5980  174.4630  138.1030 C   0  0  0  0  0  2  0  0  0  0  0  0
  190.0380  177.3150  142.3200 C   0  0  0  0  0  0  0  0  0  0  0  0
  191.5860  177.9170  144.1020 C   0  0  0  0  0  3  0  0  0  0  0  0
  191.0970  175.5860  143.6720 C   0  0  0  0  0  3  0  0  0  0  0  0
  190.2330  175.9590  142.6390 C   0  0  0  0  0  3  0  0  0  0  0  0
  191.7760  176.5650  144.4010 C   0  0  0  0  0  3  0  0  0  0  0  0
  190.7190  178.2880  143.0710 C   0  0  0  0  0  3  0  0  0  0  0  0
  184.7560  179.6140  140.0050 N   0  0  0  0  0  2  0  0  0  0  0  0
  183.4930  179.3500  140.5560 N   0  0  0  0  0  2  0  0  0  0  0  0
  183.6870  178.3840  141.6240 C   0  0  0  0  0  2  0  0  0  0  0  0
  182.9300  178.8310  142.8610 C   0  0  0  0  0  2  0  0  0  0  0  0
  183.8870  178.9860  144.0320 C   0  0  2  0  0  3  0  0  0  0  0  0
  184.5190  180.2290  143.9640 O   0  0  0  0  0  1  0  0  0  0  0  0
  184.8450  177.9710  143.9870 O   0  0  0  0  0  0  0  0  0  0  0  0
  186.9810  177.4350  144.8830 C   0  0  0  0  0  1  0  0  0  0  0  0
  185.7180  178.2570  145.0400 C   0  0  0  0  0  2  0  0  0  0  0  0
  2  8  1  1  0  0  0
  4  3  1  6  0  0  0
  4  5  1  0  0  0  0
  4  2  1  0  0  0  0
  5  7  2  0  0  0  0
  7  6  1  0  0  0  0
  7  1  1  0  0  0  0
  8  1  2  0  0  0  0
  8 29  1  0  0  0  0
  9 13  1  0  0  0  0
 11 18  1  0  0  0  0
 12  9  1  6  0  0  0
 12 15  1  0  0  0  0
 14 13  1  6  0  0  0
 14 10  1  0  0  0  0
 16 11  1  0  0  0  0
 17 15  1  1  0  0  0
 17 14  1  0  0  0  0
 17 16  1  0  0  0  0
 18 10  1  6  0  0  0
 18  2  1  0  0  0  0
 19 24  1  0  0  0  0
 19 20  2  0  0  0  0
 21 19  2  0  0  0  0
 22 23  1  1  0  0  0
 22 12  1  0  0  0  0
 22 24  1  0  0  0  0
 23 19  1  0  0  0  0
 24 25  1  6  0  0  0
 25 27  1  0  0  0  0
 27 28  1  0  0  0  0
 27 26  1  0  0  0  0
 28 26  1  0  0  0  0
 29 32  2  0  0  0  0
 29 34  1  0  0  0  0
 30 33  1  0  0  0  0
 31 33  2  0  0  0  0
 32 31  1  0  0  0  0
 34 30  2  0  0  0  0
 35 36  1  0  0  0  0
 35  6  1  0  0  0  0
 36 37  1  0  0  0  0
 37 38  1  0  0  0  0
 38 39  1  0  0  0  0
 39 40  1  6  0  0  0
 41 39  1  0  0  0  0
 41 43  1  0  0  0  0
 42 43  1  0  0  0  0
M  END
>  <MODEL>
1

>  <REMARK>
 VINA RESULT:      -7.8      0.000      0.000
  Name = 
  12 active torsions:
  status: ('A' for Active; 'I' for Inactive)
    1  A    between atoms: C_3  and  C_29
    2  A    between atoms: C_5  and  N_43
    3  A    between atoms: N_10  and  C_23
    4  A    between atoms: N_17  and  N_26
    5  A    between atoms: C_22  and  C_24
    6  A    between atoms: C_22  and  C_39
    7  A    between atoms: C_24  and  O_38
    8  A    between atoms: N_26  and  N_34
    9  A    between atoms: C_28  and  C_36
   10  A    between atoms: C_31  and  O_38
   11  A    between atoms: N_34  and  C_39
   12  A    between atoms: C_35  and  C_36
                            x       y       z     vdW  Elec       q    Type
                         _______ _______ _______ _____ _____    ______ ____

>  <TORSDO>
F 12

$$$$
=
 OpenBabel10232410323D

 43 48  0  0  1  0  0  0  0  0999 V2000
  187.7240  178.1140  141.3310 C   0  0  0  0  0  3  0  0  0  0  0  0
  189.4010  177.8190  139.5390 C   0  0  1  0  0  3  0  0  0  0  0  0
  188.5870  178.3780  137.3400 F   0  0  0  0  0  0  0  0  0  0  0  0
  188.2110  177.8200  138.5460 C   0  0  2  0  0  3  0  0  0  0  0  0
  187.0440  178.5320  139.0630 N   0  0  0  0  0  0  0  0  0  0  0  0
  185.5790  179.2600  140.7700 N   0  0  0  0  0  2  0  0  0  0  0  0
  186.7720  178.6140  140.3300 C   0  0  0  0  0  0  0  0  0  0  0  0
  188.9540  177.7080  140.9920 C   0  0  0  0  0  0  0  0  0  0  0  0
  191.8230  173.4130  135.9490 C   0  0  0  0  0  2  0  0  0  0  0  0
  189.9070  175.8810  138.1720 C   0  0  0  0  0  2  0  0  0  0  0  0
  191.5570  177.4550  138.7080 N   0  0  0  0  0  2  0  0  0  0  0  0
  192.9560  173.2760  136.8760 N   0  0  2  0  0  0  0  0  0  0  0  0
  190.5880  173.9700  136.6750 C   0  0  0  0  0  2  0  0  0  0  0  0
  190.9860  174.8600  137.8500 C   0  0  1  0  0  3  0  0  0  0  0  0
  193.4240  174.6180  137.2740 C   0  0  0  0  0  2  0  0  0  0  0  0
  192.6000  176.5090  138.6330 N   0  0  0  0  0  2  0  0  0  0  0  0
  192.2770  175.6040  137.5340 C   0  0  2  0  0  3  0  0  0  0  0  0
  190.4090  176.7990  139.2040 N   0  0  1  0  0  0  0  0  0  0  0  0
  195.4230  170.9440  137.2330 S   0  0  0  0  0  0  0  0  0  0  0  0
  195.1840  170.4860  138.6450 O   0  0  0  0  0  0  0  0  0  0  0  0
  196.5540  170.2340  136.5410 O   0  0  0  0  0  0  0  0  0  0  0  0
  194.0560  172.6200  136.1650 C   0  0  2  0  0  3  0  0  0  0  0  0
  193.9520  171.0880  136.2680 C   0  0  0  0  0  2  0  0  0  0  0  0
  195.3460  172.6990  136.9950 C   0  0  2  0  0  3  0  0  0  0  0  0
  196.4850  173.1900  136.1160 C   0  0  0  0  0  2  0  0  0  0  0  0
  198.4540  174.6650  135.9930 C   0  0  0  0  0  2  0  0  0  0  0  0
  197.2040  174.3440  136.7860 C   0  0  0  0  0  3  0  0  0  0  0  0
  197.2240  175.5280  135.8400 C   0  0  0  0  0  2  0  0  0  0  0  0
  189.8940  177.3060  142.0740 C   0  0  0  0  0  0  0  0  0  0  0  0
  191.6250  177.8650  143.6930 C   0  0  0  0  0  3  0  0  0  0  0  0
  190.8090  175.5920  143.5430 C   0  0  0  0  0  3  0  0  0  0  0  0
  189.9320  175.9740  142.5250 C   0  0  0  0  0  3  0  0  0  0  0  0
  191.6580  176.5370  144.1250 C   0  0  0  0  0  3  0  0  0  0  0  0
  190.7450  178.2480  142.6770 C   0  0  0  0  0  3  0  0  0  0  0  0
  184.6170  179.7080  139.8520 N   0  0  0  0  0  2  0  0  0  0  0  0
  183.5440  178.8070  139.9130 N   0  0  0  0  0  2  0  0  0  0  0  0
  183.2700  178.3760  138.5530 C   0  0  0  0  0  2  0  0  0  0  0  0
  183.6700  176.9210  138.3860 C   0  0  0  0  0  2  0  0  0  0  0  0
  184.5030  176.7490  137.1260 C   0  0  2  0  0  3  0  0  0  0  0  0
  183.6720  176.4390  136.0490 O   0  0  0  0  0  1  0  0  0  0  0  0
  185.4260  175.7170  137.3170 O   0  0  0  0  0  0  0  0  0  0  0  0
  184.8840  173.4300  137.6690 C   0  0  0  0  0  1  0  0  0  0  0  0
  184.8450  174.6010  136.7100 C   0  0  0  0  0  2  0  0  0  0  0  0
  2  8  1  1  0  0  0
  4  3  1  6  0  0  0
  4  5  1  0  0  0  0
  4  2  1  0  0  0  0
  5  7  2  0  0  0  0
  7  6  1  0  0  0  0
  7  1  1  0  0  0  0
  8  1  2  0  0  0  0
  8 29  1  0  0  0  0
  9 13  1  0  0  0  0
 11 18  1  0  0  0  0
 12  9  1  6  0  0  0
 12 15  1  0  0  0  0
 14 13  1  6  0  0  0
 14 10  1  0  0  0  0
 16 11  1  0  0  0  0
 17 15  1  1  0  0  0
 17 14  1  0  0  0  0
 17 16  1  0  0  0  0
 18 10  1  6  0  0  0
 18  2  1  0  0  0  0
 19 20  2  0  0  0  0
 21 19  2  0  0  0  0
 22 23  1  1  0  0  0
 22 12  1  0  0  0  0
 22 24  1  0  0  0  0
 23 19  1  0  0  0  0
 24 25  1  6  0  0  0
 24 19  1  0  0  0  0
 25 27  1  0  0  0  0
 26 27  1  0  0  0  0
 28 26  1  0  0  0  0
 28 27  1  0  0  0  0
 29 32  2  0  0  0  0
 29 34  1  0  0  0  0
 30 33  1  0  0  0  0
 31 33  2  0  0  0  0
 32 31  1  0  0  0  0
 34 30  2  0  0  0  0
 35 36  1  0  0  0  0
 35  6  1  0  0  0  0
 37 36  1  0  0  0  0
 38 37  1  0  0  0  0
 39 40  1  6  0  0  0
 39 41  1  0  0  0  0
 39 38  1  0  0  0  0
 43 41  1  0  0  0  0
 43 42  1  0  0  0  0
M  END
>  <MODEL>
2

>  <REMARK>
 VINA RESULT:      -7.0      2.318      3.028
  Name = 
  12 active torsions:
  status: ('A' for Active; 'I' for Inactive)
    1  A    between atoms: C_3  and  C_29
    2  A    between atoms: C_5  and  N_43
    3  A    between atoms: N_10  and  C_23
    4  A    between atoms: N_17  and  N_26
    5  A    between atoms: C_22  and  C_24
    6  A    between atoms: C_22  and  C_39
    7  A    between atoms: C_24  and  O_38
    8  A    between atoms: N_26  and  N_34
    9  A    between atoms: C_28  and  C_36
   10  A    between atoms: C_31  and  O_38
   11  A    between atoms: N_34  and  C_39
   12  A    between atoms: C_35  and  C_36
                            x       y       z     vdW  Elec       q    Type
                         _______ _______ _______ _____ _____    ______ ____

>  <TORSDO>
F 12

$$$$
=
 OpenBabel10232410323D

 43 48  0  0  1  0  0  0  0  0999 V2000
  191.6950  176.2200  136.4640 C   0  0  0  0  0  3  0  0  0  0  0  0
  191.0140  177.3040  138.5790 C   0  0  1  0  0  3  0  0  0  0  0  0
  192.8540  177.8000  140.0560 F   0  0  0  0  0  0  0  0  0  0  0  0
  192.3940  176.8740  139.1400 C   0  0  2  0  0  3  0  0  0  0  0  0
  193.3980  176.6920  138.0940 N   0  0  0  0  0  0  0  0  0  0  0  0
  194.1300  176.0930  135.9270 N   0  0  0  0  0  2  0  0  0  0  0  0
  193.0990  176.3250  136.8840 C   0  0  0  0  0  0  0  0  0  0  0  0
  190.6920  176.6440  137.2430 C   0  0  0  0  0  0  0  0  0  0  0  0
  188.7310  176.9270  144.3080 C   0  0  0  0  0  2  0  0  0  0  0  0
  190.4650  176.8100  140.8890 C   0  0  0  0  0  2  0  0  0  0  0  0
  189.1760  178.3030  139.6240 N   0  0  0  0  0  2  0  0  0  0  0  0
  187.3810  176.7370  143.7600 N   0  0  2  0  0  0  0  0  0  0  0  0
  189.7980  176.4760  143.2970 C   0  0  0  0  0  2  0  0  0  0  0  0
  189.3090  176.6360  141.8600 C   0  0  1  0  0  3  0  0  0  0  0  0
  187.1650  177.6890  142.6530 C   0  0  0  0  0  2  0  0  0  0  0  0
  187.9990  178.0330  140.3530 N   0  0  0  0  0  2  0  0  0  0  0  0
  188.3940  177.8470  141.7460 C   0  0  2  0  0  3  0  0  0  0  0  0
  189.9280  177.1100  139.5540 N   0  0  1  0  0  0  0  0  0  0  0  0
  185.2220  179.1560  144.8280 S   0  0  0  0  0  0  0  0  0  0  0  0
  185.4030  180.1960  143.7580 O   0  0  0  0  0  0  0  0  0  0  0  0
  184.2070  179.5230  145.8750 O   0  0  0  0  0  0  0  0  0  0  0  0
  186.4090  177.0560  144.8090 C   0  0  2  0  0  3  0  0  0  0  0  0
  185.0670  177.5100  144.2070 C   0  0  0  0  0  2  0  0  0  0  0  0
  186.7240  178.4280  145.4240 C   0  0  2  0  0  3  0  0  0  0  0  0
  186.7230  178.3170  146.9400 C   0  0  0  0  0  2  0  0  0  0  0  0
  188.1230  178.0050  148.9430 C   0  0  0  0  0  2  0  0  0  0  0  0
  188.1430  178.3600  147.4700 C   0  0  0  0  0  3  0  0  0  0  0  0
  188.5400  176.9700  147.9250 C   0  0  0  0  0  2  0  0  0  0  0  0
  189.3050  176.5930  136.7070 C   0  0  0  0  0  0  0  0  0  0  0  0
  187.1930  175.4180  136.4010 C   0  0  0  0  0  3  0  0  0  0  0  0
  187.4670  177.6500  135.5060 C   0  0  0  0  0  3  0  0  0  0  0  0
  188.7710  177.6900  136.0070 C   0  0  0  0  0  3  0  0  0  0  0  0
  186.6790  176.5120  135.7010 C   0  0  0  0  0  3  0  0  0  0  0  0
  188.4960  175.4610  136.9050 C   0  0  0  0  0  3  0  0  0  0  0  0
  195.4830  176.1320  136.2960 N   0  0  0  0  0  2  0  0  0  0  0  0
  196.1660  175.2640  135.4310 N   0  0  0  0  0  2  0  0  0  0  0  0
  197.5860  175.4510  135.6750 C   0  0  0  0  0  2  0  0  0  0  0  0
  198.2360  174.1110  135.9690 C   0  0  0  0  0  2  0  0  0  0  0  0
  198.2210  173.8390  137.4650 C   0  0  2  0  0  3  0  0  0  0  0  0
  197.2060  172.9310  137.7700 O   0  0  0  0  0  1  0  0  0  0  0  0
  198.0000  175.0350  138.1530 O   0  0  0  0  0  0  0  0  0  0  0  0
  197.6730  175.3340  140.4880 C   0  0  0  0  0  1  0  0  0  0  0  0
  197.1640  174.6870  139.2160 C   0  0  0  0  0  2  0  0  0  0  0  0
  1  7  1  0  0  0  0
  1  8  2  0  0  0  0
  2  8  1  6  0  0  0
  2  4  1  0  0  0  0
  2 18  1  0  0  0  0
  4  3  1  1  0  0  0
  5  4  1  0  0  0  0
  6 35  1  0  0  0  0
  6  7  1  0  0  0  0
  7  5  2  0  0  0  0
 11 16  1  0  0  0  0
 12 15  1  6  0  0  0
 12  9  1  0  0  0  0
 12 22  1  0  0  0  0
 13  9  1  0  0  0  0
 14 10  1  6  0  0  0
 14 13  1  0  0  0  0
 16 17  1  0  0  0  0
 17 14  1  0  0  0  0
 17 15  1  1  0  0  0
 18 11  1  0  0  0  0
 18 10  1  1  0  0  0
 19 24  1  0  0  0  0
 19 21  2  0  0  0  0
 20 19  2  0  0  0  0
 22 23  1  6  0  0  0
 22 24  1  0  0  0  0
 23 19  1  0  0  0  0
 24 25  1  1  0  0  0
 25 27  1  0  0  0  0
 27 28  1  0  0  0  0
 27 26  1  0  0  0  0
 28 26  1  0  0  0  0
 29 34  1  0  0  0  0
 29  8  1  0  0  0  0
 30 34  2  0  0  0  0
 31 33  2  0  0  0  0
 31 32  1  0  0  0  0
 32 29  2  0  0  0  0
 33 30  1  0  0  0  0
 36 37  1  0  0  0  0
 36 35  1  0  0  0  0
 37 38  1  0  0  0  0
 38 39  1  0  0  0  0
 39 40  1  6  0  0  0
 39 41  1  0  0  0  0
 41 43  1  0  0  0  0
 43 42  1  0  0  0  0
M  END
>  <MODEL>
3

>  <REMARK>
 VINA RESULT:      -6.6      3.378     10.995
  Name = 
  12 active torsions:
  status: ('A' for Active; 'I' for Inactive)
    1  A    between atoms: C_3  and  C_29
    2  A    between atoms: C_5  and  N_43
    3  A    between atoms: N_10  and  C_23
    4  A    between atoms: N_17  and  N_26
    5  A    between atoms: C_22  and  C_24
    6  A    between atoms: C_22  and  C_39
    7  A    between atoms: C_24  and  O_38
    8  A    between atoms: N_26  and  N_34
    9  A    between atoms: C_28  and  C_36
   10  A    between atoms: C_31  and  O_38
   11  A    between atoms: N_34  and  C_39
   12  A    between atoms: C_35  and  C_36
                            x       y       z     vdW  Elec       q    Type
                         _______ _______ _______ _____ _____    ______ ____

>  <TORSDO>
F 12

$$$$
=
 OpenBabel10232410323D

 43 48  0  0  1  0  0  0  0  0999 V2000
  191.0160  174.6750  136.0590 C   0  0  0  0  0  3  0  0  0  0  0  0
  190.9110  176.4230  137.8040 C   0  0  1  0  0  3  0  0  0  0  0  0
  193.0730  177.1880  138.5480 F   0  0  0  0  0  0  0  0  0  0  0  0
  192.3860  176.0680  138.1240 C   0  0  2  0  0  3  0  0  0  0  0  0
  193.0850  175.4770  136.9840 N   0  0  0  0  0  0  0  0  0  0  0  0
  193.2280  174.1670  135.0210 N   0  0  0  0  0  2  0  0  0  0  0  0
  192.4810  174.7800  136.0700 C   0  0  0  0  0  0  0  0  0  0  0  0
  190.2510  175.4100  136.8760 C   0  0  0  0  0  0  0  0  0  0  0  0
  190.2290  177.3850  143.8690 C   0  0  0  0  0  2  0  0  0  0  0  0
  190.9100  176.3880  140.2290 C   0  0  0  0  0  2  0  0  0  0  0  0
  189.6840  177.9890  139.0360 N   0  0  0  0  0  2  0  0  0  0  0  0
  188.7730  177.4820  143.6930 N   0  0  2  0  0  0  0  0  0  0  0  0
  190.8600  176.5480  142.7450 C   0  0  0  0  0  2  0  0  0  0  0  0
  190.0490  176.6440  141.4550 C   0  0  1  0  0  3  0  0  0  0  0  0
  188.4790  178.3080  142.5050 C   0  0  0  0  0  2  0  0  0  0  0  0
  188.7180  178.1270  140.0530 N   0  0  0  0  0  2  0  0  0  0  0  0
  189.4230  178.0260  141.3280 C   0  0  2  0  0  3  0  0  0  0  0  0
  190.1120  176.6430  139.0210 N   0  0  1  0  0  0  0  0  0  0  0  0
  188.5910  177.3680  147.1000 S   0  0  0  0  0  0  0  0  0  0  0  0
  189.4330  176.1580  147.3940 O   0  0  0  0  0  0  0  0  0  0  0  0
  188.0490  178.0500  148.3260 O   0  0  0  0  0  0  0  0  0  0  0  0
  188.2130  178.1730  144.8570 C   0  0  2  0  0  3  0  0  0  0  0  0
  189.2990  178.4630  145.9090 C   0  0  0  0  0  2  0  0  0  0  0  0
  187.4560  177.1790  145.7510 C   0  0  2  0  0  3  0  0  0  0  0  0
  186.0880  177.7450  146.0940 C   0  0  0  0  0  2  0  0  0  0  0  0
  184.8330  178.1650  144.0160 C   0  0  0  0  0  2  0  0  0  0  0  0
  185.6910  178.8060  145.0870 C   0  0  0  0  0  3  0  0  0  0  0  0
  184.1850  178.9740  145.1150 C   0  0  0  0  0  2  0  0  0  0  0  0
  188.7710  175.3190  136.7390 C   0  0  0  0  0  0  0  0  0  0  0  0
  186.6970  174.0610  136.9510 C   0  0  0  0  0  3  0  0  0  0  0  0
  186.6400  176.3460  136.1550 C   0  0  0  0  0  3  0  0  0  0  0  0
  188.0300  176.4240  136.2810 C   0  0  0  0  0  3  0  0  0  0  0  0
  185.9740  175.1630  136.4870 C   0  0  0  0  0  3  0  0  0  0  0  0
  188.0860  174.1410  137.0810 C   0  0  0  0  0  3  0  0  0  0  0  0
  194.6310  174.1970  135.0180 N   0  0  0  0  0  2  0  0  0  0  0  0
  195.0670  172.8660  134.9660 N   0  0  0  0  0  2  0  0  0  0  0  0
  195.7760  172.6000  136.2070 C   0  0  0  0  0  2  0  0  0  0  0  0
  196.4720  173.8640  136.6790 C   0  0  0  0  0  2  0  0  0  0  0  0
  196.7490  173.7820  138.1710 C   0  0  2  0  0  3  0  0  0  0  0  0
  195.6880  173.1420  138.8140 O   0  0  0  0  0  1  0  0  0  0  0  0
  196.8980  175.0720  138.6880 O   0  0  0  0  0  0  0  0  0  0  0  0
  197.4570  175.4410  140.9680 C   0  0  0  0  0  1  0  0  0  0  0  0
  196.3920  174.9970  139.9880 C   0  0  0  0  0  2  0  0  0  0  0  0
  1  7  1  0  0  0  0
  1  8  2  0  0  0  0
  2  8  1  1  0  0  0
  2  4  1  0  0  0  0
  2 18  1  0  0  0  0
  4  3  1  6  0  0  0
  5  4  1  0  0  0  0
  6  7  1  0  0  0  0
  7  5  2  0  0  0  0
 11 16  1  0  0  0  0
 12 15  1  6  0  0  0
 12  9  1  0  0  0  0
 12 22  1  0  0  0  0
 13  9  1  0  0  0  0
 14 10  1  6  0  0  0
 14 13  1  0  0  0  0
 16 17  1  0  0  0  0
 17 14  1  0  0  0  0
 17 15  1  1  0  0  0
 18 11  1  0  0  0  0
 18 10  1  1  0  0  0
 19 20  2  0  0  0  0
 19 21  2  0  0  0  0
 22 24  1  0  0  0  0
 22 23  1  1  0  0  0
 23 19  1  0  0  0  0
 24 25  1  1  0  0  0
 24 19  1  0  0  0  0
 26 27  1  0  0  0  0
 26 28  1  0  0  0  0
 27 28  1  0  0  0  0
 27 25  1  0  0  0  0
 29  8  1  0  0  0  0
 29 34  1  0  0  0  0
 30 34  2  0  0  0  0
 31 32  1  0  0  0  0
 31 33  2  0  0  0  0
 32 29  2  0  0  0  0
 33 30  1  0  0  0  0
 35  6  1  0  0  0  0
 36 35  1  0  0  0  0
 36 37  1  0  0  0  0
 37 38  1  0  0  0  0
 38 39  1  0  0  0  0
 39 41  1  0  0  0  0
 39 40  1  1  0  0  0
 41 43  1  0  0  0  0
 43 42  1  0  0  0  0
M  END
>  <MODEL>
4

>  <REMARK>
 VINA RESULT:      -6.5      3.296     10.541
  Name = 
  12 active torsions:
  status: ('A' for Active; 'I' for Inactive)
    1  A    between atoms: C_3  and  C_29
    2  A    between atoms: C_5  and  N_43
    3  A    between atoms: N_10  and  C_23
    4  A    between atoms: N_17  and  N_26
    5  A    between atoms: C_22  and  C_24
    6  A    between atoms: C_22  and  C_39
    7  A    between atoms: C_24  and  O_38
    8  A    between atoms: N_26  and  N_34
    9  A    between atoms: C_28  and  C_36
   10  A    between atoms: C_31  and  O_38
   11  A    between atoms: N_34  and  C_39
   12  A    between atoms: C_35  and  C_36
                            x       y       z     vdW  Elec       q    Type
                         _______ _______ _______ _____ _____    ______ ____

>  <TORSDO>
F 12

$$$$
=
 OpenBabel10232410323D

 43 48  0  0  1  0  0  0  0  0999 V2000
  186.0230  178.5770  139.1940 C   0  0  0  0  0  3  0  0  0  0  0  0
  188.0420  177.1540  139.0990 C   0  0  1  0  0  3  0  0  0  0  0  0
  189.2320  177.0090  141.1900 F   0  0  0  0  0  0  0  0  0  0  0  0
  188.5000  177.8690  140.3960 C   0  0  2  0  0  3  0  0  0  0  0  0
  187.3820  178.4050  141.1700 N   0  0  0  0  0  0  0  0  0  0  0  0
  185.2430  179.3800  141.4250 N   0  0  0  0  0  2  0  0  0  0  0  0
  186.2700  178.7980  140.6250 C   0  0  0  0  0  0  0  0  0  0  0  0
  186.8460  177.8350  138.4430 C   0  0  0  0  0  0  0  0  0  0  0  0
  193.8660  175.7410  137.5950 C   0  0  0  0  0  2  0  0  0  0  0  0
  190.4450  176.9500  138.8350 C   0  0  0  0  0  2  0  0  0  0  0  0
  188.9650  175.7240  137.4940 N   0  0  0  0  0  2  0  0  0  0  0  0
  193.5480  175.9280  136.1720 N   0  0  2  0  0  0  0  0  0  0  0  0
  192.9100  176.5550  138.4800 C   0  0  0  0  0  2  0  0  0  0  0  0
  191.5480  176.7360  137.8130 C   0  0  1  0  0  3  0  0  0  0  0  0
  192.2490  175.2910  135.8750 C   0  0  0  0  0  2  0  0  0  0  0  0
  189.8670  175.6650  136.4110 N   0  0  0  0  0  2  0  0  0  0  0  0
  191.2040  175.5100  136.9780 C   0  0  2  0  0  3  0  0  0  0  0  0
  189.1470  176.9650  138.1440 N   0  0  1  0  0  0  0  0  0  0  0  0
  195.0060  172.8850  135.6610 S   0  0  0  0  0  0  0  0  0  0  0  0
  194.2380  172.0310  136.6300 O   0  0  0  0  0  0  0  0  0  0  0  0
  196.0330  172.1320  134.8600 O   0  0  0  0  0  0  0  0  0  0  0  0
  194.5670  175.2400  135.3780 C   0  0  2  0  0  3  0  0  0  0  0  0
  193.9950  173.9770  134.7100 C   0  0  0  0  0  2  0  0  0  0  0  0
  195.5180  174.4590  136.2960 C   0  0  2  0  0  3  0  0  0  0  0  0
  196.9580  174.7680  135.9180 C   0  0  0  0  0  2  0  0  0  0  0  0
  198.1020  173.3610  137.5850 C   0  0  0  0  0  2  0  0  0  0  0  0
  197.8330  174.7880  137.1560 C   0  0  0  0  0  3  0  0  0  0  0  0
  199.1600  174.1330  136.8320 C   0  0  0  0  0  2  0  0  0  0  0  0
  186.4770  177.5770  137.0240 C   0  0  0  0  0  0  0  0  0  0  0  0
  186.7180  178.0640  134.6500 C   0  0  0  0  0  3  0  0  0  0  0  0
  185.1960  176.3270  135.3720 C   0  0  0  0  0  3  0  0  0  0  0  0
  185.5420  176.5770  136.7020 C   0  0  0  0  0  3  0  0  0  0  0  0
  185.7810  177.0730  134.3460 C   0  0  0  0  0  3  0  0  0  0  0  0
  187.0670  178.3100  135.9810 C   0  0  0  0  0  3  0  0  0  0  0  0
  185.4530  179.6570  142.7840 N   0  0  0  0  0  2  0  0  0  0  0  0
  184.2900  179.2660  143.4640 N   0  0  0  0  0  2  0  0  0  0  0  0
  184.6370  179.1510  144.8700 C   0  0  0  0  0  2  0  0  0  0  0  0
  185.6380  178.0260  145.0610 C   0  0  0  0  0  2  0  0  0  0  0  0
  186.1960  178.0570  146.4740 C   0  0  2  0  0  3  0  0  0  0  0  0
  185.6890  179.1620  147.1590 O   0  0  0  0  0  1  0  0  0  0  0  0
  187.5900  178.1380  146.4230 O   0  0  0  0  0  0  0  0  0  0  0  0
  189.4450  177.5490  145.0580 C   0  0  0  0  0  1  0  0  0  0  0  0
  187.9430  177.4820  145.2410 C   0  0  0  0  0  2  0  0  0  0  0  0
  1  7  1  0  0  0  0
  2  8  1  6  0  0  0
  2  4  1  0  0  0  0
  4  5  1  0  0  0  0
  4  3  1  1  0  0  0
  6 35  1  0  0  0  0
  7  5  2  0  0  0  0
  7  6  1  0  0  0  0
  8  1  2  0  0  0  0
  9 13  1  0  0  0  0
 11 18  1  0  0  0  0
 12 15  1  1  0  0  0
 12  9  1  0  0  0  0
 14 13  1  1  0  0  0
 14 10  1  0  0  0  0
 16 17  1  0  0  0  0
 16 11  1  0  0  0  0
 17 15  1  6  0  0  0
 17 14  1  0  0  0  0
 18 10  1  1  0  0  0
 18  2  1  0  0  0  0
 19 24  1  0  0  0  0
 19 20  2  0  0  0  0
 21 19  2  0  0  0  0
 22 23  1  6  0  0  0
 22 12  1  0  0  0  0
 22 24  1  0  0  0  0
 23 19  1  0  0  0  0
 24 25  1  6  0  0  0
 25 27  1  0  0  0  0
 27 26  1  0  0  0  0
 28 27  1  0  0  0  0
 28 26  1  0  0  0  0
 29  8  1  0  0  0  0
 30 34  1  0  0  0  0
 31 32  2  0  0  0  0
 32 29  1  0  0  0  0
 33 30  2  0  0  0  0
 33 31  1  0  0  0  0
 34 29  2  0  0  0  0
 35 36  1  0  0  0  0
 36 37  1  0  0  0  0
 37 38  1  0  0  0  0
 38 39  1  0  0  0  0
 39 40  1  1  0  0  0
 41 39  1  0  0  0  0
 42 43  1  0  0  0  0
 43 41  1  0  0  0  0
M  END
>  <MODEL>
5

>  <REMARK>
 VINA RESULT:      -6.4      2.458      4.273
  Name = 
  12 active torsions:
  status: ('A' for Active; 'I' for Inactive)
    1  A    between atoms: C_3  and  C_29
    2  A    between atoms: C_5  and  N_43
    3  A    between atoms: N_10  and  C_23
    4  A    between atoms: N_17  and  N_26
    5  A    between atoms: C_22  and  C_24
    6  A    between atoms: C_22  and  C_39
    7  A    between atoms: C_24  and  O_38
    8  A    between atoms: N_26  and  N_34
    9  A    between atoms: C_28  and  C_36
   10  A    between atoms: C_31  and  O_38
   11  A    between atoms: N_34  and  C_39
   12  A    between atoms: C_35  and  C_36
                            x       y       z     vdW  Elec       q    Type
                         _______ _______ _______ _____ _____    ______ ____

>  <TORSDO>
F 12

$$$$
=
 OpenBabel10232410323D

 43 48  0  0  1  0  0  0  0  0999 V2000
  190.4490  174.6990  135.9710 C   0  0  0  0  0  3  0  0  0  0  0  0
  191.7390  176.1790  137.4730 C   0  0  1  0  0  3  0  0  0  0  0  0
  193.9950  175.4310  137.8760 F   0  0  0  0  0  0  0  0  0  0  0  0
  192.7040  174.9830  137.6780 C   0  0  2  0  0  3  0  0  0  0  0  0
  192.6870  174.0450  136.5570 N   0  0  0  0  0  0  0  0  0  0  0  0
  191.6610  172.8720  134.7790 N   0  0  0  0  0  2  0  0  0  0  0  0
  191.6400  173.8540  135.8120 C   0  0  0  0  0  0  0  0  0  0  0  0
  190.4510  175.7800  136.7610 C   0  0  0  0  0  0  0  0  0  0  0  0
  189.6020  176.5740  143.2570 C   0  0  0  0  0  2  0  0  0  0  0  0
  190.4790  176.1700  139.5460 C   0  0  0  0  0  2  0  0  0  0  0  0
  192.6680  176.9990  139.4570 N   0  0  0  0  0  2  0  0  0  0  0  0
  190.0590  177.9690  143.3340 N   0  0  2  0  0  0  0  0  0  0  0  0
  189.3460  176.1630  141.7980 C   0  0  0  0  0  2  0  0  0  0  0  0
  190.2400  176.9390  140.8340 C   0  0  1  0  0  3  0  0  0  0  0  0
  191.4120  178.0710  142.7530 C   0  0  0  0  0  2  0  0  0  0  0  0
  192.4580  177.8990  140.5220 N   0  0  0  0  0  2  0  0  0  0  0  0
  191.5880  177.2280  141.4820 C   0  0  2  0  0  3  0  0  0  0  0  0
  191.4620  176.8960  138.7290 N   0  0  1  0  0  0  0  0  0  0  0  0
  191.2460  176.9140  146.3550 S   0  0  0  0  0  0  0  0  0  0  0  0
  191.8890  175.6110  145.9730 O   0  0  0  0  0  0  0  0  0  0  0  0
  191.3840  177.2620  147.8110 O   0  0  0  0  0  0  0  0  0  0  0  0
  190.1580  178.3450  144.7460 C   0  0  2  0  0  3  0  0  0  0  0  0
  191.6080  178.2430  145.2500 C   0  0  0  0  0  2  0  0  0  0  0  0
  189.6510  177.2000  145.6360 C   0  0  2  0  0  3  0  0  0  0  0  0
  188.6710  177.7480  146.6600 C   0  0  0  0  0  2  0  0  0  0  0  0
  186.2820  178.2150  147.0340 C   0  0  0  0  0  2  0  0  0  0  0  0
  187.2620  177.2980  146.3310 C   0  0  0  0  0  3  0  0  0  0  0  0
  186.5600  178.3990  145.5610 C   0  0  0  0  0  2  0  0  0  0  0  0
  189.2370  176.6400  136.7950 C   0  0  0  0  0  0  0  0  0  0  0  0
  186.8170  176.8850  136.9130 C   0  0  0  0  0  3  0  0  0  0  0  0
  188.2190  178.8530  136.7960 C   0  0  0  0  0  3  0  0  0  0  0  0
  189.3550  178.0410  136.7600 C   0  0  0  0  0  3  0  0  0  0  0  0
  186.9500  178.2750  136.8700 C   0  0  0  0  0  3  0  0  0  0  0  0
  187.9540  176.0730  136.8810 C   0  0  0  0  0  3  0  0  0  0  0  0
  192.7570  172.0090  134.6230 N   0  0  0  0  0  2  0  0  0  0  0  0
  192.3470  170.7440  135.0720 N   0  0  0  0  0  2  0  0  0  0  0  0
  193.5360  170.0510  135.5380 C   0  0  0  0  0  2  0  0  0  0  0  0
  194.5490  171.0600  136.0480 C   0  0  0  0  0  2  0  0  0  0  0  0
  195.3570  170.4590  137.1870 C   0  0  2  0  0  3  0  0  0  0  0  0
  195.1520  171.1960  138.3530 O   0  0  0  0  0  1  0  0  0  0  0  0
  196.7140  170.4780  136.8550 O   0  0  0  0  0  0  0  0  0  0  0  0
  197.2480  168.1710  137.0650 C   0  0  0  0  0  1  0  0  0  0  0  0
  197.3040  169.5420  137.7080 C   0  0  0  0  0  2  0  0  0  0  0  0
  1  8  2  0  0  0  0
  2  8  1  1  0  0  0
  2  4  1  0  0  0  0
  2 18  1  0  0  0  0
  4  3  1  6  0  0  0
  5  4  1  0  0  0  0
  6  7  1  0  0  0  0
  7  1  1  0  0  0  0
  7  5  2  0  0  0  0
  8 29  1  0  0  0  0
  9 12  1  0  0  0  0
 11 16  1  0  0  0  0
 12 15  1  1  0  0  0
 12 22  1  0  0  0  0
 13  9  1  0  0  0  0
 14 10  1  6  0  0  0
 14 17  1  0  0  0  0
 14 13  1  0  0  0  0
 16 17  1  0  0  0  0
 17 15  1  1  0  0  0
 18 11  1  0  0  0  0
 18 10  1  1  0  0  0
 19 21  2  0  0  0  0
 20 19  2  0  0  0  0
 22 23  1  1  0  0  0
 22 24  1  0  0  0  0
 23 19  1  0  0  0  0
 24 19  1  0  0  0  0
 24 25  1  1  0  0  0
 27 25  1  0  0  0  0
 27 26  1  0  0  0  0
 28 27  1  0  0  0  0
 28 26  1  0  0  0  0
 29 34  1  0  0  0  0
 31 33  2  0  0  0  0
 32 29  2  0  0  0  0
 32 31  1  0  0  0  0
 33 30  1  0  0  0  0
 34 30  2  0  0  0  0
 35  6  1  0  0  0  0
 35 36  1  0  0  0  0
 36 37  1  0  0  0  0
 37 38  1  0  0  0  0
 38 39  1  0  0  0  0
 39 40  1  1  0  0  0
 41 39  1  0  0  0  0
 41 43  1  0  0  0  0
 42 43  1  0  0  0  0
M  END
>  <MODEL>
6

>  <REMARK>
 VINA RESULT:      -5.9      3.854     10.346
  Name = 
  12 active torsions:
  status: ('A' for Active; 'I' for Inactive)
    1  A    between atoms: C_3  and  C_29
    2  A    between atoms: C_5  and  N_43
    3  A    between atoms: N_10  and  C_23
    4  A    between atoms: N_17  and  N_26
    5  A    between atoms: C_22  and  C_24
    6  A    between atoms: C_22  and  C_39
    7  A    between atoms: C_24  and  O_38
    8  A    between atoms: N_26  and  N_34
    9  A    between atoms: C_28  and  C_36
   10  A    between atoms: C_31  and  O_38
   11  A    between atoms: N_34  and  C_39
   12  A    between atoms: C_35  and  C_36
                            x       y       z     vdW  Elec       q    Type
                         _______ _______ _______ _____ _____    ______ ____

>  <TORSDO>
F 12

$$$$
=
 OpenBabel10232410323D

 43 48  0  0  1  0  0  0  0  0999 V2000
  187.8060  178.0780  142.2360 C   0  0  0  0  0  3  0  0  0  0  0  0
  189.4400  178.0260  140.3830 C   0  0  1  0  0  3  0  0  0  0  0  0
  188.5230  178.6910  138.2550 F   0  0  0  0  0  0  0  0  0  0  0  0
  188.2210  178.0230  139.4250 C   0  0  2  0  0  3  0  0  0  0  0  0
  187.0290  178.6160  140.0260 N   0  0  0  0  0  0  0  0  0  0  0  0
  185.5760  179.1190  141.8220 N   0  0  0  0  0  2  0  0  0  0  0  0
  186.7930  178.5870  141.3030 C   0  0  0  0  0  0  0  0  0  0  0  0
  189.0480  177.7790  141.8350 C   0  0  0  0  0  0  0  0  0  0  0  0
  192.0320  174.0820  136.3950 C   0  0  0  0  0  2  0  0  0  0  0  0
  190.0280  176.2390  138.8520 C   0  0  0  0  0  2  0  0  0  0  0  0
  191.5920  177.8670  139.4780 N   0  0  0  0  0  2  0  0  0  0  0  0
  193.1950  173.9430  137.2830 N   0  0  2  0  0  0  0  0  0  0  0  0
  190.7850  174.5000  137.1900 C   0  0  0  0  0  2  0  0  0  0  0  0
  191.1580  175.3170  138.4250 C   0  0  1  0  0  3  0  0  0  0  0  0
  193.5910  175.2760  137.7790 C   0  0  0  0  0  2  0  0  0  0  0  0
  192.6890  176.9980  139.3040 N   0  0  0  0  0  2  0  0  0  0  0  0
  192.3920  176.1640  138.1430 C   0  0  2  0  0  3  0  0  0  0  0  0
  190.4990  177.1020  139.9440 N   0  0  1  0  0  0  0  0  0  0  0  0
  195.4780  171.4080  137.1540 S   0  0  0  0  0  0  0  0  0  0  0  0
  195.0860  170.6060  138.3630 O   0  0  0  0  0  0  0  0  0  0  0  0
  196.6220  170.8230  136.3740 O   0  0  0  0  0  0  0  0  0  0  0  0
  194.3140  173.4170  136.4980 C   0  0  2  0  0  3  0  0  0  0  0  0
  194.1100  171.9280  136.1650 C   0  0  0  0  0  2  0  0  0  0  0  0
  195.5260  173.1620  137.4060 C   0  0  2  0  0  3  0  0  0  0  0  0
  196.7680  173.7780  136.7810 C   0  0  0  0  0  2  0  0  0  0  0  0
  199.0690  173.1950  137.4370 C   0  0  0  0  0  2  0  0  0  0  0  0
  197.8380  173.9840  137.8340 C   0  0  0  0  0  3  0  0  0  0  0  0
  199.0230  174.6860  137.2010 C   0  0  0  0  0  2  0  0  0  0  0  0
  190.0450  177.3610  142.8570 C   0  0  0  0  0  0  0  0  0  0  0  0
  191.3760  175.6280  143.9340 C   0  0  0  0  0  3  0  0  0  0  0  0
  191.5680  177.9250  144.6730 C   0  0  0  0  0  3  0  0  0  0  0  0
  190.6280  178.3110  143.7150 C   0  0  0  0  0  3  0  0  0  0  0  0
  191.9400  176.5830  144.7850 C   0  0  0  0  0  3  0  0  0  0  0  0
  190.4380  176.0160  142.9730 C   0  0  0  0  0  3  0  0  0  0  0  0
  184.5590  179.5690  140.9660 N   0  0  0  0  0  2  0  0  0  0  0  0
  183.6910  178.4870  140.7580 N   0  0  0  0  0  2  0  0  0  0  0  0
  183.2410  178.5600  139.3790 C   0  0  0  0  0  2  0  0  0  0  0  0
  181.8250  179.1050  139.3310 C   0  0  0  0  0  2  0  0  0  0  0  0
  180.9640  178.2450  138.4210 C   0  0  2  0  0  3  0  0  0  0  0  0
  181.3660  176.9120  138.5110 O   0  0  0  0  0  1  0  0  0  0  0  0
  181.0960  178.6840  137.1020 O   0  0  0  0  0  0  0  0  0  0  0  0
  181.8060  177.9490  134.9560 C   0  0  0  0  0  1  0  0  0  0  0  0
  181.5150  177.5580  136.3900 C   0  0  0  0  0  2  0  0  0  0  0  0
  2  8  1  1  0  0  0
  4  3  1  6  0  0  0
  4  5  1  0  0  0  0
  4  2  1  0  0  0  0
  5  7  2  0  0  0  0
  7  6  1  0  0  0  0
  7  1  1  0  0  0  0
  8  1  2  0  0  0  0
  8 29  1  0  0  0  0
  9 13  1  0  0  0  0
 11 18  1  0  0  0  0
 12  9  1  6  0  0  0
 12 15  1  0  0  0  0
 14 13  1  6  0  0  0
 14 10  1  0  0  0  0
 16 11  1  0  0  0  0
 17 15  1  1  0  0  0
 17 14  1  0  0  0  0
 17 16  1  0  0  0  0
 18 10  1  6  0  0  0
 18  2  1  0  0  0  0
 19 24  1  0  0  0  0
 19 20  2  0  0  0  0
 21 19  2  0  0  0  0
 22 23  1  1  0  0  0
 22 12  1  0  0  0  0
 22 24  1  0  0  0  0
 23 19  1  0  0  0  0
 24 25  1  6  0  0  0
 25 27  1  0  0  0  0
 26 27  1  0  0  0  0
 28 26  1  0  0  0  0
 28 27  1  0  0  0  0
 29 34  2  0  0  0  0
 29 32  1  0  0  0  0
 30 33  2  0  0  0  0
 31 33  1  0  0  0  0
 32 31  2  0  0  0  0
 34 30  1  0  0  0  0
 35  6  1  0  0  0  0
 36 35  1  0  0  0  0
 37 36  1  0  0  0  0
 38 37  1  0  0  0  0
 39 40  1  6  0  0  0
 39 38  1  0  0  0  0
 41 39  1  0  0  0  0
 42 43  1  0  0  0  0
 43 41  1  0  0  0  0
M  END
>  <MODEL>
7

>  <REMARK>
 VINA RESULT:      -5.9      2.338      3.184
  Name = 
  12 active torsions:
  status: ('A' for Active; 'I' for Inactive)
    1  A    between atoms: C_3  and  C_29
    2  A    between atoms: C_5  and  N_43
    3  A    between atoms: N_10  and  C_23
    4  A    between atoms: N_17  and  N_26
    5  A    between atoms: C_22  and  C_24
    6  A    between atoms: C_22  and  C_39
    7  A    between atoms: C_24  and  O_38
    8  A    between atoms: N_26  and  N_34
    9  A    between atoms: C_28  and  C_36
   10  A    between atoms: C_31  and  O_38
   11  A    between atoms: N_34  and  C_39
   12  A    between atoms: C_35  and  C_36
                            x       y       z     vdW  Elec       q    Type
                         _______ _______ _______ _____ _____    ______ ____

>  <TORSDO>
F 12

$$$$
=
 OpenBabel10232410323D

 43 48  0  0  1  0  0  0  0  0999 V2000
  188.5200  177.3640  143.8330 C   0  0  0  0  0  3  0  0  0  0  0  0
  186.5260  178.5240  142.9440 C   0  0  1  0  0  3  0  0  0  0  0  0
  184.9200  179.1360  144.6350 F   0  0  0  0  0  0  0  0  0  0  0  0
  185.8270  178.1580  144.2790 C   0  0  2  0  0  3  0  0  0  0  0  0
  186.7730  177.9550  145.3750 N   0  0  0  0  0  0  0  0  0  0  0  0
  188.8370  177.2780  146.3070 N   0  0  0  0  0  2  0  0  0  0  0  0
  187.9840  177.5260  145.1910 C   0  0  0  0  0  0  0  0  0  0  0  0
  187.8510  177.7950  142.7560 C   0  0  0  0  0  0  0  0  0  0  0  0
  180.9960  178.1740  140.2100 C   0  0  0  0  0  2  0  0  0  0  0  0
  184.2680  178.0350  142.2060 C   0  0  0  0  0  2  0  0  0  0  0  0
  185.6260  179.5500  141.0440 N   0  0  0  0  0  2  0  0  0  0  0  0
  181.6500  178.0050  138.9030 N   0  0  2  0  0  0  0  0  0  0  0  0
  181.9200  177.7070  141.3460 C   0  0  0  0  0  2  0  0  0  0  0  0
  183.3910  177.8770  140.9750 C   0  0  1  0  0  3  0  0  0  0  0  0
  182.7680  178.9630  138.7910 C   0  0  0  0  0  2  0  0  0  0  0  0
  184.9930  179.2970  139.8100 N   0  0  0  0  0  2  0  0  0  0  0  0
  183.5740  179.1030  140.0900 C   0  0  2  0  0  3  0  0  0  0  0  0
  185.6400  178.3450  141.7820 N   0  0  1  0  0  0  0  0  0  0  0  0
  181.3110  178.4000  135.5300 S   0  0  0  0  0  0  0  0  0  0  0  0
  182.7010  178.0720  135.0600 O   0  0  0  0  0  0  0  0  0  0  0  0
  180.3490  178.7230  134.4200 O   0  0  0  0  0  0  0  0  0  0  0  0
  180.6800  178.3380  137.8570 C   0  0  2  0  0  3  0  0  0  0  0  0
  180.6800  177.2800  136.7400 C   0  0  0  0  0  2  0  0  0  0  0  0
  181.2330  179.4510  136.9550 C   0  0  2  0  0  3  0  0  0  0  0  0
  180.1830  180.5370  136.7870 C   0  0  0  0  0  2  0  0  0  0  0  0
  181.4820  182.2650  137.9680 C   0  0  0  0  0  2  0  0  0  0  0  0
  180.1940  181.4670  137.9840 C   0  0  0  0  0  3  0  0  0  0  0  0
  180.1970  182.9020  137.4940 C   0  0  0  0  0  2  0  0  0  0  0  0
  188.5020  177.6820  141.4220 C   0  0  0  0  0  0  0  0  0  0  0  0
  188.8460  178.5060  139.1560 C   0  0  0  0  0  3  0  0  0  0  0  0
  190.0340  176.5380  139.9130 C   0  0  0  0  0  3  0  0  0  0  0  0
  189.4170  176.6460  141.1610 C   0  0  0  0  0  3  0  0  0  0  0  0
  189.7460  177.4670  138.9090 C   0  0  0  0  0  3  0  0  0  0  0  0
  188.2320  178.6150  140.4060 C   0  0  0  0  0  3  0  0  0  0  0  0
  188.3550  177.3700  147.6210 N   0  0  0  0  0  2  0  0  0  0  0  0
  189.1540  178.3130  148.2840 N   0  0  0  0  0  2  0  0  0  0  0  0
  190.4390  177.6830  148.5330 C   0  0  0  0  0  2  0  0  0  0  0  0
  191.0090  177.1500  147.2300 C   0  0  0  0  0  2  0  0  0  0  0  0
  191.7370  175.8390  147.4760 C   0  0  2  0  0  3  0  0  0  0  0  0
  192.6960  176.0110  148.4750 O   0  0  0  0  0  1  0  0  0  0  0  0
  192.3610  175.4250  146.2960 O   0  0  0  0  0  0  0  0  0  0  0  0
  191.6300  175.5490  144.0380 C   0  0  0  0  0  1  0  0  0  0  0  0
  191.9010  176.3100  145.3190 C   0  0  0  0  0  2  0  0  0  0  0  0
  1  7  1  0  0  0  0
  2  8  1  6  0  0  0
  2  4  1  0  0  0  0
  4  3  1  1  0  0  0
  4  5  1  0  0  0  0
  6 35  1  0  0  0  0
  7  5  2  0  0  0  0
  7  6  1  0  0  0  0
  8  1  2  0  0  0  0
  9 13  1  0  0  0  0
 11 18  1  0  0  0  0
 12 15  1  1  0  0  0
 12  9  1  0  0  0  0
 14 13  1  1  0  0  0
 14 10  1  0  0  0  0
 16 17  1  0  0  0  0
 16 11  1  0  0  0  0
 17 15  1  6  0  0  0
 17 14  1  0  0  0  0
 18 10  1  1  0  0  0
 18  2  1  0  0  0  0
 19 23  1  0  0  0  0
 19 24  1  0  0  0  0
 20 19  2  0  0  0  0
 21 19  2  0  0  0  0
 22 23  1  6  0  0  0
 22 12  1  0  0  0  0
 24 25  1  6  0  0  0
 24 22  1  0  0  0  0
 25 27  1  0  0  0  0
 26 27  1  0  0  0  0
 28 26  1  0  0  0  0
 28 27  1  0  0  0  0
 29  8  1  0  0  0  0
 30 34  1  0  0  0  0
 31 32  2  0  0  0  0
 32 29  1  0  0  0  0
 33 30  2  0  0  0  0
 33 31  1  0  0  0  0
 34 29  2  0  0  0  0
 35 36  1  0  0  0  0
 36 37  1  0  0  0  0
 38 39  1  0  0  0  0
 38 37  1  0  0  0  0
 39 40  1  1  0  0  0
 41 39  1  0  0  0  0
 42 43  1  0  0  0  0
 43 41  1  0  0  0  0
M  END
>  <MODEL>
8

>  <REMARK>
 VINA RESULT:      -5.8      5.941     10.683
  Name = 
  12 active torsions:
  status: ('A' for Active; 'I' for Inactive)
    1  A    between atoms: C_3  and  C_29
    2  A    between atoms: C_5  and  N_43
    3  A    between atoms: N_10  and  C_23
    4  A    between atoms: N_17  and  N_26
    5  A    between atoms: C_22  and  C_24
    6  A    between atoms: C_22  and  C_39
    7  A    between atoms: C_24  and  O_38
    8  A    between atoms: N_26  and  N_34
    9  A    between atoms: C_28  and  C_36
   10  A    between atoms: C_31  and  O_38
   11  A    between atoms: N_34  and  C_39
   12  A    between atoms: C_35  and  C_36
                            x       y       z     vdW  Elec       q    Type
                         _______ _______ _______ _____ _____    ______ ____

>  <TORSDO>
F 12

$$$$
=
 OpenBabel10232410323D

 43 48  0  0  1  0  0  0  0  0999 V2000
  187.1110  178.2600  142.0690 C   0  0  0  0  0  3  0  0  0  0  0  0
  188.6220  178.1550  140.1150 C   0  0  1  0  0  3  0  0  0  0  0  0
  187.5310  178.6100  138.0150 F   0  0  0  0  0  0  0  0  0  0  0  0
  187.3450  178.0160  139.2470 C   0  0  2  0  0  3  0  0  0  0  0  0
  186.1620  178.5900  139.8860 N   0  0  0  0  0  0  0  0  0  0  0  0
  184.8030  179.1500  141.7380 N   0  0  0  0  0  2  0  0  0  0  0  0
  186.0120  178.6440  141.1750 C   0  0  0  0  0  0  0  0  0  0  0  0
  188.3390  177.9970  141.6050 C   0  0  0  0  0  0  0  0  0  0  0  0
  191.6710  174.8510  135.8770 C   0  0  0  0  0  2  0  0  0  0  0  0
  189.3790  176.6470  138.3730 C   0  0  0  0  0  2  0  0  0  0  0  0
  190.8840  178.0170  139.5360 N   0  0  0  0  0  2  0  0  0  0  0  0
  192.6670  174.4690  136.8870 N   0  0  2  0  0  0  0  0  0  0  0  0
  190.3280  175.2000  136.5390 C   0  0  0  0  0  2  0  0  0  0  0  0
  190.5270  175.7450  137.9510 C   0  0  1  0  0  3  0  0  0  0  0  0
  193.0290  175.6550  137.6890 C   0  0  0  0  0  2  0  0  0  0  0  0
  191.9590  177.1200  139.3650 N   0  0  0  0  0  2  0  0  0  0  0  0
  191.8230  176.5410  138.0320 C   0  0  2  0  0  3  0  0  0  0  0  0
  189.7010  177.2570  139.6710 N   0  0  1  0  0  0  0  0  0  0  0  0
  195.6810  172.9440  137.3800 S   0  0  0  0  0  0  0  0  0  0  0  0
  195.6240  172.6620  138.8550 O   0  0  0  0  0  0  0  0  0  0  0  0
  196.9360  172.4560  136.7100 O   0  0  0  0  0  0  0  0  0  0  0  0
  193.8780  174.0210  136.1940 C   0  0  2  0  0  3  0  0  0  0  0  0
  194.1930  172.5490  136.5160 C   0  0  0  0  0  2  0  0  0  0  0  0
  195.1270  174.5600  136.9070 C   0  0  2  0  0  3  0  0  0  0  0  0
  196.0610  175.1900  135.8860 C   0  0  0  0  0  2  0  0  0  0  0  0
  195.4000  177.5340  135.5170 C   0  0  0  0  0  2  0  0  0  0  0  0
  195.2900  176.1230  134.9750 C   0  0  0  0  0  3  0  0  0  0  0  0
  196.2550  177.1080  134.3470 C   0  0  0  0  0  2  0  0  0  0  0  0
  189.4240  177.7090  142.5830 C   0  0  0  0  0  0  0  0  0  0  0  0
  191.3260  178.4430  143.9160 C   0  0  0  0  0  3  0  0  0  0  0  0
  190.5810  176.1440  144.0480 C   0  0  0  0  0  3  0  0  0  0  0  0
  189.5680  176.4190  143.1260 C   0  0  0  0  0  3  0  0  0  0  0  0
  191.4620  177.1550  144.4400 C   0  0  0  0  0  3  0  0  0  0  0  0
  190.3090  178.7180  142.9970 C   0  0  0  0  0  3  0  0  0  0  0  0
  183.7090  179.4810  140.9250 N   0  0  0  0  0  2  0  0  0  0  0  0
  182.5830  178.8570  141.4810 N   0  0  0  0  0  2  0  0  0  0  0  0
  181.6970  178.5150  140.3820 C   0  0  0  0  0  2  0  0  0  0  0  0
  181.7610  179.5960  139.3180 C   0  0  0  0  0  2  0  0  0  0  0  0
  180.7580  179.3040  138.2140 C   0  0  2  0  0  3  0  0  0  0  0  0
  181.2430  178.2850  137.3920 O   0  0  0  0  0  1  0  0  0  0  0  0
  180.5520  180.4590  137.4540 O   0  0  0  0  0  0  0  0  0  0  0  0
  181.2010  182.7290  137.7230 C   0  0  0  0  0  1  0  0  0  0  0  0
  180.5950  181.5060  138.3780 C   0  0  0  0  0  2  0  0  0  0  0  0
  2  8  1  1  0  0  0
  4  3  1  6  0  0  0
  4  5  1  0  0  0  0
  4  2  1  0  0  0  0
  5  7  2  0  0  0  0
  7  6  1  0  0  0  0
  7  1  1  0  0  0  0
  8  1  2  0  0  0  0
  8 29  1  0  0  0  0
  9 13  1  0  0  0  0
 11 18  1  0  0  0  0
 12  9  1  6  0  0  0
 12 15  1  0  0  0  0
 14 13  1  6  0  0  0
 14 17  1  0  0  0  0
 14 10  1  0  0  0  0
 16 11  1  0  0  0  0
 17 15  1  1  0  0  0
 17 16  1  0  0  0  0
 18 10  1  6  0  0  0
 18  2  1  0  0  0  0
 19 20  2  0  0  0  0
 21 19  2  0  0  0  0
 22 23  1  1  0  0  0
 22 12  1  0  0  0  0
 22 24  1  0  0  0  0
 23 19  1  0  0  0  0
 24 25  1  6  0  0  0
 24 19  1  0  0  0  0
 27 26  1  0  0  0  0
 27 25  1  0  0  0  0
 28 27  1  0  0  0  0
 28 26  1  0  0  0  0
 29 34  2  0  0  0  0
 29 32  1  0  0  0  0
 30 33  2  0  0  0  0
 31 33  1  0  0  0  0
 32 31  2  0  0  0  0
 34 30  1  0  0  0  0
 35 36  1  0  0  0  0
 35  6  1  0  0  0  0
 37 36  1  0  0  0  0
 38 37  1  0  0  0  0
 39 40  1  6  0  0  0
 39 38  1  0  0  0  0
 41 39  1  0  0  0  0
 41 43  1  0  0  0  0
 42 43  1  0  0  0  0
M  END
>  <MODEL>
9

>  <REMARK>
 VINA RESULT:      -5.6      2.701      3.427
  Name = 
  12 active torsions:
  status: ('A' for Active; 'I' for Inactive)
    1  A    between atoms: C_3  and  C_29
    2  A    between atoms: C_5  and  N_43
    3  A    between atoms: N_10  and  C_23
    4  A    between atoms: N_17  and  N_26
    5  A    between atoms: C_22  and  C_24
    6  A    between atoms: C_22  and  C_39
    7  A    between atoms: C_24  and  O_38
    8  A    between atoms: N_26  and  N_34
    9  A    between atoms: C_28  and  C_36
   10  A    between atoms: C_31  and  O_38
   11  A    between atoms: N_34  and  C_39
   12  A    between atoms: C_35  and  C_36
                            x       y       z     vdW  Elec       q    Type
                         _______ _______ _______ _____ _____    ______ ____

>  <TORSDO>
F 12

$$$$
