=
 OpenBabel10222422033D

 44 47  0  0  1  0  0  0  0  0999 V2000
  185.5040  178.6360  146.3320 C   0  0  0  0  0  0  0  0  0  0  0  0
  183.7740  179.1070  144.5040 C   0  0  0  0  0  0  0  0  0  0  0  0
  186.4800  178.5620  145.5390 O   0  0  0  0  0  0  0  0  0  0  0  0
  182.5490  178.8590  144.1550 N   0  0  0  0  0  0  0  0  0  0  0  0
  184.1670  178.8130  145.8510 N   0  0  0  0  0  2  0  0  0  0  0  0
  185.7390  178.4890  147.7920 C   0  0  0  0  0  1  0  0  0  0  0  0
  184.6870  179.7690  143.5490 C   0  0  0  0  0  3  0  0  0  0  0  0
  185.5240  178.5940  141.3720 C   0  0  0  0  0  3  0  0  0  0  0  0
  185.0830  179.1840  142.4530 C   0  0  0  0  0  0  0  0  0  0  0  0
  188.9160  178.1140  139.7880 C   0  0  0  0  0  3  0  0  0  0  0  0
  189.6340  177.7090  140.8680 N   0  0  0  0  0  0  0  0  0  0  0  0
  189.0720  177.5850  142.1040 C   0  0  0  0  0  0  0  0  0  0  0  0
  186.9500  178.2970  141.1770 C   0  0  0  0  0  0  0  0  0  0  0  0
  187.5620  178.4170  139.9220 C   0  0  0  0  0  3  0  0  0  0  0  0
  187.7100  177.8790  142.2690 C   0  0  0  0  0  3  0  0  0  0  0  0
  189.8930  177.1360  143.2480 C   0  0  0  0  0  0  0  0  0  0  0  0
  190.1970  177.2980  146.9160 N   0  0  0  0  0  0  0  0  0  0  0  0
  191.4500  176.2990  145.3990 C   0  0  0  0  0  0  0  0  0  0  0  0
  191.0460  176.3350  143.0400 C   0  0  0  0  0  3  0  0  0  0  0  0
  191.2120  176.6790  147.5570 C   0  0  0  0  0  3  0  0  0  0  0  0
  189.1950  178.0300  147.5100 O   0  0  0  0  0  1  0  0  0  0  0  0
  192.0320  176.0300  146.6260 C   0  0  0  0  0  3  0  0  0  0  0  0
  189.5330  177.5090  144.5620 C   0  0  0  0  0  3  0  0  0  0  0  0
  190.3420  177.0680  145.6080 C   0  0  0  0  0  0  0  0  0  0  0  0
  191.8370  175.9060  144.1210 C   0  0  0  0  0  3  0  0  0  0  0  0
  182.0600  179.1950  142.8860 N   0  0  0  0  0  2  0  0  0  0  0  0
  180.6890  179.1190  142.5930 N   0  0  0  0  0  2  0  0  0  0  0  0
  180.5190  178.2760  141.4150 C   0  0  0  0  0  2  0  0  0  0  0  0
  183.3390  177.3890  139.0000 N   0  0  0  0  0  2  0  0  0  0  0  0
  181.8120  177.9030  140.8580 N   0  0  0  0  0  2  0  0  0  0  0  0
  182.0880  177.9010  139.4590 C   0  0  0  0  0  0  0  0  0  0  0  0
  181.2410  178.3520  138.6400 O   0  0  0  0  0  0  0  0  0  0  0  0
  183.7450  177.4590  137.6060 C   0  0  0  0  0  2  0  0  0  0  0  0
  184.6690  176.3750  137.3120 N   0  0  0  0  0  0  0  0  0  0  0  0
  188.7500  177.6040  135.8160 C   0  0  0  0  0  3  0  0  0  0  0  0
  186.0520  176.6690  137.0300 C   0  0  0  0  0  0  0  0  0  0  0  0
  189.9100  175.5890  135.2170 N   0  0  0  0  0  1  0  0  0  0  0  0
  186.3720  177.8650  136.5010 C   0  0  0  0  0  3  0  0  0  0  0  0
  187.7200  178.3680  136.1740 C   0  0  0  0  0  3  0  0  0  0  0  0
  187.0530  175.7260  137.4660 N   0  0  0  0  0  0  0  0  0  0  0  0
  188.6290  176.1320  135.6320 C   0  0  1  0  0  3  0  0  0  0  0  0
  188.1980  175.4810  136.9020 C   0  0  0  0  0  3  0  0  0  0  0  0
  183.7620  174.4900  136.0370 C   0  0  0  0  0  1  0  0  0  0  0  0
  184.1580  175.0080  137.4080 C   0  0  0  0  0  2  0  0  0  0  0  0
  1  6  1  0  0  0  0
  2  5  1  0  0  0  0
  3  1  2  0  0  0  0
  4  2  2  0  0  0  0
  5  1  1  0  0  0  0
  7  2  1  0  0  0  0
  8  9  2  0  0  0  0
  9  7  2  0  0  0  0
 10 14  2  0  0  0  0
 10 11  1  0  0  0  0
 11 12  2  0  0  0  0
 12 15  1  0  0  0  0
 12 16  1  0  0  0  0
 13  8  1  0  0  0  0
 13 15  2  0  0  0  0
 14 13  1  0  0  0  0
 16 23  1  0  0  0  0
 17 21  1  0  0  0  0
 17 20  1  0  0  0  0
 18 24  1  0  0  0  0
 18 22  1  0  0  0  0
 19 16  2  0  0  0  0
 19 25  1  0  0  0  0
 22 20  2  0  0  0  0
 23 24  2  0  0  0  0
 24 17  1  0  0  0  0
 25 18  2  0  0  0  0
 26  4  1  0  0  0  0
 27 26  1  0  0  0  0
 28 27  1  0  0  0  0
 29 31  1  0  0  0  0
 30 28  1  0  0  0  0
 31 30  1  0  0  0  0
 32 31  2  0  0  0  0
 33 29  1  0  0  0  0
 34 44  1  0  0  0  0
 34 33  1  0  0  0  0
 35 39  2  0  0  0  0
 36 34  1  0  0  0  0
 36 40  1  0  0  0  0
 38 36  2  0  0  0  0
 39 38  1  0  0  0  0
 41 37  1  1  0  0  0
 41 35  1  0  0  0  0
 41 42  1  0  0  0  0
 42 40  2  0  0  0  0
 43 44  1  0  0  0  0
M  END
>  <MODEL>
1

>  <REMARK>
 VINA RESULT:      -8.8      0.000      0.000
  Name = 
  11 active torsions:
  status: ('A' for Active; 'I' for Inactive)
    1  A    between atoms: N_1  and  C_41
    2  A    between atoms: N_2  and  N_12
    3  A    between atoms: N_2  and  C_43
    4  A    between atoms: C_4  and  N_25
    5  A    between atoms: C_5  and  C_24
    6  A    between atoms: N_8  and  C_43
    7  A    between atoms: N_12  and  N_32
    8  A    between atoms: C_15  and  C_22
    9  A    between atoms: C_17  and  N_25
   10  A    between atoms: N_25  and  C_41
   11  A    between atoms: C_30  and  C_31
                            x       y       z     vdW  Elec       q    Type
                         _______ _______ _______ _____ _____    ______ ____

>  <TORSDO>
F 11

$$$$
=
 OpenBabel10222422033D

 44 47  0  0  1  0  0  0  0  0999 V2000
  185.5530  178.6770  146.3350 C   0  0  0  0  0  0  0  0  0  0  0  0
  183.7350  179.1040  144.5850 C   0  0  0  0  0  0  0  0  0  0  0  0
  186.4900  178.5900  145.4970 O   0  0  0  0  0  0  0  0  0  0  0  0
  182.4960  178.8450  144.3000 N   0  0  0  0  0  0  0  0  0  0  0  0
  184.1940  178.8390  145.9160 N   0  0  0  0  0  2  0  0  0  0  0  0
  185.8600  178.5600  147.7850 C   0  0  0  0  0  1  0  0  0  0  0  0
  184.5970  179.7500  143.5730 C   0  0  0  0  0  3  0  0  0  0  0  0
  185.4440  178.4900  141.4490 C   0  0  0  0  0  3  0  0  0  0  0  0
  184.9990  179.1210  142.5040 C   0  0  0  0  0  0  0  0  0  0  0  0
  188.8420  178.1690  139.8380 C   0  0  0  0  0  3  0  0  0  0  0  0
  189.5790  177.7560  140.9020 N   0  0  0  0  0  0  0  0  0  0  0  0
  189.0270  177.5770  142.1360 C   0  0  0  0  0  0  0  0  0  0  0  0
  186.8780  178.2460  141.2400 C   0  0  0  0  0  0  0  0  0  0  0  0
  187.4800  178.4230  139.9860 C   0  0  0  0  0  3  0  0  0  0  0  0
  187.6570  177.8210  142.3160 C   0  0  0  0  0  3  0  0  0  0  0  0
  189.8680  177.1220  143.2630 C   0  0  0  0  0  0  0  0  0  0  0  0
  190.2540  177.2870  146.9230 N   0  0  0  0  0  0  0  0  0  0  0  0
  191.4630  176.2720  145.3810 C   0  0  0  0  0  0  0  0  0  0  0  0
  191.0080  176.3080  143.0310 C   0  0  0  0  0  3  0  0  0  0  0  0
  191.2750  176.6580  147.5430 C   0  0  0  0  0  3  0  0  0  0  0  0
  189.2720  178.0300  147.5370 O   0  0  0  0  0  1  0  0  0  0  0  0
  192.0690  176.0000  146.5950 C   0  0  0  0  0  3  0  0  0  0  0  0
  189.5410  177.5000  144.5840 C   0  0  0  0  0  3  0  0  0  0  0  0
  190.3680  177.0530  145.6120 C   0  0  0  0  0  0  0  0  0  0  0  0
  191.8180  175.8730  144.0960 C   0  0  0  0  0  3  0  0  0  0  0  0
  181.9440  179.1540  143.0500 N   0  0  0  0  0  2  0  0  0  0  0  0
  180.5540  179.1540  142.8510 N   0  0  0  0  0  2  0  0  0  0  0  0
  180.2880  178.7260  141.4810 C   0  0  0  0  0  2  0  0  0  0  0  0
  182.9080  177.9800  138.8070 N   0  0  0  0  0  2  0  0  0  0  0  0
  181.5170  178.7080  140.7000 N   0  0  0  0  0  2  0  0  0  0  0  0
  181.6280  178.0610  139.4330 C   0  0  0  0  0  0  0  0  0  0  0  0
  180.6080  177.5770  138.8720 O   0  0  0  0  0  0  0  0  0  0  0  0
  183.0860  177.4430  137.4670 C   0  0  0  0  0  2  0  0  0  0  0  0
  184.1540  176.4550  137.4760 N   0  0  0  0  0  0  0  0  0  0  0  0
  183.6860  171.9830  137.0420 C   0  0  0  0  0  3  0  0  0  0  0  0
  183.8290  175.0510  137.4890 C   0  0  0  0  0  0  0  0  0  0  0  0
  181.6280  171.6080  135.8650 N   0  0  0  0  0  1  0  0  0  0  0  0
  184.8290  174.1480  137.4930 C   0  0  0  0  0  3  0  0  0  0  0  0
  184.7070  172.6780  137.5400 C   0  0  0  0  0  3  0  0  0  0  0  0
  182.4460  174.6710  137.6500 N   0  0  0  0  0  0  0  0  0  0  0  0
  182.5660  172.6250  136.3030 C   0  0  1  0  0  3  0  0  0  0  0  0
  181.8640  173.6110  137.1730 C   0  0  0  0  0  3  0  0  0  0  0  0
  185.8550  177.3350  135.9490 C   0  0  0  0  0  1  0  0  0  0  0  0
  185.5280  176.9450  137.3790 C   0  0  0  0  0  2  0  0  0  0  0  0
  1  6  1  0  0  0  0
  2  5  1  0  0  0  0
  3  1  2  0  0  0  0
  4  2  2  0  0  0  0
  5  1  1  0  0  0  0
  7  2  1  0  0  0  0
  8  9  2  0  0  0  0
  9  7  2  0  0  0  0
 10 14  2  0  0  0  0
 10 11  1  0  0  0  0
 11 12  2  0  0  0  0
 12 15  1  0  0  0  0
 12 16  1  0  0  0  0
 13  8  1  0  0  0  0
 13 15  2  0  0  0  0
 14 13  1  0  0  0  0
 16 23  1  0  0  0  0
 17 21  1  0  0  0  0
 17 20  1  0  0  0  0
 18 24  1  0  0  0  0
 18 22  1  0  0  0  0
 19 16  2  0  0  0  0
 19 25  1  0  0  0  0
 22 20  2  0  0  0  0
 23 24  2  0  0  0  0
 24 17  1  0  0  0  0
 25 18  2  0  0  0  0
 26  4  1  0  0  0  0
 27 26  1  0  0  0  0
 28 27  1  0  0  0  0
 29 31  1  0  0  0  0
 30 28  1  0  0  0  0
 31 30  1  0  0  0  0
 32 31  2  0  0  0  0
 33 34  1  0  0  0  0
 33 29  1  0  0  0  0
 34 36  1  0  0  0  0
 35 39  2  0  0  0  0
 36 38  2  0  0  0  0
 36 40  1  0  0  0  0
 38 39  1  0  0  0  0
 41 37  1  1  0  0  0
 41 35  1  0  0  0  0
 41 42  1  0  0  0  0
 42 40  2  0  0  0  0
 43 44  1  0  0  0  0
 44 34  1  0  0  0  0
M  END
>  <MODEL>
2

>  <REMARK>
 VINA RESULT:      -8.7      1.396      2.818
  Name = 
  11 active torsions:
  status: ('A' for Active; 'I' for Inactive)
    1  A    between atoms: N_1  and  C_41
    2  A    between atoms: N_2  and  N_12
    3  A    between atoms: N_2  and  C_43
    4  A    between atoms: C_4  and  N_25
    5  A    between atoms: C_5  and  C_24
    6  A    between atoms: N_8  and  C_43
    7  A    between atoms: N_12  and  N_32
    8  A    between atoms: C_15  and  C_22
    9  A    between atoms: C_17  and  N_25
   10  A    between atoms: N_25  and  C_41
   11  A    between atoms: C_30  and  C_31
                            x       y       z     vdW  Elec       q    Type
                         _______ _______ _______ _____ _____    ______ ____

>  <TORSDO>
F 11

$$$$
=
 OpenBabel10222422033D

 44 47  0  0  1  0  0  0  0  0999 V2000
  191.9450  176.3960  147.3410 C   0  0  0  0  0  0  0  0  0  0  0  0
  190.7940  176.9330  145.1170 C   0  0  0  0  0  0  0  0  0  0  0  0
  191.7800  177.5460  147.8270 O   0  0  0  0  0  0  0  0  0  0  0  0
  190.8530  176.6980  143.8430 N   0  0  0  0  0  0  0  0  0  0  0  0
  191.5550  176.0940  145.9970 N   0  0  0  0  0  2  0  0  0  0  0  0
  192.6000  175.3440  148.1620 C   0  0  0  0  0  1  0  0  0  0  0  0
  189.8820  177.9770  145.6270 C   0  0  0  0  0  3  0  0  0  0  0  0
  187.5300  177.4190  146.6130 C   0  0  0  0  0  3  0  0  0  0  0  0
  188.7180  177.6890  146.1380 C   0  0  0  0  0  0  0  0  0  0  0  0
  184.0530  178.7690  146.0360 C   0  0  0  0  0  3  0  0  0  0  0  0
  184.0210  178.7870  144.6780 N   0  0  0  0  0  0  0  0  0  0  0  0
  185.0830  178.3810  143.9250 C   0  0  0  0  0  0  0  0  0  0  0  0
  186.3050  177.9020  145.9610 C   0  0  0  0  0  0  0  0  0  0  0  0
  185.1950  178.3280  146.7030 C   0  0  0  0  0  3  0  0  0  0  0  0
  186.2450  177.9290  144.5680 C   0  0  0  0  0  3  0  0  0  0  0  0
  184.9980  178.4140  142.4500 C   0  0  0  0  0  0  0  0  0  0  0  0
  182.7110  177.9190  139.6060 N   0  0  0  0  0  0  0  0  0  0  0  0
  184.8470  178.4660  139.6710 C   0  0  0  0  0  0  0  0  0  0  0  0
  186.1390  178.7340  141.6680 C   0  0  0  0  0  3  0  0  0  0  0  0
  183.1400  178.0690  138.3340 C   0  0  0  0  0  3  0  0  0  0  0  0
  181.4340  177.5820  139.9900 O   0  0  0  0  0  1  0  0  0  0  0  0
  184.4960  178.4180  138.3320 C   0  0  0  0  0  3  0  0  0  0  0  0
  183.7740  178.1230  141.8080 C   0  0  0  0  0  3  0  0  0  0  0  0
  183.7460  178.1590  140.4150 C   0  0  0  0  0  0  0  0  0  0  0  0
  186.0710  178.7650  140.2630 C   0  0  0  0  0  3  0  0  0  0  0  0
  190.0750  177.4140  142.9230 N   0  0  0  0  0  2  0  0  0  0  0  0
  189.5560  176.7940  141.7740 N   0  0  0  0  0  2  0  0  0  0  0  0
  189.5910  177.7580  140.6790 C   0  0  0  0  0  2  0  0  0  0  0  0
  191.8850  176.5390  137.8820 N   0  0  0  0  0  2  0  0  0  0  0  0
  190.0990  177.1370  139.4640 N   0  0  0  0  0  2  0  0  0  0  0  0
  191.4890  177.0410  139.1580 C   0  0  0  0  0  0  0  0  0  0  0  0
  192.3550  177.3860  140.0070 O   0  0  0  0  0  0  0  0  0  0  0  0
  193.2760  176.3000  137.5360 C   0  0  0  0  0  2  0  0  0  0  0  0
  193.4580  174.8990  137.1880 N   0  0  0  0  0  0  0  0  0  0  0  0
  197.4870  172.9050  137.6340 C   0  0  0  0  0  3  0  0  0  0  0  0
  194.7870  174.3450  137.1170 C   0  0  0  0  0  0  0  0  0  0  0  0
  199.1150  174.6570  137.8300 N   0  0  0  0  0  1  0  0  0  0  0  0
  195.0060  173.1050  137.5950 C   0  0  0  0  0  3  0  0  0  0  0  0
  196.2750  172.3530  137.5850 C   0  0  0  0  0  3  0  0  0  0  0  0
  195.7970  175.0850  136.3990 N   0  0  0  0  0  0  0  0  0  0  0  0
  197.6920  174.3700  137.7820 C   0  0  1  0  0  3  0  0  0  0  0  0
  197.0750  175.1030  136.6390 C   0  0  0  0  0  3  0  0  0  0  0  0
  192.2660  173.4040  135.6560 C   0  0  0  0  0  1  0  0  0  0  0  0
  192.2550  174.0860  137.0120 C   0  0  0  0  0  2  0  0  0  0  0  0
  1  3  2  0  0  0  0
  1  6  1  0  0  0  0
  2  7  1  0  0  0  0
  2  5  1  0  0  0  0
  4  2  2  0  0  0  0
  5  1  1  0  0  0  0
  7  9  2  0  0  0  0
  9  8  2  0  0  0  0
 10 14  1  0  0  0  0
 11 10  2  0  0  0  0
 12 15  2  0  0  0  0
 12 11  1  0  0  0  0
 13  8  1  0  0  0  0
 13 14  2  0  0  0  0
 15 13  1  0  0  0  0
 16 12  1  0  0  0  0
 17 21  1  0  0  0  0
 17 24  1  0  0  0  0
 18 25  2  0  0  0  0
 18 24  1  0  0  0  0
 19 16  2  0  0  0  0
 20 17  1  0  0  0  0
 22 20  2  0  0  0  0
 22 18  1  0  0  0  0
 23 16  1  0  0  0  0
 24 23  2  0  0  0  0
 25 19  1  0  0  0  0
 26  4  1  0  0  0  0
 27 26  1  0  0  0  0
 28 27  1  0  0  0  0
 29 31  1  0  0  0  0
 30 28  1  0  0  0  0
 31 30  1  0  0  0  0
 31 32  2  0  0  0  0
 33 29  1  0  0  0  0
 34 33  1  0  0  0  0
 35 41  1  0  0  0  0
 36 34  1  0  0  0  0
 36 38  2  0  0  0  0
 39 38  1  0  0  0  0
 39 35  2  0  0  0  0
 40 42  2  0  0  0  0
 40 36  1  0  0  0  0
 41 37  1  6  0  0  0
 42 41  1  0  0  0  0
 43 44  1  0  0  0  0
 44 34  1  0  0  0  0
M  END
>  <MODEL>
3

>  <REMARK>
 VINA RESULT:      -8.7      4.194      8.391
  Name = 
  11 active torsions:
  status: ('A' for Active; 'I' for Inactive)
    1  A    between atoms: N_1  and  C_41
    2  A    between atoms: N_2  and  N_12
    3  A    between atoms: N_2  and  C_43
    4  A    between atoms: C_4  and  N_25
    5  A    between atoms: C_5  and  C_24
    6  A    between atoms: N_8  and  C_43
    7  A    between atoms: N_12  and  N_32
    8  A    between atoms: C_15  and  C_22
    9  A    between atoms: C_17  and  N_25
   10  A    between atoms: N_25  and  C_41
   11  A    between atoms: C_30  and  C_31
                            x       y       z     vdW  Elec       q    Type
                         _______ _______ _______ _____ _____    ______ ____

>  <TORSDO>
F 11

$$$$
=
 OpenBabel10222422033D

 44 47  0  0  1  0  0  0  0  0999 V2000
  185.6760  178.7060  146.3850 C   0  0  0  0  0  0  0  0  0  0  0  0
  183.8670  179.1220  144.6220 C   0  0  0  0  0  0  0  0  0  0  0  0
  186.6160  178.6090  145.5530 O   0  0  0  0  0  0  0  0  0  0  0  0
  182.6280  178.8640  144.3340 N   0  0  0  0  0  0  0  0  0  0  0  0
  184.3190  178.8680  145.9590 N   0  0  0  0  0  2  0  0  0  0  0  0
  185.9750  178.6010  147.8380 C   0  0  0  0  0  1  0  0  0  0  0  0
  184.7350  179.7570  143.6090 C   0  0  0  0  0  3  0  0  0  0  0  0
  185.5640  178.4860  141.4850 C   0  0  0  0  0  3  0  0  0  0  0  0
  185.1280  179.1230  142.5400 C   0  0  0  0  0  0  0  0  0  0  0  0
  188.9600  178.1420  139.8740 C   0  0  0  0  0  3  0  0  0  0  0  0
  189.6890  177.7010  140.9330 N   0  0  0  0  0  0  0  0  0  0  0  0
  189.1320  177.5090  142.1620 C   0  0  0  0  0  0  0  0  0  0  0  0
  186.9950  178.2240  141.2740 C   0  0  0  0  0  0  0  0  0  0  0  0
  187.6020  178.4130  140.0240 C   0  0  0  0  0  3  0  0  0  0  0  0
  187.7650  177.7700  142.3440 C   0  0  0  0  0  3  0  0  0  0  0  0
  189.9650  177.0230  143.2830 C   0  0  0  0  0  0  0  0  0  0  0  0
  190.3530  177.1320  146.9440 N   0  0  0  0  0  0  0  0  0  0  0  0
  191.5430  176.1150  145.3890 C   0  0  0  0  0  0  0  0  0  0  0  0
  191.0890  176.1910  143.0400 C   0  0  0  0  0  3  0  0  0  0  0  0
  191.3620  176.4750  147.5560 C   0  0  0  0  0  3  0  0  0  0  0  0
  189.3860  177.8840  147.5690 O   0  0  0  0  0  1  0  0  0  0  0  0
  192.1430  175.8150  146.5990 C   0  0  0  0  0  3  0  0  0  0  0  0
  189.6440  177.3900  144.6090 C   0  0  0  0  0  3  0  0  0  0  0  0
  190.4630  176.9140  145.6310 C   0  0  0  0  0  0  0  0  0  0  0  0
  191.8910  175.7260  144.0980 C   0  0  0  0  0  3  0  0  0  0  0  0
  182.0840  179.1630  143.0790 N   0  0  0  0  0  2  0  0  0  0  0  0
  180.7300  179.5100  142.9390 N   0  0  0  0  0  2  0  0  0  0  0  0
  180.3330  179.2600  141.5570 C   0  0  0  0  0  2  0  0  0  0  0  0
  182.6580  177.3020  139.2480 N   0  0  0  0  0  2  0  0  0  0  0  0
  181.1540  178.2110  140.9690 N   0  0  0  0  0  2  0  0  0  0  0  0
  181.9970  178.4220  139.8380 C   0  0  0  0  0  0  0  0  0  0  0  0
  182.1620  179.5810  139.3710 O   0  0  0  0  0  0  0  0  0  0  0  0
  183.6230  177.4470  138.1700 C   0  0  0  0  0  2  0  0  0  0  0  0
  183.3560  176.4550  137.1400 N   0  0  0  0  0  0  0  0  0  0  0  0
  186.1810  172.9340  137.3020 C   0  0  0  0  0  3  0  0  0  0  0  0
  184.2600  175.3480  136.9590 C   0  0  0  0  0  0  0  0  0  0  0  0
  188.3410  173.7430  136.6390 N   0  0  0  0  0  1  0  0  0  0  0  0
  184.1080  174.2480  137.7210 C   0  0  0  0  0  3  0  0  0  0  0  0
  184.9020  173.0050  137.6670 C   0  0  0  0  0  3  0  0  0  0  0  0
  185.1990  175.4040  135.8650 N   0  0  0  0  0  0  0  0  0  0  0  0
  186.9850  174.1410  136.9710 C   0  0  1  0  0  3  0  0  0  0  0  0
  186.3830  174.8710  135.8190 C   0  0  0  0  0  3  0  0  0  0  0  0
  182.0790  177.9050  135.6330 C   0  0  0  0  0  1  0  0  0  0  0  0
  182.1100  176.5870  136.3840 C   0  0  0  0  0  2  0  0  0  0  0  0
  1  6  1  0  0  0  0
  2  5  1  0  0  0  0
  3  1  2  0  0  0  0
  4  2  2  0  0  0  0
  5  1  1  0  0  0  0
  7  2  1  0  0  0  0
  8  9  2  0  0  0  0
  9  7  2  0  0  0  0
 10 14  2  0  0  0  0
 10 11  1  0  0  0  0
 11 12  2  0  0  0  0
 12 15  1  0  0  0  0
 12 16  1  0  0  0  0
 13  8  1  0  0  0  0
 13 15  2  0  0  0  0
 14 13  1  0  0  0  0
 16 23  1  0  0  0  0
 17 20  1  0  0  0  0
 17 21  1  0  0  0  0
 18 24  1  0  0  0  0
 18 22  1  0  0  0  0
 19 16  2  0  0  0  0
 19 25  1  0  0  0  0
 22 20  2  0  0  0  0
 23 24  2  0  0  0  0
 24 17  1  0  0  0  0
 25 18  2  0  0  0  0
 26  4  1  0  0  0  0
 27 26  1  0  0  0  0
 28 27  1  0  0  0  0
 29 31  1  0  0  0  0
 30 28  1  0  0  0  0
 31 30  1  0  0  0  0
 32 31  2  0  0  0  0
 33 29  1  0  0  0  0
 34 33  1  0  0  0  0
 35 39  2  0  0  0  0
 36 34  1  0  0  0  0
 36 38  2  0  0  0  0
 39 38  1  0  0  0  0
 40 36  1  0  0  0  0
 41 37  1  6  0  0  0
 41 35  1  0  0  0  0
 42 40  2  0  0  0  0
 42 41  1  0  0  0  0
 43 44  1  0  0  0  0
 44 34  1  0  0  0  0
M  END
>  <MODEL>
4

>  <REMARK>
 VINA RESULT:      -8.6      1.316      1.862
  Name = 
  11 active torsions:
  status: ('A' for Active; 'I' for Inactive)
    1  A    between atoms: N_1  and  C_41
    2  A    between atoms: N_2  and  N_12
    3  A    between atoms: N_2  and  C_43
    4  A    between atoms: C_4  and  N_25
    5  A    between atoms: C_5  and  C_24
    6  A    between atoms: N_8  and  C_43
    7  A    between atoms: N_12  and  N_32
    8  A    between atoms: C_15  and  C_22
    9  A    between atoms: C_17  and  N_25
   10  A    between atoms: N_25  and  C_41
   11  A    between atoms: C_30  and  C_31
                            x       y       z     vdW  Elec       q    Type
                         _______ _______ _______ _____ _____    ______ ____

>  <TORSDO>
F 11

$$$$
=
 OpenBabel10222422033D

 44 47  0  0  1  0  0  0  0  0999 V2000
  191.4810  176.2590  146.8340 C   0  0  0  0  0  0  0  0  0  0  0  0
  189.1580  177.3350  146.8830 C   0  0  0  0  0  0  0  0  0  0  0  0
  191.6640  176.4560  145.6040 O   0  0  0  0  0  0  0  0  0  0  0  0
  187.9830  177.2280  147.4220 N   0  0  0  0  0  0  0  0  0  0  0  0
  190.2410  176.5960  147.4640 N   0  0  0  0  0  2  0  0  0  0  0  0
  192.5560  175.6190  147.6380 C   0  0  0  0  0  1  0  0  0  0  0  0
  189.3670  178.2790  145.7660 C   0  0  0  0  0  3  0  0  0  0  0  0
  188.6130  177.7440  143.3240 C   0  0  0  0  0  3  0  0  0  0  0  0
  188.9680  178.0150  144.5530 C   0  0  0  0  0  0  0  0  0  0  0  0
  191.8680  177.4040  141.4440 C   0  0  0  0  0  3  0  0  0  0  0  0
  191.4110  177.3870  140.1650 N   0  0  0  0  0  0  0  0  0  0  0  0
  190.0820  177.4770  139.8730 C   0  0  0  0  0  0  0  0  0  0  0  0
  189.6000  177.6140  142.2420 C   0  0  0  0  0  0  0  0  0  0  0  0
  190.9730  177.5170  142.5060 C   0  0  0  0  0  3  0  0  0  0  0  0
  189.1570  177.5950  140.9200 C   0  0  0  0  0  3  0  0  0  0  0  0
  189.6330  177.4590  138.4640 C   0  0  0  0  0  0  0  0  0  0  0  0
  188.9540  175.2380  135.6050 N   0  0  0  0  0  0  0  0  0  0  0  0
  188.7970  177.4300  135.8090 C   0  0  0  0  0  0  0  0  0  0  0  0
  189.2990  178.6650  137.7970 C   0  0  0  0  0  3  0  0  0  0  0  0
  188.5320  175.7370  134.4220 C   0  0  0  0  0  3  0  0  0  0  0  0
  189.1730  173.9100  135.8870 O   0  0  0  0  0  1  0  0  0  0  0  0
  188.4190  177.1300  134.5110 C   0  0  0  0  0  3  0  0  0  0  0  0
  189.5360  176.2310  137.7720 C   0  0  0  0  0  3  0  0  0  0  0  0
  189.1150  176.2640  136.4450 C   0  0  0  0  0  0  0  0  0  0  0  0
  188.8740  178.6600  136.4560 C   0  0  0  0  0  3  0  0  0  0  0  0
  186.8910  177.9810  146.9700 N   0  0  0  0  0  2  0  0  0  0  0  0
  186.0610  177.5080  145.9410 N   0  0  0  0  0  2  0  0  0  0  0  0
  185.1900  178.6000  145.5170 C   0  0  0  0  0  2  0  0  0  0  0  0
  183.4180  178.4340  142.1410 N   0  0  0  0  0  2  0  0  0  0  0  0
  184.9160  178.5150  144.0900 N   0  0  0  0  0  2  0  0  0  0  0  0
  183.6110  178.6700  143.5350 C   0  0  0  0  0  0  0  0  0  0  0  0
  182.6440  179.0190  144.2650 O   0  0  0  0  0  0  0  0  0  0  0  0
  182.1490  178.6830  141.4770 C   0  0  0  0  0  2  0  0  0  0  0  0
  182.3810  178.9580  140.0670 N   0  0  0  0  0  0  0  0  0  0  0  0
  185.6000  177.2000  137.4300 C   0  0  0  0  0  3  0  0  0  0  0  0
  183.3700  178.2000  139.3430 C   0  0  0  0  0  0  0  0  0  0  0  0
  184.5190  175.6530  135.9480 N   0  0  0  0  0  1  0  0  0  0  0  0
  184.5480  178.7790  139.0420 C   0  0  0  0  0  3  0  0  0  0  0  0
  185.6930  178.1660  138.3420 C   0  0  0  0  0  3  0  0  0  0  0  0
  183.1140  176.8000  139.1010 N   0  0  0  0  0  0  0  0  0  0  0  0
  184.2920  176.6740  136.9550 C   0  0  1  0  0  3  0  0  0  0  0  0
  183.5190  176.0920  138.0900 C   0  0  0  0  0  3  0  0  0  0  0  0
  181.4930  179.7350  137.9200 C   0  0  0  0  0  1  0  0  0  0  0  0
  181.5200  179.9500  139.4220 C   0  0  0  0  0  2  0  0  0  0  0  0
  1  5  1  0  0  0  0
  1  6  1  0  0  0  0
  2  4  2  0  0  0  0
  2  5  1  0  0  0  0
  3  1  2  0  0  0  0
  7  2  1  0  0  0  0
  8  9  2  0  0  0  0
  9  7  2  0  0  0  0
 10 14  1  0  0  0  0
 11 10  2  0  0  0  0
 12 11  1  0  0  0  0
 12 15  2  0  0  0  0
 13 14  2  0  0  0  0
 13  8  1  0  0  0  0
 15 13  1  0  0  0  0
 16 12  1  0  0  0  0
 17 21  1  0  0  0  0
 17 24  1  0  0  0  0
 18 24  2  0  0  0  0
 18 25  1  0  0  0  0
 19 16  1  0  0  0  0
 20 22  2  0  0  0  0
 20 17  1  0  0  0  0
 22 18  1  0  0  0  0
 23 16  2  0  0  0  0
 24 23  1  0  0  0  0
 25 19  2  0  0  0  0
 26  4  1  0  0  0  0
 27 26  1  0  0  0  0
 28 27  1  0  0  0  0
 29 31  1  0  0  0  0
 30 28  1  0  0  0  0
 31 30  1  0  0  0  0
 31 32  2  0  0  0  0
 33 29  1  0  0  0  0
 34 33  1  0  0  0  0
 35 39  2  0  0  0  0
 36 34  1  0  0  0  0
 38 36  2  0  0  0  0
 39 38  1  0  0  0  0
 40 36  1  0  0  0  0
 41 37  1  6  0  0  0
 41 35  1  0  0  0  0
 41 42  1  0  0  0  0
 42 40  2  0  0  0  0
 43 44  1  0  0  0  0
 44 34  1  0  0  0  0
M  END
>  <MODEL>
5

>  <REMARK>
 VINA RESULT:      -8.6      2.240      6.439
  Name = 
  11 active torsions:
  status: ('A' for Active; 'I' for Inactive)
    1  A    between atoms: N_1  and  C_41
    2  A    between atoms: N_2  and  N_12
    3  A    between atoms: N_2  and  C_43
    4  A    between atoms: C_4  and  N_25
    5  A    between atoms: C_5  and  C_24
    6  A    between atoms: N_8  and  C_43
    7  A    between atoms: N_12  and  N_32
    8  A    between atoms: C_15  and  C_22
    9  A    between atoms: C_17  and  N_25
   10  A    between atoms: N_25  and  C_41
   11  A    between atoms: C_30  and  C_31
                            x       y       z     vdW  Elec       q    Type
                         _______ _______ _______ _____ _____    ______ ____

>  <TORSDO>
F 11

$$$$
=
 OpenBabel10222422033D

 44 47  0  0  1  0  0  0  0  0999 V2000
  191.6600  176.5050  146.3970 C   0  0  0  0  0  0  0  0  0  0  0  0
  190.3970  177.1120  144.2540 C   0  0  0  0  0  0  0  0  0  0  0  0
  191.4950  177.6290  146.9400 O   0  0  0  0  0  0  0  0  0  0  0  0
  190.4000  176.9340  142.9690 N   0  0  0  0  0  0  0  0  0  0  0  0
  191.2150  176.2530  145.0600 N   0  0  0  0  0  2  0  0  0  0  0  0
  192.3750  175.4340  147.1400 C   0  0  0  0  0  1  0  0  0  0  0  0
  189.4870  178.1130  144.8510 C   0  0  0  0  0  3  0  0  0  0  0  0
  187.1170  177.4870  145.7490 C   0  0  0  0  0  3  0  0  0  0  0  0
  188.3140  177.7890  145.3170 C   0  0  0  0  0  0  0  0  0  0  0  0
  183.7700  179.1620  145.2620 C   0  0  0  0  0  3  0  0  0  0  0  0
  183.6410  179.0630  143.9130 N   0  0  0  0  0  0  0  0  0  0  0  0
  184.5980  178.4770  143.1380 C   0  0  0  0  0  0  0  0  0  0  0  0
  185.9060  178.0450  145.1300 C   0  0  0  0  0  0  0  0  0  0  0  0
  184.9030  178.6570  145.8960 C   0  0  0  0  0  3  0  0  0  0  0  0
  185.7490  177.9560  143.7480 C   0  0  0  0  0  3  0  0  0  0  0  0
  184.4110  178.3900  141.6740 C   0  0  0  0  0  0  0  0  0  0  0  0
  182.0830  177.2640  139.0510 N   0  0  0  0  0  0  0  0  0  0  0  0
  184.0690  178.2160  138.9170 C   0  0  0  0  0  0  0  0  0  0  0  0
  185.4120  178.8670  140.7890 C   0  0  0  0  0  3  0  0  0  0  0  0
  182.3890  177.4050  137.7430 C   0  0  0  0  0  3  0  0  0  0  0  0
  180.9250  176.7160  139.5530 O   0  0  0  0  0  1  0  0  0  0  0  0
  183.6470  178.0080  137.6150 C   0  0  0  0  0  3  0  0  0  0  0  0
  183.2290  177.8230  141.1480 C   0  0  0  0  0  3  0  0  0  0  0  0
  183.1010  177.7560  139.7620 C   0  0  0  0  0  0  0  0  0  0  0  0
  185.2460  178.7860  139.3940 C   0  0  0  0  0  3  0  0  0  0  0  0
  189.5660  177.6720  142.1190 N   0  0  0  0  0  2  0  0  0  0  0  0
  189.0610  177.1110  140.9340 N   0  0  0  0  0  2  0  0  0  0  0  0
  189.3270  178.0390  139.8390 C   0  0  0  0  0  2  0  0  0  0  0  0
  191.4660  176.3200  137.1850 N   0  0  0  0  0  2  0  0  0  0  0  0
  189.7610  177.3190  138.6500 N   0  0  0  0  0  2  0  0  0  0  0  0
  191.1070  176.8960  138.4410 C   0  0  0  0  0  0  0  0  0  0  0  0
  191.9660  177.0220  139.3560 O   0  0  0  0  0  0  0  0  0  0  0  0
  192.7820  175.7570  136.9340 C   0  0  0  0  0  2  0  0  0  0  0  0
  192.7250  174.3080  137.0580 N   0  0  0  0  0  0  0  0  0  0  0  0
  189.3850  172.2840  134.7890 C   0  0  0  0  0  3  0  0  0  0  0  0
  191.5870  173.5900  136.5430 C   0  0  0  0  0  0  0  0  0  0  0  0
  187.3640  173.4610  135.3260 N   0  0  0  0  0  1  0  0  0  0  0  0
  191.7220  172.8760  135.4090 C   0  0  0  0  0  3  0  0  0  0  0  0
  190.6960  172.0510  134.7430 C   0  0  0  0  0  3  0  0  0  0  0  0
  190.3890  173.5430  137.3460 N   0  0  0  0  0  0  0  0  0  0  0  0
  188.8080  173.4720  135.4730 C   0  0  1  0  0  3  0  0  0  0  0  0
  189.1630  173.4650  136.9210 C   0  0  0  0  0  3  0  0  0  0  0  0
  194.9310  174.6470  138.0700 C   0  0  0  0  0  1  0  0  0  0  0  0
  193.8900  173.6330  137.6310 C   0  0  0  0  0  2  0  0  0  0  0  0
  1  3  2  0  0  0  0
  1  6  1  0  0  0  0
  2  7  1  0  0  0  0
  2  5  1  0  0  0  0
  4  2  2  0  0  0  0
  5  1  1  0  0  0  0
  7  9  2  0  0  0  0
  9  8  2  0  0  0  0
 10 14  1  0  0  0  0
 11 10  2  0  0  0  0
 12 15  2  0  0  0  0
 12 11  1  0  0  0  0
 13  8  1  0  0  0  0
 13 14  2  0  0  0  0
 15 13  1  0  0  0  0
 16 12  1  0  0  0  0
 17 21  1  0  0  0  0
 17 24  1  0  0  0  0
 18 25  2  0  0  0  0
 18 24  1  0  0  0  0
 19 16  2  0  0  0  0
 20 17  1  0  0  0  0
 22 20  2  0  0  0  0
 22 18  1  0  0  0  0
 23 16  1  0  0  0  0
 24 23  2  0  0  0  0
 25 19  1  0  0  0  0
 26  4  1  0  0  0  0
 27 26  1  0  0  0  0
 28 27  1  0  0  0  0
 29 31  1  0  0  0  0
 30 28  1  0  0  0  0
 31 30  1  0  0  0  0
 31 32  2  0  0  0  0
 33 34  1  0  0  0  0
 33 29  1  0  0  0  0
 34 44  1  0  0  0  0
 35 41  1  0  0  0  0
 36 34  1  0  0  0  0
 36 40  1  0  0  0  0
 38 36  2  0  0  0  0
 39 35  2  0  0  0  0
 39 38  1  0  0  0  0
 41 37  1  1  0  0  0
 41 42  1  0  0  0  0
 42 40  2  0  0  0  0
 44 43  1  0  0  0  0
M  END
>  <MODEL>
6

>  <REMARK>
 VINA RESULT:      -8.3      2.875      7.820
  Name = 
  11 active torsions:
  status: ('A' for Active; 'I' for Inactive)
    1  A    between atoms: N_1  and  C_41
    2  A    between atoms: N_2  and  N_12
    3  A    between atoms: N_2  and  C_43
    4  A    between atoms: C_4  and  N_25
    5  A    between atoms: C_5  and  C_24
    6  A    between atoms: N_8  and  C_43
    7  A    between atoms: N_12  and  N_32
    8  A    between atoms: C_15  and  C_22
    9  A    between atoms: C_17  and  N_25
   10  A    between atoms: N_25  and  C_41
   11  A    between atoms: C_30  and  C_31
                            x       y       z     vdW  Elec       q    Type
                         _______ _______ _______ _____ _____    ______ ____

>  <TORSDO>
F 11

$$$$
=
 OpenBabel10222422033D

 44 47  0  0  1  0  0  0  0  0999 V2000
  185.1430  178.7630  139.3040 C   0  0  0  0  0  0  0  0  0  0  0  0
  186.8250  177.6530  137.7260 C   0  0  0  0  0  0  0  0  0  0  0  0
  185.9540  178.8760  140.2620 O   0  0  0  0  0  0  0  0  0  0  0  0
  186.9310  176.7460  136.8040 N   0  0  0  0  0  0  0  0  0  0  0  0
  185.5120  178.0950  138.0930 N   0  0  0  0  0  2  0  0  0  0  0  0
  183.7610  179.2900  139.4540 C   0  0  0  0  0  1  0  0  0  0  0  0
  188.0450  178.2670  138.2900 C   0  0  0  0  0  3  0  0  0  0  0  0
  189.8430  176.8780  139.5760 C   0  0  0  0  0  3  0  0  0  0  0  0
  188.9490  177.5630  138.9120 C   0  0  0  0  0  0  0  0  0  0  0  0
  191.6290  177.4100  142.8580 C   0  0  0  0  0  3  0  0  0  0  0  0
  190.5680  177.5950  143.6860 N   0  0  0  0  0  0  0  0  0  0  0  0
  189.2830  177.5610  143.2310 C   0  0  0  0  0  0  0  0  0  0  0  0
  190.1160  177.1310  140.9980 C   0  0  0  0  0  0  0  0  0  0  0  0
  191.4240  177.1760  141.4990 C   0  0  0  0  0  3  0  0  0  0  0  0
  189.0450  177.3240  141.8690 C   0  0  0  0  0  3  0  0  0  0  0  0
  188.1600  177.7630  144.1710 C   0  0  0  0  0  0  0  0  0  0  0  0
  184.5940  178.6640  144.3710 N   0  0  0  0  0  0  0  0  0  0  0  0
  186.0530  178.1560  145.9470 C   0  0  0  0  0  0  0  0  0  0  0  0
  188.3490  177.5960  145.5680 C   0  0  0  0  0  3  0  0  0  0  0  0
  183.9590  178.7290  145.5620 C   0  0  0  0  0  3  0  0  0  0  0  0
  184.0280  178.9090  143.1420 O   0  0  0  0  0  1  0  0  0  0  0  0
  184.8540  178.4110  146.5910 C   0  0  0  0  0  3  0  0  0  0  0  0
  186.8880  178.1300  143.6800 C   0  0  0  0  0  3  0  0  0  0  0  0
  185.8630  178.3170  144.6050 C   0  0  0  0  0  0  0  0  0  0  0  0
  187.2890  177.7900  146.4720 C   0  0  0  0  0  3  0  0  0  0  0  0
  188.1770  176.3210  136.3250 N   0  0  0  0  0  2  0  0  0  0  0  0
  188.3040  175.7300  135.0570 N   0  0  0  0  0  2  0  0  0  0  0  0
  188.7070  174.3390  135.2390 C   0  0  0  0  0  2  0  0  0  0  0  0
  192.4110  173.8880  136.0460 N   0  0  0  0  0  2  0  0  0  0  0  0
  190.1520  174.2040  135.1240 N   0  0  0  0  0  2  0  0  0  0  0  0
  190.9940  173.8630  136.2240 C   0  0  0  0  0  0  0  0  0  0  0  0
  190.4940  173.5380  137.3340 O   0  0  0  0  0  0  0  0  0  0  0  0
  193.3330  173.4430  137.0780 C   0  0  0  0  0  2  0  0  0  0  0  0
  194.0650  174.5850  137.6030 N   0  0  0  0  0  0  0  0  0  0  0  0
  198.1500  174.9710  135.7150 C   0  0  0  0  0  3  0  0  0  0  0  0
  195.4310  174.8070  137.2020 C   0  0  0  0  0  0  0  0  0  0  0  0
  199.6000  173.4500  136.8730 N   0  0  0  0  0  1  0  0  0  0  0  0
  195.6850  175.2260  135.9470 C   0  0  0  0  0  3  0  0  0  0  0  0
  197.0000  175.5400  135.3570 C   0  0  0  0  0  3  0  0  0  0  0  0
  196.4610  174.7160  138.2080 N   0  0  0  0  0  0  0  0  0  0  0  0
  198.2210  173.8770  136.7210 C   0  0  1  0  0  3  0  0  0  0  0  0
  197.6940  174.3420  138.0360 C   0  0  0  0  0  3  0  0  0  0  0  0
  193.1090  176.8370  137.7430 C   0  0  0  0  0  1  0  0  0  0  0  0
  193.3330  175.5190  138.4600 C   0  0  0  0  0  2  0  0  0  0  0  0
  1  6  1  0  0  0  0
  1  3  2  0  0  0  0
  2  5  1  0  0  0  0
  2  7  1  0  0  0  0
  4  2  2  0  0  0  0
  5  1  1  0  0  0  0
  7  9  2  0  0  0  0
  8 13  1  0  0  0  0
  9  8  2  0  0  0  0
 10 11  1  0  0  0  0
 12 11  2  0  0  0  0
 12 16  1  0  0  0  0
 13 14  1  0  0  0  0
 13 15  2  0  0  0  0
 14 10  2  0  0  0  0
 15 12  1  0  0  0  0
 16 19  1  0  0  0  0
 17 24  1  0  0  0  0
 17 20  1  0  0  0  0
 18 25  1  0  0  0  0
 18 22  1  0  0  0  0
 19 25  2  0  0  0  0
 20 22  2  0  0  0  0
 21 17  1  0  0  0  0
 23 16  2  0  0  0  0
 23 24  1  0  0  0  0
 24 18  2  0  0  0  0
 26  4  1  0  0  0  0
 27 28  1  0  0  0  0
 27 26  1  0  0  0  0
 29 31  1  0  0  0  0
 29 33  1  0  0  0  0
 30 28  1  0  0  0  0
 30 31  1  0  0  0  0
 31 32  2  0  0  0  0
 33 34  1  0  0  0  0
 34 44  1  0  0  0  0
 35 41  1  0  0  0  0
 36 34  1  0  0  0  0
 36 40  1  0  0  0  0
 38 36  2  0  0  0  0
 39 35  2  0  0  0  0
 39 38  1  0  0  0  0
 41 37  1  1  0  0  0
 41 42  1  0  0  0  0
 42 40  2  0  0  0  0
 43 44  1  0  0  0  0
M  END
>  <MODEL>
7

>  <REMARK>
 VINA RESULT:      -8.1      4.596      7.882
  Name = 
  11 active torsions:
  status: ('A' for Active; 'I' for Inactive)
    1  A    between atoms: N_1  and  C_41
    2  A    between atoms: N_2  and  N_12
    3  A    between atoms: N_2  and  C_43
    4  A    between atoms: C_4  and  N_25
    5  A    between atoms: C_5  and  C_24
    6  A    between atoms: N_8  and  C_43
    7  A    between atoms: N_12  and  N_32
    8  A    between atoms: C_15  and  C_22
    9  A    between atoms: C_17  and  N_25
   10  A    between atoms: N_25  and  C_41
   11  A    between atoms: C_30  and  C_31
                            x       y       z     vdW  Elec       q    Type
                         _______ _______ _______ _____ _____    ______ ____

>  <TORSDO>
F 11

$$$$
=
 OpenBabel10222422033D

 44 47  0  0  1  0  0  0  0  0999 V2000
  182.2060  178.4190  141.2420 C   0  0  0  0  0  0  0  0  0  0  0  0
  183.8320  178.7810  143.1870 C   0  0  0  0  0  0  0  0  0  0  0  0
  183.1070  178.2070  140.3880 O   0  0  0  0  0  0  0  0  0  0  0  0
  184.0160  179.4890  144.2590 N   0  0  0  0  0  0  0  0  0  0  0  0
  182.5290  178.7860  142.5880 N   0  0  0  0  0  2  0  0  0  0  0  0
  180.7790  178.3350  140.8330 C   0  0  0  0  0  1  0  0  0  0  0  0
  184.9240  177.9250  142.6790 C   0  0  0  0  0  3  0  0  0  0  0  0
  186.7680  178.8210  141.0630 C   0  0  0  0  0  3  0  0  0  0  0  0
  185.8530  178.3840  141.8900 C   0  0  0  0  0  0  0  0  0  0  0  0
  186.1170  178.0330  137.4300 C   0  0  0  0  0  3  0  0  0  0  0  0
  187.1880  177.2440  137.1550 N   0  0  0  0  0  0  0  0  0  0  0  0
  188.1290  176.9500  138.0980 C   0  0  0  0  0  0  0  0  0  0  0  0
  186.8980  178.2880  139.6990 C   0  0  0  0  0  0  0  0  0  0  0  0
  185.9520  178.5710  138.7050 C   0  0  0  0  0  3  0  0  0  0  0  0
  187.9880  177.4740  139.3920 C   0  0  0  0  0  3  0  0  0  0  0  0
  189.2750  176.0830  137.7530 C   0  0  0  0  0  0  0  0  0  0  0  0
  192.9540  175.9490  137.6380 N   0  0  0  0  0  0  0  0  0  0  0  0
  191.4300  174.4500  137.0920 C   0  0  0  0  0  0  0  0  0  0  0  0
  189.0640  174.7700  137.2570 C   0  0  0  0  0  3  0  0  0  0  0  0
  193.5960  174.8430  137.2020 C   0  0  0  0  0  3  0  0  0  0  0  0
  193.5520  177.1080  138.0740 O   0  0  0  0  0  1  0  0  0  0  0  0
  192.6600  173.8640  136.8450 C   0  0  0  0  0  3  0  0  0  0  0  0
  190.5940  176.5620  137.9150 C   0  0  0  0  0  3  0  0  0  0  0  0
  191.6410  175.7100  137.5700 C   0  0  0  0  0  0  0  0  0  0  0  0
  190.1470  173.9370  136.9220 C   0  0  0  0  0  3  0  0  0  0  0  0
  185.2320  179.4720  144.9540 N   0  0  0  0  0  2  0  0  0  0  0  0
  185.2870  179.7690  146.3260 N   0  0  0  0  0  2  0  0  0  0  0  0
  185.2280  178.5130  147.0680 C   0  0  0  0  0  2  0  0  0  0  0  0
  188.6750  176.9130  146.7110 N   0  0  0  0  0  2  0  0  0  0  0  0
  186.3250  177.6360  146.6820 N   0  0  0  0  0  2  0  0  0  0  0  0
  187.6300  177.7220  147.2500 C   0  0  0  0  0  0  0  0  0  0  0  0
  187.8550  178.4960  148.2200 O   0  0  0  0  0  0  0  0  0  0  0  0
  190.0000  176.8540  147.3060 C   0  0  0  0  0  2  0  0  0  0  0  0
  190.9770  176.5000  146.2870 N   0  0  0  0  0  0  0  0  0  0  0  0
  190.2070  177.1400  141.8830 C   0  0  0  0  0  3  0  0  0  0  0  0
  190.7790  176.9280  144.9250 C   0  0  0  0  0  0  0  0  0  0  0  0
  192.3210  177.6640  140.8740 N   0  0  0  0  0  1  0  0  0  0  0  0
  189.7550  176.4110  144.2190 C   0  0  0  0  0  3  0  0  0  0  0  0
  189.3650  176.7410  142.8350 C   0  0  0  0  0  3  0  0  0  0  0  0
  191.5960  178.0060  144.4220 N   0  0  0  0  0  0  0  0  0  0  0  0
  191.6760  177.2270  142.0990 C   0  0  1  0  0  3  0  0  0  0  0  0
  191.9870  178.1880  143.1960 C   0  0  0  0  0  3  0  0  0  0  0  0
  192.4620  176.0680  148.1870 C   0  0  0  0  0  1  0  0  0  0  0  0
  192.1790  175.7900  146.7230 C   0  0  0  0  0  2  0  0  0  0  0  0
  1  5  1  0  0  0  0
  2  4  2  0  0  0  0
  3  1  2  0  0  0  0
  4 26  1  0  0  0  0
  5  2  1  0  0  0  0
  6  1  1  0  0  0  0
  7  2  1  0  0  0  0
  8  9  2  0  0  0  0
  9  7  2  0  0  0  0
 10 14  1  0  0  0  0
 11 10  2  0  0  0  0
 11 12  1  0  0  0  0
 12 15  2  0  0  0  0
 13  8  1  0  0  0  0
 14 13  2  0  0  0  0
 15 13  1  0  0  0  0
 16 23  1  0  0  0  0
 16 12  1  0  0  0  0
 17 21  1  0  0  0  0
 18 24  1  0  0  0  0
 19 16  2  0  0  0  0
 20 17  1  0  0  0  0
 22 18  1  0  0  0  0
 22 20  2  0  0  0  0
 24 17  1  0  0  0  0
 24 23  2  0  0  0  0
 25 18  2  0  0  0  0
 25 19  1  0  0  0  0
 26 27  1  0  0  0  0
 27 28  1  0  0  0  0
 29 31  1  0  0  0  0
 29 33  1  0  0  0  0
 30 28  1  0  0  0  0
 30 31  1  0  0  0  0
 31 32  2  0  0  0  0
 34 44  1  0  0  0  0
 34 33  1  0  0  0  0
 35 41  1  0  0  0  0
 35 39  2  0  0  0  0
 36 34  1  0  0  0  0
 38 36  2  0  0  0  0
 39 38  1  0  0  0  0
 40 36  1  0  0  0  0
 41 37  1  6  0  0  0
 41 42  1  0  0  0  0
 42 40  2  0  0  0  0
 44 43  1  0  0  0  0
M  END
>  <MODEL>
8

>  <REMARK>
 VINA RESULT:      -8.0      2.611      7.626
  Name = 
  11 active torsions:
  status: ('A' for Active; 'I' for Inactive)
    1  A    between atoms: N_1  and  C_41
    2  A    between atoms: N_2  and  N_12
    3  A    between atoms: N_2  and  C_43
    4  A    between atoms: C_4  and  N_25
    5  A    between atoms: C_5  and  C_24
    6  A    between atoms: N_8  and  C_43
    7  A    between atoms: N_12  and  N_32
    8  A    between atoms: C_15  and  C_22
    9  A    between atoms: C_17  and  N_25
   10  A    between atoms: N_25  and  C_41
   11  A    between atoms: C_30  and  C_31
                            x       y       z     vdW  Elec       q    Type
                         _______ _______ _______ _____ _____    ______ ____

>  <TORSDO>
F 11

$$$$
=
 OpenBabel10222422033D

 44 47  0  0  1  0  0  0  0  0999 V2000
  192.7340  176.2760  148.4080 C   0  0  0  0  0  0  0  0  0  0  0  0
  190.6280  176.7880  147.0450 C   0  0  0  0  0  0  0  0  0  0  0  0
  193.1260  175.3450  147.6550 O   0  0  0  0  0  0  0  0  0  0  0  0
  189.3850  177.1370  147.1610 N   0  0  0  0  0  0  0  0  0  0  0  0
  191.4830  176.9350  148.1870 N   0  0  0  0  0  2  0  0  0  0  0  0
  193.5650  176.6640  149.5790 C   0  0  0  0  0  1  0  0  0  0  0  0
  191.1450  176.3500  145.7320 C   0  0  0  0  0  3  0  0  0  0  0  0
  191.4450  177.9970  143.7280 C   0  0  0  0  0  3  0  0  0  0  0  0
  191.3130  177.1820  144.7420 C   0  0  0  0  0  0  0  0  0  0  0  0
  188.6170  178.0140  141.2300 C   0  0  0  0  0  3  0  0  0  0  0  0
  189.2440  177.4830  140.1470 N   0  0  0  0  0  0  0  0  0  0  0  0
  190.5570  177.1180  140.1820 C   0  0  0  0  0  0  0  0  0  0  0  0
  190.6650  177.8320  142.4940 C   0  0  0  0  0  0  0  0  0  0  0  0
  189.3150  178.1990  142.4220 C   0  0  0  0  0  3  0  0  0  0  0  0
  191.2850  177.2890  141.3690 C   0  0  0  0  0  3  0  0  0  0  0  0
  191.1940  176.5400  138.9800 C   0  0  0  0  0  0  0  0  0  0  0  0
  190.6570  174.2150  136.1730 N   0  0  0  0  0  0  0  0  0  0  0  0
  192.4040  175.4470  136.7230 C   0  0  0  0  0  0  0  0  0  0  0  0
  192.5190  176.9020  138.6200 C   0  0  0  0  0  3  0  0  0  0  0  0
  191.6260  173.9950  135.2580 C   0  0  0  0  0  3  0  0  0  0  0  0
  189.4090  173.6370  136.1810 O   0  0  0  0  0  1  0  0  0  0  0  0
  192.7550  174.7620  135.5720 C   0  0  0  0  0  3  0  0  0  0  0  0
  190.4840  175.6170  138.1800 C   0  0  0  0  0  3  0  0  0  0  0  0
  191.1290  175.0950  137.0620 C   0  0  0  0  0  0  0  0  0  0  0  0
  193.1370  176.3560  137.4800 C   0  0  0  0  0  3  0  0  0  0  0  0
  188.5040  177.1070  146.0720 N   0  0  0  0  0  2  0  0  0  0  0  0
  187.7160  178.2230  145.7450 N   0  0  0  0  0  2  0  0  0  0  0  0
  186.3620  177.7580  145.4580 C   0  0  0  0  0  2  0  0  0  0  0  0
  185.0970  178.1710  141.8810 N   0  0  0  0  0  2  0  0  0  0  0  0
  186.1640  177.6060  144.0240 N   0  0  0  0  0  2  0  0  0  0  0  0
  185.3400  178.4800  143.2530 C   0  0  0  0  0  0  0  0  0  0  0  0
  184.8420  179.5140  143.7750 O   0  0  0  0  0  0  0  0  0  0  0  0
  184.3690  179.0680  140.9980 C   0  0  0  0  0  2  0  0  0  0  0  0
  183.6940  178.2950  139.9660 N   0  0  0  0  0  0  0  0  0  0  0  0
  185.3370  177.0350  135.9520 C   0  0  0  0  0  3  0  0  0  0  0  0
  184.3310  178.0970  138.6890 C   0  0  0  0  0  0  0  0  0  0  0  0
  187.6750  176.5910  136.2630 N   0  0  0  0  0  1  0  0  0  0  0  0
  183.6240  177.5470  137.6830 C   0  0  0  0  0  3  0  0  0  0  0  0
  184.0790  177.2940  136.3030 C   0  0  0  0  0  3  0  0  0  0  0  0
  185.6560  178.6340  138.4960 N   0  0  0  0  0  0  0  0  0  0  0  0
  186.4330  176.8980  136.9490 C   0  0  1  0  0  3  0  0  0  0  0  0
  186.5910  178.1590  137.7280 C   0  0  0  0  0  3  0  0  0  0  0  0
  181.4850  178.6860  140.9510 C   0  0  0  0  0  1  0  0  0  0  0  0
  182.4180  177.6710  140.3160 C   0  0  0  0  0  2  0  0  0  0  0  0
  1  6  1  0  0  0  0
  2  4  2  0  0  0  0
  2  5  1  0  0  0  0
  3  1  2  0  0  0  0
  5  1  1  0  0  0  0
  7  2  1  0  0  0  0
  8  9  2  0  0  0  0
  9  7  2  0  0  0  0
 10 14  1  0  0  0  0
 11 12  1  0  0  0  0
 11 10  2  0  0  0  0
 12 15  2  0  0  0  0
 13  8  1  0  0  0  0
 14 13  2  0  0  0  0
 15 13  1  0  0  0  0
 16 12  1  0  0  0  0
 17 21  1  0  0  0  0
 17 24  1  0  0  0  0
 18 24  2  0  0  0  0
 18 25  1  0  0  0  0
 19 16  1  0  0  0  0
 20 22  2  0  0  0  0
 20 17  1  0  0  0  0
 22 18  1  0  0  0  0
 23 16  2  0  0  0  0
 24 23  1  0  0  0  0
 25 19  2  0  0  0  0
 26  4  1  0  0  0  0
 27 26  1  0  0  0  0
 28 27  1  0  0  0  0
 29 31  1  0  0  0  0
 30 28  1  0  0  0  0
 31 32  2  0  0  0  0
 31 30  1  0  0  0  0
 33 29  1  0  0  0  0
 34 44  1  0  0  0  0
 34 33  1  0  0  0  0
 35 39  2  0  0  0  0
 35 41  1  0  0  0  0
 36 34  1  0  0  0  0
 38 36  2  0  0  0  0
 39 38  1  0  0  0  0
 40 36  1  0  0  0  0
 41 37  1  6  0  0  0
 41 42  1  0  0  0  0
 42 40  2  0  0  0  0
 44 43  1  0  0  0  0
M  END
>  <MODEL>
9

>  <REMARK>
 VINA RESULT:      -7.9      2.748      6.489
  Name = 
  11 active torsions:
  status: ('A' for Active; 'I' for Inactive)
    1  A    between atoms: N_1  and  C_41
    2  A    between atoms: N_2  and  N_12
    3  A    between atoms: N_2  and  C_43
    4  A    between atoms: C_4  and  N_25
    5  A    between atoms: C_5  and  C_24
    6  A    between atoms: N_8  and  C_43
    7  A    between atoms: N_12  and  N_32
    8  A    between atoms: C_15  and  C_22
    9  A    between atoms: C_17  and  N_25
   10  A    between atoms: N_25  and  C_41
   11  A    between atoms: C_30  and  C_31
                            x       y       z     vdW  Elec       q    Type
                         _______ _______ _______ _____ _____    ______ ____

>  <TORSDO>
F 11

$$$$
