=
 OpenBabel10232408363D

 28 30  0  0  1  0  0  0  0  0999 V2000
  189.8950  178.1670  144.6360 N   0  0  0  0  0  2  0  0  0  0  0  0
  190.9400  177.2720  140.6320 C   0  0  0  0  0  0  0  0  0  0  0  0
  189.2570  177.8680  142.2700 C   0  0  0  0  0  3  0  0  0  0  0  0
  191.9150  177.2810  141.6340 C   0  0  0  0  0  3  0  0  0  0  0  0
  189.6100  177.5720  140.9500 C   0  0  0  0  0  3  0  0  0  0  0  0
  190.2340  177.8730  143.2780 C   0  0  0  0  0  0  0  0  0  0  0  0
  191.5610  177.5760  142.9540 C   0  0  0  0  0  3  0  0  0  0  0  0
  191.3230  176.9750  139.2260 C   0  0  0  0  0  2  0  0  0  0  0  0
  190.8030  175.6720  138.8360 N   0  0  0  0  0  2  0  0  0  0  0  0
  189.8710  173.4260  137.3650 O   0  0  0  0  0  1  0  0  0  0  0  0
  190.0470  175.8500  137.6680 N   0  0  0  0  0  0  0  0  0  0  0  0
  189.5900  174.7130  136.9210 C   0  0  0  0  0  0  0  0  0  0  0  0
  189.8690  177.1950  137.1450 C   0  0  0  0  0  1  0  0  0  0  0  0
  188.9310  174.8700  135.8580 O   0  0  0  0  0  0  0  0  0  0  0  0
  189.1460  177.2610  145.4980 C   0  0  2  0  0  3  0  0  0  0  0  0
  187.1960  178.0500  146.7500 N   0  0  0  0  0  0  0  0  0  0  0  0
  185.7280  178.2460  144.9680 C   0  0  0  0  0  0  0  0  0  0  0  0
  184.5580  178.4970  144.1810 N   0  0  0  0  0  0  0  0  0  0  0  0
  183.1330  178.7580  142.3180 C   0  0  0  0  0  2  0  0  0  0  0  0
  183.3000  178.9440  144.7390 C   0  0  0  0  0  2  0  0  0  0  0  0
  182.3100  178.9150  143.5890 C   0  0  0  0  0  2  0  0  0  0  0  0
  184.5080  178.2890  142.7500 C   0  0  0  0  0  2  0  0  0  0  0  0
  187.7260  177.7210  145.6110 C   0  0  0  0  0  0  0  0  0  0  0  0
  185.8730  178.4090  146.3960 C   0  0  0  0  0  0  0  0  0  0  0  0
  185.0000  178.8090  147.2100 O   0  0  0  0  0  0  0  0  0  0  0  0
  186.8480  177.8330  144.4780 N   0  0  0  0  0  0  0  0  0  0  0  0
  191.1960  176.6360  146.7760 C   0  0  0  0  0  1  0  0  0  0  0  0
  189.7990  177.2190  146.8690 C   0  0  0  0  0  2  0  0  0  0  0  0
  1 15  1  0  0  0  0
  2  5  2  0  0  0  0
  2  4  1  0  0  0  0
  3  6  2  0  0  0  0
  4  7  2  0  0  0  0
  5  3  1  0  0  0  0
  6  1  1  0  0  0  0
  7  6  1  0  0  0  0
  8  2  1  0  0  0  0
  9  8  1  0  0  0  0
 11  9  1  0  0  0  0
 12 10  1  0  0  0  0
 12 11  1  0  0  0  0
 13 11  1  0  0  0  0
 14 12  2  0  0  0  0
 15 23  1  0  0  0  0
 15 28  1  1  0  0  0
 17 24  1  0  0  0  0
 18 20  1  0  0  0  0
 18 17  1  0  0  0  0
 19 22  1  0  0  0  0
 19 21  1  0  0  0  0
 21 20  1  0  0  0  0
 22 18  1  0  0  0  0
 23 16  2  0  0  0  0
 24 16  1  0  0  0  0
 24 25  2  0  0  0  0
 26 17  2  0  0  0  0
 26 23  1  0  0  0  0
 27 28  1  0  0  0  0
M  END
>  <MODEL>
1

>  <REMARK>
 VINA RESULT:      -8.4      0.000      0.000
  Name = 
  7 active torsions:
  status: ('A' for Active; 'I' for Inactive)
    1  A    between atoms: C_2  and  C_15
    2  A    between atoms: N_6  and  C_15
    3  A    between atoms: N_6  and  N_16
    4  A    between atoms: N_11  and  C_23
    5  A    between atoms: N_11  and  C_27
    6  A    between atoms: C_18  and  C_27
    7  A    between atoms: C_19  and  C_27
                            x       y       z     vdW  Elec       q    Type
                         _______ _______ _______ _____ _____    ______ ____

>  <TORSDO>
F 7

$$$$
=
 OpenBabel10232408363D

 28 30  0  0  1  0  0  0  0  0999 V2000
  189.6770  178.2000  144.0480 N   0  0  0  0  0  2  0  0  0  0  0  0
  190.0970  177.2180  139.9510 C   0  0  0  0  0  0  0  0  0  0  0  0
  188.7970  178.2060  141.7410 C   0  0  0  0  0  3  0  0  0  0  0  0
  191.1070  176.8970  140.8650 C   0  0  0  0  0  3  0  0  0  0  0  0
  188.9430  177.8780  140.3900 C   0  0  0  0  0  3  0  0  0  0  0  0
  189.8070  177.8810  142.6600 C   0  0  0  0  0  0  0  0  0  0  0  0
  190.9590  177.2240  142.2160 C   0  0  0  0  0  3  0  0  0  0  0  0
  190.2660  176.8840  138.5120 C   0  0  0  0  0  2  0  0  0  0  0  0
  191.1160  175.7100  138.3730 N   0  0  0  0  0  2  0  0  0  0  0  0
  193.7910  176.5480  138.8410 O   0  0  0  0  0  1  0  0  0  0  0  0
  191.9880  175.9430  137.2990 N   0  0  0  0  0  0  0  0  0  0  0  0
  193.3330  176.3790  137.5390 C   0  0  0  0  0  0  0  0  0  0  0  0
  191.4630  175.8870  135.9440 C   0  0  0  0  0  1  0  0  0  0  0  0
  194.1120  176.6110  136.5750 O   0  0  0  0  0  0  0  0  0  0  0  0
  189.0390  177.3260  145.0240 C   0  0  2  0  0  3  0  0  0  0  0  0
  187.1730  178.0500  146.4340 N   0  0  0  0  0  0  0  0  0  0  0  0
  185.5780  178.2700  144.7680 C   0  0  0  0  0  0  0  0  0  0  0  0
  184.3510  178.5230  144.0740 N   0  0  0  0  0  0  0  0  0  0  0  0
  182.7910  178.8110  142.3260 C   0  0  0  0  0  2  0  0  0  0  0  0
  183.1300  178.9350  144.7330 C   0  0  0  0  0  2  0  0  0  0  0  0
  182.0610  178.9210  143.6570 C   0  0  0  0  0  2  0  0  0  0  0  0
  184.2010  178.3520  142.6450 C   0  0  0  0  0  2  0  0  0  0  0  0
  187.6250  177.7590  145.2510 C   0  0  0  0  0  0  0  0  0  0  0  0
  185.8230  178.3960  146.1850 C   0  0  0  0  0  0  0  0  0  0  0  0
  185.0060  178.7610  147.0710 O   0  0  0  0  0  0  0  0  0  0  0  0
  186.6660  177.8880  144.1870 N   0  0  0  0  0  0  0  0  0  0  0  0
  191.2260  176.8360  146.1210 C   0  0  0  0  0  1  0  0  0  0  0  0
  189.8210  177.3710  146.3250 C   0  0  0  0  0  2  0  0  0  0  0  0
  1 15  1  0  0  0  0
  2  5  2  0  0  0  0
  2  4  1  0  0  0  0
  3  6  2  0  0  0  0
  4  7  2  0  0  0  0
  5  3  1  0  0  0  0
  6  1  1  0  0  0  0
  7  6  1  0  0  0  0
  8  2  1  0  0  0  0
  9  8  1  0  0  0  0
 11 12  1  0  0  0  0
 11  9  1  0  0  0  0
 12 10  1  0  0  0  0
 13 11  1  0  0  0  0
 14 12  2  0  0  0  0
 15 23  1  0  0  0  0
 15 28  1  1  0  0  0
 17 24  1  0  0  0  0
 18 20  1  0  0  0  0
 18 17  1  0  0  0  0
 19 22  1  0  0  0  0
 19 21  1  0  0  0  0
 21 20  1  0  0  0  0
 22 18  1  0  0  0  0
 23 16  2  0  0  0  0
 24 16  1  0  0  0  0
 24 25  2  0  0  0  0
 26 17  2  0  0  0  0
 26 23  1  0  0  0  0
 27 28  1  0  0  0  0
M  END
>  <MODEL>
2

>  <REMARK>
 VINA RESULT:      -8.3      1.705      1.835
  Name = 
  7 active torsions:
  status: ('A' for Active; 'I' for Inactive)
    1  A    between atoms: C_2  and  C_15
    2  A    between atoms: N_6  and  C_15
    3  A    between atoms: N_6  and  N_16
    4  A    between atoms: N_11  and  C_23
    5  A    between atoms: N_11  and  C_27
    6  A    between atoms: C_18  and  C_27
    7  A    between atoms: C_19  and  C_27
                            x       y       z     vdW  Elec       q    Type
                         _______ _______ _______ _____ _____    ______ ____

>  <TORSDO>
F 7

$$$$
=
 OpenBabel10232408363D

 28 30  0  0  1  0  0  0  0  0999 V2000
  190.0300  178.1390  144.9250 N   0  0  0  0  0  2  0  0  0  0  0  0
  190.9730  177.2560  140.8930 C   0  0  0  0  0  0  0  0  0  0  0  0
  191.6710  177.4770  143.2020 C   0  0  0  0  0  3  0  0  0  0  0  0
  189.6680  177.6060  141.2560 C   0  0  0  0  0  3  0  0  0  0  0  0
  191.9740  177.1870  141.8690 C   0  0  0  0  0  3  0  0  0  0  0  0
  190.3630  177.8310  143.5680 C   0  0  0  0  0  0  0  0  0  0  0  0
  189.3660  177.8970  142.5900 C   0  0  0  0  0  3  0  0  0  0  0  0
  191.2860  176.9310  139.4760 C   0  0  0  0  0  2  0  0  0  0  0  0
  190.0970  176.4160  138.8120 N   0  0  0  0  0  2  0  0  0  0  0  0
  188.3980  178.6410  138.3280 O   0  0  0  0  0  1  0  0  0  0  0  0
  190.0350  177.0010  137.5390 N   0  0  0  0  0  0  0  0  0  0  0  0
  189.1660  178.1160  137.2950 C   0  0  0  0  0  0  0  0  0  0  0  0
  190.7430  176.3650  136.4390 C   0  0  0  0  0  1  0  0  0  0  0  0
  189.0900  178.6290  136.1470 O   0  0  0  0  0  0  0  0  0  0  0  0
  189.2530  177.2590  145.7880 C   0  0  2  0  0  3  0  0  0  0  0  0
  187.2660  178.0670  146.9690 N   0  0  0  0  0  0  0  0  0  0  0  0
  185.8610  178.2600  145.1370 C   0  0  0  0  0  0  0  0  0  0  0  0
  184.7190  178.5120  144.3100 N   0  0  0  0  0  0  0  0  0  0  0  0
  183.3590  178.7690  142.3970 C   0  0  0  0  0  2  0  0  0  0  0  0
  183.4460  178.9700  144.8220 C   0  0  0  0  0  2  0  0  0  0  0  0
  182.4950  178.9390  143.6400 C   0  0  0  0  0  2  0  0  0  0  0  0
  184.7170  178.2950  142.8790 C   0  0  0  0  0  2  0  0  0  0  0  0
  187.8330  177.7270  145.8500 C   0  0  0  0  0  0  0  0  0  0  0  0
  185.9580  178.4300  146.5680 C   0  0  0  0  0  0  0  0  0  0  0  0
  185.0610  178.8410  147.3500 O   0  0  0  0  0  0  0  0  0  0  0  0
  186.9940  177.8370  144.6880 N   0  0  0  0  0  0  0  0  0  0  0  0
  191.1710  176.4720  147.1780 C   0  0  0  0  0  1  0  0  0  0  0  0
  189.8680  177.2490  147.1780 C   0  0  0  0  0  2  0  0  0  0  0  0
  1 15  1  0  0  0  0
  2  4  2  0  0  0  0
  2  5  1  0  0  0  0
  3  6  1  0  0  0  0
  4  7  1  0  0  0  0
  5  3  2  0  0  0  0
  6  1  1  0  0  0  0
  7  6  2  0  0  0  0
  8  2  1  0  0  0  0
  9  8  1  0  0  0  0
 11  9  1  0  0  0  0
 12 11  1  0  0  0  0
 12 10  1  0  0  0  0
 13 11  1  0  0  0  0
 14 12  2  0  0  0  0
 15 23  1  0  0  0  0
 15 28  1  1  0  0  0
 17 24  1  0  0  0  0
 18 20  1  0  0  0  0
 18 17  1  0  0  0  0
 19 22  1  0  0  0  0
 19 21  1  0  0  0  0
 21 20  1  0  0  0  0
 22 18  1  0  0  0  0
 23 16  2  0  0  0  0
 24 16  1  0  0  0  0
 24 25  2  0  0  0  0
 26 17  2  0  0  0  0
 26 23  1  0  0  0  0
 27 28  1  0  0  0  0
M  END
>  <MODEL>
3

>  <REMARK>
 VINA RESULT:      -8.3      1.377      1.751
  Name = 
  7 active torsions:
  status: ('A' for Active; 'I' for Inactive)
    1  A    between atoms: C_2  and  C_15
    2  A    between atoms: N_6  and  C_15
    3  A    between atoms: N_6  and  N_16
    4  A    between atoms: N_11  and  C_23
    5  A    between atoms: N_11  and  C_27
    6  A    between atoms: C_18  and  C_27
    7  A    between atoms: C_19  and  C_27
                            x       y       z     vdW  Elec       q    Type
                         _______ _______ _______ _____ _____    ______ ____

>  <TORSDO>
F 7

$$$$
=
 OpenBabel10232408363D

 28 30  0  0  1  0  0  0  0  0999 V2000
  189.7260  178.0970  144.0470 N   0  0  0  0  0  2  0  0  0  0  0  0
  189.8550  177.6470  139.8380 C   0  0  0  0  0  0  0  0  0  0  0  0
  190.8730  177.3010  142.0100 C   0  0  0  0  0  3  0  0  0  0  0  0
  188.7640  178.2720  140.4520 C   0  0  0  0  0  3  0  0  0  0  0  0
  190.9080  177.1560  140.6200 C   0  0  0  0  0  3  0  0  0  0  0  0
  189.7810  177.9310  142.6270 C   0  0  0  0  0  0  0  0  0  0  0  0
  188.7310  178.4170  141.8420 C   0  0  0  0  0  3  0  0  0  0  0  0
  189.8790  177.4790  138.3610 C   0  0  0  0  0  2  0  0  0  0  0  0
  189.2190  178.6090  137.7240 N   0  0  0  0  0  2  0  0  0  0  0  0
  186.3840  178.7560  137.8450 O   0  0  0  0  0  1  0  0  0  0  0  0
  188.4350  178.1070  136.6750 N   0  0  0  0  0  0  0  0  0  0  0  0
  187.0040  178.1710  136.7460 C   0  0  0  0  0  0  0  0  0  0  0  0
  189.0870  177.3850  135.5940 C   0  0  0  0  0  1  0  0  0  0  0  0
  186.2950  177.7000  135.8160 O   0  0  0  0  0  0  0  0  0  0  0  0
  189.0430  177.1750  144.9440 C   0  0  2  0  0  3  0  0  0  0  0  0
  187.2200  177.9510  146.3840 N   0  0  0  0  0  0  0  0  0  0  0  0
  185.6050  178.2120  144.7430 C   0  0  0  0  0  0  0  0  0  0  0  0
  184.3740  178.4970  144.0690 N   0  0  0  0  0  0  0  0  0  0  0  0
  182.7940  178.8250  142.3460 C   0  0  0  0  0  2  0  0  0  0  0  0
  183.1750  178.9420  144.7470 C   0  0  0  0  0  2  0  0  0  0  0  0
  182.0890  178.9560  143.6890 C   0  0  0  0  0  2  0  0  0  0  0  0
  184.1960  178.3290  142.6430 C   0  0  0  0  0  2  0  0  0  0  0  0
  187.6440  177.6470  145.1940 C   0  0  0  0  0  0  0  0  0  0  0  0
  185.8760  178.3330  146.1560 C   0  0  0  0  0  0  0  0  0  0  0  0
  185.0840  178.7200  147.0550 O   0  0  0  0  0  0  0  0  0  0  0  0
  186.6720  177.8000  144.1460 N   0  0  0  0  0  0  0  0  0  0  0  0
  191.2860  176.8420  145.9870 C   0  0  0  0  0  1  0  0  0  0  0  0
  189.8120  177.0850  146.2520 C   0  0  0  0  0  2  0  0  0  0  0  0
  1 15  1  0  0  0  0
  2  4  2  0  0  0  0
  2  5  1  0  0  0  0
  3  6  1  0  0  0  0
  4  7  1  0  0  0  0
  5  3  2  0  0  0  0
  6  1  1  0  0  0  0
  7  6  2  0  0  0  0
  8  2  1  0  0  0  0
  9  8  1  0  0  0  0
 11 12  1  0  0  0  0
 11  9  1  0  0  0  0
 12 10  1  0  0  0  0
 13 11  1  0  0  0  0
 14 12  2  0  0  0  0
 15 23  1  0  0  0  0
 15 28  1  1  0  0  0
 17 24  1  0  0  0  0
 18 17  1  0  0  0  0
 18 20  1  0  0  0  0
 19 22  1  0  0  0  0
 19 21  1  0  0  0  0
 21 20  1  0  0  0  0
 22 18  1  0  0  0  0
 23 16  2  0  0  0  0
 24 16  1  0  0  0  0
 24 25  2  0  0  0  0
 26 17  2  0  0  0  0
 26 23  1  0  0  0  0
 27 28  1  0  0  0  0
M  END
>  <MODEL>
4

>  <REMARK>
 VINA RESULT:      -8.3      1.790      2.189
  Name = 
  7 active torsions:
  status: ('A' for Active; 'I' for Inactive)
    1  A    between atoms: C_2  and  C_15
    2  A    between atoms: N_6  and  C_15
    3  A    between atoms: N_6  and  N_16
    4  A    between atoms: N_11  and  C_23
    5  A    between atoms: N_11  and  C_27
    6  A    between atoms: C_18  and  C_27
    7  A    between atoms: C_19  and  C_27
                            x       y       z     vdW  Elec       q    Type
                         _______ _______ _______ _____ _____    ______ ____

>  <TORSDO>
F 7

$$$$
=
 OpenBabel10232408363D

 28 30  0  0  1  0  0  0  0  0999 V2000
  190.2060  177.5460  141.5940 N   0  0  0  0  0  2  0  0  0  0  0  0
  192.3590  176.5070  138.0980 C   0  0  0  0  0  0  0  0  0  0  0  0
  192.3400  177.3690  140.3630 C   0  0  0  0  0  3  0  0  0  0  0  0
  190.9730  176.3270  138.1580 C   0  0  0  0  0  3  0  0  0  0  0  0
  193.0430  177.0240  139.2050 C   0  0  0  0  0  3  0  0  0  0  0  0
  190.9480  177.1930  140.4230 C   0  0  0  0  0  0  0  0  0  0  0  0
  190.2700  176.6740  139.3150 C   0  0  0  0  0  3  0  0  0  0  0  0
  193.1050  176.1210  136.8720 C   0  0  0  0  0  2  0  0  0  0  0  0
  194.4940  175.8380  137.2060 N   0  0  0  0  0  2  0  0  0  0  0  0
  195.9050  175.0200  139.5330 O   0  0  0  0  0  1  0  0  0  0  0  0
  194.5800  174.4800  137.5460 N   0  0  0  0  0  0  0  0  0  0  0  0
  195.3050  174.0700  138.7140 C   0  0  0  0  0  0  0  0  0  0  0  0
  194.0600  173.4890  136.6180 C   0  0  0  0  0  1  0  0  0  0  0  0
  195.4040  172.8490  139.0100 O   0  0  0  0  0  0  0  0  0  0  0  0
  190.1220  176.7080  142.7830 C   0  0  2  0  0  3  0  0  0  0  0  0
  189.0970  177.2700  144.9340 N   0  0  0  0  0  0  0  0  0  0  0  0
  186.9870  177.8180  144.1500 C   0  0  0  0  0  0  0  0  0  0  0  0
  185.6160  178.2280  144.0850 N   0  0  0  0  0  0  0  0  0  0  0  0
  183.5110  178.8550  143.2210 C   0  0  0  0  0  2  0  0  0  0  0  0
  184.8300  178.5770  145.2480 C   0  0  0  0  0  2  0  0  0  0  0  0
  183.4150  178.7790  144.7390 C   0  0  0  0  0  2  0  0  0  0  0  0
  184.8690  178.2950  142.8470 C   0  0  0  0  0  2  0  0  0  0  0  0
  188.9840  177.1550  143.6450 C   0  0  0  0  0  0  0  0  0  0  0  0
  187.8100  177.7060  145.3310 C   0  0  0  0  0  0  0  0  0  0  0  0
  187.4780  177.9560  146.5190 O   0  0  0  0  0  0  0  0  0  0  0  0
  187.6890  177.4910  143.1170 N   0  0  0  0  0  0  0  0  0  0  0  0
  191.8270  175.4280  144.0800 C   0  0  0  0  0  1  0  0  0  0  0  0
  191.4310  176.7930  143.5490 C   0  0  0  0  0  2  0  0  0  0  0  0
  1 15  1  0  0  0  0
  2  4  2  0  0  0  0
  2  5  1  0  0  0  0
  3  6  1  0  0  0  0
  4  7  1  0  0  0  0
  5  3  2  0  0  0  0
  6  1  1  0  0  0  0
  7  6  2  0  0  0  0
  8  9  1  0  0  0  0
  8  2  1  0  0  0  0
  9 11  1  0  0  0  0
 11 12  1  0  0  0  0
 12 14  2  0  0  0  0
 12 10  1  0  0  0  0
 13 11  1  0  0  0  0
 15 28  1  1  0  0  0
 15 23  1  0  0  0  0
 16 24  1  0  0  0  0
 17 24  1  0  0  0  0
 18 17  1  0  0  0  0
 18 20  1  0  0  0  0
 19 21  1  0  0  0  0
 21 20  1  0  0  0  0
 22 19  1  0  0  0  0
 22 18  1  0  0  0  0
 23 16  2  0  0  0  0
 24 25  2  0  0  0  0
 26 23  1  0  0  0  0
 26 17  2  0  0  0  0
 28 27  1  0  0  0  0
M  END
>  <MODEL>
5

>  <REMARK>
 VINA RESULT:      -7.8      2.769      3.645
  Name = 
  7 active torsions:
  status: ('A' for Active; 'I' for Inactive)
    1  A    between atoms: C_2  and  C_15
    2  A    between atoms: N_6  and  C_15
    3  A    between atoms: N_6  and  N_16
    4  A    between atoms: N_11  and  C_23
    5  A    between atoms: N_11  and  C_27
    6  A    between atoms: C_18  and  C_27
    7  A    between atoms: C_19  and  C_27
                            x       y       z     vdW  Elec       q    Type
                         _______ _______ _______ _____ _____    ______ ____

>  <TORSDO>
F 7

$$$$
=
 OpenBabel10232408363D

 28 30  0  0  1  0  0  0  0  0999 V2000
  190.2230  176.1730  142.2670 N   0  0  0  0  0  2  0  0  0  0  0  0
  189.3580  178.1980  138.6500 C   0  0  0  0  0  0  0  0  0  0  0  0
  190.7220  176.6260  139.8910 C   0  0  0  0  0  3  0  0  0  0  0  0
  188.5740  178.4130  139.7880 C   0  0  0  0  0  3  0  0  0  0  0  0
  190.4300  177.2990  138.7000 C   0  0  0  0  0  3  0  0  0  0  0  0
  189.9390  176.8440  141.0350 C   0  0  0  0  0  0  0  0  0  0  0  0
  188.8680  177.7410  140.9780 C   0  0  0  0  0  3  0  0  0  0  0  0
  189.0320  178.9010  137.3810 C   0  0  0  0  0  2  0  0  0  0  0  0
  187.5930  179.0990  137.2800 N   0  0  0  0  0  2  0  0  0  0  0  0
  185.2300  177.7550  138.1090 O   0  0  0  0  0  1  0  0  0  0  0  0
  187.0710  178.0420  136.5200 N   0  0  0  0  0  0  0  0  0  0  0  0
  185.8850  177.3580  136.9480 C   0  0  0  0  0  0  0  0  0  0  0  0
  187.8320  177.5530  135.3820 C   0  0  0  0  0  1  0  0  0  0  0  0
  185.4260  176.3930  136.2800 O   0  0  0  0  0  0  0  0  0  0  0  0
  190.8910  176.8040  143.3970 C   0  0  2  0  0  3  0  0  0  0  0  0
  190.2130  176.9150  145.7480 N   0  0  0  0  0  0  0  0  0  0  0  0
  188.0260  177.6040  145.4180 C   0  0  0  0  0  0  0  0  0  0  0  0
  186.6720  178.0140  145.6450 N   0  0  0  0  0  0  0  0  0  0  0  0
  184.4800  178.7960  145.2530 C   0  0  0  0  0  2  0  0  0  0  0  0
  186.0770  178.1170  146.9590 C   0  0  0  0  0  2  0  0  0  0  0  0
  184.6090  178.4130  146.7210 C   0  0  0  0  0  2  0  0  0  0  0  0
  185.7520  178.3280  144.5730 C   0  0  0  0  0  2  0  0  0  0  0  0
  189.9060  177.0640  144.4940 C   0  0  0  0  0  0  0  0  0  0  0  0
  189.0120  177.2570  146.4140 C   0  0  0  0  0  0  0  0  0  0  0  0
  188.8670  177.2590  147.6650 O   0  0  0  0  0  0  0  0  0  0  0  0
  188.5570  177.4950  144.2470 N   0  0  0  0  0  0  0  0  0  0  0  0
  191.6080  179.0920  144.0900 C   0  0  0  0  0  1  0  0  0  0  0  0
  191.5290  178.1050  142.9410 C   0  0  0  0  0  2  0  0  0  0  0  0
  1 15  1  0  0  0  0
  2  5  2  0  0  0  0
  2  4  1  0  0  0  0
  3  6  2  0  0  0  0
  4  7  2  0  0  0  0
  5  3  1  0  0  0  0
  6  1  1  0  0  0  0
  7  6  1  0  0  0  0
  8  2  1  0  0  0  0
  9  8  1  0  0  0  0
 11 12  1  0  0  0  0
 11  9  1  0  0  0  0
 12 10  1  0  0  0  0
 13 11  1  0  0  0  0
 14 12  2  0  0  0  0
 15 28  1  6  0  0  0
 15 23  1  0  0  0  0
 16 24  1  0  0  0  0
 17 18  1  0  0  0  0
 17 24  1  0  0  0  0
 18 20  1  0  0  0  0
 19 21  1  0  0  0  0
 21 20  1  0  0  0  0
 22 19  1  0  0  0  0
 22 18  1  0  0  0  0
 23 16  2  0  0  0  0
 24 25  2  0  0  0  0
 26 23  1  0  0  0  0
 26 17  2  0  0  0  0
 28 27  1  0  0  0  0
M  END
>  <MODEL>
6

>  <REMARK>
 VINA RESULT:      -7.8      2.362      3.523
  Name = 
  7 active torsions:
  status: ('A' for Active; 'I' for Inactive)
    1  A    between atoms: C_2  and  C_15
    2  A    between atoms: N_6  and  C_15
    3  A    between atoms: N_6  and  N_16
    4  A    between atoms: N_11  and  C_23
    5  A    between atoms: N_11  and  C_27
    6  A    between atoms: C_18  and  C_27
    7  A    between atoms: C_19  and  C_27
                            x       y       z     vdW  Elec       q    Type
                         _______ _______ _______ _____ _____    ______ ____

>  <TORSDO>
F 7

$$$$
=
 OpenBabel10232408363D

 28 30  0  0  1  0  0  0  0  0999 V2000
  188.6350  176.9840  144.1630 N   0  0  0  0  0  2  0  0  0  0  0  0
  184.7400  178.5660  144.6610 C   0  0  0  0  0  0  0  0  0  0  0  0
  186.4940  177.7510  143.2020 C   0  0  0  0  0  3  0  0  0  0  0  0
  185.5540  178.3240  145.7720 C   0  0  0  0  0  3  0  0  0  0  0  0
  185.2090  178.2740  143.3750 C   0  0  0  0  0  3  0  0  0  0  0  0
  187.3140  177.5110  144.3160 C   0  0  0  0  0  0  0  0  0  0  0  0
  186.8400  177.8020  145.5990 C   0  0  0  0  0  3  0  0  0  0  0  0
  183.3670  179.1040  144.8510 C   0  0  0  0  0  2  0  0  0  0  0  0
  182.9150  179.7520  143.6280 N   0  0  0  0  0  2  0  0  0  0  0  0
  182.7520  179.0200  140.8870 O   0  0  0  0  0  0  0  0  0  0  0  0
  181.8120  179.0310  143.1480 N   0  0  0  0  0  0  0  0  0  0  0  0
  181.7270  178.6750  141.7610 C   0  0  0  0  0  0  0  0  0  0  0  0
  180.6900  178.7880  144.0410 C   0  0  0  0  0  1  0  0  0  0  0  0
  180.7260  178.0480  141.3220 O   0  0  0  0  0  1  0  0  0  0  0  0
  189.8040  177.8010  143.8630 C   0  0  2  0  0  3  0  0  0  0  0  0
  191.4240  177.3880  142.0740 N   0  0  0  0  0  0  0  0  0  0  0  0
  189.9600  177.5020  140.2820 C   0  0  0  0  0  0  0  0  0  0  0  0
  189.4170  177.4920  138.9570 N   0  0  0  0  0  0  0  0  0  0  0  0
  187.8660  177.5350  137.1770 C   0  0  0  0  0  2  0  0  0  0  0  0
  190.2150  177.2900  137.7670 C   0  0  0  0  0  2  0  0  0  0  0  0
  189.2750  177.5240  136.6000 C   0  0  0  0  0  2  0  0  0  0  0  0
  188.0170  177.7240  138.6740 C   0  0  0  0  0  2  0  0  0  0  0  0
  190.1970  177.6230  142.4290 C   0  0  0  0  0  0  0  0  0  0  0  0
  191.3370  177.2970  140.6640 C   0  0  0  0  0  0  0  0  0  0  0  0
  192.3130  177.0620  139.9030 O   0  0  0  0  0  0  0  0  0  0  0  0
  189.2550  177.6970  141.3460 N   0  0  0  0  0  0  0  0  0  0  0  0
  190.4140  176.9210  146.1170 C   0  0  0  0  0  1  0  0  0  0  0  0
  190.9470  177.3970  144.7780 C   0  0  0  0  0  2  0  0  0  0  0  0
  1  6  1  0  0  0  0
  2  8  1  0  0  0  0
  2  4  1  0  0  0  0
  3  5  1  0  0  0  0
  3  6  2  0  0  0  0
  5  2  2  0  0  0  0
  6  7  1  0  0  0  0
  7  4  2  0  0  0  0
  9  8  1  0  0  0  0
 10 12  2  0  0  0  0
 11  9  1  0  0  0  0
 11 13  1  0  0  0  0
 12 11  1  0  0  0  0
 14 12  1  0  0  0  0
 15  1  1  0  0  0  0
 15 28  1  1  0  0  0
 16 23  2  0  0  0  0
 17 24  1  0  0  0  0
 17 26  2  0  0  0  0
 18 17  1  0  0  0  0
 19 22  1  0  0  0  0
 20 18  1  0  0  0  0
 21 19  1  0  0  0  0
 21 20  1  0  0  0  0
 22 18  1  0  0  0  0
 23 15  1  0  0  0  0
 24 16  1  0  0  0  0
 25 24  2  0  0  0  0
 26 23  1  0  0  0  0
 28 27  1  0  0  0  0
M  END
>  <MODEL>
7

>  <REMARK>
 VINA RESULT:      -7.8      2.663      7.475
  Name = 
  7 active torsions:
  status: ('A' for Active; 'I' for Inactive)
    1  A    between atoms: C_2  and  C_15
    2  A    between atoms: N_6  and  C_15
    3  A    between atoms: N_6  and  N_16
    4  A    between atoms: N_11  and  C_23
    5  A    between atoms: N_11  and  C_27
    6  A    between atoms: C_18  and  C_27
    7  A    between atoms: C_19  and  C_27
                            x       y       z     vdW  Elec       q    Type
                         _______ _______ _______ _____ _____    ______ ____

>  <TORSDO>
F 7

$$$$
=
 OpenBabel10232408363D

 28 30  0  0  1  0  0  0  0  0999 V2000
  188.8640  177.3180  140.6300 N   0  0  0  0  0  2  0  0  0  0  0  0
  189.4400  177.5020  144.8210 C   0  0  0  0  0  0  0  0  0  0  0  0
  189.9080  178.3670  142.6060 C   0  0  0  0  0  3  0  0  0  0  0  0
  188.5940  176.5380  144.2620 C   0  0  0  0  0  3  0  0  0  0  0  0
  190.0920  178.4210  143.9910 C   0  0  0  0  0  3  0  0  0  0  0  0
  189.0630  177.3970  142.0440 C   0  0  0  0  0  0  0  0  0  0  0  0
  188.4110  176.4830  142.8770 C   0  0  0  0  0  3  0  0  0  0  0  0
  189.6180  177.5680  146.2950 C   0  0  0  0  0  2  0  0  0  0  0  0
  188.5040  176.9040  146.9580 N   0  0  0  0  0  2  0  0  0  0  0  0
  186.0200  177.6500  145.7970 O   0  0  0  0  0  0  0  0  0  0  0  0
  187.7110  177.8970  147.5510 N   0  0  0  0  0  0  0  0  0  0  0  0
  186.4640  178.2800  146.9550 C   0  0  0  0  0  0  0  0  0  0  0  0
  188.2420  178.6360  148.6850 C   0  0  0  0  0  1  0  0  0  0  0  0
  185.7590  179.1880  147.4720 O   0  0  0  0  0  1  0  0  0  0  0  0
  188.3650  178.4210  139.8190 C   0  0  2  0  0  3  0  0  0  0  0  0
  186.1150  178.4630  138.8540 N   0  0  0  0  0  0  0  0  0  0  0  0
  184.9210  178.6230  140.8330 C   0  0  0  0  0  0  0  0  0  0  0  0
  183.8510  178.7190  141.7810 N   0  0  0  0  0  0  0  0  0  0  0  0
  182.6840  178.7960  143.8310 C   0  0  0  0  0  2  0  0  0  0  0  0
  182.4550  178.7820  141.4080 C   0  0  0  0  0  2  0  0  0  0  0  0
  181.6990  179.0450  142.6970 C   0  0  0  0  0  2  0  0  0  0  0  0
  184.0670  178.8020  143.2100 C   0  0  0  0  0  2  0  0  0  0  0  0
  186.8730  178.4880  139.9090 C   0  0  0  0  0  0  0  0  0  0  0  0
  184.8090  178.5490  139.3950 C   0  0  0  0  0  0  0  0  0  0  0  0
  183.7530  178.5460  138.7110 O   0  0  0  0  0  0  0  0  0  0  0  0
  186.1690  178.5820  141.1590 N   0  0  0  0  0  0  0  0  0  0  0  0
  190.0210  177.3220  138.3090 C   0  0  0  0  0  1  0  0  0  0  0  0
  188.7990  178.2190  138.3760 C   0  0  0  0  0  2  0  0  0  0  0  0
  1  6  1  0  0  0  0
  2  8  1  0  0  0  0
  3  5  1  0  0  0  0
  4  2  1  0  0  0  0
  5  2  2  0  0  0  0
  6  3  2  0  0  0  0
  6  7  1  0  0  0  0
  7  4  2  0  0  0  0
  8  9  1  0  0  0  0
  9 11  1  0  0  0  0
 10 12  2  0  0  0  0
 11 13  1  0  0  0  0
 12 14  1  0  0  0  0
 12 11  1  0  0  0  0
 15 28  1  6  0  0  0
 15 23  1  0  0  0  0
 15  1  1  0  0  0  0
 16 24  1  0  0  0  0
 16 23  2  0  0  0  0
 17 26  2  0  0  0  0
 17 18  1  0  0  0  0
 18 22  1  0  0  0  0
 20 18  1  0  0  0  0
 20 21  1  0  0  0  0
 21 19  1  0  0  0  0
 22 19  1  0  0  0  0
 23 26  1  0  0  0  0
 24 17  1  0  0  0  0
 25 24  2  0  0  0  0
 27 28  1  0  0  0  0
M  END
>  <MODEL>
8

>  <REMARK>
 VINA RESULT:      -7.8      2.740      6.811
  Name = 
  7 active torsions:
  status: ('A' for Active; 'I' for Inactive)
    1  A    between atoms: C_2  and  C_15
    2  A    between atoms: N_6  and  C_15
    3  A    between atoms: N_6  and  N_16
    4  A    between atoms: N_11  and  C_23
    5  A    between atoms: N_11  and  C_27
    6  A    between atoms: C_18  and  C_27
    7  A    between atoms: C_19  and  C_27
                            x       y       z     vdW  Elec       q    Type
                         _______ _______ _______ _____ _____    ______ ____

>  <TORSDO>
F 7

$$$$
=
 OpenBabel10232408363D

 28 30  0  0  1  0  0  0  0  0999 V2000
  185.5830  177.9290  143.7320 N   0  0  0  0  0  2  0  0  0  0  0  0
  188.6340  177.8680  140.7970 C   0  0  0  0  0  0  0  0  0  0  0  0
  187.6850  176.9860  142.8440 C   0  0  0  0  0  3  0  0  0  0  0  0
  187.5690  178.7690  140.6950 C   0  0  0  0  0  3  0  0  0  0  0  0
  188.6890  176.9720  141.8710 C   0  0  0  0  0  3  0  0  0  0  0  0
  186.6180  177.8920  142.7450 C   0  0  0  0  0  0  0  0  0  0  0  0
  186.5670  178.7830  141.6690 C   0  0  0  0  0  3  0  0  0  0  0  0
  189.6890  177.8450  139.7500 C   0  0  0  0  0  2  0  0  0  0  0  0
  190.8630  177.1400  140.2450 N   0  0  0  0  0  2  0  0  0  0  0  0
  193.6500  177.6160  139.9650 O   0  0  0  0  0  1  0  0  0  0  0  0
  191.5620  176.6460  139.1340 N   0  0  0  0  0  0  0  0  0  0  0  0
  192.9660  176.9000  138.9900 C   0  0  0  0  0  0  0  0  0  0  0  0
  190.8140  176.0100  138.0610 C   0  0  0  0  0  1  0  0  0  0  0  0
  193.5920  176.4760  137.9810 O   0  0  0  0  0  0  0  0  0  0  0  0
  185.6010  178.8120  144.8910 C   0  0  2  0  0  3  0  0  0  0  0  0
  186.4470  178.3730  147.1470 N   0  0  0  0  0  0  0  0  0  0  0  0
  188.5480  177.5960  146.5550 C   0  0  0  0  0  0  0  0  0  0  0  0
  189.8820  177.0780  146.6170 N   0  0  0  0  0  0  0  0  0  0  0  0
  191.9770  176.2160  145.9530 C   0  0  0  0  0  2  0  0  0  0  0  0
  190.5670  176.7780  147.8560 C   0  0  0  0  0  2  0  0  0  0  0  0
  191.9880  176.4230  147.4610 C   0  0  0  0  0  2  0  0  0  0  0  0
  190.6930  176.8410  145.4420 C   0  0  0  0  0  2  0  0  0  0  0  0
  186.6460  178.3600  145.8630 C   0  0  0  0  0  0  0  0  0  0  0  0
  187.6680  177.8790  147.6650 C   0  0  0  0  0  0  0  0  0  0  0  0
  187.9080  177.7140  148.8900 O   0  0  0  0  0  0  0  0  0  0  0  0
  187.9380  177.8800  145.4540 N   0  0  0  0  0  0  0  0  0  0  0  0
  183.1370  178.7900  144.4970 C   0  0  0  0  0  1  0  0  0  0  0  0
  184.2310  178.8060  145.5480 C   0  0  0  0  0  2  0  0  0  0  0  0
  1 15  1  0  0  0  0
  2  5  1  0  0  0  0
  4  2  2  0  0  0  0
  4  7  1  0  0  0  0
  5  3  2  0  0  0  0
  6  3  1  0  0  0  0
  6  1  1  0  0  0  0
  7  6  2  0  0  0  0
  8  9  1  0  0  0  0
  8  2  1  0  0  0  0
 11  9  1  0  0  0  0
 12 11  1  0  0  0  0
 12 10  1  0  0  0  0
 13 11  1  0  0  0  0
 14 12  2  0  0  0  0
 15 28  1  1  0  0  0
 15 23  1  0  0  0  0
 16 24  1  0  0  0  0
 17 18  1  0  0  0  0
 17 24  1  0  0  0  0
 18 20  1  0  0  0  0
 19 21  1  0  0  0  0
 21 20  1  0  0  0  0
 22 19  1  0  0  0  0
 22 18  1  0  0  0  0
 23 16  2  0  0  0  0
 24 25  2  0  0  0  0
 26 23  1  0  0  0  0
 26 17  2  0  0  0  0
 27 28  1  0  0  0  0
M  END
>  <MODEL>
9

>  <REMARK>
 VINA RESULT:      -7.7      2.196      5.073
  Name = 
  7 active torsions:
  status: ('A' for Active; 'I' for Inactive)
    1  A    between atoms: C_2  and  C_15
    2  A    between atoms: N_6  and  C_15
    3  A    between atoms: N_6  and  N_16
    4  A    between atoms: N_11  and  C_23
    5  A    between atoms: N_11  and  C_27
    6  A    between atoms: C_18  and  C_27
    7  A    between atoms: C_19  and  C_27
                            x       y       z     vdW  Elec       q    Type
                         _______ _______ _______ _____ _____    ______ ____

>  <TORSDO>
F 7

$$$$
