=
 OpenBabel10232409053D

 28 29  0  0  1  0  0  0  0  0999 V2000
  187.4640  177.6370  143.6140 C   0  0  2  0  0  3  0  0  0  0  0  0
  188.1540  176.4450  143.1500 N   0  0  0  0  0  2  0  0  0  0  0  0
  188.7710  176.7840  141.9380 N   0  0  0  0  0  2  0  0  0  0  0  0
  190.6380  177.5260  140.6740 N   0  0  0  0  0  0  0  0  0  0  0  0
  190.1470  177.1770  141.8280 C   0  0  0  0  0  0  0  0  0  0  0  0
  190.8280  175.4670  138.6440 N   0  0  0  0  0  1  0  0  0  0  0  0
  188.5910  178.2570  137.6050 N   0  0  0  0  0  0  0  0  0  0  0  0
  189.0440  178.6580  138.9420 C   0  0  0  0  0  2  0  0  0  0  0  0
  189.2240  176.9650  137.3200 C   0  0  0  0  0  3  0  0  0  0  0  0
  190.0390  176.6450  138.5070 C   0  0  0  0  0  0  0  0  0  0  0  0
  189.9460  177.5790  139.4160 C   0  0  0  0  0  0  0  0  0  0  0  0
  191.3300  178.4350  143.6550 N   0  0  0  0  0  1  0  0  0  0  0  0
  191.6130  176.1220  143.4380 N   0  0  0  0  0  2  0  0  0  0  0  0
  191.0510  177.2010  143.0020 C   0  0  0  0  0  0  0  0  0  0  0  0
  187.6440  177.7980  145.1240 C   0  0  1  0  0  3  0  0  0  0  0  0
  185.9090  178.8510  146.6340 C   0  0  0  0  0  1  0  0  0  0  0  0
  186.3250  177.5990  145.8760 C   0  0  0  0  0  2  0  0  0  0  0  0
  188.6340  176.8900  145.6010 O   0  0  0  0  0  0  0  0  0  0  0  0
  190.8610  176.7670  146.8040 C   0  0  0  0  0  3  0  0  0  0  0  0
  190.2770  178.0560  148.5340 C   0  0  0  0  0  2  0  0  0  0  0  0
  189.1310  177.9530  147.6400 N   0  0  0  0  0  0  0  0  0  0  0  0
  189.4910  177.2090  146.6560 C   0  0  0  0  0  0  0  0  0  0  0  0
  191.3250  177.2600  147.9010 N   0  0  0  0  0  0  0  0  0  0  0  0
  186.0480  177.5270  143.2930 N   0  0  0  0  0  2  0  0  0  0  0  0
  186.2470  178.9130  141.4280 O   0  0  0  0  0  1  0  0  0  0  0  0
  185.6410  178.7820  142.6770 C   0  0  1  0  0  3  0  0  0  0  0  0
  184.1210  178.8530  142.5380 C   0  0  0  0  0  2  0  0  0  0  0  0
  183.4390  179.0580  143.8820 C   0  0  0  0  0  1  0  0  0  0  0  0
  1  2  1  1  0  0  0
  1 15  1  0  0  0  0
  3  2  1  0  0  0  0
  4  5  2  0  0  0  0
  5  3  1  0  0  0  0
  5 14  1  0  0  0  0
  7  8  1  0  0  0  0
  8 11  1  0  0  0  0
  9  7  2  0  0  0  0
  9 10  1  0  0  0  0
 10  6  1  0  0  0  0
 10 11  2  0  0  0  0
 11  4  1  0  0  0  0
 14 13  2  0  0  0  0
 14 12  1  0  0  0  0
 15 18  1  0  0  0  0
 15 17  1  1  0  0  0
 17 16  1  0  0  0  0
 18 22  1  0  0  0  0
 19 23  2  0  0  0  0
 21 20  1  0  0  0  0
 22 19  1  0  0  0  0
 22 21  2  0  0  0  0
 23 20  1  0  0  0  0
 24  1  1  0  0  0  0
 26 25  1  6  0  0  0
 26 24  1  0  0  0  0
 27 26  1  0  0  0  0
 27 28  1  0  0  0  0
M  END
>  <MODEL>
1

>  <REMARK>
 VINA RESULT:      -6.7      0.000      0.000
  Name = 
  11 active torsions:
  status: ('A' for Active; 'I' for Inactive)
    1  A    between atoms: O_5  and  C_16
    2  A    between atoms: O_5  and  C_23
    3  A    between atoms: C_10  and  C_15
    4  A    between atoms: C_10  and  N_22
    5  A    between atoms: N_11  and  C_14
    6  A    between atoms: N_11  and  N_17
    7  A    between atoms: C_13  and  C_16
    8  A    between atoms: C_14  and  C_16
    9  A    between atoms: C_14  and  N_22
   10  A    between atoms: N_20  and  C_26
   11  A    between atoms: C_24  and  C_27
                            x       y       z     vdW  Elec       q    Type
                         _______ _______ _______ _____ _____    ______ ____

>  <TORSDO>
F 11

$$$$
=
 OpenBabel10232409053D

 28 29  0  0  1  0  0  0  0  0999 V2000
  187.5970  177.9750  142.5100 C   0  0  2  0  0  3  0  0  0  0  0  0
  186.7800  178.7850  141.6210 N   0  0  0  0  0  2  0  0  0  0  0  0
  187.0840  178.3770  140.3150 N   0  0  0  0  0  2  0  0  0  0  0  0
  186.4760  177.9500  138.0600 N   0  0  0  0  0  0  0  0  0  0  0  0
  186.1350  178.3900  139.2370 C   0  0  0  0  0  0  0  0  0  0  0  0
  188.7680  179.5890  137.3830 N   0  0  0  0  0  1  0  0  0  0  0  0
  189.5190  175.9520  137.1130 N   0  0  0  0  0  0  0  0  0  0  0  0
  188.1160  175.9840  137.5410 C   0  0  0  0  0  2  0  0  0  0  0  0
  189.9520  177.3490  136.9990 C   0  0  0  0  0  3  0  0  0  0  0  0
  188.7790  178.1650  137.3650 C   0  0  0  0  0  0  0  0  0  0  0  0
  187.7520  177.4160  137.6680 C   0  0  0  0  0  0  0  0  0  0  0  0
  183.7320  178.0140  139.8700 N   0  0  0  0  0  1  0  0  0  0  0  0
  184.4480  180.1200  139.1450 N   0  0  0  0  0  2  0  0  0  0  0  0
  184.7540  178.8950  139.4140 C   0  0  0  0  0  0  0  0  0  0  0  0
  187.0810  178.0800  143.9450 C   0  0  1  0  0  3  0  0  0  0  0  0
  184.9840  179.1780  144.8370 C   0  0  0  0  0  1  0  0  0  0  0  0
  185.5510  178.0400  144.0010 C   0  0  0  0  0  2  0  0  0  0  0  0
  187.6380  177.0420  144.7460 O   0  0  0  0  0  0  0  0  0  0  0  0
  189.5590  177.0710  146.4000 C   0  0  0  0  0  3  0  0  0  0  0  0
  188.3790  177.8530  148.1300 C   0  0  0  0  0  2  0  0  0  0  0  0
  187.4810  177.7330  146.9890 N   0  0  0  0  0  0  0  0  0  0  0  0
  188.1820  177.2830  146.0090 C   0  0  0  0  0  0  0  0  0  0  0  0
  189.6790  177.4030  147.6400 N   0  0  0  0  0  0  0  0  0  0  0  0
  188.9770  178.4330  142.4450 N   0  0  0  0  0  2  0  0  0  0  0  0
  189.9210  176.8080  141.0640 O   0  0  0  0  0  1  0  0  0  0  0  0
  189.8280  177.2530  142.3830 C   0  0  1  0  0  3  0  0  0  0  0  0
  191.2180  177.5530  142.9400 C   0  0  0  0  0  2  0  0  0  0  0  0
  191.2400  178.8470  143.7380 C   0  0  0  0  0  1  0  0  0  0  0  0
  1  2  1  6  0  0  0
  1 15  1  0  0  0  0
  3  2  1  0  0  0  0
  4  5  2  0  0  0  0
  5 14  1  0  0  0  0
  5  3  1  0  0  0  0
  7  8  1  0  0  0  0
  8 11  1  0  0  0  0
  9  7  2  0  0  0  0
  9 10  1  0  0  0  0
 10  6  1  0  0  0  0
 10 11  2  0  0  0  0
 11  4  1  0  0  0  0
 13 14  2  0  0  0  0
 14 12  1  0  0  0  0
 15 17  1  6  0  0  0
 15 18  1  0  0  0  0
 17 16  1  0  0  0  0
 18 22  1  0  0  0  0
 19 23  2  0  0  0  0
 21 20  1  0  0  0  0
 22 19  1  0  0  0  0
 22 21  2  0  0  0  0
 23 20  1  0  0  0  0
 24  1  1  0  0  0  0
 26 25  1  6  0  0  0
 26 24  1  0  0  0  0
 26 27  1  0  0  0  0
 27 28  1  0  0  0  0
M  END
>  <MODEL>
2

>  <REMARK>
 VINA RESULT:      -6.4      2.182      4.315
  Name = 
  11 active torsions:
  status: ('A' for Active; 'I' for Inactive)
    1  A    between atoms: O_5  and  C_16
    2  A    between atoms: O_5  and  C_23
    3  A    between atoms: C_10  and  C_15
    4  A    between atoms: C_10  and  N_22
    5  A    between atoms: N_11  and  C_14
    6  A    between atoms: N_11  and  N_17
    7  A    between atoms: C_13  and  C_16
    8  A    between atoms: C_14  and  C_16
    9  A    between atoms: C_14  and  N_22
   10  A    between atoms: N_20  and  C_26
   11  A    between atoms: C_24  and  C_27
                            x       y       z     vdW  Elec       q    Type
                         _______ _______ _______ _____ _____    ______ ____

>  <TORSDO>
F 11

$$$$
=
 OpenBabel10232409053D

 28 29  0  0  1  0  0  0  0  0999 V2000
  188.1190  177.5580  145.0940 C   0  0  2  0  0  3  0  0  0  0  0  0
  188.4680  176.5070  144.1520 N   0  0  0  0  0  2  0  0  0  0  0  0
  188.3990  177.0770  142.8730 N   0  0  0  0  0  2  0  0  0  0  0  0
  189.3430  178.3040  141.0730 N   0  0  0  0  0  0  0  0  0  0  0  0
  189.4960  177.7570  142.2450 C   0  0  0  0  0  0  0  0  0  0  0  0
  189.2570  177.5140  138.2860 N   0  0  0  0  0  1  0  0  0  0  0  0
  185.9200  178.5860  139.5410 N   0  0  0  0  0  0  0  0  0  0  0  0
  186.7930  178.7390  140.7110 C   0  0  0  0  0  2  0  0  0  0  0  0
  186.7660  178.0890  138.4510 C   0  0  0  0  0  3  0  0  0  0  0  0
  188.1220  177.9650  139.0170 C   0  0  0  0  0  0  0  0  0  0  0  0
  188.1480  178.3240  140.2740 C   0  0  0  0  0  0  0  0  0  0  0  0
  191.7100  176.7490  142.8780 N   0  0  0  0  0  2  0  0  0  0  0  0
  191.1960  178.9480  143.4870 N   0  0  0  0  0  1  0  0  0  0  0  0
  190.8250  177.8640  142.8910 C   0  0  0  0  0  0  0  0  0  0  0  0
  189.0780  177.5420  146.2840 C   0  0  1  0  0  3  0  0  0  0  0  0
  188.1920  178.0050  148.6080 C   0  0  0  0  0  1  0  0  0  0  0  0
  188.4200  176.9510  147.5350 C   0  0  0  0  0  2  0  0  0  0  0  0
  190.2610  176.8190  145.9530 O   0  0  0  0  0  0  0  0  0  0  0  0
  192.1640  175.4220  146.8760 C   0  0  0  0  0  3  0  0  0  0  0  0
  192.5820  176.7200  148.6480 C   0  0  0  0  0  2  0  0  0  0  0  0
  191.4810  177.3150  147.9020 N   0  0  0  0  0  0  0  0  0  0  0  0
  191.2600  176.5530  146.8910 C   0  0  0  0  0  0  0  0  0  0  0  0
  192.9390  175.5160  147.9020 N   0  0  0  0  0  0  0  0  0  0  0  0
  186.7530  177.3530  145.5560 N   0  0  0  0  0  2  0  0  0  0  0  0
  185.7770  178.7010  143.9220 O   0  0  0  0  0  1  0  0  0  0  0  0
  186.0130  178.5790  145.2910 C   0  0  1  0  0  3  0  0  0  0  0  0
  184.6930  178.5960  146.0600 C   0  0  0  0  0  2  0  0  0  0  0  0
  183.5100  178.8710  145.1460 C   0  0  0  0  0  1  0  0  0  0  0  0
  1  2  1  6  0  0  0
  1 24  1  0  0  0  0
  1 15  1  0  0  0  0
  3  2  1  0  0  0  0
  4  5  2  0  0  0  0
  5  3  1  0  0  0  0
  5 14  1  0  0  0  0
  6 10  1  0  0  0  0
  7  8  1  0  0  0  0
  9 10  1  0  0  0  0
  9  7  2  0  0  0  0
 10 11  2  0  0  0  0
 11  8  1  0  0  0  0
 11  4  1  0  0  0  0
 12 14  2  0  0  0  0
 14 13  1  0  0  0  0
 15 17  1  1  0  0  0
 17 16  1  0  0  0  0
 18 15  1  0  0  0  0
 18 22  1  0  0  0  0
 19 22  1  0  0  0  0
 19 23  2  0  0  0  0
 21 20  1  0  0  0  0
 22 21  2  0  0  0  0
 23 20  1  0  0  0  0
 26 25  1  6  0  0  0
 26 24  1  0  0  0  0
 26 27  1  0  0  0  0
 28 27  1  0  0  0  0
M  END
>  <MODEL>
3

>  <REMARK>
 VINA RESULT:      -6.4      1.654      2.302
  Name = 
  11 active torsions:
  status: ('A' for Active; 'I' for Inactive)
    1  A    between atoms: O_5  and  C_16
    2  A    between atoms: O_5  and  C_23
    3  A    between atoms: C_10  and  C_15
    4  A    between atoms: C_10  and  N_22
    5  A    between atoms: N_11  and  C_14
    6  A    between atoms: N_11  and  N_17
    7  A    between atoms: C_13  and  C_16
    8  A    between atoms: C_14  and  C_16
    9  A    between atoms: C_14  and  N_22
   10  A    between atoms: N_20  and  C_26
   11  A    between atoms: C_24  and  C_27
                            x       y       z     vdW  Elec       q    Type
                         _______ _______ _______ _____ _____    ______ ____

>  <TORSDO>
F 11

$$$$
=
 OpenBabel10232409053D

 28 29  0  0  1  0  0  0  0  0999 V2000
  187.8890  177.7950  141.7160 C   0  0  2  0  0  3  0  0  0  0  0  0
  187.1610  178.7900  140.9470 N   0  0  0  0  0  2  0  0  0  0  0  0
  187.2100  178.3770  139.6080 N   0  0  0  0  0  2  0  0  0  0  0  0
  186.1790  177.9020  137.5230 N   0  0  0  0  0  0  0  0  0  0  0  0
  186.0650  178.3450  138.7430 C   0  0  0  0  0  0  0  0  0  0  0  0
  186.7730  175.0860  137.1880 N   0  0  0  0  0  1  0  0  0  0  0  0
  189.4500  177.2590  135.7830 N   0  0  0  0  0  0  0  0  0  0  0  0
  188.4700  178.2160  136.3090 C   0  0  0  0  0  2  0  0  0  0  0  0
  188.9150  175.9210  136.0560 C   0  0  0  0  0  3  0  0  0  0  0  0
  187.6260  176.1340  136.7410 C   0  0  0  0  0  0  0  0  0  0  0  0
  187.3690  177.4070  136.8860 C   0  0  0  0  0  0  0  0  0  0  0  0
  183.7590  177.8530  139.6120 N   0  0  0  0  0  1  0  0  0  0  0  0
  184.4180  180.0580  139.1920 N   0  0  0  0  0  2  0  0  0  0  0  0
  184.7310  178.8050  139.1910 C   0  0  0  0  0  0  0  0  0  0  0  0
  187.1000  177.4140  142.9690 C   0  0  1  0  0  3  0  0  0  0  0  0
  188.2260  177.2840  145.2300 C   0  0  0  0  0  1  0  0  0  0  0  0
  187.9350  176.5580  143.9260 C   0  0  0  0  0  2  0  0  0  0  0  0
  186.6280  178.5860  143.6290 O   0  0  0  0  0  0  0  0  0  0  0  0
  184.8700  178.9590  145.4160 C   0  0  0  0  0  3  0  0  0  0  0  0
  183.1030  178.8220  144.0540 C   0  0  0  0  0  2  0  0  0  0  0  0
  184.3060  178.6360  143.2530 N   0  0  0  0  0  0  0  0  0  0  0  0
  185.3060  178.7200  144.0570 C   0  0  0  0  0  0  0  0  0  0  0  0
  183.5820  179.0200  145.4190 N   0  0  0  0  0  0  0  0  0  0  0  0
  189.1870  178.3350  142.0930 N   0  0  0  0  0  2  0  0  0  0  0  0
  190.5110  177.6410  140.3030 O   0  0  0  0  0  1  0  0  0  0  0  0
  190.2010  177.3940  141.6410 C   0  0  1  0  0  3  0  0  0  0  0  0
  191.4590  177.4910  142.5030 C   0  0  0  0  0  2  0  0  0  0  0  0
  191.3250  178.5540  143.5810 C   0  0  0  0  0  1  0  0  0  0  0  0
  1  2  1  1  0  0  0
  1 24  1  0  0  0  0
  1 15  1  0  0  0  0
  3  2  1  0  0  0  0
  4  5  2  0  0  0  0
  5 14  1  0  0  0  0
  5  3  1  0  0  0  0
  7  9  2  0  0  0  0
  7  8  1  0  0  0  0
  8 11  1  0  0  0  0
  9 10  1  0  0  0  0
 10 11  2  0  0  0  0
 10  6  1  0  0  0  0
 11  4  1  0  0  0  0
 14 13  2  0  0  0  0
 14 12  1  0  0  0  0
 15 18  1  0  0  0  0
 15 17  1  1  0  0  0
 17 16  1  0  0  0  0
 18 22  1  0  0  0  0
 19 23  2  0  0  0  0
 20 23  1  0  0  0  0
 21 20  1  0  0  0  0
 21 22  2  0  0  0  0
 22 19  1  0  0  0  0
 26 25  1  6  0  0  0
 26 24  1  0  0  0  0
 26 27  1  0  0  0  0
 27 28  1  0  0  0  0
M  END
>  <MODEL>
4

>  <REMARK>
 VINA RESULT:      -6.2      2.724      5.403
  Name = 
  11 active torsions:
  status: ('A' for Active; 'I' for Inactive)
    1  A    between atoms: O_5  and  C_16
    2  A    between atoms: O_5  and  C_23
    3  A    between atoms: C_10  and  C_15
    4  A    between atoms: C_10  and  N_22
    5  A    between atoms: N_11  and  C_14
    6  A    between atoms: N_11  and  N_17
    7  A    between atoms: C_13  and  C_16
    8  A    between atoms: C_14  and  C_16
    9  A    between atoms: C_14  and  N_22
   10  A    between atoms: N_20  and  C_26
   11  A    between atoms: C_24  and  C_27
                            x       y       z     vdW  Elec       q    Type
                         _______ _______ _______ _____ _____    ______ ____

>  <TORSDO>
F 11

$$$$
=
 OpenBabel10232409053D

 28 29  0  0  1  0  0  0  0  0999 V2000
  188.7560  178.1120  140.4710 C   0  0  2  0  0  3  0  0  0  0  0  0
  187.4830  178.8120  140.4950 N   0  0  0  0  0  2  0  0  0  0  0  0
  186.9060  178.5530  141.7460 N   0  0  0  0  0  2  0  0  0  0  0  0
  185.0260  178.2940  143.1720 N   0  0  0  0  0  0  0  0  0  0  0  0
  185.4890  178.4910  141.9710 C   0  0  0  0  0  0  0  0  0  0  0  0
  184.0610  179.0330  145.8030 N   0  0  0  0  0  1  0  0  0  0  0  0
  187.4940  177.5960  145.9230 N   0  0  0  0  0  0  0  0  0  0  0  0
  187.1540  177.5590  144.4960 C   0  0  0  0  0  3  0  0  0  0  0  0
  186.3340  178.1720  146.6130 C   0  0  0  0  0  2  0  0  0  0  0  0
  185.3410  178.4590  145.5610 C   0  0  0  0  0  0  0  0  0  0  0  0
  185.7870  178.1220  144.3800 C   0  0  0  0  0  0  0  0  0  0  0  0
  183.4580  177.7010  140.7190 N   0  0  0  0  0  1  0  0  0  0  0  0
  184.6070  179.6160  140.0200 N   0  0  0  0  0  2  0  0  0  0  0  0
  184.5130  178.6460  140.8690 C   0  0  0  0  0  0  0  0  0  0  0  0
  188.9770  177.4640  139.1040 C   0  0  1  0  0  3  0  0  0  0  0  0
  188.9610  179.0660  137.1460 C   0  0  0  0  0  1  0  0  0  0  0  0
  188.1320  178.1330  138.0160 C   0  0  0  0  0  2  0  0  0  0  0  0
  190.3600  177.5040  138.7580 O   0  0  0  0  0  0  0  0  0  0  0  0
  190.4580  175.1320  137.8710 C   0  0  0  0  0  3  0  0  0  0  0  0
  192.6870  175.0060  137.7560 C   0  0  0  0  0  2  0  0  0  0  0  0
  192.3340  176.3270  138.2580 N   0  0  0  0  0  0  0  0  0  0  0  0
  191.0510  176.3750  138.3150 C   0  0  0  0  0  0  0  0  0  0  0  0
  191.4110  174.3270  137.5440 N   0  0  0  0  0  0  0  0  0  0  0  0
  188.7620  177.0910  141.5090 N   0  0  0  0  0  2  0  0  0  0  0  0
  190.2870  178.2140  142.8710 O   0  0  0  0  0  1  0  0  0  0  0  0
  190.0950  177.0710  142.0950 C   0  0  1  0  0  3  0  0  0  0  0  0
  190.3000  175.8150  142.9410 C   0  0  0  0  0  2  0  0  0  0  0  0
  191.5060  175.9420  143.8580 C   0  0  0  0  0  1  0  0  0  0  0  0
  1  2  1  6  0  0  0
  1 24  1  0  0  0  0
  2  3  1  0  0  0  0
  3  5  1  0  0  0  0
  4 11  1  0  0  0  0
  5  4  2  0  0  0  0
  7  9  1  0  0  0  0
  8  7  2  0  0  0  0
 10  6  1  0  0  0  0
 10  9  1  0  0  0  0
 11  8  1  0  0  0  0
 11 10  2  0  0  0  0
 12 14  1  0  0  0  0
 13 14  2  0  0  0  0
 14  5  1  0  0  0  0
 15 17  1  6  0  0  0
 15  1  1  0  0  0  0
 16 17  1  0  0  0  0
 18 15  1  0  0  0  0
 19 22  1  0  0  0  0
 20 21  1  0  0  0  0
 21 22  2  0  0  0  0
 22 18  1  0  0  0  0
 23 20  1  0  0  0  0
 23 19  2  0  0  0  0
 24 26  1  0  0  0  0
 26 25  1  1  0  0  0
 26 27  1  0  0  0  0
 27 28  1  0  0  0  0
M  END
>  <MODEL>
5

>  <REMARK>
 VINA RESULT:      -6.2      2.421      7.672
  Name = 
  11 active torsions:
  status: ('A' for Active; 'I' for Inactive)
    1  A    between atoms: O_5  and  C_16
    2  A    between atoms: O_5  and  C_23
    3  A    between atoms: C_10  and  C_15
    4  A    between atoms: C_10  and  N_22
    5  A    between atoms: N_11  and  C_14
    6  A    between atoms: N_11  and  N_17
    7  A    between atoms: C_13  and  C_16
    8  A    between atoms: C_14  and  C_16
    9  A    between atoms: C_14  and  N_22
   10  A    between atoms: N_20  and  C_26
   11  A    between atoms: C_24  and  C_27
                            x       y       z     vdW  Elec       q    Type
                         _______ _______ _______ _____ _____    ______ ____

>  <TORSDO>
F 11

$$$$
=
 OpenBabel10232409053D

 28 29  0  0  1  0  0  0  0  0999 V2000
  190.8290  177.5790  141.8830 C   0  0  2  0  0  3  0  0  0  0  0  0
  191.6710  177.2950  140.7320 N   0  0  0  0  0  2  0  0  0  0  0  0
  190.8390  177.3390  139.6060 N   0  0  0  0  0  2  0  0  0  0  0  0
  190.3840  176.8900  137.3190 N   0  0  0  0  0  0  0  0  0  0  0  0
  191.1890  176.7680  138.3360 C   0  0  0  0  0  0  0  0  0  0  0  0
  187.8310  175.5250  137.4470 N   0  0  0  0  0  1  0  0  0  0  0  0
  187.4330  179.2190  137.1990 N   0  0  0  0  0  0  0  0  0  0  0  0
  188.8880  179.0280  137.1940 C   0  0  0  0  0  3  0  0  0  0  0  0
  186.8380  177.8820  137.3000 C   0  0  0  0  0  2  0  0  0  0  0  0
  187.9700  176.9390  137.3500 C   0  0  0  0  0  0  0  0  0  0  0  0
  189.1150  177.5650  137.2920 C   0  0  0  0  0  0  0  0  0  0  0  0
  192.4360  174.6080  138.0190 N   0  0  0  0  0  2  0  0  0  0  0  0
  193.5900  176.6430  138.0720 N   0  0  0  0  0  1  0  0  0  0  0  0
  192.4550  176.0280  138.1310 C   0  0  0  0  0  0  0  0  0  0  0  0
  191.5950  177.3080  143.1780 C   0  0  1  0  0  3  0  0  0  0  0  0
  190.8050  179.6230  143.8240 C   0  0  0  0  0  1  0  0  0  0  0  0
  191.9320  178.6060  143.9180 C   0  0  0  0  0  2  0  0  0  0  0  0
  190.8470  176.4330  144.0180 O   0  0  0  0  0  0  0  0  0  0  0  0
  191.9180  176.2170  146.3050 C   0  0  0  0  0  3  0  0  0  0  0  0
  190.1750  177.0000  147.4660 C   0  0  0  0  0  2  0  0  0  0  0  0
  189.8200  177.0150  146.0530 N   0  0  0  0  0  0  0  0  0  0  0  0
  190.8360  176.5620  145.4080 C   0  0  0  0  0  0  0  0  0  0  0  0
  191.5360  176.4710  147.5100 N   0  0  0  0  0  0  0  0  0  0  0  0
  189.6400  176.7400  141.8250 N   0  0  0  0  0  2  0  0  0  0  0  0
  187.8240  177.9760  141.0430 O   0  0  0  0  0  1  0  0  0  0  0  0
  188.5010  177.5690  142.1930 C   0  0  1  0  0  3  0  0  0  0  0  0
  187.5560  176.8150  143.1270 C   0  0  0  0  0  2  0  0  0  0  0  0
  186.8960  177.7440  144.1340 C   0  0  0  0  0  1  0  0  0  0  0  0
  1  2  1  6  0  0  0
  1 15  1  0  0  0  0
  3  2  1  0  0  0  0
  4  5  2  0  0  0  0
  5  3  1  0  0  0  0
  7  9  1  0  0  0  0
  8  7  2  0  0  0  0
  8 11  1  0  0  0  0
  9 10  1  0  0  0  0
 10  6  1  0  0  0  0
 11  4  1  0  0  0  0
 11 10  2  0  0  0  0
 12 14  2  0  0  0  0
 13 14  1  0  0  0  0
 14  5  1  0  0  0  0
 15 17  1  1  0  0  0
 15 18  1  0  0  0  0
 16 17  1  0  0  0  0
 18 22  1  0  0  0  0
 19 23  2  0  0  0  0
 20 23  1  0  0  0  0
 21 20  1  0  0  0  0
 22 21  2  0  0  0  0
 22 19  1  0  0  0  0
 24  1  1  0  0  0  0
 24 26  1  0  0  0  0
 26 25  1  6  0  0  0
 26 27  1  0  0  0  0
 27 28  1  0  0  0  0
M  END
>  <MODEL>
6

>  <REMARK>
 VINA RESULT:      -6.1      2.046      3.670
  Name = 
  11 active torsions:
  status: ('A' for Active; 'I' for Inactive)
    1  A    between atoms: O_5  and  C_16
    2  A    between atoms: O_5  and  C_23
    3  A    between atoms: C_10  and  C_15
    4  A    between atoms: C_10  and  N_22
    5  A    between atoms: N_11  and  C_14
    6  A    between atoms: N_11  and  N_17
    7  A    between atoms: C_13  and  C_16
    8  A    between atoms: C_14  and  C_16
    9  A    between atoms: C_14  and  N_22
   10  A    between atoms: N_20  and  C_26
   11  A    between atoms: C_24  and  C_27
                            x       y       z     vdW  Elec       q    Type
                         _______ _______ _______ _____ _____    ______ ____

>  <TORSDO>
F 11

$$$$
=
 OpenBabel10232409053D

 28 29  0  0  1  0  0  0  0  0999 V2000
  189.6450  177.2850  142.3230 C   0  0  2  0  0  3  0  0  0  0  0  0
  190.3940  176.3160  141.5400 N   0  0  0  0  0  2  0  0  0  0  0  0
  190.0830  176.5610  140.1950 N   0  0  0  0  0  2  0  0  0  0  0  0
  190.6820  177.2100  137.9910 N   0  0  0  0  0  0  0  0  0  0  0  0
  191.0540  176.9520  139.2120 C   0  0  0  0  0  0  0  0  0  0  0  0
  188.9780  179.5340  137.6850 N   0  0  0  0  0  1  0  0  0  0  0  0
  187.3020  176.4080  136.5500 N   0  0  0  0  0  0  0  0  0  0  0  0
  188.6240  175.9490  136.9930 C   0  0  0  0  0  2  0  0  0  0  0  0
  187.2720  177.8600  136.7610 C   0  0  0  0  0  3  0  0  0  0  0  0
  188.5880  178.2120  137.3270 C   0  0  0  0  0  0  0  0  0  0  0  0
  189.3470  177.1570  137.4600 C   0  0  0  0  0  0  0  0  0  0  0  0
  193.4690  176.5440  138.6480 N   0  0  0  0  0  2  0  0  0  0  0  0
  192.8880  177.6410  140.6310 N   0  0  0  0  0  1  0  0  0  0  0  0
  192.4930  177.0750  139.5390 C   0  0  0  0  0  0  0  0  0  0  0  0
  190.1590  177.3120  143.7620 C   0  0  1  0  0  3  0  0  0  0  0  0
  191.8290  179.1810  144.1030 C   0  0  0  0  0  1  0  0  0  0  0  0
  190.3800  178.7440  144.2590 C   0  0  0  0  0  2  0  0  0  0  0  0
  189.2560  176.6190  144.6200 O   0  0  0  0  0  0  0  0  0  0  0  0
  189.6920  177.0930  147.0710 C   0  0  0  0  0  3  0  0  0  0  0  0
  187.7150  178.0480  147.4910 C   0  0  0  0  0  2  0  0  0  0  0  0
  187.7400  177.6600  146.0870 N   0  0  0  0  0  0  0  0  0  0  0  0
  188.8850  177.1150  145.8710 C   0  0  0  0  0  0  0  0  0  0  0  0
  189.0120  177.6370  148.0220 N   0  0  0  0  0  0  0  0  0  0  0  0
  188.2340  176.9280  142.3070 N   0  0  0  0  0  2  0  0  0  0  0  0
  187.3640  178.4750  140.7930 O   0  0  0  0  0  1  0  0  0  0  0  0
  187.4730  178.1590  142.1480 C   0  0  1  0  0  3  0  0  0  0  0  0
  186.0850  178.0270  142.7740 C   0  0  0  0  0  2  0  0  0  0  0  0
  185.2730  179.3030  142.6240 C   0  0  0  0  0  1  0  0  0  0  0  0
  1  2  1  6  0  0  0
  1 15  1  0  0  0  0
  3  2  1  0  0  0  0
  4  5  2  0  0  0  0
  5 14  1  0  0  0  0
  5  3  1  0  0  0  0
  7  9  2  0  0  0  0
  7  8  1  0  0  0  0
  8 11  1  0  0  0  0
  9 10  1  0  0  0  0
 10 11  2  0  0  0  0
 10  6  1  0  0  0  0
 11  4  1  0  0  0  0
 12 14  2  0  0  0  0
 14 13  1  0  0  0  0
 15 17  1  1  0  0  0
 15 18  1  0  0  0  0
 16 17  1  0  0  0  0
 18 22  1  0  0  0  0
 19 23  2  0  0  0  0
 20 23  1  0  0  0  0
 21 20  1  0  0  0  0
 22 21  2  0  0  0  0
 22 19  1  0  0  0  0
 24  1  1  0  0  0  0
 26 25  1  6  0  0  0
 26 24  1  0  0  0  0
 26 27  1  0  0  0  0
 28 27  1  0  0  0  0
M  END
>  <MODEL>
7

>  <REMARK>
 VINA RESULT:      -6.0      1.638      3.049
  Name = 
  11 active torsions:
  status: ('A' for Active; 'I' for Inactive)
    1  A    between atoms: O_5  and  C_16
    2  A    between atoms: O_5  and  C_23
    3  A    between atoms: C_10  and  C_15
    4  A    between atoms: C_10  and  N_22
    5  A    between atoms: N_11  and  C_14
    6  A    between atoms: N_11  and  N_17
    7  A    between atoms: C_13  and  C_16
    8  A    between atoms: C_14  and  C_16
    9  A    between atoms: C_14  and  N_22
   10  A    between atoms: N_20  and  C_26
   11  A    between atoms: C_24  and  C_27
                            x       y       z     vdW  Elec       q    Type
                         _______ _______ _______ _____ _____    ______ ____

>  <TORSDO>
F 11

$$$$
=
 OpenBabel10232409053D

 28 29  0  0  1  0  0  0  0  0999 V2000
  186.7190  178.7120  142.0280 C   0  0  2  0  0  3  0  0  0  0  0  0
  186.9710  178.8570  140.6040 N   0  0  0  0  0  2  0  0  0  0  0  0
  185.7450  178.6520  139.9570 N   0  0  0  0  0  2  0  0  0  0  0  0
  184.4510  178.1630  138.0270 N   0  0  0  0  0  0  0  0  0  0  0  0
  185.6270  178.2890  138.5730 C   0  0  0  0  0  0  0  0  0  0  0  0
  182.8650  176.0040  139.1320 N   0  0  0  0  0  1  0  0  0  0  0  0
  181.2060  179.3120  139.5420 N   0  0  0  0  0  0  0  0  0  0  0  0
  182.4610  179.6380  138.8540 C   0  0  0  0  0  3  0  0  0  0  0  0
  181.2040  177.8590  139.7390 C   0  0  0  0  0  2  0  0  0  0  0  0
  182.4680  177.3710  139.1550 C   0  0  0  0  0  0  0  0  0  0  0  0
  183.1750  178.3520  138.6600 C   0  0  0  0  0  0  0  0  0  0  0  0
  187.3810  179.1190  136.9760 N   0  0  0  0  0  2  0  0  0  0  0  0
  187.3420  176.8720  137.6250 N   0  0  0  0  0  1  0  0  0  0  0  0
  186.8150  178.0470  137.7220 C   0  0  0  0  0  0  0  0  0  0  0  0
  187.8070  177.8520  142.6720 C   0  0  1  0  0  3  0  0  0  0  0  0
  187.6400  177.4190  145.1590 C   0  0  0  0  0  1  0  0  0  0  0  0
  187.2380  176.9470  143.7690 C   0  0  0  0  0  2  0  0  0  0  0  0
  188.4740  177.0770  141.6800 O   0  0  0  0  0  0  0  0  0  0  0  0
  190.8840  177.2740  142.4380 C   0  0  0  0  0  3  0  0  0  0  0  0
  191.7760  177.3750  140.3910 C   0  0  0  0  0  2  0  0  0  0  0  0
  190.3310  177.2520  140.2480 N   0  0  0  0  0  0  0  0  0  0  0  0
  189.8430  177.1950  141.4360 C   0  0  0  0  0  0  0  0  0  0  0  0
  192.0170  177.3800  141.8310 N   0  0  0  0  0  0  0  0  0  0  0  0
  185.4160  178.0920  142.2240 N   0  0  0  0  0  2  0  0  0  0  0  0
  183.1760  178.7000  142.4520 O   0  0  0  0  0  1  0  0  0  0  0  0
  184.4890  179.1390  142.6280 C   0  0  1  0  0  3  0  0  0  0  0  0
  184.7220  179.5450  144.0820 C   0  0  0  0  0  2  0  0  0  0  0  0
  183.7090  178.9050  145.0170 C   0  0  0  0  0  1  0  0  0  0  0  0
  1  2  1  6  0  0  0
  1 24  1  0  0  0  0
  1 15  1  0  0  0  0
  3  2  1  0  0  0  0
  4  5  2  0  0  0  0
  4 11  1  0  0  0  0
  5  3  1  0  0  0  0
  6 10  1  0  0  0  0
  7  9  1  0  0  0  0
  8  7  2  0  0  0  0
 10  9  1  0  0  0  0
 11  8  1  0  0  0  0
 11 10  2  0  0  0  0
 12 14  2  0  0  0  0
 13 14  1  0  0  0  0
 14  5  1  0  0  0  0
 15 17  1  1  0  0  0
 17 16  1  0  0  0  0
 18 15  1  0  0  0  0
 20 23  1  0  0  0  0
 21 20  1  0  0  0  0
 21 22  2  0  0  0  0
 22 18  1  0  0  0  0
 22 19  1  0  0  0  0
 23 19  2  0  0  0  0
 24 26  1  0  0  0  0
 26 25  1  1  0  0  0
 26 27  1  0  0  0  0
 27 28  1  0  0  0  0
M  END
>  <MODEL>
8

>  <REMARK>
 VINA RESULT:      -5.9      2.912      5.602
  Name = 
  11 active torsions:
  status: ('A' for Active; 'I' for Inactive)
    1  A    between atoms: O_5  and  C_16
    2  A    between atoms: O_5  and  C_23
    3  A    between atoms: C_10  and  C_15
    4  A    between atoms: C_10  and  N_22
    5  A    between atoms: N_11  and  C_14
    6  A    between atoms: N_11  and  N_17
    7  A    between atoms: C_13  and  C_16
    8  A    between atoms: C_14  and  C_16
    9  A    between atoms: C_14  and  N_22
   10  A    between atoms: N_20  and  C_26
   11  A    between atoms: C_24  and  C_27
                            x       y       z     vdW  Elec       q    Type
                         _______ _______ _______ _____ _____    ______ ____

>  <TORSDO>
F 11

$$$$
=
 OpenBabel10232409053D

 28 29  0  0  1  0  0  0  0  0999 V2000
  187.6690  178.2930  142.2870 C   0  0  2  0  0  3  0  0  0  0  0  0
  188.1570  178.3800  140.9200 N   0  0  0  0  0  2  0  0  0  0  0  0
  187.0280  178.3670  140.0900 N   0  0  0  0  0  2  0  0  0  0  0  0
  186.0030  178.3910  137.9490 N   0  0  0  0  0  0  0  0  0  0  0  0
  187.0960  178.3530  138.6560 C   0  0  0  0  0  0  0  0  0  0  0  0
  184.1070  176.2110  137.7160 N   0  0  0  0  0  1  0  0  0  0  0  0
  182.6330  179.1730  139.4240 N   0  0  0  0  0  0  0  0  0  0  0  0
  184.0060  179.5960  139.1250 C   0  0  0  0  0  2  0  0  0  0  0  0
  182.4980  177.8040  138.9160 C   0  0  0  0  0  3  0  0  0  0  0  0
  183.8060  177.4610  138.3280 C   0  0  0  0  0  0  0  0  0  0  0  0
  184.6530  178.4510  138.4390 C   0  0  0  0  0  0  0  0  0  0  0  0
  188.9660  179.4960  137.4260 N   0  0  0  0  0  2  0  0  0  0  0  0
  188.9960  177.1770  137.7320 N   0  0  0  0  0  1  0  0  0  0  0  0
  188.3870  178.2980  137.9330 C   0  0  0  0  0  0  0  0  0  0  0  0
  188.5030  177.2880  143.0830 C   0  0  1  0  0  3  0  0  0  0  0  0
  190.4620  175.6890  143.0130 C   0  0  0  0  0  1  0  0  0  0  0  0
  189.5490  176.5970  142.2030 C   0  0  0  0  0  2  0  0  0  0  0  0
  189.1280  177.9340  144.1890 O   0  0  0  0  0  0  0  0  0  0  0  0
  189.5400  177.1120  146.5500 C   0  0  0  0  0  3  0  0  0  0  0  0
  187.5150  177.6260  147.3450 C   0  0  0  0  0  2  0  0  0  0  0  0
  187.5600  178.0100  145.9400 N   0  0  0  0  0  0  0  0  0  0  0  0
  188.7320  177.7060  145.5070 C   0  0  0  0  0  0  0  0  0  0  0  0
  188.8330  177.0630  147.6270 N   0  0  0  0  0  0  0  0  0  0  0  0
  186.2740  177.8770  142.2730 N   0  0  0  0  0  2  0  0  0  0  0  0
  185.4590  180.0600  142.3650 O   0  0  0  0  0  1  0  0  0  0  0  0
  185.5200  178.8480  143.0530 C   0  0  1  0  0  3  0  0  0  0  0  0
  184.1120  178.3350  143.3490 C   0  0  0  0  0  2  0  0  0  0  0  0
  183.5500  178.9320  144.6290 C   0  0  0  0  0  1  0  0  0  0  0  0
  1  2  1  6  0  0  0
  1 15  1  0  0  0  0
  3  2  1  0  0  0  0
  4 11  1  0  0  0  0
  4  5  2  0  0  0  0
  5  3  1  0  0  0  0
  6 10  1  0  0  0  0
  8  7  1  0  0  0  0
  9  7  2  0  0  0  0
 10 11  2  0  0  0  0
 10  9  1  0  0  0  0
 11  8  1  0  0  0  0
 12 14  2  0  0  0  0
 13 14  1  0  0  0  0
 14  5  1  0  0  0  0
 15 17  1  6  0  0  0
 15 18  1  0  0  0  0
 17 16  1  0  0  0  0
 18 22  1  0  0  0  0
 19 23  2  0  0  0  0
 20 23  1  0  0  0  0
 21 20  1  0  0  0  0
 22 21  2  0  0  0  0
 22 19  1  0  0  0  0
 24  1  1  0  0  0  0
 24 26  1  0  0  0  0
 26 25  1  6  0  0  0
 26 27  1  0  0  0  0
 27 28  1  0  0  0  0
M  END
>  <MODEL>
9

>  <REMARK>
 VINA RESULT:      -5.9      2.501      4.345
  Name = 
  11 active torsions:
  status: ('A' for Active; 'I' for Inactive)
    1  A    between atoms: O_5  and  C_16
    2  A    between atoms: O_5  and  C_23
    3  A    between atoms: C_10  and  C_15
    4  A    between atoms: C_10  and  N_22
    5  A    between atoms: N_11  and  C_14
    6  A    between atoms: N_11  and  N_17
    7  A    between atoms: C_13  and  C_16
    8  A    between atoms: C_14  and  C_16
    9  A    between atoms: C_14  and  N_22
   10  A    between atoms: N_20  and  C_26
   11  A    between atoms: C_24  and  C_27
                            x       y       z     vdW  Elec       q    Type
                         _______ _______ _______ _____ _____    ______ ____

>  <TORSDO>
F 11

$$$$
