=
 OpenBabel10232408513D

 25 27  0  0  1  0  0  0  0  0999 V2000
  184.0530  178.7860  146.3390 N   0  0  0  0  0  0  0  0  0  0  0  0
  184.5950  178.8900  144.0190 C   0  0  0  0  0  0  0  0  0  0  0  0
  185.8940  178.4770  144.3140 C   0  0  0  0  0  3  0  0  0  0  0  0
  183.6750  179.0380  145.0580 C   0  0  0  0  0  3  0  0  0  0  0  0
  186.2800  178.2280  145.6380 C   0  0  0  0  0  0  0  0  0  0  0  0
  185.3160  178.3880  146.6450 C   0  0  0  0  0  3  0  0  0  0  0  0
  189.8250  176.8590  145.2930 C   0  0  0  0  0  3  0  0  0  0  0  0
  188.1720  177.1480  143.4840 C   0  0  0  0  0  1  0  0  0  0  0  0
  189.3290  177.3650  147.5860 C   0  0  0  0  0  3  0  0  0  0  0  0
  190.2320  176.9040  146.6270 C   0  0  0  0  0  0  0  0  0  0  0  0
  188.0860  177.7690  147.2170 N   0  0  0  0  0  0  0  0  0  0  0  0
  187.6590  177.7510  145.9210 C   0  0  0  0  0  0  0  0  0  0  0  0
  188.5460  177.2760  144.9220 C   0  0  0  0  0  0  0  0  0  0  0  0
  191.5830  176.4650  147.0120 C   0  0  0  0  0  0  0  0  0  0  0  0
  192.2400  175.4910  146.2670 O   0  0  0  0  0  0  0  0  0  0  0  0
  192.1560  176.9660  148.0150 O   0  0  0  0  0  1  0  0  0  0  0  0
  184.1800  179.1270  142.6060 C   0  0  0  0  0  2  0  0  0  0  0  0
  183.9220  178.1430  138.3780 C   0  0  0  0  0  3  0  0  0  0  0  0
  185.0250  178.2400  137.6240 C   0  0  0  0  0  3  0  0  0  0  0  0
  185.3400  179.0800  141.7260 N   0  0  0  0  0  2  0  0  0  0  0  0
  185.2920  178.5610  140.3940 C   0  0  0  0  0  0  0  0  0  0  0  0
  186.3480  178.6520  139.6370 N   0  0  0  0  0  0  0  0  0  0  0  0
  187.3810  178.7870  137.4890 N   0  0  0  0  0  1  0  0  0  0  0  0
  184.0440  177.8980  139.8600 C   0  0  0  0  0  2  0  0  0  0  0  0
  186.3740  178.1020  138.2780 C   0  0  2  0  0  3  0  0  0  0  0  0
  1  6  1  0  0  0  0
  2  3  2  0  0  0  0
  2  4  1  0  0  0  0
  3  5  1  0  0  0  0
  4  1  2  0  0  0  0
  5 12  1  0  0  0  0
  5  6  2  0  0  0  0
  7 10  1  0  0  0  0
  8 13  1  0  0  0  0
 10 14  1  0  0  0  0
 10  9  2  0  0  0  0
 11  9  1  0  0  0  0
 12 11  2  0  0  0  0
 13  7  2  0  0  0  0
 13 12  1  0  0  0  0
 14 16  1  0  0  0  0
 15 14  2  0  0  0  0
 17  2  1  0  0  0  0
 18 24  1  0  0  0  0
 19 25  1  0  0  0  0
 19 18  2  0  0  0  0
 20 17  1  0  0  0  0
 21 20  1  0  0  0  0
 22 21  2  0  0  0  0
 24 21  1  0  0  0  0
 25 23  1  6  0  0  0
 25 22  1  0  0  0  0
M  END
>  <MODEL>
1

>  <REMARK>
 VINA RESULT:      -9.4      0.000      0.000
  Name = 
  4 active torsions:
  status: ('A' for Active; 'I' for Inactive)
    1  A    between atoms: C_4  and  C_16
    2  A    between atoms: C_8  and  C_9
    3  A    between atoms: C_8  and  N_13
    4  A    between atoms: C_18  and  C_20
                            x       y       z     vdW  Elec       q    Type
                         _______ _______ _______ _____ _____    ______ ____

>  <TORSDO>
F 4

$$$$
=
 OpenBabel10232408513D

 25 27  0  0  1  0  0  0  0  0999 V2000
  184.1380  178.7090  146.2500 N   0  0  0  0  0  0  0  0  0  0  0  0
  184.8470  178.9690  143.9880 C   0  0  0  0  0  0  0  0  0  0  0  0
  186.1290  178.5570  144.3520 C   0  0  0  0  0  3  0  0  0  0  0  0
  183.8510  179.0360  144.9620 C   0  0  0  0  0  3  0  0  0  0  0  0
  186.4220  178.2300  145.6830 C   0  0  0  0  0  0  0  0  0  0  0  0
  185.3840  178.3110  146.6240 C   0  0  0  0  0  3  0  0  0  0  0  0
  189.9880  176.8810  145.5230 C   0  0  0  0  0  3  0  0  0  0  0  0
  188.4370  177.1800  143.6280 C   0  0  0  0  0  1  0  0  0  0  0  0
  189.3620  177.3620  147.7900 C   0  0  0  0  0  3  0  0  0  0  0  0
  190.3200  176.9150  146.8790 C   0  0  0  0  0  0  0  0  0  0  0  0
  188.1390  177.7640  147.3560 N   0  0  0  0  0  0  0  0  0  0  0  0
  187.7850  177.7560  146.0380 C   0  0  0  0  0  0  0  0  0  0  0  0
  188.7290  177.2960  145.0860 C   0  0  0  0  0  0  0  0  0  0  0  0
  191.6490  176.4780  147.3330 C   0  0  0  0  0  0  0  0  0  0  0  0
  192.2890  177.1480  148.3710 O   0  0  0  0  0  1  0  0  0  0  0  0
  192.2180  175.4940  146.7900 O   0  0  0  0  0  0  0  0  0  0  0  0
  184.5330  179.2880  142.5650 C   0  0  0  0  0  2  0  0  0  0  0  0
  184.7750  178.3020  138.3370 C   0  0  0  0  0  3  0  0  0  0  0  0
  184.1430  177.2080  137.8920 C   0  0  0  0  0  3  0  0  0  0  0  0
  183.7850  178.1960  141.9560 N   0  0  0  0  0  2  0  0  0  0  0  0
  183.7010  177.9960  140.5430 C   0  0  0  0  0  0  0  0  0  0  0  0
  183.0990  176.9360  140.0850 N   0  0  0  0  0  0  0  0  0  0  0  0
  182.7710  175.2770  138.4000 N   0  0  0  0  0  1  0  0  0  0  0  0
  184.2840  179.0010  139.5780 C   0  0  0  0  0  2  0  0  0  0  0  0
  182.9440  176.6960  138.6460 C   0  0  2  0  0  3  0  0  0  0  0  0
  1  6  1  0  0  0  0
  2  3  2  0  0  0  0
  2  4  1  0  0  0  0
  3  5  1  0  0  0  0
  4  1  2  0  0  0  0
  5 12  1  0  0  0  0
  5  6  2  0  0  0  0
  7 10  1  0  0  0  0
  8 13  1  0  0  0  0
 10 14  1  0  0  0  0
 10  9  2  0  0  0  0
 11  9  1  0  0  0  0
 12 11  2  0  0  0  0
 13  7  2  0  0  0  0
 13 12  1  0  0  0  0
 14 15  1  0  0  0  0
 16 14  2  0  0  0  0
 17  2  1  0  0  0  0
 18 24  1  0  0  0  0
 19 18  2  0  0  0  0
 19 25  1  0  0  0  0
 20 17  1  0  0  0  0
 21 20  1  0  0  0  0
 22 21  2  0  0  0  0
 24 21  1  0  0  0  0
 25 23  1  1  0  0  0
 25 22  1  0  0  0  0
M  END
>  <MODEL>
2

>  <REMARK>
 VINA RESULT:      -9.0      1.437      1.832
  Name = 
  4 active torsions:
  status: ('A' for Active; 'I' for Inactive)
    1  A    between atoms: C_4  and  C_16
    2  A    between atoms: C_8  and  C_9
    3  A    between atoms: C_8  and  N_13
    4  A    between atoms: C_18  and  C_20
                            x       y       z     vdW  Elec       q    Type
                         _______ _______ _______ _____ _____    ______ ____

>  <TORSDO>
F 4

$$$$
=
 OpenBabel10232408513D

 25 27  0  0  1  0  0  0  0  0999 V2000
  182.3730  178.8670  143.4350 N   0  0  0  0  0  0  0  0  0  0  0  0
  183.8580  178.6950  141.5770 C   0  0  0  0  0  0  0  0  0  0  0  0
  184.9180  178.4790  142.4560 C   0  0  0  0  0  3  0  0  0  0  0  0
  182.5750  178.8870  142.0910 C   0  0  0  0  0  3  0  0  0  0  0  0
  184.7060  178.4690  143.8410 C   0  0  0  0  0  0  0  0  0  0  0  0
  183.3960  178.6630  144.3070 C   0  0  0  0  0  3  0  0  0  0  0  0
  188.0910  177.4360  145.2670 C   0  0  0  0  0  3  0  0  0  0  0  0
  187.3480  177.2190  142.9240 C   0  0  0  0  0  1  0  0  0  0  0  0
  186.6660  178.2950  146.9980 C   0  0  0  0  0  3  0  0  0  0  0  0
  187.8980  177.7640  146.6100 C   0  0  0  0  0  0  0  0  0  0  0  0
  185.6870  178.4930  146.0780 N   0  0  0  0  0  0  0  0  0  0  0  0
  185.8460  178.1970  144.7550 C   0  0  0  0  0  0  0  0  0  0  0  0
  187.0790  177.6440  144.3290 C   0  0  0  0  0  0  0  0  0  0  0  0
  188.9690  177.5440  147.5940 C   0  0  0  0  0  0  0  0  0  0  0  0
  189.9210  176.5530  147.3830 O   0  0  0  0  0  0  0  0  0  0  0  0
  189.0350  178.2520  148.6350 O   0  0  0  0  0  1  0  0  0  0  0  0
  184.0840  178.6770  140.1020 C   0  0  0  0  0  2  0  0  0  0  0  0
  185.8750  177.5390  136.3070 C   0  0  0  0  0  3  0  0  0  0  0  0
  187.1620  177.8380  136.0840 C   0  0  0  0  0  3  0  0  0  0  0  0
  185.5000  178.8430  139.8070 N   0  0  0  0  0  2  0  0  0  0  0  0
  186.1310  178.2870  138.6500 C   0  0  0  0  0  0  0  0  0  0  0  0
  187.3780  178.5710  138.4060 N   0  0  0  0  0  0  0  0  0  0  0  0
  189.2070  178.8530  136.8970 N   0  0  0  0  0  1  0  0  0  0  0  0
  185.3770  177.3670  137.7190 C   0  0  0  0  0  2  0  0  0  0  0  0
  188.0900  177.9990  137.2590 C   0  0  2  0  0  3  0  0  0  0  0  0
  1  6  1  0  0  0  0
  2  4  1  0  0  0  0
  2  3  2  0  0  0  0
  3  5  1  0  0  0  0
  4  1  2  0  0  0  0
  5  6  2  0  0  0  0
  5 12  1  0  0  0  0
  7 10  1  0  0  0  0
  8 13  1  0  0  0  0
 10  9  2  0  0  0  0
 10 14  1  0  0  0  0
 11  9  1  0  0  0  0
 12 11  2  0  0  0  0
 13 12  1  0  0  0  0
 13  7  2  0  0  0  0
 14 16  1  0  0  0  0
 15 14  2  0  0  0  0
 17  2  1  0  0  0  0
 18 24  1  0  0  0  0
 19 18  2  0  0  0  0
 19 25  1  0  0  0  0
 20 17  1  0  0  0  0
 21 20  1  0  0  0  0
 22 21  2  0  0  0  0
 24 21  1  0  0  0  0
 25 23  1  6  0  0  0
 25 22  1  0  0  0  0
M  END
>  <MODEL>
3

>  <REMARK>
 VINA RESULT:      -8.7      1.596      2.494
  Name = 
  4 active torsions:
  status: ('A' for Active; 'I' for Inactive)
    1  A    between atoms: C_4  and  C_16
    2  A    between atoms: C_8  and  C_9
    3  A    between atoms: C_8  and  N_13
    4  A    between atoms: C_18  and  C_20
                            x       y       z     vdW  Elec       q    Type
                         _______ _______ _______ _____ _____    ______ ____

>  <TORSDO>
F 4

$$$$
=
 OpenBabel10232408513D

 25 27  0  0  1  0  0  0  0  0999 V2000
  187.5290  178.3330  147.7180 N   0  0  0  0  0  0  0  0  0  0  0  0
  188.6020  177.4310  145.7880 C   0  0  0  0  0  0  0  0  0  0  0  0
  187.4390  177.6530  145.0500 C   0  0  0  0  0  3  0  0  0  0  0  0
  188.6290  177.7860  147.1370 C   0  0  0  0  0  3  0  0  0  0  0  0
  186.3050  178.2090  145.6560 C   0  0  0  0  0  0  0  0  0  0  0  0
  186.3860  178.5510  147.0150 C   0  0  0  0  0  3  0  0  0  0  0  0
  183.8720  178.6510  142.7490 C   0  0  0  0  0  3  0  0  0  0  0  0
  186.2720  178.0990  142.5950 C   0  0  0  0  0  1  0  0  0  0  0  0
  182.7750  179.0600  144.8450 C   0  0  0  0  0  3  0  0  0  0  0  0
  182.7130  178.9800  143.4530 C   0  0  0  0  0  0  0  0  0  0  0  0
  183.9430  178.8090  145.4930 N   0  0  0  0  0  0  0  0  0  0  0  0
  185.0920  178.4710  144.8380 C   0  0  0  0  0  0  0  0  0  0  0  0
  185.0670  178.3940  143.4230 C   0  0  0  0  0  0  0  0  0  0  0  0
  181.4550  179.2480  142.7370 C   0  0  0  0  0  0  0  0  0  0  0  0
  181.0460  178.4110  141.7040 O   0  0  0  0  0  0  0  0  0  0  0  0
  180.7380  180.2340  143.0540 O   0  0  0  0  0  1  0  0  0  0  0  0
  189.8170  176.8660  145.1320 C   0  0  0  0  0  2  0  0  0  0  0  0
  192.2810  177.8320  141.6820 C   0  0  0  0  0  3  0  0  0  0  0  0
  191.9750  177.2870  140.4970 C   0  0  0  0  0  3  0  0  0  0  0  0
  189.5010  176.4290  143.7790 N   0  0  0  0  0  2  0  0  0  0  0  0
  190.1860  176.9100  142.6200 C   0  0  0  0  0  0  0  0  0  0  0  0
  189.9140  176.3900  141.4570 N   0  0  0  0  0  0  0  0  0  0  0  0
  190.5250  175.8270  139.2190 N   0  0  0  0  0  1  0  0  0  0  0  0
  191.2070  178.0190  142.7230 C   0  0  0  0  0  2  0  0  0  0  0  0
  190.5530  176.8700  140.2280 C   0  0  2  0  0  3  0  0  0  0  0  0
  2  4  2  0  0  0  0
  3  5  2  0  0  0  0
  3  2  1  0  0  0  0
  4  1  1  0  0  0  0
  5  6  1  0  0  0  0
  6  1  2  0  0  0  0
  7 13  2  0  0  0  0
  7 10  1  0  0  0  0
  8 13  1  0  0  0  0
  9 11  1  0  0  0  0
 10  9  2  0  0  0  0
 12 11  2  0  0  0  0
 12  5  1  0  0  0  0
 13 12  1  0  0  0  0
 14 16  1  0  0  0  0
 14 10  1  0  0  0  0
 15 14  2  0  0  0  0
 17  2  1  0  0  0  0
 18 24  1  0  0  0  0
 19 18  2  0  0  0  0
 20 17  1  0  0  0  0
 21 24  1  0  0  0  0
 21 20  1  0  0  0  0
 22 21  2  0  0  0  0
 25 23  1  6  0  0  0
 25 19  1  0  0  0  0
 25 22  1  0  0  0  0
M  END
>  <MODEL>
4

>  <REMARK>
 VINA RESULT:      -8.6      4.378      6.653
  Name = 
  4 active torsions:
  status: ('A' for Active; 'I' for Inactive)
    1  A    between atoms: C_4  and  C_16
    2  A    between atoms: C_8  and  C_9
    3  A    between atoms: C_8  and  N_13
    4  A    between atoms: C_18  and  C_20
                            x       y       z     vdW  Elec       q    Type
                         _______ _______ _______ _____ _____    ______ ____

>  <TORSDO>
F 4

$$$$
=
 OpenBabel10232408513D

 25 27  0  0  1  0  0  0  0  0999 V2000
  190.5660  176.2240  141.2770 N   0  0  0  0  0  0  0  0  0  0  0  0
  189.4250  177.7390  139.8300 C   0  0  0  0  0  0  0  0  0  0  0  0
  188.4980  177.9910  140.8410 C   0  0  0  0  0  3  0  0  0  0  0  0
  190.4670  176.8430  140.0710 C   0  0  0  0  0  3  0  0  0  0  0  0
  188.5990  177.3430  142.0790 C   0  0  0  0  0  0  0  0  0  0  0  0
  189.6680  176.4540  142.2720 C   0  0  0  0  0  3  0  0  0  0  0  0
  186.9470  177.9570  145.4640 C   0  0  0  0  0  3  0  0  0  0  0  0
  189.2700  177.2270  145.0660 C   0  0  0  0  0  1  0  0  0  0  0  0
  185.3810  178.3060  143.6790 C   0  0  0  0  0  3  0  0  0  0  0  0
  185.6610  178.3020  145.0460 C   0  0  0  0  0  0  0  0  0  0  0  0
  186.3500  177.9880  142.7810 N   0  0  0  0  0  0  0  0  0  0  0  0
  187.6210  177.6590  143.1530 C   0  0  0  0  0  0  0  0  0  0  0  0
  187.9370  177.6330  144.5350 C   0  0  0  0  0  0  0  0  0  0  0  0
  184.6220  178.6440  146.0300 C   0  0  0  0  0  0  0  0  0  0  0  0
  183.3730  179.0830  145.6050 O   0  0  0  0  0  0  0  0  0  0  0  0
  184.8530  178.5410  147.2650 O   0  0  0  0  0  1  0  0  0  0  0  0
  189.3310  178.4530  138.5240 C   0  0  0  0  0  2  0  0  0  0  0  0
  186.7340  175.3270  136.9760 C   0  0  0  0  0  3  0  0  0  0  0  0
  185.4360  175.5990  136.7930 C   0  0  0  0  0  3  0  0  0  0  0  0
  187.9360  178.6770  138.1710 N   0  0  0  0  0  2  0  0  0  0  0  0
  187.1390  177.7150  137.4750 C   0  0  0  0  0  0  0  0  0  0  0  0
  185.8710  177.9520  137.2910 N   0  0  0  0  0  0  0  0  0  0  0  0
  183.6290  177.2060  136.9490 N   0  0  0  0  0  1  0  0  0  0  0  0
  187.7480  176.4410  136.9380 C   0  0  0  0  0  2  0  0  0  0  0  0
  185.0120  177.0230  136.5490 C   0  0  2  0  0  3  0  0  0  0  0  0
  1  6  1  0  0  0  0
  2  4  1  0  0  0  0
  2  3  2  0  0  0  0
  3  5  1  0  0  0  0
  4  1  2  0  0  0  0
  5  6  2  0  0  0  0
  5 12  1  0  0  0  0
  9 10  2  0  0  0  0
 10  7  1  0  0  0  0
 10 14  1  0  0  0  0
 11 12  2  0  0  0  0
 11  9  1  0  0  0  0
 12 13  1  0  0  0  0
 13  8  1  0  0  0  0
 13  7  2  0  0  0  0
 14 16  1  0  0  0  0
 15 14  2  0  0  0  0
 17  2  1  0  0  0  0
 19 18  2  0  0  0  0
 20 17  1  0  0  0  0
 21 20  1  0  0  0  0
 22 21  2  0  0  0  0
 24 18  1  0  0  0  0
 24 21  1  0  0  0  0
 25 19  1  0  0  0  0
 25 23  1  1  0  0  0
 25 22  1  0  0  0  0
M  END
>  <MODEL>
5

>  <REMARK>
 VINA RESULT:      -8.6      3.337      5.408
  Name = 
  4 active torsions:
  status: ('A' for Active; 'I' for Inactive)
    1  A    between atoms: C_4  and  C_16
    2  A    between atoms: C_8  and  C_9
    3  A    between atoms: C_8  and  N_13
    4  A    between atoms: C_18  and  C_20
                            x       y       z     vdW  Elec       q    Type
                         _______ _______ _______ _____ _____    ______ ____

>  <TORSDO>
F 4

$$$$
=
 OpenBabel10232408513D

 25 27  0  0  1  0  0  0  0  0999 V2000
  188.8660  177.5830  146.9790 N   0  0  0  0  0  0  0  0  0  0  0  0
  189.6430  177.1310  144.7690 C   0  0  0  0  0  0  0  0  0  0  0  0
  188.3690  177.4110  144.2750 C   0  0  0  0  0  3  0  0  0  0  0  0
  189.8760  177.2270  146.1410 C   0  0  0  0  0  3  0  0  0  0  0  0
  187.3290  177.7690  145.1440 C   0  0  0  0  0  0  0  0  0  0  0  0
  187.6180  177.8550  146.5140 C   0  0  0  0  0  3  0  0  0  0  0  0
  183.6630  178.7570  144.7630 C   0  0  0  0  0  3  0  0  0  0  0  0
  184.9020  178.4700  146.8770 C   0  0  0  0  0  1  0  0  0  0  0  0
  184.6620  178.3560  142.6170 C   0  0  0  0  0  3  0  0  0  0  0  0
  183.5450  178.7180  143.3730 C   0  0  0  0  0  0  0  0  0  0  0  0
  185.8370  178.0600  143.2320 N   0  0  0  0  0  0  0  0  0  0  0  0
  185.9920  178.1020  144.5870 C   0  0  0  0  0  0  0  0  0  0  0  0
  184.8740  178.4530  145.3860 C   0  0  0  0  0  0  0  0  0  0  0  0
  182.2660  179.0410  142.7220 C   0  0  0  0  0  0  0  0  0  0  0  0
  182.1040  178.8340  141.3560 O   0  0  0  0  0  0  0  0  0  0  0  0
  181.3070  179.5070  143.3940 O   0  0  0  0  0  1  0  0  0  0  0  0
  190.7530  176.7790  143.8380 C   0  0  0  0  0  2  0  0  0  0  0  0
  192.8580  177.2980  140.0690 C   0  0  0  0  0  3  0  0  0  0  0  0
  192.3400  176.7550  138.9590 C   0  0  0  0  0  3  0  0  0  0  0  0
  190.2170  176.3380  142.5580 N   0  0  0  0  0  2  0  0  0  0  0  0
  190.8030  176.6860  141.3010 C   0  0  0  0  0  0  0  0  0  0  0  0
  190.3230  176.1640  140.2080 N   0  0  0  0  0  0  0  0  0  0  0  0
  190.5700  175.4480  137.9440 N   0  0  0  0  0  1  0  0  0  0  0  0
  191.9570  177.6580  141.2210 C   0  0  0  0  0  2  0  0  0  0  0  0
  190.8550  176.5130  138.8870 C   0  0  2  0  0  3  0  0  0  0  0  0
  2  4  1  0  0  0  0
  3  2  2  0  0  0  0
  3  5  1  0  0  0  0
  4  1  2  0  0  0  0
  5  6  2  0  0  0  0
  6  1  1  0  0  0  0
  7 13  1  0  0  0  0
  9 11  2  0  0  0  0
  9 10  1  0  0  0  0
 10  7  2  0  0  0  0
 11 12  1  0  0  0  0
 12  5  1  0  0  0  0
 12 13  2  0  0  0  0
 13  8  1  0  0  0  0
 14 10  1  0  0  0  0
 14 16  1  0  0  0  0
 15 14  2  0  0  0  0
 17  2  1  0  0  0  0
 18 24  1  0  0  0  0
 19 18  2  0  0  0  0
 20 17  1  0  0  0  0
 21 20  1  0  0  0  0
 22 21  2  0  0  0  0
 24 21  1  0  0  0  0
 25 23  1  6  0  0  0
 25 19  1  0  0  0  0
 25 22  1  0  0  0  0
M  END
>  <MODEL>
6

>  <REMARK>
 VINA RESULT:      -8.6      4.463      6.659
  Name = 
  4 active torsions:
  status: ('A' for Active; 'I' for Inactive)
    1  A    between atoms: C_4  and  C_16
    2  A    between atoms: C_8  and  C_9
    3  A    between atoms: C_8  and  N_13
    4  A    between atoms: C_18  and  C_20
                            x       y       z     vdW  Elec       q    Type
                         _______ _______ _______ _____ _____    ______ ____

>  <TORSDO>
F 4

$$$$
=
 OpenBabel10232408513D

 25 27  0  0  1  0  0  0  0  0999 V2000
  188.8710  177.1600  145.7040 N   0  0  0  0  0  0  0  0  0  0  0  0
  189.1370  177.3420  143.3410 C   0  0  0  0  0  0  0  0  0  0  0  0
  187.7840  177.6550  143.2220 C   0  0  0  0  0  3  0  0  0  0  0  0
  189.6710  177.0980  144.6070 C   0  0  0  0  0  3  0  0  0  0  0  0
  186.9620  177.7090  144.3560 C   0  0  0  0  0  0  0  0  0  0  0  0
  187.5480  177.4590  145.6060 C   0  0  0  0  0  3  0  0  0  0  0  0
  183.3670  178.7880  145.0440 C   0  0  0  0  0  3  0  0  0  0  0  0
  185.1440  178.4240  146.7160 C   0  0  0  0  0  1  0  0  0  0  0  0
  183.7070  178.4130  142.6980 C   0  0  0  0  0  3  0  0  0  0  0  0
  182.8600  178.7830  143.7440 C   0  0  0  0  0  0  0  0  0  0  0  0
  184.9990  178.0770  142.9500 N   0  0  0  0  0  0  0  0  0  0  0  0
  185.5310  178.0840  144.2060 C   0  0  0  0  0  0  0  0  0  0  0  0
  184.6960  178.4420  145.2940 C   0  0  0  0  0  0  0  0  0  0  0  0
  181.4590  179.1500  143.4870 C   0  0  0  0  0  0  0  0  0  0  0  0
  181.1390  179.9930  142.4280 O   0  0  0  0  0  0  0  0  0  0  0  0
  180.5360  178.7040  144.2200 O   0  0  0  0  0  1  0  0  0  0  0  0
  190.0150  177.3140  142.1350 C   0  0  0  0  0  2  0  0  0  0  0  0
  189.4430  176.2140  137.9670 C   0  0  0  0  0  3  0  0  0  0  0  0
  188.8680  177.0970  137.1390 C   0  0  0  0  0  3  0  0  0  0  0  0
  189.5160  178.2390  141.1270 N   0  0  0  0  0  2  0  0  0  0  0  0
  189.5200  177.9500  139.7270 C   0  0  0  0  0  0  0  0  0  0  0  0
  188.9590  178.7880  138.9020 N   0  0  0  0  0  0  0  0  0  0  0  0
  187.8630  179.2810  136.8390 N   0  0  0  0  0  1  0  0  0  0  0  0
  190.1750  176.6990  139.1910 C   0  0  0  0  0  2  0  0  0  0  0  0
  188.9670  178.5670  137.4520 C   0  0  2  0  0  3  0  0  0  0  0  0
  2  4  1  0  0  0  0
  3  2  2  0  0  0  0
  3  5  1  0  0  0  0
  4  1  2  0  0  0  0
  5  6  2  0  0  0  0
  6  1  1  0  0  0  0
  7 13  1  0  0  0  0
  9 11  2  0  0  0  0
  9 10  1  0  0  0  0
 10  7  2  0  0  0  0
 11 12  1  0  0  0  0
 12  5  1  0  0  0  0
 12 13  2  0  0  0  0
 13  8  1  0  0  0  0
 14 10  1  0  0  0  0
 14 16  1  0  0  0  0
 15 14  2  0  0  0  0
 17  2  1  0  0  0  0
 18 24  1  0  0  0  0
 19 25  1  0  0  0  0
 19 18  2  0  0  0  0
 20 17  1  0  0  0  0
 21 20  1  0  0  0  0
 22 21  2  0  0  0  0
 24 21  1  0  0  0  0
 25 23  1  6  0  0  0
 25 22  1  0  0  0  0
M  END
>  <MODEL>
7

>  <REMARK>
 VINA RESULT:      -8.5      4.091      6.195
  Name = 
  4 active torsions:
  status: ('A' for Active; 'I' for Inactive)
    1  A    between atoms: C_4  and  C_16
    2  A    between atoms: C_8  and  C_9
    3  A    between atoms: C_8  and  N_13
    4  A    between atoms: C_18  and  C_20
                            x       y       z     vdW  Elec       q    Type
                         _______ _______ _______ _____ _____    ______ ____

>  <TORSDO>
F 4

$$$$
=
 OpenBabel10232408513D

 25 27  0  0  1  0  0  0  0  0999 V2000
  191.1650  176.6100  144.3130 N   0  0  0  0  0  0  0  0  0  0  0  0
  190.8050  177.1320  142.0140 C   0  0  0  0  0  0  0  0  0  0  0  0
  189.4800  177.4550  142.3040 C   0  0  0  0  0  3  0  0  0  0  0  0
  191.6440  176.7100  143.0450 C   0  0  0  0  0  3  0  0  0  0  0  0
  188.9890  177.3420  143.6120 C   0  0  0  0  0  0  0  0  0  0  0  0
  189.8750  176.9160  144.6130 C   0  0  0  0  0  3  0  0  0  0  0  0
  185.7380  178.2820  145.3780 C   0  0  0  0  0  3  0  0  0  0  0  0
  187.8740  177.6630  146.4480 C   0  0  0  0  0  1  0  0  0  0  0  0
  185.4440  178.2870  142.9950 C   0  0  0  0  0  3  0  0  0  0  0  0
  184.9120  178.4820  144.2710 C   0  0  0  0  0  0  0  0  0  0  0  0
  186.7430  177.9210  142.8440 N   0  0  0  0  0  0  0  0  0  0  0  0
  187.5830  177.7300  143.9030 C   0  0  0  0  0  0  0  0  0  0  0  0
  187.0730  177.9060  145.2130 C   0  0  0  0  0  0  0  0  0  0  0  0
  183.5070  178.8790  144.4510 C   0  0  0  0  0  0  0  0  0  0  0  0
  182.6520  178.9440  143.3550 O   0  0  0  0  0  0  0  0  0  0  0  0
  183.0640  179.1620  145.5960 O   0  0  0  0  0  1  0  0  0  0  0  0
  191.3310  177.2810  140.6260 C   0  0  0  0  0  2  0  0  0  0  0  0
  188.9820  178.8910  137.3400 C   0  0  0  0  0  3  0  0  0  0  0  0
  188.4120  178.0400  136.4760 C   0  0  0  0  0  3  0  0  0  0  0  0
  190.5700  176.4470  139.7060 N   0  0  0  0  0  2  0  0  0  0  0  0
  189.6380  176.9740  138.7580 C   0  0  0  0  0  0  0  0  0  0  0  0
  189.0780  176.1690  137.9010 N   0  0  0  0  0  0  0  0  0  0  0  0
  188.0410  175.7450  135.7930 N   0  0  0  0  0  1  0  0  0  0  0  0
  189.2850  178.4430  138.7460 C   0  0  0  0  0  2  0  0  0  0  0  0
  188.0840  176.6430  136.9320 C   0  0  2  0  0  3  0  0  0  0  0  0
  1  6  1  0  0  0  0
  2  3  2  0  0  0  0
  2  4  1  0  0  0  0
  3  5  1  0  0  0  0
  4  1  2  0  0  0  0
  5 12  1  0  0  0  0
  5  6  2  0  0  0  0
  9 10  1  0  0  0  0
 10 14  1  0  0  0  0
 10  7  2  0  0  0  0
 11  9  2  0  0  0  0
 11 12  1  0  0  0  0
 12 13  2  0  0  0  0
 13  7  1  0  0  0  0
 13  8  1  0  0  0  0
 14 16  1  0  0  0  0
 15 14  2  0  0  0  0
 17  2  1  0  0  0  0
 18 24  1  0  0  0  0
 19 25  1  0  0  0  0
 19 18  2  0  0  0  0
 20 17  1  0  0  0  0
 21 20  1  0  0  0  0
 22 21  2  0  0  0  0
 24 21  1  0  0  0  0
 25 23  1  6  0  0  0
 25 22  1  0  0  0  0
M  END
>  <MODEL>
8

>  <REMARK>
 VINA RESULT:      -8.5      3.801      5.911
  Name = 
  4 active torsions:
  status: ('A' for Active; 'I' for Inactive)
    1  A    between atoms: C_4  and  C_16
    2  A    between atoms: C_8  and  C_9
    3  A    between atoms: C_8  and  N_13
    4  A    between atoms: C_18  and  C_20
                            x       y       z     vdW  Elec       q    Type
                         _______ _______ _______ _____ _____    ______ ____

>  <TORSDO>
F 4

$$$$
=
 OpenBabel10232408513D

 25 27  0  0  1  0  0  0  0  0999 V2000
  188.5380  178.7190  139.1840 N   0  0  0  0  0  0  0  0  0  0  0  0
  190.0660  176.8920  139.3070 C   0  0  0  0  0  0  0  0  0  0  0  0
  189.9090  176.8660  140.6920 C   0  0  0  0  0  3  0  0  0  0  0  0
  189.3610  177.8360  138.5590 C   0  0  0  0  0  3  0  0  0  0  0  0
  189.0670  177.7850  141.3320 C   0  0  0  0  0  0  0  0  0  0  0  0
  188.3770  178.7110  140.5340 C   0  0  0  0  0  3  0  0  0  0  0  0
  189.5940  178.0230  145.1040 C   0  0  0  0  0  3  0  0  0  0  0  0
  191.2150  178.6300  143.3460 C   0  0  0  0  0  1  0  0  0  0  0  0
  187.4330  177.1040  144.6040 C   0  0  0  0  0  3  0  0  0  0  0  0
  188.3730  177.5160  145.5510 C   0  0  0  0  0  0  0  0  0  0  0  0
  187.7080  177.2080  143.2780 N   0  0  0  0  0  0  0  0  0  0  0  0
  188.8860  177.7100  142.8050 C   0  0  0  0  0  0  0  0  0  0  0  0
  189.8680  178.1260  143.7390 C   0  0  0  0  0  0  0  0  0  0  0  0
  188.0900  177.4120  146.9910 C   0  0  0  0  0  0  0  0  0  0  0  0
  186.9640  178.0250  147.5290 O   0  0  0  0  0  0  0  0  0  0  0  0
  188.8610  176.7650  147.7480 O   0  0  0  0  0  1  0  0  0  0  0  0
  190.9420  175.8930  138.6270 C   0  0  0  0  0  2  0  0  0  0  0  0
  192.8060  175.6120  134.7090 C   0  0  0  0  0  3  0  0  0  0  0  0
  193.9400  176.2890  134.4830 C   0  0  0  0  0  3  0  0  0  0  0  0
  192.2350  176.4870  138.3140 N   0  0  0  0  0  2  0  0  0  0  0  0
  192.9440  176.2260  137.1000 C   0  0  0  0  0  0  0  0  0  0  0  0
  194.0440  176.8780  136.8530 N   0  0  0  0  0  0  0  0  0  0  0  0
  195.6410  177.7920  135.3310 N   0  0  0  0  0  1  0  0  0  0  0  0
  192.4450  175.1980  136.1120 C   0  0  0  0  0  2  0  0  0  0  0  0
  194.8360  176.6250  135.6450 C   0  0  2  0  0  3  0  0  0  0  0  0
  1  6  1  0  0  0  0
  2  3  2  0  0  0  0
  3  5  1  0  0  0  0
  4  1  2  0  0  0  0
  4  2  1  0  0  0  0
  5 12  1  0  0  0  0
  6  5  2  0  0  0  0
  7 10  1  0  0  0  0
  8 13  1  0  0  0  0
  9 10  2  0  0  0  0
 10 14  1  0  0  0  0
 11  9  1  0  0  0  0
 12 11  2  0  0  0  0
 12 13  1  0  0  0  0
 13  7  2  0  0  0  0
 14 15  2  0  0  0  0
 14 16  1  0  0  0  0
 17  2  1  0  0  0  0
 18 24  1  0  0  0  0
 19 18  2  0  0  0  0
 19 25  1  0  0  0  0
 20 17  1  0  0  0  0
 21 20  1  0  0  0  0
 22 21  2  0  0  0  0
 24 21  1  0  0  0  0
 25 23  1  6  0  0  0
 25 22  1  0  0  0  0
M  END
>  <MODEL>
9

>  <REMARK>
 VINA RESULT:      -8.4      4.967      6.786
  Name = 
  4 active torsions:
  status: ('A' for Active; 'I' for Inactive)
    1  A    between atoms: C_4  and  C_16
    2  A    between atoms: C_8  and  C_9
    3  A    between atoms: C_8  and  N_13
    4  A    between atoms: C_18  and  C_20
                            x       y       z     vdW  Elec       q    Type
                         _______ _______ _______ _____ _____    ______ ____

>  <TORSDO>
F 4

$$$$
