=
 OpenBabel10232410213D

 29 31  0  0  1  0  0  0  0  0999 V2000
  187.4090  178.6720  141.7310 N   0  0  0  0  0  0  0  0  0  0  0  0
  185.9920  178.9380  141.5210 C   0  0  0  0  0  2  0  0  0  0  0  0
  185.1920  178.5160  142.7450 C   0  0  2  0  0  3  0  0  0  0  0  0
  183.9680  177.9720  142.3510 O   0  0  0  0  0  1  0  0  0  0  0  0
  184.9760  179.6750  143.7200 C   0  0  0  0  0  2  0  0  0  0  0  0
  184.5740  179.2110  145.0840 C   0  0  0  0  0  0  0  0  0  0  0  0
  185.5430  178.8810  146.0210 O   0  0  0  0  0  1  0  0  0  0  0  0
  183.3550  179.1010  145.3770 O   0  0  0  0  0  0  0  0  0  0  0  0
  187.5200  177.4110  142.4550 C   0  0  0  0  0  2  0  0  0  0  0  0
  190.3470  177.1180  146.1300 C   0  0  0  0  0  0  0  0  0  0  0  0
  189.8500  176.6370  142.9160 C   0  0  2  0  0  3  0  0  0  0  0  0
  192.0070  178.0020  142.9570 C   0  0  0  0  0  2  0  0  0  0  0  0
  190.6360  175.8900  144.0010 C   0  0  0  0  0  2  0  0  0  0  0  0
  190.7970  177.5500  142.1260 C   0  0  0  0  0  2  0  0  0  0  0  0
  188.1820  177.0670  144.8430 C   0  0  0  0  0  2  0  0  0  0  0  0
  188.6710  177.4710  143.4490 C   0  0  2  0  0  3  0  0  0  0  0  0
  190.7850  176.9720  147.3250 N   0  0  0  0  0  2  0  0  0  0  0  0
  189.0060  177.7660  145.9220 C   0  0  0  0  0  2  0  0  0  0  0  0
  191.2830  176.8860  144.9820 C   0  0  1  0  0  3  0  0  0  0  0  0
  191.6310  178.1770  144.3600 N   0  0  0  0  0  2  0  0  0  0  0  0
  188.0700  178.5450  140.4300 C   0  0  0  0  0  2  0  0  0  0  0  0
  187.1450  178.5660  139.3750 O   0  0  0  0  0  0  0  0  0  0  0  0
  189.8400  176.8600  136.7000 C   0  0  0  0  0  2  0  0  0  0  0  0
  189.8180  176.4970  138.1630 C   0  0  0  0  0  0  0  0  0  0  0  0
  190.8330  175.6580  138.7010 N   0  0  0  0  0  1  0  0  0  0  0  0
  188.2480  178.6650  137.2680 C   0  0  0  0  0  3  0  0  0  0  0  0
  189.2410  178.2280  136.4780 C   0  0  0  0  0  3  0  0  0  0  0  0
  187.7250  177.7850  138.3750 C   0  0  1  0  0  3  0  0  0  0  0  0
  188.8310  176.9350  138.9510 C   0  0  0  0  0  3  0  0  0  0  0  0
  1  9  1  0  0  0  0
  2  1  1  0  0  0  0
  2  3  1  0  0  0  0
  3  4  1  6  0  0  0
  3  5  1  0  0  0  0
  5  6  1  0  0  0  0
  6  8  2  0  0  0  0
  6  7  1  0  0  0  0
 10 17  2  0  0  0  0
 11 14  1  1  0  0  0
 11 16  1  0  0  0  0
 11 13  1  0  0  0  0
 12 20  1  0  0  0  0
 14 12  1  0  0  0  0
 15 18  1  0  0  0  0
 16  9  1  6  0  0  0
 16 15  1  0  0  0  0
 18 10  1  0  0  0  0
 19 13  1  6  0  0  0
 19 10  1  0  0  0  0
 20 19  1  0  0  0  0
 21  1  1  0  0  0  0
 22 21  1  0  0  0  0
 23 24  1  0  0  0  0
 24 25  1  0  0  0  0
 24 29  2  0  0  0  0
 26 28  1  0  0  0  0
 27 23  1  0  0  0  0
 27 26  2  0  0  0  0
 28 29  1  0  0  0  0
 28 22  1  1  0  0  0
M  END
>  <MODEL>
1

>  <REMARK>
 VINA RESULT:      -7.6      0.000      0.000
  Name = 
  9 active torsions:
  status: ('A' for Active; 'I' for Inactive)
    1  A    between atoms: C_4  and  C_7
    2  A    between atoms: C_4  and  C_15
    3  A    between atoms: C_6  and  C_15
    4  A    between atoms: C_7  and  N_18
    5  A    between atoms: C_10  and  C_12
    6  A    between atoms: C_12  and  N_18
    7  A    between atoms: N_18  and  C_29
    8  A    between atoms: C_26  and  O_28
    9  A    between atoms: O_28  and  C_29
                            x       y       z     vdW  Elec       q    Type
                         _______ _______ _______ _____ _____    ______ ____

>  <TORSDO>
F 9

$$$$
=
 OpenBabel10232410213D

 29 31  0  0  1  0  0  0  0  0999 V2000
  186.4530  178.9160  142.1690 N   0  0  0  0  0  0  0  0  0  0  0  0
  185.3670  179.5790  142.8800 C   0  0  0  0  0  2  0  0  0  0  0  0
  184.6090  178.5740  143.7340 C   0  0  2  0  0  3  0  0  0  0  0  0
  183.4540  178.1580  143.0700 O   0  0  0  0  0  1  0  0  0  0  0  0
  184.2630  179.1360  145.1140 C   0  0  0  0  0  2  0  0  0  0  0  0
  185.2120  178.6800  146.1760 C   0  0  0  0  0  0  0  0  0  0  0  0
  185.6630  179.5740  147.1370 O   0  0  0  0  0  1  0  0  0  0  0  0
  185.6200  177.4900  146.1860 O   0  0  0  0  0  0  0  0  0  0  0  0
  186.7460  177.6720  142.8700 C   0  0  0  0  0  2  0  0  0  0  0  0
  190.8860  177.1770  144.9180 C   0  0  0  0  0  0  0  0  0  0  0  0
  188.9100  176.5260  142.3730 C   0  0  2  0  0  3  0  0  0  0  0  0
  190.9940  177.4710  141.2430 C   0  0  0  0  0  2  0  0  0  0  0  0
  190.0060  175.7420  143.1040 C   0  0  0  0  0  2  0  0  0  0  0  0
  189.4920  177.1800  141.1130 C   0  0  0  0  0  2  0  0  0  0  0  0
  188.3850  177.4160  144.7430 C   0  0  0  0  0  2  0  0  0  0  0  0
  188.2220  177.6040  143.2320 C   0  0  2  0  0  3  0  0  0  0  0  0
  191.8030  177.0540  145.8040 N   0  0  0  0  0  2  0  0  0  0  0  0
  189.6930  178.0400  145.2220 C   0  0  0  0  0  2  0  0  0  0  0  0
  191.1510  176.6810  143.5280 C   0  0  1  0  0  3  0  0  0  0  0  0
  191.3320  177.8290  142.6210 N   0  0  0  0  0  2  0  0  0  0  0  0
  186.0160  178.6130  140.8040 C   0  0  0  0  0  2  0  0  0  0  0  0
  185.1150  179.5760  140.3230 O   0  0  0  0  0  0  0  0  0  0  0  0
  183.7670  176.7770  137.5510 C   0  0  0  0  0  2  0  0  0  0  0  0
  183.2310  176.8410  138.9580 C   0  0  0  0  0  0  0  0  0  0  0  0
  182.3420  175.8320  139.4240 N   0  0  0  0  0  1  0  0  0  0  0  0
  185.4770  178.4090  138.2790 C   0  0  0  0  0  3  0  0  0  0  0  0
  185.1460  177.3870  137.4750 C   0  0  0  0  0  3  0  0  0  0  0  0
  184.4650  178.9550  139.2560 C   0  0  1  0  0  3  0  0  0  0  0  0
  183.5630  177.8570  139.7600 C   0  0  0  0  0  3  0  0  0  0  0  0
  1  9  1  0  0  0  0
  1  2  1  0  0  0  0
  2  3  1  0  0  0  0
  3  4  1  6  0  0  0
  3  5  1  0  0  0  0
  5  6  1  0  0  0  0
  6  8  2  0  0  0  0
  6  7  1  0  0  0  0
 10 18  1  0  0  0  0
 10 17  2  0  0  0  0
 11 14  1  6  0  0  0
 11 13  1  0  0  0  0
 11 16  1  0  0  0  0
 12 20  1  0  0  0  0
 14 12  1  0  0  0  0
 15 18  1  0  0  0  0
 16  9  1  1  0  0  0
 16 15  1  0  0  0  0
 19 13  1  6  0  0  0
 19 10  1  0  0  0  0
 20 19  1  0  0  0  0
 21  1  1  0  0  0  0
 22 21  1  0  0  0  0
 23 24  1  0  0  0  0
 24 25  1  0  0  0  0
 24 29  2  0  0  0  0
 26 28  1  0  0  0  0
 27 23  1  0  0  0  0
 27 26  2  0  0  0  0
 28 29  1  0  0  0  0
 28 22  1  1  0  0  0
M  END
>  <MODEL>
2

>  <REMARK>
 VINA RESULT:      -7.5      2.183      3.091
  Name = 
  9 active torsions:
  status: ('A' for Active; 'I' for Inactive)
    1  A    between atoms: C_4  and  C_7
    2  A    between atoms: C_4  and  C_15
    3  A    between atoms: C_6  and  C_15
    4  A    between atoms: C_7  and  N_18
    5  A    between atoms: C_10  and  C_12
    6  A    between atoms: C_12  and  N_18
    7  A    between atoms: N_18  and  C_29
    8  A    between atoms: C_26  and  O_28
    9  A    between atoms: O_28  and  C_29
                            x       y       z     vdW  Elec       q    Type
                         _______ _______ _______ _____ _____    ______ ____

>  <TORSDO>
F 9

$$$$
=
 OpenBabel10232410213D

 29 31  0  0  1  0  0  0  0  0999 V2000
  187.1960  177.9760  141.5930 N   0  0  0  0  0  0  0  0  0  0  0  0
  186.2370  179.0340  141.8800 C   0  0  0  0  0  2  0  0  0  0  0  0
  185.1180  178.5020  142.7640 C   0  0  2  0  0  3  0  0  0  0  0  0
  184.1120  177.9400  141.9760 O   0  0  0  0  0  1  0  0  0  0  0  0
  184.5430  179.5850  143.6790 C   0  0  0  0  0  2  0  0  0  0  0  0
  183.6290  179.0290  144.7240 C   0  0  0  0  0  0  0  0  0  0  0  0
  182.3180  178.7070  144.4030 O   0  0  0  0  0  0  0  0  0  0  0  0
  184.0430  178.8710  145.9020 O   0  0  0  0  0  1  0  0  0  0  0  0
  188.2310  178.5360  140.7320 C   0  0  0  0  0  2  0  0  0  0  0  0
  187.7310  176.7980  136.4530 C   0  0  0  0  0  0  0  0  0  0  0  0
  189.7140  177.9450  138.8110 C   0  0  2  0  0  3  0  0  0  0  0  0
  190.7630  175.6890  138.2390 C   0  0  0  0  0  2  0  0  0  0  0  0
  189.7190  178.0180  137.2790 C   0  0  0  0  0  2  0  0  0  0  0  0
  190.6350  176.8110  139.2800 C   0  0  0  0  0  2  0  0  0  0  0  0
  187.1530  178.1310  138.5110 C   0  0  0  0  0  2  0  0  0  0  0  0
  188.3170  177.7520  139.4310 C   0  0  2  0  0  3  0  0  0  0  0  0
  187.2570  176.5190  135.2960 N   0  0  0  0  0  2  0  0  0  0  0  0
  186.7820  176.9570  137.6080 C   0  0  0  0  0  2  0  0  0  0  0  0
  189.2110  176.6960  136.6730 C   0  0  1  0  0  3  0  0  0  0  0  0
  189.5050  175.5180  137.5100 N   0  0  0  0  0  2  0  0  0  0  0  0
  187.8020  177.5260  142.8500 C   0  0  0  0  0  2  0  0  0  0  0  0
  189.1380  177.9420  142.9590 O   0  0  0  0  0  0  0  0  0  0  0  0
  189.6220  177.3990  147.0580 C   0  0  0  0  0  2  0  0  0  0  0  0
  190.7230  177.1090  146.0710 C   0  0  0  0  0  0  0  0  0  0  0  0
  191.9260  176.4910  146.5130 N   0  0  0  0  0  1  0  0  0  0  0  0
  188.1350  177.6780  145.1020 C   0  0  0  0  0  3  0  0  0  0  0  0
  188.2700  177.3250  146.3890 C   0  0  0  0  0  3  0  0  0  0  0  0
  189.3350  178.1570  144.3240 C   0  0  1  0  0  3  0  0  0  0  0  0
  190.5870  177.4580  144.7870 C   0  0  0  0  0  3  0  0  0  0  0  0
  1  2  1  0  0  0  0
  1 21  1  0  0  0  0
  2  3  1  0  0  0  0
  3  4  1  6  0  0  0
  3  5  1  0  0  0  0
  5  6  1  0  0  0  0
  6  8  1  0  0  0  0
  7  6  2  0  0  0  0
  9  1  1  0  0  0  0
 10 19  1  0  0  0  0
 10 18  1  0  0  0  0
 11 13  1  6  0  0  0
 11 14  1  0  0  0  0
 11 16  1  0  0  0  0
 12 14  1  0  0  0  0
 15 16  1  0  0  0  0
 16  9  1  1  0  0  0
 17 10  2  0  0  0  0
 18 15  1  0  0  0  0
 19 13  1  1  0  0  0
 19 20  1  0  0  0  0
 20 12  1  0  0  0  0
 21 22  1  0  0  0  0
 24 25  1  0  0  0  0
 24 23  1  0  0  0  0
 26 27  2  0  0  0  0
 27 23  1  0  0  0  0
 28 22  1  6  0  0  0
 28 29  1  0  0  0  0
 28 26  1  0  0  0  0
 29 24  2  0  0  0  0
M  END
>  <MODEL>
3

>  <REMARK>
 VINA RESULT:      -7.3      1.593      6.290
  Name = 
  9 active torsions:
  status: ('A' for Active; 'I' for Inactive)
    1  A    between atoms: C_4  and  C_7
    2  A    between atoms: C_4  and  C_15
    3  A    between atoms: C_6  and  C_15
    4  A    between atoms: C_7  and  N_18
    5  A    between atoms: C_10  and  C_12
    6  A    between atoms: C_12  and  N_18
    7  A    between atoms: N_18  and  C_29
    8  A    between atoms: C_26  and  O_28
    9  A    between atoms: O_28  and  C_29
                            x       y       z     vdW  Elec       q    Type
                         _______ _______ _______ _____ _____    ______ ____

>  <TORSDO>
F 9

$$$$
=
 OpenBabel10232410213D

 29 31  0  0  1  0  0  0  0  0999 V2000
  188.2090  177.7980  140.4210 N   0  0  0  0  0  0  0  0  0  0  0  0
  189.1920  178.5740  139.6780 C   0  0  0  0  0  2  0  0  0  0  0  0
  189.0630  178.2940  138.1870 C   0  0  2  0  0  3  0  0  0  0  0  0
  188.9700  179.4950  137.4820 O   0  0  0  0  0  1  0  0  0  0  0  0
  187.8690  177.3920  137.8720 C   0  0  0  0  0  2  0  0  0  0  0  0
  186.7660  178.1210  137.1720 C   0  0  0  0  0  0  0  0  0  0  0  0
  186.6820  178.0920  135.7870 O   0  0  0  0  0  0  0  0  0  0  0  0
  185.9250  178.7780  137.8380 O   0  0  0  0  0  1  0  0  0  0  0  0
  188.9230  176.7440  141.1330 C   0  0  0  0  0  2  0  0  0  0  0  0
  188.8920  177.1510  145.7600 C   0  0  0  0  0  0  0  0  0  0  0  0
  190.6090  176.9290  142.9660 C   0  0  2  0  0  3  0  0  0  0  0  0
  191.5650  179.0330  144.0500 C   0  0  0  0  0  2  0  0  0  0  0  0
  190.8300  176.4310  144.4000 C   0  0  0  0  0  2  0  0  0  0  0  0
  191.3760  178.2400  142.7490 C   0  0  0  0  0  2  0  0  0  0  0  0
  188.1330  176.3940  143.4810 C   0  0  0  0  0  2  0  0  0  0  0  0
  189.1310  177.1370  142.5880 C   0  0  2  0  0  3  0  0  0  0  0  0
  188.5630  177.0430  146.9940 N   0  0  0  0  0  2  0  0  0  0  0  0
  187.8070  177.2220  144.7220 C   0  0  0  0  0  2  0  0  0  0  0  0
  190.3170  177.4680  145.4170 C   0  0  1  0  0  3  0  0  0  0  0  0
  190.4110  178.8580  144.9320 N   0  0  0  0  0  2  0  0  0  0  0  0
  187.5420  178.6720  141.3890 C   0  0  0  0  0  2  0  0  0  0  0  0
  186.2860  179.0940  140.9270 O   0  0  0  0  0  0  0  0  0  0  0  0
  183.1180  178.8030  143.6120 C   0  0  0  0  0  2  0  0  0  0  0  0
  182.9260  178.6800  142.1220 C   0  0  0  0  0  0  0  0  0  0  0  0
  181.6120  178.6080  141.5810 N   0  0  0  0  0  1  0  0  0  0  0  0
  185.4370  179.5040  143.1120 C   0  0  0  0  0  3  0  0  0  0  0  0
  184.3740  179.5810  143.9270 C   0  0  0  0  0  3  0  0  0  0  0  0
  185.3800  178.6330  141.8820 C   0  0  1  0  0  3  0  0  0  0  0  0
  183.9850  178.6070  141.3090 C   0  0  0  0  0  3  0  0  0  0  0  0
  1  9  1  0  0  0  0
  1 21  1  0  0  0  0
  2  1  1  0  0  0  0
  3  4  1  6  0  0  0
  3  2  1  0  0  0  0
  5  3  1  0  0  0  0
  6  8  1  0  0  0  0
  6  5  1  0  0  0  0
  7  6  2  0  0  0  0
 10 17  2  0  0  0  0
 11 14  1  1  0  0  0
 11 13  1  0  0  0  0
 12 20  1  0  0  0  0
 14 12  1  0  0  0  0
 15 18  1  0  0  0  0
 16  9  1  6  0  0  0
 16 11  1  0  0  0  0
 16 15  1  0  0  0  0
 18 10  1  0  0  0  0
 19 13  1  6  0  0  0
 19 10  1  0  0  0  0
 20 19  1  0  0  0  0
 22 21  1  0  0  0  0
 23 27  1  0  0  0  0
 24 23  1  0  0  0  0
 25 24  1  0  0  0  0
 26 27  2  0  0  0  0
 28 22  1  6  0  0  0
 28 26  1  0  0  0  0
 29 28  1  0  0  0  0
 29 24  2  0  0  0  0
M  END
>  <MODEL>
4

>  <REMARK>
 VINA RESULT:      -7.3      2.040      5.453
  Name = 
  9 active torsions:
  status: ('A' for Active; 'I' for Inactive)
    1  A    between atoms: C_4  and  C_7
    2  A    between atoms: C_4  and  C_15
    3  A    between atoms: C_6  and  C_15
    4  A    between atoms: C_7  and  N_18
    5  A    between atoms: C_10  and  C_12
    6  A    between atoms: C_12  and  N_18
    7  A    between atoms: N_18  and  C_29
    8  A    between atoms: C_26  and  O_28
    9  A    between atoms: O_28  and  C_29
                            x       y       z     vdW  Elec       q    Type
                         _______ _______ _______ _____ _____    ______ ____

>  <TORSDO>
F 9

$$$$
=
 OpenBabel10232410213D

 29 31  0  0  1  0  0  0  0  0999 V2000
  186.4360  178.4000  144.2510 N   0  0  0  0  0  0  0  0  0  0  0  0
  186.0810  179.2210  145.4000 C   0  0  0  0  0  2  0  0  0  0  0  0
  186.0030  178.3610  146.6540 C   0  0  2  0  0  3  0  0  0  0  0  0
  184.6710  178.1860  147.0320 O   0  0  0  0  0  1  0  0  0  0  0  0
  186.8160  178.9520  147.8080 C   0  0  0  0  0  2  0  0  0  0  0  0
  187.8820  178.0230  148.2950 C   0  0  0  0  0  0  0  0  0  0  0  0
  189.0780  178.5300  148.7830 O   0  0  0  0  0  1  0  0  0  0  0  0
  187.7030  176.7780  148.2440 O   0  0  0  0  0  0  0  0  0  0  0  0
  187.1460  177.2270  144.7460 C   0  0  0  0  0  2  0  0  0  0  0  0
  190.8490  177.3750  141.9450 C   0  0  0  0  0  0  0  0  0  0  0  0
  189.5270  177.9680  144.8950 C   0  0  2  0  0  3  0  0  0  0  0  0
  191.5950  176.5880  145.4710 C   0  0  0  0  0  2  0  0  0  0  0  0
  190.5830  178.6720  144.0350 C   0  0  0  0  0  2  0  0  0  0  0  0
  190.2160  177.0760  145.9360 C   0  0  0  0  0  2  0  0  0  0  0  0
  188.4220  177.4840  142.6090 C   0  0  0  0  0  2  0  0  0  0  0  0
  188.5170  177.1240  144.0940 C   0  0  2  0  0  3  0  0  0  0  0  0
  191.5910  177.4760  140.9050 N   0  0  0  0  0  2  0  0  0  0  0  0
  189.4920  176.7430  141.8100 C   0  0  0  0  0  2  0  0  0  0  0  0
  191.4520  177.6390  143.2930 C   0  0  1  0  0  3  0  0  0  0  0  0
  191.6020  176.3680  144.0240 N   0  0  0  0  0  2  0  0  0  0  0  0
  185.2100  177.9740  143.5700 C   0  0  0  0  0  2  0  0  0  0  0  0
  185.2890  178.1810  142.1840 O   0  0  0  0  0  0  0  0  0  0  0  0
  181.2280  178.7630  141.4740 C   0  0  0  0  0  2  0  0  0  0  0  0
  181.8160  178.7910  142.8620 C   0  0  0  0  0  0  0  0  0  0  0  0
  180.9570  178.8720  143.9930 N   0  0  0  0  0  1  0  0  0  0  0  0
  183.4350  177.9500  140.7090 C   0  0  0  0  0  3  0  0  0  0  0  0
  182.1040  177.9660  140.5370 C   0  0  0  0  0  3  0  0  0  0  0  0
  184.0570  178.7360  141.8350 C   0  0  1  0  0  3  0  0  0  0  0  0
  183.1410  178.7720  143.0330 C   0  0  0  0  0  3  0  0  0  0  0  0
  1  9  1  0  0  0  0
  1  2  1  0  0  0  0
  2  3  1  0  0  0  0
  3  4  1  1  0  0  0
  3  5  1  0  0  0  0
  5  6  1  0  0  0  0
  6  7  1  0  0  0  0
  8  6  2  0  0  0  0
 10 19  1  0  0  0  0
 11 13  1  6  0  0  0
 11 14  1  0  0  0  0
 12 14  1  0  0  0  0
 15 16  1  0  0  0  0
 16  9  1  1  0  0  0
 16 11  1  0  0  0  0
 17 10  2  0  0  0  0
 18 10  1  0  0  0  0
 18 15  1  0  0  0  0
 19 20  1  0  0  0  0
 19 13  1  1  0  0  0
 20 12  1  0  0  0  0
 21  1  1  0  0  0  0
 22 21  1  0  0  0  0
 23 24  1  0  0  0  0
 24 29  2  0  0  0  0
 24 25  1  0  0  0  0
 26 28  1  0  0  0  0
 27 26  2  0  0  0  0
 27 23  1  0  0  0  0
 28 22  1  1  0  0  0
 28 29  1  0  0  0  0
M  END
>  <MODEL>
5

>  <REMARK>
 VINA RESULT:      -7.3      2.619      5.349
  Name = 
  9 active torsions:
  status: ('A' for Active; 'I' for Inactive)
    1  A    between atoms: C_4  and  C_7
    2  A    between atoms: C_4  and  C_15
    3  A    between atoms: C_6  and  C_15
    4  A    between atoms: C_7  and  N_18
    5  A    between atoms: C_10  and  C_12
    6  A    between atoms: C_12  and  N_18
    7  A    between atoms: N_18  and  C_29
    8  A    between atoms: C_26  and  O_28
    9  A    between atoms: O_28  and  C_29
                            x       y       z     vdW  Elec       q    Type
                         _______ _______ _______ _____ _____    ______ ____

>  <TORSDO>
F 9

$$$$
=
 OpenBabel10232410213D

 29 31  0  0  1  0  0  0  0  0999 V2000
  188.5100  177.5460  142.6560 N   0  0  0  0  0  0  0  0  0  0  0  0
  188.5950  178.1140  141.3180 C   0  0  0  0  0  2  0  0  0  0  0  0
  189.2430  177.1200  140.3650 C   0  0  2  0  0  3  0  0  0  0  0  0
  190.2210  176.3830  141.0360 O   0  0  0  0  0  1  0  0  0  0  0  0
  189.8370  177.8050  139.1330 C   0  0  0  0  0  2  0  0  0  0  0  0
  188.7920  178.4120  138.2530 C   0  0  0  0  0  0  0  0  0  0  0  0
  187.6190  177.7190  137.9860 O   0  0  0  0  0  1  0  0  0  0  0  0
  188.9830  179.5430  137.7350 O   0  0  0  0  0  0  0  0  0  0  0  0
  189.2640  178.4120  143.5540 C   0  0  0  0  0  2  0  0  0  0  0  0
  191.7440  176.1770  146.7850 C   0  0  0  0  0  0  0  0  0  0  0  0
  189.4150  178.3770  146.0470 C   0  0  2  0  0  3  0  0  0  0  0  0
  188.2300  176.8310  147.6980 C   0  0  0  0  0  2  0  0  0  0  0  0
  190.4780  178.2720  147.1480 C   0  0  0  0  0  2  0  0  0  0  0  0
  188.0680  177.8690  146.5780 C   0  0  0  0  0  2  0  0  0  0  0  0
  191.2550  177.3020  144.5850 C   0  0  0  0  0  2  0  0  0  0  0  0
  189.7670  177.6210  144.7530 C   0  0  2  0  0  3  0  0  0  0  0  0
  192.7000  175.5810  147.3940 N   0  0  0  0  0  2  0  0  0  0  0  0
  191.6070  175.9980  145.2980 C   0  0  0  0  0  2  0  0  0  0  0  0
  190.6510  176.8080  147.5950 C   0  0  1  0  0  3  0  0  0  0  0  0
  189.4190  176.0090  147.4680 N   0  0  0  0  0  2  0  0  0  0  0  0
  187.1060  177.5160  143.0740 C   0  0  0  0  0  2  0  0  0  0  0  0
  186.2670  178.1010  142.1150 O   0  0  0  0  0  0  0  0  0  0  0  0
  183.1080  179.2410  144.5750 C   0  0  0  0  0  2  0  0  0  0  0  0
  184.4010  178.6950  145.1240 C   0  0  0  0  0  0  0  0  0  0  0  0
  184.5170  178.4140  146.5140 N   0  0  0  0  0  1  0  0  0  0  0  0
  183.9490  178.5970  142.3400 C   0  0  0  0  0  3  0  0  0  0  0  0
  182.8970  178.7860  143.1510 C   0  0  0  0  0  3  0  0  0  0  0  0
  185.3460  178.8470  142.8520 C   0  0  1  0  0  3  0  0  0  0  0  0
  185.4490  178.5040  144.3170 C   0  0  0  0  0  3  0  0  0  0  0  0
  1 21  1  0  0  0  0
  1  9  1  0  0  0  0
  2  1  1  0  0  0  0
  3  4  1  1  0  0  0
  3  2  1  0  0  0  0
  5  3  1  0  0  0  0
  6  5  1  0  0  0  0
  7  6  1  0  0  0  0
  8  6  2  0  0  0  0
 10 17  2  0  0  0  0
 10 19  1  0  0  0  0
 11 14  1  1  0  0  0
 11 13  1  0  0  0  0
 14 12  1  0  0  0  0
 15 16  1  0  0  0  0
 15 18  1  0  0  0  0
 16  9  1  6  0  0  0
 16 11  1  0  0  0  0
 18 10  1  0  0  0  0
 19 13  1  6  0  0  0
 20 19  1  0  0  0  0
 20 12  1  0  0  0  0
 22 21  1  0  0  0  0
 23 24  1  0  0  0  0
 24 25  1  0  0  0  0
 26 28  1  0  0  0  0
 26 27  2  0  0  0  0
 27 23  1  0  0  0  0
 28 22  1  6  0  0  0
 28 29  1  0  0  0  0
 29 24  2  0  0  0  0
M  END
>  <MODEL>
6

>  <REMARK>
 VINA RESULT:      -7.2      2.149      5.959
  Name = 
  9 active torsions:
  status: ('A' for Active; 'I' for Inactive)
    1  A    between atoms: C_4  and  C_7
    2  A    between atoms: C_4  and  C_15
    3  A    between atoms: C_6  and  C_15
    4  A    between atoms: C_7  and  N_18
    5  A    between atoms: C_10  and  C_12
    6  A    between atoms: C_12  and  N_18
    7  A    between atoms: N_18  and  C_29
    8  A    between atoms: C_26  and  O_28
    9  A    between atoms: O_28  and  C_29
                            x       y       z     vdW  Elec       q    Type
                         _______ _______ _______ _____ _____    ______ ____

>  <TORSDO>
F 9

$$$$
=
 OpenBabel10232410213D

 29 31  0  0  1  0  0  0  0  0999 V2000
  189.8450  177.2300  142.6700 N   0  0  0  0  0  0  0  0  0  0  0  0
  190.6720  176.4860  143.6100 C   0  0  0  0  0  2  0  0  0  0  0  0
  190.9840  177.3440  144.8280 C   0  0  2  0  0  3  0  0  0  0  0  0
  191.7660  178.4370  144.4540 O   0  0  0  0  0  1  0  0  0  0  0  0
  191.6720  176.5430  145.9350 C   0  0  0  0  0  2  0  0  0  0  0  0
  191.1230  176.8490  147.2920 C   0  0  0  0  0  0  0  0  0  0  0  0
  191.9850  177.0730  148.3570 O   0  0  0  0  0  1  0  0  0  0  0  0
  189.8790  176.8830  147.4740 O   0  0  0  0  0  0  0  0  0  0  0  0
  190.5600  177.2910  141.4010 C   0  0  0  0  0  2  0  0  0  0  0  0
  187.2990  178.2500  138.2340 C   0  0  0  0  0  0  0  0  0  0  0  0
  190.3570  177.2500  138.9120 C   0  0  2  0  0  3  0  0  0  0  0  0
  189.4710  175.3830  137.4120 C   0  0  0  0  0  2  0  0  0  0  0  0
  189.7250  178.0720  137.7820 C   0  0  0  0  0  2  0  0  0  0  0  0
  190.5110  175.7900  138.4660 C   0  0  0  0  0  2  0  0  0  0  0  0
  188.6110  178.4760  140.3720 C   0  0  0  0  0  2  0  0  0  0  0  0
  189.5770  177.2950  140.2390 C   0  0  2  0  0  3  0  0  0  0  0  0
  186.3020  178.7820  137.6300 N   0  0  0  0  0  2  0  0  0  0  0  0
  187.2660  178.1400  139.7340 C   0  0  0  0  0  2  0  0  0  0  0  0
  188.3320  177.5220  137.4260 C   0  0  1  0  0  3  0  0  0  0  0  0
  188.2010  176.0710  137.6510 N   0  0  0  0  0  2  0  0  0  0  0  0
  188.5780  176.5190  142.4800 C   0  0  0  0  0  2  0  0  0  0  0  0
  187.8920  176.3490  143.6920 O   0  0  0  0  0  0  0  0  0  0  0  0
  185.0680  179.2480  144.6650 C   0  0  0  0  0  2  0  0  0  0  0  0
  185.8450  178.4960  145.7140 C   0  0  0  0  0  0  0  0  0  0  0  0
  185.5190  178.6590  147.0890 N   0  0  0  0  0  1  0  0  0  0  0  0
  186.0240  177.6650  143.0240 C   0  0  0  0  0  3  0  0  0  0  0  0
  185.0040  178.4600  143.3780 C   0  0  0  0  0  3  0  0  0  0  0  0
  187.2420  177.5640  143.9080 C   0  0  1  0  0  3  0  0  0  0  0  0
  186.8600  177.7010  145.3610 C   0  0  0  0  0  3  0  0  0  0  0  0
  1  2  1  0  0  0  0
  2  3  1  0  0  0  0
  3  4  1  6  0  0  0
  3  5  1  0  0  0  0
  5  6  1  0  0  0  0
  6  8  2  0  0  0  0
  6  7  1  0  0  0  0
  9  1  1  0  0  0  0
 10 18  1  0  0  0  0
 11 13  1  6  0  0  0
 11 16  1  0  0  0  0
 12 20  1  0  0  0  0
 12 14  1  0  0  0  0
 14 11  1  0  0  0  0
 16 15  1  0  0  0  0
 16  9  1  1  0  0  0
 17 10  2  0  0  0  0
 18 15  1  0  0  0  0
 19 20  1  0  0  0  0
 19 13  1  1  0  0  0
 19 10  1  0  0  0  0
 21  1  1  0  0  0  0
 21 22  1  0  0  0  0
 23 24  1  0  0  0  0
 24 25  1  0  0  0  0
 26 27  2  0  0  0  0
 26 28  1  0  0  0  0
 27 23  1  0  0  0  0
 28 22  1  1  0  0  0
 28 29  1  0  0  0  0
 29 24  2  0  0  0  0
M  END
>  <MODEL>
7

>  <REMARK>
 VINA RESULT:      -7.2      2.789      6.887
  Name = 
  9 active torsions:
  status: ('A' for Active; 'I' for Inactive)
    1  A    between atoms: C_4  and  C_7
    2  A    between atoms: C_4  and  C_15
    3  A    between atoms: C_6  and  C_15
    4  A    between atoms: C_7  and  N_18
    5  A    between atoms: C_10  and  C_12
    6  A    between atoms: C_12  and  N_18
    7  A    between atoms: N_18  and  C_29
    8  A    between atoms: C_26  and  O_28
    9  A    between atoms: O_28  and  C_29
                            x       y       z     vdW  Elec       q    Type
                         _______ _______ _______ _____ _____    ______ ____

>  <TORSDO>
F 9

$$$$
=
 OpenBabel10232410213D

 29 31  0  0  1  0  0  0  0  0999 V2000
  187.4920  178.0050  141.3220 N   0  0  0  0  0  0  0  0  0  0  0  0
  186.4170  178.9620  141.5460 C   0  0  0  0  0  2  0  0  0  0  0  0
  185.3650  178.3630  142.4680 C   0  0  2  0  0  3  0  0  0  0  0  0
  184.3050  177.8520  141.7170 O   0  0  0  0  0  1  0  0  0  0  0  0
  184.8550  179.3760  143.4950 C   0  0  0  0  0  2  0  0  0  0  0  0
  184.7640  178.8020  144.8730 C   0  0  0  0  0  0  0  0  0  0  0  0
  183.7190  179.1660  145.7110 O   0  0  0  0  0  1  0  0  0  0  0  0
  185.6480  178.0050  145.2820 O   0  0  0  0  0  0  0  0  0  0  0  0
  188.6250  178.7330  140.7640 C   0  0  0  0  0  2  0  0  0  0  0  0
  190.8610  175.6720  138.0800 C   0  0  0  0  0  0  0  0  0  0  0  0
  188.1520  177.4330  138.6840 C   0  0  2  0  0  3  0  0  0  0  0  0
  188.6920  178.0400  136.2640 C   0  0  0  0  0  2  0  0  0  0  0  0
  188.4140  176.0410  138.0970 C   0  0  0  0  0  2  0  0  0  0  0  0
  187.9560  178.4460  137.5490 C   0  0  0  0  0  2  0  0  0  0  0  0
  190.1630  176.8430  140.1970 C   0  0  0  0  0  2  0  0  0  0  0  0
  189.2570  177.9390  139.6300 C   0  0  2  0  0  3  0  0  0  0  0  0
  191.6300  174.7260  137.6860 N   0  0  0  0  0  2  0  0  0  0  0  0
  191.3020  176.5370  139.2270 C   0  0  0  0  0  2  0  0  0  0  0  0
  189.6860  176.0510  137.2280 C   0  0  1  0  0  3  0  0  0  0  0  0
  189.9440  177.3520  136.5840 N   0  0  0  0  0  2  0  0  0  0  0  0
  187.8800  177.4140  142.6050 C   0  0  0  0  0  2  0  0  0  0  0  0
  188.9760  178.0810  143.1730 O   0  0  0  0  0  0  0  0  0  0  0  0
  190.8320  176.5430  146.5670 C   0  0  0  0  0  2  0  0  0  0  0  0
  189.5550  177.3410  146.6380 C   0  0  0  0  0  0  0  0  0  0  0  0
  189.0250  177.7180  147.9040 N   0  0  0  0  0  1  0  0  0  0  0  0
  190.9400  177.1960  144.1850 C   0  0  0  0  0  3  0  0  0  0  0  0
  191.5980  176.8700  145.3080 C   0  0  0  0  0  3  0  0  0  0  0  0
  189.4330  177.2280  144.1780 C   0  0  1  0  0  3  0  0  0  0  0  0
  188.9010  177.6680  145.5190 C   0  0  0  0  0  3  0  0  0  0  0  0
  1  2  1  0  0  0  0
  1 21  1  0  0  0  0
  2  3  1  0  0  0  0
  3  4  1  6  0  0  0
  3  5  1  0  0  0  0
  5  6  1  0  0  0  0
  6  8  2  0  0  0  0
  6  7  1  0  0  0  0
  9  1  1  0  0  0  0
 10 18  1  0  0  0  0
 11 14  1  6  0  0  0
 11 16  1  0  0  0  0
 12 20  1  0  0  0  0
 12 14  1  0  0  0  0
 13 11  1  0  0  0  0
 16 15  1  0  0  0  0
 16  9  1  1  0  0  0
 17 10  2  0  0  0  0
 18 15  1  0  0  0  0
 19 10  1  0  0  0  0
 19 13  1  1  0  0  0
 20 19  1  0  0  0  0
 21 22  1  0  0  0  0
 23 24  1  0  0  0  0
 24 25  1  0  0  0  0
 26 27  2  0  0  0  0
 27 23  1  0  0  0  0
 28 22  1  6  0  0  0
 28 26  1  0  0  0  0
 28 29  1  0  0  0  0
 29 24  2  0  0  0  0
M  END
>  <MODEL>
8

>  <REMARK>
 VINA RESULT:      -7.1      1.477      6.047
  Name = 
  9 active torsions:
  status: ('A' for Active; 'I' for Inactive)
    1  A    between atoms: C_4  and  C_7
    2  A    between atoms: C_4  and  C_15
    3  A    between atoms: C_6  and  C_15
    4  A    between atoms: C_7  and  N_18
    5  A    between atoms: C_10  and  C_12
    6  A    between atoms: C_12  and  N_18
    7  A    between atoms: N_18  and  C_29
    8  A    between atoms: C_26  and  O_28
    9  A    between atoms: O_28  and  C_29
                            x       y       z     vdW  Elec       q    Type
                         _______ _______ _______ _____ _____    ______ ____

>  <TORSDO>
F 9

$$$$
=
 OpenBabel10232410213D

 29 31  0  0  1  0  0  0  0  0999 V2000
  188.9800  177.8960  142.8020 N   0  0  0  0  0  0  0  0  0  0  0  0
  189.0900  177.2320  141.5100 C   0  0  0  0  0  2  0  0  0  0  0  0
  188.8120  178.2210  140.3870 C   0  0  2  0  0  3  0  0  0  0  0  0
  187.4350  178.3800  140.2200 O   0  0  0  0  0  1  0  0  0  0  0  0
  189.4680  177.7980  139.0710 C   0  0  0  0  0  2  0  0  0  0  0  0
  188.8340  178.4430  137.8800 C   0  0  0  0  0  0  0  0  0  0  0  0
  188.1070  177.6770  136.9790 O   0  0  0  0  0  0  0  0  0  0  0  0
  188.9770  179.6770  137.6820 O   0  0  0  0  0  1  0  0  0  0  0  0
  188.1680  177.0490  143.6670 C   0  0  0  0  0  2  0  0  0  0  0  0
  184.1040  179.1030  144.5870 C   0  0  0  0  0  0  0  0  0  0  0  0
  186.6260  177.2660  145.6210 C   0  0  2  0  0  3  0  0  0  0  0  0
  186.5210  179.1190  147.3740 C   0  0  0  0  0  2  0  0  0  0  0  0
  185.1220  177.2850  145.9210 C   0  0  0  0  0  2  0  0  0  0  0  0
  187.3830  178.0320  146.7140 C   0  0  0  0  0  2  0  0  0  0  0  0
  185.8530  177.8950  143.2360 C   0  0  0  0  0  2  0  0  0  0  0  0
  187.0040  177.8430  144.2440 C   0  0  2  0  0  3  0  0  0  0  0  0
  182.9220  179.5810  144.4640 N   0  0  0  0  0  2  0  0  0  0  0  0
  185.0430  179.1770  143.4160 C   0  0  0  0  0  2  0  0  0  0  0  0
  184.5960  178.7310  145.9540 C   0  0  1  0  0  3  0  0  0  0  0  0
  185.6040  179.7110  146.3990 N   0  0  0  0  0  2  0  0  0  0  0  0
  190.3180  178.0410  143.3810 C   0  0  0  0  0  2  0  0  0  0  0  0
  190.2610  178.4630  144.7180 O   0  0  0  0  0  0  0  0  0  0  0  0
  192.2820  175.4130  146.7040 C   0  0  0  0  0  2  0  0  0  0  0  0
  192.0310  175.3800  145.2190 C   0  0  0  0  0  0  0  0  0  0  0  0
  192.3560  174.2130  144.4720 N   0  0  0  0  0  1  0  0  0  0  0  0
  190.7760  177.3740  146.7710 C   0  0  0  0  0  3  0  0  0  0  0  0
  191.2730  176.2960  147.3980 C   0  0  0  0  0  3  0  0  0  0  0  0
  191.2340  177.7080  145.3740 C   0  0  1  0  0  3  0  0  0  0  0  0
  191.5340  176.4520  144.5950 C   0  0  0  0  0  3  0  0  0  0  0  0
  1 21  1  0  0  0  0
  1  9  1  0  0  0  0
  2  1  1  0  0  0  0
  3  4  1  6  0  0  0
  3  2  1  0  0  0  0
  5  3  1  0  0  0  0
  6  5  1  0  0  0  0
  7  6  2  0  0  0  0
  8  6  1  0  0  0  0
 10 19  1  0  0  0  0
 11 13  1  1  0  0  0
 11 14  1  0  0  0  0
 14 12  1  0  0  0  0
 15 18  1  0  0  0  0
 15 16  1  0  0  0  0
 16  9  1  6  0  0  0
 16 11  1  0  0  0  0
 17 10  2  0  0  0  0
 18 10  1  0  0  0  0
 19 13  1  6  0  0  0
 19 20  1  0  0  0  0
 20 12  1  0  0  0  0
 21 22  1  0  0  0  0
 23 27  1  0  0  0  0
 24 23  1  0  0  0  0
 25 24  1  0  0  0  0
 26 27  2  0  0  0  0
 28 22  1  6  0  0  0
 28 26  1  0  0  0  0
 29 24  2  0  0  0  0
 29 28  1  0  0  0  0
M  END
>  <MODEL>
9

>  <REMARK>
 VINA RESULT:      -7.1      2.491      6.745
  Name = 
  9 active torsions:
  status: ('A' for Active; 'I' for Inactive)
    1  A    between atoms: C_4  and  C_7
    2  A    between atoms: C_4  and  C_15
    3  A    between atoms: C_6  and  C_15
    4  A    between atoms: C_7  and  N_18
    5  A    between atoms: C_10  and  C_12
    6  A    between atoms: C_12  and  N_18
    7  A    between atoms: N_18  and  C_29
    8  A    between atoms: C_26  and  O_28
    9  A    between atoms: O_28  and  C_29
                            x       y       z     vdW  Elec       q    Type
                         _______ _______ _______ _____ _____    ______ ____

>  <TORSDO>
F 9

$$$$
