=
 OpenBabel10232408523D

 51 56  0  0  1  0  0  0  0  0999 V2000
  189.9730  177.8400  137.5070 C   0  0  0  0  0  3  0  0  0  0  0  0
  188.0880  177.9280  139.1560 C   0  0  0  0  0  0  0  0  0  0  0  0
  186.6250  178.0840  139.4390 C   0  0  0  0  0  1  0  0  0  0  0  0
  188.5550  178.0630  137.8840 C   0  0  0  0  0  0  0  0  0  0  0  0
  190.3810  176.0990  139.2010 C   0  0  0  0  0  2  0  0  0  0  0  0
  188.5860  178.3540  141.5740 N   0  0  0  0  0  2  0  0  0  0  0  0
  190.8120  176.9890  138.0920 C   0  0  0  0  0  3  0  0  0  0  0  0
  189.9700  176.8980  140.3430 N   0  0  0  0  0  0  0  0  0  0  0  0
  188.9540  177.7120  140.3480 C   0  0  0  0  0  0  0  0  0  0  0  0
  186.9990  177.1210  136.0390 C   0  0  2  0  0  0  0  0  0  0  0  0
  187.6000  178.3450  136.7390 C   0  0  2  0  0  3  0  0  0  0  0  0
  188.1610  177.8420  135.4060 C   0  0  0  0  0  2  0  0  0  0  0  0
  185.7740  177.3710  135.4020 O   0  0  0  0  0  0  0  0  0  0  0  0
  184.9000  176.5470  135.9500 O   0  0  0  0  0  1  0  0  0  0  0  0
  187.3190  175.6860  136.4560 C   0  0  0  0  0  2  0  0  0  0  0  0
  187.8120  174.8920  135.2570 C   0  0  0  0  0  2  0  0  0  0  0  0
  191.9890  174.0160  135.6880 C   0  0  0  0  0  0  0  0  0  0  0  0
  189.2610  174.5850  135.3970 C   0  0  0  0  0  0  0  0  0  0  0  0
  189.7130  173.8520  136.5000 C   0  0  0  0  0  3  0  0  0  0  0  0
  191.5340  174.7440  134.5760 C   0  0  0  0  0  3  0  0  0  0  0  0
  191.0730  173.5700  136.6460 C   0  0  0  0  0  3  0  0  0  0  0  0
  190.1720  175.0260  134.4310 C   0  0  0  0  0  3  0  0  0  0  0  0
  193.4510  173.7200  135.8840 C   0  0  2  0  0  3  0  0  0  0  0  0
  193.5720  171.2390  136.1910 C   0  0  0  0  0  2  0  0  0  0  0  0
  194.7890  170.8550  136.7720 O   0  0  0  0  0  0  0  0  0  0  0  0
  195.3440  172.2860  135.1100 C   0  0  0  0  0  2  0  0  0  0  0  0
  193.8540  172.3820  135.2510 C   0  0  2  0  0  3  0  0  0  0  0  0
  195.7350  171.0800  135.8180 N   0  0  0  0  0  2  0  0  0  0  0  0
  193.8140  173.7490  137.3690 C   0  0  0  0  0  2  0  0  0  0  0  0
  195.1320  175.0720  138.8530 O   0  0  0  0  0  0  0  0  0  0  0  0
  194.7490  174.8720  137.6700 C   0  0  0  0  0  0  0  0  0  0  0  0
  195.2180  175.7080  136.6220 N   0  0  0  0  0  1  0  0  0  0  0  0
  189.3680  178.2250  142.7940 C   0  0  0  0  0  2  0  0  0  0  0  0
  188.7920  177.1200  143.6620 C   0  0  0  0  0  2  0  0  0  0  0  0
  188.1730  177.7240  144.9130 C   0  0  0  0  0  2  0  0  0  0  0  0
  186.6760  177.4410  144.9720 C   0  0  0  0  0  2  0  0  0  0  0  0
  185.8180  178.6180  145.4470 C   0  0  0  0  0  0  0  0  0  0  0  0
  185.9380  179.1690  146.8580 C   0  0  0  0  0  2  0  0  0  0  0  0
  184.8270  178.1900  146.5090 C   0  0  0  0  0  2  0  0  0  0  0  0
  185.1430  179.4880  144.3990 C   0  0  0  0  0  2  0  0  0  0  0  0
  185.1940  178.8230  143.0350 C   0  0  2  0  0  3  0  0  0  0  0  0
  185.3860  179.7930  142.0560 O   0  0  0  0  0  1  0  0  0  0  0  0
  183.8900  178.0880  142.7660 C   0  0  0  0  0  2  0  0  0  0  0  0
  182.3080  178.4250  141.0600 C   0  0  2  0  0  3  0  0  0  0  0  0
  180.8040  178.5260  141.1660 C   0  0  0  0  0  2  0  0  0  0  0  0
  181.8260  179.1060  143.2500 C   0  0  0  0  0  2  0  0  0  0  0  0
  182.8940  179.0220  142.2570 N   0  0  0  0  0  0  0  0  0  0  0  0
  180.5520  178.5470  142.6470 C   0  0  0  0  0  2  0  0  0  0  0  0
  182.8340  179.0950  139.7910 C   0  0  0  0  0  2  0  0  0  0  0  0
  182.2300  178.5890  137.4450 C   0  0  0  0  0  1  0  0  0  0  0  0
  183.0120  178.1080  138.6510 C   0  0  0  0  0  2  0  0  0  0  0  0
  1  4  1  0  0  0  0
  1  7  2  0  0  0  0
  2  3  1  0  0  0  0
  2  9  1  0  0  0  0
  4  2  2  0  0  0  0
  5  8  1  0  0  0  0
  6 33  1  0  0  0  0
  7  5  1  0  0  0  0
  8  9  2  0  0  0  0
  9  6  1  0  0  0  0
 10 15  1  1  0  0  0
 10 11  1  0  0  0  0
 11  4  1  1  0  0  0
 12 10  1  0  0  0  0
 12 11  1  0  0  0  0
 13 14  1  0  0  0  0
 13 10  1  0  0  0  0
 16 18  1  0  0  0  0
 16 15  1  0  0  0  0
 17 23  1  0  0  0  0
 17 21  1  0  0  0  0
 18 19  1  0  0  0  0
 19 21  2  0  0  0  0
 20 17  2  0  0  0  0
 22 20  1  0  0  0  0
 22 18  2  0  0  0  0
 23 29  1  1  0  0  0
 24 25  1  0  0  0  0
 26 27  1  0  0  0  0
 26 28  1  0  0  0  0
 27 23  1  1  0  0  0
 27 24  1  0  0  0  0
 28 25  1  0  0  0  0
 29 31  1  0  0  0  0
 31 30  2  0  0  0  0
 32 31  1  0  0  0  0
 33 34  1  0  0  0  0
 34 35  1  0  0  0  0
 35 36  1  0  0  0  0
 36 37  1  0  0  0  0
 37 39  1  0  0  0  0
 37 38  1  0  0  0  0
 39 38  1  0  0  0  0
 40 37  1  0  0  0  0
 41 42  1  6  0  0  0
 41 40  1  0  0  0  0
 43 41  1  0  0  0  0
 44 49  1  6  0  0  0
 44 45  1  0  0  0  0
 44 47  1  0  0  0  0
 45 48  1  0  0  0  0
 47 43  1  0  0  0  0
 47 46  1  0  0  0  0
 48 46  1  0  0  0  0
 50 51  1  0  0  0  0
 51 49  1  0  0  0  0
M  END
>  <MODEL>
1

>  <REMARK>
 VINA RESULT:      -6.6      0.000      0.000
  Name = 
  20 active torsions:
  status: ('A' for Active; 'I' for Inactive)
    1  A    between atoms: C_1  and  C_14
    2  A    between atoms: C_1  and  C_34
    3  A    between atoms: C_2  and  C_14
    4  A    between atoms: C_3  and  C_9
    5  A    between atoms: C_3  and  C_37
    6  A    between atoms: C_5  and  C_16
    7  A    between atoms: C_6  and  C_13
    8  A    between atoms: C_6  and  C_43
    9  A    between atoms: C_7  and  C_37
   10  A    between atoms: C_7  and  C_49
   11  A    between atoms: C_9  and  C_17
   12  A    between atoms: C_12  and  C_17
   13  A    between atoms: C_12  and  N_42
   14  A    between atoms: C_14  and  C_45
   15  A    between atoms: C_16  and  C_39
   16  A    between atoms: C_20  and  O_33
   17  A    between atoms: C_20  and  C_43
   18  A    between atoms: C_21  and  C_28
   19  A    between atoms: N_30  and  C_35
   20  A    between atoms: C_35  and  C_49
                            x       y       z     vdW  Elec       q    Type
                         _______ _______ _______ _____ _____    ______ ____

>  <TORSDO>
F 20

$$$$
=
 OpenBabel10232408523D

 51 56  0  0  1  0  0  0  0  0999 V2000
  190.5000  177.7140  138.4440 C   0  0  0  0  0  3  0  0  0  0  0  0
  187.9950  177.6580  138.4820 C   0  0  0  0  0  0  0  0  0  0  0  0
  186.6960  177.4390  137.7670 C   0  0  0  0  0  1  0  0  0  0  0  0
  189.1690  177.5940  137.7970 C   0  0  0  0  0  0  0  0  0  0  0  0
  189.8080  176.6690  140.5650 C   0  0  0  0  0  2  0  0  0  0  0  0
  186.7650  178.8180  140.3300 N   0  0  0  0  0  2  0  0  0  0  0  0
  190.8030  177.3310  139.6810 C   0  0  0  0  0  3  0  0  0  0  0  0
  188.7030  177.5750  140.8270 N   0  0  0  0  0  0  0  0  0  0  0  0
  187.8830  178.0220  139.9220 C   0  0  0  0  0  0  0  0  0  0  0  0
  189.3200  175.7970  135.9370 C   0  0  2  0  0  0  0  0  0  0  0  0
  189.1790  177.2760  136.3130 C   0  0  2  0  0  3  0  0  0  0  0  0
  190.5280  176.6980  135.8740 C   0  0  0  0  0  2  0  0  0  0  0  0
  188.7990  175.4760  134.6740 O   0  0  0  0  0  0  0  0  0  0  0  0
  187.5070  175.2700  134.8520 O   0  0  0  0  0  1  0  0  0  0  0  0
  189.4380  174.6830  136.9770 C   0  0  0  0  0  2  0  0  0  0  0  0
  190.0500  173.4420  136.3460 C   0  0  0  0  0  2  0  0  0  0  0  0
  194.3060  173.4050  136.8760 C   0  0  0  0  0  0  0  0  0  0  0  0
  191.5260  173.4390  136.5300 C   0  0  0  0  0  0  0  0  0  0  0  0
  192.3270  172.6370  135.7100 C   0  0  0  0  0  3  0  0  0  0  0  0
  193.5020  174.2180  137.6930 C   0  0  0  0  0  3  0  0  0  0  0  0
  193.7130  172.6190  135.8830 C   0  0  0  0  0  3  0  0  0  0  0  0
  192.1150  174.2350  137.5190 C   0  0  0  0  0  3  0  0  0  0  0  0
  195.7980  173.3460  137.0570 C   0  0  2  0  0  3  0  0  0  0  0  0
  196.9840  171.1640  137.3710 C   0  0  0  0  0  2  0  0  0  0  0  0
  198.3750  171.3350  137.3800 O   0  0  0  0  0  0  0  0  0  0  0  0
  197.6400  172.5090  135.5920 C   0  0  0  0  0  2  0  0  0  0  0  0
  196.4110  172.1240  136.3600 C   0  0  2  0  0  3  0  0  0  0  0  0
  198.7090  171.6710  136.1040 N   0  0  0  0  0  2  0  0  0  0  0  0
  196.1640  173.3640  138.5410 C   0  0  0  0  0  2  0  0  0  0  0  0
  196.7470  175.1400  140.0240 O   0  0  0  0  0  0  0  0  0  0  0  0
  196.9090  174.6080  138.8940 C   0  0  0  0  0  0  0  0  0  0  0  0
  197.8120  175.1860  137.9610 N   0  0  0  0  0  1  0  0  0  0  0  0
  186.5660  179.2450  141.7070 C   0  0  0  0  0  2  0  0  0  0  0  0
  185.0840  179.2520  142.0360 C   0  0  0  0  0  2  0  0  0  0  0  0
  184.7530  178.0650  142.9280 C   0  0  0  0  0  2  0  0  0  0  0  0
  184.3280  178.5280  144.3170 C   0  0  0  0  0  2  0  0  0  0  0  0
  185.3760  178.3160  145.4130 C   0  0  0  0  0  0  0  0  0  0  0  0
  185.0190  177.6620  146.7380 C   0  0  0  0  0  2  0  0  0  0  0  0
  185.0940  179.1780  146.6270 C   0  0  0  0  0  2  0  0  0  0  0  0
  186.8450  178.3900  145.0300 C   0  0  0  0  0  2  0  0  0  0  0  0
  187.5410  177.0710  145.3150 C   0  0  2  0  0  3  0  0  0  0  0  0
  188.0130  177.0720  146.6240 O   0  0  0  0  0  1  0  0  0  0  0  0
  188.7100  176.8820  144.3590 C   0  0  0  0  0  2  0  0  0  0  0  0
  191.0510  176.7000  144.4600 C   0  0  2  0  0  3  0  0  0  0  0  0
  192.1010  177.6520  143.9340 C   0  0  0  0  0  2  0  0  0  0  0  0
  190.0480  178.8150  144.3350 C   0  0  0  0  0  2  0  0  0  0  0  0
  189.9100  177.4850  144.9230 N   0  0  0  0  0  0  0  0  0  0  0  0
  191.3070  178.8470  143.4890 C   0  0  0  0  0  2  0  0  0  0  0  0
  191.5990  175.8080  145.5730 C   0  0  0  0  0  2  0  0  0  0  0  0
  192.5390  175.8490  147.8620 C   0  0  0  0  0  1  0  0  0  0  0  0
  191.5150  176.4720  146.9360 C   0  0  0  0  0  2  0  0  0  0  0  0
  1  7  2  0  0  0  0
  2  9  1  0  0  0  0
  3  2  1  0  0  0  0
  4  1  1  0  0  0  0
  4  2  2  0  0  0  0
  5  8  1  0  0  0  0
  6 33  1  0  0  0  0
  7  5  1  0  0  0  0
  9  6  1  0  0  0  0
  9  8  2  0  0  0  0
 10 11  1  0  0  0  0
 10 15  1  1  0  0  0
 11  4  1  1  0  0  0
 12 10  1  0  0  0  0
 12 11  1  0  0  0  0
 13 14  1  0  0  0  0
 13 10  1  0  0  0  0
 16 18  1  0  0  0  0
 16 15  1  0  0  0  0
 17 23  1  0  0  0  0
 17 20  1  0  0  0  0
 18 22  1  0  0  0  0
 19 21  1  0  0  0  0
 19 18  2  0  0  0  0
 21 17  2  0  0  0  0
 22 20  2  0  0  0  0
 23 29  1  1  0  0  0
 24 25  1  0  0  0  0
 26 28  1  0  0  0  0
 26 27  1  0  0  0  0
 27 23  1  1  0  0  0
 27 24  1  0  0  0  0
 28 25  1  0  0  0  0
 29 31  1  0  0  0  0
 31 30  2  0  0  0  0
 32 31  1  0  0  0  0
 33 34  1  0  0  0  0
 34 35  1  0  0  0  0
 35 36  1  0  0  0  0
 36 37  1  0  0  0  0
 37 39  1  0  0  0  0
 37 38  1  0  0  0  0
 39 38  1  0  0  0  0
 40 41  1  0  0  0  0
 40 37  1  0  0  0  0
 41 42  1  1  0  0  0
 43 47  1  0  0  0  0
 43 41  1  0  0  0  0
 44 47  1  0  0  0  0
 44 49  1  1  0  0  0
 45 44  1  0  0  0  0
 46 47  1  0  0  0  0
 48 45  1  0  0  0  0
 48 46  1  0  0  0  0
 49 51  1  0  0  0  0
 51 50  1  0  0  0  0
M  END
>  <MODEL>
2

>  <REMARK>
 VINA RESULT:      -6.3      2.280      5.076
  Name = 
  20 active torsions:
  status: ('A' for Active; 'I' for Inactive)
    1  A    between atoms: C_1  and  C_14
    2  A    between atoms: C_1  and  C_34
    3  A    between atoms: C_2  and  C_14
    4  A    between atoms: C_3  and  C_9
    5  A    between atoms: C_3  and  C_37
    6  A    between atoms: C_5  and  C_16
    7  A    between atoms: C_6  and  C_13
    8  A    between atoms: C_6  and  C_43
    9  A    between atoms: C_7  and  C_37
   10  A    between atoms: C_7  and  C_49
   11  A    between atoms: C_9  and  C_17
   12  A    between atoms: C_12  and  C_17
   13  A    between atoms: C_12  and  N_42
   14  A    between atoms: C_14  and  C_45
   15  A    between atoms: C_16  and  C_39
   16  A    between atoms: C_20  and  O_33
   17  A    between atoms: C_20  and  C_43
   18  A    between atoms: C_21  and  C_28
   19  A    between atoms: N_30  and  C_35
   20  A    between atoms: C_35  and  C_49
                            x       y       z     vdW  Elec       q    Type
                         _______ _______ _______ _____ _____    ______ ____

>  <TORSDO>
F 20

$$$$
=
 OpenBabel10232408523D

 51 56  0  0  1  0  0  0  0  0999 V2000
  190.5040  177.9250  138.3370 C   0  0  0  0  0  3  0  0  0  0  0  0
  188.6530  178.0430  140.0220 C   0  0  0  0  0  0  0  0  0  0  0  0
  187.2190  178.3310  140.3480 C   0  0  0  0  0  1  0  0  0  0  0  0
  189.1230  178.2630  138.7630 C   0  0  0  0  0  0  0  0  0  0  0  0
  190.7230  175.9750  139.8250 C   0  0  0  0  0  2  0  0  0  0  0  0
  189.2120  178.1430  142.4620 N   0  0  0  0  0  2  0  0  0  0  0  0
  191.2440  176.9270  138.8100 C   0  0  0  0  0  3  0  0  0  0  0  0
  190.4130  176.6850  141.0540 N   0  0  0  0  0  0  0  0  0  0  0  0
  189.4970  177.6020  141.1670 C   0  0  0  0  0  0  0  0  0  0  0  0
  187.5960  177.7160  136.7430 C   0  0  2  0  0  0  0  0  0  0  0  0
  188.1980  178.7740  137.6740 C   0  0  2  0  0  3  0  0  0  0  0  0
  188.7820  178.5230  136.2800 C   0  0  0  0  0  2  0  0  0  0  0  0
  186.3890  178.1040  136.1410 O   0  0  0  0  0  0  0  0  0  0  0  0
  185.4700  177.2680  136.5870 O   0  0  0  0  0  1  0  0  0  0  0  0
  187.8860  176.2220  136.8860 C   0  0  0  0  0  2  0  0  0  0  0  0
  188.4420  175.6710  135.5830 C   0  0  0  0  0  2  0  0  0  0  0  0
  192.3520  174.0290  136.2270 C   0  0  0  0  0  0  0  0  0  0  0  0
  189.8000  175.1010  135.7960 C   0  0  0  0  0  0  0  0  0  0  0  0
  189.9750  174.0380  136.6890 C   0  0  0  0  0  3  0  0  0  0  0  0
  192.1750  175.0910  135.3240 C   0  0  0  0  0  3  0  0  0  0  0  0
  191.2470  173.5040  136.9040 C   0  0  0  0  0  3  0  0  0  0  0  0
  190.9000  175.6250  135.1090 C   0  0  0  0  0  3  0  0  0  0  0  0
  193.7140  173.4520  136.4990 C   0  0  2  0  0  3  0  0  0  0  0  0
  196.0610  173.9220  137.2330 C   0  0  0  0  0  2  0  0  0  0  0  0
  196.1780  173.8780  138.6290 O   0  0  0  0  0  0  0  0  0  0  0  0
  194.3500  175.1460  138.2230 C   0  0  0  0  0  2  0  0  0  0  0  0
  194.7230  174.5340  136.9050 C   0  0  2  0  0  3  0  0  0  0  0  0
  195.5030  174.9680  139.0860 N   0  0  0  0  0  2  0  0  0  0  0  0
  194.2200  172.6650  135.2900 C   0  0  0  0  0  2  0  0  0  0  0  0
  193.1960  170.6170  135.9610 O   0  0  0  0  0  0  0  0  0  0  0  0
  194.2430  171.2000  135.5770 C   0  0  0  0  0  0  0  0  0  0  0  0
  195.4440  170.4600  135.4030 N   0  0  0  0  0  1  0  0  0  0  0  0
  189.9840  177.7950  143.6460 C   0  0  0  0  0  2  0  0  0  0  0  0
  189.1120  177.0230  144.6200 C   0  0  0  0  0  2  0  0  0  0  0  0
  187.9860  177.9170  145.1150 C   0  0  0  0  0  2  0  0  0  0  0  0
  186.6640  177.5470  144.4510 C   0  0  0  0  0  2  0  0  0  0  0  0
  185.4530  178.3450  144.9430 C   0  0  0  0  0  0  0  0  0  0  0  0
  185.5900  179.4250  146.0030 C   0  0  0  0  0  2  0  0  0  0  0  0
  185.1260  178.0270  146.3870 C   0  0  0  0  0  2  0  0  0  0  0  0
  184.1930  178.3410  144.0920 C   0  0  0  0  0  2  0  0  0  0  0  0
  184.5240  178.6370  142.6400 C   0  0  2  0  0  3  0  0  0  0  0  0
  185.1470  179.8790  142.5540 O   0  0  0  0  0  1  0  0  0  0  0  0
  183.2510  178.6540  141.8080 C   0  0  0  0  0  2  0  0  0  0  0  0
  182.3010  177.5930  139.9380 C   0  0  2  0  0  3  0  0  0  0  0  0
  182.0690  178.1430  138.5500 C   0  0  0  0  0  2  0  0  0  0  0  0
  183.8360  179.3380  139.6360 C   0  0  0  0  0  2  0  0  0  0  0  0
  183.5340  178.1730  140.4630 N   0  0  0  0  0  0  0  0  0  0  0  0
  182.7590  179.4780  138.5770 C   0  0  0  0  0  2  0  0  0  0  0  0
  182.3600  176.0660  139.9420 C   0  0  0  0  0  2  0  0  0  0  0  0
  183.1380  175.0030  137.8470 C   0  0  0  0  0  1  0  0  0  0  0  0
  181.9190  175.4710  138.6160 C   0  0  0  0  0  2  0  0  0  0  0  0
  1  4  1  0  0  0  0
  1  7  2  0  0  0  0
  2  3  1  0  0  0  0
  2  9  1  0  0  0  0
  4  2  2  0  0  0  0
  5  8  1  0  0  0  0
  6 33  1  0  0  0  0
  7  5  1  0  0  0  0
  8  9  2  0  0  0  0
  9  6  1  0  0  0  0
 10 15  1  1  0  0  0
 10 11  1  0  0  0  0
 11  4  1  1  0  0  0
 12 10  1  0  0  0  0
 12 11  1  0  0  0  0
 13 14  1  0  0  0  0
 13 10  1  0  0  0  0
 16 18  1  0  0  0  0
 16 15  1  0  0  0  0
 17 23  1  0  0  0  0
 17 21  1  0  0  0  0
 18 19  1  0  0  0  0
 19 21  2  0  0  0  0
 20 17  2  0  0  0  0
 22 20  1  0  0  0  0
 22 18  2  0  0  0  0
 23 29  1  6  0  0  0
 24 25  1  0  0  0  0
 25 28  1  0  0  0  0
 26 28  1  0  0  0  0
 27 23  1  1  0  0  0
 27 24  1  0  0  0  0
 27 26  1  0  0  0  0
 29 31  1  0  0  0  0
 31 30  2  0  0  0  0
 32 31  1  0  0  0  0
 33 34  1  0  0  0  0
 34 35  1  0  0  0  0
 36 37  1  0  0  0  0
 36 35  1  0  0  0  0
 37 38  1  0  0  0  0
 37 39  1  0  0  0  0
 38 39  1  0  0  0  0
 40 37  1  0  0  0  0
 41 42  1  1  0  0  0
 41 40  1  0  0  0  0
 43 41  1  0  0  0  0
 44 49  1  6  0  0  0
 44 47  1  0  0  0  0
 45 48  1  0  0  0  0
 45 44  1  0  0  0  0
 46 47  1  0  0  0  0
 47 43  1  0  0  0  0
 48 46  1  0  0  0  0
 50 51  1  0  0  0  0
 51 49  1  0  0  0  0
M  END
>  <MODEL>
3

>  <REMARK>
 VINA RESULT:      -6.2      1.260      2.357
  Name = 
  20 active torsions:
  status: ('A' for Active; 'I' for Inactive)
    1  A    between atoms: C_1  and  C_14
    2  A    between atoms: C_1  and  C_34
    3  A    between atoms: C_2  and  C_14
    4  A    between atoms: C_3  and  C_9
    5  A    between atoms: C_3  and  C_37
    6  A    between atoms: C_5  and  C_16
    7  A    between atoms: C_6  and  C_13
    8  A    between atoms: C_6  and  C_43
    9  A    between atoms: C_7  and  C_37
   10  A    between atoms: C_7  and  C_49
   11  A    between atoms: C_9  and  C_17
   12  A    between atoms: C_12  and  C_17
   13  A    between atoms: C_12  and  N_42
   14  A    between atoms: C_14  and  C_45
   15  A    between atoms: C_16  and  C_39
   16  A    between atoms: C_20  and  O_33
   17  A    between atoms: C_20  and  C_43
   18  A    between atoms: C_21  and  C_28
   19  A    between atoms: N_30  and  C_35
   20  A    between atoms: C_35  and  C_49
                            x       y       z     vdW  Elec       q    Type
                         _______ _______ _______ _____ _____    ______ ____

>  <TORSDO>
F 20

$$$$
=
 OpenBabel10232408523D

 51 56  0  0  1  0  0  0  0  0999 V2000
  187.5630  176.1430  136.2510 C   0  0  0  0  0  3  0  0  0  0  0  0
  189.3430  176.9140  137.8370 C   0  0  0  0  0  0  0  0  0  0  0  0
  190.7680  176.8760  138.2980 C   0  0  0  0  0  1  0  0  0  0  0  0
  188.9330  176.1050  136.8220 C   0  0  0  0  0  0  0  0  0  0  0  0
  187.2310  178.5540  136.6310 C   0  0  0  0  0  2  0  0  0  0  0  0
  188.6830  177.9550  140.0180 N   0  0  0  0  0  2  0  0  0  0  0  0
  186.7780  177.2140  136.1750 C   0  0  0  0  0  3  0  0  0  0  0  0
  187.5060  178.5220  138.0570 N   0  0  0  0  0  0  0  0  0  0  0  0
  188.4400  177.8070  138.6150 C   0  0  0  0  0  0  0  0  0  0  0  0
  189.6840  173.6780  136.3190 C   0  0  2  0  0  0  0  0  0  0  0  0
  189.9160  175.1800  136.1290 C   0  0  2  0  0  3  0  0  0  0  0  0
  190.7380  174.3770  137.1410 C   0  0  0  0  0  2  0  0  0  0  0  0
  190.2160  172.8820  135.2930 O   0  0  0  0  0  0  0  0  0  0  0  0
  191.3910  172.4630  135.7250 O   0  0  0  0  0  1  0  0  0  0  0  0
  188.5310  173.1140  137.1490 C   0  0  0  0  0  2  0  0  0  0  0  0
  187.5920  172.3120  136.2620 C   0  0  0  0  0  2  0  0  0  0  0  0
  183.6090  173.8870  136.4930 C   0  0  0  0  0  0  0  0  0  0  0  0
  186.2090  172.8510  136.3490 C   0  0  0  0  0  0  0  0  0  0  0  0
  185.5070  173.1570  135.1770 C   0  0  0  0  0  3  0  0  0  0  0  0
  184.3100  173.5700  137.6680 C   0  0  0  0  0  3  0  0  0  0  0  0
  184.2120  173.6750  135.2490 C   0  0  0  0  0  3  0  0  0  0  0  0
  185.6070  173.0530  137.5950 C   0  0  0  0  0  3  0  0  0  0  0  0
  182.2240  174.4700  136.5400 C   0  0  2  0  0  3  0  0  0  0  0  0
  180.4300  175.4450  137.9880 C   0  0  0  0  0  2  0  0  0  0  0  0
  180.4670  176.8470  137.9750 O   0  0  0  0  0  0  0  0  0  0  0  0
  182.6070  176.1940  138.3080 C   0  0  0  0  0  2  0  0  0  0  0  0
  181.8520  174.9480  137.9500 C   0  0  2  0  0  3  0  0  0  0  0  0
  181.6030  177.1870  138.6440 N   0  0  0  0  0  2  0  0  0  0  0  0
  181.1950  173.4660  136.0190 C   0  0  0  0  0  2  0  0  0  0  0  0
  180.6560  172.0390  137.8530 O   0  0  0  0  0  0  0  0  0  0  0  0
  181.2780  172.1770  136.7680 C   0  0  0  0  0  0  0  0  0  0  0  0
  182.0480  171.1020  136.2490 N   0  0  0  0  0  1  0  0  0  0  0  0
  187.8530  178.7890  140.8750 C   0  0  0  0  0  2  0  0  0  0  0  0
  186.3980  178.3760  140.7440 C   0  0  0  0  0  2  0  0  0  0  0  0
  185.5700  179.0830  141.8060 C   0  0  0  0  0  2  0  0  0  0  0  0
  185.1690  178.1180  142.9170 C   0  0  0  0  0  2  0  0  0  0  0  0
  184.6200  178.7870  144.1810 C   0  0  0  0  0  0  0  0  0  0  0  0
  183.1630  178.6410  144.5870 C   0  0  0  0  0  2  0  0  0  0  0  0
  183.6330  179.8850  143.8460 C   0  0  0  0  0  2  0  0  0  0  0  0
  185.6090  179.2550  145.2360 C   0  0  0  0  0  2  0  0  0  0  0  0
  185.8210  178.1800  146.2880 C   0  0  2  0  0  3  0  0  0  0  0  0
  184.8630  178.3200  147.2880 O   0  0  0  0  0  1  0  0  0  0  0  0
  187.2080  178.3150  146.8970 C   0  0  0  0  0  2  0  0  0  0  0  0
  189.1090  177.9250  145.5710 C   0  0  2  0  0  3  0  0  0  0  0  0
  190.4540  177.3700  145.9790 C   0  0  0  0  0  2  0  0  0  0  0  0
  188.7590  176.6580  147.5120 C   0  0  0  0  0  2  0  0  0  0  0  0
  188.0790  177.2710  146.3740 N   0  0  0  0  0  0  0  0  0  0  0  0
  190.2450  176.9430  147.4050 C   0  0  0  0  0  2  0  0  0  0  0  0
  188.8480  177.7410  144.0770 C   0  0  0  0  0  2  0  0  0  0  0  0
  189.8950  176.0400  142.6150 C   0  0  0  0  0  1  0  0  0  0  0  0
  188.8360  176.2780  143.6710 C   0  0  0  0  0  2  0  0  0  0  0  0
  1  4  1  0  0  0  0
  2  3  1  0  0  0  0
  2  9  1  0  0  0  0
  4  2  2  0  0  0  0
  5  8  1  0  0  0  0
  6 33  1  0  0  0  0
  7  1  2  0  0  0  0
  7  5  1  0  0  0  0
  8  9  2  0  0  0  0
  9  6  1  0  0  0  0
 10 12  1  0  0  0  0
 10 15  1  1  0  0  0
 11 10  1  0  0  0  0
 11  4  1  1  0  0  0
 11 12  1  0  0  0  0
 13 14  1  0  0  0  0
 13 10  1  0  0  0  0
 16 18  1  0  0  0  0
 16 15  1  0  0  0  0
 17 23  1  0  0  0  0
 17 20  1  0  0  0  0
 18 22  1  0  0  0  0
 19 21  1  0  0  0  0
 19 18  2  0  0  0  0
 21 17  2  0  0  0  0
 22 20  2  0  0  0  0
 23 29  1  1  0  0  0
 25 24  1  0  0  0  0
 25 28  1  0  0  0  0
 26 28  1  0  0  0  0
 27 23  1  6  0  0  0
 27 24  1  0  0  0  0
 27 26  1  0  0  0  0
 29 31  1  0  0  0  0
 31 30  2  0  0  0  0
 32 31  1  0  0  0  0
 34 33  1  0  0  0  0
 34 35  1  0  0  0  0
 35 36  1  0  0  0  0
 36 37  1  0  0  0  0
 37 38  1  0  0  0  0
 37 40  1  0  0  0  0
 39 37  1  0  0  0  0
 39 38  1  0  0  0  0
 40 41  1  0  0  0  0
 41 43  1  0  0  0  0
 41 42  1  1  0  0  0
 44 49  1  6  0  0  0
 44 45  1  0  0  0  0
 44 47  1  0  0  0  0
 45 48  1  0  0  0  0
 47 43  1  0  0  0  0
 47 46  1  0  0  0  0
 48 46  1  0  0  0  0
 50 51  1  0  0  0  0
 51 49  1  0  0  0  0
M  END
>  <MODEL>
4

>  <REMARK>
 VINA RESULT:      -5.9      3.299      7.949
  Name = 
  20 active torsions:
  status: ('A' for Active; 'I' for Inactive)
    1  A    between atoms: C_1  and  C_14
    2  A    between atoms: C_1  and  C_34
    3  A    between atoms: C_2  and  C_14
    4  A    between atoms: C_3  and  C_9
    5  A    between atoms: C_3  and  C_37
    6  A    between atoms: C_5  and  C_16
    7  A    between atoms: C_6  and  C_13
    8  A    between atoms: C_6  and  C_43
    9  A    between atoms: C_7  and  C_37
   10  A    between atoms: C_7  and  C_49
   11  A    between atoms: C_9  and  C_17
   12  A    between atoms: C_12  and  C_17
   13  A    between atoms: C_12  and  N_42
   14  A    between atoms: C_14  and  C_45
   15  A    between atoms: C_16  and  C_39
   16  A    between atoms: C_20  and  O_33
   17  A    between atoms: C_20  and  C_43
   18  A    between atoms: C_21  and  C_28
   19  A    between atoms: N_30  and  C_35
   20  A    between atoms: C_35  and  C_49
                            x       y       z     vdW  Elec       q    Type
                         _______ _______ _______ _____ _____    ______ ____

>  <TORSDO>
F 20

$$$$
=
 OpenBabel10232408523D

 51 56  0  0  1  0  0  0  0  0999 V2000
  183.2330  178.4510  140.5960 C   0  0  0  0  0  3  0  0  0  0  0  0
  181.8420  176.8540  139.2560 C   0  0  0  0  0  0  0  0  0  0  0  0
  180.5060  176.2510  138.9450 C   0  0  0  0  0  1  0  0  0  0  0  0
  181.9660  177.7460  140.2770 C   0  0  0  0  0  0  0  0  0  0  0  0
  184.0260  178.5430  138.2660 C   0  0  0  0  0  2  0  0  0  0  0  0
  182.9590  174.9730  138.0350 N   0  0  0  0  0  2  0  0  0  0  0  0
  184.1740  178.7960  139.7230 C   0  0  0  0  0  3  0  0  0  0  0  0
  183.9430  177.1130  138.0200 N   0  0  0  0  0  0  0  0  0  0  0  0
  182.9820  176.3450  138.4440 C   0  0  0  0  0  0  0  0  0  0  0  0
  181.0360  178.8900  142.4080 C   0  0  2  0  0  0  0  0  0  0  0  0
  180.7530  178.1590  141.0910 C   0  0  2  0  0  3  0  0  0  0  0  0
  180.7010  177.4200  142.4320 C   0  0  0  0  0  2  0  0  0  0  0  0
  179.9830  179.7080  142.8450 O   0  0  0  0  0  0  0  0  0  0  0  0
  180.4230  180.9500  142.7590 O   0  0  0  0  0  1  0  0  0  0  0  0
  182.4500  179.2070  142.8950 C   0  0  0  0  0  2  0  0  0  0  0  0
  182.6440  178.6850  144.3090 C   0  0  0  0  0  2  0  0  0  0  0  0
  186.8150  178.1670  145.1620 C   0  0  0  0  0  0  0  0  0  0  0  0
  184.0900  178.4960  144.6010 C   0  0  0  0  0  0  0  0  0  0  0  0
  184.5750  178.7250  145.8940 C   0  0  0  0  0  3  0  0  0  0  0  0
  186.3270  177.9290  143.8670 C   0  0  0  0  0  3  0  0  0  0  0  0
  185.9330  178.5620  146.1730 C   0  0  0  0  0  3  0  0  0  0  0  0
  184.9670  178.0920  143.5880 C   0  0  0  0  0  3  0  0  0  0  0  0
  188.2770  178.0250  145.4860 C   0  0  2  0  0  3  0  0  0  0  0  0
  190.0520  176.5800  144.4730 C   0  0  0  0  0  2  0  0  0  0  0  0
  191.3310  177.1070  144.6990 O   0  0  0  0  0  0  0  0  0  0  0  0
  190.0860  178.8500  143.9720 C   0  0  0  0  0  2  0  0  0  0  0  0
  189.1160  177.7360  144.2340 C   0  0  2  0  0  3  0  0  0  0  0  0
  191.4000  178.2350  143.9390 N   0  0  0  0  0  2  0  0  0  0  0  0
  188.4950  176.9450  146.5460 C   0  0  0  0  0  2  0  0  0  0  0  0
  190.2540  177.8310  147.8930 O   0  0  0  0  0  0  0  0  0  0  0  0
  189.0330  177.5330  147.8080 C   0  0  0  0  0  0  0  0  0  0  0  0
  188.1670  177.7700  148.9090 N   0  0  0  0  0  1  0  0  0  0  0  0
  184.0270  174.3680  137.2540 C   0  0  0  0  0  2  0  0  0  0  0  0
  183.7960  172.8720  137.1360 C   0  0  0  0  0  2  0  0  0  0  0  0
  185.0820  172.1900  136.6970 C   0  0  0  0  0  2  0  0  0  0  0  0
  186.2820  173.1090  136.8970 C   0  0  0  0  0  2  0  0  0  0  0  0
  187.5460  172.6890  136.1400 C   0  0  0  0  0  0  0  0  0  0  0  0
  187.4830  172.1780  134.7100 C   0  0  0  0  0  2  0  0  0  0  0  0
  187.5640  171.1980  135.8720 C   0  0  0  0  0  2  0  0  0  0  0  0
  188.8920  173.1570  136.6700 C   0  0  0  0  0  2  0  0  0  0  0  0
  189.7050  173.8110  135.5670 C   0  0  2  0  0  3  0  0  0  0  0  0
  191.0160  173.3460  135.6230 O   0  0  0  0  0  1  0  0  0  0  0  0
  189.7000  175.3220  135.7420 C   0  0  0  0  0  2  0  0  0  0  0  0
  190.5040  176.5290  137.5910 C   0  0  2  0  0  3  0  0  0  0  0  0
  189.8870  177.7190  138.2900 C   0  0  0  0  0  2  0  0  0  0  0  0
  188.2020  176.4500  137.1610 C   0  0  0  0  0  2  0  0  0  0  0  0
  189.4270  175.6560  137.1340 N   0  0  0  0  0  0  0  0  0  0  0  0
  188.5350  177.8470  137.6480 C   0  0  0  0  0  2  0  0  0  0  0  0
  191.4790  175.7800  138.4980 C   0  0  0  0  0  2  0  0  0  0  0  0
  193.5190  176.5240  137.3100 C   0  0  0  0  0  1  0  0  0  0  0  0
  192.7180  175.3170  137.7520 C   0  0  0  0  0  2  0  0  0  0  0  0
  2  4  2  0  0  0  0
  3  2  1  0  0  0  0
  4  1  1  0  0  0  0
  5  7  1  0  0  0  0
  6  9  1  0  0  0  0
  7  1  2  0  0  0  0
  8  5  1  0  0  0  0
  8  9  2  0  0  0  0
  9  2  1  0  0  0  0
 10 12  1  0  0  0  0
 10 13  1  0  0  0  0
 10 15  1  1  0  0  0
 11  4  1  6  0  0  0
 11 10  1  0  0  0  0
 11 12  1  0  0  0  0
 14 13  1  0  0  0  0
 15 16  1  0  0  0  0
 16 18  1  0  0  0  0
 17 23  1  0  0  0  0
 17 21  1  0  0  0  0
 18 19  1  0  0  0  0
 19 21  2  0  0  0  0
 20 17  2  0  0  0  0
 22 20  1  0  0  0  0
 22 18  2  0  0  0  0
 23 29  1  1  0  0  0
 24 25  1  0  0  0  0
 26 27  1  0  0  0  0
 27 24  1  0  0  0  0
 27 23  1  1  0  0  0
 28 26  1  0  0  0  0
 28 25  1  0  0  0  0
 29 31  1  0  0  0  0
 31 30  2  0  0  0  0
 31 32  1  0  0  0  0
 33  6  1  0  0  0  0
 34 33  1  0  0  0  0
 35 36  1  0  0  0  0
 35 34  1  0  0  0  0
 37 40  1  0  0  0  0
 37 36  1  0  0  0  0
 38 39  1  0  0  0  0
 38 37  1  0  0  0  0
 39 37  1  0  0  0  0
 41 42  1  1  0  0  0
 41 43  1  0  0  0  0
 41 40  1  0  0  0  0
 43 47  1  0  0  0  0
 44 45  1  0  0  0  0
 44 49  1  1  0  0  0
 46 48  1  0  0  0  0
 47 46  1  0  0  0  0
 47 44  1  0  0  0  0
 48 45  1  0  0  0  0
 50 51  1  0  0  0  0
 51 49  1  0  0  0  0
M  END
>  <MODEL>
5

>  <REMARK>
 VINA RESULT:      -5.8      3.060     10.111
  Name = 
  20 active torsions:
  status: ('A' for Active; 'I' for Inactive)
    1  A    between atoms: C_1  and  C_14
    2  A    between atoms: C_1  and  C_34
    3  A    between atoms: C_2  and  C_14
    4  A    between atoms: C_3  and  C_9
    5  A    between atoms: C_3  and  C_37
    6  A    between atoms: C_5  and  C_16
    7  A    between atoms: C_6  and  C_13
    8  A    between atoms: C_6  and  C_43
    9  A    between atoms: C_7  and  C_37
   10  A    between atoms: C_7  and  C_49
   11  A    between atoms: C_9  and  C_17
   12  A    between atoms: C_12  and  C_17
   13  A    between atoms: C_12  and  N_42
   14  A    between atoms: C_14  and  C_45
   15  A    between atoms: C_16  and  C_39
   16  A    between atoms: C_20  and  O_33
   17  A    between atoms: C_20  and  C_43
   18  A    between atoms: C_21  and  C_28
   19  A    between atoms: N_30  and  C_35
   20  A    between atoms: C_35  and  C_49
                            x       y       z     vdW  Elec       q    Type
                         _______ _______ _______ _____ _____    ______ ____

>  <TORSDO>
F 20

$$$$
=
 OpenBabel10232408523D

 51 56  0  0  1  0  0  0  0  0999 V2000
  190.9380  177.2980  138.0610 C   0  0  0  0  0  3  0  0  0  0  0  0
  188.4410  177.1690  137.8890 C   0  0  0  0  0  0  0  0  0  0  0  0
  187.2150  176.8670  137.0820 C   0  0  0  0  0  1  0  0  0  0  0  0
  189.6720  177.0970  137.3120 C   0  0  0  0  0  0  0  0  0  0  0  0
  190.0900  176.3710  140.1800 C   0  0  0  0  0  2  0  0  0  0  0  0
  187.0270  178.4080  139.5450 N   0  0  0  0  0  2  0  0  0  0  0  0
  191.1410  177.0040  139.3420 C   0  0  0  0  0  3  0  0  0  0  0  0
  188.9440  177.2580  140.2860 N   0  0  0  0  0  0  0  0  0  0  0  0
  188.1950  177.6220  139.2860 C   0  0  0  0  0  0  0  0  0  0  0  0
  190.2220  175.2290  135.6040 C   0  0  2  0  0  0  0  0  0  0  0  0
  189.8190  176.6850  135.8590 C   0  0  2  0  0  3  0  0  0  0  0  0
  191.2670  176.3130  135.5270 C   0  0  0  0  0  2  0  0  0  0  0  0
  189.8330  174.7390  134.3470 O   0  0  0  0  0  0  0  0  0  0  0  0
  188.5640  174.3960  134.4640 O   0  0  0  0  0  1  0  0  0  0  0  0
  190.4610  174.2240  136.7300 C   0  0  0  0  0  2  0  0  0  0  0  0
  190.9150  172.8920  136.1540 C   0  0  0  0  0  2  0  0  0  0  0  0
  195.1980  172.6680  136.1560 C   0  0  0  0  0  0  0  0  0  0  0  0
  192.4000  172.8040  136.1540 C   0  0  0  0  0  0  0  0  0  0  0  0
  193.1370  173.4910  137.1260 C   0  0  0  0  0  3  0  0  0  0  0  0
  194.4570  171.9710  135.1870 C   0  0  0  0  0  3  0  0  0  0  0  0
  194.5320  173.4240  137.1260 C   0  0  0  0  0  3  0  0  0  0  0  0
  193.0610  172.0390  135.1870 C   0  0  0  0  0  3  0  0  0  0  0  0
  196.7020  172.6360  136.1650 C   0  0  2  0  0  3  0  0  0  0  0  0
  198.2050  174.6150  136.4700 C   0  0  0  0  0  2  0  0  0  0  0  0
  197.4980  175.7230  136.9560 O   0  0  0  0  0  0  0  0  0  0  0  0
  196.2470  174.9170  135.2520 C   0  0  0  0  0  2  0  0  0  0  0  0
  197.3050  173.8840  135.5070 C   0  0  2  0  0  3  0  0  0  0  0  0
  196.6930  176.1200  135.9320 N   0  0  0  0  0  2  0  0  0  0  0  0
  197.2200  171.3640  135.4940 C   0  0  0  0  0  2  0  0  0  0  0  0
  199.5570  171.1050  135.0880 O   0  0  0  0  0  0  0  0  0  0  0  0
  198.6170  171.0620  135.9250 C   0  0  0  0  0  0  0  0  0  0  0  0
  198.8890  170.7390  137.2810 N   0  0  0  0  0  1  0  0  0  0  0  0
  186.6980  178.9160  140.8680 C   0  0  0  0  0  2  0  0  0  0  0  0
  185.1940  179.0670  141.0040 C   0  0  0  0  0  2  0  0  0  0  0  0
  184.7060  178.2630  142.1980 C   0  0  0  0  0  2  0  0  0  0  0  0
  184.7290  179.1040  143.4690 C   0  0  0  0  0  2  0  0  0  0  0  0
  185.2770  178.3850  144.7060 C   0  0  0  0  0  0  0  0  0  0  0  0
  184.5570  178.4440  146.0430 C   0  0  0  0  0  2  0  0  0  0  0  0
  185.7340  179.3670  145.7640 C   0  0  0  0  0  2  0  0  0  0  0  0
  186.3130  177.2910  144.5030 C   0  0  0  0  0  2  0  0  0  0  0  0
  187.7180  177.8530  144.6170 C   0  0  2  0  0  3  0  0  0  0  0  0
  188.1690  178.2270  143.3540 O   0  0  0  0  0  1  0  0  0  0  0  0
  188.6540  176.8020  145.1940 C   0  0  0  0  0  2  0  0  0  0  0  0
  190.1310  176.6680  147.0170 C   0  0  2  0  0  3  0  0  0  0  0  0
  191.6230  176.4270  147.0150 C   0  0  0  0  0  2  0  0  0  0  0  0
  190.9250  177.3450  144.9190 C   0  0  0  0  0  2  0  0  0  0  0  0
  189.7910  177.4510  145.8330 N   0  0  0  0  0  0  0  0  0  0  0  0
  191.9890  176.4750  145.5590 C   0  0  0  0  0  2  0  0  0  0  0  0
  189.6710  177.3670  148.2960 C   0  0  0  0  0  2  0  0  0  0  0  0
  187.3700  178.2430  148.5540 C   0  0  0  0  0  1  0  0  0  0  0  0
  188.7520  178.5420  148.0100 C   0  0  0  0  0  2  0  0  0  0  0  0
  1  7  2  0  0  0  0
  2  9  1  0  0  0  0
  3  2  1  0  0  0  0
  4  2  2  0  0  0  0
  4  1  1  0  0  0  0
  5  8  1  0  0  0  0
  6 33  1  0  0  0  0
  7  5  1  0  0  0  0
  9  6  1  0  0  0  0
  9  8  2  0  0  0  0
 10 11  1  0  0  0  0
 10 15  1  1  0  0  0
 11  4  1  1  0  0  0
 12 10  1  0  0  0  0
 12 11  1  0  0  0  0
 13 14  1  0  0  0  0
 13 10  1  0  0  0  0
 16 15  1  0  0  0  0
 17 23  1  0  0  0  0
 17 21  1  0  0  0  0
 18 16  1  0  0  0  0
 18 19  1  0  0  0  0
 19 21  2  0  0  0  0
 20 17  2  0  0  0  0
 22 20  1  0  0  0  0
 22 18  2  0  0  0  0
 23 29  1  6  0  0  0
 24 25  1  0  0  0  0
 26 27  1  0  0  0  0
 26 28  1  0  0  0  0
 27 23  1  1  0  0  0
 27 24  1  0  0  0  0
 28 25  1  0  0  0  0
 29 31  1  0  0  0  0
 30 31  2  0  0  0  0
 31 32  1  0  0  0  0
 33 34  1  0  0  0  0
 34 35  1  0  0  0  0
 35 36  1  0  0  0  0
 36 37  1  0  0  0  0
 37 39  1  0  0  0  0
 37 38  1  0  0  0  0
 39 38  1  0  0  0  0
 40 41  1  0  0  0  0
 40 37  1  0  0  0  0
 41 42  1  6  0  0  0
 41 43  1  0  0  0  0
 43 47  1  0  0  0  0
 44 49  1  1  0  0  0
 45 44  1  0  0  0  0
 46 48  1  0  0  0  0
 46 47  1  0  0  0  0
 47 44  1  0  0  0  0
 48 45  1  0  0  0  0
 51 49  1  0  0  0  0
 51 50  1  0  0  0  0
M  END
>  <MODEL>
6

>  <REMARK>
 VINA RESULT:      -5.6      2.390      5.520
  Name = 
  20 active torsions:
  status: ('A' for Active; 'I' for Inactive)
    1  A    between atoms: C_1  and  C_14
    2  A    between atoms: C_1  and  C_34
    3  A    between atoms: C_2  and  C_14
    4  A    between atoms: C_3  and  C_9
    5  A    between atoms: C_3  and  C_37
    6  A    between atoms: C_5  and  C_16
    7  A    between atoms: C_6  and  C_13
    8  A    between atoms: C_6  and  C_43
    9  A    between atoms: C_7  and  C_37
   10  A    between atoms: C_7  and  C_49
   11  A    between atoms: C_9  and  C_17
   12  A    between atoms: C_12  and  C_17
   13  A    between atoms: C_12  and  N_42
   14  A    between atoms: C_14  and  C_45
   15  A    between atoms: C_16  and  C_39
   16  A    between atoms: C_20  and  O_33
   17  A    between atoms: C_20  and  C_43
   18  A    between atoms: C_21  and  C_28
   19  A    between atoms: N_30  and  C_35
   20  A    between atoms: C_35  and  C_49
                            x       y       z     vdW  Elec       q    Type
                         _______ _______ _______ _____ _____    ______ ____

>  <TORSDO>
F 20

$$$$
=
 OpenBabel10232408523D

 51 56  0  0  1  0  0  0  0  0999 V2000
  191.0540  177.9100  139.5060 C   0  0  0  0  0  3  0  0  0  0  0  0
  189.5100  177.5510  141.4470 C   0  0  0  0  0  0  0  0  0  0  0  0
  188.1340  177.2700  141.9680 C   0  0  0  0  0  1  0  0  0  0  0  0
  189.7130  177.7130  140.1100 C   0  0  0  0  0  0  0  0  0  0  0  0
  192.2470  176.5360  141.1660 C   0  0  0  0  0  2  0  0  0  0  0  0
  190.2010  178.3180  143.7290 N   0  0  0  0  0  2  0  0  0  0  0  0
  192.1990  177.4160  139.9690 C   0  0  0  0  0  3  0  0  0  0  0  0
  191.7770  177.2640  142.3320 N   0  0  0  0  0  0  0  0  0  0  0  0
  190.5680  177.7190  142.4820 C   0  0  0  0  0  0  0  0  0  0  0  0
  188.6690  176.4640  138.0950 C   0  0  2  0  0  0  0  0  0  0  0  0
  188.5580  177.5840  139.1340 C   0  0  2  0  0  3  0  0  0  0  0  0
  189.0020  177.8810  137.6990 C   0  0  0  0  0  2  0  0  0  0  0  0
  187.4340  176.0230  137.5960 O   0  0  0  0  0  0  0  0  0  0  0  0
  187.7080  175.2990  136.5260 O   0  0  0  0  0  1  0  0  0  0  0  0
  189.8610  175.5100  138.0260 C   0  0  0  0  0  2  0  0  0  0  0  0
  190.4560  175.5180  136.6270 C   0  0  0  0  0  2  0  0  0  0  0  0
  194.3760  173.7780  136.6680 C   0  0  0  0  0  0  0  0  0  0  0  0
  191.8200  174.9230  136.6390 C   0  0  0  0  0  0  0  0  0  0  0  0
  192.0490  173.6970  136.0040 C   0  0  0  0  0  3  0  0  0  0  0  0
  194.1480  175.0140  137.2960 C   0  0  0  0  0  3  0  0  0  0  0  0
  193.3230  173.1260  136.0200 C   0  0  0  0  0  3  0  0  0  0  0  0
  192.8720  175.5850  137.2800 C   0  0  0  0  0  3  0  0  0  0  0  0
  195.7320  173.1270  136.6920 C   0  0  2  0  0  3  0  0  0  0  0  0
  196.0080  170.8560  137.7100 C   0  0  0  0  0  2  0  0  0  0  0  0
  197.3180  170.3830  137.5550 O   0  0  0  0  0  0  0  0  0  0  0  0
  196.7170  171.1540  135.5160 C   0  0  0  0  0  2  0  0  0  0  0  0
  195.6430  171.6130  136.4580 C   0  0  2  0  0  3  0  0  0  0  0  0
  197.4590  170.1280  136.2250 N   0  0  0  0  0  2  0  0  0  0  0  0
  196.4560  173.4320  138.0030 C   0  0  0  0  0  2  0  0  0  0  0  0
  197.7950  175.4020  137.8790 O   0  0  0  0  0  0  0  0  0  0  0  0
  197.7400  174.1510  137.7510 C   0  0  0  0  0  0  0  0  0  0  0  0
  198.9020  173.4240  137.3790 N   0  0  0  0  0  1  0  0  0  0  0  0
  191.1570  178.5450  144.8030 C   0  0  0  0  0  2  0  0  0  0  0  0
  191.4620  177.2350  145.5070 C   0  0  0  0  0  2  0  0  0  0  0  0
  190.2810  176.8360  146.3770 C   0  0  0  0  0  2  0  0  0  0  0  0
  189.0110  177.5530  145.9340 C   0  0  0  0  0  2  0  0  0  0  0  0
  187.9750  177.7680  147.0420 C   0  0  0  0  0  0  0  0  0  0  0  0
  188.3400  178.4540  148.3480 C   0  0  0  0  0  2  0  0  0  0  0  0
  188.2890  176.9350  148.2670 C   0  0  0  0  0  2  0  0  0  0  0  0
  186.5020  177.6630  146.6820 C   0  0  0  0  0  2  0  0  0  0  0  0
  186.1510  178.6320  145.5660 C   0  0  2  0  0  3  0  0  0  0  0  0
  185.6140  179.7920  146.1160 O   0  0  0  0  0  1  0  0  0  0  0  0
  185.1320  178.0000  144.6300 C   0  0  0  0  0  2  0  0  0  0  0  0
  184.2090  178.5110  142.5300 C   0  0  2  0  0  3  0  0  0  0  0  0
  182.7670  178.7810  142.1660 C   0  0  0  0  0  2  0  0  0  0  0  0
  183.1430  179.2460  144.4830 C   0  0  0  0  0  2  0  0  0  0  0  0
  184.4520  179.0400  143.8690 N   0  0  0  0  0  0  0  0  0  0  0  0
  182.0680  178.8330  143.4960 C   0  0  0  0  0  2  0  0  0  0  0  0
  185.1740  179.1150  141.5110 C   0  0  0  0  0  2  0  0  0  0  0  0
  185.0290  178.3700  139.1550 C   0  0  0  0  0  1  0  0  0  0  0  0
  184.5090  179.3690  140.1690 C   0  0  0  0  0  2  0  0  0  0  0  0
  1  7  2  0  0  0  0
  1  4  1  0  0  0  0
  2  3  1  0  0  0  0
  2  9  1  0  0  0  0
  4  2  2  0  0  0  0
  5  8  1  0  0  0  0
  6 33  1  0  0  0  0
  7  5  1  0  0  0  0
  8  9  2  0  0  0  0
  9  6  1  0  0  0  0
 10 15  1  1  0  0  0
 10 11  1  0  0  0  0
 11  4  1  1  0  0  0
 12 10  1  0  0  0  0
 12 11  1  0  0  0  0
 13 10  1  0  0  0  0
 14 13  1  0  0  0  0
 16 18  1  0  0  0  0
 16 15  1  0  0  0  0
 17 23  1  0  0  0  0
 17 20  1  0  0  0  0
 18 22  1  0  0  0  0
 19 21  1  0  0  0  0
 19 18  2  0  0  0  0
 21 17  2  0  0  0  0
 22 20  2  0  0  0  0
 23 29  1  1  0  0  0
 25 24  1  0  0  0  0
 26 28  1  0  0  0  0
 26 27  1  0  0  0  0
 27 23  1  1  0  0  0
 27 24  1  0  0  0  0
 28 25  1  0  0  0  0
 31 30  2  0  0  0  0
 31 29  1  0  0  0  0
 32 31  1  0  0  0  0
 33 34  1  0  0  0  0
 34 35  1  0  0  0  0
 36 35  1  0  0  0  0
 36 37  1  0  0  0  0
 37 39  1  0  0  0  0
 37 38  1  0  0  0  0
 39 38  1  0  0  0  0
 40 37  1  0  0  0  0
 41 42  1  1  0  0  0
 41 40  1  0  0  0  0
 43 41  1  0  0  0  0
 44 49  1  6  0  0  0
 44 47  1  0  0  0  0
 45 44  1  0  0  0  0
 45 48  1  0  0  0  0
 47 46  1  0  0  0  0
 47 43  1  0  0  0  0
 48 46  1  0  0  0  0
 50 51  1  0  0  0  0
 51 49  1  0  0  0  0
M  END
>  <MODEL>
7

>  <REMARK>
 VINA RESULT:      -5.5      2.140      2.829
  Name = 
  20 active torsions:
  status: ('A' for Active; 'I' for Inactive)
    1  A    between atoms: C_1  and  C_14
    2  A    between atoms: C_1  and  C_34
    3  A    between atoms: C_2  and  C_14
    4  A    between atoms: C_3  and  C_9
    5  A    between atoms: C_3  and  C_37
    6  A    between atoms: C_5  and  C_16
    7  A    between atoms: C_6  and  C_13
    8  A    between atoms: C_6  and  C_43
    9  A    between atoms: C_7  and  C_37
   10  A    between atoms: C_7  and  C_49
   11  A    between atoms: C_9  and  C_17
   12  A    between atoms: C_12  and  C_17
   13  A    between atoms: C_12  and  N_42
   14  A    between atoms: C_14  and  C_45
   15  A    between atoms: C_16  and  C_39
   16  A    between atoms: C_20  and  O_33
   17  A    between atoms: C_20  and  C_43
   18  A    between atoms: C_21  and  C_28
   19  A    between atoms: N_30  and  C_35
   20  A    between atoms: C_35  and  C_49
                            x       y       z     vdW  Elec       q    Type
                         _______ _______ _______ _____ _____    ______ ____

>  <TORSDO>
F 20

$$$$
=
 OpenBabel10232408523D

 51 56  0  0  1  0  0  0  0  0999 V2000
  190.3720  177.6240  145.7050 C   0  0  0  0  0  3  0  0  0  0  0  0
  188.8770  177.0060  143.7910 C   0  0  0  0  0  0  0  0  0  0  0  0
  187.5380  176.5580  143.2890 C   0  0  0  0  0  1  0  0  0  0  0  0
  189.1050  177.1080  145.1290 C   0  0  0  0  0  0  0  0  0  0  0  0
  190.8240  179.1990  143.8660 C   0  0  0  0  0  2  0  0  0  0  0  0
  189.8920  176.3960  141.5830 N   0  0  0  0  0  2  0  0  0  0  0  0
  191.1650  178.5370  145.1520 C   0  0  0  0  0  3  0  0  0  0  0  0
  190.7700  178.2100  142.8030 N   0  0  0  0  0  0  0  0  0  0  0  0
  189.9130  177.2330  142.7450 C   0  0  0  0  0  0  0  0  0  0  0  0
  186.8180  177.7680  146.1530 C   0  0  2  0  0  0  0  0  0  0  0  0
  188.0020  176.7960  146.1240 C   0  0  2  0  0  3  0  0  0  0  0  0
  187.8970  177.8800  147.2010 C   0  0  0  0  0  2  0  0  0  0  0  0
  185.6270  177.2050  146.6370 O   0  0  0  0  0  0  0  0  0  0  0  0
  185.1200  178.0880  147.4780 O   0  0  0  0  0  1  0  0  0  0  0  0
  186.7230  178.9880  145.2370 C   0  0  0  0  0  2  0  0  0  0  0  0
  185.3110  179.5500  145.2620 C   0  0  0  0  0  2  0  0  0  0  0  0
  183.2720  178.6610  141.5940 C   0  0  0  0  0  0  0  0  0  0  0  0
  184.6090  179.2490  143.9850 C   0  0  0  0  0  0  0  0  0  0  0  0
  183.2200  179.0780  143.9800 C   0  0  0  0  0  3  0  0  0  0  0  0
  184.6650  178.8420  141.5990 C   0  0  0  0  0  3  0  0  0  0  0  0
  182.5540  178.7830  142.7880 C   0  0  0  0  0  3  0  0  0  0  0  0
  185.3310  179.1370  142.7930 C   0  0  0  0  0  3  0  0  0  0  0  0
  182.5310  178.3160  140.3310 C   0  0  2  0  0  3  0  0  0  0  0  0
  183.2190  176.6770  138.5690 C   0  0  0  0  0  2  0  0  0  0  0  0
  182.1440  176.3460  137.7310 O   0  0  0  0  0  0  0  0  0  0  0  0
  181.3360  176.1790  139.8370 C   0  0  0  0  0  2  0  0  0  0  0  0
  182.6790  176.8330  139.9670 C   0  0  2  0  0  3  0  0  0  0  0  0
  181.2960  175.6110  138.5020 N   0  0  0  0  0  2  0  0  0  0  0  0
  182.9880  179.2070  139.1760 C   0  0  0  0  0  2  0  0  0  0  0  0
  182.1810  181.3300  138.4480 O   0  0  0  0  0  0  0  0  0  0  0  0
  181.9030  180.1430  138.7580 C   0  0  0  0  0  0  0  0  0  0  0  0
  180.5570  179.6900  138.6990 N   0  0  0  0  0  1  0  0  0  0  0  0
  190.8650  176.5190  140.5090 C   0  0  0  0  0  2  0  0  0  0  0  0
  190.2650  177.3050  139.3570 C   0  0  0  0  0  2  0  0  0  0  0  0
  189.6970  176.3440  138.3240 C   0  0  0  0  0  2  0  0  0  0  0  0
  190.6700  175.2030  138.0480 C   0  0  0  0  0  2  0  0  0  0  0  0
  191.1440  175.1010  136.5950 C   0  0  0  0  0  0  0  0  0  0  0  0
  192.4010  175.8100  136.1170 C   0  0  0  0  0  2  0  0  0  0  0  0
  191.0310  176.4290  135.8770 C   0  0  0  0  0  2  0  0  0  0  0  0
  190.5930  173.9750  135.7350 C   0  0  0  0  0  2  0  0  0  0  0  0
  189.1640  173.6480  136.1300 C   0  0  2  0  0  3  0  0  0  0  0  0
  188.9680  172.2720  136.0520 O   0  0  0  0  0  1  0  0  0  0  0  0
  188.1910  174.3480  135.1930 C   0  0  0  0  0  2  0  0  0  0  0  0
  186.3940  175.8530  135.0150 C   0  0  2  0  0  3  0  0  0  0  0  0
  184.9840  175.7150  135.5400 C   0  0  0  0  0  2  0  0  0  0  0  0
  186.4840  174.3490  136.8100 C   0  0  0  0  0  2  0  0  0  0  0  0
  187.3020  175.2100  135.9610 N   0  0  0  0  0  0  0  0  0  0  0  0
  185.0360  174.4660  136.3740 C   0  0  0  0  0  2  0  0  0  0  0  0
  186.7750  177.3150  134.7860 C   0  0  0  0  0  2  0  0  0  0  0  0
  186.8290  178.4220  136.9990 C   0  0  0  0  0  1  0  0  0  0  0  0
  187.6790  177.8520  135.8820 C   0  0  0  0  0  2  0  0  0  0  0  0
  2  4  2  0  0  0  0
  3  2  1  0  0  0  0
  4  1  1  0  0  0  0
  5  7  1  0  0  0  0
  6  9  1  0  0  0  0
  7  1  2  0  0  0  0
  8  5  1  0  0  0  0
  9  8  2  0  0  0  0
  9  2  1  0  0  0  0
 10 15  1  6  0  0  0
 10 13  1  0  0  0  0
 10 12  1  0  0  0  0
 11  4  1  6  0  0  0
 11 10  1  0  0  0  0
 11 12  1  0  0  0  0
 13 14  1  0  0  0  0
 15 16  1  0  0  0  0
 17 20  2  0  0  0  0
 17 21  1  0  0  0  0
 18 16  1  0  0  0  0
 19 18  1  0  0  0  0
 20 22  1  0  0  0  0
 21 19  2  0  0  0  0
 22 18  2  0  0  0  0
 23 29  1  6  0  0  0
 23 17  1  0  0  0  0
 24 27  1  0  0  0  0
 25 28  1  0  0  0  0
 25 24  1  0  0  0  0
 26 27  1  0  0  0  0
 27 23  1  6  0  0  0
 28 26  1  0  0  0  0
 30 31  2  0  0  0  0
 31 29  1  0  0  0  0
 32 31  1  0  0  0  0
 33  6  1  0  0  0  0
 34 33  1  0  0  0  0
 35 34  1  0  0  0  0
 36 35  1  0  0  0  0
 37 36  1  0  0  0  0
 38 37  1  0  0  0  0
 39 38  1  0  0  0  0
 39 37  1  0  0  0  0
 40 41  1  0  0  0  0
 40 37  1  0  0  0  0
 41 42  1  6  0  0  0
 43 47  1  0  0  0  0
 43 41  1  0  0  0  0
 44 49  1  1  0  0  0
 44 45  1  0  0  0  0
 44 47  1  0  0  0  0
 45 48  1  0  0  0  0
 47 46  1  0  0  0  0
 48 46  1  0  0  0  0
 49 51  1  0  0  0  0
 51 50  1  0  0  0  0
M  END
>  <MODEL>
8

>  <REMARK>
 VINA RESULT:      -5.5      2.996     10.086
  Name = 
  20 active torsions:
  status: ('A' for Active; 'I' for Inactive)
    1  A    between atoms: C_1  and  C_14
    2  A    between atoms: C_1  and  C_34
    3  A    between atoms: C_2  and  C_14
    4  A    between atoms: C_3  and  C_9
    5  A    between atoms: C_3  and  C_37
    6  A    between atoms: C_5  and  C_16
    7  A    between atoms: C_6  and  C_13
    8  A    between atoms: C_6  and  C_43
    9  A    between atoms: C_7  and  C_37
   10  A    between atoms: C_7  and  C_49
   11  A    between atoms: C_9  and  C_17
   12  A    between atoms: C_12  and  C_17
   13  A    between atoms: C_12  and  N_42
   14  A    between atoms: C_14  and  C_45
   15  A    between atoms: C_16  and  C_39
   16  A    between atoms: C_20  and  O_33
   17  A    between atoms: C_20  and  C_43
   18  A    between atoms: C_21  and  C_28
   19  A    between atoms: N_30  and  C_35
   20  A    between atoms: C_35  and  C_49
                            x       y       z     vdW  Elec       q    Type
                         _______ _______ _______ _____ _____    ______ ____

>  <TORSDO>
F 20

$$$$
=
 OpenBabel10232408523D

 51 56  0  0  1  0  0  0  0  0999 V2000
  187.8370  176.3050  135.9600 C   0  0  0  0  0  3  0  0  0  0  0  0
  189.6770  176.9940  137.5150 C   0  0  0  0  0  0  0  0  0  0  0  0
  191.1170  176.9230  137.9250 C   0  0  0  0  0  1  0  0  0  0  0  0
  189.2250  176.2310  136.4820 C   0  0  0  0  0  0  0  0  0  0  0  0
  187.5460  178.7020  136.4460 C   0  0  0  0  0  2  0  0  0  0  0  0
  189.1020  177.9540  139.7560 N   0  0  0  0  0  2  0  0  0  0  0  0
  187.0630  177.3860  135.9530 C   0  0  0  0  0  3  0  0  0  0  0  0
  187.8680  178.6110  137.8590 N   0  0  0  0  0  0  0  0  0  0  0  0
  188.8110  177.8650  138.3570 C   0  0  0  0  0  0  0  0  0  0  0  0
  190.0440  173.8220  135.9950 C   0  0  2  0  0  0  0  0  0  0  0  0
  190.1730  175.3240  135.7210 C   0  0  2  0  0  3  0  0  0  0  0  0
  191.1430  174.6080  136.6660 C   0  0  0  0  0  2  0  0  0  0  0  0
  190.5020  173.0070  134.9480 O   0  0  0  0  0  0  0  0  0  0  0  0
  191.5220  172.3250  135.4330 O   0  0  0  0  0  1  0  0  0  0  0  0
  189.0210  173.2410  136.9700 C   0  0  0  0  0  2  0  0  0  0  0  0
  188.0260  172.3660  136.2240 C   0  0  0  0  0  2  0  0  0  0  0  0
  184.1620  174.2250  136.1150 C   0  0  0  0  0  0  0  0  0  0  0  0
  186.6900  173.0180  136.1810 C   0  0  0  0  0  0  0  0  0  0  0  0
  185.9440  173.1540  137.3570 C   0  0  0  0  0  3  0  0  0  0  0  0
  184.9150  174.0970  134.9360 C   0  0  0  0  0  3  0  0  0  0  0  0
  184.6840  173.7540  137.3240 C   0  0  0  0  0  3  0  0  0  0  0  0
  186.1770  173.4960  134.9700 C   0  0  0  0  0  3  0  0  0  0  0  0
  182.7910  174.8430  136.1040 C   0  0  2  0  0  3  0  0  0  0  0  0
  183.1400  177.3210  136.1800 C   0  0  0  0  0  2  0  0  0  0  0  0
  181.9610  177.9930  136.5310 O   0  0  0  0  0  0  0  0  0  0  0  0
  181.3530  176.5150  134.9290 C   0  0  0  0  0  2  0  0  0  0  0  0
  182.7600  176.1530  135.3060 C   0  0  2  0  0  3  0  0  0  0  0  0
  181.1260  177.8450  135.4650 N   0  0  0  0  0  2  0  0  0  0  0  0
  182.2860  175.0650  137.5300 C   0  0  0  0  0  2  0  0  0  0  0  0
  180.2910  174.5740  138.7420 O   0  0  0  0  0  0  0  0  0  0  0  0
  181.0580  174.2580  137.7950 C   0  0  0  0  0  0  0  0  0  0  0  0
  180.7490  173.1420  136.9720 N   0  0  0  0  0  1  0  0  0  0  0  0
  188.3110  178.7620  140.6720 C   0  0  0  0  0  2  0  0  0  0  0  0
  187.0270  178.0320  141.0270 C   0  0  0  0  0  2  0  0  0  0  0  0
  186.2410  178.8460  142.0420 C   0  0  0  0  0  2  0  0  0  0  0  0
  185.4250  177.9380  142.9550 C   0  0  0  0  0  2  0  0  0  0  0  0
  185.1530  178.5070  144.3510 C   0  0  0  0  0  0  0  0  0  0  0  0
  183.7390  178.7920  144.8310 C   0  0  0  0  0  2  0  0  0  0  0  0
  184.6050  179.9170  144.2810 C   0  0  0  0  0  2  0  0  0  0  0  0
  186.2520  178.4080  145.3960 C   0  0  0  0  0  2  0  0  0  0  0  0
  187.4310  177.6140  144.8630 C   0  0  2  0  0  3  0  0  0  0  0  0
  186.9770  176.4010  144.3530 O   0  0  0  0  0  1  0  0  0  0  0  0
  188.4280  177.3480  145.9800 C   0  0  0  0  0  2  0  0  0  0  0  0
  190.6920  176.7780  145.7060 C   0  0  2  0  0  3  0  0  0  0  0  0
  191.5190  176.7570  144.4420 C   0  0  0  0  0  2  0  0  0  0  0  0
  189.6700  178.2570  144.2020 C   0  0  0  0  0  2  0  0  0  0  0  0
  189.7350  177.8760  145.6110 N   0  0  0  0  0  0  0  0  0  0  0  0
  190.6120  177.3680  143.4120 C   0  0  0  0  0  2  0  0  0  0  0  0
  191.5640  176.9070  146.9540 C   0  0  0  0  0  2  0  0  0  0  0  0
  193.0370  175.7860  148.5960 C   0  0  0  0  0  1  0  0  0  0  0  0
  192.2320  175.5960  147.3270 C   0  0  0  0  0  2  0  0  0  0  0  0
  1  4  1  0  0  0  0
  2  3  1  0  0  0  0
  2  9  1  0  0  0  0
  4  2  2  0  0  0  0
  5  8  1  0  0  0  0
  6 33  1  0  0  0  0
  7  1  2  0  0  0  0
  7  5  1  0  0  0  0
  8  9  2  0  0  0  0
  9  6  1  0  0  0  0
 10 12  1  0  0  0  0
 10 15  1  1  0  0  0
 11 10  1  0  0  0  0
 11  4  1  1  0  0  0
 11 12  1  0  0  0  0
 13 14  1  0  0  0  0
 13 10  1  0  0  0  0
 16 15  1  0  0  0  0
 17 21  1  0  0  0  0
 18 16  1  0  0  0  0
 18 19  1  0  0  0  0
 20 22  1  0  0  0  0
 20 17  2  0  0  0  0
 21 19  2  0  0  0  0
 22 18  2  0  0  0  0
 23 17  1  0  0  0  0
 23 29  1  1  0  0  0
 24 25  1  0  0  0  0
 26 27  1  0  0  0  0
 26 28  1  0  0  0  0
 27 23  1  1  0  0  0
 27 24  1  0  0  0  0
 28 25  1  0  0  0  0
 29 31  1  0  0  0  0
 31 30  2  0  0  0  0
 32 31  1  0  0  0  0
 33 34  1  0  0  0  0
 34 35  1  0  0  0  0
 35 36  1  0  0  0  0
 36 37  1  0  0  0  0
 37 38  1  0  0  0  0
 37 40  1  0  0  0  0
 39 37  1  0  0  0  0
 39 38  1  0  0  0  0
 41 42  1  1  0  0  0
 41 40  1  0  0  0  0
 41 43  1  0  0  0  0
 44 49  1  1  0  0  0
 45 44  1  0  0  0  0
 46 47  1  0  0  0  0
 47 44  1  0  0  0  0
 47 43  1  0  0  0  0
 48 46  1  0  0  0  0
 48 45  1  0  0  0  0
 49 51  1  0  0  0  0
 51 50  1  0  0  0  0
M  END
>  <MODEL>
9

>  <REMARK>
 VINA RESULT:      -5.2      3.176      8.210
  Name = 
  20 active torsions:
  status: ('A' for Active; 'I' for Inactive)
    1  A    between atoms: C_1  and  C_14
    2  A    between atoms: C_1  and  C_34
    3  A    between atoms: C_2  and  C_14
    4  A    between atoms: C_3  and  C_9
    5  A    between atoms: C_3  and  C_37
    6  A    between atoms: C_5  and  C_16
    7  A    between atoms: C_6  and  C_13
    8  A    between atoms: C_6  and  C_43
    9  A    between atoms: C_7  and  C_37
   10  A    between atoms: C_7  and  C_49
   11  A    between atoms: C_9  and  C_17
   12  A    between atoms: C_12  and  C_17
   13  A    between atoms: C_12  and  N_42
   14  A    between atoms: C_14  and  C_45
   15  A    between atoms: C_16  and  C_39
   16  A    between atoms: C_20  and  O_33
   17  A    between atoms: C_20  and  C_43
   18  A    between atoms: C_21  and  C_28
   19  A    between atoms: N_30  and  C_35
   20  A    between atoms: C_35  and  C_49
                            x       y       z     vdW  Elec       q    Type
                         _______ _______ _______ _____ _____    ______ ____

>  <TORSDO>
F 20

$$$$
