=
 OpenBabel10222421563D

 40 45  0  0  1  0  0  0  0  0999 V2000
  182.4110  177.1140  139.4030 C   0  0  0  0  0  0  0  0  0  0  0  0
  181.4400  176.2810  138.8330 C   0  0  0  0  0  3  0  0  0  0  0  0
  179.9820  176.6530  140.6320 N   0  0  0  0  0  0  0  0  0  0  0  0
  180.8720  177.4800  141.2360 C   0  0  0  0  0  3  0  0  0  0  0  0
  182.1140  177.7280  140.6430 C   0  0  0  0  0  0  0  0  0  0  0  0
  180.2580  176.0720  139.4650 N   0  0  0  0  0  0  0  0  0  0  0  0
  184.8390  178.2150  142.7950 C   0  0  0  0  0  0  0  0  0  0  0  0
  183.0480  178.7100  141.2900 C   0  0  2  0  0  3  0  0  0  0  0  0
  184.3810  178.1360  141.4600 N   0  0  0  0  0  2  0  0  0  0  0  0
  182.3980  179.2580  142.9280 S   0  0  0  0  0  0  0  0  0  0  0  0
  185.5050  178.4850  145.4500 C   0  0  0  0  0  0  0  0  0  0  0  0
  183.9380  178.7790  143.6810 C   0  0  0  0  0  0  0  0  0  0  0  0
  186.0990  177.7650  143.2140 C   0  0  0  0  0  3  0  0  0  0  0  0
  186.4170  177.9120  144.5700 C   0  0  0  0  0  0  0  0  0  0  0  0
  187.6370  177.8070  146.5360 C   0  0  0  0  0  0  0  0  0  0  0  0
  186.1680  178.5260  146.9860 S   0  0  0  0  0  0  0  0  0  0  0  0
  187.6190  177.5260  145.1670 C   0  0  0  0  0  3  0  0  0  0  0  0
  184.2470  178.9320  145.0390 C   0  0  0  0  0  3  0  0  0  0  0  0
  188.8500  178.2620  148.5040 O   0  0  0  0  0  0  0  0  0  0  0  0
  188.7460  177.5380  147.4790 C   0  0  0  0  0  0  0  0  0  0  0  0
  189.6950  176.5220  147.2960 O   0  0  0  0  0  0  0  0  0  0  0  0
  191.5460  176.6190  145.7790 C   0  0  0  0  0  1  0  0  0  0  0  0
  191.0960  176.7360  147.2200 C   0  0  0  0  0  2  0  0  0  0  0  0
  184.2780  178.5810  138.6130 C   0  0  0  0  0  3  0  0  0  0  0  0
  185.4740  178.7790  137.9210 C   0  0  0  0  0  3  0  0  0  0  0  0
  185.5280  176.4250  137.3260 C   0  0  0  0  0  0  0  0  0  0  0  0
  184.3260  176.2410  138.0240 C   0  0  0  0  0  3  0  0  0  0  0  0
  186.1080  177.7070  137.2830 C   0  0  0  0  0  0  0  0  0  0  0  0
  183.6960  177.3070  138.6820 C   0  0  0  0  0  0  0  0  0  0  0  0
  186.1710  175.2840  136.6520 C   0  0  0  0  0  3  0  0  0  0  0  0
  186.6060  174.2610  137.3160 N   0  0  0  0  0  2  0  0  0  0  0  0
  187.3730  177.9680  136.5320 C   0  0  0  0  0  2  0  0  0  0  0  0
  188.0410  179.1300  137.0880 N   0  0  0  0  0  2  0  0  0  0  0  0
  189.2360  178.6430  137.7690 C   0  0  0  0  0  2  0  0  0  0  0  0
  188.9100  177.6520  138.7980 N   0  0  0  0  0  0  0  0  0  0  0  0
  190.4470  176.8000  140.4610 C   0  0  1  0  0  3  0  0  0  0  0  0
  191.6150  177.5520  140.5990 O   0  0  0  0  0  1  0  0  0  0  0  0
  189.3110  177.5090  141.1520 C   0  0  0  0  0  2  0  0  0  0  0  0
  188.6590  178.3290  140.0670 C   0  0  0  0  0  2  0  0  0  0  0  0
  190.0500  176.7570  138.9980 C   0  0  0  0  0  2  0  0  0  0  0  0
  1  5  1  0  0  0  0
  2  1  2  0  0  0  0
  2  6  1  0  0  0  0
  3  4  1  0  0  0  0
  5  4  2  0  0  0  0
  6  3  2  0  0  0  0
  7 13  2  0  0  0  0
  7 12  1  0  0  0  0
  8  5  1  1  0  0  0
  8  9  1  0  0  0  0
  8 10  1  0  0  0  0
  9  7  1  0  0  0  0
 10 12  1  0  0  0  0
 11 16  1  0  0  0  0
 12 18  2  0  0  0  0
 13 14  1  0  0  0  0
 14 17  1  0  0  0  0
 14 11  2  0  0  0  0
 15 16  1  0  0  0  0
 15 20  1  0  0  0  0
 17 15  2  0  0  0  0
 18 11  1  0  0  0  0
 20 19  2  0  0  0  0
 21 20  1  0  0  0  0
 22 23  1  0  0  0  0
 23 21  1  0  0  0  0
 24 29  1  0  0  0  0
 25 24  2  0  0  0  0
 26 27  1  0  0  0  0
 27 29  2  0  0  0  0
 28 26  2  0  0  0  0
 28 25  1  0  0  0  0
 29  1  1  0  0  0  0
 30 31  2  0  0  0  0
 30 26  1  0  0  0  0
 32 33  1  0  0  0  0
 32 28  1  0  0  0  0
 33 34  1  0  0  0  0
 34 35  1  0  0  0  0
 35 40  1  0  0  0  0
 35 39  1  0  0  0  0
 36 37  1  6  0  0  0
 36 38  1  0  0  0  0
 39 38  1  0  0  0  0
 40 36  1  0  0  0  0
M  END
>  <MODEL>
1

>  <REMARK>
 VINA RESULT:      -8.5      0.000      0.000
  Name = 
  10 active torsions:
  status: ('A' for Active; 'I' for Inactive)
    1  A    between atoms: C_2  and  C_36
    2  A    between atoms: N_3  and  C_10
    3  A    between atoms: C_6  and  C_30
    4  A    between atoms: C_8  and  C_27
    5  A    between atoms: C_8  and  O_37
    6  A    between atoms: C_10  and  N_32
    7  A    between atoms: C_14  and  N_32
    8  A    between atoms: C_14  and  C_34
    9  A    between atoms: C_25  and  C_26
   10  A    between atoms: C_31  and  O_37
                            x       y       z     vdW  Elec       q    Type
                         _______ _______ _______ _____ _____    ______ ____

>  <TORSDO>
F 10

$$$$
=
 OpenBabel10222421563D

 40 45  0  0  1  0  0  0  0  0999 V2000
  189.0430  175.4260  136.4480 C   0  0  0  0  0  0  0  0  0  0  0  0
  188.0470  174.8980  135.6180 C   0  0  0  0  0  3  0  0  0  0  0  0
  186.4150  176.2520  136.6210 N   0  0  0  0  0  0  0  0  0  0  0  0
  187.3320  176.8140  137.4490 C   0  0  0  0  0  3  0  0  0  0  0  0
  188.6690  176.4110  137.3910 C   0  0  0  0  0  0  0  0  0  0  0  0
  186.7630  175.3220  135.7320 N   0  0  0  0  0  0  0  0  0  0  0  0
  190.1040  176.6990  140.5770 C   0  0  0  0  0  0  0  0  0  0  0  0
  189.6780  177.1060  138.2600 C   0  0  2  0  0  3  0  0  0  0  0  0
  190.2270  176.1950  139.2620 N   0  0  0  0  0  2  0  0  0  0  0  0
  188.9290  178.5690  139.0990 S   0  0  0  0  0  0  0  0  0  0  0  0
  189.7510  177.8870  143.0320 C   0  0  0  0  0  0  0  0  0  0  0  0
  189.4650  177.9220  140.6690 C   0  0  0  0  0  0  0  0  0  0  0  0
  190.5810  176.0320  141.7150 C   0  0  0  0  0  3  0  0  0  0  0  0
  190.3910  176.6550  142.9540 C   0  0  0  0  0  0  0  0  0  0  0  0
  190.4680  177.0010  145.2430 C   0  0  0  0  0  0  0  0  0  0  0  0
  189.6780  178.3720  144.6320 S   0  0  0  0  0  0  0  0  0  0  0  0
  190.7980  176.1450  144.1880 C   0  0  0  0  0  3  0  0  0  0  0  0
  189.2710  178.5550  141.9030 C   0  0  0  0  0  3  0  0  0  0  0  0
  191.9230  176.9750  147.0960 O   0  0  0  0  0  0  0  0  0  0  0  0
  190.7500  176.7840  146.6800 C   0  0  0  0  0  0  0  0  0  0  0  0
  189.7850  176.3720  147.6090 O   0  0  0  0  0  0  0  0  0  0  0  0
  188.7780  178.3210  148.5720 C   0  0  0  0  0  1  0  0  0  0  0  0
  188.5440  177.0280  147.8220 C   0  0  0  0  0  2  0  0  0  0  0  0
  190.7240  173.5730  136.5310 C   0  0  0  0  0  3  0  0  0  0  0  0
  192.0290  173.0940  136.4120 C   0  0  0  0  0  3  0  0  0  0  0  0
  192.8020  175.3230  135.8370 C   0  0  0  0  0  0  0  0  0  0  0  0
  191.4860  175.7910  135.9620 C   0  0  0  0  0  3  0  0  0  0  0  0
  193.0710  173.9590  136.0590 C   0  0  0  0  0  0  0  0  0  0  0  0
  190.4350  174.9240  136.2960 C   0  0  0  0  0  0  0  0  0  0  0  0
  193.8840  176.2550  135.4760 C   0  0  0  0  0  3  0  0  0  0  0  0
  194.3820  177.0820  136.3390 N   0  0  0  0  0  2  0  0  0  0  0  0
  194.4570  173.4110  135.9680 C   0  0  0  0  0  2  0  0  0  0  0  0
  194.7500  172.6230  137.1520 N   0  0  0  0  0  2  0  0  0  0  0  0
  194.8880  173.5640  138.2590 C   0  0  0  0  0  2  0  0  0  0  0  0
  196.2090  173.4760  138.8870 N   0  0  0  0  0  0  0  0  0  0  0  0
  198.2080  174.5980  138.1120 C   0  0  1  0  0  3  0  0  0  0  0  0
  197.9690  175.6170  137.1890 O   0  0  0  0  0  1  0  0  0  0  0  0
  197.8680  175.0870  139.4960 C   0  0  0  0  0  2  0  0  0  0  0  0
  196.4380  174.6590  139.7110 C   0  0  0  0  0  2  0  0  0  0  0  0
  197.2450  173.4550  137.8550 C   0  0  0  0  0  2  0  0  0  0  0  0
  1  5  1  0  0  0  0
  2  6  1  0  0  0  0
  2  1  2  0  0  0  0
  3  4  1  0  0  0  0
  5  4  2  0  0  0  0
  6  3  2  0  0  0  0
  7 12  2  0  0  0  0
  7 13  1  0  0  0  0
  8  5  1  1  0  0  0
  8 10  1  0  0  0  0
  8  9  1  0  0  0  0
  9  7  1  0  0  0  0
 10 12  1  0  0  0  0
 11 16  1  0  0  0  0
 12 18  1  0  0  0  0
 13 14  2  0  0  0  0
 14 11  1  0  0  0  0
 14 17  1  0  0  0  0
 15 20  1  0  0  0  0
 16 15  1  0  0  0  0
 17 15  2  0  0  0  0
 18 11  2  0  0  0  0
 20 19  2  0  0  0  0
 20 21  1  0  0  0  0
 21 23  1  0  0  0  0
 23 22  1  0  0  0  0
 25 24  1  0  0  0  0
 26 27  2  0  0  0  0
 26 28  1  0  0  0  0
 27 29  1  0  0  0  0
 28 25  2  0  0  0  0
 29  1  1  0  0  0  0
 29 24  2  0  0  0  0
 30 26  1  0  0  0  0
 30 31  2  0  0  0  0
 32 28  1  0  0  0  0
 32 33  1  0  0  0  0
 33 34  1  0  0  0  0
 34 35  1  0  0  0  0
 35 39  1  0  0  0  0
 36 37  1  6  0  0  0
 36 38  1  0  0  0  0
 38 39  1  0  0  0  0
 40 36  1  0  0  0  0
 40 35  1  0  0  0  0
M  END
>  <MODEL>
2

>  <REMARK>
 VINA RESULT:      -7.6      4.485      6.901
  Name = 
  10 active torsions:
  status: ('A' for Active; 'I' for Inactive)
    1  A    between atoms: C_2  and  C_36
    2  A    between atoms: N_3  and  C_10
    3  A    between atoms: C_6  and  C_30
    4  A    between atoms: C_8  and  C_27
    5  A    between atoms: C_8  and  O_37
    6  A    between atoms: C_10  and  N_32
    7  A    between atoms: C_14  and  N_32
    8  A    between atoms: C_14  and  C_34
    9  A    between atoms: C_25  and  C_26
   10  A    between atoms: C_31  and  O_37
                            x       y       z     vdW  Elec       q    Type
                         _______ _______ _______ _____ _____    ______ ____

>  <TORSDO>
F 10

$$$$
=
 OpenBabel10222421563D

 40 45  0  0  1  0  0  0  0  0999 V2000
  189.4280  175.2990  136.3500 C   0  0  0  0  0  0  0  0  0  0  0  0
  188.5420  174.5610  135.5550 C   0  0  0  0  0  3  0  0  0  0  0  0
  186.7050  175.3100  136.8070 N   0  0  0  0  0  0  0  0  0  0  0  0
  187.5050  176.0570  137.6100 C   0  0  0  0  0  3  0  0  0  0  0  0
  188.8890  176.0660  137.4090 C   0  0  0  0  0  0  0  0  0  0  0  0
  187.2090  174.5850  135.8090 N   0  0  0  0  0  0  0  0  0  0  0  0
  190.2700  176.6780  140.5730 C   0  0  0  0  0  0  0  0  0  0  0  0
  189.7430  176.9630  138.2580 C   0  0  2  0  0  3  0  0  0  0  0  0
  190.4790  176.1950  139.2610 N   0  0  0  0  0  2  0  0  0  0  0  0
  188.7190  178.2500  139.0950 S   0  0  0  0  0  0  0  0  0  0  0  0
  189.7090  177.7970  143.0220 C   0  0  0  0  0  0  0  0  0  0  0  0
  189.3940  177.7450  140.6620 C   0  0  0  0  0  0  0  0  0  0  0  0
  190.8870  176.1360  141.7090 C   0  0  0  0  0  3  0  0  0  0  0  0
  190.5880  176.7210  142.9450 C   0  0  0  0  0  0  0  0  0  0  0  0
  190.6180  177.1020  145.2300 C   0  0  0  0  0  0  0  0  0  0  0  0
  189.5560  178.2740  144.6180 S   0  0  0  0  0  0  0  0  0  0  0  0
  191.1050  176.3200  144.1790 C   0  0  0  0  0  3  0  0  0  0  0  0
  189.0890  178.3390  141.8940 C   0  0  0  0  0  3  0  0  0  0  0  0
  192.0910  176.5150  146.9730 O   0  0  0  0  0  0  0  0  0  0  0  0
  190.9560  176.9640  146.6650 C   0  0  0  0  0  0  0  0  0  0  0  0
  190.0800  177.3010  147.7070 O   0  0  0  0  0  0  0  0  0  0  0  0
  187.8920  178.1630  148.1620 C   0  0  0  0  0  1  0  0  0  0  0  0
  188.7030  176.9570  147.7420 C   0  0  0  0  0  2  0  0  0  0  0  0
  191.4410  176.1200  135.1100 C   0  0  0  0  0  3  0  0  0  0  0  0
  192.8000  176.0570  134.7980 C   0  0  0  0  0  3  0  0  0  0  0  0
  193.0750  174.1980  136.3350 C   0  0  0  0  0  0  0  0  0  0  0  0
  191.7070  174.2720  136.6380 C   0  0  0  0  0  3  0  0  0  0  0  0
  193.6240  175.1070  135.4100 C   0  0  0  0  0  0  0  0  0  0  0  0
  190.8810  175.2350  136.0420 C   0  0  0  0  0  0  0  0  0  0  0  0
  193.9200  173.1810  136.9840 C   0  0  0  0  0  3  0  0  0  0  0  0
  194.4940  173.4020  138.1230 N   0  0  0  0  0  2  0  0  0  0  0  0
  195.0670  175.0570  135.0280 C   0  0  0  0  0  2  0  0  0  0  0  0
  195.8490  175.8350  135.9720 N   0  0  0  0  0  2  0  0  0  0  0  0
  197.1230  176.1270  135.3220 C   0  0  0  0  0  2  0  0  0  0  0  0
  198.2570  175.6000  136.0860 N   0  0  0  0  0  0  0  0  0  0  0  0
  198.3900  173.3840  137.0490 C   0  0  1  0  0  3  0  0  0  0  0  0
  197.4360  172.4910  136.5620 O   0  0  0  0  0  1  0  0  0  0  0  0
  199.4870  173.5500  136.0300 C   0  0  0  0  0  2  0  0  0  0  0  0
  199.0780  174.7560  135.2230 C   0  0  0  0  0  2  0  0  0  0  0  0
  197.7670  174.7610  137.1790 C   0  0  0  0  0  2  0  0  0  0  0  0
  1  5  1  0  0  0  0
  2  6  1  0  0  0  0
  2  1  2  0  0  0  0
  3  4  1  0  0  0  0
  5  4  2  0  0  0  0
  6  3  2  0  0  0  0
  7 12  2  0  0  0  0
  7 13  1  0  0  0  0
  8  5  1  1  0  0  0
  8 10  1  0  0  0  0
  8  9  1  0  0  0  0
  9  7  1  0  0  0  0
 10 12  1  0  0  0  0
 11 16  1  0  0  0  0
 12 18  1  0  0  0  0
 13 14  2  0  0  0  0
 14 11  1  0  0  0  0
 14 17  1  0  0  0  0
 15 20  1  0  0  0  0
 16 15  1  0  0  0  0
 17 15  2  0  0  0  0
 18 11  2  0  0  0  0
 20 19  2  0  0  0  0
 20 21  1  0  0  0  0
 21 23  1  0  0  0  0
 23 22  1  0  0  0  0
 24 29  1  0  0  0  0
 25 24  2  0  0  0  0
 25 28  1  0  0  0  0
 26 27  1  0  0  0  0
 26 30  1  0  0  0  0
 28 26  2  0  0  0  0
 29  1  1  0  0  0  0
 29 27  2  0  0  0  0
 30 31  2  0  0  0  0
 32 28  1  0  0  0  0
 32 33  1  0  0  0  0
 34 33  1  0  0  0  0
 34 35  1  0  0  0  0
 35 40  1  0  0  0  0
 36 37  1  6  0  0  0
 36 40  1  0  0  0  0
 38 36  1  0  0  0  0
 39 38  1  0  0  0  0
 39 35  1  0  0  0  0
M  END
>  <MODEL>
3

>  <REMARK>
 VINA RESULT:      -7.5      5.091      7.352
  Name = 
  10 active torsions:
  status: ('A' for Active; 'I' for Inactive)
    1  A    between atoms: C_2  and  C_36
    2  A    between atoms: N_3  and  C_10
    3  A    between atoms: C_6  and  C_30
    4  A    between atoms: C_8  and  C_27
    5  A    between atoms: C_8  and  O_37
    6  A    between atoms: C_10  and  N_32
    7  A    between atoms: C_14  and  N_32
    8  A    between atoms: C_14  and  C_34
    9  A    between atoms: C_25  and  C_26
   10  A    between atoms: C_31  and  O_37
                            x       y       z     vdW  Elec       q    Type
                         _______ _______ _______ _____ _____    ______ ____

>  <TORSDO>
F 10

$$$$
=
 OpenBabel10222421563D

 40 45  0  0  1  0  0  0  0  0999 V2000
  182.6490  175.9130  136.9510 C   0  0  0  0  0  0  0  0  0  0  0  0
  181.9390  174.8890  136.3130 C   0  0  0  0  0  3  0  0  0  0  0  0
  179.9840  175.4330  137.4890 N   0  0  0  0  0  0  0  0  0  0  0  0
  180.6070  176.4500  138.1370 C   0  0  0  0  0  3  0  0  0  0  0  0
  181.9590  176.7130  137.8920 C   0  0  0  0  0  0  0  0  0  0  0  0
  180.6310  174.6760  136.6030 N   0  0  0  0  0  0  0  0  0  0  0  0
  183.7870  177.9020  140.6360 C   0  0  0  0  0  0  0  0  0  0  0  0
  182.6040  177.8940  138.5590 C   0  0  2  0  0  3  0  0  0  0  0  0
  183.8100  177.4960  139.2830 N   0  0  0  0  0  2  0  0  0  0  0  0
  181.4300  178.7170  139.7210 S   0  0  0  0  0  0  0  0  0  0  0  0
  183.5120  178.7950  143.2230 C   0  0  0  0  0  0  0  0  0  0  0  0
  182.6320  178.5560  141.0240 C   0  0  0  0  0  0  0  0  0  0  0  0
  184.8390  177.6720  141.5360 C   0  0  0  0  0  3  0  0  0  0  0  0
  184.6780  178.1350  142.8470 C   0  0  0  0  0  0  0  0  0  0  0  0
  185.1630  178.5680  145.0700 C   0  0  0  0  0  0  0  0  0  0  0  0
  183.6170  179.2260  144.8370 S   0  0  0  0  0  0  0  0  0  0  0  0
  185.6130  178.0000  143.8750 C   0  0  0  0  0  3  0  0  0  0  0  0
  182.4610  179.0250  142.3330 C   0  0  0  0  0  3  0  0  0  0  0  0
  185.6420  179.5530  147.1560 O   0  0  0  0  0  0  0  0  0  0  0  0
  185.8920  178.6130  146.3580 C   0  0  0  0  0  0  0  0  0  0  0  0
  186.8520  177.6660  146.7420 O   0  0  0  0  0  0  0  0  0  0  0  0
  188.8790  177.4640  145.4810 C   0  0  0  0  0  1  0  0  0  0  0  0
  188.2500  177.9110  146.7830 C   0  0  0  0  0  2  0  0  0  0  0  0
  184.4980  177.2630  135.9400 C   0  0  0  0  0  3  0  0  0  0  0  0
  185.8390  177.4440  135.5960 C   0  0  0  0  0  3  0  0  0  0  0  0
  186.3880  175.2910  136.5740 C   0  0  0  0  0  0  0  0  0  0  0  0
  185.0370  175.1210  136.9110 C   0  0  0  0  0  3  0  0  0  0  0  0
  186.7890  176.4690  135.9160 C   0  0  0  0  0  0  0  0  0  0  0  0
  184.0830  176.1040  136.6110 C   0  0  0  0  0  0  0  0  0  0  0  0
  187.3690  174.2440  136.9110 C   0  0  0  0  0  3  0  0  0  0  0  0
  186.9980  173.0470  137.2340 N   0  0  0  0  0  2  0  0  0  0  0  0
  188.2090  176.6910  135.5080 C   0  0  0  0  0  2  0  0  0  0  0  0
  188.8190  177.6780  136.3800 N   0  0  0  0  0  2  0  0  0  0  0  0
  189.9180  177.0090  137.0690 C   0  0  0  0  0  2  0  0  0  0  0  0
  190.1750  177.5990  138.3850 N   0  0  0  0  0  0  0  0  0  0  0  0
  188.5090  178.6090  139.8200 C   0  0  1  0  0  3  0  0  0  0  0  0
  187.1930  178.3150  139.4620 O   0  0  0  0  0  1  0  0  0  0  0  0
  189.1140  177.4210  140.5210 C   0  0  0  0  0  2  0  0  0  0  0  0
  189.8070  176.6460  139.4280 C   0  0  0  0  0  2  0  0  0  0  0  0
  189.3410  178.7870  138.5640 C   0  0  0  0  0  2  0  0  0  0  0  0
  1  5  1  0  0  0  0
  2  6  1  0  0  0  0
  2  1  2  0  0  0  0
  3  4  1  0  0  0  0
  5  4  2  0  0  0  0
  6  3  2  0  0  0  0
  7 12  2  0  0  0  0
  7 13  1  0  0  0  0
  8  5  1  1  0  0  0
  8  9  1  0  0  0  0
  8 10  1  0  0  0  0
  9  7  1  0  0  0  0
 10 12  1  0  0  0  0
 11 16  1  0  0  0  0
 12 18  1  0  0  0  0
 13 14  2  0  0  0  0
 14 11  1  0  0  0  0
 14 17  1  0  0  0  0
 15 20  1  0  0  0  0
 16 15  1  0  0  0  0
 17 15  2  0  0  0  0
 18 11  2  0  0  0  0
 20 21  1  0  0  0  0
 20 19  2  0  0  0  0
 21 23  1  0  0  0  0
 22 23  1  0  0  0  0
 24 29  1  0  0  0  0
 25 28  1  0  0  0  0
 25 24  2  0  0  0  0
 26 30  1  0  0  0  0
 26 27  1  0  0  0  0
 28 26  2  0  0  0  0
 29 27  2  0  0  0  0
 29  1  1  0  0  0  0
 30 31  2  0  0  0  0
 32 28  1  0  0  0  0
 32 33  1  0  0  0  0
 33 34  1  0  0  0  0
 34 35  1  0  0  0  0
 35 40  1  0  0  0  0
 35 39  1  0  0  0  0
 36 37  1  6  0  0  0
 36 38  1  0  0  0  0
 39 38  1  0  0  0  0
 40 36  1  0  0  0  0
M  END
>  <MODEL>
4

>  <REMARK>
 VINA RESULT:      -7.3      1.868      2.700
  Name = 
  10 active torsions:
  status: ('A' for Active; 'I' for Inactive)
    1  A    between atoms: C_2  and  C_36
    2  A    between atoms: N_3  and  C_10
    3  A    between atoms: C_6  and  C_30
    4  A    between atoms: C_8  and  C_27
    5  A    between atoms: C_8  and  O_37
    6  A    between atoms: C_10  and  N_32
    7  A    between atoms: C_14  and  N_32
    8  A    between atoms: C_14  and  C_34
    9  A    between atoms: C_25  and  C_26
   10  A    between atoms: C_31  and  O_37
                            x       y       z     vdW  Elec       q    Type
                         _______ _______ _______ _____ _____    ______ ____

>  <TORSDO>
F 10

$$$$
=
 OpenBabel10222421563D

 40 45  0  0  1  0  0  0  0  0999 V2000
  190.6130  176.4050  138.1050 C   0  0  0  0  0  0  0  0  0  0  0  0
  191.3090  175.3670  137.4740 C   0  0  0  0  0  3  0  0  0  0  0  0
  190.2280  175.8040  135.4380 N   0  0  0  0  0  0  0  0  0  0  0  0
  189.5280  176.8310  135.9840 C   0  0  0  0  0  3  0  0  0  0  0  0
  189.6940  177.1540  137.3340 C   0  0  0  0  0  0  0  0  0  0  0  0
  191.0940  175.0950  136.1620 N   0  0  0  0  0  0  0  0  0  0  0  0
  187.6280  178.4130  139.8710 C   0  0  0  0  0  0  0  0  0  0  0  0
  188.9690  178.3450  137.8930 C   0  0  2  0  0  3  0  0  0  0  0  0
  188.9390  178.3050  139.3540 N   0  0  0  0  0  2  0  0  0  0  0  0
  187.2450  178.4320  137.2420 S   0  0  0  0  0  0  0  0  0  0  0  0
  184.9950  178.6380  140.6340 C   0  0  0  0  0  0  0  0  0  0  0  0
  186.6340  178.4980  138.9120 C   0  0  0  0  0  0  0  0  0  0  0  0
  187.3310  178.4340  141.2420 C   0  0  0  0  0  3  0  0  0  0  0  0
  185.9850  178.5490  141.6070 C   0  0  0  0  0  0  0  0  0  0  0  0
  184.1090  178.7120  142.9560 C   0  0  0  0  0  0  0  0  0  0  0  0
  183.5000  178.7690  141.3740 S   0  0  0  0  0  0  0  0  0  0  0  0
  185.5010  178.5880  142.9160 C   0  0  0  0  0  3  0  0  0  0  0  0
  185.2840  178.6150  139.2670 C   0  0  0  0  0  3  0  0  0  0  0  0
  182.0470  178.4780  144.0710 O   0  0  0  0  0  0  0  0  0  0  0  0
  183.2620  178.7880  144.1690 C   0  0  0  0  0  0  0  0  0  0  0  0
  183.7370  179.1910  145.4250 O   0  0  0  0  0  0  0  0  0  0  0  0
  185.6110  179.1630  146.9160 C   0  0  0  0  0  1  0  0  0  0  0  0
  184.4810  178.3630  146.3060 C   0  0  0  0  0  2  0  0  0  0  0  0
  191.9410  177.4830  139.9330 C   0  0  0  0  0  3  0  0  0  0  0  0
  192.2080  177.7150  141.2830 C   0  0  0  0  0  3  0  0  0  0  0  0
  190.3450  176.2860  141.9030 C   0  0  0  0  0  0  0  0  0  0  0  0
  190.0910  176.0600  140.5430 C   0  0  0  0  0  3  0  0  0  0  0  0
  191.4120  177.1280  142.2720 C   0  0  0  0  0  0  0  0  0  0  0  0
  190.8730  176.6620  139.5460 C   0  0  0  0  0  0  0  0  0  0  0  0
  189.5010  175.6470  142.9270 C   0  0  0  0  0  3  0  0  0  0  0  0
  188.2360  175.9050  143.0200 N   0  0  0  0  0  2  0  0  0  0  0  0
  191.7470  177.3820  143.7050 C   0  0  0  0  0  2  0  0  0  0  0  0
  191.5870  178.7950  144.0020 N   0  0  0  0  0  2  0  0  0  0  0  0
  190.4340  178.9100  144.8890 C   0  0  0  0  0  2  0  0  0  0  0  0
  190.0840  177.6230  145.4960 N   0  0  0  0  0  0  0  0  0  0  0  0
  189.6800  177.2470  147.8520 C   0  0  1  0  0  3  0  0  0  0  0  0
  189.4830  178.4130  148.5910 O   0  0  0  0  0  1  0  0  0  0  0  0
  188.4280  176.9280  147.0760 C   0  0  0  0  0  2  0  0  0  0  0  0
  188.6430  177.5680  145.7270 C   0  0  0  0  0  2  0  0  0  0  0  0
  190.7410  177.4960  146.7960 C   0  0  0  0  0  2  0  0  0  0  0  0
  1 29  1  0  0  0  0
  2  1  1  0  0  0  0
  3  4  2  0  0  0  0
  3  6  1  0  0  0  0
  4  5  1  0  0  0  0
  5  1  2  0  0  0  0
  6  2  2  0  0  0  0
  7 13  1  0  0  0  0
  8  5  1  6  0  0  0
  8  9  1  0  0  0  0
  9  7  1  0  0  0  0
 10  8  1  0  0  0  0
 10 12  1  0  0  0  0
 11 16  1  0  0  0  0
 11 14  1  0  0  0  0
 12 18  1  0  0  0  0
 12  7  2  0  0  0  0
 13 14  2  0  0  0  0
 14 17  1  0  0  0  0
 15 20  1  0  0  0  0
 16 15  1  0  0  0  0
 17 15  2  0  0  0  0
 18 11  2  0  0  0  0
 19 20  2  0  0  0  0
 20 21  1  0  0  0  0
 21 23  1  0  0  0  0
 23 22  1  0  0  0  0
 24 25  1  0  0  0  0
 25 28  2  0  0  0  0
 26 28  1  0  0  0  0
 26 30  1  0  0  0  0
 27 26  2  0  0  0  0
 28 32  1  0  0  0  0
 29 24  2  0  0  0  0
 29 27  1  0  0  0  0
 30 31  2  0  0  0  0
 32 33  1  0  0  0  0
 33 34  1  0  0  0  0
 34 35  1  0  0  0  0
 35 39  1  0  0  0  0
 35 40  1  0  0  0  0
 36 37  1  6  0  0  0
 38 36  1  0  0  0  0
 39 38  1  0  0  0  0
 40 36  1  0  0  0  0
M  END
>  <MODEL>
5

>  <REMARK>
 VINA RESULT:      -7.3      3.335      7.167
  Name = 
  10 active torsions:
  status: ('A' for Active; 'I' for Inactive)
    1  A    between atoms: C_2  and  C_36
    2  A    between atoms: N_3  and  C_10
    3  A    between atoms: C_6  and  C_30
    4  A    between atoms: C_8  and  C_27
    5  A    between atoms: C_8  and  O_37
    6  A    between atoms: C_10  and  N_32
    7  A    between atoms: C_14  and  N_32
    8  A    between atoms: C_14  and  C_34
    9  A    between atoms: C_25  and  C_26
   10  A    between atoms: C_31  and  O_37
                            x       y       z     vdW  Elec       q    Type
                         _______ _______ _______ _____ _____    ______ ____

>  <TORSDO>
F 10

$$$$
=
 OpenBabel10222421563D

 40 45  0  0  1  0  0  0  0  0999 V2000
  182.4910  179.1730  139.3390 C   0  0  0  0  0  0  0  0  0  0  0  0
  182.3260  180.4680  138.8340 C   0  0  0  0  0  3  0  0  0  0  0  0
  181.1700  179.6520  136.9630 N   0  0  0  0  0  0  0  0  0  0  0  0
  181.2840  178.3720  137.3990 C   0  0  0  0  0  3  0  0  0  0  0  0
  181.9540  178.0960  138.5950 C   0  0  0  0  0  0  0  0  0  0  0  0
  181.6750  180.6690  137.6600 N   0  0  0  0  0  0  0  0  0  0  0  0
  183.0430  174.8100  138.0410 C   0  0  0  0  0  0  0  0  0  0  0  0
  181.9960  176.6810  139.0980 C   0  0  2  0  0  3  0  0  0  0  0  0
  183.2500  176.0280  138.7280 N   0  0  0  0  0  2  0  0  0  0  0  0
  180.5740  175.7060  138.4410 S   0  0  0  0  0  0  0  0  0  0  0  0
  182.3870  172.4830  136.7280 C   0  0  0  0  0  0  0  0  0  0  0  0
  181.7150  174.4900  137.8200 C   0  0  0  0  0  0  0  0  0  0  0  0
  184.0830  173.9750  137.6060 C   0  0  0  0  0  3  0  0  0  0  0  0
  183.7260  172.7960  136.9410 C   0  0  0  0  0  0  0  0  0  0  0  0
  183.9570  170.7770  135.8300 C   0  0  0  0  0  0  0  0  0  0  0  0
  182.2810  171.0240  135.9170 S   0  0  0  0  0  0  0  0  0  0  0  0
  184.6190  171.8460  136.4400 C   0  0  0  0  0  3  0  0  0  0  0  0
  181.3480  173.3130  137.1560 C   0  0  0  0  0  3  0  0  0  0  0  0
  183.8620  168.5930  134.9500 O   0  0  0  0  0  0  0  0  0  0  0  0
  184.5840  169.5930  135.1980 C   0  0  0  0  0  0  0  0  0  0  0  0
  185.9430  169.5200  134.8610 O   0  0  0  0  0  0  0  0  0  0  0  0
  188.0830  168.5010  135.2100 C   0  0  0  0  0  1  0  0  0  0  0  0
  186.6680  168.3090  134.7080 C   0  0  0  0  0  2  0  0  0  0  0  0
  184.6170  178.8950  140.6300 C   0  0  0  0  0  3  0  0  0  0  0  0
  185.3110  178.7100  141.8260 C   0  0  0  0  0  3  0  0  0  0  0  0
  183.2140  178.7040  143.0500 C   0  0  0  0  0  0  0  0  0  0  0  0
  182.5290  178.8880  141.8390 C   0  0  0  0  0  3  0  0  0  0  0  0
  184.6190  178.6210  143.0390 C   0  0  0  0  0  0  0  0  0  0  0  0
  183.2190  178.9980  140.6230 C   0  0  0  0  0  0  0  0  0  0  0  0
  182.4620  178.6010  144.3130 C   0  0  0  0  0  3  0  0  0  0  0  0
  181.1830  178.7920  144.3580 N   0  0  0  0  0  2  0  0  0  0  0  0
  185.3990  178.3970  144.2930 C   0  0  0  0  0  2  0  0  0  0  0  0
  186.7460  177.9690  143.9620 N   0  0  0  0  0  2  0  0  0  0  0  0
  187.4570  177.8070  145.2250 C   0  0  0  0  0  2  0  0  0  0  0  0
  188.6650  176.9910  145.0690 N   0  0  0  0  0  0  0  0  0  0  0  0
  190.7360  177.7300  144.0600 C   0  0  1  0  0  3  0  0  0  0  0  0
  190.8360  179.1130  143.9100 O   0  0  0  0  0  1  0  0  0  0  0  0
  190.9880  177.3630  145.5000 C   0  0  0  0  0  2  0  0  0  0  0  0
  189.6160  177.3190  146.1260 C   0  0  0  0  0  2  0  0  0  0  0  0
  189.3060  177.3000  143.7920 C   0  0  0  0  0  2  0  0  0  0  0  0
  1 29  1  0  0  0  0
  2  1  1  0  0  0  0
  3  4  2  0  0  0  0
  3  6  1  0  0  0  0
  4  5  1  0  0  0  0
  5  1  2  0  0  0  0
  6  2  2  0  0  0  0
  7  9  1  0  0  0  0
  8  5  1  6  0  0  0
  9  8  1  0  0  0  0
 10  8  1  0  0  0  0
 11 14  2  0  0  0  0
 11 18  1  0  0  0  0
 12  7  1  0  0  0  0
 12 10  1  0  0  0  0
 13  7  2  0  0  0  0
 14 13  1  0  0  0  0
 15 16  1  0  0  0  0
 15 17  2  0  0  0  0
 16 11  1  0  0  0  0
 17 14  1  0  0  0  0
 18 12  2  0  0  0  0
 19 20  2  0  0  0  0
 20 15  1  0  0  0  0
 21 20  1  0  0  0  0
 23 21  1  0  0  0  0
 23 22  1  0  0  0  0
 24 25  1  0  0  0  0
 25 28  2  0  0  0  0
 26 30  1  0  0  0  0
 27 26  2  0  0  0  0
 28 26  1  0  0  0  0
 28 32  1  0  0  0  0
 29 24  2  0  0  0  0
 29 27  1  0  0  0  0
 30 31  2  0  0  0  0
 33 32  1  0  0  0  0
 33 34  1  0  0  0  0
 35 34  1  0  0  0  0
 35 39  1  0  0  0  0
 36 37  1  1  0  0  0
 36 38  1  0  0  0  0
 38 39  1  0  0  0  0
 40 36  1  0  0  0  0
 40 35  1  0  0  0  0
M  END
>  <MODEL>
6

>  <REMARK>
 VINA RESULT:      -7.1      4.666      8.557
  Name = 
  10 active torsions:
  status: ('A' for Active; 'I' for Inactive)
    1  A    between atoms: C_2  and  C_36
    2  A    between atoms: N_3  and  C_10
    3  A    between atoms: C_6  and  C_30
    4  A    between atoms: C_8  and  C_27
    5  A    between atoms: C_8  and  O_37
    6  A    between atoms: C_10  and  N_32
    7  A    between atoms: C_14  and  N_32
    8  A    between atoms: C_14  and  C_34
    9  A    between atoms: C_25  and  C_26
   10  A    between atoms: C_31  and  O_37
                            x       y       z     vdW  Elec       q    Type
                         _______ _______ _______ _____ _____    ______ ____

>  <TORSDO>
F 10

$$$$
=
 OpenBabel10222421563D

 40 45  0  0  1  0  0  0  0  0999 V2000
  189.1640  177.2490  145.2950 C   0  0  0  0  0  0  0  0  0  0  0  0
  189.2720  176.6930  146.5750 C   0  0  0  0  0  3  0  0  0  0  0  0
  191.5970  176.4750  146.3460 N   0  0  0  0  0  0  0  0  0  0  0  0
  191.5660  177.0180  145.1020 C   0  0  0  0  0  3  0  0  0  0  0  0
  190.3480  177.4120  144.5390 C   0  0  0  0  0  0  0  0  0  0  0  0
  190.4830  176.3190  147.0610 N   0  0  0  0  0  0  0  0  0  0  0  0
  190.4440  177.0220  141.0560 C   0  0  0  0  0  0  0  0  0  0  0  0
  190.3500  178.0840  143.1950 C   0  0  2  0  0  3  0  0  0  0  0  0
  189.6530  177.2730  142.2000 N   0  0  0  0  0  2  0  0  0  0  0  0
  192.0750  178.4140  142.6260 S   0  0  0  0  0  0  0  0  0  0  0  0
  192.1710  176.6690  138.9440 C   0  0  0  0  0  0  0  0  0  0  0  0
  191.7220  177.5500  141.1100 C   0  0  0  0  0  0  0  0  0  0  0  0
  189.9960  176.2960  139.9430 C   0  0  0  0  0  3  0  0  0  0  0  0
  190.8900  176.1290  138.8800 C   0  0  0  0  0  0  0  0  0  0  0  0
  191.7150  175.4520  136.8240 C   0  0  0  0  0  0  0  0  0  0  0  0
  192.9960  176.3080  137.5340 S   0  0  0  0  0  0  0  0  0  0  0  0
  190.6220  175.4410  137.6940 C   0  0  0  0  0  3  0  0  0  0  0  0
  192.6240  177.3900  140.0510 C   0  0  0  0  0  3  0  0  0  0  0  0
  190.7640  174.8770  134.7460 O   0  0  0  0  0  0  0  0  0  0  0  0
  191.7840  174.8280  135.4830 C   0  0  0  0  0  0  0  0  0  0  0  0
  192.9220  174.1790  134.9830 O   0  0  0  0  0  0  0  0  0  0  0  0
  194.0250  172.5530  136.3520 C   0  0  0  0  0  1  0  0  0  0  0  0
  193.1800  172.7900  135.1200 C   0  0  0  0  0  2  0  0  0  0  0  0
  187.5540  177.6520  143.4210 C   0  0  0  0  0  3  0  0  0  0  0  0
  186.3000  178.0330  142.9410 C   0  0  0  0  0  3  0  0  0  0  0  0
  185.5380  178.4130  145.2150 C   0  0  0  0  0  0  0  0  0  0  0  0
  186.8030  178.0300  145.6830 C   0  0  0  0  0  3  0  0  0  0  0  0
  185.2860  178.4060  143.8300 C   0  0  0  0  0  0  0  0  0  0  0  0
  187.8170  177.6360  144.7980 C   0  0  0  0  0  0  0  0  0  0  0  0
  184.4900  178.8140  146.1700 C   0  0  0  0  0  3  0  0  0  0  0  0
  184.4800  178.3790  147.3890 N   0  0  0  0  0  2  0  0  0  0  0  0
  183.9670  178.8310  143.2730 C   0  0  0  0  0  2  0  0  0  0  0  0
  183.7680  178.2250  141.9690 N   0  0  0  0  0  2  0  0  0  0  0  0
  182.3510  178.3630  141.6530 C   0  0  0  0  0  2  0  0  0  0  0  0
  182.1030  178.2700  140.2110 N   0  0  0  0  0  0  0  0  0  0  0  0
  183.2930  179.5020  138.5020 C   0  0  1  0  0  3  0  0  0  0  0  0
  184.4780  180.0920  138.9430 O   0  0  0  0  0  1  0  0  0  0  0  0
  183.5150  178.0260  138.2960 C   0  0  0  0  0  2  0  0  0  0  0  0
  183.0970  177.3930  139.6000 C   0  0  0  0  0  2  0  0  0  0  0  0
  182.2500  179.5910  139.6000 C   0  0  0  0  0  2  0  0  0  0  0  0
  1  2  1  0  0  0  0
  2  6  2  0  0  0  0
  3  6  1  0  0  0  0
  4  3  2  0  0  0  0
  5  4  1  0  0  0  0
  5  1  2  0  0  0  0
  7 12  1  0  0  0  0
  7  9  1  0  0  0  0
  8  5  1  1  0  0  0
  9  8  1  0  0  0  0
 10  8  1  0  0  0  0
 11 18  1  0  0  0  0
 12 10  1  0  0  0  0
 13  7  2  0  0  0  0
 14 11  2  0  0  0  0
 14 13  1  0  0  0  0
 15 16  1  0  0  0  0
 15 17  2  0  0  0  0
 16 11  1  0  0  0  0
 17 14  1  0  0  0  0
 18 12  2  0  0  0  0
 19 20  2  0  0  0  0
 20 15  1  0  0  0  0
 21 23  1  0  0  0  0
 21 20  1  0  0  0  0
 23 22  1  0  0  0  0
 24 29  1  0  0  0  0
 25 24  2  0  0  0  0
 25 28  1  0  0  0  0
 26 27  1  0  0  0  0
 26 30  1  0  0  0  0
 28 26  2  0  0  0  0
 29  1  1  0  0  0  0
 29 27  2  0  0  0  0
 30 31  2  0  0  0  0
 32 28  1  0  0  0  0
 33 32  1  0  0  0  0
 34 33  1  0  0  0  0
 35 34  1  0  0  0  0
 36 37  1  1  0  0  0
 36 40  1  0  0  0  0
 38 36  1  0  0  0  0
 38 39  1  0  0  0  0
 39 35  1  0  0  0  0
 40 35  1  0  0  0  0
M  END
>  <MODEL>
7

>  <REMARK>
 VINA RESULT:      -7.1      4.155      9.271
  Name = 
  10 active torsions:
  status: ('A' for Active; 'I' for Inactive)
    1  A    between atoms: C_2  and  C_36
    2  A    between atoms: N_3  and  C_10
    3  A    between atoms: C_6  and  C_30
    4  A    between atoms: C_8  and  C_27
    5  A    between atoms: C_8  and  O_37
    6  A    between atoms: C_10  and  N_32
    7  A    between atoms: C_14  and  N_32
    8  A    between atoms: C_14  and  C_34
    9  A    between atoms: C_25  and  C_26
   10  A    between atoms: C_31  and  O_37
                            x       y       z     vdW  Elec       q    Type
                         _______ _______ _______ _____ _____    ______ ____

>  <TORSDO>
F 10

$$$$
=
 OpenBabel10222421563D

 40 45  0  0  1  0  0  0  0  0999 V2000
  180.8000  179.3500  137.8110 C   0  0  0  0  0  0  0  0  0  0  0  0
  180.3640  180.4560  137.0710 C   0  0  0  0  0  3  0  0  0  0  0  0
  180.1290  181.7400  139.0200 N   0  0  0  0  0  0  0  0  0  0  0  0
  180.5540  180.7120  139.7970 C   0  0  0  0  0  3  0  0  0  0  0  0
  180.8940  179.4870  139.2160 C   0  0  0  0  0  0  0  0  0  0  0  0
  180.0370  181.6150  137.6960 N   0  0  0  0  0  0  0  0  0  0  0  0
  182.4680  178.6390  142.2320 C   0  0  0  0  0  0  0  0  0  0  0  0
  181.4390  178.3920  140.0880 C   0  0  2  0  0  3  0  0  0  0  0  0
  181.2580  178.7070  141.5040 N   0  0  0  0  0  2  0  0  0  0  0  0
  183.2290  178.1040  139.7430 S   0  0  0  0  0  0  0  0  0  0  0  0
  184.9370  178.4430  143.4280 C   0  0  0  0  0  0  0  0  0  0  0  0
  183.5820  178.3290  141.4730 C   0  0  0  0  0  0  0  0  0  0  0  0
  182.5590  178.8650  143.6130 C   0  0  0  0  0  3  0  0  0  0  0  0
  183.8240  178.7600  144.2010 C   0  0  0  0  0  0  0  0  0  0  0  0
  185.4660  178.7710  145.8360 C   0  0  0  0  0  0  0  0  0  0  0  0
  186.2930  178.3880  144.4060 S   0  0  0  0  0  0  0  0  0  0  0  0
  184.1070  178.9480  145.5550 C   0  0  0  0  0  3  0  0  0  0  0  0
  184.8530  178.2200  142.0520 C   0  0  0  0  0  3  0  0  0  0  0  0
  185.9820  179.9620  147.8020 O   0  0  0  0  0  0  0  0  0  0  0  0
  186.1180  178.8880  147.1600 C   0  0  0  0  0  0  0  0  0  0  0  0
  186.8830  177.8680  147.7430 O   0  0  0  0  0  0  0  0  0  0  0  0
  189.2490  178.0390  148.0750 C   0  0  0  0  0  1  0  0  0  0  0  0
  188.1390  177.4250  147.2500 C   0  0  0  0  0  2  0  0  0  0  0  0
  182.1440  178.0980  136.1110 C   0  0  0  0  0  3  0  0  0  0  0  0
  182.4560  176.9330  135.4100 C   0  0  0  0  0  3  0  0  0  0  0  0
  180.7370  175.7290  136.6310 C   0  0  0  0  0  0  0  0  0  0  0  0
  180.4330  176.9080  137.3270 C   0  0  0  0  0  3  0  0  0  0  0  0
  181.7640  175.7450  135.6680 C   0  0  0  0  0  0  0  0  0  0  0  0
  181.1370  178.0970  137.0860 C   0  0  0  0  0  0  0  0  0  0  0  0
  179.9870  174.4930  136.9120 C   0  0  0  0  0  3  0  0  0  0  0  0
  180.4000  173.6330  137.7870 N   0  0  0  0  0  2  0  0  0  0  0  0
  182.1120  174.5270  134.8770 C   0  0  0  0  0  2  0  0  0  0  0  0
  183.5200  174.2180  135.0470 N   0  0  0  0  0  2  0  0  0  0  0  0
  183.6190  173.3270  136.1980 C   0  0  0  0  0  2  0  0  0  0  0  0
  184.6130  173.7960  137.1660 N   0  0  0  0  0  0  0  0  0  0  0  0
  187.0000  173.4280  137.0160 C   0  0  1  0  0  3  0  0  0  0  0  0
  187.4340  173.0020  135.7600 O   0  0  0  0  0  1  0  0  0  0  0  0
  186.7220  174.9080  136.9740 C   0  0  0  0  0  2  0  0  0  0  0  0
  185.2500  175.0100  136.6640 C   0  0  0  0  0  2  0  0  0  0  0  0
  185.6610  172.7870  137.3250 C   0  0  0  0  0  2  0  0  0  0  0  0
  1  5  1  0  0  0  0
  2  6  1  0  0  0  0
  2  1  2  0  0  0  0
  3  4  1  0  0  0  0
  5  4  2  0  0  0  0
  6  3  2  0  0  0  0
  7 13  1  0  0  0  0
  8  5  1  6  0  0  0
  8  9  1  0  0  0  0
  9  7  1  0  0  0  0
 10  8  1  0  0  0  0
 10 12  1  0  0  0  0
 11 14  1  0  0  0  0
 11 16  1  0  0  0  0
 12 18  1  0  0  0  0
 12  7  2  0  0  0  0
 13 14  2  0  0  0  0
 14 17  1  0  0  0  0
 15 20  1  0  0  0  0
 16 15  1  0  0  0  0
 17 15  2  0  0  0  0
 18 11  2  0  0  0  0
 20 21  1  0  0  0  0
 20 19  2  0  0  0  0
 23 21  1  0  0  0  0
 23 22  1  0  0  0  0
 24 29  1  0  0  0  0
 25 28  1  0  0  0  0
 25 24  2  0  0  0  0
 26 30  1  0  0  0  0
 26 27  1  0  0  0  0
 28 26  2  0  0  0  0
 29 27  2  0  0  0  0
 29  1  1  0  0  0  0
 30 31  2  0  0  0  0
 32 33  1  0  0  0  0
 32 28  1  0  0  0  0
 33 34  1  0  0  0  0
 34 35  1  0  0  0  0
 35 40  1  0  0  0  0
 36 37  1  6  0  0  0
 36 40  1  0  0  0  0
 38 36  1  0  0  0  0
 39 38  1  0  0  0  0
 39 35  1  0  0  0  0
M  END
>  <MODEL>
8

>  <REMARK>
 VINA RESULT:      -7.0      3.196      4.578
  Name = 
  10 active torsions:
  status: ('A' for Active; 'I' for Inactive)
    1  A    between atoms: C_2  and  C_36
    2  A    between atoms: N_3  and  C_10
    3  A    between atoms: C_6  and  C_30
    4  A    between atoms: C_8  and  C_27
    5  A    between atoms: C_8  and  O_37
    6  A    between atoms: C_10  and  N_32
    7  A    between atoms: C_14  and  N_32
    8  A    between atoms: C_14  and  C_34
    9  A    between atoms: C_25  and  C_26
   10  A    between atoms: C_31  and  O_37
                            x       y       z     vdW  Elec       q    Type
                         _______ _______ _______ _____ _____    ______ ____

>  <TORSDO>
F 10

$$$$
=
 OpenBabel10222421563D

 40 45  0  0  1  0  0  0  0  0999 V2000
  191.3840  175.5020  136.8890 C   0  0  0  0  0  0  0  0  0  0  0  0
  192.0960  174.4940  136.2290 C   0  0  0  0  0  3  0  0  0  0  0  0
  193.9740  174.8510  137.5890 N   0  0  0  0  0  0  0  0  0  0  0  0
  193.3380  175.8320  138.2780 C   0  0  0  0  0  3  0  0  0  0  0  0
  192.0290  176.1900  137.9430 C   0  0  0  0  0  0  0  0  0  0  0  0
  193.3700  174.2010  136.5950 N   0  0  0  0  0  0  0  0  0  0  0  0
  191.3030  177.3850  141.1580 C   0  0  0  0  0  0  0  0  0  0  0  0
  191.3200  177.2220  138.7730 C   0  0  2  0  0  3  0  0  0  0  0  0
  192.0760  177.5340  139.9840 N   0  0  0  0  0  2  0  0  0  0  0  0
  189.6270  176.6480  139.2320 S   0  0  0  0  0  0  0  0  0  0  0  0
  189.6030  177.0250  143.2900 C   0  0  0  0  0  0  0  0  0  0  0  0
  190.0090  176.9430  140.9450 C   0  0  0  0  0  0  0  0  0  0  0  0
  191.7850  177.6550  142.4470 C   0  0  0  0  0  3  0  0  0  0  0  0
  190.9030  177.4650  143.5170 C   0  0  0  0  0  0  0  0  0  0  0  0
  190.1120  177.4080  145.6940 C   0  0  0  0  0  0  0  0  0  0  0  0
  188.7970  176.8980  144.7510 S   0  0  0  0  0  0  0  0  0  0  0  0
  191.2030  177.6830  144.8630 C   0  0  0  0  0  3  0  0  0  0  0  0
  189.1180  176.7520  142.0090 C   0  0  0  0  0  3  0  0  0  0  0  0
  190.9430  176.9290  147.8460 O   0  0  0  0  0  0  0  0  0  0  0  0
  190.0700  177.5320  147.1690 C   0  0  0  0  0  0  0  0  0  0  0  0
  189.1090  178.2840  147.8590 O   0  0  0  0  0  0  0  0  0  0  0  0
  186.7480  178.4120  147.4770 C   0  0  0  0  0  1  0  0  0  0  0  0
  187.8550  177.7800  148.2930 C   0  0  0  0  0  2  0  0  0  0  0  0
  189.7170  176.9740  135.7400 C   0  0  0  0  0  3  0  0  0  0  0  0
  188.4140  177.2720  135.3400 C   0  0  0  0  0  3  0  0  0  0  0  0
  187.6200  175.2220  136.3690 C   0  0  0  0  0  0  0  0  0  0  0  0
  188.9350  174.9360  136.7670 C   0  0  0  0  0  3  0  0  0  0  0  0
  187.3630  176.4000  135.6430 C   0  0  0  0  0  0  0  0  0  0  0  0
  189.9950  175.7970  136.4490 C   0  0  0  0  0  0  0  0  0  0  0  0
  186.5290  174.2930  136.7110 C   0  0  0  0  0  3  0  0  0  0  0  0
  186.7580  173.1680  137.3070 N   0  0  0  0  0  2  0  0  0  0  0  0
  185.9800  176.7690  135.2170 C   0  0  0  0  0  2  0  0  0  0  0  0
  185.4330  177.7530  136.1340 N   0  0  0  0  0  2  0  0  0  0  0  0
  184.1650  177.2170  136.6190 C   0  0  0  0  0  2  0  0  0  0  0  0
  184.1180  177.1720  138.0820 N   0  0  0  0  0  0  0  0  0  0  0  0
  184.5140  179.0480  139.5580 C   0  0  1  0  0  3  0  0  0  0  0  0
  184.4810  180.2900  138.9230 O   0  0  0  0  0  1  0  0  0  0  0  0
  183.1050  178.5500  139.7550 C   0  0  0  0  0  2  0  0  0  0  0  0
  182.8340  177.6900  138.5460 C   0  0  0  0  0  2  0  0  0  0  0  0
  185.1620  178.0330  138.6370 C   0  0  0  0  0  2  0  0  0  0  0  0
  1  5  1  0  0  0  0
  2  6  1  0  0  0  0
  2  1  2  0  0  0  0
  3  4  1  0  0  0  0
  5  4  2  0  0  0  0
  6  3  2  0  0  0  0
  7 13  1  0  0  0  0
  8  5  1  1  0  0  0
  8 10  1  0  0  0  0
  8  9  1  0  0  0  0
  9  7  1  0  0  0  0
 10 12  1  0  0  0  0
 11 14  1  0  0  0  0
 11 16  1  0  0  0  0
 12  7  2  0  0  0  0
 12 18  1  0  0  0  0
 13 14  2  0  0  0  0
 14 17  1  0  0  0  0
 15 20  1  0  0  0  0
 16 15  1  0  0  0  0
 17 15  2  0  0  0  0
 18 11  2  0  0  0  0
 20 19  2  0  0  0  0
 20 21  1  0  0  0  0
 21 23  1  0  0  0  0
 22 23  1  0  0  0  0
 24 29  1  0  0  0  0
 25 28  1  0  0  0  0
 25 24  2  0  0  0  0
 26 30  1  0  0  0  0
 26 27  1  0  0  0  0
 28 26  2  0  0  0  0
 29 27  2  0  0  0  0
 29  1  1  0  0  0  0
 30 31  2  0  0  0  0
 32 28  1  0  0  0  0
 32 33  1  0  0  0  0
 33 34  1  0  0  0  0
 34 35  1  0  0  0  0
 35 39  1  0  0  0  0
 35 40  1  0  0  0  0
 36 37  1  6  0  0  0
 36 38  1  0  0  0  0
 39 38  1  0  0  0  0
 40 36  1  0  0  0  0
M  END
>  <MODEL>
9

>  <REMARK>
 VINA RESULT:      -7.0      3.070      6.720
  Name = 
  10 active torsions:
  status: ('A' for Active; 'I' for Inactive)
    1  A    between atoms: C_2  and  C_36
    2  A    between atoms: N_3  and  C_10
    3  A    between atoms: C_6  and  C_30
    4  A    between atoms: C_8  and  C_27
    5  A    between atoms: C_8  and  O_37
    6  A    between atoms: C_10  and  N_32
    7  A    between atoms: C_14  and  N_32
    8  A    between atoms: C_14  and  C_34
    9  A    between atoms: C_25  and  C_26
   10  A    between atoms: C_31  and  O_37
                            x       y       z     vdW  Elec       q    Type
                         _______ _______ _______ _____ _____    ______ ____

>  <TORSDO>
F 10

$$$$
