=
 OpenBabel10232410263D

 33 37  0  0  1  0  0  0  0  0999 V2000
  186.9740  177.9340  143.4520 C   0  0  0  0  0  0  0  0  0  0  0  0
  187.6790  178.0120  148.2830 N   0  0  0  0  0  0  0  0  0  0  0  0
  189.2990  177.2650  144.3820 C   0  0  2  0  0  0  0  0  0  0  0  0
  188.3540  177.6630  143.4520 N   0  0  0  0  0  0  0  0  0  0  0  0
  189.7670  178.2530  143.5410 C   0  0  0  0  0  0  0  0  0  0  0  0
  185.0480  178.3340  144.8470 C   0  0  0  0  0  3  0  0  0  0  0  0
  189.7430  175.9680  144.1260 O   0  0  0  0  0  1  0  0  0  0  0  0
  186.2130  178.0890  142.2970 C   0  0  0  0  0  3  0  0  0  0  0  0
  189.5320  177.4610  146.8780 C   0  0  0  0  0  3  0  0  0  0  0  0
  188.7140  177.5610  145.7520 C   0  0  0  0  0  0  0  0  0  0  0  0
  188.9920  177.6940  148.1440 C   0  0  0  0  0  3  0  0  0  0  0  0
  184.2660  178.4890  143.6940 C   0  0  0  0  0  3  0  0  0  0  0  0
  186.4170  178.0540  144.7290 C   0  0  0  0  0  0  0  0  0  0  0  0
  190.6400  179.0860  143.1850 O   0  0  0  0  0  0  0  0  0  0  0  0
  184.8430  178.3730  142.4200 C   0  0  0  0  0  0  0  0  0  0  0  0
  186.8480  178.1190  147.2120 C   0  0  0  0  0  3  0  0  0  0  0  0
  187.3290  177.9000  145.9150 C   0  0  0  0  0  0  0  0  0  0  0  0
  183.9800  178.5480  141.2050 C   0  0  1  0  0  3  0  0  0  0  0  0
  184.9730  179.0960  138.8900 C   0  0  0  0  0  0  0  0  0  0  0  0
  184.7290  178.2130  139.9990 N   0  0  0  0  0  2  0  0  0  0  0  0
  184.1570  180.0540  138.5610 N   0  0  0  0  0  0  0  0  0  0  0  0
  186.1370  178.8940  138.0880 N   0  0  0  0  0  2  0  0  0  0  0  0
  182.1680  181.4260  138.4290 C   0  0  0  0  0  2  0  0  0  0  0  0
  182.8950  180.3570  139.2190 C   0  0  0  0  0  3  0  0  0  0  0  0
  181.7530  179.9780  138.2980 C   0  0  0  0  0  2  0  0  0  0  0  0
  187.1030  177.8490  138.3810 C   0  0  0  0  0  2  0  0  0  0  0  0
  188.8810  179.3410  138.0120 O   0  0  0  0  0  0  0  0  0  0  0  0
  188.4180  178.4620  138.7210 C   0  0  0  0  0  0  0  0  0  0  0  0
  189.1600  178.0030  139.9320 C   0  0  0  0  0  2  0  0  0  0  0  0
  190.4310  177.2810  139.5300 C   0  0  0  0  0  1  0  0  0  0  0  0
  182.7370  177.6740  141.2880 C   0  0  0  0  0  2  0  0  0  0  0  0
  181.2190  176.4930  139.7320 C   0  0  0  0  0  1  0  0  0  0  0  0
  182.6670  176.7350  140.1000 C   0  0  0  0  0  2  0  0  0  0  0  0
  1  4  1  0  0  0  0
  1 13  1  0  0  0  0
  3  7  1  6  0  0  0
  3 10  1  0  0  0  0
  4  5  1  0  0  0  0
  4  3  1  0  0  0  0
  5  3  1  0  0  0  0
  8 15  1  0  0  0  0
  8  1  2  0  0  0  0
  9 11  2  0  0  0  0
 10 17  2  0  0  0  0
 10  9  1  0  0  0  0
 11  2  1  0  0  0  0
 12  6  1  0  0  0  0
 13  6  2  0  0  0  0
 13 17  1  0  0  0  0
 14  5  2  0  0  0  0
 15 12  2  0  0  0  0
 16  2  2  0  0  0  0
 17 16  1  0  0  0  0
 18 31  1  1  0  0  0
 18 15  1  0  0  0  0
 19 20  1  0  0  0  0
 20 18  1  0  0  0  0
 21 19  2  0  0  0  0
 21 24  1  0  0  0  0
 22 26  1  0  0  0  0
 22 19  1  0  0  0  0
 23 24  1  0  0  0  0
 25 23  1  0  0  0  0
 25 24  1  0  0  0  0
 26 28  1  0  0  0  0
 27 28  2  0  0  0  0
 28 29  1  0  0  0  0
 30 29  1  0  0  0  0
 32 33  1  0  0  0  0
 33 31  1  0  0  0  0
M  END
>  <MODEL>
1

>  <REMARK>
 VINA RESULT:      -8.3      0.000      0.000
  Name = 
  8 active torsions:
  status: ('A' for Active; 'I' for Inactive)
    1  A    between atoms: C_2  and  C_10
    2  A    between atoms: C_2  and  C_30
    3  A    between atoms: N_5  and  C_30
    4  A    between atoms: N_8  and  C_20
    5  A    between atoms: N_13  and  C_14
    6  A    between atoms: C_14  and  C_19
    7  A    between atoms: C_19  and  C_27
    8  A    between atoms: C_29  and  C_30
                            x       y       z     vdW  Elec       q    Type
                         _______ _______ _______ _____ _____    ______ ____

>  <TORSDO>
F 8

$$$$
=
 OpenBabel10232410263D

 33 37  0  0  1  0  0  0  0  0999 V2000
  189.2110  177.7140  142.7910 C   0  0  0  0  0  0  0  0  0  0  0  0
  187.1720  177.8640  147.2250 N   0  0  0  0  0  0  0  0  0  0  0  0
  190.7100  177.3050  144.8650 C   0  0  2  0  0  0  0  0  0  0  0  0
  190.3880  177.5970  143.5500 N   0  0  0  0  0  0  0  0  0  0  0  0
  191.4640  178.3390  144.3520 C   0  0  0  0  0  0  0  0  0  0  0  0
  186.8090  177.8980  142.9010 C   0  0  0  0  0  3  0  0  0  0  0  0
  191.3410  176.0650  144.9650 O   0  0  0  0  0  1  0  0  0  0  0  0
  189.1870  177.7850  141.4000 C   0  0  0  0  0  3  0  0  0  0  0  0
  189.5330  177.5220  147.0760 C   0  0  0  0  0  3  0  0  0  0  0  0
  189.4510  177.5320  145.6830 C   0  0  0  0  0  0  0  0  0  0  0  0
  188.3740  177.6930  147.8350 C   0  0  0  0  0  3  0  0  0  0  0  0
  186.7670  177.9670  141.5010 C   0  0  0  0  0  3  0  0  0  0  0  0
  188.0420  177.7700  143.5560 C   0  0  0  0  0  0  0  0  0  0  0  0
  192.3090  179.2630  144.4740 O   0  0  0  0  0  0  0  0  0  0  0  0
  187.9490  177.9170  140.7480 C   0  0  0  0  0  0  0  0  0  0  0  0
  187.0490  177.8800  145.8710 C   0  0  0  0  0  3  0  0  0  0  0  0
  188.1740  177.7160  145.0530 C   0  0  0  0  0  0  0  0  0  0  0  0
  187.8710  177.9970  139.2520 C   0  0  1  0  0  3  0  0  0  0  0  0
  185.5350  177.9000  138.1640 C   0  0  0  0  0  0  0  0  0  0  0  0
  186.6030  178.5880  138.8420 N   0  0  0  0  0  2  0  0  0  0  0  0
  185.7420  176.8870  137.3730 N   0  0  0  0  0  0  0  0  0  0  0  0
  184.1970  178.3650  138.3300 N   0  0  0  0  0  2  0  0  0  0  0  0
  186.9460  174.8150  137.0340 C   0  0  0  0  0  2  0  0  0  0  0  0
  187.0420  176.3280  137.0340 C   0  0  0  0  0  3  0  0  0  0  0  0
  186.9290  175.5720  135.7260 C   0  0  0  0  0  2  0  0  0  0  0  0
  183.8720  179.4880  139.1940 C   0  0  0  0  0  2  0  0  0  0  0  0
  181.6750  179.5960  140.0210 O   0  0  0  0  0  0  0  0  0  0  0  0
  182.7850  179.1000  140.1350 C   0  0  0  0  0  0  0  0  0  0  0  0
  183.0550  178.1000  141.2100 C   0  0  0  0  0  2  0  0  0  0  0  0
  183.2520  178.7970  142.5420 C   0  0  0  0  0  1  0  0  0  0  0  0
  189.0190  178.8210  138.6890 C   0  0  0  0  0  2  0  0  0  0  0  0
  190.5410  176.9630  138.0970 C   0  0  0  0  0  1  0  0  0  0  0  0
  189.6910  178.0870  137.5460 C   0  0  0  0  0  2  0  0  0  0  0  0
  1  4  1  0  0  0  0
  1 13  1  0  0  0  0
  2 11  1  0  0  0  0
  3  7  1  1  0  0  0
  3 10  1  0  0  0  0
  4  5  1  0  0  0  0
  4  3  1  0  0  0  0
  5 14  2  0  0  0  0
  5  3  1  0  0  0  0
  6 13  2  0  0  0  0
  8  1  2  0  0  0  0
  9 11  2  0  0  0  0
 10  9  1  0  0  0  0
 12  6  1  0  0  0  0
 13 17  1  0  0  0  0
 15  8  1  0  0  0  0
 15 12  2  0  0  0  0
 16  2  2  0  0  0  0
 17 10  2  0  0  0  0
 17 16  1  0  0  0  0
 18 31  1  1  0  0  0
 18 15  1  0  0  0  0
 19 22  1  0  0  0  0
 19 20  1  0  0  0  0
 20 18  1  0  0  0  0
 21 19  2  0  0  0  0
 22 26  1  0  0  0  0
 24 23  1  0  0  0  0
 24 21  1  0  0  0  0
 25 24  1  0  0  0  0
 25 23  1  0  0  0  0
 26 28  1  0  0  0  0
 27 28  2  0  0  0  0
 28 29  1  0  0  0  0
 29 30  1  0  0  0  0
 33 32  1  0  0  0  0
 33 31  1  0  0  0  0
M  END
>  <MODEL>
2

>  <REMARK>
 VINA RESULT:      -7.7      2.033      4.535
  Name = 
  8 active torsions:
  status: ('A' for Active; 'I' for Inactive)
    1  A    between atoms: C_2  and  C_10
    2  A    between atoms: C_2  and  C_30
    3  A    between atoms: N_5  and  C_30
    4  A    between atoms: N_8  and  C_20
    5  A    between atoms: N_13  and  C_14
    6  A    between atoms: C_14  and  C_19
    7  A    between atoms: C_19  and  C_27
    8  A    between atoms: C_29  and  C_30
                            x       y       z     vdW  Elec       q    Type
                         _______ _______ _______ _____ _____    ______ ____

>  <TORSDO>
F 8

$$$$
=
 OpenBabel10232410263D

 33 37  0  0  1  0  0  0  0  0999 V2000
  185.4710  178.0320  143.0300 C   0  0  0  0  0  0  0  0  0  0  0  0
  186.9080  178.3910  147.6820 N   0  0  0  0  0  0  0  0  0  0  0  0
  187.8130  177.1350  143.6820 C   0  0  2  0  0  0  0  0  0  0  0  0
  186.7920  177.5810  142.8600 N   0  0  0  0  0  0  0  0  0  0  0  0
  188.2620  177.9840  142.6920 C   0  0  0  0  0  0  0  0  0  0  0  0
  183.8420  178.7910  144.6370 C   0  0  0  0  0  3  0  0  0  0  0  0
  188.0540  175.7740  143.4910 O   0  0  0  0  0  1  0  0  0  0  0  0
  184.5660  178.1970  141.9840 C   0  0  0  0  0  3  0  0  0  0  0  0
  188.4460  177.4910  146.0890 C   0  0  0  0  0  3  0  0  0  0  0  0
  187.4830  177.6110  145.0860 C   0  0  0  0  0  0  0  0  0  0  0  0
  188.1370  177.8910  147.3900 C   0  0  0  0  0  3  0  0  0  0  0  0
  182.9180  178.9590  143.5970 C   0  0  0  0  0  3  0  0  0  0  0  0
  185.1330  178.3240  144.3550 C   0  0  0  0  0  0  0  0  0  0  0  0
  189.1650  178.6620  142.1370 O   0  0  0  0  0  0  0  0  0  0  0  0
  183.2750  178.6690  142.2720 C   0  0  0  0  0  0  0  0  0  0  0  0
  185.9430  178.5240  146.7340 C   0  0  0  0  0  3  0  0  0  0  0  0
  186.1900  178.1420  145.4100 C   0  0  0  0  0  0  0  0  0  0  0  0
  182.2640  178.8620  141.1800 C   0  0  1  0  0  3  0  0  0  0  0  0
  183.0490  179.2250  138.7500 C   0  0  0  0  0  0  0  0  0  0  0  0
  182.8020  178.4010  139.9050 N   0  0  0  0  0  2  0  0  0  0  0  0
  182.3620  180.2990  138.4930 N   0  0  0  0  0  0  0  0  0  0  0  0
  184.0620  178.8320  137.8250 N   0  0  0  0  0  2  0  0  0  0  0  0
  180.7020  182.0540  138.6260 C   0  0  0  0  0  2  0  0  0  0  0  0
  181.2520  180.8050  139.2850 C   0  0  0  0  0  3  0  0  0  0  0  0
  179.9830  180.7350  138.4600 C   0  0  0  0  0  2  0  0  0  0  0  0
  184.8790  177.6470  138.0320 C   0  0  0  0  0  2  0  0  0  0  0  0
  186.7450  178.4830  139.1900 O   0  0  0  0  0  0  0  0  0  0  0  0
  186.3120  178.0380  138.1380 C   0  0  0  0  0  0  0  0  0  0  0  0
  187.2160  177.8770  136.9610 C   0  0  0  0  0  2  0  0  0  0  0  0
  188.3660  178.8620  137.0400 C   0  0  0  0  0  1  0  0  0  0  0  0
  180.9780  178.1110  141.4880 C   0  0  0  0  0  2  0  0  0  0  0  0
  180.6540  175.9650  140.2990 C   0  0  0  0  0  1  0  0  0  0  0  0
  180.4280  177.4610  140.2340 C   0  0  0  0  0  2  0  0  0  0  0  0
  1 13  1  0  0  0  0
  3  7  1  6  0  0  0
  3 10  1  0  0  0  0
  4  1  1  0  0  0  0
  4  3  1  0  0  0  0
  5  4  1  0  0  0  0
  5  3  1  0  0  0  0
  8 15  1  0  0  0  0
  8  1  2  0  0  0  0
  9 11  2  0  0  0  0
 10 17  2  0  0  0  0
 10  9  1  0  0  0  0
 11  2  1  0  0  0  0
 12  6  1  0  0  0  0
 13  6  2  0  0  0  0
 13 17  1  0  0  0  0
 14  5  2  0  0  0  0
 15 12  2  0  0  0  0
 16  2  2  0  0  0  0
 17 16  1  0  0  0  0
 18 31  1  1  0  0  0
 18 15  1  0  0  0  0
 19 20  1  0  0  0  0
 20 18  1  0  0  0  0
 21 19  2  0  0  0  0
 21 24  1  0  0  0  0
 22 26  1  0  0  0  0
 22 19  1  0  0  0  0
 23 24  1  0  0  0  0
 25 23  1  0  0  0  0
 25 24  1  0  0  0  0
 26 28  1  0  0  0  0
 28 27  2  0  0  0  0
 29 30  1  0  0  0  0
 29 28  1  0  0  0  0
 33 32  1  0  0  0  0
 33 31  1  0  0  0  0
M  END
>  <MODEL>
3

>  <REMARK>
 VINA RESULT:      -7.7      1.605      1.886
  Name = 
  8 active torsions:
  status: ('A' for Active; 'I' for Inactive)
    1  A    between atoms: C_2  and  C_10
    2  A    between atoms: C_2  and  C_30
    3  A    between atoms: N_5  and  C_30
    4  A    between atoms: N_8  and  C_20
    5  A    between atoms: N_13  and  C_14
    6  A    between atoms: C_14  and  C_19
    7  A    between atoms: C_19  and  C_27
    8  A    between atoms: C_29  and  C_30
                            x       y       z     vdW  Elec       q    Type
                         _______ _______ _______ _____ _____    ______ ____

>  <TORSDO>
F 8

$$$$
=
 OpenBabel10232410263D

 33 37  0  0  1  0  0  0  0  0999 V2000
  185.5690  178.1190  143.0390 C   0  0  0  0  0  0  0  0  0  0  0  0
  187.4580  178.1530  147.5420 N   0  0  0  0  0  0  0  0  0  0  0  0
  187.9170  177.0860  143.4130 C   0  0  2  0  0  0  0  0  0  0  0  0
  186.8450  177.6210  142.7190 N   0  0  0  0  0  0  0  0  0  0  0  0
  188.3100  177.9690  142.4290 C   0  0  0  0  0  0  0  0  0  0  0  0
  184.1390  178.8560  144.8350 C   0  0  0  0  0  3  0  0  0  0  0  0
  188.0720  175.7290  143.1300 O   0  0  0  0  0  1  0  0  0  0  0  0
  184.5780  178.3810  142.0970 C   0  0  0  0  0  3  0  0  0  0  0  0
  188.7910  177.2780  145.7620 C   0  0  0  0  0  3  0  0  0  0  0  0
  187.7450  177.4960  144.8650 C   0  0  0  0  0  0  0  0  0  0  0  0
  188.6280  177.6180  147.1060 C   0  0  0  0  0  3  0  0  0  0  0  0
  183.1290  179.1220  143.9000 C   0  0  0  0  0  3  0  0  0  0  0  0
  185.3730  178.3500  144.4040 C   0  0  0  0  0  0  0  0  0  0  0  0
  189.1870  178.6370  141.8240 O   0  0  0  0  0  0  0  0  0  0  0  0
  183.3450  178.8920  142.5330 C   0  0  0  0  0  0  0  0  0  0  0  0
  186.4150  178.3810  146.7010 C   0  0  0  0  0  3  0  0  0  0  0  0
  186.5160  178.0640  145.3410 C   0  0  0  0  0  0  0  0  0  0  0  0
  182.2450  179.1900  141.5570 C   0  0  1  0  0  3  0  0  0  0  0  0
  182.3410  178.2150  139.1710 C   0  0  0  0  0  0  0  0  0  0  0  0
  182.1200  178.1060  140.5890 N   0  0  0  0  0  2  0  0  0  0  0  0
  182.1440  179.3200  138.5120 N   0  0  0  0  0  0  0  0  0  0  0  0
  182.7540  177.0590  138.4440 N   0  0  0  0  0  2  0  0  0  0  0  0
  181.4070  181.5570  137.9560 C   0  0  0  0  0  2  0  0  0  0  0  0
  181.6580  180.5690  139.0780 C   0  0  0  0  0  3  0  0  0  0  0  0
  180.2470  180.8190  138.5850 C   0  0  0  0  0  2  0  0  0  0  0  0
  182.9970  175.7830  139.0970 C   0  0  0  0  0  2  0  0  0  0  0  0
  181.9850  174.2910  137.5900 O   0  0  0  0  0  0  0  0  0  0  0  0
  183.0280  174.6960  138.0790 C   0  0  0  0  0  0  0  0  0  0  0  0
  184.3350  174.1130  137.6540 C   0  0  0  0  0  2  0  0  0  0  0  0
  184.2490  173.6110  136.2260 C   0  0  0  0  0  1  0  0  0  0  0  0
  180.9170  179.3850  142.2730 C   0  0  0  0  0  2  0  0  0  0  0  0
  179.9840  177.9710  144.0760 C   0  0  0  0  0  1  0  0  0  0  0  0
  180.2840  178.0460  142.5940 C   0  0  0  0  0  2  0  0  0  0  0  0
  1 13  1  0  0  0  0
  3  7  1  6  0  0  0
  3 10  1  0  0  0  0
  4  1  1  0  0  0  0
  4  3  1  0  0  0  0
  5  4  1  0  0  0  0
  5  3  1  0  0  0  0
  8 15  1  0  0  0  0
  8  1  2  0  0  0  0
  9 11  2  0  0  0  0
 10 17  2  0  0  0  0
 10  9  1  0  0  0  0
 11  2  1  0  0  0  0
 12  6  1  0  0  0  0
 13  6  2  0  0  0  0
 13 17  1  0  0  0  0
 14  5  2  0  0  0  0
 15 12  2  0  0  0  0
 16  2  2  0  0  0  0
 17 16  1  0  0  0  0
 18 31  1  1  0  0  0
 18 15  1  0  0  0  0
 19 20  1  0  0  0  0
 20 18  1  0  0  0  0
 21 24  1  0  0  0  0
 21 19  2  0  0  0  0
 22 26  1  0  0  0  0
 22 19  1  0  0  0  0
 23 25  1  0  0  0  0
 23 24  1  0  0  0  0
 25 24  1  0  0  0  0
 27 28  2  0  0  0  0
 28 26  1  0  0  0  0
 29 28  1  0  0  0  0
 30 29  1  0  0  0  0
 31 33  1  0  0  0  0
 33 32  1  0  0  0  0
M  END
>  <MODEL>
4

>  <REMARK>
 VINA RESULT:      -7.5      2.540      3.336
  Name = 
  8 active torsions:
  status: ('A' for Active; 'I' for Inactive)
    1  A    between atoms: C_2  and  C_10
    2  A    between atoms: C_2  and  C_30
    3  A    between atoms: N_5  and  C_30
    4  A    between atoms: N_8  and  C_20
    5  A    between atoms: N_13  and  C_14
    6  A    between atoms: C_14  and  C_19
    7  A    between atoms: C_19  and  C_27
    8  A    between atoms: C_29  and  C_30
                            x       y       z     vdW  Elec       q    Type
                         _______ _______ _______ _____ _____    ______ ____

>  <TORSDO>
F 8

$$$$
=
 OpenBabel10232410263D

 33 37  0  0  1  0  0  0  0  0999 V2000
  184.9750  178.2330  142.1220 C   0  0  0  0  0  0  0  0  0  0  0  0
  180.5000  179.0920  143.8780 N   0  0  0  0  0  0  0  0  0  0  0  0
  183.0710  178.7980  140.4560 C   0  0  2  0  0  0  0  0  0  0  0  0
  184.2990  178.3300  140.8930 N   0  0  0  0  0  0  0  0  0  0  0  0
  183.4250  177.6050  139.8610 C   0  0  0  0  0  0  0  0  0  0  0  0
  184.7320  178.3720  144.5170 C   0  0  0  0  0  3  0  0  0  0  0  0
  183.2170  179.9480  139.6810 O   0  0  0  0  0  1  0  0  0  0  0  0
  186.3290  177.9310  142.2430 C   0  0  0  0  0  3  0  0  0  0  0  0
  180.8080  179.1060  141.5080 C   0  0  0  0  0  3  0  0  0  0  0  0
  182.1730  178.8710  141.6790 C   0  0  0  0  0  0  0  0  0  0  0  0
  179.9820  179.2130  142.6280 C   0  0  0  0  0  3  0  0  0  0  0  0
  186.0940  178.0730  144.6560 C   0  0  0  0  0  3  0  0  0  0  0  0
  184.1630  178.4540  143.2380 C   0  0  0  0  0  0  0  0  0  0  0  0
  183.1790  176.6170  139.1220 O   0  0  0  0  0  0  0  0  0  0  0  0
  186.8940  177.8460  143.5260 C   0  0  0  0  0  0  0  0  0  0  0  0
  181.8240  178.8620  144.0870 C   0  0  0  0  0  3  0  0  0  0  0  0
  182.7050  178.7430  143.0060 C   0  0  0  0  0  0  0  0  0  0  0  0
  188.3480  177.5250  143.7080 C   0  0  1  0  0  3  0  0  0  0  0  0
  189.9680  177.0520  141.7580 C   0  0  0  0  0  0  0  0  0  0  0  0
  189.1050  177.9130  142.5230 N   0  0  0  0  0  2  0  0  0  0  0  0
  190.6000  176.0440  142.2830 N   0  0  0  0  0  0  0  0  0  0  0  0
  190.1750  177.3330  140.3740 N   0  0  0  0  0  2  0  0  0  0  0  0
  191.8150  174.8710  144.0170 C   0  0  0  0  0  2  0  0  0  0  0  0
  190.5620  175.6560  143.6850 C   0  0  0  0  0  3  0  0  0  0  0  0
  191.7080  176.3260  144.4150 C   0  0  0  0  0  2  0  0  0  0  0  0
  189.5110  178.4390  139.7030 C   0  0  0  0  0  2  0  0  0  0  0  0
  187.2930  178.4310  138.9260 O   0  0  0  0  0  0  0  0  0  0  0  0
  188.4000  177.9190  138.8590 C   0  0  0  0  0  0  0  0  0  0  0  0
  188.6460  176.7780  137.9270 C   0  0  0  0  0  2  0  0  0  0  0  0
  189.1910  177.2850  136.6060 C   0  0  0  0  0  1  0  0  0  0  0  0
  188.9160  178.2360  144.9260 C   0  0  0  0  0  2  0  0  0  0  0  0
  188.4270  177.9510  147.3350 C   0  0  0  0  0  1  0  0  0  0  0  0
  189.0030  177.2850  146.1040 C   0  0  0  0  0  2  0  0  0  0  0  0
  1  8  2  0  0  0  0
  1 13  1  0  0  0  0
  2 16  1  0  0  0  0
  3  7  1  6  0  0  0
  3  4  1  0  0  0  0
  3 10  1  0  0  0  0
  4  1  1  0  0  0  0
  5  3  1  0  0  0  0
  5  4  1  0  0  0  0
  6 12  1  0  0  0  0
  8 15  1  0  0  0  0
  9 10  2  0  0  0  0
  9 11  1  0  0  0  0
 10 17  1  0  0  0  0
 11  2  2  0  0  0  0
 13  6  2  0  0  0  0
 14  5  2  0  0  0  0
 15 18  1  0  0  0  0
 15 12  2  0  0  0  0
 17 13  1  0  0  0  0
 17 16  2  0  0  0  0
 18 31  1  1  0  0  0
 19 21  2  0  0  0  0
 19 20  1  0  0  0  0
 20 18  1  0  0  0  0
 21 24  1  0  0  0  0
 22 19  1  0  0  0  0
 23 25  1  0  0  0  0
 24 23  1  0  0  0  0
 24 25  1  0  0  0  0
 26 22  1  0  0  0  0
 28 27  2  0  0  0  0
 28 26  1  0  0  0  0
 29 28  1  0  0  0  0
 30 29  1  0  0  0  0
 31 33  1  0  0  0  0
 33 32  1  0  0  0  0
M  END
>  <MODEL>
5

>  <REMARK>
 VINA RESULT:      -7.1      2.545      6.977
  Name = 
  8 active torsions:
  status: ('A' for Active; 'I' for Inactive)
    1  A    between atoms: C_2  and  C_10
    2  A    between atoms: C_2  and  C_30
    3  A    between atoms: N_5  and  C_30
    4  A    between atoms: N_8  and  C_20
    5  A    between atoms: N_13  and  C_14
    6  A    between atoms: C_14  and  C_19
    7  A    between atoms: C_19  and  C_27
    8  A    between atoms: C_29  and  C_30
                            x       y       z     vdW  Elec       q    Type
                         _______ _______ _______ _____ _____    ______ ____

>  <TORSDO>
F 8

$$$$
=
 OpenBabel10232410263D

 33 37  0  0  1  0  0  0  0  0999 V2000
  190.0330  177.6140  141.9750 C   0  0  0  0  0  0  0  0  0  0  0  0
  186.6820  177.7460  145.5230 N   0  0  0  0  0  0  0  0  0  0  0  0
  190.8120  177.3540  144.4330 C   0  0  2  0  0  0  0  0  0  0  0  0
  190.9120  177.5920  143.0730 N   0  0  0  0  0  0  0  0  0  0  0  0
  191.6350  178.4220  144.1410 C   0  0  0  0  0  0  0  0  0  0  0  0
  187.7160  177.6460  141.3100 C   0  0  0  0  0  3  0  0  0  0  0  0
  191.4420  176.1600  144.7830 O   0  0  0  0  0  1  0  0  0  0  0  0
  190.4500  177.6490  140.6470 C   0  0  0  0  0  3  0  0  0  0  0  0
  188.9810  177.5520  146.1450 C   0  0  0  0  0  3  0  0  0  0  0  0
  189.3480  177.5210  144.7990 C   0  0  0  0  0  0  0  0  0  0  0  0
  187.6340  177.6670  146.4900 C   0  0  0  0  0  3  0  0  0  0  0  0
  188.1190  177.6770  139.9670 C   0  0  0  0  0  3  0  0  0  0  0  0
  188.6800  177.6150  142.3270 C   0  0  0  0  0  0  0  0  0  0  0  0
  192.3470  179.4000  144.4830 O   0  0  0  0  0  0  0  0  0  0  0  0
  189.4800  177.6840  139.6310 C   0  0  0  0  0  0  0  0  0  0  0  0
  186.9970  177.7200  144.2010 C   0  0  0  0  0  3  0  0  0  0  0  0
  188.3310  177.6070  143.7900 C   0  0  0  0  0  0  0  0  0  0  0  0
  189.8800  177.7210  138.1850 C   0  0  1  0  0  3  0  0  0  0  0  0
  189.9350  175.2200  137.5620 C   0  0  0  0  0  0  0  0  0  0  0  0
  189.3740  176.5430  137.4900 N   0  0  0  0  0  2  0  0  0  0  0  0
  191.1990  175.0030  137.7800 N   0  0  0  0  0  0  0  0  0  0  0  0
  189.0840  174.0950  137.3470 N   0  0  0  0  0  2  0  0  0  0  0  0
  193.5870  175.3890  137.8300 C   0  0  0  0  0  2  0  0  0  0  0  0
  192.2180  176.0270  137.9500 C   0  0  0  0  0  3  0  0  0  0  0  0
  193.0080  176.1570  136.6630 C   0  0  0  0  0  2  0  0  0  0  0  0
  187.6590  174.2420  137.0960 C   0  0  0  0  0  2  0  0  0  0  0  0
  187.5910  171.9210  136.7360 O   0  0  0  0  0  0  0  0  0  0  0  0
  187.0000  172.9070  137.1470 C   0  0  0  0  0  0  0  0  0  0  0  0
  185.6220  172.7790  137.7080 C   0  0  0  0  0  2  0  0  0  0  0  0
  184.6230  172.5220  136.5970 C   0  0  0  0  0  1  0  0  0  0  0  0
  189.3520  178.9760  137.5050 C   0  0  0  0  0  2  0  0  0  0  0  0
  187.0650  178.7830  136.5820 C   0  0  0  0  0  1  0  0  0  0  0  0
  188.5380  178.6130  136.2790 C   0  0  0  0  0  2  0  0  0  0  0  0
  1 13  1  0  0  0  0
  1  4  1  0  0  0  0
  2 11  1  0  0  0  0
  3  7  1  1  0  0  0
  3 10  1  0  0  0  0
  4  5  1  0  0  0  0
  4  3  1  0  0  0  0
  5  3  1  0  0  0  0
  5 14  2  0  0  0  0
  6 13  2  0  0  0  0
  8  1  2  0  0  0  0
  9 11  2  0  0  0  0
 10  9  1  0  0  0  0
 12  6  1  0  0  0  0
 13 17  1  0  0  0  0
 15 12  2  0  0  0  0
 15  8  1  0  0  0  0
 16  2  2  0  0  0  0
 17 16  1  0  0  0  0
 17 10  2  0  0  0  0
 18 31  1  6  0  0  0
 18 15  1  0  0  0  0
 19 21  2  0  0  0  0
 20 19  1  0  0  0  0
 20 18  1  0  0  0  0
 21 24  1  0  0  0  0
 22 19  1  0  0  0  0
 23 24  1  0  0  0  0
 25 23  1  0  0  0  0
 25 24  1  0  0  0  0
 26 28  1  0  0  0  0
 26 22  1  0  0  0  0
 27 28  2  0  0  0  0
 28 29  1  0  0  0  0
 30 29  1  0  0  0  0
 33 32  1  0  0  0  0
 33 31  1  0  0  0  0
M  END
>  <MODEL>
6

>  <REMARK>
 VINA RESULT:      -7.0      3.549      6.023
  Name = 
  8 active torsions:
  status: ('A' for Active; 'I' for Inactive)
    1  A    between atoms: C_2  and  C_10
    2  A    between atoms: C_2  and  C_30
    3  A    between atoms: N_5  and  C_30
    4  A    between atoms: N_8  and  C_20
    5  A    between atoms: N_13  and  C_14
    6  A    between atoms: C_14  and  C_19
    7  A    between atoms: C_19  and  C_27
    8  A    between atoms: C_29  and  C_30
                            x       y       z     vdW  Elec       q    Type
                         _______ _______ _______ _____ _____    ______ ____

>  <TORSDO>
F 8

$$$$
=
 OpenBabel10232410263D

 33 37  0  0  1  0  0  0  0  0999 V2000
  187.5280  178.1150  141.0970 C   0  0  0  0  0  0  0  0  0  0  0  0
  187.8090  177.0290  145.8490 N   0  0  0  0  0  0  0  0  0  0  0  0
  185.6300  178.9130  142.6710 C   0  0  2  0  0  0  0  0  0  0  0  0
  186.2640  178.5960  141.4810 N   0  0  0  0  0  0  0  0  0  0  0  0
  184.8070  178.2360  141.7950 C   0  0  0  0  0  0  0  0  0  0  0  0
  189.5680  177.0970  141.8820 C   0  0  0  0  0  3  0  0  0  0  0  0
  185.4240  180.2880  142.7800 O   0  0  0  0  0  1  0  0  0  0  0  0
  187.9920  178.1120  139.7840 C   0  0  0  0  0  3  0  0  0  0  0  0
  185.8680  178.1820  145.0640 C   0  0  0  0  0  3  0  0  0  0  0  0
  186.4040  178.2170  143.7760 C   0  0  0  0  0  0  0  0  0  0  0  0
  186.5910  177.5780  146.0940 C   0  0  0  0  0  3  0  0  0  0  0  0
  190.0520  177.0910  140.5670 C   0  0  0  0  0  3  0  0  0  0  0  0
  188.2930  177.6130  142.1540 C   0  0  0  0  0  0  0  0  0  0  0  0
  183.7250  177.6610  141.5080 O   0  0  0  0  0  0  0  0  0  0  0  0
  189.2680  177.5900  139.5160 C   0  0  0  0  0  0  0  0  0  0  0  0
  188.3660  177.0420  144.6090 C   0  0  0  0  0  3  0  0  0  0  0  0
  187.6910  177.6310  143.5320 C   0  0  0  0  0  0  0  0  0  0  0  0
  189.8130  177.5670  138.1180 C   0  0  1  0  0  3  0  0  0  0  0  0
  189.9920  175.0580  137.5510 C   0  0  0  0  0  0  0  0  0  0  0  0
  189.3840  176.3560  137.4280 N   0  0  0  0  0  2  0  0  0  0  0  0
  191.2540  174.8960  137.8270 N   0  0  0  0  0  0  0  0  0  0  0  0
  189.1960  173.8950  137.3250 N   0  0  0  0  0  2  0  0  0  0  0  0
  193.6210  175.3940  137.8750 C   0  0  0  0  0  2  0  0  0  0  0  0
  192.2240  175.9630  138.0170 C   0  0  0  0  0  3  0  0  0  0  0  0
  192.9990  176.1620  136.7310 C   0  0  0  0  0  2  0  0  0  0  0  0
  187.7790  173.9810  137.0110 C   0  0  0  0  0  2  0  0  0  0  0  0
  188.0220  171.6830  136.5830 O   0  0  0  0  0  0  0  0  0  0  0  0
  187.2520  172.6240  136.6960 C   0  0  0  0  0  0  0  0  0  0  0  0
  185.7830  172.4180  136.5260 C   0  0  0  0  0  2  0  0  0  0  0  0
  185.0320  172.9720  137.7220 C   0  0  0  0  0  1  0  0  0  0  0  0
  189.3550  178.7870  137.3330 C   0  0  0  0  0  2  0  0  0  0  0  0
  187.1140  178.7880  136.2840 C   0  0  0  0  0  1  0  0  0  0  0  0
  188.5580  178.3660  136.1140 C   0  0  0  0  0  2  0  0  0  0  0  0
  1  4  1  0  0  0  0
  1 13  1  0  0  0  0
  2 11  1  0  0  0  0
  3  7  1  1  0  0  0
  3 10  1  0  0  0  0
  4  5  1  0  0  0  0
  4  3  1  0  0  0  0
  5  3  1  0  0  0  0
  6 13  2  0  0  0  0
  8  1  2  0  0  0  0
  9 11  2  0  0  0  0
 10  9  1  0  0  0  0
 12  6  1  0  0  0  0
 13 17  1  0  0  0  0
 14  5  2  0  0  0  0
 15  8  1  0  0  0  0
 15 12  2  0  0  0  0
 16  2  2  0  0  0  0
 17 10  2  0  0  0  0
 17 16  1  0  0  0  0
 18 31  1  6  0  0  0
 18 15  1  0  0  0  0
 19 21  2  0  0  0  0
 20 19  1  0  0  0  0
 20 18  1  0  0  0  0
 21 24  1  0  0  0  0
 22 19  1  0  0  0  0
 23 24  1  0  0  0  0
 25 23  1  0  0  0  0
 25 24  1  0  0  0  0
 26 22  1  0  0  0  0
 27 28  2  0  0  0  0
 28 26  1  0  0  0  0
 29 28  1  0  0  0  0
 29 30  1  0  0  0  0
 33 32  1  0  0  0  0
 33 31  1  0  0  0  0
M  END
>  <MODEL>
7

>  <REMARK>
 VINA RESULT:      -6.9      3.608      6.463
  Name = 
  8 active torsions:
  status: ('A' for Active; 'I' for Inactive)
    1  A    between atoms: C_2  and  C_10
    2  A    between atoms: C_2  and  C_30
    3  A    between atoms: N_5  and  C_30
    4  A    between atoms: N_8  and  C_20
    5  A    between atoms: N_13  and  C_14
    6  A    between atoms: C_14  and  C_19
    7  A    between atoms: C_19  and  C_27
    8  A    between atoms: C_29  and  C_30
                            x       y       z     vdW  Elec       q    Type
                         _______ _______ _______ _____ _____    ______ ____

>  <TORSDO>
F 8

$$$$
=
 OpenBabel10232410263D

 33 37  0  0  1  0  0  0  0  0999 V2000
  186.8360  178.2780  140.4830 C   0  0  0  0  0  0  0  0  0  0  0  0
  190.7570  176.7560  138.0030 N   0  0  0  0  0  0  0  0  0  0  0  0
  189.0490  177.8840  141.7720 C   0  0  2  0  0  0  0  0  0  0  0  0
  187.6910  178.0690  141.5800 N   0  0  0  0  0  0  0  0  0  0  0  0
  188.2840  177.0430  142.5530 C   0  0  0  0  0  0  0  0  0  0  0  0
  186.6640  178.1980  138.0790 C   0  0  0  0  0  3  0  0  0  0  0  0
  189.6200  178.9820  142.4160 O   0  0  0  0  0  1  0  0  0  0  0  0
  185.5070  178.6790  140.5980 C   0  0  0  0  0  3  0  0  0  0  0  0
  190.9420  177.0000  140.3730 C   0  0  0  0  0  3  0  0  0  0  0  0
  189.6270  177.4630  140.4320 C   0  0  0  0  0  0  0  0  0  0  0  0
  191.4920  176.6470  139.1400 C   0  0  0  0  0  3  0  0  0  0  0  0
  185.3270  178.6060  138.1770 C   0  0  0  0  0  3  0  0  0  0  0  0
  187.4300  178.0310  139.2410 C   0  0  0  0  0  0  0  0  0  0  0  0
  188.1590  176.0880  143.3620 O   0  0  0  0  0  0  0  0  0  0  0  0
  184.7430  178.8420  139.4310 C   0  0  0  0  0  0  0  0  0  0  0  0
  189.4730  177.2020  138.0170 C   0  0  0  0  0  3  0  0  0  0  0  0
  188.8620  177.5710  139.2220 C   0  0  0  0  0  0  0  0  0  0  0  0
  183.3080  179.2740  139.5030 C   0  0  1  0  0  3  0  0  0  0  0  0
  182.2120  178.5250  141.7140 C   0  0  0  0  0  0  0  0  0  0  0  0
  182.9100  179.4780  140.8910 N   0  0  0  0  0  2  0  0  0  0  0  0
  181.3950  177.6390  141.2240 N   0  0  0  0  0  0  0  0  0  0  0  0
  182.3860  178.5740  143.1290 N   0  0  0  0  0  2  0  0  0  0  0  0
  181.4780  176.1220  139.3400 C   0  0  0  0  0  2  0  0  0  0  0  0
  181.0450  177.4930  139.8190 C   0  0  0  0  0  3  0  0  0  0  0  0
  180.0270  176.3800  139.6760 C   0  0  0  0  0  2  0  0  0  0  0  0
  183.2780  179.5300  143.7640 C   0  0  0  0  0  2  0  0  0  0  0  0
  183.7300  178.8140  145.9560 O   0  0  0  0  0  0  0  0  0  0  0  0
  184.1030  178.8400  144.7940 C   0  0  0  0  0  0  0  0  0  0  0  0
  185.3810  178.1750  144.4000 C   0  0  0  0  0  2  0  0  0  0  0  0
  186.3390  178.1350  145.5740 C   0  0  0  0  0  1  0  0  0  0  0  0
  183.0850  180.5580  138.7190 C   0  0  0  0  0  2  0  0  0  0  0  0
  180.9660  180.2880  137.4710 C   0  0  0  0  0  1  0  0  0  0  0  0
  181.6110  180.9130  138.6890 C   0  0  0  0  0  2  0  0  0  0  0  0
  1  8  1  0  0  0  0
  1  4  1  0  0  0  0
  2 16  2  0  0  0  0
  2 11  1  0  0  0  0
  3  7  1  1  0  0  0
  3  5  1  0  0  0  0
  4  3  1  0  0  0  0
  4  5  1  0  0  0  0
  5 14  2  0  0  0  0
  6 12  2  0  0  0  0
  6 13  1  0  0  0  0
  9 10  1  0  0  0  0
 10  3  1  0  0  0  0
 11  9  2  0  0  0  0
 12 15  1  0  0  0  0
 13  1  2  0  0  0  0
 15 18  1  0  0  0  0
 15  8  2  0  0  0  0
 16 17  1  0  0  0  0
 17 13  1  0  0  0  0
 17 10  2  0  0  0  0
 18 31  1  6  0  0  0
 18 20  1  0  0  0  0
 19 22  1  0  0  0  0
 20 19  1  0  0  0  0
 21 19  2  0  0  0  0
 22 26  1  0  0  0  0
 23 25  1  0  0  0  0
 23 24  1  0  0  0  0
 24 21  1  0  0  0  0
 25 24  1  0  0  0  0
 26 28  1  0  0  0  0
 28 27  2  0  0  0  0
 29 28  1  0  0  0  0
 29 30  1  0  0  0  0
 32 33  1  0  0  0  0
 33 31  1  0  0  0  0
M  END
>  <MODEL>
8

>  <REMARK>
 VINA RESULT:      -6.4      2.286      5.707
  Name = 
  8 active torsions:
  status: ('A' for Active; 'I' for Inactive)
    1  A    between atoms: C_2  and  C_10
    2  A    between atoms: C_2  and  C_30
    3  A    between atoms: N_5  and  C_30
    4  A    between atoms: N_8  and  C_20
    5  A    between atoms: N_13  and  C_14
    6  A    between atoms: C_14  and  C_19
    7  A    between atoms: C_19  and  C_27
    8  A    between atoms: C_29  and  C_30
                            x       y       z     vdW  Elec       q    Type
                         _______ _______ _______ _____ _____    ______ ____

>  <TORSDO>
F 8

$$$$
=
 OpenBabel10232410263D

 33 37  0  0  1  0  0  0  0  0999 V2000
  186.5870  178.4220  142.7530 C   0  0  0  0  0  0  0  0  0  0  0  0
  188.3110  177.1290  147.1340 N   0  0  0  0  0  0  0  0  0  0  0  0
  185.3230  179.2150  144.8720 C   0  0  2  0  0  0  0  0  0  0  0  0
  185.5330  178.9280  143.5340 N   0  0  0  0  0  0  0  0  0  0  0  0
  184.2360  178.6030  144.2840 C   0  0  0  0  0  0  0  0  0  0  0  0
  188.7240  177.3060  142.8180 C   0  0  0  0  0  3  0  0  0  0  0  0
  185.2240  180.5910  145.0820 O   0  0  0  0  0  1  0  0  0  0  0  0
  186.6110  178.4600  141.3610 C   0  0  0  0  0  3  0  0  0  0  0  0
  186.2750  178.3770  147.0430 C   0  0  0  0  0  3  0  0  0  0  0  0
  186.3760  178.4480  145.6530 C   0  0  0  0  0  0  0  0  0  0  0  0
  187.2590  177.7060  147.7710 C   0  0  0  0  0  3  0  0  0  0  0  0
  188.7650  177.3390  141.4170 C   0  0  0  0  0  3  0  0  0  0  0  0
  187.6250  177.8520  143.4960 C   0  0  0  0  0  0  0  0  0  0  0  0
  183.0950  178.0760  144.3400 O   0  0  0  0  0  0  0  0  0  0  0  0
  187.7120  177.9080  140.6860 C   0  0  0  0  0  0  0  0  0  0  0  0
  188.4460  177.1750  145.7820 C   0  0  0  0  0  3  0  0  0  0  0  0
  187.4920  177.8310  144.9950 C   0  0  0  0  0  0  0  0  0  0  0  0
  187.7850  177.9260  139.1870 C   0  0  1  0  0  3  0  0  0  0  0  0
  185.4850  177.7420  138.0340 C   0  0  0  0  0  0  0  0  0  0  0  0
  186.5620  178.4900  138.6270 N   0  0  0  0  0  2  0  0  0  0  0  0
  185.6680  176.5990  137.4390 N   0  0  0  0  0  0  0  0  0  0  0  0
  184.1670  178.2870  138.0600 N   0  0  0  0  0  2  0  0  0  0  0  0
  186.7060  174.4810  136.8980 C   0  0  0  0  0  2  0  0  0  0  0  0
  186.9490  175.9330  137.2570 C   0  0  0  0  0  3  0  0  0  0  0  0
  187.0690  175.4750  135.8180 C   0  0  0  0  0  2  0  0  0  0  0  0
  183.8700  179.5570  138.7020 C   0  0  0  0  0  2  0  0  0  0  0  0
  181.6490  180.1370  139.2050 O   0  0  0  0  0  0  0  0  0  0  0  0
  182.6100  179.4390  139.4880 C   0  0  0  0  0  0  0  0  0  0  0  0
  182.5240  178.4610  140.6130 C   0  0  0  0  0  2  0  0  0  0  0  0
  181.3300  178.7740  141.4940 C   0  0  0  0  0  1  0  0  0  0  0  0
  188.9810  178.7340  138.7080 C   0  0  0  0  0  2  0  0  0  0  0  0
  190.2400  176.6340  138.3540 C   0  0  0  0  0  1  0  0  0  0  0  0
  189.8000  177.9330  137.7150 C   0  0  0  0  0  2  0  0  0  0  0  0
  1 13  1  0  0  0  0
  1  4  1  0  0  0  0
  2 11  1  0  0  0  0
  3  7  1  1  0  0  0
  3 10  1  0  0  0  0
  4  5  1  0  0  0  0
  4  3  1  0  0  0  0
  5 14  2  0  0  0  0
  5  3  1  0  0  0  0
  6 13  2  0  0  0  0
  8  1  2  0  0  0  0
  9 11  2  0  0  0  0
 10  9  1  0  0  0  0
 12  6  1  0  0  0  0
 13 17  1  0  0  0  0
 15  8  1  0  0  0  0
 15 12  2  0  0  0  0
 16  2  2  0  0  0  0
 17 10  2  0  0  0  0
 17 16  1  0  0  0  0
 18 31  1  1  0  0  0
 18 15  1  0  0  0  0
 19 22  1  0  0  0  0
 19 20  1  0  0  0  0
 20 18  1  0  0  0  0
 21 19  2  0  0  0  0
 22 26  1  0  0  0  0
 23 24  1  0  0  0  0
 24 21  1  0  0  0  0
 25 23  1  0  0  0  0
 25 24  1  0  0  0  0
 26 28  1  0  0  0  0
 27 28  2  0  0  0  0
 28 29  1  0  0  0  0
 29 30  1  0  0  0  0
 33 32  1  0  0  0  0
 33 31  1  0  0  0  0
M  END
>  <MODEL>
9

>  <REMARK>
 VINA RESULT:      -6.3      2.590      5.198
  Name = 
  8 active torsions:
  status: ('A' for Active; 'I' for Inactive)
    1  A    between atoms: C_2  and  C_10
    2  A    between atoms: C_2  and  C_30
    3  A    between atoms: N_5  and  C_30
    4  A    between atoms: N_8  and  C_20
    5  A    between atoms: N_13  and  C_14
    6  A    between atoms: C_14  and  C_19
    7  A    between atoms: C_19  and  C_27
    8  A    between atoms: C_29  and  C_30
                            x       y       z     vdW  Elec       q    Type
                         _______ _______ _______ _____ _____    ______ ____

>  <TORSDO>
F 8

$$$$
