=
 OpenBabel10232411083D

 39 44  0  0  1  0  0  0  0  0999 V2000
  182.1210  176.3030  140.3050 O   0  0  0  0  0  1  0  0  0  0  0  0
  185.8780  178.5350  138.4190 N   0  0  0  0  0  0  0  0  0  0  0  0
  188.4720  178.3050  136.0240 C   0  0  0  0  0  3  0  0  0  0  0  0
  182.8400  179.2180  142.4440 C   0  0  0  0  0  2  0  0  0  0  0  0
  184.8480  178.4980  140.6760 C   0  0  2  0  0  3  0  0  0  0  0  0
  186.9670  178.4290  137.6240 C   0  0  0  0  0  0  0  0  0  0  0  0
  187.5360  178.1950  141.5950 N   0  0  0  0  0  0  0  0  0  0  0  0
  185.2070  178.5640  142.1370 C   0  0  0  0  0  0  0  0  0  0  0  0
  187.3540  178.2680  140.3130 C   0  0  0  0  0  0  0  0  0  0  0  0
  188.4250  178.1630  139.4720 N   0  0  0  0  0  0  0  0  0  0  0  0
  182.6690  177.5790  140.4330 C   0  0  2  0  0  0  0  0  0  0  0  0
  184.0770  177.3430  140.4660 O   0  0  0  0  0  0  0  0  0  0  0  0
  180.7550  178.0080  142.0690 C   0  0  0  0  0  0  0  0  0  0  0  0
  188.2070  178.2460  138.1360 C   0  0  0  0  0  0  0  0  0  0  0  0
  182.1430  178.1700  141.6990 N   0  0  0  0  0  0  0  0  0  0  0  0
  180.2510  178.6690  143.1410 F   0  0  0  0  0  0  0  0  0  0  0  0
  186.4660  178.3480  142.5390 C   0  0  0  0  0  3  0  0  0  0  0  0
  189.1740  178.1650  137.1100 N   0  0  0  0  0  0  0  0  0  0  0  0
  186.0490  178.4640  139.7750 C   0  0  0  0  0  0  0  0  0  0  0  0
  179.9820  177.2780  141.3990 O   0  0  0  0  0  0  0  0  0  0  0  0
  184.0910  178.6870  143.1350 C   0  0  1  0  0  3  0  0  0  0  0  0
  187.0250  178.4810  136.3090 C   0  0  0  0  0  3  0  0  0  0  0  0
  181.8200  178.9580  136.8540 C   0  0  0  0  0  0  0  0  0  0  0  0
  181.7990  179.7650  139.5150 C   0  0  0  0  0  3  0  0  0  0  0  0
  181.4130  180.2460  137.1900 C   0  0  0  0  0  3  0  0  0  0  0  0
  182.1600  177.2810  135.1420 C   0  0  0  0  0  3  0  0  0  0  0  0
  182.5870  176.7470  137.4630 C   0  0  0  0  0  3  0  0  0  0  0  0
  182.2310  178.0440  137.8640 C   0  0  0  0  0  0  0  0  0  0  0  0
  182.5520  176.3660  136.1190 C   0  0  0  0  0  3  0  0  0  0  0  0
  181.3930  180.6450  138.5190 C   0  0  0  0  0  3  0  0  0  0  0  0
  181.7970  178.5740  135.5090 C   0  0  0  0  0  3  0  0  0  0  0  0
  182.2510  178.4650  139.2300 C   0  0  0  0  0  0  0  0  0  0  0  0
  184.4600  179.6290  144.2800 C   0  0  0  0  0  2  0  0  0  0  0  0
  184.4620  178.8830  145.6040 C   0  0  0  0  0  2  0  0  0  0  0  0
  185.6160  179.2750  146.4000 N   0  0  0  0  0  2  0  0  0  0  0  0
  186.5990  178.1940  146.3910 C   0  0  0  0  0  0  0  0  0  0  0  0
  187.6360  178.5360  145.5450 F   0  0  0  0  0  0  0  0  0  0  0  0
  187.1090  178.0020  147.6650 F   0  0  0  0  0  0  0  0  0  0  0  0
  186.0220  177.0190  145.9370 F   0  0  0  0  0  0  0  0  0  0  0  0
  2 19  2  0  0  0  0
  3 22  1  0  0  0  0
  3 18  2  0  0  0  0
  4 21  1  0  0  0  0
  5 19  1  6  0  0  0
  5  8  1  0  0  0  0
  6 14  1  0  0  0  0
  6  2  1  0  0  0  0
  7 17  1  0  0  0  0
  8 17  2  0  0  0  0
  8 21  1  0  0  0  0
  9  7  2  0  0  0  0
 10  9  1  0  0  0  0
 11  1  1  6  0  0  0
 11 12  1  0  0  0  0
 11 15  1  0  0  0  0
 12  5  1  0  0  0  0
 13 16  1  0  0  0  0
 14 10  2  0  0  0  0
 15 13  1  0  0  0  0
 15  4  1  0  0  0  0
 18 14  1  0  0  0  0
 19  9  1  0  0  0  0
 20 13  2  0  0  0  0
 21 33  1  1  0  0  0
 22  6  2  0  0  0  0
 23 25  2  0  0  0  0
 23 28  1  0  0  0  0
 25 30  1  0  0  0  0
 26 31  2  0  0  0  0
 26 29  1  0  0  0  0
 27 28  1  0  0  0  0
 28 32  2  0  0  0  0
 29 27  2  0  0  0  0
 30 24  2  0  0  0  0
 31 23  1  0  0  0  0
 32 24  1  0  0  0  0
 32 11  1  0  0  0  0
 33 34  1  0  0  0  0
 34 35  1  0  0  0  0
 36 35  1  0  0  0  0
 36 38  1  0  0  0  0
 37 36  1  0  0  0  0
 39 36  1  0  0  0  0
M  END
>  <MODEL>
1

>  <REMARK>
 VINA RESULT:      -7.8      0.000      0.000
  Name = 
  5 active torsions:
  status: ('A' for Active; 'I' for Inactive)
    1  A    between atoms: C_1  and  C_12
    2  A    between atoms: C_1  and  N_34
    3  A    between atoms: C_5  and  N_34
    4  A    between atoms: C_12  and  C_38
    5  A    between atoms: C_20  and  C_37
                            x       y       z     vdW  Elec       q    Type
                         _______ _______ _______ _____ _____    ______ ____

>  <TORSDO>
F 5

$$$$
=
 OpenBabel10232411083D

 39 44  0  0  1  0  0  0  0  0999 V2000
  186.9390  179.1280  136.8600 O   0  0  0  0  0  1  0  0  0  0  0  0
  183.4830  177.4130  139.6480 N   0  0  0  0  0  0  0  0  0  0  0  0
  179.9990  177.4220  140.2660 C   0  0  0  0  0  3  0  0  0  0  0  0
  188.5710  177.4710  139.7220 C   0  0  0  0  0  2  0  0  0  0  0  0
  185.8660  177.9950  140.0160 C   0  0  2  0  0  3  0  0  0  0  0  0
  182.1830  177.5010  140.0110 C   0  0  0  0  0  0  0  0  0  0  0  0
  184.8990  179.2900  142.3720 N   0  0  0  0  0  0  0  0  0  0  0  0
  186.7950  178.5560  141.0610 C   0  0  0  0  0  0  0  0  0  0  0  0
  184.0200  178.7160  141.6100 C   0  0  0  0  0  0  0  0  0  0  0  0
  182.6950  178.7820  141.9370 N   0  0  0  0  0  0  0  0  0  0  0  0
  186.8810  178.1710  137.8730 C   0  0  2  0  0  0  0  0  0  0  0  0
  186.0130  178.7560  138.8450 O   0  0  0  0  0  0  0  0  0  0  0  0
  189.3850  177.8830  137.4590 C   0  0  0  0  0  0  0  0  0  0  0  0
  181.7990  178.1690  141.1250 C   0  0  0  0  0  0  0  0  0  0  0  0
  188.2710  177.9620  138.3760 N   0  0  0  0  0  0  0  0  0  0  0  0
  190.6200  177.5480  137.9090 F   0  0  0  0  0  0  0  0  0  0  0  0
  186.3090  179.2190  142.1180 C   0  0  0  0  0  3  0  0  0  0  0  0
  180.3980  178.1200  141.2890 N   0  0  0  0  0  0  0  0  0  0  0  0
  184.4250  178.0100  140.4400 C   0  0  0  0  0  0  0  0  0  0  0  0
  189.2340  178.0970  136.2290 O   0  0  0  0  0  0  0  0  0  0  0  0
  188.2720  178.5180  140.7880 C   0  0  1  0  0  3  0  0  0  0  0  0
  181.1300  176.9960  139.4030 C   0  0  0  0  0  3  0  0  0  0  0  0
  184.6480  175.3860  136.2330 C   0  0  0  0  0  0  0  0  0  0  0  0
  187.1670  175.7140  137.3640 C   0  0  0  0  0  3  0  0  0  0  0  0
  185.5150  174.3000  136.3350 C   0  0  0  0  0  3  0  0  0  0  0  0
  182.5210  176.2660  135.4840 C   0  0  0  0  0  3  0  0  0  0  0  0
  184.1350  177.7290  136.5360 C   0  0  0  0  0  3  0  0  0  0  0  0
  185.0390  176.6690  136.7080 C   0  0  0  0  0  0  0  0  0  0  0  0
  182.8910  177.5340  135.9300 C   0  0  0  0  0  3  0  0  0  0  0  0
  186.7760  174.4670  136.8900 C   0  0  0  0  0  3  0  0  0  0  0  0
  183.3970  175.1940  135.6380 C   0  0  0  0  0  3  0  0  0  0  0  0
  186.3210  176.8350  137.3180 C   0  0  0  0  0  0  0  0  0  0  0  0
  189.0690  178.1820  142.0470 C   0  0  0  0  0  2  0  0  0  0  0  0
  190.2650  177.3090  141.7040 C   0  0  0  0  0  2  0  0  0  0  0  0
  190.3370  176.1750  142.6140 N   0  0  0  0  0  2  0  0  0  0  0  0
  191.3180  176.4560  143.6600 C   0  0  0  0  0  0  0  0  0  0  0  0
  192.1010  175.3350  143.8540 F   0  0  0  0  0  0  0  0  0  0  0  0
  192.1340  177.5090  143.2810 F   0  0  0  0  0  0  0  0  0  0  0  0
  190.6800  176.7640  144.8510 F   0  0  0  0  0  0  0  0  0  0  0  0
  2  6  1  0  0  0  0
  2 19  2  0  0  0  0
  3 18  2  0  0  0  0
  4 21  1  0  0  0  0
  5 12  1  6  0  0  0
  5 19  1  0  0  0  0
  5  8  1  0  0  0  0
  6 14  1  0  0  0  0
  8 17  2  0  0  0  0
  9 10  1  0  0  0  0
  9  7  2  0  0  0  0
 11  1  1  6  0  0  0
 11 15  1  0  0  0  0
 11 12  1  0  0  0  0
 13 16  1  0  0  0  0
 13 15  1  0  0  0  0
 14 18  1  0  0  0  0
 14 10  2  0  0  0  0
 15  4  1  0  0  0  0
 17  7  1  0  0  0  0
 19  9  1  0  0  0  0
 20 13  2  0  0  0  0
 21  8  1  0  0  0  0
 21 33  1  1  0  0  0
 22  6  2  0  0  0  0
 22  3  1  0  0  0  0
 23 25  2  0  0  0  0
 23 28  1  0  0  0  0
 25 30  1  0  0  0  0
 26 31  2  0  0  0  0
 26 29  1  0  0  0  0
 27 28  1  0  0  0  0
 28 32  2  0  0  0  0
 29 27  2  0  0  0  0
 30 24  2  0  0  0  0
 31 23  1  0  0  0  0
 32 24  1  0  0  0  0
 32 11  1  0  0  0  0
 34 33  1  0  0  0  0
 34 35  1  0  0  0  0
 35 36  1  0  0  0  0
 36 37  1  0  0  0  0
 36 39  1  0  0  0  0
 38 36  1  0  0  0  0
M  END
>  <MODEL>
2

>  <REMARK>
 VINA RESULT:      -7.4      3.181      6.064
  Name = 
  5 active torsions:
  status: ('A' for Active; 'I' for Inactive)
    1  A    between atoms: C_1  and  C_12
    2  A    between atoms: C_1  and  N_34
    3  A    between atoms: C_5  and  N_34
    4  A    between atoms: C_12  and  C_38
    5  A    between atoms: C_20  and  C_37
                            x       y       z     vdW  Elec       q    Type
                         _______ _______ _______ _____ _____    ______ ____

>  <TORSDO>
F 5

$$$$
=
 OpenBabel10232411083D

 39 44  0  0  1  0  0  0  0  0999 V2000
  187.5690  179.4470  136.9680 O   0  0  0  0  0  1  0  0  0  0  0  0
  186.9290  177.6240  141.3180 N   0  0  0  0  0  0  0  0  0  0  0  0
  185.6400  178.2530  144.5520 C   0  0  0  0  0  3  0  0  0  0  0  0
  189.5320  176.3310  137.1420 C   0  0  0  0  0  2  0  0  0  0  0  0
  188.6670  177.3460  139.5700 C   0  0  2  0  0  3  0  0  0  0  0  0
  186.5840  177.8730  142.6030 C   0  0  0  0  0  0  0  0  0  0  0  0
  190.5020  177.6550  141.7370 N   0  0  0  0  0  0  0  0  0  0  0  0
  190.1470  177.1210  139.4050 C   0  0  0  0  0  0  0  0  0  0  0  0
  189.2390  177.7290  142.0180 C   0  0  0  0  0  0  0  0  0  0  0  0
  188.8450  177.9800  143.3020 N   0  0  0  0  0  0  0  0  0  0  0  0
  187.7580  178.1900  137.5420 C   0  0  2  0  0  0  0  0  0  0  0  0
  188.3100  178.4820  138.8270 O   0  0  0  0  0  0  0  0  0  0  0  0
  188.5620  177.4840  135.2220 C   0  0  0  0  0  0  0  0  0  0  0  0
  187.5180  178.0480  143.5680 C   0  0  0  0  0  0  0  0  0  0  0  0
  188.6930  177.4290  136.6610 N   0  0  0  0  0  0  0  0  0  0  0  0
  189.3170  176.6780  134.4350 F   0  0  0  0  0  0  0  0  0  0  0  0
  190.9870  177.3430  140.4240 C   0  0  0  0  0  3  0  0  0  0  0  0
  186.9130  178.2930  144.8200 N   0  0  0  0  0  0  0  0  0  0  0  0
  188.2570  177.5410  141.0020 C   0  0  1  0  0  3  0  0  0  0  0  0
  187.7350  178.2540  134.6720 O   0  0  0  0  0  0  0  0  0  0  0  0
  190.6680  176.8300  138.0260 C   0  0  1  0  0  3  0  0  0  0  0  0
  185.3770  177.9810  143.1170 C   0  0  0  0  0  2  0  0  0  0  0  0
  184.0330  177.1650  138.2520 C   0  0  0  0  0  0  0  0  0  0  0  0
  186.3360  176.1610  137.0570 C   0  0  0  0  0  3  0  0  0  0  0  0
  184.0280  175.8930  137.6850 C   0  0  0  0  0  3  0  0  0  0  0  0
  182.8110  178.9340  139.3640 C   0  0  0  0  0  3  0  0  0  0  0  0
  185.1370  179.2510  138.7780 C   0  0  0  0  0  3  0  0  0  0  0  0
  185.2120  177.9610  138.2280 C   0  0  0  0  0  0  0  0  0  0  0  0
  183.9520  179.7350  139.3380 C   0  0  0  0  0  3  0  0  0  0  0  0
  185.1750  175.3960  137.0800 C   0  0  0  0  0  3  0  0  0  0  0  0
  182.8530  177.6510  138.8230 C   0  0  0  0  0  3  0  0  0  0  0  0
  186.4070  177.4370  137.6430 C   0  0  0  0  0  0  0  0  0  0  0  0
  191.7730  175.7760  138.0520 C   0  0  0  0  0  2  0  0  0  0  0  0
  193.0660  176.3430  137.4880 C   0  0  0  0  0  2  0  0  0  0  0  0
  194.2020  175.8800  138.2710 N   0  0  0  0  0  2  0  0  0  0  0  0
  194.7480  174.6690  137.6620 C   0  0  0  0  0  0  0  0  0  0  0  0
  196.1260  174.7060  137.7480 F   0  0  0  0  0  0  0  0  0  0  0  0
  194.2890  173.5480  138.3340 F   0  0  0  0  0  0  0  0  0  0  0  0
  194.3870  174.5950  136.3270 F   0  0  0  0  0  0  0  0  0  0  0  0
  2  6  2  0  0  0  0
  3 18  2  0  0  0  0
  4 21  1  0  0  0  0
  5 12  1  6  0  0  0
  5 19  1  0  0  0  0
  6 22  1  0  0  0  0
  6 14  1  0  0  0  0
  7  9  2  0  0  0  0
  8  5  1  0  0  0  0
  8 17  2  0  0  0  0
  9 10  1  0  0  0  0
 10 14  2  0  0  0  0
 11  1  1  6  0  0  0
 11 32  1  0  0  0  0
 11 12  1  0  0  0  0
 13 15  1  0  0  0  0
 14 18  1  0  0  0  0
 15  4  1  0  0  0  0
 15 11  1  0  0  0  0
 16 13  1  0  0  0  0
 17  7  1  0  0  0  0
 19  2  1  6  0  0  0
 19  9  1  0  0  0  0
 20 13  2  0  0  0  0
 21 33  1  1  0  0  0
 21  8  1  0  0  0  0
 22  3  1  0  0  0  0
 23 31  1  0  0  0  0
 24 30  2  0  0  0  0
 24 32  1  0  0  0  0
 25 23  2  0  0  0  0
 27 29  2  0  0  0  0
 28 23  1  0  0  0  0
 28 27  1  0  0  0  0
 29 26  1  0  0  0  0
 30 25  1  0  0  0  0
 31 26  2  0  0  0  0
 32 28  2  0  0  0  0
 34 33  1  0  0  0  0
 34 35  1  0  0  0  0
 36 37  1  0  0  0  0
 36 35  1  0  0  0  0
 36 38  1  0  0  0  0
 39 36  1  0  0  0  0
M  END
>  <MODEL>
3

>  <REMARK>
 VINA RESULT:      -7.4      4.764      7.742
  Name = 
  5 active torsions:
  status: ('A' for Active; 'I' for Inactive)
    1  A    between atoms: C_1  and  C_12
    2  A    between atoms: C_1  and  N_34
    3  A    between atoms: C_5  and  N_34
    4  A    between atoms: C_12  and  C_38
    5  A    between atoms: C_20  and  C_37
                            x       y       z     vdW  Elec       q    Type
                         _______ _______ _______ _____ _____    ______ ____

>  <TORSDO>
F 5

$$$$
=
 OpenBabel10232411083D

 39 44  0  0  1  0  0  0  0  0999 V2000
  182.8940  175.3470  138.0200 O   0  0  0  0  0  1  0  0  0  0  0  0
  184.7700  178.0150  141.4880 N   0  0  0  0  0  0  0  0  0  0  0  0
  186.4160  177.9420  144.6180 C   0  0  0  0  0  3  0  0  0  0  0  0
  181.8800  178.8330  137.3800 C   0  0  0  0  0  2  0  0  0  0  0  0
  182.8770  178.3150  139.9120 C   0  0  2  0  0  3  0  0  0  0  0  0
  185.2650  178.0380  142.7460 C   0  0  0  0  0  0  0  0  0  0  0  0
  181.4510  179.1910  142.2280 N   0  0  0  0  0  0  0  0  0  0  0  0
  181.5030  178.9250  139.8240 C   0  0  0  0  0  0  0  0  0  0  0  0
  182.6810  178.8170  142.3980 C   0  0  0  0  0  0  0  0  0  0  0  0
  183.2220  178.8220  143.6520 N   0  0  0  0  0  0  0  0  0  0  0  0
  183.1480  176.7090  138.1810 C   0  0  2  0  0  0  0  0  0  0  0  0
  182.7830  176.9660  139.5380 O   0  0  0  0  0  0  0  0  0  0  0  0
  182.1490  176.9570  135.8430 C   0  0  0  0  0  0  0  0  0  0  0  0
  184.5110  178.4300  143.8000 C   0  0  0  0  0  0  0  0  0  0  0  0
  182.3010  177.4440  137.1960 N   0  0  0  0  0  0  0  0  0  0  0  0
  181.5010  177.7050  134.9160 F   0  0  0  0  0  0  0  0  0  0  0  0
  180.8340  179.2600  140.9350 C   0  0  0  0  0  3  0  0  0  0  0  0
  185.2480  178.3670  145.0030 N   0  0  0  0  0  0  0  0  0  0  0  0
  183.4750  178.4090  141.2870 C   0  0  0  0  0  0  0  0  0  0  0  0
  182.6310  175.8510  135.4910 O   0  0  0  0  0  0  0  0  0  0  0  0
  180.8340  178.9690  138.4790 C   0  0  1  0  0  3  0  0  0  0  0  0
  186.4750  177.7130  143.1530 C   0  0  0  0  0  3  0  0  0  0  0  0
  186.9670  176.4580  137.2940 C   0  0  0  0  0  0  0  0  0  0  0  0
  185.0570  178.3520  138.0020 C   0  0  0  0  0  3  0  0  0  0  0  0
  187.3270  177.7970  137.4310 C   0  0  0  0  0  3  0  0  0  0  0  0
  187.6100  174.1950  136.7280 C   0  0  0  0  0  3  0  0  0  0  0  0
  185.3170  174.6910  137.3190 C   0  0  0  0  0  3  0  0  0  0  0  0
  185.6230  176.0460  137.5160 C   0  0  0  0  0  0  0  0  0  0  0  0
  186.2960  173.7740  136.9280 C   0  0  0  0  0  3  0  0  0  0  0  0
  186.3710  178.7430  137.7740 C   0  0  0  0  0  3  0  0  0  0  0  0
  187.9450  175.5340  136.9130 C   0  0  0  0  0  3  0  0  0  0  0  0
  184.6450  177.0120  137.9110 C   0  0  0  0  0  0  0  0  0  0  0  0
  180.0670  180.2740  138.2730 C   0  0  0  0  0  2  0  0  0  0  0  0
  180.8400  181.2080  137.3570 C   0  0  0  0  0  2  0  0  0  0  0  0
  181.3590  182.3380  138.1140 N   0  0  0  0  0  2  0  0  0  0  0  0
  181.1630  183.5660  137.3460 C   0  0  0  0  0  0  0  0  0  0  0  0
  182.2280  184.4150  137.5770 F   0  0  0  0  0  0  0  0  0  0  0  0
  181.1070  183.2790  135.9920 F   0  0  0  0  0  0  0  0  0  0  0  0
  179.9950  184.2000  137.7380 F   0  0  0  0  0  0  0  0  0  0  0  0
  2  6  1  0  0  0  0
  3 18  2  0  0  0  0
  4 21  1  0  0  0  0
  5 12  1  1  0  0  0
  5 19  1  0  0  0  0
  6 22  2  0  0  0  0
  6 14  1  0  0  0  0
  7  9  2  0  0  0  0
  8  5  1  0  0  0  0
  8 17  2  0  0  0  0
  9 10  1  0  0  0  0
 10 14  2  0  0  0  0
 11  1  1  6  0  0  0
 11 12  1  0  0  0  0
 13 15  1  0  0  0  0
 14 18  1  0  0  0  0
 15  4  1  0  0  0  0
 15 11  1  0  0  0  0
 16 13  1  0  0  0  0
 17  7  1  0  0  0  0
 19  2  2  0  0  0  0
 19  9  1  0  0  0  0
 20 13  2  0  0  0  0
 21 33  1  6  0  0  0
 21  8  1  0  0  0  0
 22  3  1  0  0  0  0
 23 25  2  0  0  0  0
 23 28  1  0  0  0  0
 25 30  1  0  0  0  0
 26 31  2  0  0  0  0
 26 29  1  0  0  0  0
 27 28  1  0  0  0  0
 28 32  2  0  0  0  0
 29 27  2  0  0  0  0
 30 24  2  0  0  0  0
 31 23  1  0  0  0  0
 32 24  1  0  0  0  0
 32 11  1  0  0  0  0
 34 35  1  0  0  0  0
 34 33  1  0  0  0  0
 36 37  1  0  0  0  0
 36 39  1  0  0  0  0
 36 35  1  0  0  0  0
 38 36  1  0  0  0  0
M  END
>  <MODEL>
4

>  <REMARK>
 VINA RESULT:      -6.2      4.034      6.881
  Name = 
  5 active torsions:
  status: ('A' for Active; 'I' for Inactive)
    1  A    between atoms: C_1  and  C_12
    2  A    between atoms: C_1  and  N_34
    3  A    between atoms: C_5  and  N_34
    4  A    between atoms: C_12  and  C_38
    5  A    between atoms: C_20  and  C_37
                            x       y       z     vdW  Elec       q    Type
                         _______ _______ _______ _____ _____    ______ ____

>  <TORSDO>
F 5

$$$$
=
 OpenBabel10232411083D

 39 44  0  0  1  0  0  0  0  0999 V2000
  189.1240  178.5850  135.8760 O   0  0  0  0  0  1  0  0  0  0  0  0
  185.0280  177.9780  138.2230 N   0  0  0  0  0  0  0  0  0  0  0  0
  181.7010  179.1290  138.5730 C   0  0  0  0  0  3  0  0  0  0  0  0
  189.8100  176.3020  138.6890 C   0  0  0  0  0  2  0  0  0  0  0  0
  187.4180  177.6940  138.8230 C   0  0  2  0  0  3  0  0  0  0  0  0
  183.8010  178.4790  138.4930 C   0  0  0  0  0  0  0  0  0  0  0  0
  186.7000  179.0940  141.2070 N   0  0  0  0  0  0  0  0  0  0  0  0
  188.3680  177.8420  139.9830 C   0  0  0  0  0  0  0  0  0  0  0  0
  185.7630  178.8990  140.3320 C   0  0  0  0  0  0  0  0  0  0  0  0
  184.5090  179.3900  140.5620 N   0  0  0  0  0  0  0  0  0  0  0  0
  188.6470  177.6450  136.7890 C   0  0  2  0  0  0  0  0  0  0  0  0
  187.9290  178.4290  137.7420 O   0  0  0  0  0  0  0  0  0  0  0  0
  190.9430  176.5510  136.5410 C   0  0  0  0  0  0  0  0  0  0  0  0
  183.5490  179.1680  139.6310 C   0  0  0  0  0  0  0  0  0  0  0  0
  189.8300  176.9470  137.3750 N   0  0  0  0  0  0  0  0  0  0  0  0
  191.9430  175.7900  137.0510 F   0  0  0  0  0  0  0  0  0  0  0  0
  188.0240  178.5640  141.0570 C   0  0  0  0  0  3  0  0  0  0  0  0
  182.2020  179.5880  139.6830 N   0  0  0  0  0  0  0  0  0  0  0  0
  186.0280  178.1700  139.1360 C   0  0  0  0  0  0  0  0  0  0  0  0
  190.9980  176.8780  135.3290 O   0  0  0  0  0  0  0  0  0  0  0  0
  189.7680  177.3220  139.8200 C   0  0  1  0  0  3  0  0  0  0  0  0
  182.7080  178.3980  137.7630 C   0  0  0  0  0  3  0  0  0  0  0  0
  186.9450  174.3580  135.4740 C   0  0  0  0  0  0  0  0  0  0  0  0
  186.6740  177.1210  135.3040 C   0  0  0  0  0  3  0  0  0  0  0  0
  185.9300  174.9140  134.6990 C   0  0  0  0  0  3  0  0  0  0  0  0
  188.0190  172.3760  136.3550 C   0  0  0  0  0  3  0  0  0  0  0  0
  188.8260  174.5700  136.9790 C   0  0  0  0  0  3  0  0  0  0  0  0
  187.8530  175.1940  136.1820 C   0  0  0  0  0  0  0  0  0  0  0  0
  188.9090  173.1780  137.0680 C   0  0  0  0  0  3  0  0  0  0  0  0
  185.7890  176.2920  134.6230 C   0  0  0  0  0  3  0  0  0  0  0  0
  187.0410  172.9650  135.5580 C   0  0  0  0  0  3  0  0  0  0  0  0
  187.7360  176.6150  136.0730 C   0  0  0  0  0  0  0  0  0  0  0  0
  190.2760  176.6600  141.1000 C   0  0  0  0  0  2  0  0  0  0  0  0
  191.4360  177.4480  141.6860 C   0  0  0  0  0  2  0  0  0  0  0  0
  191.7240  176.9900  143.0370 N   0  0  0  0  0  2  0  0  0  0  0  0
  191.2550  177.9870  143.9970 C   0  0  0  0  0  0  0  0  0  0  0  0
  191.6440  179.2410  143.5690 F   0  0  0  0  0  0  0  0  0  0  0  0
  189.8720  177.9540  144.0830 F   0  0  0  0  0  0  0  0  0  0  0  0
  191.8060  177.7520  145.2460 F   0  0  0  0  0  0  0  0  0  0  0  0
  2  6  1  0  0  0  0
  2 19  2  0  0  0  0
  3 18  2  0  0  0  0
  4 21  1  0  0  0  0
  5 12  1  6  0  0  0
  5 19  1  0  0  0  0
  5  8  1  0  0  0  0
  6 14  1  0  0  0  0
  8 17  2  0  0  0  0
  9 10  1  0  0  0  0
  9  7  2  0  0  0  0
 11  1  1  6  0  0  0
 11 15  1  0  0  0  0
 11 12  1  0  0  0  0
 13 16  1  0  0  0  0
 13 15  1  0  0  0  0
 14 18  1  0  0  0  0
 14 10  2  0  0  0  0
 15  4  1  0  0  0  0
 17  7  1  0  0  0  0
 19  9  1  0  0  0  0
 20 13  2  0  0  0  0
 21  8  1  0  0  0  0
 21 33  1  1  0  0  0
 22  6  2  0  0  0  0
 22  3  1  0  0  0  0
 23 31  1  0  0  0  0
 23 28  1  0  0  0  0
 24 32  1  0  0  0  0
 25 23  2  0  0  0  0
 26 29  1  0  0  0  0
 27 29  2  0  0  0  0
 28 27  1  0  0  0  0
 30 25  1  0  0  0  0
 30 24  2  0  0  0  0
 31 26  2  0  0  0  0
 32 28  2  0  0  0  0
 32 11  1  0  0  0  0
 33 34  1  0  0  0  0
 34 35  1  0  0  0  0
 35 36  1  0  0  0  0
 36 38  1  0  0  0  0
 36 39  1  0  0  0  0
 37 36  1  0  0  0  0
M  END
>  <MODEL>
5

>  <REMARK>
 VINA RESULT:      -6.0      3.883      6.835
  Name = 
  5 active torsions:
  status: ('A' for Active; 'I' for Inactive)
    1  A    between atoms: C_1  and  C_12
    2  A    between atoms: C_1  and  N_34
    3  A    between atoms: C_5  and  N_34
    4  A    between atoms: C_12  and  C_38
    5  A    between atoms: C_20  and  C_37
                            x       y       z     vdW  Elec       q    Type
                         _______ _______ _______ _____ _____    ______ ____

>  <TORSDO>
F 5

$$$$
=
 OpenBabel10232411083D

 39 44  0  0  1  0  0  0  0  0999 V2000
  182.2270  175.7980  139.3720 O   0  0  0  0  0  1  0  0  0  0  0  0
  185.6780  178.0290  136.9710 N   0  0  0  0  0  0  0  0  0  0  0  0
  188.1590  177.6660  134.4750 C   0  0  0  0  0  3  0  0  0  0  0  0
  182.7960  179.0350  141.0420 C   0  0  0  0  0  2  0  0  0  0  0  0
  184.7680  178.2310  139.2700 C   0  0  2  0  0  3  0  0  0  0  0  0
  186.7320  177.8970  136.1320 C   0  0  0  0  0  0  0  0  0  0  0  0
  187.5140  178.2750  140.0550 N   0  0  0  0  0  0  0  0  0  0  0  0
  185.1930  178.5320  140.6830 C   0  0  0  0  0  0  0  0  0  0  0  0
  187.2640  178.1500  138.7890 C   0  0  0  0  0  0  0  0  0  0  0  0
  188.2970  178.0110  137.9060 N   0  0  0  0  0  0  0  0  0  0  0  0
  182.6680  177.1180  139.2890 C   0  0  2  0  0  0  0  0  0  0  0  0
  184.0910  177.0010  139.2680 O   0  0  0  0  0  0  0  0  0  0  0  0
  180.8070  177.6230  140.9650 C   0  0  0  0  0  0  0  0  0  0  0  0
  188.0070  177.8870  136.5880 C   0  0  0  0  0  0  0  0  0  0  0  0
  182.1560  177.8390  140.4920 N   0  0  0  0  0  0  0  0  0  0  0  0
  180.3020  178.3880  141.9650 F   0  0  0  0  0  0  0  0  0  0  0  0
  186.4840  178.4750  141.0330 C   0  0  0  0  0  3  0  0  0  0  0  0
  188.9240  177.7380  135.5250 N   0  0  0  0  0  0  0  0  0  0  0  0
  185.9220  178.1640  138.3100 C   0  0  0  0  0  0  0  0  0  0  0  0
  180.0680  176.7470  140.4500 O   0  0  0  0  0  0  0  0  0  0  0  0
  184.1200  178.7070  141.7210 C   0  0  1  0  0  3  0  0  0  0  0  0
  186.7190  177.7660  134.8210 C   0  0  0  0  0  3  0  0  0  0  0  0
  181.2090  179.6440  136.6580 C   0  0  0  0  0  0  0  0  0  0  0  0
  182.0880  177.0110  136.8330 C   0  0  0  0  0  3  0  0  0  0  0  0
  181.1720  178.8190  135.5360 C   0  0  0  0  0  3  0  0  0  0  0  0
  180.8420  181.8330  137.6220 C   0  0  0  0  0  3  0  0  0  0  0  0
  181.7430  180.0460  138.9820 C   0  0  0  0  0  3  0  0  0  0  0  0
  181.6920  179.1510  137.9020 C   0  0  0  0  0  0  0  0  0  0  0  0
  181.3250  181.3720  138.8460 C   0  0  0  0  0  3  0  0  0  0  0  0
  181.6210  177.5080  135.6220 C   0  0  0  0  0  3  0  0  0  0  0  0
  180.7820  180.9700  136.5310 C   0  0  0  0  0  3  0  0  0  0  0  0
  182.1160  177.7890  138.0040 C   0  0  0  0  0  0  0  0  0  0  0  0
  184.4630  179.8280  142.7010 C   0  0  0  0  0  2  0  0  0  0  0  0
  183.9900  179.4750  144.1020 C   0  0  0  0  0  2  0  0  0  0  0  0
  184.6640  178.2740  144.5730 N   0  0  0  0  0  2  0  0  0  0  0  0
  185.3270  178.5580  145.8430 C   0  0  0  0  0  0  0  0  0  0  0  0
  184.4870  178.1980  146.8790 F   0  0  0  0  0  0  0  0  0  0  0  0
  186.4990  177.8250  145.9450 F   0  0  0  0  0  0  0  0  0  0  0  0
  185.6110  179.9100  145.9490 F   0  0  0  0  0  0  0  0  0  0  0  0
  2 19  2  0  0  0  0
  3 22  1  0  0  0  0
  3 18  2  0  0  0  0
  4 21  1  0  0  0  0
  5 19  1  6  0  0  0
  5  8  1  0  0  0  0
  6 14  1  0  0  0  0
  6  2  1  0  0  0  0
  7 17  1  0  0  0  0
  8 17  2  0  0  0  0
  8 21  1  0  0  0  0
  9  7  2  0  0  0  0
 10  9  1  0  0  0  0
 11  1  1  1  0  0  0
 11 15  1  0  0  0  0
 12  5  1  0  0  0  0
 12 11  1  0  0  0  0
 13 16  1  0  0  0  0
 14 10  2  0  0  0  0
 15 13  1  0  0  0  0
 15  4  1  0  0  0  0
 18 14  1  0  0  0  0
 19  9  1  0  0  0  0
 20 13  2  0  0  0  0
 21 33  1  1  0  0  0
 22  6  2  0  0  0  0
 23 28  1  0  0  0  0
 24 32  1  0  0  0  0
 25 30  1  0  0  0  0
 25 23  2  0  0  0  0
 26 29  1  0  0  0  0
 28 32  2  0  0  0  0
 28 27  1  0  0  0  0
 29 27  2  0  0  0  0
 30 24  2  0  0  0  0
 31 23  1  0  0  0  0
 31 26  2  0  0  0  0
 32 11  1  0  0  0  0
 33 34  1  0  0  0  0
 34 35  1  0  0  0  0
 35 36  1  0  0  0  0
 36 38  1  0  0  0  0
 36 39  1  0  0  0  0
 36 37  1  0  0  0  0
M  END
>  <MODEL>
6

>  <REMARK>
 VINA RESULT:      -5.8      1.266      2.314
  Name = 
  5 active torsions:
  status: ('A' for Active; 'I' for Inactive)
    1  A    between atoms: C_1  and  C_12
    2  A    between atoms: C_1  and  N_34
    3  A    between atoms: C_5  and  N_34
    4  A    between atoms: C_12  and  C_38
    5  A    between atoms: C_20  and  C_37
                            x       y       z     vdW  Elec       q    Type
                         _______ _______ _______ _____ _____    ______ ____

>  <TORSDO>
F 5

$$$$
=
 OpenBabel10232411083D

 39 44  0  0  1  0  0  0  0  0999 V2000
  189.6600  175.5470  142.0030 O   0  0  0  0  0  1  0  0  0  0  0  0
  186.2340  178.6640  143.0980 N   0  0  0  0  0  0  0  0  0  0  0  0
  183.2430  179.1460  144.9250 C   0  0  0  0  0  3  0  0  0  0  0  0
  190.0710  178.4460  139.7630 C   0  0  0  0  0  2  0  0  0  0  0  0
  187.6470  178.2870  141.0940 C   0  0  2  0  0  3  0  0  0  0  0  0
  185.0160  178.8470  143.6590 C   0  0  0  0  0  0  0  0  0  0  0  0
  185.1940  178.5630  139.6550 N   0  0  0  0  0  0  0  0  0  0  0  0
  187.6040  178.3650  139.5900 C   0  0  0  0  0  0  0  0  0  0  0  0
  185.1340  178.6520  140.9470 C   0  0  0  0  0  0  0  0  0  0  0  0
  183.9250  178.8350  141.5570 N   0  0  0  0  0  0  0  0  0  0  0  0
  189.4610  176.9070  141.7690 C   0  0  2  0  0  0  0  0  0  0  0  0
  188.0700  176.9980  141.4540 O   0  0  0  0  0  0  0  0  0  0  0  0
  191.7030  176.8110  140.5490 C   0  0  0  0  0  0  0  0  0  0  0  0
  183.8920  178.9290  142.9090 C   0  0  0  0  0  0  0  0  0  0  0  0
  190.3460  177.3020  140.6330 N   0  0  0  0  0  0  0  0  0  0  0  0
  192.5460  177.2880  139.5990 F   0  0  0  0  0  0  0  0  0  0  0  0
  186.4320  178.4230  138.9440 C   0  0  0  0  0  3  0  0  0  0  0  0
  182.7530  179.1190  143.7210 N   0  0  0  0  0  0  0  0  0  0  0  0
  186.3180  178.5700  141.7360 C   0  0  1  0  0  3  0  0  0  0  0  0
  192.1390  175.9560  141.3600 O   0  0  0  0  0  0  0  0  0  0  0  0
  188.8910  178.1830  138.8360 C   0  0  1  0  0  3  0  0  0  0  0  0
  184.7170  178.9720  144.9360 C   0  0  0  0  0  2  0  0  0  0  0  0
  189.6140  178.4520  145.3770 C   0  0  0  0  0  0  0  0  0  0  0  0
  190.9440  178.5830  142.9380 C   0  0  0  0  0  3  0  0  0  0  0  0
  190.7030  179.3060  145.2200 C   0  0  0  0  0  3  0  0  0  0  0  0
  187.9140  177.5190  146.8260 C   0  0  0  0  0  3  0  0  0  0  0  0
  188.0940  176.7720  144.5320 C   0  0  0  0  0  3  0  0  0  0  0  0
  189.1690  177.6420  144.2950 C   0  0  0  0  0  0  0  0  0  0  0  0
  187.4730  176.7070  145.7820 C   0  0  0  0  0  3  0  0  0  0  0  0
  191.3730  179.3630  144.0060 C   0  0  0  0  0  3  0  0  0  0  0  0
  188.9810  178.3910  146.6230 C   0  0  0  0  0  3  0  0  0  0  0  0
  189.8310  177.7290  143.0300 C   0  0  0  0  0  0  0  0  0  0  0  0
  188.9820  179.1290  137.6410 C   0  0  0  0  0  2  0  0  0  0  0  0
  188.9820  178.3450  136.3380 C   0  0  0  0  0  2  0  0  0  0  0  0
  188.9960  176.9150  136.6120 N   0  0  0  0  0  2  0  0  0  0  0  0
  190.2390  176.3380  136.1050 C   0  0  0  0  0  0  0  0  0  0  0  0
  191.2670  176.6510  136.9720 F   0  0  0  0  0  0  0  0  0  0  0  0
  190.1270  174.9590  136.0240 F   0  0  0  0  0  0  0  0  0  0  0  0
  190.5370  176.8560  134.8550 F   0  0  0  0  0  0  0  0  0  0  0  0
  2  6  2  0  0  0  0
  3 22  1  0  0  0  0
  4 15  1  0  0  0  0
  5  8  1  6  0  0  0
  5 12  1  0  0  0  0
  5 19  1  0  0  0  0
  6 22  1  0  0  0  0
  7  9  2  0  0  0  0
  9 10  1  0  0  0  0
 10 14  2  0  0  0  0
 11  1  1  1  0  0  0
 11 32  1  0  0  0  0
 12 11  1  0  0  0  0
 13 15  1  0  0  0  0
 13 20  2  0  0  0  0
 14  6  1  0  0  0  0
 14 18  1  0  0  0  0
 15 11  1  0  0  0  0
 16 13  1  0  0  0  0
 17  8  2  0  0  0  0
 17  7  1  0  0  0  0
 18  3  2  0  0  0  0
 19  9  1  1  0  0  0
 19  2  1  0  0  0  0
 21 33  1  6  0  0  0
 21  8  1  0  0  0  0
 21  4  1  0  0  0  0
 23 31  1  0  0  0  0
 24 32  2  0  0  0  0
 24 30  1  0  0  0  0
 25 23  1  0  0  0  0
 27 29  2  0  0  0  0
 28 27  1  0  0  0  0
 28 23  2  0  0  0  0
 29 26  1  0  0  0  0
 30 25  2  0  0  0  0
 31 26  2  0  0  0  0
 32 28  1  0  0  0  0
 34 35  1  0  0  0  0
 34 33  1  0  0  0  0
 36 35  1  0  0  0  0
 36 37  1  0  0  0  0
 38 36  1  0  0  0  0
 39 36  1  0  0  0  0
M  END
>  <MODEL>
7

>  <REMARK>
 VINA RESULT:      -5.7      4.595      9.061
  Name = 
  5 active torsions:
  status: ('A' for Active; 'I' for Inactive)
    1  A    between atoms: C_1  and  C_12
    2  A    between atoms: C_1  and  N_34
    3  A    between atoms: C_5  and  N_34
    4  A    between atoms: C_12  and  C_38
    5  A    between atoms: C_20  and  C_37
                            x       y       z     vdW  Elec       q    Type
                         _______ _______ _______ _____ _____    ______ ____

>  <TORSDO>
F 5

$$$$
=
 OpenBabel10232411083D

 39 44  0  0  1  0  0  0  0  0999 V2000
  189.6500  175.5530  142.0430 O   0  0  0  0  0  1  0  0  0  0  0  0
  186.2160  178.6720  143.1130 N   0  0  0  0  0  0  0  0  0  0  0  0
  183.2190  179.1570  144.9290 C   0  0  0  0  0  3  0  0  0  0  0  0
  190.0650  178.4440  139.7920 C   0  0  0  0  0  2  0  0  0  0  0  0
  187.6360  178.2870  141.1150 C   0  0  2  0  0  3  0  0  0  0  0  0
  184.9970  178.8560  143.6700 C   0  0  0  0  0  0  0  0  0  0  0  0
  185.1880  178.5550  139.6670 N   0  0  0  0  0  0  0  0  0  0  0  0
  187.5980  178.3590  139.6110 C   0  0  0  0  0  0  0  0  0  0  0  0
  185.1230  178.6490  140.9590 C   0  0  0  0  0  0  0  0  0  0  0  0
  183.9130  178.8330  141.5640 N   0  0  0  0  0  0  0  0  0  0  0  0
  189.4500  176.9120  141.8020 C   0  0  2  0  0  0  0  0  0  0  0  0
  188.0600  177.0010  141.4820 O   0  0  0  0  0  0  0  0  0  0  0  0
  191.6960  176.8140  140.5900 C   0  0  0  0  0  0  0  0  0  0  0  0
  183.8750  178.9320  142.9150 C   0  0  0  0  0  0  0  0  0  0  0  0
  190.3390  177.3040  140.6680 N   0  0  0  0  0  0  0  0  0  0  0  0
  192.5420  177.2880  139.6410 F   0  0  0  0  0  0  0  0  0  0  0  0
  186.4290  178.4130  138.9610 C   0  0  0  0  0  3  0  0  0  0  0  0
  182.7330  179.1240  143.7220 N   0  0  0  0  0  0  0  0  0  0  0  0
  186.3050  178.5720  141.7520 C   0  0  0  0  0  0  0  0  0  0  0  0
  192.1300  175.9630  141.4060 O   0  0  0  0  0  0  0  0  0  0  0  0
  188.8880  178.1760  138.8620 C   0  0  1  0  0  3  0  0  0  0  0  0
  184.6930  178.9850  144.9450 C   0  0  0  0  0  3  0  0  0  0  0  0
  189.5900  178.4710  145.4050 C   0  0  0  0  0  0  0  0  0  0  0  0
  190.9260  178.5960  142.9680 C   0  0  0  0  0  3  0  0  0  0  0  0
  190.6770  179.3270  145.2470 C   0  0  0  0  0  3  0  0  0  0  0  0
  187.8890  177.5400  146.8530 C   0  0  0  0  0  3  0  0  0  0  0  0
  188.0760  176.7840  144.5620 C   0  0  0  0  0  3  0  0  0  0  0  0
  189.1500  177.6570  144.3240 C   0  0  0  0  0  0  0  0  0  0  0  0
  187.4520  176.7230  145.8100 C   0  0  0  0  0  3  0  0  0  0  0  0
  191.3500  179.3820  144.0340 C   0  0  0  0  0  3  0  0  0  0  0  0
  188.9540  178.4130  146.6490 C   0  0  0  0  0  3  0  0  0  0  0  0
  189.8150  177.7410  143.0610 C   0  0  0  0  0  0  0  0  0  0  0  0
  188.9820  179.1170  137.6630 C   0  0  0  0  0  2  0  0  0  0  0  0
  188.9820  178.3270  136.3640 C   0  0  0  0  0  2  0  0  0  0  0  0
  189.0730  176.9020  136.6420 N   0  0  0  0  0  2  0  0  0  0  0  0
  187.8320  176.2480  136.2330 C   0  0  0  0  0  0  0  0  0  0  0  0
  187.2990  175.5780  137.3170 F   0  0  0  0  0  0  0  0  0  0  0  0
  186.9160  177.1920  135.7980 F   0  0  0  0  0  0  0  0  0  0  0  0
  188.0780  175.3340  135.2210 F   0  0  0  0  0  0  0  0  0  0  0  0
  2  6  1  0  0  0  0
  3 22  1  0  0  0  0
  4 15  1  0  0  0  0
  5  8  1  6  0  0  0
  5 12  1  0  0  0  0
  5 19  1  0  0  0  0
  6 22  2  0  0  0  0
  7  9  2  0  0  0  0
  9 10  1  0  0  0  0
  9 19  1  0  0  0  0
 10 14  2  0  0  0  0
 11  1  1  1  0  0  0
 11 32  1  0  0  0  0
 12 11  1  0  0  0  0
 13 15  1  0  0  0  0
 13 20  2  0  0  0  0
 14  6  1  0  0  0  0
 14 18  1  0  0  0  0
 15 11  1  0  0  0  0
 16 13  1  0  0  0  0
 17  8  2  0  0  0  0
 17  7  1  0  0  0  0
 18  3  2  0  0  0  0
 19  2  2  0  0  0  0
 21 33  1  6  0  0  0
 21  8  1  0  0  0  0
 21  4  1  0  0  0  0
 23 31  1  0  0  0  0
 24 32  2  0  0  0  0
 24 30  1  0  0  0  0
 25 23  1  0  0  0  0
 27 29  2  0  0  0  0
 28 27  1  0  0  0  0
 28 23  2  0  0  0  0
 29 26  1  0  0  0  0
 30 25  2  0  0  0  0
 31 26  2  0  0  0  0
 32 28  1  0  0  0  0
 34 35  1  0  0  0  0
 34 33  1  0  0  0  0
 36 35  1  0  0  0  0
 36 37  1  0  0  0  0
 38 36  1  0  0  0  0
 39 36  1  0  0  0  0
M  END
>  <MODEL>
8

>  <REMARK>
 VINA RESULT:      -5.7      4.381      8.974
  Name = 
  5 active torsions:
  status: ('A' for Active; 'I' for Inactive)
    1  A    between atoms: C_1  and  C_12
    2  A    between atoms: C_1  and  N_34
    3  A    between atoms: C_5  and  N_34
    4  A    between atoms: C_12  and  C_38
    5  A    between atoms: C_20  and  C_37
                            x       y       z     vdW  Elec       q    Type
                         _______ _______ _______ _____ _____    ______ ____

>  <TORSDO>
F 5

$$$$
=
 OpenBabel10232411083D

 39 44  0  0  1  0  0  0  0  0999 V2000
  186.1480  174.9370  137.0370 O   0  0  0  0  0  1  0  0  0  0  0  0
  189.4670  177.4770  139.3150 N   0  0  0  0  0  0  0  0  0  0  0  0
  192.4070  177.2890  141.2750 C   0  0  0  0  0  3  0  0  0  0  0  0
  184.9730  178.4310  137.1270 C   0  0  0  0  0  2  0  0  0  0  0  0
  187.0540  177.8150  138.8490 C   0  0  2  0  0  3  0  0  0  0  0  0
  190.5030  177.4510  140.1850 C   0  0  0  0  0  0  0  0  0  0  0  0
  186.9110  178.5600  141.6040 N   0  0  0  0  0  0  0  0  0  0  0  0
  185.8080  178.4050  139.4570 C   0  0  0  0  0  0  0  0  0  0  0  0
  188.0710  178.1990  141.1490 C   0  0  0  0  0  0  0  0  0  0  0  0
  189.1450  178.1570  141.9920 N   0  0  0  0  0  0  0  0  0  0  0  0
  186.4570  176.2950  137.1230 C   0  0  2  0  0  0  0  0  0  0  0  0
  186.7840  176.4830  138.5000 O   0  0  0  0  0  0  0  0  0  0  0  0
  184.4650  176.6320  135.5590 C   0  0  0  0  0  0  0  0  0  0  0  0
  190.3460  177.7810  141.4890 C   0  0  0  0  0  0  0  0  0  0  0  0
  185.2460  177.0590  136.6980 N   0  0  0  0  0  0  0  0  0  0  0  0
  183.4570  177.4100  135.0900 F   0  0  0  0  0  0  0  0  0  0  0  0
  185.7520  178.6770  140.7670 C   0  0  0  0  0  3  0  0  0  0  0  0
  191.5670  177.6760  142.1900 N   0  0  0  0  0  0  0  0  0  0  0  0
  188.2360  177.8560  139.7760 C   0  0  0  0  0  0  0  0  0  0  0  0
  184.7130  175.5520  134.9660 O   0  0  0  0  0  0  0  0  0  0  0  0
  184.5790  178.4980  138.5970 C   0  0  1  0  0  3  0  0  0  0  0  0
  191.7590  177.1290  139.9490 C   0  0  0  0  0  3  0  0  0  0  0  0
  189.9090  176.3640  135.2510 C   0  0  0  0  0  0  0  0  0  0  0  0
  187.4470  177.6570  135.2410 C   0  0  0  0  0  3  0  0  0  0  0  0
  189.6700  177.4060  134.3580 C   0  0  0  0  0  3  0  0  0  0  0  0
  191.4080  174.6480  136.0670 C   0  0  0  0  0  3  0  0  0  0  0  0
  189.1910  174.8700  137.0110 C   0  0  0  0  0  3  0  0  0  0  0  0
  188.9010  175.9540  136.1670 C   0  0  0  0  0  0  0  0  0  0  0  0
  190.4280  174.2210  136.9630 C   0  0  0  0  0  3  0  0  0  0  0  0
  188.4370  178.0440  134.3460 C   0  0  0  0  0  3  0  0  0  0  0  0
  191.1490  175.7190  135.2150 C   0  0  0  0  0  3  0  0  0  0  0  0
  187.6450  176.6360  136.1870 C   0  0  0  0  0  0  0  0  0  0  0  0
  183.8150  179.7970  138.8450 C   0  0  0  0  0  2  0  0  0  0  0  0
  182.3360  179.5160  139.0500 C   0  0  0  0  0  2  0  0  0  0  0  0
  182.1590  178.3080  139.8430 N   0  0  0  0  0  2  0  0  0  0  0  0
  181.5510  178.6550  141.1260 C   0  0  0  0  0  0  0  0  0  0  0  0
  180.5680  177.7320  141.4220 F   0  0  0  0  0  0  0  0  0  0  0  0
  182.5060  178.6280  142.1300 F   0  0  0  0  0  0  0  0  0  0  0  0
  180.9760  179.9140  141.0630 F   0  0  0  0  0  0  0  0  0  0  0  0
  2 19  2  0  0  0  0
  2  6  1  0  0  0  0
  3 18  2  0  0  0  0
  4 21  1  0  0  0  0
  5 12  1  1  0  0  0
  5  8  1  0  0  0  0
  5 19  1  0  0  0  0
  6 14  1  0  0  0  0
  8 17  2  0  0  0  0
  9  7  2  0  0  0  0
  9 10  1  0  0  0  0
 11  1  1  6  0  0  0
 11 12  1  0  0  0  0
 13 15  1  0  0  0  0
 14 10  2  0  0  0  0
 14 18  1  0  0  0  0
 15 11  1  0  0  0  0
 15  4  1  0  0  0  0
 16 13  1  0  0  0  0
 17  7  1  0  0  0  0
 19  9  1  0  0  0  0
 20 13  2  0  0  0  0
 21 33  1  6  0  0  0
 21  8  1  0  0  0  0
 22  6  2  0  0  0  0
 22  3  1  0  0  0  0
 23 28  1  0  0  0  0
 24 32  1  0  0  0  0
 25 23  2  0  0  0  0
 26 29  1  0  0  0  0
 28 32  2  0  0  0  0
 28 27  1  0  0  0  0
 29 27  2  0  0  0  0
 30 25  1  0  0  0  0
 30 24  2  0  0  0  0
 31 23  1  0  0  0  0
 31 26  2  0  0  0  0
 32 11  1  0  0  0  0
 33 34  1  0  0  0  0
 34 35  1  0  0  0  0
 35 36  1  0  0  0  0
 36 37  1  0  0  0  0
 36 38  1  0  0  0  0
 39 36  1  0  0  0  0
M  END
>  <MODEL>
9

>  <REMARK>
 VINA RESULT:      -5.6      3.228      6.418
  Name = 
  5 active torsions:
  status: ('A' for Active; 'I' for Inactive)
    1  A    between atoms: C_1  and  C_12
    2  A    between atoms: C_1  and  N_34
    3  A    between atoms: C_5  and  N_34
    4  A    between atoms: C_12  and  C_38
    5  A    between atoms: C_20  and  C_37
                            x       y       z     vdW  Elec       q    Type
                         _______ _______ _______ _____ _____    ______ ____

>  <TORSDO>
F 5

$$$$
