=
 OpenBabel10222421443D

 31 34  0  0  1  0  0  0  0  0999 V2000
  187.7230  178.0080  147.2670 C   0  0  2  0  0  3  0  0  0  0  0  0
  187.8110  177.5520  145.8500 N   0  0  0  0  0  0  0  0  0  0  0  0
  188.2030  176.8960  148.1730 C   0  0  0  0  0  1  0  0  0  0  0  0
  186.5470  177.6420  146.6430 C   0  0  2  0  0  3  0  0  0  0  0  0
  187.8340  176.9950  143.4770 C   0  0  0  0  0  3  0  0  0  0  0  0
  188.5250  176.7060  142.2980 C   0  0  0  0  0  3  0  0  0  0  0  0
  189.9230  176.6740  142.2880 C   0  0  0  0  0  0  0  0  0  0  0  0
  190.6240  176.9370  143.4760 C   0  0  0  0  0  3  0  0  0  0  0  0
  188.5340  177.2570  144.6580 C   0  0  0  0  0  0  0  0  0  0  0  0
  189.9380  177.2290  144.6650 C   0  0  0  0  0  0  0  0  0  0  0  0
  190.2430  176.8590  139.9170 C   0  0  0  0  0  3  0  0  0  0  0  0
  190.6010  176.3730  141.0650 N   0  0  0  0  0  0  0  0  0  0  0  0
  190.3200  177.1180  137.4630 C   0  0  0  0  0  2  0  0  0  0  0  0
  190.9660  174.9510  137.0940 C   0  0  0  0  0  2  0  0  0  0  0  0
  190.2500  176.0610  136.4820 N   0  0  0  0  0  2  0  0  0  0  0  0
  190.9860  176.5130  138.6700 C   0  0  2  0  0  3  0  0  0  0  0  0
  191.0130  175.1280  138.4850 O   0  0  0  0  0  0  0  0  0  0  0  0
  191.6060  176.6130  146.3880 C   0  0  0  0  0  1  0  0  0  0  0  0
  190.6260  177.4940  145.8550 O   0  0  0  0  0  0  0  0  0  0  0  0
  185.9320  179.9390  146.8720 O   0  0  0  0  0  0  0  0  0  0  0  0
  185.7650  178.8600  146.2390 C   0  0  0  0  0  0  0  0  0  0  0  0
  183.0730  178.7660  142.8920 C   0  0  0  0  0  0  0  0  0  0  0  0
  184.4590  178.7720  142.6850 C   0  0  0  0  0  3  0  0  0  0  0  0
  183.4560  178.8210  145.2900 C   0  0  0  0  0  3  0  0  0  0  0  0
  185.3370  178.8030  143.7710 C   0  0  0  0  0  3  0  0  0  0  0  0
  182.5780  178.7910  144.2030 C   0  0  0  0  0  3  0  0  0  0  0  0
  184.8430  178.8260  145.0840 C   0  0  0  0  0  0  0  0  0  0  0  0
  182.1480  178.7340  141.7460 C   0  0  0  0  0  0  0  0  0  0  0  0
  180.9570  179.1270  141.8840 O   0  0  0  0  0  0  0  0  0  0  0  0
  182.5990  178.2570  140.4750 N   0  0  0  0  0  2  0  0  0  0  0  0
  181.7240  178.2060  139.3150 C   0  0  0  0  0  1  0  0  0  0  0  0
  1  3  1  1  0  0  0
  2  4  1  0  0  0  0
  2  1  1  0  0  0  0
  4 21  1  6  0  0  0
  4  1  1  0  0  0  0
  5  9  1  0  0  0  0
  6  5  2  0  0  0  0
  7  6  1  0  0  0  0
  7  8  2  0  0  0  0
  8 10  1  0  0  0  0
  9 10  2  0  0  0  0
  9  2  1  0  0  0  0
 10 19  1  0  0  0  0
 11 12  2  0  0  0  0
 12  7  1  0  0  0  0
 13 16  1  0  0  0  0
 14 17  1  0  0  0  0
 15 14  1  0  0  0  0
 15 13  1  0  0  0  0
 16 11  1  1  0  0  0
 17 16  1  0  0  0  0
 19 18  1  0  0  0  0
 21 20  2  0  0  0  0
 22 26  1  0  0  0  0
 23 22  2  0  0  0  0
 23 25  1  0  0  0  0
 25 27  2  0  0  0  0
 26 24  2  0  0  0  0
 27 24  1  0  0  0  0
 27 21  1  0  0  0  0
 28 29  2  0  0  0  0
 28 22  1  0  0  0  0
 30 28  1  0  0  0  0
 31 30  1  0  0  0  0
M  END
>  <MODEL>
1

>  <REMARK>
 VINA RESULT:      -9.2      0.000      0.000
  Name = 
  7 active torsions:
  status: ('A' for Active; 'I' for Inactive)
    1  A    between atoms: N_3  and  C_18
    2  A    between atoms: C_5  and  C_10
    3  A    between atoms: C_6  and  N_29
    4  A    between atoms: C_12  and  C_28
    5  A    between atoms: O_21  and  C_25
    6  A    between atoms: C_22  and  C_24
    7  A    between atoms: C_22  and  C_27
                            x       y       z     vdW  Elec       q    Type
                         _______ _______ _______ _____ _____    ______ ____

>  <TORSDO>
F 7

$$$$
=
 OpenBabel10222421443D

 31 34  0  0  1  0  0  0  0  0999 V2000
  191.2590  176.7490  147.0150 C   0  0  2  0  0  3  0  0  0  0  0  0
  190.6160  176.6890  145.6710 N   0  0  0  0  0  0  0  0  0  0  0  0
  192.0890  175.5000  147.2210 C   0  0  0  0  0  1  0  0  0  0  0  0
  189.9170  176.4290  146.9660 C   0  0  2  0  0  3  0  0  0  0  0  0
  189.9810  175.8370  143.4780 C   0  0  0  0  0  3  0  0  0  0  0  0
  189.9920  175.9250  142.0830 C   0  0  0  0  0  3  0  0  0  0  0  0
  190.6660  176.9730  141.4480 C   0  0  0  0  0  0  0  0  0  0  0  0
  191.3300  177.9350  142.2260 C   0  0  0  0  0  3  0  0  0  0  0  0
  190.6420  176.7960  144.2500 C   0  0  0  0  0  0  0  0  0  0  0  0
  191.3230  177.8540  143.6270 C   0  0  0  0  0  0  0  0  0  0  0  0
  189.7060  177.5860  139.3360 C   0  0  0  0  0  3  0  0  0  0  0  0
  190.6600  177.0350  140.0180 N   0  0  0  0  0  0  0  0  0  0  0  0
  188.9970  178.8160  137.3160 C   0  0  0  0  0  2  0  0  0  0  0  0
  188.5430  176.9150  136.1220 C   0  0  0  0  0  2  0  0  0  0  0  0
  188.1640  178.3140  136.2480 N   0  0  0  0  0  2  0  0  0  0  0  0
  189.7480  177.6240  137.8440 C   0  0  2  0  0  3  0  0  0  0  0  0
  189.1510  176.4800  137.3090 O   0  0  0  0  0  0  0  0  0  0  0  0
  191.4810  180.1250  144.6030 C   0  0  0  0  0  1  0  0  0  0  0  0
  191.9800  178.8080  144.4140 O   0  0  0  0  0  0  0  0  0  0  0  0
  189.4970  178.4010  148.2470 O   0  0  0  0  0  0  0  0  0  0  0  0
  189.0790  177.6140  147.3520 C   0  0  0  0  0  0  0  0  0  0  0  0
  185.3570  178.4520  145.3780 C   0  0  0  0  0  0  0  0  0  0  0  0
  186.4130  177.8590  144.6730 C   0  0  0  0  0  3  0  0  0  0  0  0
  186.7430  178.4930  147.3720 C   0  0  0  0  0  3  0  0  0  0  0  0
  187.6240  177.5850  145.3130 C   0  0  0  0  0  3  0  0  0  0  0  0
  185.5310  178.7670  146.7320 C   0  0  0  0  0  3  0  0  0  0  0  0
  187.7990  177.8990  146.6690 C   0  0  0  0  0  0  0  0  0  0  0  0
  184.0790  178.7390  144.7030 C   0  0  0  0  0  0  0  0  0  0  0  0
  183.0900  179.1480  145.3710 O   0  0  0  0  0  0  0  0  0  0  0  0
  183.9580  178.5560  143.2900 N   0  0  0  0  0  2  0  0  0  0  0  0
  182.7190  178.8270  142.5800 C   0  0  0  0  0  1  0  0  0  0  0  0
  1  3  1  6  0  0  0
  2  4  1  0  0  0  0
  2  1  1  0  0  0  0
  4  1  1  0  0  0  0
  4 21  1  1  0  0  0
  5  9  1  0  0  0  0
  6  5  2  0  0  0  0
  7  6  1  0  0  0  0
  7  8  2  0  0  0  0
  8 10  1  0  0  0  0
  9  2  1  0  0  0  0
 10  9  2  0  0  0  0
 10 19  1  0  0  0  0
 11 12  2  0  0  0  0
 12  7  1  0  0  0  0
 13 16  1  0  0  0  0
 14 15  1  0  0  0  0
 14 17  1  0  0  0  0
 15 13  1  0  0  0  0
 16 11  1  1  0  0  0
 17 16  1  0  0  0  0
 19 18  1  0  0  0  0
 21 20  2  0  0  0  0
 22 26  1  0  0  0  0
 23 25  1  0  0  0  0
 23 22  2  0  0  0  0
 25 27  2  0  0  0  0
 26 24  2  0  0  0  0
 27 21  1  0  0  0  0
 27 24  1  0  0  0  0
 28 29  2  0  0  0  0
 28 22  1  0  0  0  0
 30 28  1  0  0  0  0
 31 30  1  0  0  0  0
M  END
>  <MODEL>
2

>  <REMARK>
 VINA RESULT:      -8.7      1.974      3.044
  Name = 
  7 active torsions:
  status: ('A' for Active; 'I' for Inactive)
    1  A    between atoms: N_3  and  C_18
    2  A    between atoms: C_5  and  C_10
    3  A    between atoms: C_6  and  N_29
    4  A    between atoms: C_12  and  C_28
    5  A    between atoms: O_21  and  C_25
    6  A    between atoms: C_22  and  C_24
    7  A    between atoms: C_22  and  C_27
                            x       y       z     vdW  Elec       q    Type
                         _______ _______ _______ _____ _____    ______ ____

>  <TORSDO>
F 7

$$$$
=
 OpenBabel10222421443D

 31 34  0  0  1  0  0  0  0  0999 V2000
  188.8690  176.8990  147.6580 C   0  0  2  0  0  3  0  0  0  0  0  0
  188.5090  177.5240  146.3540 N   0  0  0  0  0  0  0  0  0  0  0  0
  187.9710  177.4610  148.7390 C   0  0  0  0  0  1  0  0  0  0  0  0
  189.7070  177.8840  147.1730 C   0  0  2  0  0  3  0  0  0  0  0  0
  188.0990  177.1630  143.9780 C   0  0  0  0  0  3  0  0  0  0  0  0
  187.2940  177.2950  142.8440 C   0  0  0  0  0  3  0  0  0  0  0  0
  186.0550  177.9370  142.9300 C   0  0  0  0  0  0  0  0  0  0  0  0
  185.6290  178.4470  144.1670 C   0  0  0  0  0  3  0  0  0  0  0  0
  187.6730  177.6710  145.2090 C   0  0  0  0  0  0  0  0  0  0  0  0
  186.4310  178.3180  145.3110 C   0  0  0  0  0  0  0  0  0  0  0  0
  185.3290  179.0670  140.9410 C   0  0  0  0  0  3  0  0  0  0  0  0
  185.2530  178.0580  141.7500 N   0  0  0  0  0  0  0  0  0  0  0  0
  183.2790  178.2300  139.8490 C   0  0  0  0  0  2  0  0  0  0  0  0
  184.2410  178.1110  137.7730 C   0  0  0  0  0  2  0  0  0  0  0  0
  183.2000  177.5150  138.5960 N   0  0  0  0  0  2  0  0  0  0  0  0
  184.4680  179.1440  139.7230 C   0  0  2  0  0  3  0  0  0  0  0  0
  185.1860  178.7470  138.5920 O   0  0  0  0  0  0  0  0  0  0  0  0
  184.8200  178.4010  147.1900 C   0  0  0  0  0  1  0  0  0  0  0  0
  186.0170  178.8220  146.5500 O   0  0  0  0  0  0  0  0  0  0  0  0
  191.7810  176.7110  147.3380 O   0  0  0  0  0  0  0  0  0  0  0  0
  190.9440  177.2750  146.5790 C   0  0  0  0  0  0  0  0  0  0  0  0
  191.6070  177.2880  142.3340 C   0  0  0  0  0  0  0  0  0  0  0  0
  191.4710  178.4960  143.0320 C   0  0  0  0  0  3  0  0  0  0  0  0
  191.3090  176.0770  144.4180 C   0  0  0  0  0  3  0  0  0  0  0  0
  191.2560  178.4940  144.4120 C   0  0  0  0  0  3  0  0  0  0  0  0
  191.5240  176.0790  143.0380 C   0  0  0  0  0  3  0  0  0  0  0  0
  191.1740  177.2840  145.1180 C   0  0  0  0  0  0  0  0  0  0  0  0
  191.8350  177.2900  140.8780 C   0  0  0  0  0  0  0  0  0  0  0  0
  192.9480  177.6610  140.4140 O   0  0  0  0  0  0  0  0  0  0  0  0
  190.7960  176.8710  139.9900 N   0  0  0  0  0  2  0  0  0  0  0  0
  190.9740  176.8550  138.5470 C   0  0  0  0  0  1  0  0  0  0  0  0
  1  3  1  1  0  0  0
  2  4  1  0  0  0  0
  2  1  1  0  0  0  0
  4 21  1  6  0  0  0
  4  1  1  0  0  0  0
  5  9  1  0  0  0  0
  6  7  1  0  0  0  0
  6  5  2  0  0  0  0
  7  8  2  0  0  0  0
  8 10  1  0  0  0  0
  9 10  2  0  0  0  0
  9  2  1  0  0  0  0
 10 19  1  0  0  0  0
 11 12  2  0  0  0  0
 12  7  1  0  0  0  0
 14 17  1  0  0  0  0
 14 15  1  0  0  0  0
 15 13  1  0  0  0  0
 16 13  1  0  0  0  0
 16 11  1  1  0  0  0
 17 16  1  0  0  0  0
 19 18  1  0  0  0  0
 21 20  2  0  0  0  0
 22 23  2  0  0  0  0
 22 26  1  0  0  0  0
 23 25  1  0  0  0  0
 24 27  1  0  0  0  0
 25 27  2  0  0  0  0
 26 24  2  0  0  0  0
 27 21  1  0  0  0  0
 28 22  1  0  0  0  0
 29 28  2  0  0  0  0
 30 28  1  0  0  0  0
 31 30  1  0  0  0  0
M  END
>  <MODEL>
3

>  <REMARK>
 VINA RESULT:      -8.5      2.066      6.515
  Name = 
  7 active torsions:
  status: ('A' for Active; 'I' for Inactive)
    1  A    between atoms: N_3  and  C_18
    2  A    between atoms: C_5  and  C_10
    3  A    between atoms: C_6  and  N_29
    4  A    between atoms: C_12  and  C_28
    5  A    between atoms: O_21  and  C_25
    6  A    between atoms: C_22  and  C_24
    7  A    between atoms: C_22  and  C_27
                            x       y       z     vdW  Elec       q    Type
                         _______ _______ _______ _____ _____    ______ ____

>  <TORSDO>
F 7

$$$$
=
 OpenBabel10222421443D

 31 34  0  0  1  0  0  0  0  0999 V2000
  191.1520  177.0440  147.5660 C   0  0  2  0  0  3  0  0  0  0  0  0
  190.7820  176.9790  146.1230 N   0  0  0  0  0  0  0  0  0  0  0  0
  192.0400  175.8640  147.8990 C   0  0  0  0  0  1  0  0  0  0  0  0
  189.8780  176.6100  147.2550 C   0  0  2  0  0  3  0  0  0  0  0  0
  191.0380  178.4220  144.1750 C   0  0  0  0  0  3  0  0  0  0  0  0
  191.3140  178.6030  142.8170 C   0  0  0  0  0  3  0  0  0  0  0  0
  191.6170  177.5050  142.0070 C   0  0  0  0  0  0  0  0  0  0  0  0
  191.6420  176.2190  142.5720 C   0  0  0  0  0  3  0  0  0  0  0  0
  191.0640  177.1420  144.7350 C   0  0  0  0  0  0  0  0  0  0  0  0
  191.3670  176.0290  143.9350 C   0  0  0  0  0  0  0  0  0  0  0  0
  191.8980  176.7710  139.7390 C   0  0  0  0  0  3  0  0  0  0  0  0
  191.8940  177.7220  140.6200 N   0  0  0  0  0  0  0  0  0  0  0  0
  191.2850  176.2590  137.4030 C   0  0  0  0  0  2  0  0  0  0  0  0
  193.4550  176.2380  136.6690 C   0  0  0  0  0  2  0  0  0  0  0  0
  192.1400  175.6790  136.3940 N   0  0  0  0  0  2  0  0  0  0  0  0
  192.1950  177.0520  138.3030 C   0  0  2  0  0  3  0  0  0  0  0  0
  193.5090  176.6910  137.9960 O   0  0  0  0  0  0  0  0  0  0  0  0
  192.5950  174.1000  144.8840 C   0  0  0  0  0  1  0  0  0  0  0  0
  191.3900  174.7530  144.5100 O   0  0  0  0  0  0  0  0  0  0  0  0
  189.0570  178.5000  148.4620 O   0  0  0  0  0  0  0  0  0  0  0  0
  188.8780  177.7030  147.4990 C   0  0  0  0  0  0  0  0  0  0  0  0
  185.5050  178.2290  144.8900 C   0  0  0  0  0  0  0  0  0  0  0  0
  185.4870  178.7620  146.1860 C   0  0  0  0  0  3  0  0  0  0  0  0
  187.7320  177.3550  145.3090 C   0  0  0  0  0  3  0  0  0  0  0  0
  186.5820  178.5930  147.0360 C   0  0  0  0  0  3  0  0  0  0  0  0
  186.6370  177.5240  144.4580 C   0  0  0  0  0  3  0  0  0  0  0  0
  187.7160  177.8880  146.6050 C   0  0  0  0  0  0  0  0  0  0  0  0
  184.3500  178.4090  143.9940 C   0  0  0  0  0  0  0  0  0  0  0  0
  184.4730  178.1990  142.7560 O   0  0  0  0  0  0  0  0  0  0  0  0
  183.0880  178.8200  144.5250 N   0  0  0  0  0  2  0  0  0  0  0  0
  181.9200  179.0100  143.6810 C   0  0  0  0  0  1  0  0  0  0  0  0
  1  3  1  6  0  0  0
  2  4  1  0  0  0  0
  2  1  1  0  0  0  0
  4 21  1  1  0  0  0
  4  1  1  0  0  0  0
  5  9  1  0  0  0  0
  6  5  2  0  0  0  0
  7  8  2  0  0  0  0
  7  6  1  0  0  0  0
  8 10  1  0  0  0  0
  9  2  1  0  0  0  0
 10 19  1  0  0  0  0
 10  9  2  0  0  0  0
 11 12  2  0  0  0  0
 12  7  1  0  0  0  0
 13 16  1  0  0  0  0
 14 17  1  0  0  0  0
 15 14  1  0  0  0  0
 15 13  1  0  0  0  0
 16 11  1  1  0  0  0
 17 16  1  0  0  0  0
 19 18  1  0  0  0  0
 21 20  2  0  0  0  0
 22 23  1  0  0  0  0
 23 25  2  0  0  0  0
 24 27  2  0  0  0  0
 26 22  2  0  0  0  0
 26 24  1  0  0  0  0
 27 25  1  0  0  0  0
 27 21  1  0  0  0  0
 28 30  1  0  0  0  0
 28 22  1  0  0  0  0
 29 28  2  0  0  0  0
 31 30  1  0  0  0  0
M  END
>  <MODEL>
4

>  <REMARK>
 VINA RESULT:      -8.2      2.166      3.187
  Name = 
  7 active torsions:
  status: ('A' for Active; 'I' for Inactive)
    1  A    between atoms: N_3  and  C_18
    2  A    between atoms: C_5  and  C_10
    3  A    between atoms: C_6  and  N_29
    4  A    between atoms: C_12  and  C_28
    5  A    between atoms: O_21  and  C_25
    6  A    between atoms: C_22  and  C_24
    7  A    between atoms: C_22  and  C_27
                            x       y       z     vdW  Elec       q    Type
                         _______ _______ _______ _____ _____    ______ ____

>  <TORSDO>
F 7

$$$$
=
 OpenBabel10222421443D

 31 34  0  0  1  0  0  0  0  0999 V2000
  189.8960  178.6020  143.1890 C   0  0  2  0  0  3  0  0  0  0  0  0
  190.6340  177.6800  142.2800 N   0  0  0  0  0  0  0  0  0  0  0  0
  190.8920  179.4790  143.9180 C   0  0  0  0  0  1  0  0  0  0  0  0
  190.0320  177.2880  143.5910 C   0  0  2  0  0  3  0  0  0  0  0  0
  192.7520  177.4630  141.0930 C   0  0  0  0  0  3  0  0  0  0  0  0
  193.4780  177.1810  139.9340 C   0  0  0  0  0  3  0  0  0  0  0  0
  192.8160  176.8220  138.7560 C   0  0  0  0  0  0  0  0  0  0  0  0
  191.4130  176.7490  138.7510 C   0  0  0  0  0  3  0  0  0  0  0  0
  191.3560  177.3900  141.0860 C   0  0  0  0  0  0  0  0  0  0  0  0
  190.6760  177.0310  139.9110 C   0  0  0  0  0  0  0  0  0  0  0  0
  194.2320  175.4280  137.4110 C   0  0  0  0  0  3  0  0  0  0  0  0
  193.5880  176.5390  137.5850 N   0  0  0  0  0  0  0  0  0  0  0  0
  195.9770  174.0330  136.3590 C   0  0  0  0  0  2  0  0  0  0  0  0
  196.9600  175.7960  135.2760 C   0  0  0  0  0  2  0  0  0  0  0  0
  197.2470  174.4860  135.8400 N   0  0  0  0  0  2  0  0  0  0  0  0
  195.0240  175.1830  136.1690 C   0  0  2  0  0  3  0  0  0  0  0  0
  195.7840  176.3090  135.8440 O   0  0  0  0  0  0  0  0  0  0  0  0
  188.4520  178.0380  139.4980 C   0  0  0  0  0  1  0  0  0  0  0  0
  189.2780  176.9610  139.9190 O   0  0  0  0  0  0  0  0  0  0  0  0
  188.7980  175.3390  142.9710 O   0  0  0  0  0  0  0  0  0  0  0  0
  188.7510  176.5360  143.3700 C   0  0  0  0  0  0  0  0  0  0  0  0
  184.9410  178.3440  144.1890 C   0  0  0  0  0  0  0  0  0  0  0  0
  185.7230  177.8370  145.2360 C   0  0  0  0  0  3  0  0  0  0  0  0
  186.6570  177.6650  142.6110 C   0  0  0  0  0  3  0  0  0  0  0  0
  186.9620  177.2490  144.9720 C   0  0  0  0  0  3  0  0  0  0  0  0
  185.4170  178.2530  142.8740 C   0  0  0  0  0  3  0  0  0  0  0  0
  187.4410  177.1590  143.6570 C   0  0  0  0  0  0  0  0  0  0  0  0
  183.6340  178.9650  144.4680 C   0  0  0  0  0  0  0  0  0  0  0  0
  183.4310  179.5380  145.5730 O   0  0  0  0  0  0  0  0  0  0  0  0
  182.5950  178.9200  143.4860 N   0  0  0  0  0  2  0  0  0  0  0  0
  181.2910  179.5190  143.7150 C   0  0  0  0  0  1  0  0  0  0  0  0
  1  4  1  0  0  0  0
  1  3  1  1  0  0  0
  2  1  1  0  0  0  0
  2  4  1  0  0  0  0
  4 21  1  6  0  0  0
  6  5  2  0  0  0  0
  7  6  1  0  0  0  0
  8  7  2  0  0  0  0
  8 10  1  0  0  0  0
  9  5  1  0  0  0  0
  9  2  1  0  0  0  0
 10 19  1  0  0  0  0
 10  9  2  0  0  0  0
 11 12  2  0  0  0  0
 12  7  1  0  0  0  0
 14 15  1  0  0  0  0
 14 17  1  0  0  0  0
 15 13  1  0  0  0  0
 16 13  1  0  0  0  0
 16 11  1  1  0  0  0
 17 16  1  0  0  0  0
 18 19  1  0  0  0  0
 20 21  2  0  0  0  0
 21 27  1  0  0  0  0
 22 28  1  0  0  0  0
 22 23  1  0  0  0  0
 24 26  1  0  0  0  0
 24 27  2  0  0  0  0
 25 23  2  0  0  0  0
 26 22  2  0  0  0  0
 27 25  1  0  0  0  0
 28 29  2  0  0  0  0
 30 31  1  0  0  0  0
 30 28  1  0  0  0  0
M  END
>  <MODEL>
5

>  <REMARK>
 VINA RESULT:      -7.9      3.044      4.968
  Name = 
  7 active torsions:
  status: ('A' for Active; 'I' for Inactive)
    1  A    between atoms: N_3  and  C_18
    2  A    between atoms: C_5  and  C_10
    3  A    between atoms: C_6  and  N_29
    4  A    between atoms: C_12  and  C_28
    5  A    between atoms: O_21  and  C_25
    6  A    between atoms: C_22  and  C_24
    7  A    between atoms: C_22  and  C_27
                            x       y       z     vdW  Elec       q    Type
                         _______ _______ _______ _____ _____    ______ ____

>  <TORSDO>
F 7

$$$$
=
 OpenBabel10222421443D

 31 34  0  0  1  0  0  0  0  0999 V2000
  190.5070  177.3080  138.8750 C   0  0  2  0  0  3  0  0  0  0  0  0
  189.1600  177.4170  139.5060 N   0  0  0  0  0  0  0  0  0  0  0  0
  190.4090  176.4140  137.6570 C   0  0  0  0  0  1  0  0  0  0  0  0
  190.2820  176.5760  140.0240 C   0  0  2  0  0  3  0  0  0  0  0  0
  187.3490  178.4370  140.7790 C   0  0  0  0  0  3  0  0  0  0  0  0
  186.0490  178.9430  140.8620 C   0  0  0  0  0  3  0  0  0  0  0  0
  185.2190  178.9430  139.7370 C   0  0  0  0  0  0  0  0  0  0  0  0
  185.7050  178.4300  138.5230 C   0  0  0  0  0  3  0  0  0  0  0  0
  187.8310  177.9270  139.5700 C   0  0  0  0  0  0  0  0  0  0  0  0
  187.0090  177.9200  138.4310 C   0  0  0  0  0  0  0  0  0  0  0  0
  183.1740  179.8160  138.8330 C   0  0  0  0  0  3  0  0  0  0  0  0
  183.8920  179.4670  139.8540 N   0  0  0  0  0  0  0  0  0  0  0  0
  180.8000  179.5700  138.2020 C   0  0  0  0  0  2  0  0  0  0  0  0
  180.4420  181.8270  138.0450 C   0  0  0  0  0  2  0  0  0  0  0  0
  179.9820  180.5480  137.5240 N   0  0  0  0  0  2  0  0  0  0  0  0
  181.7950  180.3580  139.0110 C   0  0  2  0  0  3  0  0  0  0  0  0
  181.7320  181.6850  138.5770 O   0  0  0  0  0  0  0  0  0  0  0  0
  187.5660  178.1730  136.0320 C   0  0  0  0  0  1  0  0  0  0  0  0
  187.5060  177.4070  137.2270 O   0  0  0  0  0  0  0  0  0  0  0  0
  192.0700  177.7630  141.0730 O   0  0  0  0  0  0  0  0  0  0  0  0
  190.9270  177.2420  141.2060 C   0  0  0  0  0  0  0  0  0  0  0  0
  188.8890  177.5070  144.9780 C   0  0  0  0  0  0  0  0  0  0  0  0
  189.9480  178.3760  144.6840 C   0  0  0  0  0  3  0  0  0  0  0  0
  189.1690  176.4690  142.8000 C   0  0  0  0  0  3  0  0  0  0  0  0
  190.6120  178.2920  143.4590 C   0  0  0  0  0  3  0  0  0  0  0  0
  188.5040  176.5520  144.0270 C   0  0  0  0  0  3  0  0  0  0  0  0
  190.2280  177.3380  142.5050 C   0  0  0  0  0  0  0  0  0  0  0  0
  188.1880  177.5960  146.2710 C   0  0  0  0  0  0  0  0  0  0  0  0
  186.9430  177.3960  146.3300 O   0  0  0  0  0  0  0  0  0  0  0  0
  188.9160  177.9100  147.4610 N   0  0  0  0  0  2  0  0  0  0  0  0
  188.2690  178.0080  148.7590 C   0  0  0  0  0  1  0  0  0  0  0  0
  1  3  1  6  0  0  0
  1  2  1  0  0  0  0
  1  4  1  0  0  0  0
  2  9  1  0  0  0  0
  2  4  1  0  0  0  0
  4 21  1  1  0  0  0
  5  6  1  0  0  0  0
  7 12  1  0  0  0  0
  7  6  2  0  0  0  0
  8  7  1  0  0  0  0
  9  5  2  0  0  0  0
 10  8  2  0  0  0  0
 10  9  1  0  0  0  0
 11 12  2  0  0  0  0
 13 16  1  0  0  0  0
 14 17  1  0  0  0  0
 15 14  1  0  0  0  0
 15 13  1  0  0  0  0
 16 11  1  6  0  0  0
 17 16  1  0  0  0  0
 18 19  1  0  0  0  0
 19 10  1  0  0  0  0
 20 21  2  0  0  0  0
 21 27  1  0  0  0  0
 22 28  1  0  0  0  0
 23 22  1  0  0  0  0
 24 26  1  0  0  0  0
 25 23  2  0  0  0  0
 26 22  2  0  0  0  0
 27 24  2  0  0  0  0
 27 25  1  0  0  0  0
 28 29  2  0  0  0  0
 28 30  1  0  0  0  0
 30 31  1  0  0  0  0
M  END
>  <MODEL>
6

>  <REMARK>
 VINA RESULT:      -7.8      2.635      8.246
  Name = 
  7 active torsions:
  status: ('A' for Active; 'I' for Inactive)
    1  A    between atoms: N_3  and  C_18
    2  A    between atoms: C_5  and  C_10
    3  A    between atoms: C_6  and  N_29
    4  A    between atoms: C_12  and  C_28
    5  A    between atoms: O_21  and  C_25
    6  A    between atoms: C_22  and  C_24
    7  A    between atoms: C_22  and  C_27
                            x       y       z     vdW  Elec       q    Type
                         _______ _______ _______ _____ _____    ______ ____

>  <TORSDO>
F 7

$$$$
=
 OpenBabel10222421443D

 31 34  0  0  1  0  0  0  0  0999 V2000
  184.1410  178.9850  139.6200 C   0  0  2  0  0  3  0  0  0  0  0  0
  185.5980  178.6720  139.6490 N   0  0  0  0  0  0  0  0  0  0  0  0
  183.9240  180.2470  138.8130 C   0  0  0  0  0  1  0  0  0  0  0  0
  184.8300  179.2730  140.7820 C   0  0  2  0  0  3  0  0  0  0  0  0
  187.9920  178.2320  139.7850 C   0  0  0  0  0  3  0  0  0  0  0  0
  189.1790  177.7530  139.2250 C   0  0  0  0  0  3  0  0  0  0  0  0
  189.1850  177.2190  137.9330 C   0  0  0  0  0  0  0  0  0  0  0  0
  187.9850  177.1690  137.2050 C   0  0  0  0  0  3  0  0  0  0  0  0
  186.7990  178.1800  139.0590 C   0  0  0  0  0  0  0  0  0  0  0  0
  186.7880  177.6470  137.7600 C   0  0  0  0  0  0  0  0  0  0  0  0
  191.4560  176.4660  138.1130 C   0  0  0  0  0  3  0  0  0  0  0  0
  190.4170  176.7380  137.3870 N   0  0  0  0  0  0  0  0  0  0  0  0
  192.5920  174.5150  137.1130 C   0  0  0  0  0  2  0  0  0  0  0  0
  194.6030  174.9710  138.1110 C   0  0  0  0  0  2  0  0  0  0  0  0
  193.7950  173.8770  137.5950 N   0  0  0  0  0  2  0  0  0  0  0  0
  192.7190  175.9660  137.4920 C   0  0  2  0  0  3  0  0  0  0  0  0
  193.7820  176.0740  138.3920 O   0  0  0  0  0  0  0  0  0  0  0  0
  185.4610  176.9410  135.7920 C   0  0  0  0  0  1  0  0  0  0  0  0
  185.5850  177.6010  137.0450 O   0  0  0  0  0  0  0  0  0  0  0  0
  183.5760  177.4480  141.6750 O   0  0  0  0  0  0  0  0  0  0  0  0
  184.5510  178.2340  141.8300 C   0  0  0  0  0  0  0  0  0  0  0  0
  187.0820  177.8130  145.2760 C   0  0  0  0  0  0  0  0  0  0  0  0
  187.5490  177.4450  144.0060 C   0  0  0  0  0  3  0  0  0  0  0  0
  184.9610  178.4560  144.2830 C   0  0  0  0  0  3  0  0  0  0  0  0
  186.7280  177.5810  142.8850 C   0  0  0  0  0  3  0  0  0  0  0  0
  185.7810  178.3190  145.4050 C   0  0  0  0  0  3  0  0  0  0  0  0
  185.4260  178.0890  143.0130 C   0  0  0  0  0  0  0  0  0  0  0  0
  187.9490  177.6700  146.4590 C   0  0  0  0  0  0  0  0  0  0  0  0
  189.0580  177.0780  146.3610 O   0  0  0  0  0  0  0  0  0  0  0  0
  187.5330  178.2030  147.7190 N   0  0  0  0  0  2  0  0  0  0  0  0
  188.3540  178.0880  148.9130 C   0  0  0  0  0  1  0  0  0  0  0  0
  1  3  1  6  0  0  0
  1  2  1  0  0  0  0
  1  4  1  0  0  0  0
  2  4  1  0  0  0  0
  4 21  1  1  0  0  0
  6  5  1  0  0  0  0
  7  6  2  0  0  0  0
  8 10  2  0  0  0  0
  8  7  1  0  0  0  0
  9  2  1  0  0  0  0
  9  5  2  0  0  0  0
 10  9  1  0  0  0  0
 12  7  1  0  0  0  0
 12 11  2  0  0  0  0
 13 16  1  0  0  0  0
 13 15  1  0  0  0  0
 14 17  1  0  0  0  0
 15 14  1  0  0  0  0
 16 11  1  1  0  0  0
 16 17  1  0  0  0  0
 18 19  1  0  0  0  0
 19 10  1  0  0  0  0
 20 21  2  0  0  0  0
 21 27  1  0  0  0  0
 22 26  1  0  0  0  0
 22 28  1  0  0  0  0
 23 22  2  0  0  0  0
 24 26  2  0  0  0  0
 25 27  2  0  0  0  0
 25 23  1  0  0  0  0
 27 24  1  0  0  0  0
 28 30  1  0  0  0  0
 29 28  2  0  0  0  0
 30 31  1  0  0  0  0
M  END
>  <MODEL>
7

>  <REMARK>
 VINA RESULT:      -7.7      2.636      6.399
  Name = 
  7 active torsions:
  status: ('A' for Active; 'I' for Inactive)
    1  A    between atoms: N_3  and  C_18
    2  A    between atoms: C_5  and  C_10
    3  A    between atoms: C_6  and  N_29
    4  A    between atoms: C_12  and  C_28
    5  A    between atoms: O_21  and  C_25
    6  A    between atoms: C_22  and  C_24
    7  A    between atoms: C_22  and  C_27
                            x       y       z     vdW  Elec       q    Type
                         _______ _______ _______ _____ _____    ______ ____

>  <TORSDO>
F 7

$$$$
=
 OpenBabel10222421443D

 31 34  0  0  1  0  0  0  0  0999 V2000
  183.6020  179.3190  141.5980 C   0  0  2  0  0  3  0  0  0  0  0  0
  184.8770  178.5620  141.7570 N   0  0  0  0  0  0  0  0  0  0  0  0
  182.5870  178.7890  142.5880 C   0  0  0  0  0  1  0  0  0  0  0  0
  183.8930  178.3570  140.6500 C   0  0  2  0  0  3  0  0  0  0  0  0
  187.2930  178.2430  141.7170 C   0  0  0  0  0  3  0  0  0  0  0  0
  188.4970  177.9520  142.3630 C   0  0  0  0  0  3  0  0  0  0  0  0
  188.5130  177.6760  143.7340 C   0  0  0  0  0  0  0  0  0  0  0  0
  187.3070  177.6940  144.4530 C   0  0  0  0  0  3  0  0  0  0  0  0
  186.0940  178.2610  142.4340 C   0  0  0  0  0  0  0  0  0  0  0  0
  186.0930  177.9860  143.8110 C   0  0  0  0  0  0  0  0  0  0  0  0
  189.9500  177.4790  145.6460 C   0  0  0  0  0  3  0  0  0  0  0  0
  189.7620  177.3810  144.3670 N   0  0  0  0  0  0  0  0  0  0  0  0
  191.9530  176.0420  145.5100 C   0  0  0  0  0  2  0  0  0  0  0  0
  192.1220  175.7880  147.7810 C   0  0  0  0  0  2  0  0  0  0  0  0
  192.4280  175.1270  146.5210 N   0  0  0  0  0  2  0  0  0  0  0  0
  191.2740  177.1590  146.2560 C   0  0  2  0  0  3  0  0  0  0  0  0
  191.1150  176.7440  147.5810 O   0  0  0  0  0  0  0  0  0  0  0  0
  184.6820  178.8170  145.6680 C   0  0  0  0  0  1  0  0  0  0  0  0
  184.8850  178.0080  144.5180 O   0  0  0  0  0  0  0  0  0  0  0  0
  184.2290  180.2390  139.2190 O   0  0  0  0  0  0  0  0  0  0  0  0
  184.3910  178.9980  139.3870 C   0  0  0  0  0  0  0  0  0  0  0  0
  186.4580  176.7030  136.4010 C   0  0  0  0  0  0  0  0  0  0  0  0
  187.1470  177.6600  137.1600 C   0  0  0  0  0  3  0  0  0  0  0  0
  184.4200  177.2530  137.6020 C   0  0  0  0  0  3  0  0  0  0  0  0
  186.4770  178.4070  138.1310 C   0  0  0  0  0  3  0  0  0  0  0  0
  185.0900  176.5060  136.6300 C   0  0  0  0  0  3  0  0  0  0  0  0
  185.1070  178.2100  138.3610 C   0  0  0  0  0  0  0  0  0  0  0  0
  187.1660  175.9140  135.3770 C   0  0  0  0  0  0  0  0  0  0  0  0
  186.5340  175.4510  134.3890 O   0  0  0  0  0  0  0  0  0  0  0  0
  188.5700  175.6740  135.5020 N   0  0  0  0  0  2  0  0  0  0  0  0
  189.3110  174.9030  134.5180 C   0  0  0  0  0  1  0  0  0  0  0  0
  1  2  1  0  0  0  0
  1  3  1  1  0  0  0
  2  9  1  0  0  0  0
  4 21  1  6  0  0  0
  4  1  1  0  0  0  0
  4  2  1  0  0  0  0
  5  6  2  0  0  0  0
  5  9  1  0  0  0  0
  6  7  1  0  0  0  0
  7 12  1  0  0  0  0
  7  8  2  0  0  0  0
  9 10  2  0  0  0  0
 10  8  1  0  0  0  0
 10 19  1  0  0  0  0
 12 11  2  0  0  0  0
 13 16  1  0  0  0  0
 13 15  1  0  0  0  0
 15 14  1  0  0  0  0
 16 11  1  6  0  0  0
 16 17  1  0  0  0  0
 17 14  1  0  0  0  0
 19 18  1  0  0  0  0
 20 21  2  0  0  0  0
 22 26  2  0  0  0  0
 22 23  1  0  0  0  0
 23 25  2  0  0  0  0
 24 27  2  0  0  0  0
 25 27  1  0  0  0  0
 26 24  1  0  0  0  0
 27 21  1  0  0  0  0
 28 30  1  0  0  0  0
 28 22  1  0  0  0  0
 29 28  2  0  0  0  0
 31 30  1  0  0  0  0
M  END
>  <MODEL>
8

>  <REMARK>
 VINA RESULT:      -7.3      2.903      7.091
  Name = 
  7 active torsions:
  status: ('A' for Active; 'I' for Inactive)
    1  A    between atoms: N_3  and  C_18
    2  A    between atoms: C_5  and  C_10
    3  A    between atoms: C_6  and  N_29
    4  A    between atoms: C_12  and  C_28
    5  A    between atoms: O_21  and  C_25
    6  A    between atoms: C_22  and  C_24
    7  A    between atoms: C_22  and  C_27
                            x       y       z     vdW  Elec       q    Type
                         _______ _______ _______ _____ _____    ______ ____

>  <TORSDO>
F 7

$$$$
=
 OpenBabel10222421443D

 31 34  0  0  1  0  0  0  0  0999 V2000
  185.8160  178.0580  145.1880 C   0  0  2  0  0  3  0  0  0  0  0  0
  185.7570  178.3620  143.7300 N   0  0  0  0  0  0  0  0  0  0  0  0
  185.1730  179.1940  145.9550 C   0  0  0  0  0  1  0  0  0  0  0  0
  186.9790  178.4890  144.5820 C   0  0  2  0  0  3  0  0  0  0  0  0
  183.6840  178.3050  142.4500 C   0  0  0  0  0  3  0  0  0  0  0  0
  182.9940  178.3990  141.2390 C   0  0  0  0  0  3  0  0  0  0  0  0
  183.6860  178.6470  140.0500 C   0  0  0  0  0  0  0  0  0  0  0  0
  185.0820  178.8010  140.0860 C   0  0  0  0  0  3  0  0  0  0  0  0
  185.0730  178.4590  142.4840 C   0  0  0  0  0  0  0  0  0  0  0  0
  185.7820  178.7080  141.2980 C   0  0  0  0  0  0  0  0  0  0  0  0
  181.9230  177.9920  138.5580 C   0  0  0  0  0  3  0  0  0  0  0  0
  182.9510  178.7360  138.8250 N   0  0  0  0  0  0  0  0  0  0  0  0
  181.9810  177.5180  136.1360 C   0  0  0  0  0  2  0  0  0  0  0  0
  181.0650  179.5360  135.5560 C   0  0  0  0  0  2  0  0  0  0  0  0
  181.9470  178.4880  135.0660 N   0  0  0  0  0  2  0  0  0  0  0  0
  181.1910  178.1260  137.2640 C   0  0  2  0  0  3  0  0  0  0  0  0
  180.9860  179.4730  136.9560 O   0  0  0  0  0  0  0  0  0  0  0  0
  188.0330  178.4040  140.3130 C   0  0  0  0  0  1  0  0  0  0  0  0
  187.1730  178.8610  141.3470 O   0  0  0  0  0  0  0  0  0  0  0  0
  187.7280  176.6020  143.3230 O   0  0  0  0  0  0  0  0  0  0  0  0
  187.9050  177.3310  144.3390 C   0  0  0  0  0  0  0  0  0  0  0  0
  191.2210  176.5500  146.9550 C   0  0  0  0  0  0  0  0  0  0  0  0
  189.9290  176.6990  147.4770 C   0  0  0  0  0  3  0  0  0  0  0  0
  190.3360  176.9130  144.7230 C   0  0  0  0  0  3  0  0  0  0  0  0
  188.8490  176.9520  146.6280 C   0  0  0  0  0  3  0  0  0  0  0  0
  191.4170  176.6600  145.5720 C   0  0  0  0  0  3  0  0  0  0  0  0
  189.0430  177.0610  145.2430 C   0  0  0  0  0  0  0  0  0  0  0  0
  192.3600  176.2820  147.8510 C   0  0  0  0  0  0  0  0  0  0  0  0
  193.1210  175.3000  147.6280 O   0  0  0  0  0  0  0  0  0  0  0  0
  192.6060  177.1350  148.9720 N   0  0  0  0  0  2  0  0  0  0  0  0
  193.7170  176.9110  149.8820 C   0  0  0  0  0  1  0  0  0  0  0  0
  1  3  1  1  0  0  0
  2  4  1  0  0  0  0
  2  1  1  0  0  0  0
  4 21  1  6  0  0  0
  4  1  1  0  0  0  0
  5  9  1  0  0  0  0
  6  5  2  0  0  0  0
  7  8  2  0  0  0  0
  7  6  1  0  0  0  0
  8 10  1  0  0  0  0
  9  2  1  0  0  0  0
 10 19  1  0  0  0  0
 10  9  2  0  0  0  0
 11 12  2  0  0  0  0
 12  7  1  0  0  0  0
 13 16  1  0  0  0  0
 14 17  1  0  0  0  0
 15 14  1  0  0  0  0
 15 13  1  0  0  0  0
 16 11  1  1  0  0  0
 17 16  1  0  0  0  0
 18 19  1  0  0  0  0
 20 21  2  0  0  0  0
 21 27  1  0  0  0  0
 22 23  1  0  0  0  0
 22 28  1  0  0  0  0
 24 27  2  0  0  0  0
 24 26  1  0  0  0  0
 25 23  2  0  0  0  0
 26 22  2  0  0  0  0
 27 25  1  0  0  0  0
 28 30  1  0  0  0  0
 29 28  2  0  0  0  0
 30 31  1  0  0  0  0
M  END
>  <MODEL>
9

>  <REMARK>
 VINA RESULT:      -7.3      3.217      8.223
  Name = 
  7 active torsions:
  status: ('A' for Active; 'I' for Inactive)
    1  A    between atoms: N_3  and  C_18
    2  A    between atoms: C_5  and  C_10
    3  A    between atoms: C_6  and  N_29
    4  A    between atoms: C_12  and  C_28
    5  A    between atoms: O_21  and  C_25
    6  A    between atoms: C_22  and  C_24
    7  A    between atoms: C_22  and  C_27
                            x       y       z     vdW  Elec       q    Type
                         _______ _______ _______ _____ _____    ______ ____

>  <TORSDO>
F 7

$$$$
