=
 OpenBabel10232412063D

 42 48  0  0  1  0  0  0  0  0999 V2000
  188.3420  177.8020  141.2830 C   0  0  0  0  0  0  0  0  0  0  0  0
  189.3590  177.1330  141.7310 N   0  0  0  0  0  0  0  0  0  0  0  0
  188.2170  176.5960  143.8700 C   0  0  2  0  0  0  0  0  0  0  0  0
  188.6240  178.1290  146.1790 C   0  0  2  0  0  3  0  0  0  0  0  0
  187.3560  177.4500  145.8990 C   0  0  0  0  0  2  0  0  0  0  0  0
  189.4260  176.4700  143.0390 C   0  0  2  0  0  3  0  0  0  0  0  0
  189.3530  177.4730  144.1220 N   0  0  2  0  0  0  0  0  0  0  0  0
  188.6530  176.8620  145.2930 C   0  0  2  0  0  0  0  0  0  0  0  0
  187.1480  177.9560  142.1220 C   0  0  0  0  0  0  0  0  0  0  0  0
  187.1290  177.4180  143.3030 N   0  0  0  0  0  0  0  0  0  0  0  0
  188.2320  178.0400  148.7440 C   0  0  0  0  0  1  0  0  0  0  0  0
  190.2020  177.2850  147.7210 O   0  0  0  0  0  0  0  0  0  0  0  0
  189.1070  177.7990  147.5600 C   0  0  0  0  0  0  0  0  0  0  0  0
  185.9850  178.7720  141.6550 C   0  0  2  0  0  3  0  0  0  0  0  0
  185.9830  180.0210  142.2800 O   0  0  0  0  0  1  0  0  0  0  0  0
  182.7130  178.8720  141.5340 C   0  0  0  0  0  2  0  0  0  0  0  0
  183.6750  178.7880  142.7040 C   0  0  0  0  0  2  0  0  0  0  0  0
  184.6580  178.0110  141.8460 C   0  0  1  0  0  3  0  0  0  0  0  0
  183.6540  178.0370  140.6810 C   0  0  2  0  0  3  0  0  0  0  0  0
  184.1080  178.0220  138.1460 N   0  0  0  0  0  2  0  0  0  0  0  0
  184.0530  178.7290  139.3910 C   0  0  0  0  0  0  0  0  0  0  0  0
  184.4770  179.9130  139.4180 O   0  0  0  0  0  0  0  0  0  0  0  0
  183.8630  176.5950  138.0130 C   0  0  0  0  0  2  0  0  0  0  0  0
  184.4460  176.1050  136.7040 C   0  0  0  0  0  2  0  0  0  0  0  0
  184.6260  173.8050  137.7210 N   0  0  0  0  0  1  0  0  0  0  0  0
  183.8670  174.1060  135.5460 O   0  0  0  0  0  0  0  0  0  0  0  0
  184.3010  174.6270  136.6080 C   0  0  0  0  0  0  0  0  0  0  0  0
  188.4200  178.4270  139.9250 C   0  0  0  0  0  2  0  0  0  0  0  0
  188.5820  177.3780  138.8360 C   0  0  2  0  0  3  0  0  0  0  0  0
  189.4800  176.6700  136.1300 C   0  0  0  0  0  2  0  0  0  0  0  0
  190.0640  177.2490  138.4920 C   0  0  0  0  0  2  0  0  0  0  0  0
  187.7900  177.7840  137.5930 C   0  0  0  0  0  2  0  0  0  0  0  0
  190.2740  176.2400  137.3640 C   0  0  2  0  0  3  0  0  0  0  0  0
  187.9980  176.7710  136.4720 C   0  0  0  0  0  2  0  0  0  0  0  0
  192.5650  176.2760  138.3020 C   0  0  0  0  0  2  0  0  0  0  0  0
  192.3600  174.9160  137.6590 C   0  0  1  0  0  3  0  0  0  0  0  0
  191.7530  176.1630  137.0300 C   0  0  1  0  0  3  0  0  0  0  0  0
  193.5970  174.5060  136.9170 C   0  0  0  0  0  0  0  0  0  0  0  0
  193.4890  173.8650  135.8000 N   0  0  0  0  0  2  0  0  0  0  0  0
  194.9220  174.6640  137.5400 C   0  0  0  0  0  0  0  0  0  0  0  0
  195.2340  173.9810  138.7110 O   0  0  0  0  0  1  0  0  0  0  0  0
  195.7870  175.4130  137.0130 O   0  0  0  0  0  0  0  0  0  0  0  0
  1  2  2  0  0  0  0
  1  9  1  0  0  0  0
  3 10  1  6  0  0  0
  3  7  1  0  0  0  0
  3  8  1  0  0  0  0
  4 13  1  1  0  0  0
  5  4  1  0  0  0  0
  6  2  1  6  0  0  0
  6  3  1  0  0  0  0
  6  7  1  0  0  0  0
  7  8  1  0  0  0  0
  8  5  1  0  0  0  0
  8  4  1  0  0  0  0
  9 10  2  0  0  0  0
 13 12  2  0  0  0  0
 13 11  1  0  0  0  0
 14 18  1  0  0  0  0
 14  9  1  0  0  0  0
 14 15  1  0  0  0  0
 16 17  1  0  0  0  0
 18 17  1  0  0  0  0
 19 16  1  0  0  0  0
 19 18  1  0  0  0  0
 20 21  1  0  0  0  0
 21 22  2  0  0  0  0
 21 19  1  0  0  0  0
 23 20  1  0  0  0  0
 24 23  1  0  0  0  0
 26 27  2  0  0  0  0
 27 24  1  0  0  0  0
 27 25  1  0  0  0  0
 28  1  1  0  0  0  0
 29 28  1  0  0  0  0
 30 34  1  0  0  0  0
 30 33  1  0  0  0  0
 31 29  1  0  0  0  0
 32 29  1  0  0  0  0
 33 31  1  0  0  0  0
 34 32  1  0  0  0  0
 36 35  1  0  0  0  0
 37 33  1  0  0  0  0
 37 36  1  0  0  0  0
 37 35  1  0  0  0  0
 38 40  1  0  0  0  0
 38 36  1  0  0  0  0
 39 38  2  0  0  0  0
 40 41  1  0  0  0  0
 42 40  2  0  0  0  0
M  END
>  <MODEL>
1

>  <REMARK>
 VINA RESULT:      -8.3      0.000      0.000
  Name = 
  12 active torsions:
  status: ('A' for Active; 'I' for Inactive)
    1  A    between atoms: N_1  and  C_38
    2  A    between atoms: C_2  and  C_23
    3  A    between atoms: C_2  and  C_38
    4  A    between atoms: C_3  and  C_32
    5  A    between atoms: C_5  and  CA_30
    6  A    between atoms: C_6  and  CA_30
    7  A    between atoms: C_8  and  C_33
    8  A    between atoms: C_8  and  C_37
    9  A    between atoms: C_10  and  C_32
   10  A    between atoms: C_13  and  C_28
   11  A    between atoms: C_17  and  C_34
   12  A    between atoms: C_22  and  C_36
                            x       y       z     vdW  Elec       q    Type
                         _______ _______ _______ _____ _____    ______ ____

>  <TORSDO>
F 12

$$$$
=
 OpenBabel10232412063D

 42 48  0  0  1  0  0  0  0  0999 V2000
  186.2500  178.5060  140.9250 C   0  0  0  0  0  0  0  0  0  0  0  0
  187.3380  178.4170  141.6230 N   0  0  0  0  0  0  0  0  0  0  0  0
  188.7830  178.4950  139.6040 C   0  0  2  0  0  0  0  0  0  0  0  0
  189.7530  176.1600  138.3990 C   0  0  2  0  0  3  0  0  0  0  0  0
  189.4600  177.3750  137.6350 C   0  0  0  0  0  2  0  0  0  0  0  0
  188.6990  178.3970  141.0710 C   0  0  2  0  0  3  0  0  0  0  0  0
  188.8940  177.1900  140.2420 N   0  0  2  0  0  0  0  0  0  0  0  0
  189.8360  177.5190  139.1300 C   0  0  2  0  0  0  0  0  0  0  0  0
  186.3300  178.5710  139.4610 C   0  0  0  0  0  0  0  0  0  0  0  0
  187.4920  178.5400  138.8870 N   0  0  0  0  0  0  0  0  0  0  0  0
  192.3120  176.5630  138.2260 C   0  0  0  0  0  1  0  0  0  0  0  0
  191.3060  174.4950  137.7710 O   0  0  0  0  0  0  0  0  0  0  0  0
  191.1320  175.6590  138.0890 C   0  0  0  0  0  0  0  0  0  0  0  0
  185.0870  178.6150  138.6280 C   0  0  2  0  0  3  0  0  0  0  0  0
  184.4450  179.8460  138.7750 O   0  0  0  0  0  1  0  0  0  0  0  0
  182.4100  176.9150  137.8080 C   0  0  0  0  0  2  0  0  0  0  0  0
  182.7000  177.8300  138.9820 C   0  0  0  0  0  2  0  0  0  0  0  0
  184.1630  177.4230  138.9440 C   0  0  1  0  0  3  0  0  0  0  0  0
  183.8550  176.4430  137.7990 C   0  0  2  0  0  3  0  0  0  0  0  0
  185.8030  176.0520  136.1600 N   0  0  0  0  0  2  0  0  0  0  0  0
  184.5370  176.6520  136.4590 C   0  0  0  0  0  0  0  0  0  0  0  0
  184.0610  177.4740  135.6330 O   0  0  0  0  0  0  0  0  0  0  0  0
  186.5720  175.2640  137.1100 C   0  0  0  0  0  2  0  0  0  0  0  0
  186.6680  173.8360  136.6170 C   0  0  0  0  0  2  0  0  0  0  0  0
  184.5860  172.5370  136.0380 N   0  0  0  0  0  1  0  0  0  0  0  0
  185.2060  172.8970  138.2470 O   0  0  0  0  0  0  0  0  0  0  0  0
  185.4530  173.0790  137.0250 C   0  0  0  0  0  0  0  0  0  0  0  0
  184.9290  178.5120  141.6290 C   0  0  0  0  0  2  0  0  0  0  0  0
  185.0750  178.9300  143.0850 C   0  0  2  0  0  3  0  0  0  0  0  0
  184.8940  178.2410  145.9350 C   0  0  0  0  0  2  0  0  0  0  0  0
  186.1030  178.0220  143.7560 C   0  0  0  0  0  2  0  0  0  0  0  0
  183.7290  178.8150  143.8020 C   0  0  0  0  0  2  0  0  0  0  0  0
  186.2490  178.3700  145.2370 C   0  0  2  0  0  3  0  0  0  0  0  0
  183.8780  179.1690  145.2780 C   0  0  0  0  0  2  0  0  0  0  0  0
  188.2660  176.9900  144.8410 C   0  0  0  0  0  2  0  0  0  0  0  0
  188.6400  178.0590  145.8510 C   0  0  1  0  0  3  0  0  0  0  0  0
  187.2540  177.4290  145.8770 C   0  0  1  0  0  3  0  0  0  0  0  0
  189.5020  177.4700  146.9270 C   0  0  0  0  0  0  0  0  0  0  0  0
  189.1670  177.6190  148.1670 N   0  0  0  0  0  2  0  0  0  0  0  0
  190.8130  176.8880  146.5920 C   0  0  0  0  0  0  0  0  0  0  0  0
  191.5310  177.3580  145.4990 O   0  0  0  0  0  0  0  0  0  0  0  0
  191.2970  175.9650  147.3000 O   0  0  0  0  0  1  0  0  0  0  0  0
  1  2  2  0  0  0  0
  1 28  1  0  0  0  0
  3 10  1  6  0  0  0
  3  7  1  0  0  0  0
  3  6  1  0  0  0  0
  4 13  1  6  0  0  0
  4  8  1  0  0  0  0
  5  4  1  0  0  0  0
  5  8  1  0  0  0  0
  6  2  1  6  0  0  0
  7  6  1  0  0  0  0
  8  3  1  0  0  0  0
  8  7  1  0  0  0  0
  9  1  1  0  0  0  0
 10  9  2  0  0  0  0
 12 13  2  0  0  0  0
 13 11  1  0  0  0  0
 14 15  1  0  0  0  0
 14 18  1  0  0  0  0
 14  9  1  0  0  0  0
 16 17  1  0  0  0  0
 18 17  1  0  0  0  0
 19 16  1  0  0  0  0
 19 18  1  0  0  0  0
 20 21  1  0  0  0  0
 20 23  1  0  0  0  0
 21 19  1  0  0  0  0
 22 21  2  0  0  0  0
 24 27  1  0  0  0  0
 24 23  1  0  0  0  0
 25 27  1  0  0  0  0
 27 26  2  0  0  0  0
 28 29  1  0  0  0  0
 29 31  1  0  0  0  0
 29 32  1  0  0  0  0
 31 33  1  0  0  0  0
 32 34  1  0  0  0  0
 33 37  1  0  0  0  0
 33 30  1  0  0  0  0
 34 30  1  0  0  0  0
 35 36  1  0  0  0  0
 35 37  1  0  0  0  0
 36 37  1  0  0  0  0
 36 38  1  0  0  0  0
 38 39  2  0  0  0  0
 40 38  1  0  0  0  0
 40 42  1  0  0  0  0
 41 40  2  0  0  0  0
M  END
>  <MODEL>
2

>  <REMARK>
 VINA RESULT:      -8.1      2.283      7.032
  Name = 
  12 active torsions:
  status: ('A' for Active; 'I' for Inactive)
    1  A    between atoms: N_1  and  C_38
    2  A    between atoms: C_2  and  C_23
    3  A    between atoms: C_2  and  C_38
    4  A    between atoms: C_3  and  C_32
    5  A    between atoms: C_5  and  CA_30
    6  A    between atoms: C_6  and  CA_30
    7  A    between atoms: C_8  and  C_33
    8  A    between atoms: C_8  and  C_37
    9  A    between atoms: C_10  and  C_32
   10  A    between atoms: C_13  and  C_28
   11  A    between atoms: C_17  and  C_34
   12  A    between atoms: C_22  and  C_36
                            x       y       z     vdW  Elec       q    Type
                         _______ _______ _______ _____ _____    ______ ____

>  <TORSDO>
F 12

$$$$
=
 OpenBabel10232412063D

 42 48  0  0  1  0  0  0  0  0999 V2000
  185.6010  178.5610  141.1610 C   0  0  0  0  0  0  0  0  0  0  0  0
  186.8770  178.6560  141.3720 N   0  0  0  0  0  0  0  0  0  0  0  0
  187.4080  178.5680  138.9480 C   0  0  2  0  0  0  0  0  0  0  0  0
  188.1270  176.1720  137.6860 C   0  0  2  0  0  3  0  0  0  0  0  0
  187.4100  177.2430  136.9890 C   0  0  0  0  0  2  0  0  0  0  0  0
  187.9090  178.6670  140.3280 C   0  0  2  0  0  3  0  0  0  0  0  0
  187.9210  177.3760  139.6100 N   0  0  2  0  0  0  0  0  0  0  0  0
  188.3120  177.6220  138.1890 C   0  0  2  0  0  0  0  0  0  0  0  0
  185.1010  178.4290  139.7870 C   0  0  0  0  0  0  0  0  0  0  0  0
  185.9460  178.4100  138.8030 N   0  0  0  0  0  0  0  0  0  0  0  0
  190.5230  175.1760  137.5980 C   0  0  0  0  0  1  0  0  0  0  0  0
  189.3270  175.8110  135.6840 O   0  0  0  0  0  0  0  0  0  0  0  0
  189.3310  175.7440  136.9020 C   0  0  0  0  0  0  0  0  0  0  0  0
  183.6390  178.2580  139.5180 C   0  0  2  0  0  3  0  0  0  0  0  0
  183.1950  177.0270  140.0070 O   0  0  0  0  0  1  0  0  0  0  0  0
  181.5200  177.7670  137.0700 C   0  0  0  0  0  2  0  0  0  0  0  0
  182.8770  177.1570  137.3630 C   0  0  0  0  0  2  0  0  0  0  0  0
  183.3210  178.4510  138.0230 C   0  0  1  0  0  3  0  0  0  0  0  0
  181.9690  179.0910  137.6650 C   0  0  2  0  0  3  0  0  0  0  0  0
  180.9120  180.9630  139.0830 N   0  0  0  0  0  2  0  0  0  0  0  0
  181.0690  179.5700  138.7890 C   0  0  0  0  0  0  0  0  0  0  0  0
  180.5480  178.7370  139.5750 O   0  0  0  0  0  0  0  0  0  0  0  0
  181.6350  182.0230  138.3990 C   0  0  0  0  0  2  0  0  0  0  0  0
  180.6460  182.9670  137.7480 C   0  0  0  0  0  2  0  0  0  0  0  0
  181.0400  184.2690  135.6250 N   0  0  0  0  0  1  0  0  0  0  0  0
  182.2770  184.6910  137.5450 O   0  0  0  0  0  0  0  0  0  0  0  0
  181.3760  184.0140  136.9820 C   0  0  0  0  0  0  0  0  0  0  0  0
  184.6650  178.5600  142.3280 C   0  0  0  0  0  2  0  0  0  0  0  0
  185.4010  178.8210  143.6340 C   0  0  2  0  0  3  0  0  0  0  0  0
  186.3470  177.8360  146.2350 C   0  0  0  0  0  2  0  0  0  0  0  0
  186.5690  177.8430  143.7430 C   0  0  0  0  0  2  0  0  0  0  0  0
  184.4520  178.6370  144.8180 C   0  0  0  0  0  2  0  0  0  0  0  0
  187.3120  178.0320  145.0660 C   0  0  2  0  0  3  0  0  0  0  0  0
  185.1960  178.8310  146.1360 C   0  0  0  0  0  2  0  0  0  0  0  0
  189.2220  177.0250  143.8540 C   0  0  0  0  0  2  0  0  0  0  0  0
  189.7840  177.7440  145.0660 C   0  0  1  0  0  3  0  0  0  0  0  0
  188.4450  177.0240  145.1520 C   0  0  1  0  0  3  0  0  0  0  0  0
  190.8630  176.9180  145.7000 C   0  0  0  0  0  0  0  0  0  0  0  0
  191.6480  176.2110  144.9540 N   0  0  0  0  0  2  0  0  0  0  0  0
  190.9150  176.7630  147.1640 C   0  0  0  0  0  0  0  0  0  0  0  0
  190.0440  177.4780  147.9770 O   0  0  0  0  0  1  0  0  0  0  0  0
  191.7450  175.9740  147.6900 O   0  0  0  0  0  0  0  0  0  0  0  0
  1  2  2  0  0  0  0
  1 28  1  0  0  0  0
  3 10  1  6  0  0  0
  3  7  1  0  0  0  0
  3  6  1  0  0  0  0
  4 13  1  6  0  0  0
  4  8  1  0  0  0  0
  5  4  1  0  0  0  0
  5  8  1  0  0  0  0
  6  2  1  1  0  0  0
  7  6  1  0  0  0  0
  8  3  1  0  0  0  0
  8  7  1  0  0  0  0
  9  1  1  0  0  0  0
 10  9  2  0  0  0  0
 12 13  2  0  0  0  0
 13 11  1  0  0  0  0
 14  9  1  0  0  0  0
 14 15  1  0  0  0  0
 16 17  1  0  0  0  0
 16 19  1  0  0  0  0
 17 18  1  0  0  0  0
 18 14  1  0  0  0  0
 19 18  1  0  0  0  0
 19 21  1  0  0  0  0
 21 20  1  0  0  0  0
 21 22  2  0  0  0  0
 23 20  1  0  0  0  0
 24 23  1  0  0  0  0
 25 27  1  0  0  0  0
 27 26  2  0  0  0  0
 27 24  1  0  0  0  0
 28 29  1  0  0  0  0
 29 31  1  0  0  0  0
 29 32  1  0  0  0  0
 31 33  1  0  0  0  0
 32 34  1  0  0  0  0
 33 37  1  0  0  0  0
 33 30  1  0  0  0  0
 34 30  1  0  0  0  0
 35 36  1  0  0  0  0
 35 37  1  0  0  0  0
 36 37  1  0  0  0  0
 36 38  1  0  0  0  0
 38 40  1  0  0  0  0
 39 38  2  0  0  0  0
 40 42  2  0  0  0  0
 40 41  1  0  0  0  0
M  END
>  <MODEL>
3

>  <REMARK>
 VINA RESULT:      -7.9      2.920      7.743
  Name = 
  12 active torsions:
  status: ('A' for Active; 'I' for Inactive)
    1  A    between atoms: N_1  and  C_38
    2  A    between atoms: C_2  and  C_23
    3  A    between atoms: C_2  and  C_38
    4  A    between atoms: C_3  and  C_32
    5  A    between atoms: C_5  and  CA_30
    6  A    between atoms: C_6  and  CA_30
    7  A    between atoms: C_8  and  C_33
    8  A    between atoms: C_8  and  C_37
    9  A    between atoms: C_10  and  C_32
   10  A    between atoms: C_13  and  C_28
   11  A    between atoms: C_17  and  C_34
   12  A    between atoms: C_22  and  C_36
                            x       y       z     vdW  Elec       q    Type
                         _______ _______ _______ _____ _____    ______ ____

>  <TORSDO>
F 12

$$$$
=
 OpenBabel10232412063D

 42 48  0  0  1  0  0  0  0  0999 V2000
  187.1260  178.3630  139.6560 C   0  0  0  0  0  0  0  0  0  0  0  0
  186.5080  178.7760  140.7190 N   0  0  0  0  0  0  0  0  0  0  0  0
  184.2690  178.3580  139.7270 C   0  0  2  0  0  0  0  0  0  0  0  0
  182.8080  180.4000  138.4830 C   0  0  2  0  0  3  0  0  0  0  0  0
  182.7120  178.9980  138.0670 C   0  0  0  0  0  2  0  0  0  0  0  0
  185.0490  178.8280  140.8840 C   0  0  2  0  0  3  0  0  0  0  0  0
  184.4630  179.7890  139.9260 N   0  0  2  0  0  0  0  0  0  0  0  0
  183.1050  179.3040  139.5330 C   0  0  2  0  0  0  0  0  0  0  0  0
  186.3500  177.9250  138.4900 C   0  0  0  0  0  0  0  0  0  0  0  0
  185.0530  177.9560  138.5410 N   0  0  0  0  0  0  0  0  0  0  0  0
  180.9280  182.0730  137.8460 C   0  0  0  0  0  1  0  0  0  0  0  0
  180.7270  180.5220  139.5920 O   0  0  0  0  0  0  0  0  0  0  0  0
  181.4450  180.9770  138.7180 C   0  0  0  0  0  0  0  0  0  0  0  0
  187.0360  177.5000  137.2300 C   0  0  2  0  0  3  0  0  0  0  0  0
  186.3660  178.0100  136.1150 O   0  0  0  0  0  1  0  0  0  0  0  0
  187.6180  174.8610  135.3800 C   0  0  0  0  0  2  0  0  0  0  0  0
  186.3600  175.3450  136.0740 C   0  0  0  0  0  2  0  0  0  0  0  0
  187.2010  175.9690  137.1740 C   0  0  1  0  0  3  0  0  0  0  0  0
  188.4730  175.4190  136.5070 C   0  0  2  0  0  3  0  0  0  0  0  0
  190.7870  176.5340  136.6830 N   0  0  0  0  0  2  0  0  0  0  0  0
  189.5230  176.4000  136.0220 C   0  0  0  0  0  0  0  0  0  0  0  0
  189.2460  177.2160  135.1040 O   0  0  0  0  0  0  0  0  0  0  0  0
  191.1490  175.8150  137.8930 C   0  0  0  0  0  2  0  0  0  0  0  0
  192.3530  174.9400  137.6170 C   0  0  0  0  0  2  0  0  0  0  0  0
  193.5460  176.8140  138.8070 N   0  0  0  0  0  1  0  0  0  0  0  0
  194.7110  175.2690  137.5210 O   0  0  0  0  0  0  0  0  0  0  0  0
  193.6010  175.6740  137.9610 C   0  0  0  0  0  0  0  0  0  0  0  0
  188.6220  178.3690  139.6320 C   0  0  0  0  0  2  0  0  0  0  0  0
  189.2010  177.5950  140.8070 C   0  0  2  0  0  3  0  0  0  0  0  0
  190.7530  177.5860  143.3010 C   0  0  0  0  0  2  0  0  0  0  0  0
  188.6370  178.1710  142.1030 C   0  0  0  0  0  2  0  0  0  0  0  0
  190.7270  177.7030  140.8060 C   0  0  0  0  0  2  0  0  0  0  0  0
  189.2290  177.4570  143.3170 C   0  0  2  0  0  3  0  0  0  0  0  0
  191.3140  176.9850  142.0170 C   0  0  0  0  0  2  0  0  0  0  0  0
  187.1920  177.7690  144.6890 C   0  0  0  0  0  2  0  0  0  0  0  0
  188.1840  176.9810  145.5250 C   0  0  1  0  0  3  0  0  0  0  0  0
  188.6690  178.0770  144.5850 C   0  0  1  0  0  3  0  0  0  0  0  0
  188.1700  177.4760  146.9410 C   0  0  0  0  0  0  0  0  0  0  0  0
  187.0950  178.0120  147.4190 N   0  0  0  0  0  2  0  0  0  0  0  0
  189.4170  177.5220  147.7230 C   0  0  0  0  0  0  0  0  0  0  0  0
  190.5030  176.7330  147.3610 O   0  0  0  0  0  0  0  0  0  0  0  0
  189.5120  178.2830  148.7220 O   0  0  0  0  0  1  0  0  0  0  0  0
  1  2  2  0  0  0  0
  3 10  1  6  0  0  0
  3  7  1  0  0  0  0
  3  6  1  0  0  0  0
  4 13  1  1  0  0  0
  4  8  1  0  0  0  0
  5  4  1  0  0  0  0
  5  8  1  0  0  0  0
  6  2  1  6  0  0  0
  7  6  1  0  0  0  0
  8  3  1  0  0  0  0
  8  7  1  0  0  0  0
  9 10  2  0  0  0  0
  9  1  1  0  0  0  0
 11 13  1  0  0  0  0
 13 12  2  0  0  0  0
 14  9  1  0  0  0  0
 15 14  1  0  0  0  0
 16 17  1  0  0  0  0
 16 19  1  0  0  0  0
 17 18  1  0  0  0  0
 18 14  1  0  0  0  0
 19 18  1  0  0  0  0
 20 23  1  0  0  0  0
 21 19  1  0  0  0  0
 21 20  1  0  0  0  0
 22 21  2  0  0  0  0
 24 23  1  0  0  0  0
 24 27  1  0  0  0  0
 26 27  2  0  0  0  0
 27 25  1  0  0  0  0
 28  1  1  0  0  0  0
 28 29  1  0  0  0  0
 29 31  1  0  0  0  0
 30 33  1  0  0  0  0
 31 33  1  0  0  0  0
 32 29  1  0  0  0  0
 32 34  1  0  0  0  0
 33 37  1  0  0  0  0
 34 30  1  0  0  0  0
 35 36  1  0  0  0  0
 36 38  1  0  0  0  0
 37 35  1  0  0  0  0
 37 36  1  0  0  0  0
 38 39  2  0  0  0  0
 38 40  1  0  0  0  0
 40 42  1  0  0  0  0
 41 40  2  0  0  0  0
M  END
>  <MODEL>
4

>  <REMARK>
 VINA RESULT:      -7.4      2.355      8.363
  Name = 
  12 active torsions:
  status: ('A' for Active; 'I' for Inactive)
    1  A    between atoms: N_1  and  C_38
    2  A    between atoms: C_2  and  C_23
    3  A    between atoms: C_2  and  C_38
    4  A    between atoms: C_3  and  C_32
    5  A    between atoms: C_5  and  CA_30
    6  A    between atoms: C_6  and  CA_30
    7  A    between atoms: C_8  and  C_33
    8  A    between atoms: C_8  and  C_37
    9  A    between atoms: C_10  and  C_32
   10  A    between atoms: C_13  and  C_28
   11  A    between atoms: C_17  and  C_34
   12  A    between atoms: C_22  and  C_36
                            x       y       z     vdW  Elec       q    Type
                         _______ _______ _______ _____ _____    ______ ____

>  <TORSDO>
F 12

$$$$
=
 OpenBabel10232412063D

 42 48  0  0  1  0  0  0  0  0999 V2000
  189.0010  177.7450  140.1190 C   0  0  0  0  0  0  0  0  0  0  0  0
  188.6590  177.4780  138.8970 N   0  0  0  0  0  0  0  0  0  0  0  0
  190.4990  175.8330  138.6140 C   0  0  2  0  0  0  0  0  0  0  0  0
  192.9370  176.5430  137.4320 C   0  0  2  0  0  3  0  0  0  0  0  0
  192.8370  175.5140  138.4710 C   0  0  0  0  0  2  0  0  0  0  0  0
  189.3440  176.5230  138.0160 C   0  0  2  0  0  3  0  0  0  0  0  0
  190.7220  176.9800  137.7430 N   0  0  2  0  0  0  0  0  0  0  0  0
  191.6000  175.7810  137.5790 C   0  0  2  0  0  0  0  0  0  0  0  0
  190.1710  177.0820  140.7060 C   0  0  0  0  0  0  0  0  0  0  0  0
  190.8470  176.2370  139.9920 N   0  0  0  0  0  0  0  0  0  0  0  0
  193.2100  174.8210  135.5080 C   0  0  0  0  0  1  0  0  0  0  0  0
  194.6830  176.6140  135.8430 O   0  0  0  0  0  0  0  0  0  0  0  0
  193.6940  176.0250  136.2460 C   0  0  0  0  0  0  0  0  0  0  0  0
  190.6230  177.4160  142.0940 C   0  0  2  0  0  3  0  0  0  0  0  0
  191.9490  177.8540  142.0820 O   0  0  0  0  0  1  0  0  0  0  0  0
  191.4070  175.9880  144.9350 C   0  0  0  0  0  2  0  0  0  0  0  0
  191.7080  175.6030  143.4990 C   0  0  0  0  0  2  0  0  0  0  0  0
  190.3980  176.2310  143.0520 C   0  0  1  0  0  3  0  0  0  0  0  0
  190.0630  176.5590  144.5170 C   0  0  2  0  0  3  0  0  0  0  0  0
  188.9190  178.4130  145.8910 N   0  0  0  0  0  2  0  0  0  0  0  0
  189.8890  178.0130  144.9150 C   0  0  0  0  0  0  0  0  0  0  0  0
  190.5050  178.9150  144.2900 O   0  0  0  0  0  0  0  0  0  0  0  0
  187.9830  177.4990  146.5260 C   0  0  0  0  0  2  0  0  0  0  0  0
  187.3800  178.1640  147.7450 C   0  0  0  0  0  2  0  0  0  0  0  0
  184.9960  178.0440  146.9340 N   0  0  0  0  0  1  0  0  0  0  0  0
  185.9810  180.0750  147.4830 O   0  0  0  0  0  0  0  0  0  0  0  0
  186.0980  178.8240  147.3780 C   0  0  0  0  0  0  0  0  0  0  0  0
  188.2070  178.7470  140.8970 C   0  0  0  0  0  2  0  0  0  0  0  0
  186.9750  178.1150  141.5270 C   0  0  2  0  0  3  0  0  0  0  0  0
  184.5200  178.4120  143.1120 C   0  0  0  0  0  2  0  0  0  0  0  0
  185.7290  178.7880  140.9550 C   0  0  0  0  0  2  0  0  0  0  0  0
  187.0130  178.2880  143.0450 C   0  0  0  0  0  2  0  0  0  0  0  0
  184.4630  178.2200  141.5960 C   0  0  2  0  0  3  0  0  0  0  0  0
  185.7510  177.7160  143.6810 C   0  0  0  0  0  2  0  0  0  0  0  0
  183.2770  178.8510  139.5160 C   0  0  0  0  0  2  0  0  0  0  0  0
  182.3560  177.9360  140.3030 C   0  0  1  0  0  3  0  0  0  0  0  0
  183.2500  178.9340  141.0270 C   0  0  1  0  0  3  0  0  0  0  0  0
  180.9480  178.4470  140.2390 C   0  0  0  0  0  0  0  0  0  0  0  0
  180.1180  178.1530  141.1860 N   0  0  0  0  0  2  0  0  0  0  0  0
  180.4560  179.1190  139.0240 C   0  0  0  0  0  0  0  0  0  0  0  0
  180.2510  178.3950  137.8560 O   0  0  0  0  0  0  0  0  0  0  0  0
  180.2110  180.3550  139.0370 O   0  0  0  0  0  1  0  0  0  0  0  0
  1  9  1  0  0  0  0
  1 28  1  0  0  0  0
  2  1  2  0  0  0  0
  3 10  1  1  0  0  0
  4 13  1  6  0  0  0
  4  8  1  0  0  0  0
  4  5  1  0  0  0  0
  6  3  1  0  0  0  0
  6  2  1  1  0  0  0
  7  6  1  0  0  0  0
  7  3  1  0  0  0  0
  8  7  1  0  0  0  0
  8  5  1  0  0  0  0
  8  3  1  0  0  0  0
  9 14  1  0  0  0  0
 10  9  2  0  0  0  0
 11 13  1  0  0  0  0
 12 13  2  0  0  0  0
 14 18  1  0  0  0  0
 15 14  1  0  0  0  0
 17 16  1  0  0  0  0
 18 17  1  0  0  0  0
 18 19  1  0  0  0  0
 19 21  1  0  0  0  0
 19 16  1  0  0  0  0
 20 23  1  0  0  0  0
 21 20  1  0  0  0  0
 22 21  2  0  0  0  0
 23 24  1  0  0  0  0
 25 27  1  0  0  0  0
 27 26  2  0  0  0  0
 27 24  1  0  0  0  0
 28 29  1  0  0  0  0
 29 32  1  0  0  0  0
 30 34  1  0  0  0  0
 31 29  1  0  0  0  0
 31 33  1  0  0  0  0
 32 34  1  0  0  0  0
 33 30  1  0  0  0  0
 35 36  1  0  0  0  0
 35 37  1  0  0  0  0
 36 37  1  0  0  0  0
 37 33  1  0  0  0  0
 38 36  1  0  0  0  0
 38 39  2  0  0  0  0
 40 42  1  0  0  0  0
 40 38  1  0  0  0  0
 41 40  2  0  0  0  0
M  END
>  <MODEL>
5

>  <REMARK>
 VINA RESULT:      -7.3      2.706      9.565
  Name = 
  12 active torsions:
  status: ('A' for Active; 'I' for Inactive)
    1  A    between atoms: N_1  and  C_38
    2  A    between atoms: C_2  and  C_23
    3  A    between atoms: C_2  and  C_38
    4  A    between atoms: C_3  and  C_32
    5  A    between atoms: C_5  and  CA_30
    6  A    between atoms: C_6  and  CA_30
    7  A    between atoms: C_8  and  C_33
    8  A    between atoms: C_8  and  C_37
    9  A    between atoms: C_10  and  C_32
   10  A    between atoms: C_13  and  C_28
   11  A    between atoms: C_17  and  C_34
   12  A    between atoms: C_22  and  C_36
                            x       y       z     vdW  Elec       q    Type
                         _______ _______ _______ _____ _____    ______ ____

>  <TORSDO>
F 12

$$$$
=
 OpenBabel10232412063D

 42 48  0  0  1  0  0  0  0  0999 V2000
  186.9560  178.2450  139.5770 C   0  0  0  0  0  0  0  0  0  0  0  0
  188.0500  178.8280  139.9590 N   0  0  0  0  0  0  0  0  0  0  0  0
  189.3040  178.0530  137.9600 C   0  0  2  0  0  0  0  0  0  0  0  0
  190.8960  175.7490  138.0250 C   0  0  2  0  0  3  0  0  0  0  0  0
  190.2040  176.1930  136.8120 C   0  0  0  0  0  2  0  0  0  0  0  0
  189.3220  178.8040  139.2260 C   0  0  2  0  0  3  0  0  0  0  0  0
  189.8440  177.4240  139.1580 N   0  0  2  0  0  0  0  0  0  0  0  0
  190.5860  177.2550  137.8710 C   0  0  2  0  0  0  0  0  0  0  0  0
  186.9450  177.4690  138.3310 C   0  0  0  0  0  0  0  0  0  0  0  0
  188.0320  177.3790  137.6290 N   0  0  0  0  0  0  0  0  0  0  0  0
  192.7510  174.5440  136.6660 C   0  0  0  0  0  1  0  0  0  0  0  0
  193.2070  176.0980  138.3620 O   0  0  0  0  0  0  0  0  0  0  0  0
  192.3460  175.4930  137.7440 C   0  0  0  0  0  0  0  0  0  0  0  0
  185.7130  176.7370  137.8970 C   0  0  2  0  0  3  0  0  0  0  0  0
  186.0570  175.5910  137.1770 O   0  0  0  0  0  1  0  0  0  0  0  0
  183.1760  176.9730  135.8400 C   0  0  0  0  0  2  0  0  0  0  0  0
  184.6520  177.2700  135.6550 C   0  0  0  0  0  2  0  0  0  0  0  0
  184.7610  177.6640  137.1180 C   0  0  1  0  0  3  0  0  0  0  0  0
  183.2500  177.4290  137.2880 C   0  0  2  0  0  3  0  0  0  0  0  0
  182.2630  176.7120  139.5560 N   0  0  0  0  0  2  0  0  0  0  0  0
  182.7840  176.3670  138.2670 C   0  0  0  0  0  0  0  0  0  0  0  0
  182.9760  175.1500  138.0120 O   0  0  0  0  0  0  0  0  0  0  0  0
  182.1980  178.0710  140.0680 C   0  0  0  0  0  2  0  0  0  0  0  0
  181.2140  178.1290  141.2170 C   0  0  0  0  0  2  0  0  0  0  0  0
  180.2850  180.2840  140.2950 N   0  0  0  0  0  1  0  0  0  0  0  0
  180.7270  180.0340  142.5620 O   0  0  0  0  0  0  0  0  0  0  0  0
  180.7430  179.5280  141.4080 C   0  0  0  0  0  0  0  0  0  0  0  0
  185.7330  178.3550  140.4320 C   0  0  0  0  0  2  0  0  0  0  0  0
  186.0910  178.6210  141.8870 C   0  0  2  0  0  3  0  0  0  0  0  0
  186.3520  177.6310  144.6400 C   0  0  0  0  0  2  0  0  0  0  0  0
  187.2210  177.6790  142.2950 C   0  0  0  0  0  2  0  0  0  0  0  0
  184.8700  178.3910  142.7780 C   0  0  0  0  0  2  0  0  0  0  0  0
  187.5840  177.8730  143.7670 C   0  0  2  0  0  3  0  0  0  0  0  0
  185.2350  178.5910  144.2460 C   0  0  0  0  0  2  0  0  0  0  0  0
  189.8140  177.0010  143.1400 C   0  0  0  0  0  2  0  0  0  0  0  0
  189.9540  177.6690  144.4960 C   0  0  1  0  0  3  0  0  0  0  0  0
  188.6870  176.9010  144.1440 C   0  0  1  0  0  3  0  0  0  0  0  0
  190.8350  176.8440  145.3860 C   0  0  0  0  0  0  0  0  0  0  0  0
  191.6200  175.9590  144.8660 N   0  0  0  0  0  2  0  0  0  0  0  0
  190.6770  176.9060  146.8500 C   0  0  0  0  0  0  0  0  0  0  0  0
  189.4170  176.7820  147.4250 O   0  0  0  0  0  0  0  0  0  0  0  0
  191.6830  177.0640  147.5910 O   0  0  0  0  0  1  0  0  0  0  0  0
  1  2  2  0  0  0  0
  1 28  1  0  0  0  0
  3 10  1  6  0  0  0
  3  7  1  0  0  0  0
  3  6  1  0  0  0  0
  4 13  1  6  0  0  0
  5  8  1  0  0  0  0
  5  4  1  0  0  0  0
  6  2  1  1  0  0  0
  7  6  1  0  0  0  0
  8  3  1  0  0  0  0
  8  4  1  0  0  0  0
  8  7  1  0  0  0  0
  9  1  1  0  0  0  0
 10  9  2  0  0  0  0
 11 13  1  0  0  0  0
 13 12  2  0  0  0  0
 14  9  1  0  0  0  0
 15 14  1  0  0  0  0
 16 19  1  0  0  0  0
 17 16  1  0  0  0  0
 17 18  1  0  0  0  0
 18 19  1  0  0  0  0
 18 14  1  0  0  0  0
 19 21  1  0  0  0  0
 20 23  1  0  0  0  0
 21 20  1  0  0  0  0
 22 21  2  0  0  0  0
 23 24  1  0  0  0  0
 24 27  1  0  0  0  0
 25 27  1  0  0  0  0
 27 26  2  0  0  0  0
 28 29  1  0  0  0  0
 29 31  1  0  0  0  0
 29 32  1  0  0  0  0
 31 33  1  0  0  0  0
 32 34  1  0  0  0  0
 33 37  1  0  0  0  0
 33 30  1  0  0  0  0
 34 30  1  0  0  0  0
 35 37  1  0  0  0  0
 35 36  1  0  0  0  0
 36 38  1  0  0  0  0
 37 36  1  0  0  0  0
 38 40  1  0  0  0  0
 39 38  2  0  0  0  0
 40 41  2  0  0  0  0
 40 42  1  0  0  0  0
M  END
>  <MODEL>
6

>  <REMARK>
 VINA RESULT:      -6.9      2.388      7.288
  Name = 
  12 active torsions:
  status: ('A' for Active; 'I' for Inactive)
    1  A    between atoms: N_1  and  C_38
    2  A    between atoms: C_2  and  C_23
    3  A    between atoms: C_2  and  C_38
    4  A    between atoms: C_3  and  C_32
    5  A    between atoms: C_5  and  CA_30
    6  A    between atoms: C_6  and  CA_30
    7  A    between atoms: C_8  and  C_33
    8  A    between atoms: C_8  and  C_37
    9  A    between atoms: C_10  and  C_32
   10  A    between atoms: C_13  and  C_28
   11  A    between atoms: C_17  and  C_34
   12  A    between atoms: C_22  and  C_36
                            x       y       z     vdW  Elec       q    Type
                         _______ _______ _______ _____ _____    ______ ____

>  <TORSDO>
F 12

$$$$
=
 OpenBabel10232412063D

 42 48  0  0  1  0  0  0  0  0999 V2000
  184.2780  177.3110  137.7040 C   0  0  0  0  0  0  0  0  0  0  0  0
  183.1600  177.3480  138.3600 N   0  0  0  0  0  0  0  0  0  0  0  0
  184.0540  178.9540  140.0310 C   0  0  2  0  0  0  0  0  0  0  0  0
  185.0890  178.0940  142.4890 C   0  0  2  0  0  3  0  0  0  0  0  0
  185.5850  179.2900  141.8010 C   0  0  0  0  0  2  0  0  0  0  0  0
  182.9140  178.1450  139.5690 C   0  0  2  0  0  3  0  0  0  0  0  0
  183.7780  177.6750  140.6720 N   0  0  2  0  0  0  0  0  0  0  0  0
  184.1260  178.8420  141.5380 C   0  0  2  0  0  0  0  0  0  0  0  0
  185.4260  178.0920  138.1810 C   0  0  0  0  0  0  0  0  0  0  0  0
  185.3030  178.8100  139.2550 N   0  0  0  0  0  0  0  0  0  0  0  0
  183.3570  178.8090  144.2860 C   0  0  0  0  0  1  0  0  0  0  0  0
  185.5870  178.2880  144.7890 O   0  0  0  0  0  0  0  0  0  0  0  0
  184.7450  178.4070  143.9140 C   0  0  0  0  0  0  0  0  0  0  0  0
  186.7450  178.0210  137.4780 C   0  0  2  0  0  3  0  0  0  0  0  0
  186.5710  178.1740  136.1010 O   0  0  0  0  0  1  0  0  0  0  0  0
  189.6380  176.5110  137.7610 C   0  0  0  0  0  2  0  0  0  0  0  0
  188.5030  176.3340  136.7690 C   0  0  0  0  0  2  0  0  0  0  0  0
  187.5000  176.7280  137.8410 C   0  0  1  0  0  3  0  0  0  0  0  0
  188.6440  176.8400  138.8630 C   0  0  2  0  0  3  0  0  0  0  0  0
  188.9250  178.3360  140.9400 N   0  0  0  0  0  2  0  0  0  0  0  0
  188.9080  178.1840  139.5160 C   0  0  0  0  0  0  0  0  0  0  0  0
  188.9830  179.2220  138.8080 O   0  0  0  0  0  0  0  0  0  0  0  0
  188.6280  177.2620  141.8740 C   0  0  0  0  0  2  0  0  0  0  0  0
  189.0340  177.6840  143.2700 C   0  0  0  0  0  2  0  0  0  0  0  0
  191.4470  177.1420  142.7820 N   0  0  0  0  0  1  0  0  0  0  0  0
  190.8360  179.1730  143.7290 O   0  0  0  0  0  0  0  0  0  0  0  0
  190.4770  178.0490  143.2880 C   0  0  0  0  0  0  0  0  0  0  0  0
  184.3820  176.4480  136.4860 C   0  0  0  0  0  2  0  0  0  0  0  0
  184.4560  174.9730  136.8520 C   0  0  2  0  0  3  0  0  0  0  0  0
  184.1990  172.1600  136.0460 C   0  0  0  0  0  2  0  0  0  0  0  0
  185.4960  174.2970  135.9610 C   0  0  0  0  0  2  0  0  0  0  0  0
  183.0910  174.3140  136.6550 C   0  0  0  0  0  2  0  0  0  0  0  0
  185.5720  172.7990  136.2570 C   0  0  2  0  0  3  0  0  0  0  0  0
  183.1700  172.8200  136.9560 C   0  0  0  0  0  2  0  0  0  0  0  0
  187.9300  172.8440  135.5020 C   0  0  0  0  0  2  0  0  0  0  0  0
  187.6890  171.4950  136.1550 C   0  0  1  0  0  3  0  0  0  0  0  0
  186.5920  172.1580  135.3330 C   0  0  1  0  0  3  0  0  0  0  0  0
  188.3560  170.4120  135.3610 C   0  0  0  0  0  0  0  0  0  0  0  0
  189.2300  170.7260  134.4610 N   0  0  0  0  0  2  0  0  0  0  0  0
  187.8910  169.0190  135.4690 C   0  0  0  0  0  0  0  0  0  0  0  0
  188.6980  168.0530  136.0570 O   0  0  0  0  0  1  0  0  0  0  0  0
  186.7540  168.6940  135.0350 O   0  0  0  0  0  0  0  0  0  0  0  0
  1  9  1  0  0  0  0
  1  2  2  0  0  0  0
  3 10  1  6  0  0  0
  3  7  1  0  0  0  0
  3  8  1  0  0  0  0
  4 13  1  1  0  0  0
  5  4  1  0  0  0  0
  6  2  1  6  0  0  0
  6  3  1  0  0  0  0
  6  7  1  0  0  0  0
  7  8  1  0  0  0  0
  8  5  1  0  0  0  0
  8  4  1  0  0  0  0
  9 10  2  0  0  0  0
 13 11  1  0  0  0  0
 13 12  2  0  0  0  0
 14 18  1  0  0  0  0
 14  9  1  0  0  0  0
 15 14  1  0  0  0  0
 16 19  1  0  0  0  0
 17 16  1  0  0  0  0
 17 18  1  0  0  0  0
 18 19  1  0  0  0  0
 19 21  1  0  0  0  0
 20 23  1  0  0  0  0
 21 20  1  0  0  0  0
 22 21  2  0  0  0  0
 23 24  1  0  0  0  0
 24 27  1  0  0  0  0
 25 27  1  0  0  0  0
 27 26  2  0  0  0  0
 28 29  1  0  0  0  0
 28  1  1  0  0  0  0
 30 33  1  0  0  0  0
 30 34  1  0  0  0  0
 31 33  1  0  0  0  0
 31 29  1  0  0  0  0
 32 29  1  0  0  0  0
 32 34  1  0  0  0  0
 35 36  1  0  0  0  0
 37 35  1  0  0  0  0
 37 36  1  0  0  0  0
 37 33  1  0  0  0  0
 38 40  1  0  0  0  0
 38 36  1  0  0  0  0
 39 38  2  0  0  0  0
 40 41  1  0  0  0  0
 42 40  2  0  0  0  0
M  END
>  <MODEL>
7

>  <REMARK>
 VINA RESULT:      -6.9      3.223      6.820
  Name = 
  12 active torsions:
  status: ('A' for Active; 'I' for Inactive)
    1  A    between atoms: N_1  and  C_38
    2  A    between atoms: C_2  and  C_23
    3  A    between atoms: C_2  and  C_38
    4  A    between atoms: C_3  and  C_32
    5  A    between atoms: C_5  and  CA_30
    6  A    between atoms: C_6  and  CA_30
    7  A    between atoms: C_8  and  C_33
    8  A    between atoms: C_8  and  C_37
    9  A    between atoms: C_10  and  C_32
   10  A    between atoms: C_13  and  C_28
   11  A    between atoms: C_17  and  C_34
   12  A    between atoms: C_22  and  C_36
                            x       y       z     vdW  Elec       q    Type
                         _______ _______ _______ _____ _____    ______ ____

>  <TORSDO>
F 12

$$$$
=
 OpenBabel10232412063D

 42 48  0  0  1  0  0  0  0  0999 V2000
  190.2820  177.0660  139.0150 C   0  0  0  0  0  0  0  0  0  0  0  0
  191.5540  177.0420  139.2670 N   0  0  0  0  0  0  0  0  0  0  0  0
  192.0970  176.0490  137.0560 C   0  0  2  0  0  0  0  0  0  0  0  0
  192.4410  173.2880  136.7290 C   0  0  2  0  0  3  0  0  0  0  0  0
  191.9140  174.1470  135.6650 C   0  0  0  0  0  2  0  0  0  0  0  0
  192.5890  176.5440  138.3530 C   0  0  2  0  0  3  0  0  0  0  0  0
  192.4040  175.0970  138.1150 N   0  0  2  0  0  0  0  0  0  0  0  0
  192.8480  174.7800  136.7240 C   0  0  2  0  0  0  0  0  0  0  0  0
  189.7860  176.5440  137.7360 C   0  0  0  0  0  0  0  0  0  0  0  0
  190.6310  176.0660  136.8750 N   0  0  0  0  0  0  0  0  0  0  0  0
  194.9840  172.7880  136.5650 C   0  0  0  0  0  1  0  0  0  0  0  0
  193.3450  171.4480  135.5570 O   0  0  0  0  0  0  0  0  0  0  0  0
  193.5730  172.4470  136.2190 C   0  0  0  0  0  0  0  0  0  0  0  0
  188.3190  176.5050  137.4430 C   0  0  2  0  0  3  0  0  0  0  0  0
  187.9750  175.2910  136.8440 O   0  0  0  0  0  1  0  0  0  0  0  0
  186.4370  177.6490  135.0190 C   0  0  0  0  0  2  0  0  0  0  0  0
  187.9360  177.4370  135.1140 C   0  0  0  0  0  2  0  0  0  0  0  0
  187.8860  177.7240  136.6050 C   0  0  1  0  0  3  0  0  0  0  0  0
  186.3780  178.0060  136.4950 C   0  0  2  0  0  3  0  0  0  0  0  0
  184.6460  177.6520  138.3670 N   0  0  0  0  0  2  0  0  0  0  0  0
  185.4150  177.1320  137.2760 C   0  0  0  0  0  0  0  0  0  0  0  0
  185.3760  175.8920  137.0630 O   0  0  0  0  0  0  0  0  0  0  0  0
  184.7640  179.0130  138.8660 C   0  0  0  0  0  2  0  0  0  0  0  0
  183.8380  179.1950  140.0510 C   0  0  0  0  0  2  0  0  0  0  0  0
  184.0450  178.3850  142.4290 N   0  0  0  0  0  1  0  0  0  0  0  0
  185.7720  179.5450  141.3970 O   0  0  0  0  0  0  0  0  0  0  0  0
  184.6090  179.0670  141.3180 C   0  0  0  0  0  0  0  0  0  0  0  0
  189.3420  177.6030  140.0480 C   0  0  0  0  0  2  0  0  0  0  0  0
  189.6840  177.0840  141.4370 C   0  0  2  0  0  3  0  0  0  0  0  0
  190.6730  177.6110  144.1520 C   0  0  0  0  0  2  0  0  0  0  0  0
  188.8410  177.8360  142.4640 C   0  0  0  0  0  2  0  0  0  0  0  0
  191.1710  177.2950  141.7260 C   0  0  0  0  0  2  0  0  0  0  0  0
  189.1850  177.3840  143.8830 C   0  0  2  0  0  3  0  0  0  0  0  0
  191.5110  176.8380  143.1400 C   0  0  0  0  0  2  0  0  0  0  0  0
  186.8810  177.9690  144.5780 C   0  0  0  0  0  2  0  0  0  0  0  0
  187.5260  177.2200  145.7310 C   0  0  1  0  0  3  0  0  0  0  0  0
  188.3510  178.1730  144.8760 C   0  0  1  0  0  3  0  0  0  0  0  0
  187.1610  177.8680  147.0330 C   0  0  0  0  0  0  0  0  0  0  0  0
  187.8400  177.5910  148.0970 N   0  0  0  0  0  2  0  0  0  0  0  0
  185.9290  178.6690  147.1430 C   0  0  0  0  0  0  0  0  0  0  0  0
  184.6890  178.0850  146.9130 O   0  0  0  0  0  0  0  0  0  0  0  0
  185.9900  179.8880  147.4560 O   0  0  0  0  0  1  0  0  0  0  0  0
  1  2  2  0  0  0  0
  1 28  1  0  0  0  0
  3 10  1  6  0  0  0
  3  7  1  0  0  0  0
  3  6  1  0  0  0  0
  4 13  1  6  0  0  0
  5  8  1  0  0  0  0
  5  4  1  0  0  0  0
  6  2  1  1  0  0  0
  7  6  1  0  0  0  0
  8  4  1  0  0  0  0
  8  3  1  0  0  0  0
  8  7  1  0  0  0  0
  9  1  1  0  0  0  0
 10  9  2  0  0  0  0
 12 13  2  0  0  0  0
 13 11  1  0  0  0  0
 14  9  1  0  0  0  0
 15 14  1  0  0  0  0
 16 17  1  0  0  0  0
 16 19  1  0  0  0  0
 17 18  1  0  0  0  0
 18 14  1  0  0  0  0
 19 18  1  0  0  0  0
 19 21  1  0  0  0  0
 20 23  1  0  0  0  0
 21 20  1  0  0  0  0
 22 21  2  0  0  0  0
 23 24  1  0  0  0  0
 24 27  1  0  0  0  0
 27 26  2  0  0  0  0
 27 25  1  0  0  0  0
 28 29  1  0  0  0  0
 29 32  1  0  0  0  0
 29 31  1  0  0  0  0
 31 33  1  0  0  0  0
 32 34  1  0  0  0  0
 33 30  1  0  0  0  0
 33 37  1  0  0  0  0
 34 30  1  0  0  0  0
 35 37  1  0  0  0  0
 35 36  1  0  0  0  0
 36 38  1  0  0  0  0
 37 36  1  0  0  0  0
 38 40  1  0  0  0  0
 38 39  2  0  0  0  0
 40 42  1  0  0  0  0
 41 40  2  0  0  0  0
M  END
>  <MODEL>
8

>  <REMARK>
 VINA RESULT:      -6.7      2.347      8.627
  Name = 
  12 active torsions:
  status: ('A' for Active; 'I' for Inactive)
    1  A    between atoms: N_1  and  C_38
    2  A    between atoms: C_2  and  C_23
    3  A    between atoms: C_2  and  C_38
    4  A    between atoms: C_3  and  C_32
    5  A    between atoms: C_5  and  CA_30
    6  A    between atoms: C_6  and  CA_30
    7  A    between atoms: C_8  and  C_33
    8  A    between atoms: C_8  and  C_37
    9  A    between atoms: C_10  and  C_32
   10  A    between atoms: C_13  and  C_28
   11  A    between atoms: C_17  and  C_34
   12  A    between atoms: C_22  and  C_36
                            x       y       z     vdW  Elec       q    Type
                         _______ _______ _______ _____ _____    ______ ____

>  <TORSDO>
F 12

$$$$
=
 OpenBabel10232412063D

 42 48  0  0  1  0  0  0  0  0999 V2000
  189.8980  177.0770  140.8370 C   0  0  0  0  0  0  0  0  0  0  0  0
  190.5930  176.3260  141.6320 N   0  0  0  0  0  0  0  0  0  0  0  0
  188.7590  176.1890  143.3020 C   0  0  2  0  0  0  0  0  0  0  0  0
  188.6640  177.8910  145.5240 C   0  0  2  0  0  3  0  0  0  0  0  0
  187.4550  177.3700  144.8810 C   0  0  0  0  0  2  0  0  0  0  0  0
  190.1290  175.8050  142.9250 C   0  0  2  0  0  3  0  0  0  0  0  0
  189.8870  176.9200  143.8640 N   0  0  2  0  0  0  0  0  0  0  0  0
  188.7600  176.5450  144.7720 C   0  0  2  0  0  0  0  0  0  0  0  0
  188.5430  177.4870  141.2250 C   0  0  0  0  0  0  0  0  0  0  0  0
  188.0600  177.0890  142.3610 N   0  0  0  0  0  0  0  0  0  0  0  0
  187.6630  178.3990  147.8650 C   0  0  0  0  0  1  0  0  0  0  0  0
  189.3400  176.8010  147.5070 O   0  0  0  0  0  0  0  0  0  0  0  0
  188.6230  177.6490  147.0040 C   0  0  0  0  0  0  0  0  0  0  0  0
  187.7410  178.4030  140.3540 C   0  0  2  0  0  3  0  0  0  0  0  0
  187.9280  179.7310  140.7420 O   0  0  0  0  0  1  0  0  0  0  0  0
  184.7200  179.0620  139.2750 C   0  0  0  0  0  2  0  0  0  0  0  0
  185.3390  179.1620  140.6560 C   0  0  0  0  0  2  0  0  0  0  0  0
  186.2560  177.9940  140.3340 C   0  0  1  0  0  3  0  0  0  0  0  0
  185.5800  177.8490  138.9600 C   0  0  2  0  0  3  0  0  0  0  0  0
  186.8010  176.9180  136.8930 N   0  0  0  0  0  2  0  0  0  0  0  0
  186.4230  178.0310  137.7120 C   0  0  0  0  0  0  0  0  0  0  0  0
  186.9210  179.1560  137.4480 O   0  0  0  0  0  0  0  0  0  0  0  0
  186.4840  175.5340  137.2090 C   0  0  0  0  0  2  0  0  0  0  0  0
  185.2780  175.0980  136.4040 C   0  0  0  0  0  2  0  0  0  0  0  0
  184.2510  172.9260  137.1670 N   0  0  0  0  0  1  0  0  0  0  0  0
  183.6340  174.9520  138.1220 O   0  0  0  0  0  0  0  0  0  0  0  0
  184.3370  174.3400  137.2740 C   0  0  0  0  0  0  0  0  0  0  0  0
  190.5050  177.5350  139.5470 C   0  0  0  0  0  2  0  0  0  0  0  0
  190.8550  176.3590  138.6480 C   0  0  2  0  0  3  0  0  0  0  0  0
  192.0180  175.3610  136.1420 C   0  0  0  0  0  2  0  0  0  0  0  0
  192.3640  176.3530  138.4120 C   0  0  0  0  0  2  0  0  0  0  0  0
  190.1180  176.4790  137.3140 C   0  0  0  0  0  2  0  0  0  0  0  0
  192.7610  175.2160  137.4710 C   0  0  2  0  0  3  0  0  0  0  0  0
  190.5120  175.3400  136.3800 C   0  0  0  0  0  2  0  0  0  0  0  0
  194.9770  174.6730  138.4310 C   0  0  0  0  0  2  0  0  0  0  0  0
  194.8150  173.8440  137.1710 C   0  0  1  0  0  3  0  0  0  0  0  0
  194.2600  175.2600  137.2350 C   0  0  1  0  0  3  0  0  0  0  0  0
  196.1020  173.8220  136.4010 C   0  0  0  0  0  0  0  0  0  0  0  0
  196.1100  173.3920  135.1820 N   0  0  0  0  0  2  0  0  0  0  0  0
  197.3770  174.1090  137.0800 C   0  0  0  0  0  0  0  0  0  0  0  0
  197.8360  175.4170  137.1870 O   0  0  0  0  0  0  0  0  0  0  0  0
  198.0580  173.1720  137.5750 O   0  0  0  0  0  1  0  0  0  0  0  0
  1  9  1  0  0  0  0
  1  2  2  0  0  0  0
  3 10  1  6  0  0  0
  3  7  1  0  0  0  0
  3  8  1  0  0  0  0
  4 13  1  1  0  0  0
  5  4  1  0  0  0  0
  6  2  1  6  0  0  0
  6  3  1  0  0  0  0
  6  7  1  0  0  0  0
  7  8  1  0  0  0  0
  8  5  1  0  0  0  0
  8  4  1  0  0  0  0
  9 10  2  0  0  0  0
 13 12  2  0  0  0  0
 13 11  1  0  0  0  0
 14 15  1  0  0  0  0
 14  9  1  0  0  0  0
 16 17  1  0  0  0  0
 18 14  1  0  0  0  0
 18 17  1  0  0  0  0
 19 16  1  0  0  0  0
 19 18  1  0  0  0  0
 20 23  1  0  0  0  0
 20 21  1  0  0  0  0
 21 19  1  0  0  0  0
 22 21  2  0  0  0  0
 24 23  1  0  0  0  0
 24 27  1  0  0  0  0
 25 27  1  0  0  0  0
 27 26  2  0  0  0  0
 28  1  1  0  0  0  0
 29 28  1  0  0  0  0
 30 34  1  0  0  0  0
 30 33  1  0  0  0  0
 31 29  1  0  0  0  0
 32 29  1  0  0  0  0
 33 31  1  0  0  0  0
 34 32  1  0  0  0  0
 36 37  1  0  0  0  0
 36 35  1  0  0  0  0
 37 33  1  0  0  0  0
 37 35  1  0  0  0  0
 38 40  1  0  0  0  0
 38 36  1  0  0  0  0
 39 38  2  0  0  0  0
 40 41  2  0  0  0  0
 40 42  1  0  0  0  0
M  END
>  <MODEL>
9

>  <REMARK>
 VINA RESULT:      -6.7      1.697      2.286
  Name = 
  12 active torsions:
  status: ('A' for Active; 'I' for Inactive)
    1  A    between atoms: N_1  and  C_38
    2  A    between atoms: C_2  and  C_23
    3  A    between atoms: C_2  and  C_38
    4  A    between atoms: C_3  and  C_32
    5  A    between atoms: C_5  and  CA_30
    6  A    between atoms: C_6  and  CA_30
    7  A    between atoms: C_8  and  C_33
    8  A    between atoms: C_8  and  C_37
    9  A    between atoms: C_10  and  C_32
   10  A    between atoms: C_13  and  C_28
   11  A    between atoms: C_17  and  C_34
   12  A    between atoms: C_22  and  C_36
                            x       y       z     vdW  Elec       q    Type
                         _______ _______ _______ _____ _____    ______ ____

>  <TORSDO>
F 12

$$$$
