=
 OpenBabel10232408353D

 41 43  0  0  1  0  0  0  0  0999 V2000
  183.6860  178.0410  140.7690 C   0  0  1  0  0  3  0  0  0  0  0  0
  181.7260  178.9570  142.6360 C   0  0  0  0  0  0  0  0  0  0  0  0
  180.8670  179.4720  143.4000 O   0  0  0  0  0  0  0  0  0  0  0  0
  184.0130  178.3060  142.2190 C   0  0  0  0  0  3  0  0  0  0  0  0
  182.1940  178.0280  140.4780 C   0  0  0  0  0  0  0  0  0  0  0  0
  183.1150  178.7810  143.0800 C   0  0  0  0  0  0  0  0  0  0  0  0
  181.3380  178.4930  141.3400 N   0  0  0  0  0  0  0  0  0  0  0  0
  181.7070  177.5370  139.2630 O   0  0  0  0  0  0  0  0  0  0  0  0
  181.3080  176.1840  139.0860 C   0  0  0  0  0  1  0  0  0  0  0  0
  184.3640  179.0780  139.8860 C   0  0  0  0  0  2  0  0  0  0  0  0
  184.7510  178.4710  138.5490 C   0  0  0  0  0  2  0  0  0  0  0  0
  186.1240  178.8200  138.2380 N   0  0  0  0  0  2  0  0  0  0  0  0
  186.8610  178.6330  139.4140 N   0  0  0  0  0  2  0  0  0  0  0  0
  189.8980  176.9460  140.3080 N   0  0  0  0  0  0  0  0  0  0  0  0
  190.0090  176.5290  139.0260 C   0  0  0  0  0  0  0  0  0  0  0  0
  191.1110  175.7250  138.5820 N   0  0  0  0  0  2  0  0  0  0  0  0
  188.8180  177.6940  140.5250 N   0  0  0  0  0  0  0  0  0  0  0  0
  188.7390  177.1090  138.0730 S   0  0  0  0  0  0  0  0  0  0  0  0
  188.0740  177.8820  139.4150 C   0  0  0  0  0  0  0  0  0  0  0  0
  190.4260  173.9920  137.1170 C   0  0  0  0  0  3  0  0  0  0  0  0
  189.1160  172.4340  135.6100 C   0  0  0  0  0  1  0  0  0  0  0  0
  192.8230  173.3730  135.3010 C   0  0  0  0  0  3  0  0  0  0  0  0
  193.1370  174.5600  135.8200 C   0  0  0  0  0  3  0  0  0  0  0  0
  191.2390  175.0290  137.3350 C   0  0  0  0  0  0  0  0  0  0  0  0
  190.3880  173.1440  135.9070 C   0  0  0  0  0  0  0  0  0  0  0  0
  191.4530  172.8440  135.1510 C   0  0  0  0  0  3  0  0  0  0  0  0
  192.1120  175.5580  136.2400 C   0  0  0  0  0  2  0  0  0  0  0  0
  183.5090  179.0320  144.4970 C   0  0  0  0  0  2  0  0  0  0  0  0
  184.9370  179.5460  144.5550 C   0  0  0  0  0  2  0  0  0  0  0  0
  185.6840  178.8960  145.7030 C   0  0  1  0  0  3  0  0  0  0  0  0
  184.7720  178.4150  146.6460 O   0  0  0  0  0  1  0  0  0  0  0  0
  186.5210  177.7510  145.1640 C   0  0  0  0  0  2  0  0  0  0  0  0
  187.9640  177.8890  145.6200 C   0  0  0  0  0  2  0  0  0  0  0  0
  188.8520  176.9070  144.8720 C   0  0  0  0  0  2  0  0  0  0  0  0
  191.6440  177.0200  147.2240 O   0  0  0  0  0  0  0  0  0  0  0  0
  190.4730  176.9630  146.7630 C   0  0  0  0  0  3  0  0  0  0  0  0
  190.2270  176.9840  145.3490 N   0  0  0  0  0  0  0  0  0  0  0  0
  191.3360  175.7100  143.5660 C   0  0  0  0  0  1  0  0  0  0  0  0
  191.3000  177.0070  144.3530 C   0  0  1  0  0  3  0  0  0  0  0  0
  191.1770  179.4930  144.1950 C   0  0  0  0  0  1  0  0  0  0  0  0
  191.1650  178.1950  143.4110 C   0  0  0  0  0  2  0  0  0  0  0  0
  1 10  1  6  0  0  0
  1  4  1  0  0  0  0
  2  6  1  0  0  0  0
  2  3  2  0  0  0  0
  4  6  2  0  0  0  0
  5  1  1  0  0  0  0
  5  7  2  0  0  0  0
  6 28  1  0  0  0  0
  7  2  1  0  0  0  0
  8  5  1  0  0  0  0
  9  8  1  0  0  0  0
 11 10  1  0  0  0  0
 12 11  1  0  0  0  0
 12 13  1  0  0  0  0
 13 19  1  0  0  0  0
 14 17  1  0  0  0  0
 15 14  2  0  0  0  0
 16 15  1  0  0  0  0
 18 15  1  0  0  0  0
 18 19  1  0  0  0  0
 19 17  2  0  0  0  0
 20 24  2  0  0  0  0
 21 25  1  0  0  0  0
 22 23  2  0  0  0  0
 23 27  1  0  0  0  0
 24 16  1  0  0  0  0
 25 20  1  0  0  0  0
 26 22  1  0  0  0  0
 26 25  2  0  0  0  0
 27 24  1  0  0  0  0
 28 29  1  0  0  0  0
 29 30  1  0  0  0  0
 30 31  1  1  0  0  0
 32 33  1  0  0  0  0
 32 30  1  0  0  0  0
 34 37  1  0  0  0  0
 34 33  1  0  0  0  0
 36 35  2  0  0  0  0
 37 36  1  0  0  0  0
 39 38  1  6  0  0  0
 39 37  1  0  0  0  0
 41 40  1  0  0  0  0
 41 39  1  0  0  0  0
M  END
>  <MODEL>
1

>  <REMARK>
 VINA RESULT:      -8.3      0.000      0.000
  Name = 
  15 active torsions:
  status: ('A' for Active; 'I' for Inactive)
    1  A    between atoms: C_1  and  C_13
    2  A    between atoms: O_3  and  C_18
    3  A    between atoms: N_4  and  N_19
    4  A    between atoms: C_7  and  C_13
    5  A    between atoms: C_7  and  N_19
    6  A    between atoms: C_15  and  C_20
    7  A    between atoms: C_15  and  C_26
    8  A    between atoms: C_17  and  C_25
    9  A    between atoms: C_17  and  N_39
   10  A    between atoms: C_20  and  C_34
   11  A    between atoms: N_21  and  C_27
   12  A    between atoms: C_25  and  C_37
   13  A    between atoms: C_26  and  C_37
   14  A    between atoms: C_35  and  C_36
   15  A    between atoms: C_35  and  N_39
                            x       y       z     vdW  Elec       q    Type
                         _______ _______ _______ _____ _____    ______ ____

>  <TORSDO>
F 15

$$$$
=
 OpenBabel10232408353D

 41 43  0  0  1  0  0  0  0  0999 V2000
  189.1470  177.5920  144.8940 C   0  0  1  0  0  3  0  0  0  0  0  0
  188.1760  177.2860  147.5640 C   0  0  0  0  0  0  0  0  0  0  0  0
  187.7390  177.0270  148.7170 O   0  0  0  0  0  0  0  0  0  0  0  0
  187.7720  178.0560  145.3120 C   0  0  0  0  0  3  0  0  0  0  0  0
  190.0440  177.2260  146.0650 C   0  0  0  0  0  0  0  0  0  0  0  0
  187.2980  177.8700  146.5420 C   0  0  0  0  0  0  0  0  0  0  0  0
  189.5540  177.0550  147.2580 N   0  0  0  0  0  0  0  0  0  0  0  0
  191.4180  177.0390  145.8820 O   0  0  0  0  0  0  0  0  0  0  0  0
  192.1020  175.8820  146.3410 C   0  0  0  0  0  1  0  0  0  0  0  0
  189.0300  176.4010  143.9550 C   0  0  0  0  0  2  0  0  0  0  0  0
  188.6000  176.8520  142.5700 C   0  0  0  0  0  2  0  0  0  0  0  0
  189.5820  177.7770  142.0360 N   0  0  0  0  0  2  0  0  0  0  0  0
  188.9710  178.4310  140.9590 N   0  0  0  0  0  2  0  0  0  0  0  0
  189.0640  178.1440  137.3850 N   0  0  0  0  0  0  0  0  0  0  0  0
  189.9780  177.1570  137.5170 C   0  0  0  0  0  0  0  0  0  0  0  0
  190.5320  176.4780  136.3820 N   0  0  0  0  0  2  0  0  0  0  0  0
  188.6570  178.6440  138.5500 N   0  0  0  0  0  0  0  0  0  0  0  0
  190.3150  176.8370  139.1430 S   0  0  0  0  0  0  0  0  0  0  0  0
  189.2380  178.0470  139.6120 C   0  0  0  0  0  0  0  0  0  0  0  0
  191.4320  174.3120  136.0390 C   0  0  0  0  0  3  0  0  0  0  0  0
  192.1270  172.0710  135.0830 C   0  0  0  0  0  1  0  0  0  0  0  0
  194.0170  174.1590  137.6890 C   0  0  0  0  0  3  0  0  0  0  0  0
  193.7760  175.4680  137.6280 C   0  0  0  0  0  3  0  0  0  0  0  0
  191.6570  175.5900  136.3570 C   0  0  0  0  0  0  0  0  0  0  0  0
  192.4430  173.2360  135.9520 C   0  0  0  0  0  0  0  0  0  0  0  0
  193.5420  173.1590  136.7120 C   0  0  0  0  0  3  0  0  0  0  0  0
  193.0550  176.1080  136.4900 C   0  0  0  0  0  2  0  0  0  0  0  0
  185.9250  178.3430  146.8850 C   0  0  0  0  0  2  0  0  0  0  0  0
  185.4860  179.4170  145.9050 C   0  0  0  0  0  2  0  0  0  0  0  0
  184.4680  178.8570  144.9320 C   0  0  1  0  0  3  0  0  0  0  0  0
  183.1770  179.1650  145.3710 O   0  0  0  0  0  1  0  0  0  0  0  0
  184.7050  179.4630  143.5620 C   0  0  0  0  0  2  0  0  0  0  0  0
  185.0150  178.3750  142.5480 C   0  0  0  0  0  2  0  0  0  0  0  0
  183.7600  177.9960  141.7770 C   0  0  0  0  0  2  0  0  0  0  0  0
  185.3070  179.1490  138.6770 O   0  0  0  0  0  0  0  0  0  0  0  0
  185.1510  178.8210  139.8820 C   0  0  0  0  0  3  0  0  0  0  0  0
  183.8800  178.3700  140.3740 N   0  0  0  0  0  0  0  0  0  0  0  0
  182.0420  176.8600  139.7660 C   0  0  0  0  0  1  0  0  0  0  0  0
  182.7080  178.2000  139.5130 C   0  0  1  0  0  3  0  0  0  0  0  0
  180.2890  178.8000  139.6160 C   0  0  0  0  0  1  0  0  0  0  0  0
  181.7070  179.3320  139.6970 C   0  0  0  0  0  2  0  0  0  0  0  0
  1 10  1  6  0  0  0
  1  4  1  0  0  0  0
  1  5  1  0  0  0  0
  2  3  2  0  0  0  0
  4  6  2  0  0  0  0
  5  7  2  0  0  0  0
  6 28  1  0  0  0  0
  6  2  1  0  0  0  0
  7  2  1  0  0  0  0
  8  5  1  0  0  0  0
  8  9  1  0  0  0  0
 11 10  1  0  0  0  0
 12 11  1  0  0  0  0
 13 12  1  0  0  0  0
 14 15  2  0  0  0  0
 14 17  1  0  0  0  0
 15 18  1  0  0  0  0
 16 15  1  0  0  0  0
 17 19  2  0  0  0  0
 18 19  1  0  0  0  0
 19 13  1  0  0  0  0
 20 24  2  0  0  0  0
 21 25  1  0  0  0  0
 23 22  2  0  0  0  0
 24 16  1  0  0  0  0
 24 27  1  0  0  0  0
 25 20  1  0  0  0  0
 25 26  2  0  0  0  0
 26 22  1  0  0  0  0
 27 23  1  0  0  0  0
 29 28  1  0  0  0  0
 30 31  1  1  0  0  0
 30 29  1  0  0  0  0
 32 30  1  0  0  0  0
 33 32  1  0  0  0  0
 34 33  1  0  0  0  0
 35 36  2  0  0  0  0
 36 37  1  0  0  0  0
 37 34  1  0  0  0  0
 39 41  1  0  0  0  0
 39 38  1  1  0  0  0
 39 37  1  0  0  0  0
 40 41  1  0  0  0  0
M  END
>  <MODEL>
2

>  <REMARK>
 VINA RESULT:      -8.1      1.829      6.498
  Name = 
  15 active torsions:
  status: ('A' for Active; 'I' for Inactive)
    1  A    between atoms: C_1  and  C_13
    2  A    between atoms: O_3  and  C_18
    3  A    between atoms: N_4  and  N_19
    4  A    between atoms: C_7  and  C_13
    5  A    between atoms: C_7  and  N_19
    6  A    between atoms: C_15  and  C_20
    7  A    between atoms: C_15  and  C_26
    8  A    between atoms: C_17  and  C_25
    9  A    between atoms: C_17  and  N_39
   10  A    between atoms: C_20  and  C_34
   11  A    between atoms: N_21  and  C_27
   12  A    between atoms: C_25  and  C_37
   13  A    between atoms: C_26  and  C_37
   14  A    between atoms: C_35  and  C_36
   15  A    between atoms: C_35  and  N_39
                            x       y       z     vdW  Elec       q    Type
                         _______ _______ _______ _____ _____    ______ ____

>  <TORSDO>
F 15

$$$$
=
 OpenBabel10232408353D

 41 43  0  0  1  0  0  0  0  0999 V2000
  190.0260  177.4250  145.1190 C   0  0  1  0  0  3  0  0  0  0  0  0
  188.5270  177.1940  147.5420 C   0  0  0  0  0  0  0  0  0  0  0  0
  187.8540  176.9700  148.5830 O   0  0  0  0  0  0  0  0  0  0  0  0
  188.6320  177.9870  145.2640 C   0  0  0  0  0  3  0  0  0  0  0  0
  190.6450  176.9960  146.4400 C   0  0  0  0  0  0  0  0  0  0  0  0
  187.9120  177.8380  146.3740 C   0  0  0  0  0  0  0  0  0  0  0  0
  189.9190  176.8640  147.5100 N   0  0  0  0  0  0  0  0  0  0  0  0
  192.0110  176.7100  146.5280 O   0  0  0  0  0  0  0  0  0  0  0  0
  192.5260  175.6740  147.3530 C   0  0  0  0  0  1  0  0  0  0  0  0
  190.0110  176.2430  144.1610 C   0  0  0  0  0  2  0  0  0  0  0  0
  191.1160  176.3790  143.1280 C   0  0  0  0  0  2  0  0  0  0  0  0
  190.8300  177.5050  142.2590 N   0  0  0  0  0  2  0  0  0  0  0  0
  191.6380  177.3510  141.1260 N   0  0  0  0  0  2  0  0  0  0  0  0
  191.0860  176.7540  137.6320 N   0  0  0  0  0  0  0  0  0  0  0  0
  189.7580  176.6980  137.8810 C   0  0  0  0  0  0  0  0  0  0  0  0
  188.7990  176.4760  136.8390 N   0  0  0  0  0  2  0  0  0  0  0  0
  191.8160  176.9830  138.7220 N   0  0  0  0  0  0  0  0  0  0  0  0
  189.4230  176.9610  139.5170 S   0  0  0  0  0  0  0  0  0  0  0  0
  191.0700  177.1210  139.8380 C   0  0  0  0  0  0  0  0  0  0  0  0
  187.0580  174.8790  137.0260 C   0  0  0  0  0  3  0  0  0  0  0  0
  185.5470  172.9750  137.7410 C   0  0  0  0  0  1  0  0  0  0  0  0
  184.4950  176.2440  136.0280 C   0  0  0  0  0  3  0  0  0  0  0  0
  185.3180  177.2700  136.2430 C   0  0  0  0  0  3  0  0  0  0  0  0
  187.4060  176.1670  136.9830 C   0  0  0  0  0  0  0  0  0  0  0  0
  185.6880  174.3420  137.1720 C   0  0  0  0  0  0  0  0  0  0  0  0
  184.5840  174.9270  136.6900 C   0  0  0  0  0  3  0  0  0  0  0  0
  186.4010  177.2400  137.2690 C   0  0  0  0  0  2  0  0  0  0  0  0
  186.5350  178.4090  146.4460 C   0  0  0  0  0  2  0  0  0  0  0  0
  185.6070  177.6440  145.5170 C   0  0  0  0  0  2  0  0  0  0  0  0
  184.8370  178.6070  144.6350 C   0  0  1  0  0  3  0  0  0  0  0  0
  184.7470  179.8520  145.2620 O   0  0  0  0  0  1  0  0  0  0  0  0
  185.5590  178.7480  143.3080 C   0  0  0  0  0  2  0  0  0  0  0  0
  184.7770  178.0550  142.2040 C   0  0  0  0  0  2  0  0  0  0  0  0
  184.0930  179.0830  141.3150 C   0  0  0  0  0  2  0  0  0  0  0  0
  180.5230  178.4490  141.7470 O   0  0  0  0  0  0  0  0  0  0  0  0
  181.7120  178.7900  141.9850 C   0  0  0  0  0  3  0  0  0  0  0  0
  182.7370  178.6650  140.9870 N   0  0  0  0  0  0  0  0  0  0  0  0
  183.0970  179.1320  138.6040 C   0  0  0  0  0  1  0  0  0  0  0  0
  182.4700  178.2000  139.6240 C   0  0  1  0  0  3  0  0  0  0  0  0
  181.7970  175.8030  139.4860 C   0  0  0  0  0  1  0  0  0  0  0  0
  182.9590  176.7750  139.4120 C   0  0  0  0  0  2  0  0  0  0  0  0
  1 10  1  6  0  0  0
  1  4  1  0  0  0  0
  1  5  1  0  0  0  0
  2  3  2  0  0  0  0
  4  6  2  0  0  0  0
  5  8  1  0  0  0  0
  5  7  2  0  0  0  0
  6 28  1  0  0  0  0
  6  2  1  0  0  0  0
  7  2  1  0  0  0  0
  8  9  1  0  0  0  0
 11 10  1  0  0  0  0
 12 11  1  0  0  0  0
 13 12  1  0  0  0  0
 14 15  2  0  0  0  0
 14 17  1  0  0  0  0
 15 18  1  0  0  0  0
 16 24  1  0  0  0  0
 16 15  1  0  0  0  0
 17 19  2  0  0  0  0
 18 19  1  0  0  0  0
 19 13  1  0  0  0  0
 20 25  1  0  0  0  0
 22 23  2  0  0  0  0
 22 26  1  0  0  0  0
 23 27  1  0  0  0  0
 24 20  2  0  0  0  0
 24 27  1  0  0  0  0
 25 21  1  0  0  0  0
 26 25  2  0  0  0  0
 29 28  1  0  0  0  0
 30 31  1  1  0  0  0
 30 29  1  0  0  0  0
 32 30  1  0  0  0  0
 33 32  1  0  0  0  0
 34 33  1  0  0  0  0
 35 36  2  0  0  0  0
 37 34  1  0  0  0  0
 37 36  1  0  0  0  0
 39 38  1  6  0  0  0
 39 37  1  0  0  0  0
 41 40  1  0  0  0  0
 41 39  1  0  0  0  0
M  END
>  <MODEL>
3

>  <REMARK>
 VINA RESULT:      -8.0      2.382      7.398
  Name = 
  15 active torsions:
  status: ('A' for Active; 'I' for Inactive)
    1  A    between atoms: C_1  and  C_13
    2  A    between atoms: O_3  and  C_18
    3  A    between atoms: N_4  and  N_19
    4  A    between atoms: C_7  and  C_13
    5  A    between atoms: C_7  and  N_19
    6  A    between atoms: C_15  and  C_20
    7  A    between atoms: C_15  and  C_26
    8  A    between atoms: C_17  and  C_25
    9  A    between atoms: C_17  and  N_39
   10  A    between atoms: C_20  and  C_34
   11  A    between atoms: N_21  and  C_27
   12  A    between atoms: C_25  and  C_37
   13  A    between atoms: C_26  and  C_37
   14  A    between atoms: C_35  and  C_36
   15  A    between atoms: C_35  and  N_39
                            x       y       z     vdW  Elec       q    Type
                         _______ _______ _______ _____ _____    ______ ____

>  <TORSDO>
F 15

$$$$
=
 OpenBabel10232408353D

 41 43  0  0  1  0  0  0  0  0999 V2000
  190.1170  177.5000  145.0460 C   0  0  1  0  0  3  0  0  0  0  0  0
  188.4380  177.1030  147.3250 C   0  0  0  0  0  0  0  0  0  0  0  0
  187.6920  176.8070  148.2960 O   0  0  0  0  0  0  0  0  0  0  0  0
  188.6990  178.0160  145.1050 C   0  0  0  0  0  3  0  0  0  0  0  0
  190.6420  177.0200  146.3900 C   0  0  0  0  0  0  0  0  0  0  0  0
  187.8980  177.7900  146.1440 C   0  0  0  0  0  0  0  0  0  0  0  0
  189.8370  176.8130  147.3900 N   0  0  0  0  0  0  0  0  0  0  0  0
  192.0050  176.7670  146.5750 O   0  0  0  0  0  0  0  0  0  0  0  0
  192.4880  175.5920  147.2110 C   0  0  0  0  0  1  0  0  0  0  0  0
  190.2160  176.3700  144.0330 C   0  0  0  0  0  2  0  0  0  0  0  0
  191.1670  176.7410  142.9090 C   0  0  0  0  0  2  0  0  0  0  0  0
  190.4040  177.1060  141.7300 N   0  0  0  0  0  2  0  0  0  0  0  0
  191.3030  177.1060  140.6560 N   0  0  0  0  0  2  0  0  0  0  0  0
  191.0890  176.5390  137.1210 N   0  0  0  0  0  0  0  0  0  0  0  0
  189.7700  176.2800  137.2710 C   0  0  0  0  0  0  0  0  0  0  0  0
  188.9300  175.9500  136.1580 N   0  0  0  0  0  2  0  0  0  0  0  0
  191.7000  176.8400  138.2650 N   0  0  0  0  0  0  0  0  0  0  0  0
  189.2870  176.4420  138.8830 S   0  0  0  0  0  0  0  0  0  0  0  0
  190.8660  176.8330  139.3260 C   0  0  0  0  0  0  0  0  0  0  0  0
  186.5890  176.3170  136.2370 C   0  0  0  0  0  3  0  0  0  0  0  0
  184.2070  177.0440  135.7760 C   0  0  0  0  0  1  0  0  0  0  0  0
  185.3440  173.8060  137.4920 C   0  0  0  0  0  3  0  0  0  0  0  0
  186.5630  173.3960  137.1440 C   0  0  0  0  0  3  0  0  0  0  0  0
  187.5920  175.4350  136.1940 C   0  0  0  0  0  0  0  0  0  0  0  0
  185.1440  176.0040  136.2760 C   0  0  0  0  0  0  0  0  0  0  0  0
  184.6130  174.9280  136.8690 C   0  0  0  0  0  3  0  0  0  0  0  0
  187.3180  173.9770  135.9960 C   0  0  0  0  0  2  0  0  0  0  0  0
  186.5030  178.3190  146.1330 C   0  0  0  0  0  2  0  0  0  0  0  0
  185.8500  178.0330  144.7900 C   0  0  0  0  0  2  0  0  0  0  0  0
  184.3980  178.4650  144.8090 C   0  0  1  0  0  3  0  0  0  0  0  0
  184.0960  179.0490  146.0420 O   0  0  0  0  0  1  0  0  0  0  0  0
  184.1640  179.4660  143.6930 C   0  0  0  0  0  2  0  0  0  0  0  0
  184.8010  178.9790  142.4030 C   0  0  0  0  0  2  0  0  0  0  0  0
  183.8050  178.1580  141.5980 C   0  0  0  0  0  2  0  0  0  0  0  0
  185.6180  178.9270  138.5220 O   0  0  0  0  0  0  0  0  0  0  0  0
  185.3320  178.8220  139.7440 C   0  0  0  0  0  3  0  0  0  0  0  0
  184.0800  178.2620  140.1710 N   0  0  0  0  0  0  0  0  0  0  0  0
  182.5850  176.3710  139.7050 C   0  0  0  0  0  1  0  0  0  0  0  0
  183.0880  177.7240  139.2370 C   0  0  1  0  0  3  0  0  0  0  0  0
  181.5030  178.7130  137.5850 C   0  0  0  0  0  1  0  0  0  0  0  0
  181.9230  178.6840  139.0420 C   0  0  0  0  0  2  0  0  0  0  0  0
  1 10  1  6  0  0  0
  1  4  1  0  0  0  0
  1  5  1  0  0  0  0
  2  7  1  0  0  0  0
  2  3  2  0  0  0  0
  4  6  2  0  0  0  0
  5  8  1  0  0  0  0
  5  7  2  0  0  0  0
  6  2  1  0  0  0  0
  8  9  1  0  0  0  0
 11 10  1  0  0  0  0
 12 11  1  0  0  0  0
 13 12  1  0  0  0  0
 14 15  2  0  0  0  0
 14 17  1  0  0  0  0
 15 18  1  0  0  0  0
 16 24  1  0  0  0  0
 16 15  1  0  0  0  0
 17 19  2  0  0  0  0
 18 19  1  0  0  0  0
 19 13  1  0  0  0  0
 20 25  1  0  0  0  0
 21 25  1  0  0  0  0
 23 22  2  0  0  0  0
 24 20  2  0  0  0  0
 25 26  2  0  0  0  0
 26 22  1  0  0  0  0
 27 24  1  0  0  0  0
 27 23  1  0  0  0  0
 28  6  1  0  0  0  0
 29 30  1  0  0  0  0
 29 28  1  0  0  0  0
 30 31  1  1  0  0  0
 32 30  1  0  0  0  0
 33 32  1  0  0  0  0
 34 33  1  0  0  0  0
 35 36  2  0  0  0  0
 36 37  1  0  0  0  0
 37 34  1  0  0  0  0
 39 38  1  1  0  0  0
 39 37  1  0  0  0  0
 40 41  1  0  0  0  0
 41 39  1  0  0  0  0
M  END
>  <MODEL>
4

>  <REMARK>
 VINA RESULT:      -8.0      2.262      7.248
  Name = 
  15 active torsions:
  status: ('A' for Active; 'I' for Inactive)
    1  A    between atoms: C_1  and  C_13
    2  A    between atoms: O_3  and  C_18
    3  A    between atoms: N_4  and  N_19
    4  A    between atoms: C_7  and  C_13
    5  A    between atoms: C_7  and  N_19
    6  A    between atoms: C_15  and  C_20
    7  A    between atoms: C_15  and  C_26
    8  A    between atoms: C_17  and  C_25
    9  A    between atoms: C_17  and  N_39
   10  A    between atoms: C_20  and  C_34
   11  A    between atoms: N_21  and  C_27
   12  A    between atoms: C_25  and  C_37
   13  A    between atoms: C_26  and  C_37
   14  A    between atoms: C_35  and  C_36
   15  A    between atoms: C_35  and  N_39
                            x       y       z     vdW  Elec       q    Type
                         _______ _______ _______ _____ _____    ______ ____

>  <TORSDO>
F 15

$$$$
=
 OpenBabel10232408353D

 41 43  0  0  1  0  0  0  0  0999 V2000
  183.5270  177.9340  140.4900 C   0  0  1  0  0  3  0  0  0  0  0  0
  181.8810  179.0990  142.5160 C   0  0  0  0  0  0  0  0  0  0  0  0
  181.1680  179.7210  143.3470 O   0  0  0  0  0  0  0  0  0  0  0  0
  184.0170  178.1560  141.9020 C   0  0  0  0  0  3  0  0  0  0  0  0
  182.0260  178.1150  140.3360 C   0  0  0  0  0  0  0  0  0  0  0  0
  183.2700  178.7440  142.8340 C   0  0  0  0  0  0  0  0  0  0  0  0
  181.3190  178.6880  141.2650 N   0  0  0  0  0  0  0  0  0  0  0  0
  181.3710  177.6890  139.1760 O   0  0  0  0  0  0  0  0  0  0  0  0
  181.7040  176.4820  138.5050 C   0  0  0  0  0  1  0  0  0  0  0  0
  184.2500  178.8730  139.5370 C   0  0  0  0  0  2  0  0  0  0  0  0
  184.9830  178.0860  138.4650 C   0  0  0  0  0  2  0  0  0  0  0  0
  186.2960  178.6660  138.2520 N   0  0  0  0  0  2  0  0  0  0  0  0
  186.9650  178.6030  139.4800 N   0  0  0  0  0  2  0  0  0  0  0  0
  190.2020  177.5340  140.5970 N   0  0  0  0  0  0  0  0  0  0  0  0
  190.4890  177.1740  139.3260 C   0  0  0  0  0  0  0  0  0  0  0  0
  191.7590  176.6130  138.9640 N   0  0  0  0  0  2  0  0  0  0  0  0
  188.9810  178.0480  140.7340 N   0  0  0  0  0  0  0  0  0  0  0  0
  189.2040  177.5100  138.2800 S   0  0  0  0  0  0  0  0  0  0  0  0
  188.2990  178.1080  139.5710 C   0  0  0  0  0  0  0  0  0  0  0  0
  193.1420  176.4960  137.0430 C   0  0  0  0  0  3  0  0  0  0  0  0
  195.0920  176.3200  135.4360 C   0  0  0  0  0  1  0  0  0  0  0  0
  191.5050  175.0870  134.8610 C   0  0  0  0  0  3  0  0  0  0  0  0
  190.8370  174.7920  135.9750 C   0  0  0  0  0  3  0  0  0  0  0  0
  192.1160  175.9830  137.7260 C   0  0  0  0  0  0  0  0  0  0  0  0
  193.6750  176.0020  135.7550 C   0  0  0  0  0  0  0  0  0  0  0  0
  192.9390  175.4320  134.7930 C   0  0  0  0  0  3  0  0  0  0  0  0
  191.4930  174.6860  137.3110 C   0  0  0  0  0  2  0  0  0  0  0  0
  183.8200  178.9430  144.2070 C   0  0  0  0  0  2  0  0  0  0  0  0
  185.2440  178.4160  144.2760 C   0  0  0  0  0  2  0  0  0  0  0  0
  185.8340  178.6770  145.6470 C   0  0  1  0  0  3  0  0  0  0  0  0
  184.8490  179.1900  146.4950 O   0  0  0  0  0  1  0  0  0  0  0  0
  186.3730  177.3760  146.2110 C   0  0  0  0  0  2  0  0  0  0  0  0
  187.8410  177.5240  146.5730 C   0  0  0  0  0  2  0  0  0  0  0  0
  188.6150  178.1240  145.4090 C   0  0  0  0  0  2  0  0  0  0  0  0
  189.3140  175.4520  143.0210 O   0  0  0  0  0  0  0  0  0  0  0  0
  188.7070  176.3450  143.6680 C   0  0  0  0  0  3  0  0  0  0  0  0
  189.3650  177.0970  144.6990 N   0  0  0  0  0  0  0  0  0  0  0  0
  191.6050  178.0780  144.4720 C   0  0  0  0  0  1  0  0  0  0  0  0
  190.7830  176.9290  145.0260 C   0  0  1  0  0  3  0  0  0  0  0  0
  192.1550  175.8550  146.8100 C   0  0  0  0  0  1  0  0  0  0  0  0
  191.0000  176.7970  146.5270 C   0  0  0  0  0  2  0  0  0  0  0  0
  1 10  1  6  0  0  0
  1  4  1  0  0  0  0
  2  6  1  0  0  0  0
  2  3  2  0  0  0  0
  4  6  2  0  0  0  0
  5  1  1  0  0  0  0
  5  7  2  0  0  0  0
  6 28  1  0  0  0  0
  7  2  1  0  0  0  0
  8  5  1  0  0  0  0
  9  8  1  0  0  0  0
 11 10  1  0  0  0  0
 12 11  1  0  0  0  0
 12 13  1  0  0  0  0
 13 19  1  0  0  0  0
 14 17  1  0  0  0  0
 15 14  2  0  0  0  0
 16 15  1  0  0  0  0
 18 15  1  0  0  0  0
 18 19  1  0  0  0  0
 19 17  2  0  0  0  0
 20 24  2  0  0  0  0
 21 25  1  0  0  0  0
 22 23  2  0  0  0  0
 23 27  1  0  0  0  0
 24 16  1  0  0  0  0
 25 20  1  0  0  0  0
 26 22  1  0  0  0  0
 26 25  2  0  0  0  0
 27 24  1  0  0  0  0
 28 29  1  0  0  0  0
 29 30  1  0  0  0  0
 30 32  1  0  0  0  0
 30 31  1  1  0  0  0
 32 33  1  0  0  0  0
 34 33  1  0  0  0  0
 35 36  2  0  0  0  0
 36 37  1  0  0  0  0
 37 39  1  0  0  0  0
 37 34  1  0  0  0  0
 39 38  1  1  0  0  0
 39 41  1  0  0  0  0
 41 40  1  0  0  0  0
M  END
>  <MODEL>
5

>  <REMARK>
 VINA RESULT:      -8.0      1.337      2.199
  Name = 
  15 active torsions:
  status: ('A' for Active; 'I' for Inactive)
    1  A    between atoms: C_1  and  C_13
    2  A    between atoms: O_3  and  C_18
    3  A    between atoms: N_4  and  N_19
    4  A    between atoms: C_7  and  C_13
    5  A    between atoms: C_7  and  N_19
    6  A    between atoms: C_15  and  C_20
    7  A    between atoms: C_15  and  C_26
    8  A    between atoms: C_17  and  C_25
    9  A    between atoms: C_17  and  N_39
   10  A    between atoms: C_20  and  C_34
   11  A    between atoms: N_21  and  C_27
   12  A    between atoms: C_25  and  C_37
   13  A    between atoms: C_26  and  C_37
   14  A    between atoms: C_35  and  C_36
   15  A    between atoms: C_35  and  N_39
                            x       y       z     vdW  Elec       q    Type
                         _______ _______ _______ _____ _____    ______ ____

>  <TORSDO>
F 15

$$$$
=
 OpenBabel10232408353D

 41 43  0  0  1  0  0  0  0  0999 V2000
  183.3440  177.8160  140.7590 C   0  0  1  0  0  3  0  0  0  0  0  0
  181.5320  179.0210  142.6130 C   0  0  0  0  0  0  0  0  0  0  0  0
  180.7430  179.6560  143.3610 O   0  0  0  0  0  0  0  0  0  0  0  0
  183.7510  178.1820  142.1660 C   0  0  0  0  0  3  0  0  0  0  0  0
  181.8420  177.8800  140.5290 C   0  0  0  0  0  0  0  0  0  0  0  0
  182.9250  178.7890  143.0160 C   0  0  0  0  0  0  0  0  0  0  0  0
  181.0580  178.4750  141.3790 N   0  0  0  0  0  0  0  0  0  0  0  0
  181.2710  177.3210  139.3810 O   0  0  0  0  0  0  0  0  0  0  0  0
  181.5560  175.9970  138.9500 C   0  0  0  0  0  1  0  0  0  0  0  0
  184.0470  178.7250  139.7620 C   0  0  0  0  0  2  0  0  0  0  0  0
  185.3580  179.2330  140.3350 C   0  0  0  0  0  2  0  0  0  0  0  0
  186.4650  178.5870  139.6570 N   0  0  0  0  0  2  0  0  0  0  0  0
  186.2120  178.6960  138.2840 N   0  0  0  0  0  2  0  0  0  0  0  0
  187.5470  177.2280  135.2950 N   0  0  0  0  0  0  0  0  0  0  0  0
  188.4350  176.5500  136.0590 C   0  0  0  0  0  0  0  0  0  0  0  0
  189.3940  175.6500  135.4900 N   0  0  0  0  0  2  0  0  0  0  0  0
  186.7280  178.0030  136.0030 N   0  0  0  0  0  0  0  0  0  0  0  0
  188.2170  176.8810  137.7030 S   0  0  0  0  0  0  0  0  0  0  0  0
  186.9550  177.9350  137.3320 C   0  0  0  0  0  0  0  0  0  0  0  0
  191.4870  175.8660  136.5800 C   0  0  0  0  0  3  0  0  0  0  0  0
  193.3800  176.4730  138.1510 C   0  0  0  0  0  1  0  0  0  0  0  0
  192.9730  173.2090  136.1740 C   0  0  0  0  0  3  0  0  0  0  0  0
  191.7120  172.8970  135.8780 C   0  0  0  0  0  3  0  0  0  0  0  0
  190.5250  175.0520  136.1380 C   0  0  0  0  0  0  0  0  0  0  0  0
  192.7300  175.4630  137.2740 C   0  0  0  0  0  0  0  0  0  0  0  0
  193.3920  174.3200  137.0520 C   0  0  0  0  0  3  0  0  0  0  0  0
  190.5400  173.5950  136.4810 C   0  0  0  0  0  2  0  0  0  0  0  0
  183.3970  179.1320  144.3890 C   0  0  0  0  0  2  0  0  0  0  0  0
  184.9020  179.3390  144.3840 C   0  0  0  0  0  2  0  0  0  0  0  0
  185.5050  178.8460  145.6840 C   0  0  1  0  0  3  0  0  0  0  0  0
  184.4890  178.5950  146.6090 O   0  0  0  0  0  1  0  0  0  0  0  0
  186.2860  177.5720  145.4160 C   0  0  0  0  0  2  0  0  0  0  0  0
  187.3560  177.8180  144.3660 C   0  0  0  0  0  2  0  0  0  0  0  0
  188.5500  176.9060  144.6030 C   0  0  0  0  0  2  0  0  0  0  0  0
  191.1460  179.4150  144.0550 O   0  0  0  0  0  0  0  0  0  0  0  0
  190.1150  178.7110  143.8950 C   0  0  0  0  0  3  0  0  0  0  0  0
  189.7590  177.6850  144.8350 N   0  0  0  0  0  0  0  0  0  0  0  0
  189.5940  177.0630  147.2040 C   0  0  0  0  0  1  0  0  0  0  0  0
  190.5210  177.4270  146.0590 C   0  0  1  0  0  3  0  0  0  0  0  0
  192.0050  175.7720  147.1890 C   0  0  0  0  0  1  0  0  0  0  0  0
  191.5630  176.3370  145.8530 C   0  0  0  0  0  2  0  0  0  0  0  0
  1 10  1  6  0  0  0
  1  4  1  0  0  0  0
  2  6  1  0  0  0  0
  2  3  2  0  0  0  0
  4  6  2  0  0  0  0
  5  1  1  0  0  0  0
  5  7  2  0  0  0  0
  6 28  1  0  0  0  0
  7  2  1  0  0  0  0
  8  5  1  0  0  0  0
  9  8  1  0  0  0  0
 10 11  1  0  0  0  0
 12 11  1  0  0  0  0
 13 12  1  0  0  0  0
 14 17  1  0  0  0  0
 14 15  2  0  0  0  0
 15 18  1  0  0  0  0
 16 15  1  0  0  0  0
 16 24  1  0  0  0  0
 17 19  2  0  0  0  0
 19 18  1  0  0  0  0
 19 13  1  0  0  0  0
 20 25  1  0  0  0  0
 22 26  1  0  0  0  0
 23 22  2  0  0  0  0
 23 27  1  0  0  0  0
 24 27  1  0  0  0  0
 24 20  2  0  0  0  0
 25 21  1  0  0  0  0
 26 25  2  0  0  0  0
 29 28  1  0  0  0  0
 29 30  1  0  0  0  0
 30 31  1  1  0  0  0
 32 30  1  0  0  0  0
 33 34  1  0  0  0  0
 33 32  1  0  0  0  0
 34 37  1  0  0  0  0
 36 35  2  0  0  0  0
 36 37  1  0  0  0  0
 37 39  1  0  0  0  0
 39 38  1  1  0  0  0
 41 39  1  0  0  0  0
 41 40  1  0  0  0  0
M  END
>  <MODEL>
6

>  <REMARK>
 VINA RESULT:      -7.9      1.522      2.531
  Name = 
  15 active torsions:
  status: ('A' for Active; 'I' for Inactive)
    1  A    between atoms: C_1  and  C_13
    2  A    between atoms: O_3  and  C_18
    3  A    between atoms: N_4  and  N_19
    4  A    between atoms: C_7  and  C_13
    5  A    between atoms: C_7  and  N_19
    6  A    between atoms: C_15  and  C_20
    7  A    between atoms: C_15  and  C_26
    8  A    between atoms: C_17  and  C_25
    9  A    between atoms: C_17  and  N_39
   10  A    between atoms: C_20  and  C_34
   11  A    between atoms: N_21  and  C_27
   12  A    between atoms: C_25  and  C_37
   13  A    between atoms: C_26  and  C_37
   14  A    between atoms: C_35  and  C_36
   15  A    between atoms: C_35  and  N_39
                            x       y       z     vdW  Elec       q    Type
                         _______ _______ _______ _____ _____    ______ ____

>  <TORSDO>
F 15

$$$$
=
 OpenBabel10232408353D

 41 43  0  0  1  0  0  0  0  0999 V2000
  182.9520  178.6590  139.0910 C   0  0  1  0  0  3  0  0  0  0  0  0
  182.9300  177.5500  136.4570 C   0  0  0  0  0  0  0  0  0  0  0  0
  182.8430  176.9720  135.3410 O   0  0  0  0  0  0  0  0  0  0  0  0
  184.1490  177.9520  138.5020 C   0  0  0  0  0  3  0  0  0  0  0  0
  181.8700  178.9710  138.0690 C   0  0  0  0  0  0  0  0  0  0  0  0
  184.1250  177.3900  137.2950 C   0  0  0  0  0  0  0  0  0  0  0  0
  181.8750  178.4110  136.8950 N   0  0  0  0  0  0  0  0  0  0  0  0
  180.8270  179.8500  138.3780 O   0  0  0  0  0  0  0  0  0  0  0  0
  181.0520  181.1780  138.8310 C   0  0  0  0  0  1  0  0  0  0  0  0
  182.3590  177.8260  140.2170 C   0  0  0  0  0  2  0  0  0  0  0  0
  182.2260  178.6540  141.4830 C   0  0  0  0  0  2  0  0  0  0  0  0
  183.4830  178.6370  142.2060 N   0  0  0  0  0  2  0  0  0  0  0  0
  183.1690  178.8160  143.5590 N   0  0  0  0  0  2  0  0  0  0  0  0
  184.9740  178.7050  146.6570 N   0  0  0  0  0  0  0  0  0  0  0  0
  186.0870  178.3730  145.9640 C   0  0  0  0  0  0  0  0  0  0  0  0
  187.3470  178.1550  146.6100 N   0  0  0  0  0  2  0  0  0  0  0  0
  183.9050  178.8810  145.8830 N   0  0  0  0  0  0  0  0  0  0  0  0
  185.7830  178.3030  144.3020 S   0  0  0  0  0  0  0  0  0  0  0  0
  184.1670  178.7000  144.5710 C   0  0  0  0  0  0  0  0  0  0  0  0
  189.5830  177.4060  146.8510 C   0  0  0  0  0  3  0  0  0  0  0  0
  191.7070  176.2210  147.5590 C   0  0  0  0  0  1  0  0  0  0  0  0
  190.8820  177.5980  144.0750 C   0  0  0  0  0  3  0  0  0  0  0  0
  189.5790  177.6690  143.8030 C   0  0  0  0  0  3  0  0  0  0  0  0
  188.5340  177.5830  146.0440 C   0  0  0  0  0  0  0  0  0  0  0  0
  190.8950  176.8350  146.4760 C   0  0  0  0  0  0  0  0  0  0  0  0
  191.4690  176.9670  145.2730 C   0  0  0  0  0  3  0  0  0  0  0  0
  188.5370  177.0260  144.6540 C   0  0  0  0  0  2  0  0  0  0  0  0
  185.3410  176.6960  136.7780 C   0  0  0  0  0  2  0  0  0  0  0  0
  185.2840  175.2190  137.1310 C   0  0  0  0  0  2  0  0  0  0  0  0
  186.5070  174.5030  136.5940 C   0  0  1  0  0  3  0  0  0  0  0  0
  186.1700  173.7970  135.4360 O   0  0  0  0  0  1  0  0  0  0  0  0
  187.5830  175.5260  136.2800 C   0  0  0  0  0  2  0  0  0  0  0  0
  188.8150  175.2770  137.1330 C   0  0  0  0  0  2  0  0  0  0  0  0
  189.7720  176.4560  137.0380 C   0  0  0  0  0  2  0  0  0  0  0  0
  190.9980  177.1050  140.4160 O   0  0  0  0  0  0  0  0  0  0  0  0
  190.8340  176.5680  139.2880 C   0  0  0  0  0  3  0  0  0  0  0  0
  189.9150  177.1140  138.3290 N   0  0  0  0  0  0  0  0  0  0  0  0
  188.9830  179.1230  137.2680 C   0  0  0  0  0  1  0  0  0  0  0  0
  189.1620  178.3490  138.5610 C   0  0  1  0  0  3  0  0  0  0  0  0
  187.8290  178.4680  140.6650 C   0  0  0  0  0  1  0  0  0  0  0  0
  187.8100  178.0690  139.2020 C   0  0  0  0  0  2  0  0  0  0  0  0
  1 10  1  1  0  0  0
  2  7  1  0  0  0  0
  2  6  1  0  0  0  0
  3  2  2  0  0  0  0
  4  1  1  0  0  0  0
  5  8  1  0  0  0  0
  5  1  1  0  0  0  0
  6  4  2  0  0  0  0
  7  5  2  0  0  0  0
  8  9  1  0  0  0  0
 10 11  1  0  0  0  0
 11 12  1  0  0  0  0
 12 13  1  0  0  0  0
 13 19  1  0  0  0  0
 15 16  1  0  0  0  0
 15 14  2  0  0  0  0
 17 14  1  0  0  0  0
 18 19  1  0  0  0  0
 18 15  1  0  0  0  0
 19 17  2  0  0  0  0
 22 26  1  0  0  0  0
 23 22  2  0  0  0  0
 23 27  1  0  0  0  0
 24 16  1  0  0  0  0
 24 20  2  0  0  0  0
 25 20  1  0  0  0  0
 25 21  1  0  0  0  0
 26 25  2  0  0  0  0
 27 24  1  0  0  0  0
 28 29  1  0  0  0  0
 28  6  1  0  0  0  0
 30 31  1  6  0  0  0
 30 29  1  0  0  0  0
 32 30  1  0  0  0  0
 32 33  1  0  0  0  0
 34 33  1  0  0  0  0
 34 37  1  0  0  0  0
 36 35  2  0  0  0  0
 37 39  1  0  0  0  0
 37 36  1  0  0  0  0
 39 38  1  6  0  0  0
 39 41  1  0  0  0  0
 41 40  1  0  0  0  0
M  END
>  <MODEL>
7

>  <REMARK>
 VINA RESULT:      -7.9      3.090      7.760
  Name = 
  15 active torsions:
  status: ('A' for Active; 'I' for Inactive)
    1  A    between atoms: C_1  and  C_13
    2  A    between atoms: O_3  and  C_18
    3  A    between atoms: N_4  and  N_19
    4  A    between atoms: C_7  and  C_13
    5  A    between atoms: C_7  and  N_19
    6  A    between atoms: C_15  and  C_20
    7  A    between atoms: C_15  and  C_26
    8  A    between atoms: C_17  and  C_25
    9  A    between atoms: C_17  and  N_39
   10  A    between atoms: C_20  and  C_34
   11  A    between atoms: N_21  and  C_27
   12  A    between atoms: C_25  and  C_37
   13  A    between atoms: C_26  and  C_37
   14  A    between atoms: C_35  and  C_36
   15  A    between atoms: C_35  and  N_39
                            x       y       z     vdW  Elec       q    Type
                         _______ _______ _______ _____ _____    ______ ____

>  <TORSDO>
F 15

$$$$
=
 OpenBabel10232408353D

 41 43  0  0  1  0  0  0  0  0999 V2000
  184.9140  178.0400  141.7790 C   0  0  1  0  0  3  0  0  0  0  0  0
  182.9550  179.1060  143.5670 C   0  0  0  0  0  0  0  0  0  0  0  0
  182.1190  179.6890  144.3070 O   0  0  0  0  0  0  0  0  0  0  0  0
  185.1410  178.1250  143.2690 C   0  0  0  0  0  3  0  0  0  0  0  0
  183.4720  178.2970  141.3720 C   0  0  0  0  0  0  0  0  0  0  0  0
  184.2520  178.6670  144.0990 C   0  0  0  0  0  0  0  0  0  0  0  0
  182.6230  178.8230  142.2050 N   0  0  0  0  0  0  0  0  0  0  0  0
  183.0300  177.9960  140.0800 O   0  0  0  0  0  0  0  0  0  0  0  0
  182.7650  176.6680  139.6490 C   0  0  0  0  0  1  0  0  0  0  0  0
  185.8250  179.0210  141.0580 C   0  0  0  0  0  2  0  0  0  0  0  0
  187.2770  178.7690  141.4220 C   0  0  0  0  0  2  0  0  0  0  0  0
  188.0950  178.8350  140.2250 N   0  0  0  0  0  2  0  0  0  0  0  0
  187.2890  178.4010  139.1650 N   0  0  0  0  0  2  0  0  0  0  0  0
  187.6590  176.1310  136.4130 N   0  0  0  0  0  0  0  0  0  0  0  0
  188.9310  175.9020  136.8100 C   0  0  0  0  0  0  0  0  0  0  0  0
  189.7910  174.9890  136.1150 N   0  0  0  0  0  2  0  0  0  0  0  0
  187.0130  176.9970  137.1910 N   0  0  0  0  0  0  0  0  0  0  0  0
  189.3120  176.7790  138.2050 S   0  0  0  0  0  0  0  0  0  0  0  0
  187.7660  177.4500  138.2160 C   0  0  0  0  0  0  0  0  0  0  0  0
  191.6720  173.5790  136.4160 C   0  0  0  0  0  3  0  0  0  0  0  0
  193.4680  171.8070  136.1830 C   0  0  0  0  0  1  0  0  0  0  0  0
  193.8360  175.2740  137.7870 C   0  0  0  0  0  3  0  0  0  0  0  0
  192.9840  176.1890  137.3250 C   0  0  0  0  0  3  0  0  0  0  0  0
  191.2060  174.8230  136.2790 C   0  0  0  0  0  0  0  0  0  0  0  0
  193.0870  173.1850  136.5930 C   0  0  0  0  0  0  0  0  0  0  0  0
  194.0080  173.9150  137.2350 C   0  0  0  0  0  3  0  0  0  0  0  0
  192.1450  175.9770  136.1100 C   0  0  0  0  0  2  0  0  0  0  0  0
  184.5460  178.7300  145.5610 C   0  0  0  0  0  2  0  0  0  0  0  0
  185.8080  177.9420  145.8700 C   0  0  0  0  0  2  0  0  0  0  0  0
  186.6990  178.7260  146.8120 C   0  0  1  0  0  3  0  0  0  0  0  0
  185.9640  179.7520  147.4120 O   0  0  0  0  0  1  0  0  0  0  0  0
  187.2420  177.7910  147.8760 C   0  0  0  0  0  2  0  0  0  0  0  0
  188.7180  177.5200  147.6380 C   0  0  0  0  0  2  0  0  0  0  0  0
  189.0530  177.6690  146.1620 C   0  0  0  0  0  2  0  0  0  0  0  0
  192.3220  176.1340  146.7030 O   0  0  0  0  0  0  0  0  0  0  0  0
  191.2180  176.6990  146.9220 C   0  0  0  0  0  3  0  0  0  0  0  0
  190.3200  177.0230  145.8490 N   0  0  0  0  0  0  0  0  0  0  0  0
  189.3010  176.6340  143.6490 C   0  0  0  0  0  1  0  0  0  0  0  0
  190.5880  176.6700  144.4530 C   0  0  1  0  0  3  0  0  0  0  0  0
  191.2000  179.0630  144.1060 C   0  0  0  0  0  1  0  0  0  0  0  0
  191.5860  177.6250  143.8140 C   0  0  0  0  0  2  0  0  0  0  0  0
  1 10  1  6  0  0  0
  1  4  1  0  0  0  0
  2  6  1  0  0  0  0
  2  3  2  0  0  0  0
  4  6  2  0  0  0  0
  5  1  1  0  0  0  0
  5  7  2  0  0  0  0
  6 28  1  0  0  0  0
  7  2  1  0  0  0  0
  8  5  1  0  0  0  0
  9  8  1  0  0  0  0
 10 11  1  0  0  0  0
 12 11  1  0  0  0  0
 13 12  1  0  0  0  0
 14 15  2  0  0  0  0
 14 17  1  0  0  0  0
 15 18  1  0  0  0  0
 16 24  1  0  0  0  0
 16 15  1  0  0  0  0
 17 19  2  0  0  0  0
 18 19  1  0  0  0  0
 19 13  1  0  0  0  0
 20 25  1  0  0  0  0
 21 25  1  0  0  0  0
 23 22  2  0  0  0  0
 24 20  2  0  0  0  0
 25 26  2  0  0  0  0
 26 22  1  0  0  0  0
 27 24  1  0  0  0  0
 27 23  1  0  0  0  0
 28 29  1  0  0  0  0
 29 30  1  0  0  0  0
 30 31  1  1  0  0  0
 30 32  1  0  0  0  0
 33 32  1  0  0  0  0
 34 33  1  0  0  0  0
 35 36  2  0  0  0  0
 37 34  1  0  0  0  0
 37 36  1  0  0  0  0
 39 38  1  6  0  0  0
 39 37  1  0  0  0  0
 41 40  1  0  0  0  0
 41 39  1  0  0  0  0
M  END
>  <MODEL>
8

>  <REMARK>
 VINA RESULT:      -7.7      1.607      2.195
  Name = 
  15 active torsions:
  status: ('A' for Active; 'I' for Inactive)
    1  A    between atoms: C_1  and  C_13
    2  A    between atoms: O_3  and  C_18
    3  A    between atoms: N_4  and  N_19
    4  A    between atoms: C_7  and  C_13
    5  A    between atoms: C_7  and  N_19
    6  A    between atoms: C_15  and  C_20
    7  A    between atoms: C_15  and  C_26
    8  A    between atoms: C_17  and  C_25
    9  A    between atoms: C_17  and  N_39
   10  A    between atoms: C_20  and  C_34
   11  A    between atoms: N_21  and  C_27
   12  A    between atoms: C_25  and  C_37
   13  A    between atoms: C_26  and  C_37
   14  A    between atoms: C_35  and  C_36
   15  A    between atoms: C_35  and  N_39
                            x       y       z     vdW  Elec       q    Type
                         _______ _______ _______ _____ _____    ______ ____

>  <TORSDO>
F 15

$$$$
=
 OpenBabel10232408353D

 41 43  0  0  1  0  0  0  0  0999 V2000
  188.9170  177.5310  144.6410 C   0  0  1  0  0  3  0  0  0  0  0  0
  188.1590  177.2080  147.3770 C   0  0  0  0  0  0  0  0  0  0  0  0
  187.8050  176.9450  148.5570 O   0  0  0  0  0  0  0  0  0  0  0  0
  187.6190  178.0720  145.1890 C   0  0  0  0  0  3  0  0  0  0  0  0
  189.8830  177.0690  145.7200 C   0  0  0  0  0  0  0  0  0  0  0  0
  187.2390  177.8800  146.4500 C   0  0  0  0  0  0  0  0  0  0  0  0
  189.4860  176.8960  146.9460 N   0  0  0  0  0  0  0  0  0  0  0  0
  191.2200  176.7970  145.4130 O   0  0  0  0  0  0  0  0  0  0  0  0
  192.0370  175.9580  146.2190 C   0  0  0  0  0  1  0  0  0  0  0  0
  188.6380  176.3790  143.6870 C   0  0  0  0  0  2  0  0  0  0  0  0
  188.3170  176.9020  142.2980 C   0  0  0  0  0  2  0  0  0  0  0  0
  189.5310  176.9480  141.5050 N   0  0  0  0  0  2  0  0  0  0  0  0
  189.4580  178.1110  140.7290 N   0  0  0  0  0  2  0  0  0  0  0  0
  188.6340  178.8850  137.3250 N   0  0  0  0  0  0  0  0  0  0  0  0
  188.4640  177.5630  137.0950 C   0  0  0  0  0  0  0  0  0  0  0  0
  188.0730  177.0590  135.8110 N   0  0  0  0  0  2  0  0  0  0  0  0
  188.9820  179.1600  138.5800 N   0  0  0  0  0  0  0  0  0  0  0  0
  188.7270  176.6530  138.4960 S   0  0  0  0  0  0  0  0  0  0  0  0
  189.0780  178.0600  139.3550 C   0  0  0  0  0  0  0  0  0  0  0  0
  186.9340  175.0140  135.4410 C   0  0  0  0  0  3  0  0  0  0  0  0
  185.3340  173.2050  134.6760 C   0  0  0  0  0  1  0  0  0  0  0  0
  189.0540  172.7940  135.5240 C   0  0  0  0  0  3  0  0  0  0  0  0
  189.7810  173.9000  135.3660 C   0  0  0  0  0  3  0  0  0  0  0  0
  188.0800  175.6950  135.3670 C   0  0  0  0  0  0  0  0  0  0  0  0
  186.7190  173.6080  135.0380 C   0  0  0  0  0  0  0  0  0  0  0  0
  187.6410  172.6400  135.1240 C   0  0  0  0  0  3  0  0  0  0  0  0
  189.2700  175.1150  134.6690 C   0  0  0  0  0  2  0  0  0  0  0  0
  185.9360  178.4340  146.9240 C   0  0  0  0  0  2  0  0  0  0  0  0
  185.4390  179.4920  145.9540 C   0  0  0  0  0  2  0  0  0  0  0  0
  184.4500  178.8880  144.9770 C   0  0  1  0  0  3  0  0  0  0  0  0
  183.1850  178.8220  145.5680 O   0  0  0  0  0  1  0  0  0  0  0  0
  184.3940  179.7500  143.7310 C   0  0  0  0  0  2  0  0  0  0  0  0
  185.2510  179.1470  142.6310 C   0  0  0  0  0  2  0  0  0  0  0  0
  184.4770  178.0700  141.8860 C   0  0  0  0  0  2  0  0  0  0  0  0
  185.3860  178.9970  138.4720 O   0  0  0  0  0  0  0  0  0  0  0  0
  185.4780  178.6910  139.6910 C   0  0  0  0  0  3  0  0  0  0  0  0
  184.3100  178.4280  140.4830 N   0  0  0  0  0  0  0  0  0  0  0  0
  182.6950  177.1710  139.1260 C   0  0  0  0  0  1  0  0  0  0  0  0
  182.9540  178.4310  139.9300 C   0  0  1  0  0  3  0  0  0  0  0  0
  180.7270  177.6690  140.7560 C   0  0  0  0  0  1  0  0  0  0  0  0
  181.9040  178.5890  141.0210 C   0  0  0  0  0  2  0  0  0  0  0  0
  1 10  1  6  0  0  0
  1  4  1  0  0  0  0
  1  5  1  0  0  0  0
  2  3  2  0  0  0  0
  4  6  2  0  0  0  0
  5  7  2  0  0  0  0
  6 28  1  0  0  0  0
  6  2  1  0  0  0  0
  7  2  1  0  0  0  0
  8  5  1  0  0  0  0
  8  9  1  0  0  0  0
 11 10  1  0  0  0  0
 12 11  1  0  0  0  0
 13 12  1  0  0  0  0
 14 17  1  0  0  0  0
 15 14  2  0  0  0  0
 15 18  1  0  0  0  0
 16 15  1  0  0  0  0
 17 19  2  0  0  0  0
 18 19  1  0  0  0  0
 19 13  1  0  0  0  0
 21 25  1  0  0  0  0
 23 22  2  0  0  0  0
 24 20  2  0  0  0  0
 24 16  1  0  0  0  0
 25 26  2  0  0  0  0
 25 20  1  0  0  0  0
 26 22  1  0  0  0  0
 27 23  1  0  0  0  0
 27 24  1  0  0  0  0
 29 28  1  0  0  0  0
 30 31  1  1  0  0  0
 30 29  1  0  0  0  0
 32 30  1  0  0  0  0
 33 32  1  0  0  0  0
 34 33  1  0  0  0  0
 35 36  2  0  0  0  0
 36 37  1  0  0  0  0
 37 34  1  0  0  0  0
 39 38  1  1  0  0  0
 39 37  1  0  0  0  0
 39 41  1  0  0  0  0
 40 41  1  0  0  0  0
M  END
>  <MODEL>
9

>  <REMARK>
 VINA RESULT:      -7.6      2.069      6.493
  Name = 
  15 active torsions:
  status: ('A' for Active; 'I' for Inactive)
    1  A    between atoms: C_1  and  C_13
    2  A    between atoms: O_3  and  C_18
    3  A    between atoms: N_4  and  N_19
    4  A    between atoms: C_7  and  C_13
    5  A    between atoms: C_7  and  N_19
    6  A    between atoms: C_15  and  C_20
    7  A    between atoms: C_15  and  C_26
    8  A    between atoms: C_17  and  C_25
    9  A    between atoms: C_17  and  N_39
   10  A    between atoms: C_20  and  C_34
   11  A    between atoms: N_21  and  C_27
   12  A    between atoms: C_25  and  C_37
   13  A    between atoms: C_26  and  C_37
   14  A    between atoms: C_35  and  C_36
   15  A    between atoms: C_35  and  N_39
                            x       y       z     vdW  Elec       q    Type
                         _______ _______ _______ _____ _____    ______ ____

>  <TORSDO>
F 15

$$$$
