=
 OpenBabel10232410033D

 28 32  0  0  1  0  0  0  0  0999 V2000
  190.9650  177.3610  143.2110 C   0  0  2  0  0  3  0  0  0  0  0  0
  187.2170  177.9840  142.3970 C   0  0  0  0  0  1  0  0  0  0  0  0
  189.5270  177.1340  145.2650 C   0  0  0  0  0  0  0  0  0  0  0  0
  191.8030  176.2690  147.7940 O   0  0  0  0  0  0  0  0  0  0  0  0
  188.4900  177.6950  143.1330 C   0  0  0  0  0  0  0  0  0  0  0  0
  191.1570  176.5480  146.7510 C   0  0  0  0  0  0  0  0  0  0  0  0
  189.6590  177.5150  142.4550 C   0  0  0  0  0  0  0  0  0  0  0  0
  188.4330  177.5740  144.6270 C   0  0  0  0  0  0  0  0  0  0  0  0
  191.7430  176.5360  145.4560 N   0  0  0  0  0  2  0  0  0  0  0  0
  190.7270  176.8670  144.5600 N   0  0  0  0  0  0  0  0  0  0  0  0
  189.7130  176.9380  146.7390 C   0  0  0  0  0  2  0  0  0  0  0  0
  191.6440  178.6450  143.2780 N   0  0  0  0  0  1  0  0  0  0  0  0
  188.9580  178.5860  137.6890 C   0  0  0  0  0  3  0  0  0  0  0  0
  190.5010  176.1540  135.4000 F   0  0  0  0  0  0  0  0  0  0  0  0
  190.5090  176.2070  137.7880 C   0  0  0  0  0  3  0  0  0  0  0  0
  189.7190  177.5230  141.0120 N   0  0  0  0  0  0  0  0  0  0  0  0
  189.1090  178.4130  140.1870 C   0  0  0  0  0  3  0  0  0  0  0  0
  189.3570  177.9430  136.5030 C   0  0  0  0  0  3  0  0  0  0  0  0
  190.1280  176.7610  136.5510 C   0  0  0  0  0  0  0  0  0  0  0  0
  189.3560  178.0160  138.8940 C   0  0  0  0  0  0  0  0  0  0  0  0
  190.1020  176.8710  138.9420 C   0  0  0  0  0  0  0  0  0  0  0  0
  190.3180  176.5610  140.2640 C   0  0  0  0  0  3  0  0  0  0  0  0
  186.0700  178.4130  147.4710 C   0  0  0  0  0  3  0  0  0  0  0  0
  187.2360  178.0980  146.7680 C   0  0  0  0  0  3  0  0  0  0  0  0
  184.8570  178.5410  146.7890 C   0  0  0  0  0  3  0  0  0  0  0  0
  184.8100  178.3530  145.4050 C   0  0  0  0  0  3  0  0  0  0  0  0
  187.1990  177.9090  145.3780 C   0  0  0  0  0  0  0  0  0  0  0  0
  185.9770  178.0380  144.7020 C   0  0  0  0  0  3  0  0  0  0  0  0
  1 12  1  1  0  0  0
  1 10  1  0  0  0  0
  2  5  1  0  0  0  0
  3 11  1  0  0  0  0
  5  8  1  0  0  0  0
  6  4  2  0  0  0  0
  7  5  2  0  0  0  0
  7  1  1  0  0  0  0
  8  3  2  0  0  0  0
  8 27  1  0  0  0  0
  9  6  1  0  0  0  0
 10  3  1  0  0  0  0
 10  9  1  0  0  0  0
 11  6  1  0  0  0  0
 13 20  1  0  0  0  0
 14 19  1  0  0  0  0
 15 21  1  0  0  0  0
 16  7  1  0  0  0  0
 17 16  1  0  0  0  0
 18 19  1  0  0  0  0
 18 13  2  0  0  0  0
 19 15  2  0  0  0  0
 20 21  1  0  0  0  0
 20 17  2  0  0  0  0
 21 22  2  0  0  0  0
 22 16  1  0  0  0  0
 24 23  2  0  0  0  0
 25 23  1  0  0  0  0
 26 25  2  0  0  0  0
 27 24  1  0  0  0  0
 28 27  2  0  0  0  0
 28 26  1  0  0  0  0
M  END
>  <MODEL>
1

>  <REMARK>
 VINA RESULT:     -10.7      0.000      0.000
  Name = 
  2 active torsions:
  status: ('A' for Active; 'I' for Inactive)
    1  A    between atoms: N_8  and  C_16
    2  A    between atoms: C_18  and  C_25
                            x       y       z     vdW  Elec       q    Type
                         _______ _______ _______ _____ _____    ______ ____

>  <TORSDO>
F 2

$$$$
=
 OpenBabel10232410033D

 28 32  0  0  1  0  0  0  0  0999 V2000
  187.7350  178.2580  141.4210 C   0  0  2  0  0  3  0  0  0  0  0  0
  186.9390  177.4480  145.1380 C   0  0  0  0  0  1  0  0  0  0  0  0
  189.7400  177.3010  142.6050 C   0  0  0  0  0  0  0  0  0  0  0  0
  192.2020  177.1590  140.1070 O   0  0  0  0  0  0  0  0  0  0  0  0
  187.6590  177.6090  143.8340 C   0  0  0  0  0  0  0  0  0  0  0  0
  191.1830  177.2600  140.8370 C   0  0  0  0  0  0  0  0  0  0  0  0
  186.9810  177.9620  142.7040 C   0  0  0  0  0  0  0  0  0  0  0  0
  189.1340  177.3390  143.8000 C   0  0  0  0  0  0  0  0  0  0  0  0
  189.8990  177.5960  140.3260 N   0  0  0  0  0  2  0  0  0  0  0  0
  189.0270  177.5880  141.4140 N   0  0  0  0  0  0  0  0  0  0  0  0
  191.1900  177.0570  142.3190 C   0  0  0  0  0  2  0  0  0  0  0  0
  187.9310  179.6930  141.2930 N   0  0  0  0  0  1  0  0  0  0  0  0
  182.2860  178.4950  141.2800 C   0  0  0  0  0  3  0  0  0  0  0  0
  179.9940  179.2670  144.0540 F   0  0  0  0  0  0  0  0  0  0  0  0
  182.3500  178.8720  144.0970 C   0  0  0  0  0  3  0  0  0  0  0  0
  185.5460  178.1260  142.6900 N   0  0  0  0  0  0  0  0  0  0  0  0
  184.7470  178.1240  141.5920 C   0  0  0  0  0  3  0  0  0  0  0  0
  181.1080  178.7920  141.9890 C   0  0  0  0  0  3  0  0  0  0  0  0
  181.1380  178.9800  143.3880 C   0  0  0  0  0  0  0  0  0  0  0  0
  183.4660  178.3910  142.0110 C   0  0  0  0  0  0  0  0  0  0  0  0
  183.4960  178.5720  143.3660 C   0  0  0  0  0  0  0  0  0  0  0  0
  184.7970  178.4170  143.7850 C   0  0  0  0  0  3  0  0  0  0  0  0
  191.8600  176.2230  146.1880 C   0  0  0  0  0  3  0  0  0  0  0  0
  191.1430  176.4490  145.0100 C   0  0  0  0  0  3  0  0  0  0  0  0
  191.3370  176.6430  147.4150 C   0  0  0  0  0  3  0  0  0  0  0  0
  190.0980  177.2880  147.4620 C   0  0  0  0  0  3  0  0  0  0  0  0
  189.8980  177.0970  145.0470 C   0  0  0  0  0  0  0  0  0  0  0  0
  189.3820  177.5140  146.2830 C   0  0  0  0  0  3  0  0  0  0  0  0
  1 12  1  1  0  0  0
  1  7  1  0  0  0  0
  3  8  2  0  0  0  0
  4  6  2  0  0  0  0
  5  2  1  0  0  0  0
  6 11  1  0  0  0  0
  7  5  2  0  0  0  0
  8  5  1  0  0  0  0
  8 27  1  0  0  0  0
  9  6  1  0  0  0  0
  9 10  1  0  0  0  0
 10  1  1  0  0  0  0
 10  3  1  0  0  0  0
 11  3  1  0  0  0  0
 13 18  2  0  0  0  0
 13 20  1  0  0  0  0
 16  7  1  0  0  0  0
 16 22  1  0  0  0  0
 17 20  2  0  0  0  0
 17 16  1  0  0  0  0
 18 19  1  0  0  0  0
 19 14  1  0  0  0  0
 19 15  2  0  0  0  0
 20 21  1  0  0  0  0
 21 22  2  0  0  0  0
 21 15  1  0  0  0  0
 23 25  1  0  0  0  0
 24 27  1  0  0  0  0
 24 23  2  0  0  0  0
 25 26  2  0  0  0  0
 27 28  2  0  0  0  0
 28 26  1  0  0  0  0
M  END
>  <MODEL>
2

>  <REMARK>
 VINA RESULT:     -10.1      3.869      6.487
  Name = 
  2 active torsions:
  status: ('A' for Active; 'I' for Inactive)
    1  A    between atoms: N_8  and  C_16
    2  A    between atoms: C_18  and  C_25
                            x       y       z     vdW  Elec       q    Type
                         _______ _______ _______ _____ _____    ______ ____

>  <TORSDO>
F 2

$$$$
=
 OpenBabel10232410033D

 28 32  0  0  1  0  0  0  0  0999 V2000
  189.9590  177.5390  144.4070 C   0  0  2  0  0  3  0  0  0  0  0  0
  187.3130  177.8460  141.5770 C   0  0  0  0  0  1  0  0  0  0  0  0
  187.6210  177.6130  145.3360 C   0  0  0  0  0  0  0  0  0  0  0  0
  188.0840  177.3050  148.8030 O   0  0  0  0  0  0  0  0  0  0  0  0
  187.9550  177.7460  142.9270 C   0  0  0  0  0  0  0  0  0  0  0  0
  188.1330  177.3680  147.5470 C   0  0  0  0  0  0  0  0  0  0  0  0
  189.2920  177.5010  143.0440 C   0  0  0  0  0  0  0  0  0  0  0  0
  187.0830  177.8870  144.1390 C   0  0  0  0  0  0  0  0  0  0  0  0
  189.3300  177.1540  146.8110 N   0  0  0  0  0  2  0  0  0  0  0  0
  188.9930  177.2790  145.4640 N   0  0  0  0  0  0  0  0  0  0  0  0
  186.9580  177.6870  146.6780 C   0  0  0  0  0  2  0  0  0  0  0  0
  190.5670  178.8430  144.6150 N   0  0  0  0  0  1  0  0  0  0  0  0
  193.1030  177.3160  139.9150 C   0  0  0  0  0  3  0  0  0  0  0  0
  192.1830  176.1240  136.5570 F   0  0  0  0  0  0  0  0  0  0  0  0
  190.8160  176.4060  138.4950 C   0  0  0  0  0  3  0  0  0  0  0  0
  190.1320  177.2590  141.8950 N   0  0  0  0  0  0  0  0  0  0  0  0
  191.4600  177.5280  141.7980 C   0  0  0  0  0  3  0  0  0  0  0  0
  193.2040  176.9360  138.5640 C   0  0  0  0  0  3  0  0  0  0  0  0
  192.0680  176.4840  137.8570 C   0  0  0  0  0  0  0  0  0  0  0  0
  191.8520  177.2230  140.5170 C   0  0  0  0  0  0  0  0  0  0  0  0
  190.7510  176.7840  139.8330 C   0  0  0  0  0  0  0  0  0  0  0  0
  189.6780  176.8190  140.6930 C   0  0  0  0  0  3  0  0  0  0  0  0
  183.6700  178.6420  142.6710 C   0  0  0  0  0  3  0  0  0  0  0  0
  185.0090  178.2560  142.7770 C   0  0  0  0  0  3  0  0  0  0  0  0
  182.9740  179.0700  143.8040 C   0  0  0  0  0  3  0  0  0  0  0  0
  183.6170  179.1130  145.0440 C   0  0  0  0  0  3  0  0  0  0  0  0
  185.6630  178.2950  144.0190 C   0  0  0  0  0  0  0  0  0  0  0  0
  184.9560  178.7260  145.1510 C   0  0  0  0  0  3  0  0  0  0  0  0
  1 12  1  1  0  0  0
  1 10  1  0  0  0  0
  2  5  1  0  0  0  0
  3 10  1  0  0  0  0
  3 11  1  0  0  0  0
  5  7  2  0  0  0  0
  5  8  1  0  0  0  0
  6  4  2  0  0  0  0
  7  1  1  0  0  0  0
  8  3  2  0  0  0  0
  9  6  1  0  0  0  0
 10  9  1  0  0  0  0
 11  6  1  0  0  0  0
 13 20  1  0  0  0  0
 14 19  1  0  0  0  0
 15 21  1  0  0  0  0
 16  7  1  0  0  0  0
 17 16  1  0  0  0  0
 18 13  2  0  0  0  0
 19 15  2  0  0  0  0
 19 18  1  0  0  0  0
 20 17  2  0  0  0  0
 21 20  1  0  0  0  0
 21 22  2  0  0  0  0
 22 16  1  0  0  0  0
 23 24  2  0  0  0  0
 23 25  1  0  0  0  0
 24 27  1  0  0  0  0
 25 26  2  0  0  0  0
 26 28  1  0  0  0  0
 27  8  1  0  0  0  0
 27 28  2  0  0  0  0
M  END
>  <MODEL>
3

>  <REMARK>
 VINA RESULT:     -10.1      1.803      2.711
  Name = 
  2 active torsions:
  status: ('A' for Active; 'I' for Inactive)
    1  A    between atoms: N_8  and  C_16
    2  A    between atoms: C_18  and  C_25
                            x       y       z     vdW  Elec       q    Type
                         _______ _______ _______ _____ _____    ______ ____

>  <TORSDO>
F 2

$$$$
=
 OpenBabel10232410033D

 28 32  0  0  1  0  0  0  0  0999 V2000
  187.7260  178.3890  140.7700 C   0  0  2  0  0  3  0  0  0  0  0  0
  190.7580  176.1950  141.8160 C   0  0  0  0  0  1  0  0  0  0  0  0
  188.8330  177.3330  138.7700 C   0  0  0  0  0  0  0  0  0  0  0  0
  186.8830  178.4210  136.0600 O   0  0  0  0  0  0  0  0  0  0  0  0
  189.7270  176.9080  140.9960 C   0  0  0  0  0  0  0  0  0  0  0  0
  187.4230  178.1190  137.1560 C   0  0  0  0  0  0  0  0  0  0  0  0
  188.6870  177.5550  141.5970 C   0  0  0  0  0  0  0  0  0  0  0  0
  189.8500  176.8580  139.5020 C   0  0  0  0  0  0  0  0  0  0  0  0
  186.8500  178.4500  138.4140 N   0  0  0  0  0  2  0  0  0  0  0  0
  187.7080  177.9380  139.3860 N   0  0  0  0  0  0  0  0  0  0  0  0
  188.7280  177.3970  137.2770 C   0  0  0  0  0  2  0  0  0  0  0  0
  188.1260  179.7850  140.8200 N   0  0  0  0  0  1  0  0  0  0  0  0
  186.6740  177.4450  146.1020 C   0  0  0  0  0  3  0  0  0  0  0  0
  189.1170  177.9440  148.8080 F   0  0  0  0  0  0  0  0  0  0  0  0
  189.4640  177.8640  146.4460 C   0  0  0  0  0  3  0  0  0  0  0  0
  188.4890  177.5280  143.0270 N   0  0  0  0  0  0  0  0  0  0  0  0
  187.3000  177.4060  143.6730 C   0  0  0  0  0  3  0  0  0  0  0  0
  187.2220  177.5930  147.3890 C   0  0  0  0  0  3  0  0  0  0  0  0
  188.6080  177.8010  147.5620 C   0  0  0  0  0  0  0  0  0  0  0  0
  187.5490  177.5070  145.0210 C   0  0  0  0  0  0  0  0  0  0  0  0
  188.8920  177.7080  145.1870 C   0  0  0  0  0  0  0  0  0  0  0  0
  189.4730  177.7320  143.9410 C   0  0  0  0  0  3  0  0  0  0  0  0
  193.4150  176.3960  138.2970 C   0  0  0  0  0  3  0  0  0  0  0  0
  192.2870  176.9440  138.9140 C   0  0  0  0  0  3  0  0  0  0  0  0
  193.3170  175.1830  137.6110 C   0  0  0  0  0  3  0  0  0  0  0  0
  192.0890  174.5180  137.5410 C   0  0  0  0  0  3  0  0  0  0  0  0
  191.0510  176.2820  138.8500 C   0  0  0  0  0  0  0  0  0  0  0  0
  190.9610  175.0660  138.1580 C   0  0  0  0  0  3  0  0  0  0  0  0
  1 12  1  6  0  0  0
  1  7  1  0  0  0  0
  3 10  1  0  0  0  0
  3  8  2  0  0  0  0
  4  6  2  0  0  0  0
  5  7  2  0  0  0  0
  5  2  1  0  0  0  0
  6 11  1  0  0  0  0
  6  9  1  0  0  0  0
  7 16  1  0  0  0  0
  8  5  1  0  0  0  0
  9 10  1  0  0  0  0
 10  1  1  0  0  0  0
 11  3  1  0  0  0  0
 13 18  2  0  0  0  0
 15 19  2  0  0  0  0
 16 17  1  0  0  0  0
 16 22  1  0  0  0  0
 17 20  2  0  0  0  0
 18 19  1  0  0  0  0
 19 14  1  0  0  0  0
 20 21  1  0  0  0  0
 20 13  1  0  0  0  0
 21 15  1  0  0  0  0
 22 21  2  0  0  0  0
 23 24  1  0  0  0  0
 25 23  2  0  0  0  0
 26 25  1  0  0  0  0
 26 28  2  0  0  0  0
 27 24  2  0  0  0  0
 27  8  1  0  0  0  0
 28 27  1  0  0  0  0
M  END
>  <MODEL>
4

>  <REMARK>
 VINA RESULT:     -10.0      3.967      8.421
  Name = 
  2 active torsions:
  status: ('A' for Active; 'I' for Inactive)
    1  A    between atoms: N_8  and  C_16
    2  A    between atoms: C_18  and  C_25
                            x       y       z     vdW  Elec       q    Type
                         _______ _______ _______ _____ _____    ______ ____

>  <TORSDO>
F 2

$$$$
=
 OpenBabel10232410033D

 28 32  0  0  1  0  0  0  0  0999 V2000
  190.5130  176.9370  142.0830 C   0  0  2  0  0  3  0  0  0  0  0  0
  187.0220  178.0630  140.7980 C   0  0  0  0  0  1  0  0  0  0  0  0
  190.5310  177.3360  139.5980 C   0  0  0  0  0  0  0  0  0  0  0  0
  193.8570  176.7010  138.6690 O   0  0  0  0  0  0  0  0  0  0  0  0
  188.4650  177.6630  140.8470 C   0  0  0  0  0  0  0  0  0  0  0  0
  192.7400  176.9130  139.2090 C   0  0  0  0  0  0  0  0  0  0  0  0
  189.0950  177.4750  142.0430 C   0  0  0  0  0  0  0  0  0  0  0  0
  189.2030  177.5100  139.5500 C   0  0  0  0  0  0  0  0  0  0  0  0
  192.5560  176.9310  140.6180 N   0  0  0  0  0  2  0  0  0  0  0  0
  191.2100  177.2190  140.8370 N   0  0  0  0  0  0  0  0  0  0  0  0
  191.4750  177.1560  138.4480 C   0  0  0  0  0  2  0  0  0  0  0  0
  190.4820  175.5000  142.3070 N   0  0  0  0  0  1  0  0  0  0  0  0
  188.1130  178.0390  146.8460 C   0  0  0  0  0  3  0  0  0  0  0  0
  184.5250  178.4130  147.5720 F   0  0  0  0  0  0  0  0  0  0  0  0
  185.6280  178.1390  145.4710 C   0  0  0  0  0  3  0  0  0  0  0  0
  188.4350  177.7170  143.3040 N   0  0  0  0  0  0  0  0  0  0  0  0
  189.0260  177.7570  144.5260 C   0  0  0  0  0  3  0  0  0  0  0  0
  186.9090  178.2050  147.5550 C   0  0  0  0  0  3  0  0  0  0  0  0
  185.6740  178.2550  146.8730 C   0  0  0  0  0  0  0  0  0  0  0  0
  188.0330  177.9320  145.4610 C   0  0  0  0  0  0  0  0  0  0  0  0
  186.8370  177.9800  144.7990 C   0  0  0  0  0  0  0  0  0  0  0  0
  187.0900  177.8350  143.4550 C   0  0  0  0  0  3  0  0  0  0  0  0
  187.7310  178.8310  136.3150 C   0  0  0  0  0  3  0  0  0  0  0  0
  188.4030  178.7790  137.5390 C   0  0  0  0  0  3  0  0  0  0  0  0
  187.1410  177.6770  135.7930 C   0  0  0  0  0  3  0  0  0  0  0  0
  187.2220  176.4720  136.4950 C   0  0  0  0  0  3  0  0  0  0  0  0
  188.4910  177.5720  138.2510 C   0  0  0  0  0  0  0  0  0  0  0  0
  187.8950  176.4190  137.7190 C   0  0  0  0  0  3  0  0  0  0  0  0
  1 12  1  6  0  0  0
  2  5  1  0  0  0  0
  3 10  1  0  0  0  0
  4  6  2  0  0  0  0
  5  7  2  0  0  0  0
  6  9  1  0  0  0  0
  7  1  1  0  0  0  0
  7 16  1  0  0  0  0
  8  3  2  0  0  0  0
  8  5  1  0  0  0  0
  9 10  1  0  0  0  0
 10  1  1  0  0  0  0
 11  6  1  0  0  0  0
 11  3  1  0  0  0  0
 13 18  2  0  0  0  0
 15 19  2  0  0  0  0
 16 22  1  0  0  0  0
 16 17  1  0  0  0  0
 17 20  2  0  0  0  0
 19 18  1  0  0  0  0
 19 14  1  0  0  0  0
 20 13  1  0  0  0  0
 21 20  1  0  0  0  0
 21 15  1  0  0  0  0
 22 21  2  0  0  0  0
 23 24  1  0  0  0  0
 24 27  2  0  0  0  0
 25 23  2  0  0  0  0
 25 26  1  0  0  0  0
 26 28  2  0  0  0  0
 27  8  1  0  0  0  0
 28 27  1  0  0  0  0
M  END
>  <MODEL>
5

>  <REMARK>
 VINA RESULT:      -9.9      3.519      7.638
  Name = 
  2 active torsions:
  status: ('A' for Active; 'I' for Inactive)
    1  A    between atoms: N_8  and  C_16
    2  A    between atoms: C_18  and  C_25
                            x       y       z     vdW  Elec       q    Type
                         _______ _______ _______ _____ _____    ______ ____

>  <TORSDO>
F 2

$$$$
=
 OpenBabel10232410033D

 28 32  0  0  1  0  0  0  0  0999 V2000
  190.0680  177.1870  142.2770 C   0  0  2  0  0  3  0  0  0  0  0  0
  187.0360  177.9400  139.9660 C   0  0  0  0  0  1  0  0  0  0  0  0
  190.7730  177.3850  139.8690 C   0  0  0  0  0  0  0  0  0  0  0  0
  194.2520  176.9280  139.9710 O   0  0  0  0  0  0  0  0  0  0  0  0
  188.4240  177.6550  140.4540 C   0  0  0  0  0  0  0  0  0  0  0  0
  193.0190  177.0990  140.1540 C   0  0  0  0  0  0  0  0  0  0  0  0
  188.6950  177.6120  141.7900 C   0  0  0  0  0  0  0  0  0  0  0  0
  189.5060  177.4540  139.4360 C   0  0  0  0  0  0  0  0  0  0  0  0
  192.4420  177.2170  141.4480 N   0  0  0  0  0  2  0  0  0  0  0  0
  191.0760  177.4190  141.2530 N   0  0  0  0  0  0  0  0  0  0  0  0
  192.0120  177.1840  139.0510 C   0  0  0  0  0  2  0  0  0  0  0  0
  190.0460  175.7750  142.6250 N   0  0  0  0  0  1  0  0  0  0  0  0
  186.2140  178.0280  146.0360 C   0  0  0  0  0  3  0  0  0  0  0  0
  182.7420  179.1630  145.5960 F   0  0  0  0  0  0  0  0  0  0  0  0
  184.4390  178.8000  143.9550 C   0  0  0  0  0  3  0  0  0  0  0  0
  187.6930  177.9050  142.7870 N   0  0  0  0  0  0  0  0  0  0  0  0
  187.8120  177.7160  144.1270 C   0  0  0  0  0  3  0  0  0  0  0  0
  184.8930  178.4130  146.3280 C   0  0  0  0  0  3  0  0  0  0  0  0
  184.0100  178.7970  145.2960 C   0  0  0  0  0  0  0  0  0  0  0  0
  186.6070  178.0450  144.7000 C   0  0  0  0  0  0  0  0  0  0  0  0
  185.7530  178.4170  143.6990 C   0  0  0  0  0  0  0  0  0  0  0  0
  186.4300  178.3180  142.5070 C   0  0  0  0  0  3  0  0  0  0  0  0
  188.8040  178.4140  135.8360 C   0  0  0  0  0  3  0  0  0  0  0  0
  189.1010  178.5120  137.1970 C   0  0  0  0  0  3  0  0  0  0  0  0
  188.5930  177.1600  135.2550 C   0  0  0  0  0  3  0  0  0  0  0  0
  188.6790  176.0050  136.0370 C   0  0  0  0  0  3  0  0  0  0  0  0
  189.1910  177.3560  137.9900 C   0  0  0  0  0  0  0  0  0  0  0  0
  188.9770  176.1030  137.3990 C   0  0  0  0  0  3  0  0  0  0  0  0
  1 12  1  6  0  0  0
  2  5  1  0  0  0  0
  3 10  1  0  0  0  0
  4  6  2  0  0  0  0
  5  7  2  0  0  0  0
  6  9  1  0  0  0  0
  7  1  1  0  0  0  0
  7 16  1  0  0  0  0
  8  3  2  0  0  0  0
  8  5  1  0  0  0  0
 10  9  1  0  0  0  0
 10  1  1  0  0  0  0
 11  3  1  0  0  0  0
 11  6  1  0  0  0  0
 13 18  2  0  0  0  0
 15 19  2  0  0  0  0
 16 17  1  0  0  0  0
 17 20  2  0  0  0  0
 19 14  1  0  0  0  0
 19 18  1  0  0  0  0
 20 13  1  0  0  0  0
 21 15  1  0  0  0  0
 21 20  1  0  0  0  0
 22 16  1  0  0  0  0
 22 21  2  0  0  0  0
 23 24  1  0  0  0  0
 24 27  2  0  0  0  0
 25 23  2  0  0  0  0
 25 26  1  0  0  0  0
 26 28  2  0  0  0  0
 27  8  1  0  0  0  0
 28 27  1  0  0  0  0
M  END
>  <MODEL>
6

>  <REMARK>
 VINA RESULT:      -9.9      3.388      7.594
  Name = 
  2 active torsions:
  status: ('A' for Active; 'I' for Inactive)
    1  A    between atoms: N_8  and  C_16
    2  A    between atoms: C_18  and  C_25
                            x       y       z     vdW  Elec       q    Type
                         _______ _______ _______ _____ _____    ______ ____

>  <TORSDO>
F 2

$$$$
=
 OpenBabel10232410033D

 28 32  0  0  1  0  0  0  0  0999 V2000
  187.9700  177.6030  141.8610 C   0  0  2  0  0  3  0  0  0  0  0  0
  185.5710  178.5470  144.7690 C   0  0  0  0  0  1  0  0  0  0  0  0
  188.9270  176.9460  144.0950 C   0  0  0  0  0  0  0  0  0  0  0  0
  191.9800  175.4140  143.2840 O   0  0  0  0  0  0  0  0  0  0  0  0
  186.7530  178.0410  144.0000 C   0  0  0  0  0  0  0  0  0  0  0  0
  190.8480  175.9590  143.3580 C   0  0  0  0  0  0  0  0  0  0  0  0
  186.7230  177.9840  142.6370 C   0  0  0  0  0  0  0  0  0  0  0  0
  187.9500  177.5680  144.7700 C   0  0  0  0  0  0  0  0  0  0  0  0
  190.0500  176.2350  142.2140 N   0  0  0  0  0  2  0  0  0  0  0  0
  188.8710  176.8100  142.6850 N   0  0  0  0  0  0  0  0  0  0  0  0
  190.2110  176.3960  144.6380 C   0  0  0  0  0  2  0  0  0  0  0  0
  188.6540  178.8070  141.4160 N   0  0  0  0  0  1  0  0  0  0  0  0
  182.0770  178.4230  141.0340 C   0  0  0  0  0  3  0  0  0  0  0  0
  181.8130  180.0360  137.7370 F   0  0  0  0  0  0  0  0  0  0  0  0
  183.7550  179.5680  139.0460 C   0  0  0  0  0  3  0  0  0  0  0  0
  185.5450  178.3360  141.8800 N   0  0  0  0  0  0  0  0  0  0  0  0
  184.2610  178.0390  142.2070 C   0  0  0  0  0  3  0  0  0  0  0  0
  181.5270  178.9580  139.8550 C   0  0  0  0  0  3  0  0  0  0  0  0
  182.3600  179.5270  138.8660 C   0  0  0  0  0  0  0  0  0  0  0  0
  183.4600  178.4830  141.1820 C   0  0  0  0  0  0  0  0  0  0  0  0
  184.2670  179.0340  140.2260 C   0  0  0  0  0  0  0  0  0  0  0  0
  185.5680  178.9300  140.6600 C   0  0  0  0  0  3  0  0  0  0  0  0
  186.9790  178.0340  148.4050 C   0  0  0  0  0  3  0  0  0  0  0  0
  186.8840  177.8520  147.0230 C   0  0  0  0  0  3  0  0  0  0  0  0
  188.2340  178.1270  149.0140 C   0  0  0  0  0  3  0  0  0  0  0  0
  189.3930  178.0380  148.2390 C   0  0  0  0  0  3  0  0  0  0  0  0
  188.0440  177.7610  146.2370 C   0  0  0  0  0  0  0  0  0  0  0  0
  189.2990  177.8550  146.8560 C   0  0  0  0  0  3  0  0  0  0  0  0
  1 12  1  1  0  0  0
  1  7  1  0  0  0  0
  1 10  1  0  0  0  0
  3 11  1  0  0  0  0
  3  8  2  0  0  0  0
  4  6  2  0  0  0  0
  5  2  1  0  0  0  0
  5  8  1  0  0  0  0
  6 11  1  0  0  0  0
  7  5  2  0  0  0  0
  8 27  1  0  0  0  0
  9 10  1  0  0  0  0
  9  6  1  0  0  0  0
 10  3  1  0  0  0  0
 13 20  1  0  0  0  0
 14 19  1  0  0  0  0
 15 21  1  0  0  0  0
 16 17  1  0  0  0  0
 16  7  1  0  0  0  0
 18 13  2  0  0  0  0
 19 15  2  0  0  0  0
 19 18  1  0  0  0  0
 20 17  2  0  0  0  0
 21 22  2  0  0  0  0
 21 20  1  0  0  0  0
 22 16  1  0  0  0  0
 23 25  1  0  0  0  0
 24 23  2  0  0  0  0
 26 25  2  0  0  0  0
 27 28  2  0  0  0  0
 27 24  1  0  0  0  0
 28 26  1  0  0  0  0
M  END
>  <MODEL>
7

>  <REMARK>
 VINA RESULT:      -9.6      3.503      4.948
  Name = 
  2 active torsions:
  status: ('A' for Active; 'I' for Inactive)
    1  A    between atoms: N_8  and  C_16
    2  A    between atoms: C_18  and  C_25
                            x       y       z     vdW  Elec       q    Type
                         _______ _______ _______ _____ _____    ______ ____

>  <TORSDO>
F 2

$$$$
=
 OpenBabel10232410033D

 28 32  0  0  1  0  0  0  0  0999 V2000
  185.5060  178.1860  145.9660 C   0  0  2  0  0  3  0  0  0  0  0  0
  186.8430  178.0090  142.3210 C   0  0  0  0  0  1  0  0  0  0  0  0
  188.0200  178.0760  145.9120 C   0  0  0  0  0  0  0  0  0  0  0  0
  188.9410  178.2310  149.2970 O   0  0  0  0  0  0  0  0  0  0  0  0
  186.7760  178.0480  143.8180 C   0  0  0  0  0  0  0  0  0  0  0  0
  188.4090  178.2230  148.1560 C   0  0  0  0  0  0  0  0  0  0  0  0
  185.5930  178.2850  144.4550 C   0  0  0  0  0  0  0  0  0  0  0  0
  188.0470  177.8560  144.5900 C   0  0  0  0  0  0  0  0  0  0  0  0
  187.0230  178.4660  147.9520 N   0  0  0  0  0  2  0  0  0  0  0  0
  186.8100  178.4010  146.5750 N   0  0  0  0  0  0  0  0  0  0  0  0
  189.1500  177.9450  146.8870 C   0  0  0  0  0  2  0  0  0  0  0  0
  185.0060  176.8730  146.3400 N   0  0  0  0  0  1  0  0  0  0  0  0
  180.9470  179.4580  143.2750 C   0  0  0  0  0  3  0  0  0  0  0  0
  180.1850  179.0030  139.7040 F   0  0  0  0  0  0  0  0  0  0  0  0
  182.2340  178.6410  140.8760 C   0  0  0  0  0  3  0  0  0  0  0  0
  184.3770  178.5760  143.7320 N   0  0  0  0  0  0  0  0  0  0  0  0
  183.2030  178.9980  144.2700 C   0  0  0  0  0  3  0  0  0  0  0  0
  180.2420  179.4310  142.0580 C   0  0  0  0  0  3  0  0  0  0  0  0
  180.8800  179.0250  140.8650 C   0  0  0  0  0  0  0  0  0  0  0  0
  182.2850  179.0760  143.2500 C   0  0  0  0  0  0  0  0  0  0  0  0
  182.9050  178.6830  142.0960 C   0  0  0  0  0  0  0  0  0  0  0  0
  184.2060  178.3620  142.4020 C   0  0  0  0  0  3  0  0  0  0  0  0
  190.7030  175.7530  142.8870 C   0  0  0  0  0  3  0  0  0  0  0  0
  189.5170  176.1240  143.5260 C   0  0  0  0  0  3  0  0  0  0  0  0
  191.6880  176.7120  142.6310 C   0  0  0  0  0  3  0  0  0  0  0  0
  191.4850  178.0400  143.0130 C   0  0  0  0  0  3  0  0  0  0  0  0
  189.3040  177.4570  143.9120 C   0  0  0  0  0  0  0  0  0  0  0  0
  190.2980  178.4110  143.6510 C   0  0  0  0  0  3  0  0  0  0  0  0
  1 12  1  6  0  0  0
  1 10  1  0  0  0  0
  2  5  1  0  0  0  0
  3 10  1  0  0  0  0
  3 11  1  0  0  0  0
  5  7  2  0  0  0  0
  5  8  1  0  0  0  0
  6  4  2  0  0  0  0
  7  1  1  0  0  0  0
  8  3  2  0  0  0  0
  9  6  1  0  0  0  0
 10  9  1  0  0  0  0
 11  6  1  0  0  0  0
 14 19  1  0  0  0  0
 15 21  1  0  0  0  0
 16 17  1  0  0  0  0
 16  7  1  0  0  0  0
 18 13  2  0  0  0  0
 19 15  2  0  0  0  0
 19 18  1  0  0  0  0
 20 13  1  0  0  0  0
 20 17  2  0  0  0  0
 21 22  2  0  0  0  0
 21 20  1  0  0  0  0
 22 16  1  0  0  0  0
 23 24  1  0  0  0  0
 24 27  2  0  0  0  0
 25 23  2  0  0  0  0
 25 26  1  0  0  0  0
 26 28  2  0  0  0  0
 27  8  1  0  0  0  0
 28 27  1  0  0  0  0
M  END
>  <MODEL>
8

>  <REMARK>
 VINA RESULT:      -9.5      4.112      6.619
  Name = 
  2 active torsions:
  status: ('A' for Active; 'I' for Inactive)
    1  A    between atoms: N_8  and  C_16
    2  A    between atoms: C_18  and  C_25
                            x       y       z     vdW  Elec       q    Type
                         _______ _______ _______ _____ _____    ______ ____

>  <TORSDO>
F 2

$$$$
=
 OpenBabel10232410033D

 28 32  0  0  1  0  0  0  0  0999 V2000
  185.7390  178.7510  142.1760 C   0  0  2  0  0  3  0  0  0  0  0  0
  189.1640  177.3130  141.0360 C   0  0  0  0  0  1  0  0  0  0  0  0
  185.7820  178.3310  139.6940 C   0  0  0  0  0  0  0  0  0  0  0  0
  182.5620  179.2450  138.6310 O   0  0  0  0  0  0  0  0  0  0  0  0
  187.7610  177.8380  141.0250 C   0  0  0  0  0  0  0  0  0  0  0  0
  183.6350  178.9410  139.2150 C   0  0  0  0  0  0  0  0  0  0  0  0
  187.1050  178.0910  142.1940 C   0  0  0  0  0  0  0  0  0  0  0  0
  187.0910  178.0420  139.7000 C   0  0  0  0  0  0  0  0  0  0  0  0
  183.7620  178.9210  140.6310 N   0  0  0  0  0  2  0  0  0  0  0  0
  185.0680  178.5190  140.9050 N   0  0  0  0  0  0  0  0  0  0  0  0
  184.9020  178.5820  138.5070 C   0  0  0  0  0  2  0  0  0  0  0  0
  185.8860  180.1810  142.3920 N   0  0  0  0  0  1  0  0  0  0  0  0
  187.8040  177.3280  147.0200 C   0  0  0  0  0  3  0  0  0  0  0  0
  191.3470  176.9880  147.9490 F   0  0  0  0  0  0  0  0  0  0  0  0
  190.3700  177.3380  145.7980 C   0  0  0  0  0  3  0  0  0  0  0  0
  187.6920  177.8050  143.4820 N   0  0  0  0  0  0  0  0  0  0  0  0
  187.0280  177.6980  144.6620 C   0  0  0  0  0  3  0  0  0  0  0  0
  188.9650  177.1520  147.7930 C   0  0  0  0  0  3  0  0  0  0  0  0
  190.2410  177.1570  147.1880 C   0  0  0  0  0  0  0  0  0  0  0  0
  187.9660  177.5000  145.6480 C   0  0  0  0  0  0  0  0  0  0  0  0
  189.2010  177.5040  145.0600 C   0  0  0  0  0  0  0  0  0  0  0  0
  189.0260  177.7050  143.7110 C   0  0  0  0  0  3  0  0  0  0  0  0
  189.2800  178.8550  136.7130 C   0  0  0  0  0  3  0  0  0  0  0  0
  188.5730  178.9890  137.9110 C   0  0  0  0  0  3  0  0  0  0  0  0
  189.2650  177.6400  136.0240 C   0  0  0  0  0  3  0  0  0  0  0  0
  188.5410  176.5580  136.5320 C   0  0  0  0  0  3  0  0  0  0  0  0
  187.8440  177.9060  138.4300 C   0  0  0  0  0  0  0  0  0  0  0  0
  187.8330  176.6910  137.7310 C   0  0  0  0  0  3  0  0  0  0  0  0
  1  7  1  0  0  0  0
  1 12  1  6  0  0  0
  3  8  2  0  0  0  0
  3 10  1  0  0  0  0
  4  6  2  0  0  0  0
  5  2  1  0  0  0  0
  5  7  2  0  0  0  0
  6  9  1  0  0  0  0
  7 16  1  0  0  0  0
  8  5  1  0  0  0  0
  9 10  1  0  0  0  0
 10  1  1  0  0  0  0
 11  6  1  0  0  0  0
 11  3  1  0  0  0  0
 13 18  2  0  0  0  0
 15 19  2  0  0  0  0
 16 22  1  0  0  0  0
 16 17  1  0  0  0  0
 17 20  2  0  0  0  0
 19 18  1  0  0  0  0
 19 14  1  0  0  0  0
 20 13  1  0  0  0  0
 21 20  1  0  0  0  0
 21 15  1  0  0  0  0
 22 21  2  0  0  0  0
 23 24  1  0  0  0  0
 24 27  2  0  0  0  0
 25 26  1  0  0  0  0
 25 23  2  0  0  0  0
 26 28  2  0  0  0  0
 27  8  1  0  0  0  0
 28 27  1  0  0  0  0
M  END
>  <MODEL>
9

>  <REMARK>
 VINA RESULT:      -9.4      4.272      8.288
  Name = 
  2 active torsions:
  status: ('A' for Active; 'I' for Inactive)
    1  A    between atoms: N_8  and  C_16
    2  A    between atoms: C_18  and  C_25
                            x       y       z     vdW  Elec       q    Type
                         _______ _______ _______ _____ _____    ______ ____

>  <TORSDO>
F 2

$$$$
