=
 OpenBabel10232408153D

 57 62  0  0  1  0  0  0  0  0999 V2000
  189.6950  177.1860  140.8490 C   0  0  1  0  0  3  0  0  0  0  0  0
  190.0830  177.5270  142.3000 C   0  0  1  0  0  3  0  0  0  0  0  0
  190.9850  176.4710  144.3860 C   0  0  0  0  0  0  0  0  0  0  0  0
  189.0350  176.9920  143.2790 C   0  0  1  0  0  3  0  0  0  0  0  0
  191.8190  176.1580  145.5020 N   0  0  0  0  0  2  0  0  0  0  0  0
  189.7120  176.6260  144.5100 N   0  0  0  0  0  0  0  0  0  0  0  0
  191.6750  176.7620  142.7740 S   0  0  0  0  0  0  0  0  0  0  0  0
  187.9030  177.9840  143.5350 C   0  0  0  0  0  2  0  0  0  0  0  0
  186.5390  177.3120  143.6370 C   0  0  0  0  0  2  0  0  0  0  0  0
  184.2790  178.7870  146.0980 O   0  0  0  0  0  0  0  0  0  0  0  0
  184.8370  178.5990  144.9840 C   0  0  0  0  0  0  0  0  0  0  0  0
  185.9200  177.6730  144.8990 N   0  0  0  0  0  2  0  0  0  0  0  0
  184.3840  179.3660  143.7800 C   0  0  1  0  0  3  0  0  0  0  0  0
  184.4430  178.5100  142.5060 C   0  0  0  0  0  2  0  0  0  0  0  0
  183.4350  178.9840  141.5610 N   0  0  0  0  0  0  0  0  0  0  0  0
  181.9880  179.0580  143.5930 C   0  0  0  0  0  2  0  0  0  0  0  0
  182.1030  178.6910  142.1020 C   0  0  0  0  0  2  0  0  0  0  0  0
  183.0610  179.9730  144.0010 N   0  0  0  0  0  2  0  0  0  0  0  0
  183.5880  178.2130  140.3350 C   0  0  0  0  0  2  0  0  0  0  0  0
  184.7760  179.8180  139.0320 O   0  0  0  0  0  1  0  0  0  0  0  0
  183.7270  179.1340  139.1730 C   0  0  0  0  0  0  0  0  0  0  0  0
  182.6740  179.2880  138.2840 O   0  0  0  0  0  0  0  0  0  0  0  0
  191.2800  175.8800  146.7650 N   0  0  0  0  0  2  0  0  0  0  0  0
  191.2330  177.1410  147.4930 C   0  0  0  0  0  2  0  0  0  0  0  0
  189.4810  178.4190  148.6860 O   0  0  0  0  0  0  0  0  0  0  0  0
  189.8250  177.4640  147.8600 C   0  0  0  0  0  0  0  0  0  0  0  0
  188.7140  176.7860  147.4070 C   0  0  0  0  0  3  0  0  0  0  0  0
  188.1740  178.4250  148.8070 C   0  0  0  0  0  3  0  0  0  0  0  0
  187.6430  177.4150  148.0200 C   0  0  0  0  0  3  0  0  0  0  0  0
  189.0380  178.3410  140.1330 C   0  0  0  0  0  3  0  0  0  0  0  0
  188.0830  178.1720  139.2190 C   0  0  0  0  0  2  0  0  0  0  0  0
  190.8270  176.5640  140.0150 C   0  0  0  0  0  2  0  0  0  0  0  0
  191.9980  177.4910  139.8300 C   0  0  0  0  0  3  0  0  0  0  0  0
  193.0180  177.2070  139.0110 C   0  0  0  0  0  3  0  0  0  0  0  0
  193.0690  175.9470  138.2050 C   0  0  0  0  0  2  0  0  0  0  0  0
  193.5610  176.2440  136.8050 C   0  0  0  0  0  2  0  0  0  0  0  0
  194.8170  174.1030  137.2010 C   0  0  1  0  0  3  0  0  0  0  0  0
  192.9470  174.1130  135.4560 C   0  0  2  0  0  3  0  0  0  0  0  0
  193.6630  171.9910  136.3360 C   0  0  2  0  0  3  0  0  0  0  0  0
  193.8200  171.2310  135.0180 C   0  0  0  0  0  2  0  0  0  0  0  0
  194.2360  169.7870  135.2760 C   0  0  0  0  0  2  0  0  0  0  0  0
  196.5360  170.3250  136.2860 C   0  0  0  0  0  2  0  0  0  0  0  0
  195.7810  170.4350  137.4640 O   0  0  0  0  0  0  0  0  0  0  0  0
  195.7500  169.5810  135.2020 C   0  0  0  0  0  2  0  0  0  0  0  0
  192.5520  172.9520  136.2550 N   0  0  0  0  0  2  0  0  0  0  0  0
  194.0470  174.9460  136.1650 C   0  0  1  0  0  3  0  0  0  0  0  0
  195.0000  172.6460  136.7390 C   0  0  2  0  0  3  0  0  0  0  0  0
  195.7410  171.8070  137.7920 C   0  0  0  0  0  2  0  0  0  0  0  0
  196.0160  174.7170  137.6430 O   0  0  0  0  0  0  0  0  0  0  0  0
  196.8980  174.8400  136.5520 C   0  0  0  0  0  1  0  0  0  0  0  0
  191.7140  174.9030  135.0410 C   0  0  0  0  0  2  0  0  0  0  0  0
  190.6100  174.6450  135.9580 N   0  0  0  0  0  2  0  0  0  0  0  0
  189.4220  175.2990  135.4120 C   0  0  2  0  0  3  0  0  0  0  0  0
  190.2560  177.1750  136.8650 F   0  0  0  0  0  0  0  0  0  0  0  0
  189.3020  176.6990  135.9780 C   0  0  2  0  0  0  0  0  0  0  0  0
  188.4150  175.6100  136.5240 C   0  0  0  0  0  2  0  0  0  0  0  0
  188.6230  177.6230  135.1810 O   0  0  0  0  0  1  0  0  0  0  0  0
  1 32  1  6  0  0  0
  2  1  1  6  0  0  0
  2  7  1  0  0  0  0
  2  4  1  0  0  0  0
  3  6  2  0  0  0  0
  3  5  1  0  0  0  0
  4  8  1  1  0  0  0
  4  6  1  0  0  0  0
  5 23  1  0  0  0  0
  7  3  1  0  0  0  0
  8  9  1  0  0  0  0
  9 12  1  0  0  0  0
 11 10  2  0  0  0  0
 12 11  1  0  0  0  0
 13 18  1  0  0  0  0
 13 11  1  1  0  0  0
 14 13  1  0  0  0  0
 15 17  1  0  0  0  0
 15 14  1  0  0  0  0
 16 18  1  0  0  0  0
 17 16  1  0  0  0  0
 19 15  1  0  0  0  0
 20 21  1  0  0  0  0
 21 19  1  0  0  0  0
 22 21  2  0  0  0  0
 23 24  1  0  0  0  0
 24 26  1  0  0  0  0
 25 28  1  0  0  0  0
 26 25  1  0  0  0  0
 27 26  2  0  0  0  0
 27 29  1  0  0  0  0
 29 28  2  0  0  0  0
 30  1  1  0  0  0  0
 31 30  2  0  0  0  0
 33 32  1  0  0  0  0
 34 33  2  0  0  0  0
 35 34  1  0  0  0  0
 36 35  1  0  0  0  0
 37 49  1  6  0  0  0
 38 51  1  1  0  0  0
 38 46  1  0  0  0  0
 38 45  1  0  0  0  0
 39 40  1  6  0  0  0
 39 47  1  0  0  0  0
 40 41  1  0  0  0  0
 42 43  1  0  0  0  0
 43 48  1  0  0  0  0
 44 41  1  0  0  0  0
 44 42  1  0  0  0  0
 45 39  1  0  0  0  0
 46 36  1  1  0  0  0
 46 37  1  0  0  0  0
 47 37  1  0  0  0  0
 47 48  1  1  0  0  0
 50 49  1  0  0  0  0
 51 52  1  0  0  0  0
 53 52  1  1  0  0  0
 53 55  1  0  0  0  0
 53 56  1  0  0  0  0
 55 57  1  6  0  0  0
 55 56  1  0  0  0  0
 55 54  1  0  0  0  0
M  END
>  <MODEL>
1

>  <REMARK>
 VINA RESULT:      -7.2      0.000      0.000
  Name = 
  20 active torsions:
  status: ('A' for Active; 'I' for Inactive)
    1  A    between atoms: C_1  and  N_13
    2  A    between atoms: C_1  and  C_28
    3  A    between atoms: C_2  and  C_34
    4  A    between atoms: C_3  and  O_9
    5  A    between atoms: C_4  and  C_32
    6  A    between atoms: C_5  and  C_56
    7  A    between atoms: C_7  and  N_51
    8  A    between atoms: N_11  and  C_45
    9  A    between atoms: N_13  and  N_23
   10  A    between atoms: C_14  and  C_29
   11  A    between atoms: C_14  and  N_35
   12  A    between atoms: C_17  and  C_29
   13  A    between atoms: C_19  and  C_21
   14  A    between atoms: C_19  and  C_54
   15  A    between atoms: C_21  and  C_39
   16  A    between atoms: C_25  and  C_34
   17  A    between atoms: C_34  and  C_42
   18  A    between atoms: C_36  and  C_42
   19  A    between atoms: C_45  and  C_46
   20  A    between atoms: N_51  and  C_56
                            x       y       z     vdW  Elec       q    Type
                         _______ _______ _______ _____ _____    ______ ____

>  <TORSDO>
F 20

$$$$
=
 OpenBabel10232408153D

 57 62  0  0  1  0  0  0  0  0999 V2000
  188.7610  177.3400  136.3190 C   0  0  1  0  0  3  0  0  0  0  0  0
  190.2170  176.8600  136.4740 C   0  0  1  0  0  3  0  0  0  0  0  0
  191.5900  174.7660  136.5620 C   0  0  0  0  0  0  0  0  0  0  0  0
  190.4470  176.2760  137.8710 C   0  0  1  0  0  3  0  0  0  0  0  0
  192.5500  173.7550  136.2570 N   0  0  0  0  0  2  0  0  0  0  0  0
  191.4310  175.2150  137.7590 N   0  0  0  0  0  0  0  0  0  0  0  0
  190.6240  175.5340  135.2830 S   0  0  0  0  0  0  0  0  0  0  0  0
  190.8720  177.3300  138.8900 C   0  0  0  0  0  2  0  0  0  0  0  0
  189.9960  177.3340  140.1370 C   0  0  0  0  0  2  0  0  0  0  0  0
  190.2660  175.0950  143.0100 O   0  0  0  0  0  0  0  0  0  0  0  0
  190.0160  176.1470  142.3640 C   0  0  0  0  0  0  0  0  0  0  0  0
  190.3550  176.2080  140.9790 N   0  0  0  0  0  2  0  0  0  0  0  0
  189.4000  177.3240  143.0580 C   0  0  1  0  0  3  0  0  0  0  0  0
  188.0830  176.9470  143.7530 C   0  0  0  0  0  2  0  0  0  0  0  0
  187.8760  177.8270  144.9000 N   0  0  0  0  0  0  0  0  0  0  0  0
  190.2980  177.3800  145.3080 C   0  0  0  0  0  2  0  0  0  0  0  0
  188.8920  177.5270  145.9160 C   0  0  0  0  0  2  0  0  0  0  0  0
  190.3610  177.9710  143.9650 N   0  0  0  0  0  2  0  0  0  0  0  0
  186.5770  177.5020  145.4710 C   0  0  0  0  0  2  0  0  0  0  0  0
  185.5030  178.7710  143.7620 O   0  0  0  0  0  0  0  0  0  0  0  0
  185.5540  178.4700  144.9840 C   0  0  0  0  0  0  0  0  0  0  0  0
  184.7050  179.0900  145.8870 O   0  0  0  0  0  1  0  0  0  0  0  0
  193.2810  173.1100  137.2640 N   0  0  0  0  0  2  0  0  0  0  0  0
  194.6080  172.8460  136.7220 C   0  0  0  0  0  2  0  0  0  0  0  0
  196.8340  173.8570  137.1050 O   0  0  0  0  0  0  0  0  0  0  0  0
  195.6390  173.5460  137.5390 C   0  0  0  0  0  0  0  0  0  0  0  0
  195.4820  173.9270  138.8530 C   0  0  0  0  0  3  0  0  0  0  0  0
  197.4980  174.4440  138.0730 C   0  0  0  0  0  3  0  0  0  0  0  0
  196.6890  174.5140  139.1970 C   0  0  0  0  0  3  0  0  0  0  0  0
  188.1670  176.9800  134.9790 C   0  0  0  0  0  3  0  0  0  0  0  0
  187.2900  177.7610  134.3480 C   0  0  0  0  0  2  0  0  0  0  0  0
  187.8330  176.9490  137.4810 C   0  0  0  0  0  2  0  0  0  0  0  0
  186.9820  178.0930  137.9630 C   0  0  0  0  0  3  0  0  0  0  0  0
  185.6440  178.0450  137.9590 C   0  0  0  0  0  3  0  0  0  0  0  0
  184.8880  176.8430  137.4840 C   0  0  0  0  0  2  0  0  0  0  0  0
  184.0320  177.2060  136.2900 C   0  0  0  0  0  2  0  0  0  0  0  0
  183.7480  174.7170  136.0810 C   0  0  1  0  0  3  0  0  0  0  0  0
  181.7830  176.0970  136.9630 C   0  0  2  0  0  3  0  0  0  0  0  0
  181.7930  173.7320  137.4050 C   0  0  2  0  0  3  0  0  0  0  0  0
  180.3590  173.4080  136.9840 C   0  0  0  0  0  2  0  0  0  0  0  0
  180.0540  171.9310  137.2070 C   0  0  0  0  0  2  0  0  0  0  0  0
  181.7260  171.0260  135.4790 C   0  0  0  0  0  2  0  0  0  0  0  0
  182.6100  171.1210  136.5660 O   0  0  0  0  0  0  0  0  0  0  0  0
  180.2700  171.0820  135.9530 C   0  0  0  0  0  2  0  0  0  0  0  0
  181.8710  175.0730  138.0050 N   0  0  0  0  0  2  0  0  0  0  0  0
  183.0300  176.0810  136.0400 C   0  0  1  0  0  3  0  0  0  0  0  0
  182.7560  173.5470  136.2140 C   0  0  2  0  0  3  0  0  0  0  0  0
  183.4830  172.1940  136.2850 C   0  0  0  0  0  2  0  0  0  0  0  0
  184.6910  174.5500  135.0370 O   0  0  0  0  0  0  0  0  0  0  0  0
  185.9320  174.1830  135.5930 C   0  0  0  0  0  1  0  0  0  0  0  0
  181.4660  177.4480  137.5880 C   0  0  0  0  0  2  0  0  0  0  0  0
  181.5090  177.3610  139.0420 N   0  0  0  0  0  2  0  0  0  0  0  0
  181.9990  178.6430  139.5470 C   0  0  2  0  0  3  0  0  0  0  0  0
  183.4910  177.1150  140.8760 F   0  0  0  0  0  0  0  0  0  0  0  0
  183.0940  178.4080  140.5670 C   0  0  2  0  0  0  0  0  0  0  0  0
  181.7150  178.7800  141.0460 C   0  0  0  0  0  2  0  0  0  0  0  0
  184.0290  179.4360  140.7060 O   0  0  0  0  0  1  0  0  0  0  0  0
  1 30  1  6  0  0  0
  1 32  1  0  0  0  0
  2  1  1  1  0  0  0
  2  4  1  0  0  0  0
  3  6  2  0  0  0  0
  4  8  1  1  0  0  0
  5  3  1  0  0  0  0
  5 23  1  0  0  0  0
  6  4  1  0  0  0  0
  7  2  1  0  0  0  0
  7  3  1  0  0  0  0
  8  9  1  0  0  0  0
  9 12  1  0  0  0  0
 11 10  2  0  0  0  0
 12 11  1  0  0  0  0
 13 11  1  1  0  0  0
 13 14  1  0  0  0  0
 13 18  1  0  0  0  0
 14 15  1  0  0  0  0
 15 19  1  0  0  0  0
 15 17  1  0  0  0  0
 16 17  1  0  0  0  0
 18 16  1  0  0  0  0
 20 21  2  0  0  0  0
 21 19  1  0  0  0  0
 21 22  1  0  0  0  0
 24 23  1  0  0  0  0
 24 26  1  0  0  0  0
 25 26  1  0  0  0  0
 25 28  1  0  0  0  0
 26 27  2  0  0  0  0
 27 29  1  0  0  0  0
 28 29  2  0  0  0  0
 31 30  2  0  0  0  0
 32 33  1  0  0  0  0
 34 33  2  0  0  0  0
 35 34  1  0  0  0  0
 36 35  1  0  0  0  0
 37 49  1  6  0  0  0
 37 47  1  0  0  0  0
 38 51  1  1  0  0  0
 38 45  1  0  0  0  0
 39 40  1  6  0  0  0
 39 45  1  0  0  0  0
 40 41  1  0  0  0  0
 42 44  1  0  0  0  0
 42 43  1  0  0  0  0
 44 41  1  0  0  0  0
 46 37  1  0  0  0  0
 46 36  1  1  0  0  0
 46 38  1  0  0  0  0
 47 48  1  1  0  0  0
 47 39  1  0  0  0  0
 48 43  1  0  0  0  0
 49 50  1  0  0  0  0
 51 52  1  0  0  0  0
 53 52  1  1  0  0  0
 53 55  1  0  0  0  0
 53 56  1  0  0  0  0
 55 57  1  1  0  0  0
 55 54  1  0  0  0  0
 55 56  1  0  0  0  0
M  END
>  <MODEL>
2

>  <REMARK>
 VINA RESULT:      -7.1      3.898      9.565
  Name = 
  20 active torsions:
  status: ('A' for Active; 'I' for Inactive)
    1  A    between atoms: C_1  and  N_13
    2  A    between atoms: C_1  and  C_28
    3  A    between atoms: C_2  and  C_34
    4  A    between atoms: C_3  and  O_9
    5  A    between atoms: C_4  and  C_32
    6  A    between atoms: C_5  and  C_56
    7  A    between atoms: C_7  and  N_51
    8  A    between atoms: N_11  and  C_45
    9  A    between atoms: N_13  and  N_23
   10  A    between atoms: C_14  and  C_29
   11  A    between atoms: C_14  and  N_35
   12  A    between atoms: C_17  and  C_29
   13  A    between atoms: C_19  and  C_21
   14  A    between atoms: C_19  and  C_54
   15  A    between atoms: C_21  and  C_39
   16  A    between atoms: C_25  and  C_34
   17  A    between atoms: C_34  and  C_42
   18  A    between atoms: C_36  and  C_42
   19  A    between atoms: C_45  and  C_46
   20  A    between atoms: N_51  and  C_56
                            x       y       z     vdW  Elec       q    Type
                         _______ _______ _______ _____ _____    ______ ____

>  <TORSDO>
F 20

$$$$
=
 OpenBabel10232408153D

 57 62  0  0  1  0  0  0  0  0999 V2000
  189.8800  178.0960  140.9130 C   0  0  1  0  0  3  0  0  0  0  0  0
  189.3590  178.3040  142.3470 C   0  0  1  0  0  3  0  0  0  0  0  0
  189.7390  177.5310  144.7000 C   0  0  0  0  0  0  0  0  0  0  0  0
  188.5190  177.1060  142.7950 C   0  0  1  0  0  3  0  0  0  0  0  0
  190.0470  177.5150  146.0940 N   0  0  0  0  0  2  0  0  0  0  0  0
  188.6990  176.9390  144.2260 N   0  0  0  0  0  0  0  0  0  0  0  0
  190.7280  178.4580  143.5500 S   0  0  0  0  0  0  0  0  0  0  0  0
  187.0440  177.2460  142.4270 C   0  0  0  0  0  2  0  0  0  0  0  0
  186.6260  178.6950  142.2020 C   0  0  0  0  0  2  0  0  0  0  0  0
  182.9750  178.7700  142.1530 O   0  0  0  0  0  0  0  0  0  0  0  0
  184.1520  178.7120  141.7070 C   0  0  0  0  0  0  0  0  0  0  0  0
  185.2450  178.8640  142.6120 N   0  0  0  0  0  2  0  0  0  0  0  0
  184.3880  178.5170  140.2400 C   0  0  1  0  0  3  0  0  0  0  0  0
  183.3970  177.5130  139.6340 C   0  0  0  0  0  2  0  0  0  0  0  0
  183.1930  177.8310  138.2230 N   0  0  0  0  0  0  0  0  0  0  0  0
  183.0600  180.1740  139.0730 C   0  0  0  0  0  2  0  0  0  0  0  0
  182.4790  179.1100  138.1250 C   0  0  0  0  0  2  0  0  0  0  0  0
  184.4070  179.8050  139.5270 N   0  0  0  0  0  2  0  0  0  0  0  0
  182.3260  176.8030  137.6640 C   0  0  0  0  0  2  0  0  0  0  0  0
  182.9030  177.3150  135.4070 O   0  0  0  0  0  0  0  0  0  0  0  0
  181.9860  177.1420  136.2530 C   0  0  0  0  0  0  0  0  0  0  0  0
  180.6620  177.3340  135.8900 O   0  0  0  0  0  1  0  0  0  0  0  0
  189.3020  176.7490  147.0010 N   0  0  0  0  0  2  0  0  0  0  0  0
  188.6340  177.6830  147.8970 C   0  0  0  0  0  2  0  0  0  0  0  0
  186.7010  179.2020  147.6150 O   0  0  0  0  0  0  0  0  0  0  0  0
  187.3190  178.0850  147.3240 C   0  0  0  0  0  0  0  0  0  0  0  0
  186.5740  177.3280  146.4470 C   0  0  0  0  0  3  0  0  0  0  0  0
  185.5640  179.2400  146.9610 C   0  0  0  0  0  3  0  0  0  0  0  0
  185.4370  178.0820  146.2090 C   0  0  0  0  0  3  0  0  0  0  0  0
  190.9810  177.0660  140.8340 C   0  0  0  0  0  3  0  0  0  0  0  0
  192.2010  177.3490  140.3770 C   0  0  0  0  0  2  0  0  0  0  0  0
  188.7840  177.8430  139.8650 C   0  0  0  0  0  2  0  0  0  0  0  0
  188.8300  178.8170  138.7190 C   0  0  0  0  0  3  0  0  0  0  0  0
  189.3920  178.5160  137.5420 C   0  0  0  0  0  3  0  0  0  0  0  0
  190.0110  177.1810  137.2690 C   0  0  0  0  0  2  0  0  0  0  0  0
  189.4990  176.6280  135.9570 C   0  0  0  0  0  2  0  0  0  0  0  0
  187.2140  175.5810  135.9760 C   0  0  1  0  0  3  0  0  0  0  0  0
  189.2330  174.0910  135.4790 C   0  0  2  0  0  3  0  0  0  0  0  0
  187.0550  173.3010  134.8290 C   0  0  2  0  0  3  0  0  0  0  0  0
  187.1400  171.8830  135.3980 C   0  0  0  0  0  2  0  0  0  0  0  0
  185.8690  171.1010  135.0850 C   0  0  0  0  0  2  0  0  0  0  0  0
  184.2830  172.5460  136.4970 C   0  0  0  0  0  2  0  0  0  0  0  0
  184.2370  173.3090  135.3200 O   0  0  0  0  0  0  0  0  0  0  0  0
  184.8450  171.1480  136.2200 C   0  0  0  0  0  2  0  0  0  0  0  0
  188.3710  173.7490  134.3470 N   0  0  0  0  0  2  0  0  0  0  0  0
  188.7170  175.3460  136.2310 C   0  0  1  0  0  3  0  0  0  0  0  0
  186.4340  174.2580  135.8660 C   0  0  2  0  0  3  0  0  0  0  0  0
  184.9420  174.5020  135.5830 C   0  0  0  0  0  2  0  0  0  0  0  0
  186.6340  176.5130  136.8730 O   0  0  0  0  0  0  0  0  0  0  0  0
  186.1880  177.6340  136.1460 C   0  0  0  0  0  1  0  0  0  0  0  0
  190.6830  174.1690  135.0230 C   0  0  0  0  0  2  0  0  0  0  0  0
  191.5840  174.0540  136.1630 N   0  0  0  0  0  2  0  0  0  0  0  0
  192.8620  174.6490  135.7770 C   0  0  2  0  0  3  0  0  0  0  0  0
  193.5230  173.7590  138.0350 F   0  0  0  0  0  0  0  0  0  0  0  0
  193.8780  174.4430  136.8810 C   0  0  2  0  0  0  0  0  0  0  0  0
  193.2340  175.7960  136.7220 C   0  0  0  0  0  2  0  0  0  0  0  0
  195.2150  174.4110  136.4820 O   0  0  0  0  0  1  0  0  0  0  0  0
  1 32  1  6  0  0  0
  2  1  1  6  0  0  0
  2  4  1  0  0  0  0
  2  7  1  0  0  0  0
  3  5  1  0  0  0  0
  4  8  1  1  0  0  0
  4  6  1  0  0  0  0
  5 23  1  0  0  0  0
  6  3  2  0  0  0  0
  7  3  1  0  0  0  0
  9  8  1  0  0  0  0
  9 12  1  0  0  0  0
 11 10  2  0  0  0  0
 11 12  1  0  0  0  0
 13 11  1  1  0  0  0
 14 13  1  0  0  0  0
 15 14  1  0  0  0  0
 16 18  1  0  0  0  0
 17 15  1  0  0  0  0
 17 16  1  0  0  0  0
 18 13  1  0  0  0  0
 19 15  1  0  0  0  0
 20 21  2  0  0  0  0
 21 19  1  0  0  0  0
 22 21  1  0  0  0  0
 23 24  1  0  0  0  0
 26 25  1  0  0  0  0
 26 24  1  0  0  0  0
 27 26  2  0  0  0  0
 28 25  1  0  0  0  0
 29 27  1  0  0  0  0
 29 28  2  0  0  0  0
 30  1  1  0  0  0  0
 31 30  2  0  0  0  0
 33 32  1  0  0  0  0
 34 33  2  0  0  0  0
 35 34  1  0  0  0  0
 36 35  1  0  0  0  0
 37 46  1  0  0  0  0
 37 49  1  1  0  0  0
 38 51  1  6  0  0  0
 38 46  1  0  0  0  0
 39 40  1  1  0  0  0
 39 47  1  0  0  0  0
 41 40  1  0  0  0  0
 41 44  1  0  0  0  0
 43 48  1  0  0  0  0
 43 42  1  0  0  0  0
 44 42  1  0  0  0  0
 45 39  1  0  0  0  0
 45 38  1  0  0  0  0
 46 36  1  6  0  0  0
 47 48  1  6  0  0  0
 47 37  1  0  0  0  0
 50 49  1  0  0  0  0
 51 52  1  0  0  0  0
 53 52  1  1  0  0  0
 53 56  1  0  0  0  0
 53 55  1  0  0  0  0
 55 57  1  6  0  0  0
 55 54  1  0  0  0  0
 56 55  1  0  0  0  0
M  END
>  <MODEL>
3

>  <REMARK>
 VINA RESULT:      -7.1      2.591      5.364
  Name = 
  20 active torsions:
  status: ('A' for Active; 'I' for Inactive)
    1  A    between atoms: C_1  and  N_13
    2  A    between atoms: C_1  and  C_28
    3  A    between atoms: C_2  and  C_34
    4  A    between atoms: C_3  and  O_9
    5  A    between atoms: C_4  and  C_32
    6  A    between atoms: C_5  and  C_56
    7  A    between atoms: C_7  and  N_51
    8  A    between atoms: N_11  and  C_45
    9  A    between atoms: N_13  and  N_23
   10  A    between atoms: C_14  and  C_29
   11  A    between atoms: C_14  and  N_35
   12  A    between atoms: C_17  and  C_29
   13  A    between atoms: C_19  and  C_21
   14  A    between atoms: C_19  and  C_54
   15  A    between atoms: C_21  and  C_39
   16  A    between atoms: C_25  and  C_34
   17  A    between atoms: C_34  and  C_42
   18  A    between atoms: C_36  and  C_42
   19  A    between atoms: C_45  and  C_46
   20  A    between atoms: N_51  and  C_56
                            x       y       z     vdW  Elec       q    Type
                         _______ _______ _______ _____ _____    ______ ____

>  <TORSDO>
F 20

$$$$
=
 OpenBabel10232408153D

 57 62  0  0  1  0  0  0  0  0999 V2000
  189.0640  178.1570  139.3030 C   0  0  1  0  0  3  0  0  0  0  0  0
  187.5920  177.8350  139.6220 C   0  0  1  0  0  3  0  0  0  0  0  0
  185.2680  178.6760  139.2080 C   0  0  0  0  0  0  0  0  0  0  0  0
  187.0420  178.8050  140.6700 C   0  0  1  0  0  3  0  0  0  0  0  0
  183.9090  178.7630  138.7810 N   0  0  0  0  0  2  0  0  0  0  0  0
  185.6310  179.0100  140.3980 N   0  0  0  0  0  0  0  0  0  0  0  0
  186.5250  178.0030  138.1470 S   0  0  0  0  0  0  0  0  0  0  0  0
  187.2740  178.3260  142.1010 C   0  0  0  0  0  2  0  0  0  0  0  0
  186.0200  177.7390  142.7390 C   0  0  0  0  0  2  0  0  0  0  0  0
  185.7650  179.4260  145.9680 O   0  0  0  0  0  0  0  0  0  0  0  0
  186.1270  178.5690  145.1190 C   0  0  0  0  0  0  0  0  0  0  0  0
  185.5710  178.6130  143.8060 N   0  0  0  0  0  2  0  0  0  0  0  0
  187.1060  177.5010  145.5050 C   0  0  1  0  0  3  0  0  0  0  0  0
  188.5520  177.9190  145.1990 C   0  0  0  0  0  2  0  0  0  0  0  0
  189.4540  177.2470  146.1300 N   0  0  0  0  0  0  0  0  0  0  0  0
  187.7280  177.8970  147.8130 C   0  0  0  0  0  2  0  0  0  0  0  0
  189.2270  177.7810  147.4790 C   0  0  0  0  0  2  0  0  0  0  0  0
  186.9150  177.0810  146.9020 N   0  0  0  0  0  2  0  0  0  0  0  0
  190.8160  177.5940  145.7480 C   0  0  0  0  0  2  0  0  0  0  0  0
  191.6510  175.9040  144.2870 O   0  0  0  0  0  0  0  0  0  0  0  0
  191.5910  176.3540  145.4620 C   0  0  0  0  0  0  0  0  0  0  0  0
  192.1890  175.6590  146.5020 O   0  0  0  0  0  1  0  0  0  0  0  0
  182.9210  179.3370  139.5930 N   0  0  0  0  0  2  0  0  0  0  0  0
  182.1240  178.2410  140.1290 C   0  0  0  0  0  2  0  0  0  0  0  0
  182.5560  178.9240  142.4680 O   0  0  0  0  0  0  0  0  0  0  0  0
  181.7240  178.5430  141.5320 C   0  0  0  0  0  0  0  0  0  0  0  0
  180.4450  178.4310  142.0310 C   0  0  0  0  0  3  0  0  0  0  0  0
  181.8900  179.0860  143.5880 C   0  0  0  0  0  3  0  0  0  0  0  0
  180.5540  178.7880  143.3650 C   0  0  0  0  0  3  0  0  0  0  0  0
  190.0170  177.6460  140.3570 C   0  0  0  0  0  3  0  0  0  0  0  0
  191.3140  177.4530  140.1220 C   0  0  0  0  0  2  0  0  0  0  0  0
  189.5120  177.7600  137.8870 C   0  0  0  0  0  2  0  0  0  0  0  0
  189.3460  176.2900  137.6090 C   0  0  0  0  0  3  0  0  0  0  0  0
  190.3250  175.5440  137.0820 C   0  0  0  0  0  3  0  0  0  0  0  0
  191.6660  176.1110  136.7380 C   0  0  0  0  0  2  0  0  0  0  0  0
  192.0030  175.8120  135.2930 C   0  0  0  0  0  2  0  0  0  0  0  0
  193.9380  174.7700  136.5130 C   0  0  1  0  0  3  0  0  0  0  0  0
  192.5040  173.2810  135.0080 C   0  0  2  0  0  3  0  0  0  0  0  0
  193.8710  172.2190  136.6790 C   0  0  2  0  0  3  0  0  0  0  0  0
  194.5130  171.1390  135.8060 C   0  0  0  0  0  2  0  0  0  0  0  0
  195.4300  170.2500  136.6370 C   0  0  0  0  0  2  0  0  0  0  0  0
  197.1440  172.0710  137.2270 C   0  0  0  0  0  2  0  0  0  0  0  0
  196.2420  172.3120  138.2760 O   0  0  0  0  0  0  0  0  0  0  0  0
  196.8920  170.6980  136.5970 C   0  0  0  0  0  2  0  0  0  0  0  0
  192.4930  172.4920  136.2400 N   0  0  0  0  0  2  0  0  0  0  0  0
  193.0580  174.7100  135.2480 C   0  0  1  0  0  3  0  0  0  0  0  0
  194.7560  173.4810  136.7090 C   0  0  2  0  0  3  0  0  0  0  0  0
  195.6070  173.5390  137.9890 C   0  0  0  0  0  2  0  0  0  0  0  0
  194.7100  175.9560  136.6010 O   0  0  0  0  0  0  0  0  0  0  0  0
  195.6330  175.9830  135.5390 C   0  0  0  0  0  1  0  0  0  0  0  0
  191.1340  173.2290  134.3460 C   0  0  0  0  0  2  0  0  0  0  0  0
  190.3000  172.2130  134.9760 N   0  0  0  0  0  2  0  0  0  0  0  0
  188.9050  172.5620  134.7150 C   0  0  2  0  0  3  0  0  0  0  0  0
  188.8640  172.6800  137.2280 F   0  0  0  0  0  0  0  0  0  0  0  0
  188.1820  172.7980  136.0260 C   0  0  2  0  0  0  0  0  0  0  0  0
  187.9630  171.5000  135.2910 C   0  0  0  0  0  2  0  0  0  0  0  0
  187.0860  173.6610  135.9710 O   0  0  0  0  0  1  0  0  0  0  0  0
  1 32  1  6  0  0  0
  1 30  1  0  0  0  0
  2  1  1  6  0  0  0
  2  4  1  0  0  0  0
  3  6  2  0  0  0  0
  4  8  1  1  0  0  0
  5  3  1  0  0  0  0
  5 23  1  0  0  0  0
  6  4  1  0  0  0  0
  7  3  1  0  0  0  0
  7  2  1  0  0  0  0
  8  9  1  0  0  0  0
  9 12  1  0  0  0  0
 11 10  2  0  0  0  0
 12 11  1  0  0  0  0
 13 11  1  1  0  0  0
 13 18  1  0  0  0  0
 14 13  1  0  0  0  0
 14 15  1  0  0  0  0
 15 17  1  0  0  0  0
 17 16  1  0  0  0  0
 18 16  1  0  0  0  0
 19 15  1  0  0  0  0
 20 21  2  0  0  0  0
 21 19  1  0  0  0  0
 21 22  1  0  0  0  0
 23 24  1  0  0  0  0
 24 26  1  0  0  0  0
 25 28  1  0  0  0  0
 26 27  2  0  0  0  0
 26 25  1  0  0  0  0
 27 29  1  0  0  0  0
 29 28  2  0  0  0  0
 31 30  2  0  0  0  0
 33 32  1  0  0  0  0
 34 33  2  0  0  0  0
 35 34  1  0  0  0  0
 36 35  1  0  0  0  0
 37 49  1  6  0  0  0
 37 47  1  0  0  0  0
 38 51  1  1  0  0  0
 38 46  1  0  0  0  0
 38 45  1  0  0  0  0
 39 40  1  6  0  0  0
 39 47  1  0  0  0  0
 40 41  1  0  0  0  0
 42 43  1  0  0  0  0
 44 41  1  0  0  0  0
 44 42  1  0  0  0  0
 45 39  1  0  0  0  0
 46 36  1  1  0  0  0
 46 37  1  0  0  0  0
 47 48  1  1  0  0  0
 48 43  1  0  0  0  0
 50 49  1  0  0  0  0
 51 52  1  0  0  0  0
 53 52  1  1  0  0  0
 53 56  1  0  0  0  0
 53 55  1  0  0  0  0
 55 57  1  6  0  0  0
 55 54  1  0  0  0  0
 56 55  1  0  0  0  0
M  END
>  <MODEL>
4

>  <REMARK>
 VINA RESULT:      -7.1      2.306      5.800
  Name = 
  20 active torsions:
  status: ('A' for Active; 'I' for Inactive)
    1  A    between atoms: C_1  and  N_13
    2  A    between atoms: C_1  and  C_28
    3  A    between atoms: C_2  and  C_34
    4  A    between atoms: C_3  and  O_9
    5  A    between atoms: C_4  and  C_32
    6  A    between atoms: C_5  and  C_56
    7  A    between atoms: C_7  and  N_51
    8  A    between atoms: N_11  and  C_45
    9  A    between atoms: N_13  and  N_23
   10  A    between atoms: C_14  and  C_29
   11  A    between atoms: C_14  and  N_35
   12  A    between atoms: C_17  and  C_29
   13  A    between atoms: C_19  and  C_21
   14  A    between atoms: C_19  and  C_54
   15  A    between atoms: C_21  and  C_39
   16  A    between atoms: C_25  and  C_34
   17  A    between atoms: C_34  and  C_42
   18  A    between atoms: C_36  and  C_42
   19  A    between atoms: C_45  and  C_46
   20  A    between atoms: N_51  and  C_56
                            x       y       z     vdW  Elec       q    Type
                         _______ _______ _______ _____ _____    ______ ____

>  <TORSDO>
F 20

$$$$
=
 OpenBabel10232408153D

 57 62  0  0  1  0  0  0  0  0999 V2000
  189.9670  176.8990  137.5770 C   0  0  1  0  0  3  0  0  0  0  0  0
  190.0220  177.4750  139.0040 C   0  0  1  0  0  3  0  0  0  0  0  0
  190.2900  176.7670  141.3930 C   0  0  0  0  0  0  0  0  0  0  0  0
  188.7230  177.1780  139.7570 C   0  0  1  0  0  3  0  0  0  0  0  0
  190.7960  176.6190  142.7190 N   0  0  0  0  0  2  0  0  0  0  0  0
  189.0460  177.0060  141.1620 N   0  0  0  0  0  0  0  0  0  0  0  0
  191.3730  176.7290  139.9850 S   0  0  0  0  0  0  0  0  0  0  0  0
  187.6620  178.2550  139.5530 C   0  0  0  0  0  2  0  0  0  0  0  0
  186.5960  177.8520  138.5400 C   0  0  0  0  0  2  0  0  0  0  0  0
  184.0150  180.3320  139.2630 O   0  0  0  0  0  0  0  0  0  0  0  0
  184.7410  179.3160  139.4240 C   0  0  0  0  0  0  0  0  0  0  0  0
  185.6450  178.9370  138.3870 N   0  0  0  0  0  2  0  0  0  0  0  0
  184.6240  178.5030  140.6780 C   0  0  1  0  0  3  0  0  0  0  0  0
  184.7820  179.3730  141.9340 C   0  0  0  0  0  2  0  0  0  0  0  0
  184.0380  178.7660  143.0350 N   0  0  0  0  0  0  0  0  0  0  0  0
  182.2800  178.4590  141.2890 C   0  0  0  0  0  2  0  0  0  0  0  0
  182.6020  178.8550  142.7410 C   0  0  0  0  0  2  0  0  0  0  0  0
  183.3870  177.7060  140.6850 N   0  0  0  0  0  2  0  0  0  0  0  0
  184.2900  179.5650  144.2260 C   0  0  0  0  0  2  0  0  0  0  0  0
  185.3740  177.5910  145.0090 O   0  0  0  0  0  0  0  0  0  0  0  0
  184.8620  178.7050  145.2990 C   0  0  0  0  0  0  0  0  0  0  0  0
  184.7690  179.1010  146.6240 O   0  0  0  0  0  1  0  0  0  0  0  0
  189.9440  176.5990  143.8320 N   0  0  0  0  0  2  0  0  0  0  0  0
  190.5880  177.3890  144.8730 C   0  0  0  0  0  2  0  0  0  0  0  0
  188.4440  177.9280  145.9870 O   0  0  0  0  0  0  0  0  0  0  0  0
  189.6830  177.5110  146.0510 C   0  0  0  0  0  0  0  0  0  0  0  0
  190.0390  177.2340  147.3530 C   0  0  0  0  0  3  0  0  0  0  0  0
  187.9360  177.9370  147.1970 C   0  0  0  0  0  3  0  0  0  0  0  0
  188.9020  177.5060  148.0950 C   0  0  0  0  0  3  0  0  0  0  0  0
  191.2390  176.1860  137.1840 C   0  0  0  0  0  3  0  0  0  0  0  0
  192.3110  176.8300  136.7210 C   0  0  0  0  0  2  0  0  0  0  0  0
  188.7210  176.0500  137.2780 C   0  0  0  0  0  2  0  0  0  0  0  0
  188.8730  175.1950  136.0500 C   0  0  0  0  0  3  0  0  0  0  0  0
  187.8650  174.9780  135.1960 C   0  0  0  0  0  3  0  0  0  0  0  0
  186.5080  175.5780  135.3910 C   0  0  0  0  0  2  0  0  0  0  0  0
  185.7440  174.8060  136.4450 C   0  0  0  0  0  2  0  0  0  0  0  0
  184.7700  172.5390  135.9630 C   0  0  1  0  0  3  0  0  0  0  0  0
  183.1750  174.5250  136.1960 C   0  0  2  0  0  3  0  0  0  0  0  0
  182.2670  172.3090  136.4350 C   0  0  2  0  0  3  0  0  0  0  0  0
  181.0550  172.4510  135.5130 C   0  0  0  0  0  2  0  0  0  0  0  0
  180.2340  171.1670  135.5030 C   0  0  0  0  0  2  0  0  0  0  0  0
  182.0270  169.6850  134.4130 C   0  0  0  0  0  2  0  0  0  0  0  0
  182.4450  169.5390  135.7460 O   0  0  0  0  0  0  0  0  0  0  0  0
  180.5990  170.2350  134.3460 C   0  0  0  0  0  2  0  0  0  0  0  0
  182.5510  173.5790  137.1230 N   0  0  0  0  0  2  0  0  0  0  0  0
  184.5930  174.0590  135.7740 C   0  0  1  0  0  3  0  0  0  0  0  0
  183.4770  171.7640  135.6500 C   0  0  2  0  0  3  0  0  0  0  0  0
  183.6550  170.2530  135.8710 C   0  0  0  0  0  2  0  0  0  0  0  0
  185.9170  172.0240  135.3090 O   0  0  0  0  0  0  0  0  0  0  0  0
  186.9550  171.8750  136.2500 C   0  0  0  0  0  1  0  0  0  0  0  0
  183.1080  175.9340  136.7690 C   0  0  0  0  0  2  0  0  0  0  0  0
  181.7320  176.2860  137.0980 N   0  0  0  0  0  2  0  0  0  0  0  0
  181.2910  177.2890  136.1300 C   0  0  2  0  0  3  0  0  0  0  0  0
  181.6930  178.8060  138.0960 F   0  0  0  0  0  0  0  0  0  0  0  0
  181.2940  178.6600  136.7760 C   0  0  2  0  0  0  0  0  0  0  0  0
  179.9820  177.9430  136.5860 C   0  0  0  0  0  2  0  0  0  0  0  0
  181.4690  179.7410  135.9100 O   0  0  0  0  0  1  0  0  0  0  0  0
  1 30  1  1  0  0  0
  2  1  1  6  0  0  0
  2  4  1  0  0  0  0
  2  7  1  0  0  0  0
  3  5  1  0  0  0  0
  4  8  1  1  0  0  0
  4  6  1  0  0  0  0
  5 23  1  0  0  0  0
  6  3  2  0  0  0  0
  7  3  1  0  0  0  0
  9  8  1  0  0  0  0
 10 11  2  0  0  0  0
 12  9  1  0  0  0  0
 12 11  1  0  0  0  0
 13 11  1  6  0  0  0
 13 18  1  0  0  0  0
 13 14  1  0  0  0  0
 14 15  1  0  0  0  0
 15 19  1  0  0  0  0
 16 17  1  0  0  0  0
 17 15  1  0  0  0  0
 18 16  1  0  0  0  0
 19 21  1  0  0  0  0
 20 21  2  0  0  0  0
 21 22  1  0  0  0  0
 23 24  1  0  0  0  0
 24 26  1  0  0  0  0
 25 26  1  0  0  0  0
 25 28  1  0  0  0  0
 26 27  2  0  0  0  0
 27 29  1  0  0  0  0
 28 29  2  0  0  0  0
 31 30  2  0  0  0  0
 32  1  1  0  0  0  0
 33 32  1  0  0  0  0
 34 35  1  0  0  0  0
 34 33  2  0  0  0  0
 35 36  1  0  0  0  0
 37 49  1  6  0  0  0
 38 51  1  1  0  0  0
 38 45  1  0  0  0  0
 39 40  1  6  0  0  0
 39 45  1  0  0  0  0
 41 40  1  0  0  0  0
 42 43  1  0  0  0  0
 43 48  1  0  0  0  0
 44 42  1  0  0  0  0
 44 41  1  0  0  0  0
 46 37  1  0  0  0  0
 46 38  1  0  0  0  0
 46 36  1  1  0  0  0
 47 48  1  1  0  0  0
 47 37  1  0  0  0  0
 47 39  1  0  0  0  0
 49 50  1  0  0  0  0
 51 52  1  0  0  0  0
 53 56  1  0  0  0  0
 53 55  1  0  0  0  0
 53 52  1  1  0  0  0
 55 57  1  6  0  0  0
 55 54  1  0  0  0  0
 56 55  1  0  0  0  0
M  END
>  <MODEL>
5

>  <REMARK>
 VINA RESULT:      -6.3      4.244      7.565
  Name = 
  20 active torsions:
  status: ('A' for Active; 'I' for Inactive)
    1  A    between atoms: C_1  and  N_13
    2  A    between atoms: C_1  and  C_28
    3  A    between atoms: C_2  and  C_34
    4  A    between atoms: C_3  and  O_9
    5  A    between atoms: C_4  and  C_32
    6  A    between atoms: C_5  and  C_56
    7  A    between atoms: C_7  and  N_51
    8  A    between atoms: N_11  and  C_45
    9  A    between atoms: N_13  and  N_23
   10  A    between atoms: C_14  and  C_29
   11  A    between atoms: C_14  and  N_35
   12  A    between atoms: C_17  and  C_29
   13  A    between atoms: C_19  and  C_21
   14  A    between atoms: C_19  and  C_54
   15  A    between atoms: C_21  and  C_39
   16  A    between atoms: C_25  and  C_34
   17  A    between atoms: C_34  and  C_42
   18  A    between atoms: C_36  and  C_42
   19  A    between atoms: C_45  and  C_46
   20  A    between atoms: N_51  and  C_56
                            x       y       z     vdW  Elec       q    Type
                         _______ _______ _______ _____ _____    ______ ____

>  <TORSDO>
F 20

$$$$
=
 OpenBabel10232408153D

 57 62  0  0  1  0  0  0  0  0999 V2000
  181.7640  178.3890  140.9660 C   0  0  1  0  0  3  0  0  0  0  0  0
  182.8210  178.0640  142.0370 C   0  0  1  0  0  3  0  0  0  0  0  0
  183.6930  178.8800  144.2400 C   0  0  0  0  0  0  0  0  0  0  0  0
  183.9870  179.0520  141.9640 C   0  0  1  0  0  3  0  0  0  0  0  0
  184.0520  178.9490  145.6200 N   0  0  0  0  0  2  0  0  0  0  0  0
  184.5030  179.2410  143.3070 N   0  0  0  0  0  0  0  0  0  0  0  0
  182.1360  178.1940  143.7280 S   0  0  0  0  0  0  0  0  0  0  0  0
  185.0820  178.6050  140.9990 C   0  0  0  0  0  2  0  0  0  0  0  0
  186.4520  178.5120  141.6610 C   0  0  0  0  0  2  0  0  0  0  0  0
  189.4290  177.2780  139.9420 O   0  0  0  0  0  0  0  0  0  0  0  0
  188.6460  177.5280  140.8970 C   0  0  0  0  0  0  0  0  0  0  0  0
  187.4610  178.2820  140.6440 N   0  0  0  0  0  2  0  0  0  0  0  0
  188.9820  177.0630  142.2810 C   0  0  1  0  0  3  0  0  0  0  0  0
  190.3230  176.3150  142.3190 C   0  0  0  0  0  2  0  0  0  0  0  0
  190.9230  176.4720  143.6420 N   0  0  0  0  0  0  0  0  0  0  0  0
  190.2140  178.8490  143.3600 C   0  0  0  0  0  2  0  0  0  0  0  0
  191.3140  177.8750  143.8220 C   0  0  0  0  0  2  0  0  0  0  0  0
  188.9160  178.1710  143.2470 N   0  0  0  0  0  2  0  0  0  0  0  0
  192.1410  175.6730  143.6670 C   0  0  0  0  0  2  0  0  0  0  0  0
  192.1730  175.2420  146.0120 O   0  0  0  0  0  1  0  0  0  0  0  0
  192.1240  174.7650  144.8480 C   0  0  0  0  0  0  0  0  0  0  0  0
  192.1230  173.3910  144.6610 O   0  0  0  0  0  0  0  0  0  0  0  0
  185.2560  179.5320  146.0360 N   0  0  0  0  0  2  0  0  0  0  0  0
  185.6040  178.9220  147.3130 C   0  0  0  0  0  2  0  0  0  0  0  0
  187.3860  177.6610  146.1460 O   0  0  0  0  0  0  0  0  0  0  0  0
  186.9400  178.2690  147.2160 C   0  0  0  0  0  0  0  0  0  0  0  0
  187.8580  178.1920  148.2400 C   0  0  0  0  0  3  0  0  0  0  0  0
  188.5800  177.1790  146.3990 C   0  0  0  0  0  3  0  0  0  0  0  0
  188.9240  177.4880  147.7060 C   0  0  0  0  0  3  0  0  0  0  0  0
  181.4380  179.8620  140.8940 C   0  0  0  0  0  3  0  0  0  0  0  0
  180.2200  180.3420  141.1390 C   0  0  0  0  0  2  0  0  0  0  0  0
  182.0600  177.8000  139.5770 C   0  0  0  0  0  2  0  0  0  0  0  0
  182.1940  178.8530  138.5090 C   0  0  0  0  0  3  0  0  0  0  0  0
  182.6430  178.5750  137.2790 C   0  0  0  0  0  3  0  0  0  0  0  0
  183.0390  177.1920  136.8650 C   0  0  0  0  0  2  0  0  0  0  0  0
  184.2260  176.7250  137.6780 C   0  0  0  0  0  2  0  0  0  0  0  0
  186.5420  175.8660  137.2130 C   0  0  1  0  0  3  0  0  0  0  0  0
  184.5640  174.2820  136.8700 C   0  0  2  0  0  3  0  0  0  0  0  0
  186.7550  173.3190  137.1120 C   0  0  2  0  0  3  0  0  0  0  0  0
  186.7220  172.3560  135.9240 C   0  0  0  0  0  2  0  0  0  0  0  0
  188.0100  171.5450  135.8510 C   0  0  0  0  0  2  0  0  0  0  0  0
  189.5710  173.5270  135.3620 C   0  0  0  0  0  2  0  0  0  0  0  0
  189.5780  173.6210  136.7630 O   0  0  0  0  0  0  0  0  0  0  0  0
  189.0490  172.1590  134.9100 C   0  0  0  0  0  2  0  0  0  0  0  0
  185.4190  173.4490  137.7160 N   0  0  0  0  0  2  0  0  0  0  0  0
  185.0510  175.7540  136.8370 C   0  0  1  0  0  3  0  0  0  0  0  0
  187.3610  174.6720  136.6880 C   0  0  2  0  0  3  0  0  0  0  0  0
  188.8400  174.7770  137.0940 C   0  0  0  0  0  2  0  0  0  0  0  0
  187.1060  177.1270  136.8990 O   0  0  0  0  0  0  0  0  0  0  0  0
  186.9180  177.3860  135.5270 C   0  0  0  0  0  1  0  0  0  0  0  0
  183.1050  174.0990  137.2670 C   0  0  0  0  0  2  0  0  0  0  0  0
  182.3070  173.7050  136.1130 N   0  0  0  0  0  2  0  0  0  0  0  0
  181.0050  173.2600  136.6080 C   0  0  2  0  0  3  0  0  0  0  0  0
  181.9140  171.0330  135.8710 F   0  0  0  0  0  0  0  0  0  0  0  0
  180.8720  171.7620  136.4270 C   0  0  2  0  0  0  0  0  0  0  0  0
  180.1600  172.6820  135.4690 C   0  0  0  0  0  2  0  0  0  0  0  0
  180.0150  171.1140  137.3180 O   0  0  0  0  0  1  0  0  0  0  0  0
  1 32  1  6  0  0  0
  2  1  1  6  0  0  0
  2  7  1  0  0  0  0
  3  5  1  0  0  0  0
  4  8  1  6  0  0  0
  4  2  1  0  0  0  0
  4  6  1  0  0  0  0
  5 23  1  0  0  0  0
  6  3  2  0  0  0  0
  7  3  1  0  0  0  0
  8  9  1  0  0  0  0
 10 11  2  0  0  0  0
 12 11  1  0  0  0  0
 12  9  1  0  0  0  0
 13 11  1  6  0  0  0
 13 14  1  0  0  0  0
 13 18  1  0  0  0  0
 14 15  1  0  0  0  0
 15 19  1  0  0  0  0
 15 17  1  0  0  0  0
 16 17  1  0  0  0  0
 18 16  1  0  0  0  0
 19 21  1  0  0  0  0
 21 20  1  0  0  0  0
 22 21  2  0  0  0  0
 23 24  1  0  0  0  0
 25 28  1  0  0  0  0
 25 26  1  0  0  0  0
 26 24  1  0  0  0  0
 26 27  2  0  0  0  0
 28 29  2  0  0  0  0
 29 27  1  0  0  0  0
 30  1  1  0  0  0  0
 30 31  2  0  0  0  0
 33 32  1  0  0  0  0
 34 33  2  0  0  0  0
 35 34  1  0  0  0  0
 35 36  1  0  0  0  0
 37 49  1  6  0  0  0
 38 51  1  1  0  0  0
 38 45  1  0  0  0  0
 39 40  1  6  0  0  0
 39 45  1  0  0  0  0
 41 40  1  0  0  0  0
 42 43  1  0  0  0  0
 43 48  1  0  0  0  0
 44 42  1  0  0  0  0
 44 41  1  0  0  0  0
 46 38  1  0  0  0  0
 46 37  1  0  0  0  0
 46 36  1  1  0  0  0
 47 48  1  1  0  0  0
 47 39  1  0  0  0  0
 47 37  1  0  0  0  0
 50 49  1  0  0  0  0
 52 51  1  0  0  0  0
 53 52  1  6  0  0  0
 55 54  1  6  0  0  0
 55 53  1  0  0  0  0
 55 57  1  0  0  0  0
 56 55  1  0  0  0  0
 56 53  1  0  0  0  0
M  END
>  <MODEL>
6

>  <REMARK>
 VINA RESULT:      -6.3      4.203      7.984
  Name = 
  20 active torsions:
  status: ('A' for Active; 'I' for Inactive)
    1  A    between atoms: C_1  and  N_13
    2  A    between atoms: C_1  and  C_28
    3  A    between atoms: C_2  and  C_34
    4  A    between atoms: C_3  and  O_9
    5  A    between atoms: C_4  and  C_32
    6  A    between atoms: C_5  and  C_56
    7  A    between atoms: C_7  and  N_51
    8  A    between atoms: N_11  and  C_45
    9  A    between atoms: N_13  and  N_23
   10  A    between atoms: C_14  and  C_29
   11  A    between atoms: C_14  and  N_35
   12  A    between atoms: C_17  and  C_29
   13  A    between atoms: C_19  and  C_21
   14  A    between atoms: C_19  and  C_54
   15  A    between atoms: C_21  and  C_39
   16  A    between atoms: C_25  and  C_34
   17  A    between atoms: C_34  and  C_42
   18  A    between atoms: C_36  and  C_42
   19  A    between atoms: C_45  and  C_46
   20  A    between atoms: N_51  and  C_56
                            x       y       z     vdW  Elec       q    Type
                         _______ _______ _______ _____ _____    ______ ____

>  <TORSDO>
F 20

$$$$
=
 OpenBabel10232408153D

 57 62  0  0  1  0  0  0  0  0999 V2000
  189.8260  176.4350  135.6810 C   0  0  1  0  0  3  0  0  0  0  0  0
  190.1290  175.9340  137.1050 C   0  0  1  0  0  3  0  0  0  0  0  0
  190.2980  176.7420  139.4710 C   0  0  0  0  0  0  0  0  0  0  0  0
  191.5210  176.3880  137.5530 C   0  0  1  0  0  3  0  0  0  0  0  0
  190.0690  176.9150  140.8690 N   0  0  0  0  0  2  0  0  0  0  0  0
  191.4840  176.6050  138.9880 N   0  0  0  0  0  0  0  0  0  0  0  0
  188.9460  176.6060  138.3270 S   0  0  0  0  0  0  0  0  0  0  0  0
  192.6190  175.4020  137.1620 C   0  0  0  0  0  2  0  0  0  0  0  0
  193.1930  175.6730  135.7770 C   0  0  0  0  0  2  0  0  0  0  0  0
  195.7580  173.0850  135.5220 O   0  0  0  0  0  0  0  0  0  0  0  0
  195.2110  174.1630  135.8790 C   0  0  0  0  0  0  0  0  0  0  0  0
  193.9410  174.5120  135.3320 N   0  0  0  0  0  2  0  0  0  0  0  0
  195.9110  175.0740  136.8420 C   0  0  1  0  0  3  0  0  0  0  0  0
  196.1370  174.3960  138.2020 C   0  0  0  0  0  2  0  0  0  0  0  0
  197.3230  174.9690  138.8340 N   0  0  0  0  0  0  0  0  0  0  0  0
  198.2920  174.7400  136.5450 C   0  0  0  0  0  2  0  0  0  0  0  0
  198.5070  174.5770  138.0600 C   0  0  0  0  0  2  0  0  0  0  0  0
  197.1490  175.6160  136.2600 N   0  0  0  0  0  2  0  0  0  0  0  0
  197.4470  174.3710  140.1550 C   0  0  0  0  0  2  0  0  0  0  0  0
  197.5950  176.6400  140.8740 O   0  0  0  0  0  0  0  0  0  0  0  0
  197.7680  175.4260  141.1580 C   0  0  0  0  0  0  0  0  0  0  0  0
  198.3220  175.0710  142.3780 O   0  0  0  0  0  1  0  0  0  0  0  0
  191.1290  177.0720  141.7730 N   0  0  0  0  0  2  0  0  0  0  0  0
  190.8130  178.2280  142.6010 C   0  0  0  0  0  2  0  0  0  0  0  0
  188.8270  177.6790  143.9720 O   0  0  0  0  0  0  0  0  0  0  0  0
  190.1260  177.7870  143.8480 C   0  0  0  0  0  0  0  0  0  0  0  0
  190.7580  177.4700  145.0290 C   0  0  0  0  0  3  0  0  0  0  0  0
  188.5490  177.2900  145.1940 C   0  0  0  0  0  3  0  0  0  0  0  0
  189.7330  177.1430  145.9010 C   0  0  0  0  0  3  0  0  0  0  0  0
  189.6080  175.3090  134.6990 C   0  0  0  0  0  3  0  0  0  0  0  0
  189.8710  174.0360  134.9940 C   0  0  0  0  0  2  0  0  0  0  0  0
  188.7110  177.4900  135.5980 C   0  0  0  0  0  2  0  0  0  0  0  0
  187.7700  177.2610  134.4460 C   0  0  0  0  0  3  0  0  0  0  0  0
  186.4400  177.3200  134.5820 C   0  0  0  0  0  3  0  0  0  0  0  0
  185.7820  177.6290  135.8910 C   0  0  0  0  0  2  0  0  0  0  0  0
  185.9020  176.4440  136.8250 C   0  0  0  0  0  2  0  0  0  0  0  0
  184.3250  178.0030  138.0100 C   0  0  1  0  0  3  0  0  0  0  0  0
  183.6340  175.5570  137.7250 C   0  0  2  0  0  3  0  0  0  0  0  0
  181.9140  177.1700  138.2000 C   0  0  2  0  0  3  0  0  0  0  0  0
  181.1960  176.4240  139.3270 C   0  0  0  0  0  2  0  0  0  0  0  0
  179.9880  177.2160  139.8130 C   0  0  0  0  0  2  0  0  0  0  0  0
  181.3080  179.2110  140.7510 C   0  0  0  0  0  2  0  0  0  0  0  0
  181.2070  179.6580  139.4240 O   0  0  0  0  0  0  0  0  0  0  0  0
  180.2990  178.0920  141.0280 C   0  0  0  0  0  2  0  0  0  0  0  0
  182.4420  176.2260  137.2030 N   0  0  0  0  0  2  0  0  0  0  0  0
  184.8170  176.5460  137.8950 C   0  0  1  0  0  3  0  0  0  0  0  0
  182.9960  178.1040  138.7800 C   0  0  2  0  0  3  0  0  0  0  0  0
  182.4980  179.5560  138.8630 C   0  0  0  0  0  2  0  0  0  0  0  0
  185.3230  178.8960  138.4730 O   0  0  0  0  0  0  0  0  0  0  0  0
  185.9070  178.3660  139.6400 C   0  0  0  0  0  1  0  0  0  0  0  0
  183.9460  174.3240  136.8870 C   0  0  0  0  0  2  0  0  0  0  0  0
  182.7720  173.9130  136.1280 N   0  0  0  0  0  2  0  0  0  0  0  0
  182.4040  172.5710  136.5780 C   0  0  2  0  0  3  0  0  0  0  0  0
  184.0540  171.9350  134.7890 F   0  0  0  0  0  0  0  0  0  0  0  0
  183.1610  171.5350  135.7720 C   0  0  2  0  0  0  0  0  0  0  0  0
  181.7110  171.7930  135.4540 C   0  0  0  0  0  2  0  0  0  0  0  0
  183.3830  170.3110  136.4070 O   0  0  0  0  0  1  0  0  0  0  0  0
  1 30  1  6  0  0  0
  2  1  1  6  0  0  0
  2  4  1  0  0  0  0
  2  7  1  0  0  0  0
  3  5  1  0  0  0  0
  4  8  1  1  0  0  0
  4  6  1  0  0  0  0
  5 23  1  0  0  0  0
  6  3  2  0  0  0  0
  7  3  1  0  0  0  0
  9  8  1  0  0  0  0
 10 11  2  0  0  0  0
 12  9  1  0  0  0  0
 12 11  1  0  0  0  0
 13 11  1  6  0  0  0
 13 14  1  0  0  0  0
 14 15  1  0  0  0  0
 15 19  1  0  0  0  0
 16 17  1  0  0  0  0
 17 15  1  0  0  0  0
 18 16  1  0  0  0  0
 18 13  1  0  0  0  0
 19 21  1  0  0  0  0
 20 21  2  0  0  0  0
 21 22  1  0  0  0  0
 23 24  1  0  0  0  0
 24 26  1  0  0  0  0
 25 28  1  0  0  0  0
 26 25  1  0  0  0  0
 26 27  2  0  0  0  0
 27 29  1  0  0  0  0
 28 29  2  0  0  0  0
 30 31  2  0  0  0  0
 32  1  1  0  0  0  0
 33 34  2  0  0  0  0
 33 32  1  0  0  0  0
 34 35  1  0  0  0  0
 35 36  1  0  0  0  0
 37 49  1  1  0  0  0
 37 47  1  0  0  0  0
 38 51  1  6  0  0  0
 38 46  1  0  0  0  0
 39 47  1  0  0  0  0
 39 40  1  1  0  0  0
 40 41  1  0  0  0  0
 41 44  1  0  0  0  0
 42 44  1  0  0  0  0
 43 42  1  0  0  0  0
 45 38  1  0  0  0  0
 45 39  1  0  0  0  0
 46 36  1  6  0  0  0
 46 37  1  0  0  0  0
 47 48  1  6  0  0  0
 48 43  1  0  0  0  0
 49 50  1  0  0  0  0
 52 51  1  0  0  0  0
 53 52  1  6  0  0  0
 55 54  1  6  0  0  0
 55 57  1  0  0  0  0
 55 53  1  0  0  0  0
 56 55  1  0  0  0  0
 56 53  1  0  0  0  0
M  END
>  <MODEL>
7

>  <REMARK>
 VINA RESULT:      -6.0      3.745     11.145
  Name = 
  20 active torsions:
  status: ('A' for Active; 'I' for Inactive)
    1  A    between atoms: C_1  and  N_13
    2  A    between atoms: C_1  and  C_28
    3  A    between atoms: C_2  and  C_34
    4  A    between atoms: C_3  and  O_9
    5  A    between atoms: C_4  and  C_32
    6  A    between atoms: C_5  and  C_56
    7  A    between atoms: C_7  and  N_51
    8  A    between atoms: N_11  and  C_45
    9  A    between atoms: N_13  and  N_23
   10  A    between atoms: C_14  and  C_29
   11  A    between atoms: C_14  and  N_35
   12  A    between atoms: C_17  and  C_29
   13  A    between atoms: C_19  and  C_21
   14  A    between atoms: C_19  and  C_54
   15  A    between atoms: C_21  and  C_39
   16  A    between atoms: C_25  and  C_34
   17  A    between atoms: C_34  and  C_42
   18  A    between atoms: C_36  and  C_42
   19  A    between atoms: C_45  and  C_46
   20  A    between atoms: N_51  and  C_56
                            x       y       z     vdW  Elec       q    Type
                         _______ _______ _______ _____ _____    ______ ____

>  <TORSDO>
F 20

$$$$
=
 OpenBabel10232408153D

 57 62  0  0  1  0  0  0  0  0999 V2000
  190.8080  176.1980  136.4160 C   0  0  1  0  0  3  0  0  0  0  0  0
  190.8130  176.0080  137.9450 C   0  0  1  0  0  3  0  0  0  0  0  0
  189.9460  177.0510  140.0520 C   0  0  0  0  0  0  0  0  0  0  0  0
  191.7430  177.0240  138.6130 C   0  0  1  0  0  3  0  0  0  0  0  0
  189.2500  177.2590  141.2810 N   0  0  0  0  0  2  0  0  0  0  0  0
  191.1900  177.3520  139.9140 N   0  0  0  0  0  0  0  0  0  0  0  0
  189.1530  176.2700  138.6660 S   0  0  0  0  0  0  0  0  0  0  0  0
  193.1810  176.5260  138.7230 C   0  0  0  0  0  2  0  0  0  0  0  0
  193.4730  175.3500  137.7980 C   0  0  0  0  0  2  0  0  0  0  0  0
  196.2500  175.6210  135.4400 O   0  0  0  0  0  0  0  0  0  0  0  0
  195.6160  175.2620  136.4680 C   0  0  0  0  0  0  0  0  0  0  0  0
  194.3150  175.7980  136.7040 N   0  0  0  0  0  2  0  0  0  0  0  0
  196.2440  174.3100  137.4400 C   0  0  1  0  0  3  0  0  0  0  0  0
  196.3200  172.8860  136.8710 C   0  0  0  0  0  2  0  0  0  0  0  0
  197.4550  172.1880  137.4710 N   0  0  0  0  0  0  0  0  0  0  0  0
  198.6330  174.3460  137.0400 C   0  0  0  0  0  2  0  0  0  0  0  0
  198.6970  172.8090  136.9950 C   0  0  0  0  0  2  0  0  0  0  0  0
  197.5460  174.8090  137.9110 N   0  0  0  0  0  2  0  0  0  0  0  0
  197.4350  170.8180  136.9790 C   0  0  0  0  0  2  0  0  0  0  0  0
  195.6310  170.1560  138.3900 O   0  0  0  0  0  1  0  0  0  0  0  0
  196.0950  170.2140  137.2210 C   0  0  0  0  0  0  0  0  0  0  0  0
  195.3900  169.6550  136.1670 O   0  0  0  0  0  0  0  0  0  0  0  0
  189.8520  177.9170  142.3620 N   0  0  0  0  0  2  0  0  0  0  0  0
  190.0760  176.9170  143.3960 C   0  0  0  0  0  2  0  0  0  0  0  0
  187.9140  177.3820  144.5070 O   0  0  0  0  0  0  0  0  0  0  0  0
  189.2080  177.2000  144.5740 C   0  0  0  0  0  0  0  0  0  0  0  0
  189.6540  177.3370  145.8700 C   0  0  0  0  0  3  0  0  0  0  0  0
  187.4570  177.6290  145.7120 C   0  0  0  0  0  3  0  0  0  0  0  0
  188.5150  177.6110  146.6080 C   0  0  0  0  0  3  0  0  0  0  0  0
  190.6870  174.8940  135.6650 C   0  0  0  0  0  3  0  0  0  0  0  0
  191.6290  174.4550  134.8310 C   0  0  0  0  0  2  0  0  0  0  0  0
  189.8060  177.2470  135.9070 C   0  0  0  0  0  2  0  0  0  0  0  0
  189.0850  176.8130  134.6590 C   0  0  0  0  0  3  0  0  0  0  0  0
  187.8080  176.4100  134.6700 C   0  0  0  0  0  3  0  0  0  0  0  0
  186.9930  176.3700  135.9250 C   0  0  0  0  0  2  0  0  0  0  0  0
  185.8050  177.3000  135.8040 C   0  0  0  0  0  2  0  0  0  0  0  0
  184.5010  178.3870  137.6570 C   0  0  1  0  0  3  0  0  0  0  0  0
  183.5910  176.2280  136.6330 C   0  0  2  0  0  3  0  0  0  0  0  0
  182.0690  177.6230  137.8670 C   0  0  2  0  0  3  0  0  0  0  0  0
  181.4270  176.5500  138.7480 C   0  0  0  0  0  2  0  0  0  0  0  0
  180.3480  177.1580  139.6370 C   0  0  0  0  0  2  0  0  0  0  0  0
  181.9190  178.6420  141.0250 C   0  0  0  0  0  2  0  0  0  0  0  0
  181.7040  179.5350  139.9640 O   0  0  0  0  0  0  0  0  0  0  0  0
  180.8630  177.5330  141.0270 C   0  0  0  0  0  2  0  0  0  0  0  0
  182.4040  177.0790  136.5420 N   0  0  0  0  0  2  0  0  0  0  0  0
  184.8600  177.0520  136.9770 C   0  0  1  0  0  3  0  0  0  0  0  0
  183.2790  178.2530  138.5860 C   0  0  2  0  0  3  0  0  0  0  0  0
  182.9110  179.5960  139.2360 C   0  0  0  0  0  2  0  0  0  0  0  0
  185.6120  179.0230  138.2650 O   0  0  0  0  0  0  0  0  0  0  0  0
  185.8700  178.4090  139.5060 C   0  0  0  0  0  1  0  0  0  0  0  0
  183.7070  175.3640  135.3850 C   0  0  0  0  0  2  0  0  0  0  0  0
  184.3190  174.0810  135.7070 N   0  0  0  0  0  2  0  0  0  0  0  0
  183.2580  173.0750  135.7120 C   0  0  2  0  0  3  0  0  0  0  0  0
  184.5150  172.3140  137.7530 F   0  0  0  0  0  0  0  0  0  0  0  0
  183.4520  172.1310  136.8810 C   0  0  2  0  0  0  0  0  0  0  0  0
  183.8380  171.6730  135.4980 C   0  0  0  0  0  2  0  0  0  0  0  0
  182.2960  171.5190  137.3680 O   0  0  0  0  0  1  0  0  0  0  0  0
  1 30  1  6  0  0  0
  2  1  1  6  0  0  0
  2  4  1  0  0  0  0
  2  7  1  0  0  0  0
  3  5  1  0  0  0  0
  4  8  1  1  0  0  0
  4  6  1  0  0  0  0
  5 23  1  0  0  0  0
  6  3  2  0  0  0  0
  7  3  1  0  0  0  0
  9  8  1  0  0  0  0
 10 11  2  0  0  0  0
 11 12  1  0  0  0  0
 12  9  1  0  0  0  0
 13 11  1  6  0  0  0
 13 18  1  0  0  0  0
 14 13  1  0  0  0  0
 14 15  1  0  0  0  0
 16 18  1  0  0  0  0
 17 16  1  0  0  0  0
 17 15  1  0  0  0  0
 19 21  1  0  0  0  0
 19 15  1  0  0  0  0
 21 20  1  0  0  0  0
 22 21  2  0  0  0  0
 23 24  1  0  0  0  0
 24 26  1  0  0  0  0
 25 26  1  0  0  0  0
 25 28  1  0  0  0  0
 26 27  2  0  0  0  0
 27 29  1  0  0  0  0
 28 29  2  0  0  0  0
 31 30  2  0  0  0  0
 32  1  1  0  0  0  0
 33 34  2  0  0  0  0
 33 32  1  0  0  0  0
 34 35  1  0  0  0  0
 36 35  1  0  0  0  0
 37 49  1  1  0  0  0
 37 47  1  0  0  0  0
 38 51  1  6  0  0  0
 38 46  1  0  0  0  0
 39 47  1  0  0  0  0
 39 40  1  1  0  0  0
 40 41  1  0  0  0  0
 41 44  1  0  0  0  0
 42 44  1  0  0  0  0
 43 42  1  0  0  0  0
 45 38  1  0  0  0  0
 45 39  1  0  0  0  0
 46 36  1  6  0  0  0
 46 37  1  0  0  0  0
 47 48  1  6  0  0  0
 48 43  1  0  0  0  0
 49 50  1  0  0  0  0
 51 52  1  0  0  0  0
 53 52  1  1  0  0  0
 53 55  1  0  0  0  0
 55 57  1  1  0  0  0
 55 54  1  0  0  0  0
 56 53  1  0  0  0  0
 56 55  1  0  0  0  0
M  END
>  <MODEL>
8

>  <REMARK>
 VINA RESULT:      -6.0      3.295     11.001
  Name = 
  20 active torsions:
  status: ('A' for Active; 'I' for Inactive)
    1  A    between atoms: C_1  and  N_13
    2  A    between atoms: C_1  and  C_28
    3  A    between atoms: C_2  and  C_34
    4  A    between atoms: C_3  and  O_9
    5  A    between atoms: C_4  and  C_32
    6  A    between atoms: C_5  and  C_56
    7  A    between atoms: C_7  and  N_51
    8  A    between atoms: N_11  and  C_45
    9  A    between atoms: N_13  and  N_23
   10  A    between atoms: C_14  and  C_29
   11  A    between atoms: C_14  and  N_35
   12  A    between atoms: C_17  and  C_29
   13  A    between atoms: C_19  and  C_21
   14  A    between atoms: C_19  and  C_54
   15  A    between atoms: C_21  and  C_39
   16  A    between atoms: C_25  and  C_34
   17  A    between atoms: C_34  and  C_42
   18  A    between atoms: C_36  and  C_42
   19  A    between atoms: C_45  and  C_46
   20  A    between atoms: N_51  and  C_56
                            x       y       z     vdW  Elec       q    Type
                         _______ _______ _______ _____ _____    ______ ____

>  <TORSDO>
F 20

$$$$
=
 OpenBabel10232408153D

 57 62  0  0  1  0  0  0  0  0999 V2000
  182.0370  179.1490  140.1380 C   0  0  1  0  0  3  0  0  0  0  0  0
  182.5950  178.8420  138.7360 C   0  0  1  0  0  3  0  0  0  0  0  0
  182.6000  177.0570  136.9770 C   0  0  0  0  0  0  0  0  0  0  0  0
  183.7410  177.8310  138.8200 C   0  0  1  0  0  3  0  0  0  0  0  0
  182.4130  176.3600  135.7450 N   0  0  0  0  0  2  0  0  0  0  0  0
  183.7180  177.0200  137.6160 N   0  0  0  0  0  0  0  0  0  0  0  0
  181.3270  178.0990  137.6480 S   0  0  0  0  0  0  0  0  0  0  0  0
  185.1010  178.4930  139.0240 C   0  0  0  0  0  2  0  0  0  0  0  0
  186.2260  177.7760  138.2880 C   0  0  0  0  0  2  0  0  0  0  0  0
  189.3560  179.2630  137.1330 O   0  0  0  0  0  0  0  0  0  0  0  0
  188.4580  178.3920  137.2850 C   0  0  0  0  0  0  0  0  0  0  0  0
  187.3580  178.6730  138.1500 N   0  0  0  0  0  2  0  0  0  0  0  0
  188.5700  177.0720  136.5850 C   0  0  1  0  0  3  0  0  0  0  0  0
  189.7050  177.0710  135.5520 C   0  0  0  0  0  2  0  0  0  0  0  0
  190.2160  175.7110  135.4000 N   0  0  0  0  0  0  0  0  0  0  0  0
  190.0740  175.6930  137.8920 C   0  0  0  0  0  2  0  0  0  0  0  0
  190.8920  175.3170  136.6420 C   0  0  0  0  0  2  0  0  0  0  0  0
  188.6730  175.9640  137.5500 N   0  0  0  0  0  2  0  0  0  0  0  0
  191.2220  175.7370  134.3460 C   0  0  0  0  0  2  0  0  0  0  0  0
  193.5050  175.4310  134.9630 O   0  0  0  0  0  1  0  0  0  0  0  0
  192.3870  174.8960  134.7400 C   0  0  0  0  0  0  0  0  0  0  0  0
  192.2550  173.5170  134.7950 O   0  0  0  0  0  0  0  0  0  0  0  0
  183.3920  175.4980  135.2330 N   0  0  0  0  0  2  0  0  0  0  0  0
  182.7000  174.5020  134.4260 C   0  0  0  0  0  2  0  0  0  0  0  0
  181.1630  173.5920  136.1400 O   0  0  0  0  0  0  0  0  0  0  0  0
  182.1560  173.4260  135.3030 C   0  0  0  0  0  0  0  0  0  0  0  0
  182.6420  172.1390  135.3700 C   0  0  0  0  0  3  0  0  0  0  0  0
  180.9460  172.4620  136.7700 C   0  0  0  0  0  3  0  0  0  0  0  0
  181.8520  171.5130  136.3200 C   0  0  0  0  0  3  0  0  0  0  0  0
  180.5520  178.8960  140.2440 C   0  0  0  0  0  3  0  0  0  0  0  0
  180.0360  177.9710  141.0530 C   0  0  0  0  0  2  0  0  0  0  0  0
  182.8120  178.4930  141.2920 C   0  0  0  0  0  2  0  0  0  0  0  0
  182.3690  178.9760  142.6460 C   0  0  0  0  0  3  0  0  0  0  0  0
  183.0950  178.7760  143.7540 C   0  0  0  0  0  3  0  0  0  0  0  0
  184.4120  178.0650  143.7290 C   0  0  0  0  0  2  0  0  0  0  0  0
  185.4690  178.9470  143.1020 C   0  0  0  0  0  2  0  0  0  0  0  0
  186.3990  178.4700  145.3890 C   0  0  1  0  0  3  0  0  0  0  0  0
  187.8520  177.9500  143.3500 C   0  0  2  0  0  3  0  0  0  0  0  0
  188.4060  176.8860  145.4360 C   0  0  2  0  0  3  0  0  0  0  0  0
  189.9090  177.1710  145.4540 C   0  0  0  0  0  2  0  0  0  0  0  0
  190.5600  176.5510  146.6850 C   0  0  0  0  0  2  0  0  0  0  0  0
  189.3450  178.0080  148.4180 C   0  0  0  0  0  2  0  0  0  0  0  0
  188.3680  177.0070  148.2940 O   0  0  0  0  0  0  0  0  0  0  0  0
  190.6870  177.5340  147.8500 C   0  0  0  0  0  2  0  0  0  0  0  0
  187.9320  176.6720  144.0590 N   0  0  0  0  0  2  0  0  0  0  0  0
  186.7440  178.8620  143.9380 C   0  0  1  0  0  3  0  0  0  0  0  0
  187.6400  178.0040  146.1720 C   0  0  2  0  0  3  0  0  0  0  0  0
  187.2810  177.5870  147.6070 C   0  0  0  0  0  2  0  0  0  0  0  0
  185.6320  179.4510  146.0660 O   0  0  0  0  0  0  0  0  0  0  0  0
  184.8230  178.8190  147.0290 C   0  0  0  0  0  1  0  0  0  0  0  0
  187.7530  177.7060  141.8500 C   0  0  0  0  0  2  0  0  0  0  0  0
  188.9800  178.1200  141.1830 N   0  0  0  0  0  2  0  0  0  0  0  0
  189.9280  177.0110  141.2760 C   0  0  2  0  0  3  0  0  0  0  0  0
  191.1190  178.6580  142.7600 F   0  0  0  0  0  0  0  0  0  0  0  0
  191.0890  177.4030  142.1680 C   0  0  2  0  0  0  0  0  0  0  0  0
  191.2820  177.4020  140.6730 C   0  0  0  0  0  2  0  0  0  0  0  0
  191.7430  176.3530  142.8150 O   0  0  0  0  0  1  0  0  0  0  0  0
  1 30  1  6  0  0  0
  1 32  1  0  0  0  0
  2  4  1  0  0  0  0
  2  1  1  1  0  0  0
  3  6  2  0  0  0  0
  3  7  1  0  0  0  0
  4  8  1  6  0  0  0
  5  3  1  0  0  0  0
  6  4  1  0  0  0  0
  7  2  1  0  0  0  0
  9  8  1  0  0  0  0
 10 11  2  0  0  0  0
 11 12  1  0  0  0  0
 12  9  1  0  0  0  0
 13 11  1  1  0  0  0
 13 18  1  0  0  0  0
 14 13  1  0  0  0  0
 15 14  1  0  0  0  0
 15 17  1  0  0  0  0
 17 16  1  0  0  0  0
 18 16  1  0  0  0  0
 19 21  1  0  0  0  0
 19 15  1  0  0  0  0
 21 22  2  0  0  0  0
 21 20  1  0  0  0  0
 23  5  1  0  0  0  0
 24 23  1  0  0  0  0
 24 26  1  0  0  0  0
 25 28  1  0  0  0  0
 26 27  2  0  0  0  0
 26 25  1  0  0  0  0
 27 29  1  0  0  0  0
 29 28  2  0  0  0  0
 30 31  2  0  0  0  0
 32 33  1  0  0  0  0
 33 34  2  0  0  0  0
 35 34  1  0  0  0  0
 36 35  1  0  0  0  0
 37 49  1  1  0  0  0
 37 47  1  0  0  0  0
 38 51  1  6  0  0  0
 38 46  1  0  0  0  0
 38 45  1  0  0  0  0
 39 40  1  6  0  0  0
 39 47  1  0  0  0  0
 40 41  1  0  0  0  0
 41 44  1  0  0  0  0
 43 42  1  0  0  0  0
 44 42  1  0  0  0  0
 45 39  1  0  0  0  0
 46 36  1  6  0  0  0
 46 37  1  0  0  0  0
 47 48  1  1  0  0  0
 48 43  1  0  0  0  0
 49 50  1  0  0  0  0
 52 51  1  0  0  0  0
 53 52  1  6  0  0  0
 53 55  1  0  0  0  0
 55 54  1  1  0  0  0
 55 57  1  0  0  0  0
 56 53  1  0  0  0  0
 56 55  1  0  0  0  0
M  END
>  <MODEL>
9

>  <REMARK>
 VINA RESULT:      -5.8      3.753     11.172
  Name = 
  20 active torsions:
  status: ('A' for Active; 'I' for Inactive)
    1  A    between atoms: C_1  and  N_13
    2  A    between atoms: C_1  and  C_28
    3  A    between atoms: C_2  and  C_34
    4  A    between atoms: C_3  and  O_9
    5  A    between atoms: C_4  and  C_32
    6  A    between atoms: C_5  and  C_56
    7  A    between atoms: C_7  and  N_51
    8  A    between atoms: N_11  and  C_45
    9  A    between atoms: N_13  and  N_23
   10  A    between atoms: C_14  and  C_29
   11  A    between atoms: C_14  and  N_35
   12  A    between atoms: C_17  and  C_29
   13  A    between atoms: C_19  and  C_21
   14  A    between atoms: C_19  and  C_54
   15  A    between atoms: C_21  and  C_39
   16  A    between atoms: C_25  and  C_34
   17  A    between atoms: C_34  and  C_42
   18  A    between atoms: C_36  and  C_42
   19  A    between atoms: C_45  and  C_46
   20  A    between atoms: N_51  and  C_56
                            x       y       z     vdW  Elec       q    Type
                         _______ _______ _______ _____ _____    ______ ____

>  <TORSDO>
F 20

$$$$
