=
 OpenBabel10232410363D

 50 56  0  0  1  0  0  0  0  0999 V2000
  181.0020  179.4110  139.0140 C   0  0  1  0  0  3  0  0  0  0  0  0
  184.4210  176.9570  138.1960 C   0  0  0  0  0  2  0  0  0  0  0  0
  180.2330  177.8470  137.3870 C   0  0  0  0  0  2  0  0  0  0  0  0
  182.3400  178.6770  139.2120 C   0  0  2  0  0  3  0  0  0  0  0  0
  181.5220  177.0240  137.3940 C   0  0  2  0  0  3  0  0  0  0  0  0
  183.3680  176.4170  138.9520 O   0  0  0  0  0  0  0  0  0  0  0  0
  182.2080  177.2060  138.7640 C   0  0  1  0  0  3  0  0  0  0  0  0
  182.3990  177.4450  136.2100 C   0  0  0  0  0  2  0  0  0  0  0  0
  183.5260  176.4850  135.9730 C   0  0  0  0  0  3  0  0  0  0  0  0
  184.4920  176.2680  136.8700 C   0  0  0  0  0  0  0  0  0  0  0  0
  181.1660  180.8280  139.3050 N   0  0  0  0  0  1  0  0  0  0  0  0
  180.5230  179.2590  137.6400 N   0  0  0  0  0  2  0  0  0  0  0  0
  185.5900  175.3120  136.5880 C   0  0  0  0  0  0  0  0  0  0  0  0
  184.7140  173.2720  137.7530 N   0  0  0  0  0  1  0  0  0  0  0  0
  185.6750  173.9810  136.9770 C   0  0  0  0  0  0  0  0  0  0  0  0
  186.8310  173.4350  136.5600 N   0  0  0  0  0  0  0  0  0  0  0  0
  186.7760  175.5220  135.8960 C   0  0  0  0  0  0  0  0  0  0  0  0
  187.4880  174.3760  135.9000 N   0  0  0  0  0  0  0  0  0  0  0  0
  187.2100  176.7800  135.2190 C   0  0  0  0  0  1  0  0  0  0  0  0
  188.7990  174.1710  135.3060 C   0  0  0  0  0  2  0  0  0  0  0  0
  189.9420  173.4770  136.5350 S   0  0  0  0  0  0  0  0  0  0  0  0
  192.5240  176.3910  138.3920 S   0  0  0  0  0  0  0  0  0  0  0  0
  189.9210  175.8550  137.8910 C   0  0  0  0  0  2  0  0  0  0  0  0
  192.1000  174.8990  137.4350 C   0  0  0  0  0  2  0  0  0  0  0  0
  190.8090  177.0010  138.3230 C   0  0  1  0  0  3  0  0  0  0  0  0
  190.7140  175.0890  136.8600 C   0  0  1  0  0  3  0  0  0  0  0  0
  190.3940  177.4880  139.6380 N   0  0  0  0  0  2  0  0  0  0  0  0
  189.0230  178.0020  139.5870 C   0  0  2  0  0  3  0  0  0  0  0  0
  188.9420  179.1320  138.7630 O   0  0  0  0  0  1  0  0  0  0  0  0
  188.4900  178.3120  140.9820 C   0  0  0  0  0  1  0  0  0  0  0  0
  184.5770  178.9970  142.2790 C   0  0  0  0  0  3  0  0  0  0  0  0
  183.6300  178.9510  143.3120 C   0  0  0  0  0  0  0  0  0  0  0  0
  182.2730  178.8110  143.0010 C   0  0  0  0  0  3  0  0  0  0  0  0
  181.8640  178.7190  141.6670 C   0  0  0  0  0  3  0  0  0  0  0  0
  182.8090  178.7630  140.6350 C   0  0  0  0  0  0  0  0  0  0  0  0
  184.1710  178.9020  140.9450 C   0  0  0  0  0  3  0  0  0  0  0  0
  184.0320  179.0380  144.6800 N   0  0  0  0  0  2  0  0  0  0  0  0
  185.3400  179.3990  145.0390 N   0  0  0  0  0  0  0  0  0  0  0  0
  185.1250  177.2670  146.1770 O   0  0  0  0  0  1  0  0  0  0  0  0
  185.8970  178.4090  145.9330 C   0  0  2  0  0  0  0  0  0  0  0  0
  185.3450  179.5440  146.4250 O   0  0  0  0  0  0  0  0  0  0  0  0
  187.4140  178.3540  146.0060 C   0  0  2  0  0  3  0  0  0  0  0  0
  189.0800  177.4020  147.1440 C   0  0  0  0  0  2  0  0  0  0  0  0
  187.9480  177.3130  145.0530 C   0  0  0  0  0  2  0  0  0  0  0  0
  187.8280  178.0160  147.3040 O   0  0  0  0  0  0  0  0  0  0  0  0
  189.1530  176.7740  145.7660 C   0  0  1  0  0  3  0  0  0  0  0  0
  190.4990  178.9270  144.4210 O   0  0  0  0  0  1  0  0  0  0  0  0
  191.9830  177.2050  145.9870 O   0  0  0  0  0  1  0  0  0  0  0  0
  190.6710  177.3200  144.9240 P   0  0  0  0  0  0  0  0  0  0  0  0
  190.9280  176.4480  143.7180 O   0  0  0  0  0  0  0  0  0  0  0  0
  1  4  1  0  0  0  0
  1 11  1  6  0  0  0
  2  6  1  0  0  0  0
  3  5  1  0  0  0  0
  3 12  1  0  0  0  0
  4 35  1  1  0  0  0
  5  8  1  6  0  0  0
  5  7  1  0  0  0  0
  7  6  1  6  0  0  0
  7  4  1  0  0  0  0
  9  8  1  0  0  0  0
  9 10  2  0  0  0  0
 10  2  1  0  0  0  0
 12  1  1  0  0  0  0
 13 10  1  0  0  0  0
 13 15  1  0  0  0  0
 15 14  1  0  0  0  0
 16 15  2  0  0  0  0
 17 18  1  0  0  0  0
 17 13  2  0  0  0  0
 18 16  1  0  0  0  0
 19 17  1  0  0  0  0
 20 18  1  0  0  0  0
 20 21  1  0  0  0  0
 23 25  1  0  0  0  0
 24 22  1  0  0  0  0
 25 22  1  0  0  0  0
 25 27  1  1  0  0  0
 26 21  1  1  0  0  0
 26 24  1  0  0  0  0
 26 23  1  0  0  0  0
 28 27  1  0  0  0  0
 28 30  1  1  0  0  0
 29 28  1  0  0  0  0
 31 32  1  0  0  0  0
 32 37  1  0  0  0  0
 33 32  2  0  0  0  0
 34 33  1  0  0  0  0
 35 36  1  0  0  0  0
 35 34  2  0  0  0  0
 36 31  2  0  0  0  0
 37 38  1  0  0  0  0
 38 40  1  0  0  0  0
 38 41  1  0  0  0  0
 40 42  1  0  0  0  0
 40 39  1  1  0  0  0
 40 41  1  0  0  0  0
 42 44  1  6  0  0  0
 42 45  1  0  0  0  0
 43 45  1  0  0  0  0
 44 46  1  0  0  0  0
 46 49  1  6  0  0  0
 46 43  1  0  0  0  0
 47 49  1  0  0  0  0
 49 48  1  0  0  0  0
 50 49  2  0  0  0  0
M  END
>  <MODEL>
1

>  <REMARK>
 VINA RESULT:      -8.3      0.000      0.000
  Name = 
  11 active torsions:
  status: ('A' for Active; 'I' for Inactive)
    1  A    between atoms: C_1  and  C_44
    2  A    between atoms: C_4  and  C_31
    3  A    between atoms: N_5  and  C_12
    4  A    between atoms: N_5  and  C_41
    5  A    between atoms: N_6  and  C_7
    6  A    between atoms: N_6  and  N_15
    7  A    between atoms: S_9  and  C_47
    8  A    between atoms: S_9  and  C_50
    9  A    between atoms: C_26  and  C_32
   10  A    between atoms: C_27  and  P_28
   11  A    between atoms: N_39  and  C_50
                            x       y       z     vdW  Elec       q    Type
                         _______ _______ _______ _____ _____    ______ ____

>  <TORSDO>
F 11

$$$$
=
 OpenBabel10232410363D

 50 56  0  0  1  0  0  0  0  0999 V2000
  181.9260  177.6370  136.2880 C   0  0  1  0  0  3  0  0  0  0  0  0
  183.3310  177.7770  140.3350 C   0  0  0  0  0  2  0  0  0  0  0  0
  181.0210  179.6640  137.1600 C   0  0  0  0  0  2  0  0  0  0  0  0
  182.8120  177.4020  137.5230 C   0  0  2  0  0  3  0  0  0  0  0  0
  181.7730  179.5680  138.4880 C   0  0  2  0  0  3  0  0  0  0  0  0
  183.9020  178.6470  139.3930 O   0  0  0  0  0  0  0  0  0  0  0  0
  183.0510  178.7340  138.2650 C   0  0  1  0  0  3  0  0  0  0  0  0
  180.8410  178.9860  139.5570 C   0  0  0  0  0  2  0  0  0  0  0  0
  181.4000  179.1450  140.9390 C   0  0  0  0  0  3  0  0  0  0  0  0
  182.5380  178.5660  141.3300 C   0  0  0  0  0  0  0  0  0  0  0  0
  181.5880  176.3640  135.6700 N   0  0  0  0  0  1  0  0  0  0  0  0
  180.6910  178.3300  136.6580 N   0  0  0  0  0  2  0  0  0  0  0  0
  183.0480  178.7460  142.7100 C   0  0  0  0  0  0  0  0  0  0  0  0
  180.9050  178.5770  144.0000 N   0  0  0  0  0  1  0  0  0  0  0  0
  182.3160  178.7410  143.8900 C   0  0  0  0  0  0  0  0  0  0  0  0
  183.1150  178.9600  144.9490 N   0  0  0  0  0  0  0  0  0  0  0  0
  184.3500  178.9740  143.1390 C   0  0  0  0  0  0  0  0  0  0  0  0
  184.3470  179.0950  144.4830 N   0  0  0  0  0  0  0  0  0  0  0  0
  185.5760  179.0470  142.2900 C   0  0  0  0  0  1  0  0  0  0  0  0
  185.4990  179.3610  145.3290 C   0  0  0  0  0  2  0  0  0  0  0  0
  185.3390  178.4700  146.9040 S   0  0  0  0  0  0  0  0  0  0  0  0
  189.4900  177.3040  147.0710 S   0  0  0  0  0  0  0  0  0  0  0  0
  187.5170  177.9370  145.3320 C   0  0  0  0  0  2  0  0  0  0  0  0
  187.8260  177.6710  147.7210 C   0  0  0  0  0  2  0  0  0  0  0  0
  188.8850  177.2930  145.3520 C   0  0  1  0  0  3  0  0  0  0  0  0
  186.8310  177.4800  146.5980 C   0  0  1  0  0  3  0  0  0  0  0  0
  189.8030  178.0400  144.4920 N   0  0  0  0  0  2  0  0  0  0  0  0
  189.8320  177.4600  143.1460 C   0  0  2  0  0  3  0  0  0  0  0  0
  189.1810  178.2940  142.2270 O   0  0  0  0  0  1  0  0  0  0  0  0
  189.2280  176.0600  143.1270 C   0  0  0  0  0  1  0  0  0  0  0  0
  185.6430  174.8730  137.1910 C   0  0  0  0  0  3  0  0  0  0  0  0
  186.5520  175.5870  136.3970 C   0  0  0  0  0  0  0  0  0  0  0  0
  186.2390  176.8860  135.9820 C   0  0  0  0  0  3  0  0  0  0  0  0
  185.0230  177.4680  136.3560 C   0  0  0  0  0  3  0  0  0  0  0  0
  184.1150  176.7570  137.1500 C   0  0  0  0  0  0  0  0  0  0  0  0
  184.4290  175.4550  137.5680 C   0  0  0  0  0  3  0  0  0  0  0  0
  187.8000  175.0080  136.0110 N   0  0  0  0  0  2  0  0  0  0  0  0
  188.9990  175.7350  136.0820 N   0  0  0  0  0  0  0  0  0  0  0  0
  189.5830  173.7630  137.3690 O   0  0  0  0  0  1  0  0  0  0  0  0
  189.9540  175.0310  136.9080 C   0  0  2  0  0  0  0  0  0  0  0  0
  189.2040  176.0320  137.4280 O   0  0  0  0  0  0  0  0  0  0  0  0
  191.4160  175.3810  136.6840 C   0  0  2  0  0  3  0  0  0  0  0  0
  193.1470  176.3910  137.6640 C   0  0  0  0  0  2  0  0  0  0  0  0
  192.3020  174.2360  137.1130 C   0  0  0  0  0  2  0  0  0  0  0  0
  191.7670  176.5140  137.4330 O   0  0  0  0  0  0  0  0  0  0  0  0
  193.5250  174.9230  137.6430 C   0  0  1  0  0  3  0  0  0  0  0  0
  194.4030  173.8230  135.1390 O   0  0  0  0  0  0  0  0  0  0  0  0
  195.5520  176.1660  136.0360 O   0  0  0  0  0  1  0  0  0  0  0  0
  194.9250  174.6680  136.5090 P   0  0  0  0  0  0  0  0  0  0  0  0
  196.0040  173.8710  137.2020 O   0  0  0  0  0  1  0  0  0  0  0  0
  1 11  1  1  0  0  0
  1 12  1  0  0  0  0
  1  4  1  0  0  0  0
  2 10  1  0  0  0  0
  4 35  1  6  0  0  0
  4  7  1  0  0  0  0
  5  3  1  6  0  0  0
  5  8  1  0  0  0  0
  6  2  1  0  0  0  0
  7  5  1  0  0  0  0
  7  6  1  1  0  0  0
  8  9  1  0  0  0  0
  9 10  2  0  0  0  0
 10 13  1  0  0  0  0
 12  3  1  0  0  0  0
 13 17  2  0  0  0  0
 13 15  1  0  0  0  0
 15 14  1  0  0  0  0
 15 16  2  0  0  0  0
 17 18  1  0  0  0  0
 18 16  1  0  0  0  0
 18 20  1  0  0  0  0
 19 17  1  0  0  0  0
 20 21  1  0  0  0  0
 22 24  1  0  0  0  0
 23 25  1  0  0  0  0
 23 26  1  0  0  0  0
 25 27  1  6  0  0  0
 25 22  1  0  0  0  0
 26 21  1  1  0  0  0
 26 24  1  0  0  0  0
 28 30  1  1  0  0  0
 28 27  1  0  0  0  0
 29 28  1  0  0  0  0
 31 36  1  0  0  0  0
 32 31  2  0  0  0  0
 33 34  2  0  0  0  0
 33 32  1  0  0  0  0
 34 35  1  0  0  0  0
 35 36  2  0  0  0  0
 37 38  1  0  0  0  0
 37 32  1  0  0  0  0
 38 40  1  0  0  0  0
 38 41  1  0  0  0  0
 40 39  1  1  0  0  0
 40 41  1  0  0  0  0
 42 40  1  0  0  0  0
 42 44  1  1  0  0  0
 42 45  1  0  0  0  0
 44 46  1  0  0  0  0
 45 43  1  0  0  0  0
 46 49  1  6  0  0  0
 46 43  1  0  0  0  0
 47 49  2  0  0  0  0
 48 49  1  0  0  0  0
 49 50  1  0  0  0  0
M  END
>  <MODEL>
2

>  <REMARK>
 VINA RESULT:      -8.1      3.711      8.072
  Name = 
  11 active torsions:
  status: ('A' for Active; 'I' for Inactive)
    1  A    between atoms: C_1  and  C_44
    2  A    between atoms: C_4  and  C_31
    3  A    between atoms: N_5  and  C_12
    4  A    between atoms: N_5  and  C_41
    5  A    between atoms: N_6  and  C_7
    6  A    between atoms: N_6  and  N_15
    7  A    between atoms: S_9  and  C_47
    8  A    between atoms: S_9  and  C_50
    9  A    between atoms: C_26  and  C_32
   10  A    between atoms: C_27  and  P_28
   11  A    between atoms: N_39  and  C_50
                            x       y       z     vdW  Elec       q    Type
                         _______ _______ _______ _____ _____    ______ ____

>  <TORSDO>
F 11

$$$$
=
 OpenBabel10232410363D

 50 56  0  0  1  0  0  0  0  0999 V2000
  180.5910  179.0530  139.9960 C   0  0  1  0  0  3  0  0  0  0  0  0
  184.4930  177.7230  138.8200 C   0  0  0  0  0  2  0  0  0  0  0  0
  180.1790  177.4570  138.2720 C   0  0  0  0  0  2  0  0  0  0  0  0
  182.0890  178.7120  140.0700 C   0  0  2  0  0  3  0  0  0  0  0  0
  181.6420  177.0310  138.1520 C   0  0  2  0  0  3  0  0  0  0  0  0
  183.6820  176.8570  139.5700 O   0  0  0  0  0  0  0  0  0  0  0  0
  182.3400  177.3000  139.5020 C   0  0  1  0  0  3  0  0  0  0  0  0
  182.2890  177.7660  136.9730 C   0  0  0  0  0  2  0  0  0  0  0  0
  183.6190  177.1800  136.6050 C   0  0  0  0  0  3  0  0  0  0  0  0
  184.6640  177.1790  137.4370 C   0  0  0  0  0  0  0  0  0  0  0  0
  180.3760  180.4340  140.4020 N   0  0  0  0  0  1  0  0  0  0  0  0
  180.0830  178.8710  138.6350 N   0  0  0  0  0  2  0  0  0  0  0  0
  185.9630  176.5930  137.0250 C   0  0  0  0  0  0  0  0  0  0  0  0
  185.4550  174.1530  137.2970 N   0  0  0  0  0  1  0  0  0  0  0  0
  186.3010  175.2480  136.9580 C   0  0  0  0  0  0  0  0  0  0  0  0
  187.5780  175.0960  136.5650 N   0  0  0  0  0  0  0  0  0  0  0  0
  187.1280  177.2390  136.6320 C   0  0  0  0  0  0  0  0  0  0  0  0
  188.0680  176.3090  136.3650 N   0  0  0  0  0  0  0  0  0  0  0  0
  187.3340  178.7110  136.4870 C   0  0  0  0  0  1  0  0  0  0  0  0
  189.4380  176.5610  135.9440 C   0  0  0  0  0  2  0  0  0  0  0  0
  190.5140  176.7410  137.3960 S   0  0  0  0  0  0  0  0  0  0  0  0
  193.3280  173.6220  136.4120 S   0  0  0  0  0  0  0  0  0  0  0  0
  193.1890  176.1570  137.3430 C   0  0  0  0  0  2  0  0  0  0  0  0
  191.6960  174.4250  136.5420 C   0  0  0  0  0  2  0  0  0  0  0  0
  194.1960  175.1820  136.7760 C   0  0  1  0  0  3  0  0  0  0  0  0
  191.9120  175.9220  136.5730 C   0  0  1  0  0  3  0  0  0  0  0  0
  195.2670  174.9480  137.7440 N   0  0  0  0  0  2  0  0  0  0  0  0
  196.5430  174.7290  137.0550 C   0  0  2  0  0  3  0  0  0  0  0  0
  197.5820  175.4160  137.6960 O   0  0  0  0  0  1  0  0  0  0  0  0
  196.4600  175.1250  135.5850 C   0  0  0  0  0  1  0  0  0  0  0  0
  184.4240  179.1630  143.0480 C   0  0  0  0  0  3  0  0  0  0  0  0
  183.5230  179.0560  144.1170 C   0  0  0  0  0  0  0  0  0  0  0  0
  182.1670  178.8320  143.8600 C   0  0  0  0  0  3  0  0  0  0  0  0
  181.7110  178.7180  142.5430 C   0  0  0  0  0  3  0  0  0  0  0  0
  182.6090  178.8240  141.4740 C   0  0  0  0  0  0  0  0  0  0  0  0
  183.9710  179.0460  141.7310 C   0  0  0  0  0  3  0  0  0  0  0  0
  183.9740  179.1650  145.4690 N   0  0  0  0  0  2  0  0  0  0  0  0
  185.3000  179.5090  145.7750 N   0  0  0  0  0  0  0  0  0  0  0  0
  185.2360  177.2070  146.5400 O   0  0  0  0  0  1  0  0  0  0  0  0
  185.9560  178.4020  146.4340 C   0  0  2  0  0  0  0  0  0  0  0  0
  185.4240  179.4150  147.1590 O   0  0  0  0  0  0  0  0  0  0  0  0
  187.4750  178.3930  146.3710 C   0  0  2  0  0  3  0  0  0  0  0  0
  189.2700  177.6340  147.4560 C   0  0  0  0  0  2  0  0  0  0  0  0
  187.9570  177.2520  145.5080 C   0  0  0  0  0  2  0  0  0  0  0  0
  188.0160  178.2330  147.6560 O   0  0  0  0  0  0  0  0  0  0  0  0
  189.2400  176.8370  146.1670 C   0  0  1  0  0  3  0  0  0  0  0  0
  190.7420  176.2810  143.7820 O   0  0  0  0  0  0  0  0  0  0  0  0
  190.4660  178.9040  144.5960 O   0  0  0  0  0  1  0  0  0  0  0  0
  190.6550  177.3080  145.1240 P   0  0  0  0  0  0  0  0  0  0  0  0
  191.9340  177.1930  145.9190 O   0  0  0  0  0  1  0  0  0  0  0  0
  1  4  1  0  0  0  0
  1 11  1  6  0  0  0
  2  6  1  0  0  0  0
  3 12  1  0  0  0  0
  4 35  1  1  0  0  0
  5  8  1  6  0  0  0
  5  3  1  0  0  0  0
  5  7  1  0  0  0  0
  7  6  1  6  0  0  0
  7  4  1  0  0  0  0
  9  8  1  0  0  0  0
  9 10  2  0  0  0  0
 10  2  1  0  0  0  0
 12  1  1  0  0  0  0
 13 10  1  0  0  0  0
 15 13  1  0  0  0  0
 15 14  1  0  0  0  0
 16 15  2  0  0  0  0
 17 13  2  0  0  0  0
 18 16  1  0  0  0  0
 18 17  1  0  0  0  0
 19 17  1  0  0  0  0
 20 18  1  0  0  0  0
 20 21  1  0  0  0  0
 22 24  1  0  0  0  0
 22 25  1  0  0  0  0
 24 26  1  0  0  0  0
 25 23  1  0  0  0  0
 25 27  1  1  0  0  0
 26 23  1  0  0  0  0
 26 21  1  1  0  0  0
 28 30  1  6  0  0  0
 28 29  1  0  0  0  0
 28 27  1  0  0  0  0
 31 32  1  0  0  0  0
 32 37  1  0  0  0  0
 33 32  2  0  0  0  0
 34 33  1  0  0  0  0
 35 36  1  0  0  0  0
 35 34  2  0  0  0  0
 36 31  2  0  0  0  0
 37 38  1  0  0  0  0
 38 40  1  0  0  0  0
 38 41  1  0  0  0  0
 40 39  1  1  0  0  0
 40 41  1  0  0  0  0
 42 44  1  6  0  0  0
 42 40  1  0  0  0  0
 42 45  1  0  0  0  0
 43 45  1  0  0  0  0
 44 46  1  0  0  0  0
 46 49  1  6  0  0  0
 46 43  1  0  0  0  0
 47 49  2  0  0  0  0
 48 49  1  0  0  0  0
 49 50  1  0  0  0  0
M  END
>  <MODEL>
3

>  <REMARK>
 VINA RESULT:      -7.9      2.122      2.913
  Name = 
  11 active torsions:
  status: ('A' for Active; 'I' for Inactive)
    1  A    between atoms: C_1  and  C_44
    2  A    between atoms: C_4  and  C_31
    3  A    between atoms: N_5  and  C_12
    4  A    between atoms: N_5  and  C_41
    5  A    between atoms: N_6  and  C_7
    6  A    between atoms: N_6  and  N_15
    7  A    between atoms: S_9  and  C_47
    8  A    between atoms: S_9  and  C_50
    9  A    between atoms: C_26  and  C_32
   10  A    between atoms: C_27  and  P_28
   11  A    between atoms: N_39  and  C_50
                            x       y       z     vdW  Elec       q    Type
                         _______ _______ _______ _____ _____    ______ ____

>  <TORSDO>
F 11

$$$$
=
 OpenBabel10232410363D

 50 56  0  0  1  0  0  0  0  0999 V2000
  189.8310  177.5300  145.7690 C   0  0  1  0  0  3  0  0  0  0  0  0
  188.9540  177.2880  141.5790 C   0  0  0  0  0  2  0  0  0  0  0  0
  191.8060  178.3350  144.7030 C   0  0  0  0  0  2  0  0  0  0  0  0
  189.0310  177.5010  144.4550 C   0  0  2  0  0  3  0  0  0  0  0  0
  191.2020  178.3110  143.2990 C   0  0  2  0  0  3  0  0  0  0  0  0
  188.9840  178.5520  142.1910 O   0  0  0  0  0  0  0  0  0  0  0  0
  189.6700  178.4560  143.4250 C   0  0  1  0  0  3  0  0  0  0  0  0
  191.6380  177.0290  142.5810 C   0  0  0  0  0  2  0  0  0  0  0  0
  191.3420  177.0770  141.1120 C   0  0  0  0  0  3  0  0  0  0  0  0
  190.1010  177.1650  140.6260 C   0  0  0  0  0  0  0  0  0  0  0  0
  189.3100  176.5290  146.6880 N   0  0  0  0  0  1  0  0  0  0  0  0
  191.2470  177.2580  145.5220 N   0  0  0  0  0  2  0  0  0  0  0  0
  189.8580  177.2030  139.1640 C   0  0  0  0  0  0  0  0  0  0  0  0
  187.8990  178.7650  139.0800 N   0  0  0  0  0  1  0  0  0  0  0  0
  188.8830  177.9240  138.4860 C   0  0  0  0  0  0  0  0  0  0  0  0
  188.9500  177.6920  137.1640 N   0  0  0  0  0  0  0  0  0  0  0  0
  190.5240  176.5290  138.1490 C   0  0  0  0  0  0  0  0  0  0  0  0
  189.9530  176.8490  136.9690 N   0  0  0  0  0  0  0  0  0  0  0  0
  191.7000  175.6200  138.2950 C   0  0  0  0  0  1  0  0  0  0  0  0
  190.3320  176.3430  135.6600 C   0  0  0  0  0  2  0  0  0  0  0  0
  188.8550  175.8210  134.7390 S   0  0  0  0  0  0  0  0  0  0  0  0
  187.5840  171.8110  135.6970 S   0  0  0  0  0  0  0  0  0  0  0  0
  187.5490  174.3450  136.6400 C   0  0  0  0  0  2  0  0  0  0  0  0
  188.4210  173.1190  134.7410 C   0  0  0  0  0  2  0  0  0  0  0  0
  187.3160  172.9270  137.1110 C   0  0  1  0  0  3  0  0  0  0  0  0
  188.7100  174.2720  135.6770 C   0  0  1  0  0  3  0  0  0  0  0  0
  185.9500  172.7840  137.6130 N   0  0  0  0  0  2  0  0  0  0  0  0
  185.0450  173.6990  136.9110 C   0  0  2  0  0  3  0  0  0  0  0  0
  184.2510  174.4120  137.8180 O   0  0  0  0  0  1  0  0  0  0  0  0
  184.1770  172.9580  135.8990 C   0  0  0  0  0  1  0  0  0  0  0  0
  185.7970  178.6740  146.0940 C   0  0  0  0  0  3  0  0  0  0  0  0
  184.8850  178.5130  145.0410 C   0  0  0  0  0  0  0  0  0  0  0  0
  185.3290  178.0180  143.8100 C   0  0  0  0  0  3  0  0  0  0  0  0
  186.6770  177.6890  143.6310 C   0  0  0  0  0  3  0  0  0  0  0  0
  187.5880  177.8490  144.6820 C   0  0  0  0  0  0  0  0  0  0  0  0
  187.1440  178.3430  145.9180 C   0  0  0  0  0  3  0  0  0  0  0  0
  183.5050  178.8390  145.2100 N   0  0  0  0  0  2  0  0  0  0  0  0
  182.5120  178.2710  144.3960 N   0  0  0  0  0  0  0  0  0  0  0  0
  182.8000  180.4300  143.3280 O   0  0  0  0  0  1  0  0  0  0  0  0
  182.0970  179.2220  143.3900 C   0  0  2  0  0  0  0  0  0  0  0  0
  181.3820  179.0750  144.5310 O   0  0  0  0  0  0  0  0  0  0  0  0
  181.4430  178.6370  142.1490 C   0  0  2  0  0  3  0  0  0  0  0  0
  180.2820  179.2250  140.3370 C   0  0  0  0  0  2  0  0  0  0  0  0
  182.4490  178.5270  141.0280 C   0  0  0  0  0  2  0  0  0  0  0  0
  180.3920  179.4600  141.7170 O   0  0  0  0  0  0  0  0  0  0  0  0
  181.6290  178.7860  139.7990 C   0  0  1  0  0  3  0  0  0  0  0  0
  182.3520  177.3410  137.4240 O   0  0  0  0  0  0  0  0  0  0  0  0
  181.9650  175.9360  139.7680 O   0  0  0  0  0  1  0  0  0  0  0  0
  181.4350  177.2500  138.8430 P   0  0  0  0  0  0  0  0  0  0  0  0
  179.9820  177.0530  138.4830 O   0  0  0  0  0  1  0  0  0  0  0  0
  1 11  1  1  0  0  0
  2  6  1  0  0  0  0
  3 12  1  0  0  0  0
  4 35  1  1  0  0  0
  4  1  1  0  0  0  0
  5  8  1  1  0  0  0
  5  7  1  0  0  0  0
  5  3  1  0  0  0  0
  7  6  1  6  0  0  0
  7  4  1  0  0  0  0
  9  8  1  0  0  0  0
 10  9  2  0  0  0  0
 10  2  1  0  0  0  0
 12  1  1  0  0  0  0
 13 10  1  0  0  0  0
 15 14  1  0  0  0  0
 15 13  1  0  0  0  0
 16 15  2  0  0  0  0
 17 19  1  0  0  0  0
 17 13  2  0  0  0  0
 18 16  1  0  0  0  0
 18 17  1  0  0  0  0
 20 18  1  0  0  0  0
 21 20  1  0  0  0  0
 22 25  1  0  0  0  0
 23 25  1  0  0  0  0
 24 26  1  0  0  0  0
 24 22  1  0  0  0  0
 25 27  1  6  0  0  0
 26 21  1  6  0  0  0
 26 23  1  0  0  0  0
 28 30  1  6  0  0  0
 28 27  1  0  0  0  0
 28 29  1  0  0  0  0
 32 37  1  0  0  0  0
 32 31  2  0  0  0  0
 33 32  1  0  0  0  0
 34 33  2  0  0  0  0
 34 35  1  0  0  0  0
 35 36  2  0  0  0  0
 36 31  1  0  0  0  0
 38 41  1  0  0  0  0
 38 37  1  0  0  0  0
 40 39  1  6  0  0  0
 40 38  1  0  0  0  0
 40 41  1  0  0  0  0
 42 44  1  6  0  0  0
 42 40  1  0  0  0  0
 43 45  1  0  0  0  0
 45 42  1  0  0  0  0
 46 49  1  1  0  0  0
 46 43  1  0  0  0  0
 46 44  1  0  0  0  0
 47 49  2  0  0  0  0
 49 48  1  0  0  0  0
 50 49  1  0  0  0  0
M  END
>  <MODEL>
4

>  <REMARK>
 VINA RESULT:      -7.1      3.153      7.662
  Name = 
  11 active torsions:
  status: ('A' for Active; 'I' for Inactive)
    1  A    between atoms: C_1  and  C_44
    2  A    between atoms: C_4  and  C_31
    3  A    between atoms: N_5  and  C_12
    4  A    between atoms: N_5  and  C_41
    5  A    between atoms: N_6  and  C_7
    6  A    between atoms: N_6  and  N_15
    7  A    between atoms: S_9  and  C_47
    8  A    between atoms: S_9  and  C_50
    9  A    between atoms: C_26  and  C_32
   10  A    between atoms: C_27  and  P_28
   11  A    between atoms: N_39  and  C_50
                            x       y       z     vdW  Elec       q    Type
                         _______ _______ _______ _____ _____    ______ ____

>  <TORSDO>
F 11

$$$$
=
 OpenBabel10232410363D

 50 56  0  0  1  0  0  0  0  0999 V2000
  189.7950  177.5660  145.8730 C   0  0  1  0  0  3  0  0  0  0  0  0
  189.0540  177.3390  141.6560 C   0  0  0  0  0  2  0  0  0  0  0  0
  191.7970  178.3910  144.8740 C   0  0  0  0  0  2  0  0  0  0  0  0
  189.0380  177.5380  144.5340 C   0  0  2  0  0  3  0  0  0  0  0  0
  191.2380  178.3690  143.4510 C   0  0  2  0  0  3  0  0  0  0  0  0
  189.0550  178.6000  142.2740 O   0  0  0  0  0  0  0  0  0  0  0  0
  189.7020  178.5020  143.5290 C   0  0  1  0  0  3  0  0  0  0  0  0
  191.7060  177.0940  142.7410 C   0  0  0  0  0  2  0  0  0  0  0  0
  191.4570  177.1470  141.2640 C   0  0  0  0  0  3  0  0  0  0  0  0
  190.2310  177.2290  140.7400 C   0  0  0  0  0  0  0  0  0  0  0  0
  189.2520  176.5570  146.7700 N   0  0  0  0  0  1  0  0  0  0  0  0
  191.2210  177.3060  145.6690 N   0  0  0  0  0  2  0  0  0  0  0  0
  190.0340  177.2720  139.2710 C   0  0  0  0  0  0  0  0  0  0  0  0
  187.7940  178.3930  139.1560 N   0  0  0  0  0  1  0  0  0  0  0  0
  188.9520  177.7990  138.5760 C   0  0  0  0  0  0  0  0  0  0  0  0
  189.1110  177.6380  137.2510 N   0  0  0  0  0  0  0  0  0  0  0  0
  190.8610  176.7920  138.2630 C   0  0  0  0  0  0  0  0  0  0  0  0
  190.2740  177.0320  137.0720 N   0  0  0  0  0  0  0  0  0  0  0  0
  192.1960  176.1440  138.4280 C   0  0  0  0  0  1  0  0  0  0  0  0
  190.7950  176.6680  135.7630 C   0  0  0  0  0  2  0  0  0  0  0  0
  190.3010  174.9700  135.3440 S   0  0  0  0  0  0  0  0  0  0  0  0
  194.1700  173.4200  136.4600 S   0  0  0  0  0  0  0  0  0  0  0  0
  192.9710  175.5800  135.3580 C   0  0  0  0  0  2  0  0  0  0  0  0
  192.3650  173.3930  136.2060 C   0  0  0  0  0  2  0  0  0  0  0  0
  194.3440  174.9640  135.5070 C   0  0  1  0  0  3  0  0  0  0  0  0
  192.0230  174.4220  135.1520 C   0  0  1  0  0  3  0  0  0  0  0  0
  195.2340  175.8890  136.2070 N   0  0  0  0  0  2  0  0  0  0  0  0
  196.2580  176.4070  135.2950 C   0  0  2  0  0  3  0  0  0  0  0  0
  197.5420  176.2060  135.8170 O   0  0  0  0  0  1  0  0  0  0  0  0
  196.0290  177.8810  134.9770 C   0  0  0  0  0  1  0  0  0  0  0  0
  185.3040  177.9590  143.8960 C   0  0  0  0  0  3  0  0  0  0  0  0
  184.8780  178.4910  145.1220 C   0  0  0  0  0  0  0  0  0  0  0  0
  185.8090  178.7130  146.1420 C   0  0  0  0  0  3  0  0  0  0  0  0
  187.1590  178.4040  145.9400 C   0  0  0  0  0  3  0  0  0  0  0  0
  187.5860  177.8740  144.7160 C   0  0  0  0  0  0  0  0  0  0  0  0
  186.6530  177.6530  143.6920 C   0  0  0  0  0  3  0  0  0  0  0  0
  183.5050  178.8170  145.3410 N   0  0  0  0  0  2  0  0  0  0  0  0
  182.4840  178.2630  144.5530 N   0  0  0  0  0  0  0  0  0  0  0  0
  182.9340  180.3170  143.3430 O   0  0  0  0  0  1  0  0  0  0  0  0
  182.1470  179.1670  143.4760 C   0  0  2  0  0  0  0  0  0  0  0  0
  181.4110  179.1500  144.6130 O   0  0  0  0  0  0  0  0  0  0  0  0
  181.4690  178.5430  142.2680 C   0  0  2  0  0  3  0  0  0  0  0  0
  180.2550  179.0710  140.4730 C   0  0  0  0  0  2  0  0  0  0  0  0
  182.4470  178.4140  141.1250 C   0  0  0  0  0  2  0  0  0  0  0  0
  180.3980  179.3430  141.8420 O   0  0  0  0  0  0  0  0  0  0  0  0
  181.5930  178.6330  139.9110 C   0  0  1  0  0  3  0  0  0  0  0  0
  182.7720  176.1110  139.2010 O   0  0  0  0  0  1  0  0  0  0  0  0
  180.0430  176.2380  139.5930 O   0  0  0  0  0  1  0  0  0  0  0  0
  181.3920  177.0700  139.0010 P   0  0  0  0  0  0  0  0  0  0  0  0
  181.1960  177.3570  137.5310 O   0  0  0  0  0  0  0  0  0  0  0  0
  1 11  1  1  0  0  0
  2  6  1  0  0  0  0
  3 12  1  0  0  0  0
  4 35  1  1  0  0  0
  4  1  1  0  0  0  0
  5  8  1  1  0  0  0
  5  7  1  0  0  0  0
  5  3  1  0  0  0  0
  7  6  1  6  0  0  0
  7  4  1  0  0  0  0
  9  8  1  0  0  0  0
 10  9  2  0  0  0  0
 10  2  1  0  0  0  0
 12  1  1  0  0  0  0
 13 10  1  0  0  0  0
 15 14  1  0  0  0  0
 15 13  1  0  0  0  0
 16 15  2  0  0  0  0
 17 19  1  0  0  0  0
 17 13  2  0  0  0  0
 18 16  1  0  0  0  0
 18 17  1  0  0  0  0
 20 18  1  0  0  0  0
 21 20  1  0  0  0  0
 23 25  1  0  0  0  0
 24 22  1  0  0  0  0
 25 27  1  1  0  0  0
 25 22  1  0  0  0  0
 26 21  1  1  0  0  0
 26 23  1  0  0  0  0
 26 24  1  0  0  0  0
 28 30  1  1  0  0  0
 28 29  1  0  0  0  0
 28 27  1  0  0  0  0
 31 32  1  0  0  0  0
 32 37  1  0  0  0  0
 32 33  2  0  0  0  0
 34 33  1  0  0  0  0
 35 34  2  0  0  0  0
 36 31  2  0  0  0  0
 36 35  1  0  0  0  0
 38 41  1  0  0  0  0
 38 37  1  0  0  0  0
 40 39  1  6  0  0  0
 40 38  1  0  0  0  0
 40 41  1  0  0  0  0
 42 44  1  6  0  0  0
 42 40  1  0  0  0  0
 43 45  1  0  0  0  0
 45 42  1  0  0  0  0
 46 49  1  1  0  0  0
 46 43  1  0  0  0  0
 46 44  1  0  0  0  0
 49 47  1  0  0  0  0
 49 48  1  0  0  0  0
 50 49  2  0  0  0  0
M  END
>  <MODEL>
5

>  <REMARK>
 VINA RESULT:      -6.9      3.607      7.735
  Name = 
  11 active torsions:
  status: ('A' for Active; 'I' for Inactive)
    1  A    between atoms: C_1  and  C_44
    2  A    between atoms: C_4  and  C_31
    3  A    between atoms: N_5  and  C_12
    4  A    between atoms: N_5  and  C_41
    5  A    between atoms: N_6  and  C_7
    6  A    between atoms: N_6  and  N_15
    7  A    between atoms: S_9  and  C_47
    8  A    between atoms: S_9  and  C_50
    9  A    between atoms: C_26  and  C_32
   10  A    between atoms: C_27  and  P_28
   11  A    between atoms: N_39  and  C_50
                            x       y       z     vdW  Elec       q    Type
                         _______ _______ _______ _____ _____    ______ ____

>  <TORSDO>
F 11

$$$$
=
 OpenBabel10232410363D

 50 56  0  0  1  0  0  0  0  0999 V2000
  181.0480  178.1880  140.5890 C   0  0  1  0  0  3  0  0  0  0  0  0
  184.6480  177.8560  142.8920 C   0  0  0  0  0  2  0  0  0  0  0  0
  180.7330  179.7040  142.4030 C   0  0  0  0  0  2  0  0  0  0  0  0
  182.5240  177.9380  140.9420 C   0  0  2  0  0  3  0  0  0  0  0  0
  182.1510  179.5330  142.9480 C   0  0  2  0  0  3  0  0  0  0  0  0
  184.4430  179.0130  142.1240 O   0  0  0  0  0  0  0  0  0  0  0  0
  183.0720  179.1090  141.7850 C   0  0  1  0  0  3  0  0  0  0  0  0
  182.1310  178.5330  144.1090 C   0  0  0  0  0  2  0  0  0  0  0  0
  183.4140  178.5440  144.8850 C   0  0  0  0  0  3  0  0  0  0  0  0
  184.5880  178.2030  144.3470 C   0  0  0  0  0  0  0  0  0  0  0  0
  180.4950  177.0220  139.9150 N   0  0  0  0  0  1  0  0  0  0  0  0
  180.2630  178.4590  141.7940 N   0  0  0  0  0  2  0  0  0  0  0  0
  185.8300  178.2240  145.1560 C   0  0  0  0  0  0  0  0  0  0  0  0
  184.8570  178.4730  147.4540 N   0  0  0  0  0  1  0  0  0  0  0  0
  185.9390  178.3350  146.5370 C   0  0  0  0  0  0  0  0  0  0  0  0
  187.2290  178.3420  146.9150 N   0  0  0  0  0  0  0  0  0  0  0  0
  187.1510  178.1530  144.7340 C   0  0  0  0  0  0  0  0  0  0  0  0
  187.9550  178.2250  145.8150 N   0  0  0  0  0  0  0  0  0  0  0  0
  187.6380  177.9910  143.3310 C   0  0  0  0  0  1  0  0  0  0  0  0
  189.4100  178.2110  145.8120 C   0  0  0  0  0  2  0  0  0  0  0  0
  190.0190  176.5420  146.1950 S   0  0  0  0  0  0  0  0  0  0  0  0
  191.7040  177.7930  142.4250 S   0  0  0  0  0  0  0  0  0  0  0  0
  190.1290  175.8950  143.5360 C   0  0  0  0  0  2  0  0  0  0  0  0
  191.4220  177.8250  144.2260 C   0  0  0  0  0  2  0  0  0  0  0  0
  190.9010  176.1650  142.2650 C   0  0  1  0  0  3  0  0  0  0  0  0
  190.9810  176.4440  144.6570 C   0  0  1  0  0  3  0  0  0  0  0  0
  189.9950  176.1630  141.1170 N   0  0  0  0  0  2  0  0  0  0  0  0
  190.0410  177.4520  140.4220 C   0  0  2  0  0  3  0  0  0  0  0  0
  188.7560  177.9920  140.2820 O   0  0  0  0  0  1  0  0  0  0  0  0
  190.7260  177.3310  139.0650 C   0  0  0  0  0  1  0  0  0  0  0  0
  185.0120  178.4930  138.1100 C   0  0  0  0  0  3  0  0  0  0  0  0
  184.9140  177.2760  137.4210 C   0  0  0  0  0  0  0  0  0  0  0  0
  184.0360  176.2880  137.8810 C   0  0  0  0  0  3  0  0  0  0  0  0
  183.2610  176.5150  139.0230 C   0  0  0  0  0  3  0  0  0  0  0  0
  183.3560  177.7300  139.7110 C   0  0  0  0  0  0  0  0  0  0  0  0
  184.2360  178.7220  139.2500 C   0  0  0  0  0  3  0  0  0  0  0  0
  185.6940  177.0310  136.2500 N   0  0  0  0  0  2  0  0  0  0  0  0
  186.5730  175.9390  136.1670 N   0  0  0  0  0  0  0  0  0  0  0  0
  187.8260  177.6270  134.9560 O   0  0  0  0  0  1  0  0  0  0  0  0
  187.7290  176.2960  135.3770 C   0  0  2  0  0  0  0  0  0  0  0  0
  186.6930  175.6290  134.8150 O   0  0  0  0  0  0  0  0  0  0  0  0
  188.9770  175.4590  135.6050 C   0  0  2  0  0  3  0  0  0  0  0  0
  190.5870  174.3770  134.5040 C   0  0  0  0  0  2  0  0  0  0  0  0
  190.1840  176.3500  135.7710 C   0  0  0  0  0  2  0  0  0  0  0  0
  189.2030  174.6110  134.5100 O   0  0  0  0  0  0  0  0  0  0  0  0
  191.2930  175.5520  135.1510 C   0  0  1  0  0  3  0  0  0  0  0  0
  193.3660  176.2330  137.0200 O   0  0  0  0  0  1  0  0  0  0  0  0
  191.5320  174.2940  137.7200 O   0  0  0  0  0  1  0  0  0  0  0  0
  192.4250  174.9510  136.4430 P   0  0  0  0  0  0  0  0  0  0  0  0
  193.3330  173.8880  135.8700 O   0  0  0  0  0  0  0  0  0  0  0  0
  1 11  1  1  0  0  0
  1  4  1  0  0  0  0
  1 12  1  0  0  0  0
  2 10  1  0  0  0  0
  4 35  1  6  0  0  0
  4  7  1  0  0  0  0
  5  3  1  6  0  0  0
  5  8  1  0  0  0  0
  6  2  1  0  0  0  0
  7  6  1  1  0  0  0
  7  5  1  0  0  0  0
  8  9  1  0  0  0  0
 10  9  2  0  0  0  0
 10 13  1  0  0  0  0
 12  3  1  0  0  0  0
 13 15  1  0  0  0  0
 15 16  2  0  0  0  0
 15 14  1  0  0  0  0
 17 13  2  0  0  0  0
 17 18  1  0  0  0  0
 18 16  1  0  0  0  0
 19 17  1  0  0  0  0
 20 18  1  0  0  0  0
 20 21  1  0  0  0  0
 22 24  1  0  0  0  0
 23 26  1  0  0  0  0
 24 26  1  0  0  0  0
 25 27  1  6  0  0  0
 25 22  1  0  0  0  0
 25 23  1  0  0  0  0
 26 21  1  1  0  0  0
 28 30  1  6  0  0  0
 28 27  1  0  0  0  0
 29 28  1  0  0  0  0
 31 36  1  0  0  0  0
 32 33  1  0  0  0  0
 32 31  2  0  0  0  0
 33 34  2  0  0  0  0
 34 35  1  0  0  0  0
 36 35  2  0  0  0  0
 37 32  1  0  0  0  0
 38 37  1  0  0  0  0
 40 39  1  6  0  0  0
 40 42  1  0  0  0  0
 40 38  1  0  0  0  0
 41 40  1  0  0  0  0
 41 38  1  0  0  0  0
 42 44  1  6  0  0  0
 43 45  1  0  0  0  0
 43 46  1  0  0  0  0
 45 42  1  0  0  0  0
 46 44  1  0  0  0  0
 46 49  1  1  0  0  0
 49 47  1  0  0  0  0
 49 48  1  0  0  0  0
 50 49  2  0  0  0  0
M  END
>  <MODEL>
6

>  <REMARK>
 VINA RESULT:      -6.4      3.282      7.975
  Name = 
  11 active torsions:
  status: ('A' for Active; 'I' for Inactive)
    1  A    between atoms: C_1  and  C_44
    2  A    between atoms: C_4  and  C_31
    3  A    between atoms: N_5  and  C_12
    4  A    between atoms: N_5  and  C_41
    5  A    between atoms: N_6  and  C_7
    6  A    between atoms: N_6  and  N_15
    7  A    between atoms: S_9  and  C_47
    8  A    between atoms: S_9  and  C_50
    9  A    between atoms: C_26  and  C_32
   10  A    between atoms: C_27  and  P_28
   11  A    between atoms: N_39  and  C_50
                            x       y       z     vdW  Elec       q    Type
                         _______ _______ _______ _____ _____    ______ ____

>  <TORSDO>
F 11

$$$$
=
 OpenBabel10232410363D

 50 56  0  0  1  0  0  0  0  0999 V2000
  180.6920  178.2060  140.3080 C   0  0  1  0  0  3  0  0  0  0  0  0
  184.2980  177.6630  142.5640 C   0  0  0  0  0  2  0  0  0  0  0  0
  180.6130  179.9120  141.9730 C   0  0  0  0  0  2  0  0  0  0  0  0
  182.1390  177.8160  140.6560 C   0  0  2  0  0  3  0  0  0  0  0  0
  182.0170  179.6250  142.5040 C   0  0  2  0  0  3  0  0  0  0  0  0
  184.2060  178.7590  141.6910 O   0  0  0  0  0  0  0  0  0  0  0  0
  182.8470  178.9860  141.3700 C   0  0  1  0  0  3  0  0  0  0  0  0
  181.9160  178.7470  143.7570 C   0  0  0  0  0  2  0  0  0  0  0  0
  183.2140  178.6770  144.5030 C   0  0  0  0  0  3  0  0  0  0  0  0
  184.3230  178.1490  143.9780 C   0  0  0  0  0  0  0  0  0  0  0  0
  179.9870  177.0560  139.7610 N   0  0  0  0  0  1  0  0  0  0  0  0
  179.9820  178.6810  141.4960 N   0  0  0  0  0  2  0  0  0  0  0  0
  185.5830  178.0970  144.7580 C   0  0  0  0  0  0  0  0  0  0  0  0
  187.2600  178.1020  142.8950 N   0  0  0  0  0  1  0  0  0  0  0  0
  186.8830  178.0850  144.2680 C   0  0  0  0  0  0  0  0  0  0  0  0
  187.7720  178.0080  145.2740 N   0  0  0  0  0  0  0  0  0  0  0  0
  185.7570  178.0330  146.1350 C   0  0  0  0  0  0  0  0  0  0  0  0
  187.0790  177.9840  146.4010 N   0  0  0  0  0  0  0  0  0  0  0  0
  184.6880  178.0480  147.1780 C   0  0  0  0  0  1  0  0  0  0  0  0
  187.6920  177.8870  147.7170 C   0  0  0  0  0  2  0  0  0  0  0  0
  189.3920  178.5270  147.6630 S   0  0  0  0  0  0  0  0  0  0  0  0
  192.3570  175.5120  146.8080 S   0  0  0  0  0  0  0  0  0  0  0  0
  190.3580  176.9280  145.6610 C   0  0  0  0  0  2  0  0  0  0  0  0
  191.3940  176.6700  147.8360 C   0  0  0  0  0  2  0  0  0  0  0  0
  191.2120  175.7070  145.4040 C   0  0  1  0  0  3  0  0  0  0  0  0
  190.0740  176.9250  147.1440 C   0  0  1  0  0  3  0  0  0  0  0  0
  191.9630  175.8720  144.1610 N   0  0  0  0  0  2  0  0  0  0  0  0
  191.1340  176.5200  143.1410 C   0  0  2  0  0  3  0  0  0  0  0  0
  190.3220  175.5850  142.4880 O   0  0  0  0  0  1  0  0  0  0  0  0
  191.9830  177.2920  142.1370 C   0  0  0  0  0  1  0  0  0  0  0  0
  183.6790  175.6870  137.8950 C   0  0  0  0  0  3  0  0  0  0  0  0
  184.3210  176.6670  137.1240 C   0  0  0  0  0  0  0  0  0  0  0  0
  184.2530  178.0090  137.5120 C   0  0  0  0  0  3  0  0  0  0  0  0
  183.5440  178.3720  138.6630 C   0  0  0  0  0  3  0  0  0  0  0  0
  182.9040  177.3950  139.4350 C   0  0  0  0  0  0  0  0  0  0  0  0
  182.9730  176.0480  139.0470 C   0  0  0  0  0  3  0  0  0  0  0  0
  185.0520  176.3120  135.9500 N   0  0  0  0  0  2  0  0  0  0  0  0
  186.1940  175.4970  136.0140 N   0  0  0  0  0  0  0  0  0  0  0  0
  187.1690  177.5920  135.2780 O   0  0  0  0  0  1  0  0  0  0  0  0
  187.3530  176.2350  135.5670 C   0  0  2  0  0  0  0  0  0  0  0  0
  186.6940  175.4120  134.7170 O   0  0  0  0  0  0  0  0  0  0  0  0
  188.6990  175.7150  136.0420 C   0  0  2  0  0  3  0  0  0  0  0  0
  190.8370  175.5630  135.4230 C   0  0  0  0  0  2  0  0  0  0  0  0
  189.3930  176.7530  136.8920 C   0  0  0  0  0  2  0  0  0  0  0  0
  189.5240  175.4220  134.9450 O   0  0  0  0  0  0  0  0  0  0  0  0
  190.8440  176.5490  136.5730 C   0  0  1  0  0  3  0  0  0  0  0  0
  192.0620  174.1950  137.6810 O   0  0  0  0  0  0  0  0  0  0  0  0
  193.1330  176.6610  138.3030 O   0  0  0  0  0  1  0  0  0  0  0  0
  191.6980  175.8150  138.0030 P   0  0  0  0  0  0  0  0  0  0  0  0
  190.8100  175.8910  139.2220 O   0  0  0  0  0  1  0  0  0  0  0  0
  1 11  1  1  0  0  0
  1  4  1  0  0  0  0
  1 12  1  0  0  0  0
  2 10  1  0  0  0  0
  4 35  1  6  0  0  0
  4  7  1  0  0  0  0
  5  3  1  6  0  0  0
  5  8  1  0  0  0  0
  6  2  1  0  0  0  0
  7  6  1  1  0  0  0
  7  5  1  0  0  0  0
  8  9  1  0  0  0  0
 10  9  2  0  0  0  0
 10 13  1  0  0  0  0
 12  3  1  0  0  0  0
 13 17  2  0  0  0  0
 14 15  1  0  0  0  0
 15 13  1  0  0  0  0
 15 16  2  0  0  0  0
 16 18  1  0  0  0  0
 17 18  1  0  0  0  0
 17 19  1  0  0  0  0
 18 20  1  0  0  0  0
 21 20  1  0  0  0  0
 22 24  1  0  0  0  0
 23 26  1  0  0  0  0
 25 27  1  6  0  0  0
 25 23  1  0  0  0  0
 25 22  1  0  0  0  0
 26 21  1  1  0  0  0
 26 24  1  0  0  0  0
 28 30  1  6  0  0  0
 28 27  1  0  0  0  0
 29 28  1  0  0  0  0
 31 36  1  0  0  0  0
 32 33  1  0  0  0  0
 32 31  2  0  0  0  0
 33 34  2  0  0  0  0
 34 35  1  0  0  0  0
 36 35  2  0  0  0  0
 37 38  1  0  0  0  0
 37 32  1  0  0  0  0
 40 39  1  6  0  0  0
 40 38  1  0  0  0  0
 40 42  1  0  0  0  0
 41 40  1  0  0  0  0
 41 38  1  0  0  0  0
 42 44  1  1  0  0  0
 43 46  1  0  0  0  0
 45 43  1  0  0  0  0
 45 42  1  0  0  0  0
 46 44  1  0  0  0  0
 46 49  1  1  0  0  0
 47 49  2  0  0  0  0
 49 48  1  0  0  0  0
 49 50  1  0  0  0  0
M  END
>  <MODEL>
7

>  <REMARK>
 VINA RESULT:      -6.0      3.347      8.145
  Name = 
  11 active torsions:
  status: ('A' for Active; 'I' for Inactive)
    1  A    between atoms: C_1  and  C_44
    2  A    between atoms: C_4  and  C_31
    3  A    between atoms: N_5  and  C_12
    4  A    between atoms: N_5  and  C_41
    5  A    between atoms: N_6  and  C_7
    6  A    between atoms: N_6  and  N_15
    7  A    between atoms: S_9  and  C_47
    8  A    between atoms: S_9  and  C_50
    9  A    between atoms: C_26  and  C_32
   10  A    between atoms: C_27  and  P_28
   11  A    between atoms: N_39  and  C_50
                            x       y       z     vdW  Elec       q    Type
                         _______ _______ _______ _____ _____    ______ ____

>  <TORSDO>
F 11

$$$$
=
 OpenBabel10232410363D

 50 56  0  0  1  0  0  0  0  0999 V2000
  181.1310  176.5260  136.3160 C   0  0  1  0  0  3  0  0  0  0  0  0
  183.5670  177.4130  139.7310 C   0  0  0  0  0  2  0  0  0  0  0  0
  180.3040  178.6180  137.1070 C   0  0  0  0  0  2  0  0  0  0  0  0
  182.3400  176.5480  137.2670 C   0  0  2  0  0  3  0  0  0  0  0  0
  181.3950  178.7850  138.1650 C   0  0  2  0  0  3  0  0  0  0  0  0
  183.7700  178.1430  138.5490 O   0  0  0  0  0  0  0  0  0  0  0  0
  182.6400  177.9950  137.7100 C   0  0  1  0  0  3  0  0  0  0  0  0
  180.8520  178.3390  139.5280 C   0  0  0  0  0  2  0  0  0  0  0  0
  181.7480  178.7550  140.6550 C   0  0  0  0  0  3  0  0  0  0  0  0
  183.0010  178.3110  140.7850 C   0  0  0  0  0  0  0  0  0  0  0  0
  180.7650  175.1510  136.0100 N   0  0  0  0  0  1  0  0  0  0  0  0
  179.9820  177.2040  136.9180 N   0  0  0  0  0  2  0  0  0  0  0  0
  183.8480  178.7460  141.9210 C   0  0  0  0  0  0  0  0  0  0  0  0
  185.9720  179.2960  140.7080 N   0  0  0  0  0  1  0  0  0  0  0  0
  185.1630  179.1900  141.8760 C   0  0  0  0  0  0  0  0  0  0  0  0
  185.6130  179.4760  143.1110 N   0  0  0  0  0  0  0  0  0  0  0  0
  183.5370  178.7970  143.2740 C   0  0  0  0  0  0  0  0  0  0  0  0
  184.6180  179.2390  143.9500 N   0  0  0  0  0  0  0  0  0  0  0  0
  182.2280  178.4580  143.9090 C   0  0  0  0  0  1  0  0  0  0  0  0
  184.7240  179.4160  145.3900 C   0  0  0  0  0  2  0  0  0  0  0  0
  185.1860  177.8470  146.1800 S   0  0  0  0  0  0  0  0  0  0  0  0
  189.1100  176.9860  144.6080 S   0  0  0  0  0  0  0  0  0  0  0  0
  187.7980  177.4910  146.9190 C   0  0  0  0  0  2  0  0  0  0  0  0
  187.3240  177.3490  144.5470 C   0  0  0  0  0  2  0  0  0  0  0  0
  189.2060  177.4390  146.3700 C   0  0  1  0  0  3  0  0  0  0  0  0
  186.9500  178.0800  145.8170 C   0  0  1  0  0  3  0  0  0  0  0  0
  189.9940  176.4480  147.1020 N   0  0  0  0  0  2  0  0  0  0  0  0
  191.3960  176.8650  147.1860 C   0  0  2  0  0  3  0  0  0  0  0  0
  191.8900  177.2190  145.9230 O   0  0  0  0  0  1  0  0  0  0  0  0
  192.2640  175.7840  147.8210 C   0  0  0  0  0  1  0  0  0  0  0  0
  185.2530  174.1960  136.5580 C   0  0  0  0  0  3  0  0  0  0  0  0
  185.7880  174.7710  135.3960 C   0  0  0  0  0  0  0  0  0  0  0  0
  185.2010  175.9210  134.8580 C   0  0  0  0  0  3  0  0  0  0  0  0
  184.0830  176.4930  135.4750 C   0  0  0  0  0  3  0  0  0  0  0  0
  183.5480  175.9210  136.6360 C   0  0  0  0  0  0  0  0  0  0  0  0
  184.1380  174.7680  137.1770 C   0  0  0  0  0  3  0  0  0  0  0  0
  186.9330  174.2020  134.7570 N   0  0  0  0  0  2  0  0  0  0  0  0
  188.1650  174.8740  134.7260 N   0  0  0  0  0  0  0  0  0  0  0  0
  188.6510  173.0980  136.3050 O   0  0  0  0  0  1  0  0  0  0  0  0
  189.0840  174.2610  135.6580 C   0  0  2  0  0  0  0  0  0  0  0  0
  188.3820  175.3630  136.0120 O   0  0  0  0  0  0  0  0  0  0  0  0
  190.5610  174.5020  135.3960 C   0  0  2  0  0  3  0  0  0  0  0  0
  192.2690  175.7850  136.0390 C   0  0  0  0  0  2  0  0  0  0  0  0
  191.4030  173.5780  136.2420 C   0  0  0  0  0  2  0  0  0  0  0  0
  190.9040  175.8250  135.7140 O   0  0  0  0  0  0  0  0  0  0  0  0
  192.6160  174.4030  136.5550 C   0  0  1  0  0  3  0  0  0  0  0  0
  195.1790  173.1190  136.7470 O   0  0  0  0  0  1  0  0  0  0  0  0
  193.5620  172.5410  134.5860 O   0  0  0  0  0  0  0  0  0  0  0  0
  194.0580  173.7580  135.6520 P   0  0  0  0  0  0  0  0  0  0  0  0
  194.7100  174.8720  134.8690 O   0  0  0  0  0  1  0  0  0  0  0  0
  1 11  1  1  0  0  0
  1 12  1  0  0  0  0
  1  4  1  0  0  0  0
  2 10  1  0  0  0  0
  4 35  1  6  0  0  0
  4  7  1  0  0  0  0
  5  3  1  6  0  0  0
  5  8  1  0  0  0  0
  6  2  1  0  0  0  0
  7  5  1  0  0  0  0
  7  6  1  1  0  0  0
  8  9  1  0  0  0  0
  9 10  2  0  0  0  0
 10 13  1  0  0  0  0
 12  3  1  0  0  0  0
 13 17  2  0  0  0  0
 14 15  1  0  0  0  0
 15 13  1  0  0  0  0
 15 16  2  0  0  0  0
 16 18  1  0  0  0  0
 17 19  1  0  0  0  0
 17 18  1  0  0  0  0
 18 20  1  0  0  0  0
 20 21  1  0  0  0  0
 22 25  1  0  0  0  0
 24 22  1  0  0  0  0
 24 26  1  0  0  0  0
 25 23  1  0  0  0  0
 25 27  1  1  0  0  0
 26 21  1  1  0  0  0
 26 23  1  0  0  0  0
 27 28  1  0  0  0  0
 28 30  1  6  0  0  0
 29 28  1  0  0  0  0
 31 36  1  0  0  0  0
 32 31  2  0  0  0  0
 33 32  1  0  0  0  0
 33 34  2  0  0  0  0
 34 35  1  0  0  0  0
 35 36  2  0  0  0  0
 37 32  1  0  0  0  0
 38 37  1  0  0  0  0
 38 40  1  0  0  0  0
 38 41  1  0  0  0  0
 40 41  1  0  0  0  0
 40 39  1  1  0  0  0
 42 40  1  0  0  0  0
 42 45  1  0  0  0  0
 42 44  1  1  0  0  0
 43 46  1  0  0  0  0
 44 46  1  0  0  0  0
 45 43  1  0  0  0  0
 46 49  1  6  0  0  0
 48 49  2  0  0  0  0
 49 47  1  0  0  0  0
 50 49  1  0  0  0  0
M  END
>  <MODEL>
8

>  <REMARK>
 VINA RESULT:      -6.0      3.850      8.559
  Name = 
  11 active torsions:
  status: ('A' for Active; 'I' for Inactive)
    1  A    between atoms: C_1  and  C_44
    2  A    between atoms: C_4  and  C_31
    3  A    between atoms: N_5  and  C_12
    4  A    between atoms: N_5  and  C_41
    5  A    between atoms: N_6  and  C_7
    6  A    between atoms: N_6  and  N_15
    7  A    between atoms: S_9  and  C_47
    8  A    between atoms: S_9  and  C_50
    9  A    between atoms: C_26  and  C_32
   10  A    between atoms: C_27  and  P_28
   11  A    between atoms: N_39  and  C_50
                            x       y       z     vdW  Elec       q    Type
                         _______ _______ _______ _____ _____    ______ ____

>  <TORSDO>
F 11

$$$$
=
 OpenBabel10232410363D

 50 56  0  0  1  0  0  0  0  0999 V2000
  184.3550  179.0560  144.3470 C   0  0  1  0  0  3  0  0  0  0  0  0
  183.5680  178.9770  140.1340 C   0  0  0  0  0  2  0  0  0  0  0  0
  182.0570  178.4420  144.1850 C   0  0  0  0  0  2  0  0  0  0  0  0
  184.5860  178.9210  142.8320 C   0  0  2  0  0  3  0  0  0  0  0  0
  182.0730  178.3220  142.6610 C   0  0  2  0  0  3  0  0  0  0  0  0
  183.6600  177.7590  140.8260 O   0  0  0  0  0  0  0  0  0  0  0  0
  183.5140  178.0000  142.2130 C   0  0  1  0  0  3  0  0  0  0  0  0
  181.5140  179.6090  142.0450 C   0  0  0  0  0  2  0  0  0  0  0  0
  181.2150  179.4510  140.5840 C   0  0  0  0  0  3  0  0  0  0  0  0
  182.1590  179.1890  139.6770 C   0  0  0  0  0  0  0  0  0  0  0  0
  185.2800  180.0320  144.9050 N   0  0  0  0  0  1  0  0  0  0  0  0
  182.9840  179.4830  144.6290 N   0  0  0  0  0  2  0  0  0  0  0  0
  181.8160  179.0480  138.2410 C   0  0  0  0  0  0  0  0  0  0  0  0
  180.8210  181.3060  137.7990 N   0  0  0  0  0  1  0  0  0  0  0  0
  181.2300  179.9970  137.4140 C   0  0  0  0  0  0  0  0  0  0  0  0
  181.0460  179.5040  136.1760 N   0  0  0  0  0  0  0  0  0  0  0  0
  181.9810  177.9500  137.4060 C   0  0  0  0  0  0  0  0  0  0  0  0
  181.5110  178.2650  136.1810 N   0  0  0  0  0  0  0  0  0  0  0  0
  182.6010  176.6380  137.7580 C   0  0  0  0  0  1  0  0  0  0  0  0
  181.4740  177.3910  135.0190 C   0  0  0  0  0  2  0  0  0  0  0  0
  179.9820  176.3550  135.0630 S   0  0  0  0  0  0  0  0  0  0  0  0
  181.8890  172.5640  135.8440 S   0  0  0  0  0  0  0  0  0  0  0  0
  182.3960  175.0670  134.9530 C   0  0  0  0  0  2  0  0  0  0  0  0
  180.5080  173.7460  135.7000 C   0  0  0  0  0  2  0  0  0  0  0  0
  183.0280  173.6940  134.9800 C   0  0  1  0  0  3  0  0  0  0  0  0
  180.9200  174.8340  134.7340 C   0  0  1  0  0  3  0  0  0  0  0  0
  184.3110  173.7470  135.6800 N   0  0  0  0  0  2  0  0  0  0  0  0
  184.5200  172.5260  136.4640 C   0  0  2  0  0  3  0  0  0  0  0  0
  184.9440  172.8310  137.7640 O   0  0  0  0  0  1  0  0  0  0  0  0
  185.5080  171.5850  135.7810 C   0  0  0  0  0  1  0  0  0  0  0  0
  187.8170  176.9030  142.9520 C   0  0  0  0  0  3  0  0  0  0  0  0
  188.5380  177.4840  141.8990 C   0  0  0  0  0  0  0  0  0  0  0  0
  187.9690  178.5300  141.1640 C   0  0  0  0  0  3  0  0  0  0  0  0
  186.6870  178.9920  141.4770 C   0  0  0  0  0  3  0  0  0  0  0  0
  185.9660  178.4140  142.5290 C   0  0  0  0  0  0  0  0  0  0  0  0
  186.5360  177.3660  143.2690 C   0  0  0  0  0  3  0  0  0  0  0  0
  189.8510  177.0270  141.5700 N   0  0  0  0  0  2  0  0  0  0  0  0
  190.1280  176.4180  140.3360 N   0  0  0  0  0  0  0  0  0  0  0  0
  192.1280  177.7550  140.6470 O   0  0  0  0  0  1  0  0  0  0  0  0
  191.3880  176.9030  139.8200 C   0  0  2  0  0  0  0  0  0  0  0  0
  190.2210  177.4450  139.4000 O   0  0  0  0  0  0  0  0  0  0  0  0
  192.0800  176.0110  138.8020 C   0  0  2  0  0  3  0  0  0  0  0  0
  192.1100  175.5350  136.6230 C   0  0  0  0  0  2  0  0  0  0  0  0
  193.3510  176.6620  138.3120 C   0  0  0  0  0  2  0  0  0  0  0  0
  191.2440  175.7920  137.6970 O   0  0  0  0  0  0  0  0  0  0  0  0
  193.4370  176.2210  136.8810 C   0  0  1  0  0  3  0  0  0  0  0  0
  195.6160  174.8400  138.1450 O   0  0  0  0  0  1  0  0  0  0  0  0
  194.1650  173.5290  136.1970 O   0  0  0  0  0  1  0  0  0  0  0  0
  194.7940  175.0250  136.6780 P   0  0  0  0  0  0  0  0  0  0  0  0
  195.7590  175.5210  135.6280 O   0  0  0  0  0  0  0  0  0  0  0  0
  1 12  1  0  0  0  0
  1 11  1  6  0  0  0
  2  6  1  0  0  0  0
  3 12  1  0  0  0  0
  4 35  1  1  0  0  0
  4  1  1  0  0  0  0
  5  8  1  6  0  0  0
  5  3  1  0  0  0  0
  7  6  1  6  0  0  0
  7  5  1  0  0  0  0
  7  4  1  0  0  0  0
  9  8  1  0  0  0  0
 10  2  1  0  0  0  0
 10  9  2  0  0  0  0
 13 10  1  0  0  0  0
 15 14  1  0  0  0  0
 15 13  1  0  0  0  0
 16 18  1  0  0  0  0
 16 15  2  0  0  0  0
 17 19  1  0  0  0  0
 17 13  2  0  0  0  0
 18 17  1  0  0  0  0
 20 21  1  0  0  0  0
 20 18  1  0  0  0  0
 23 25  1  0  0  0  0
 24 22  1  0  0  0  0
 25 27  1  1  0  0  0
 25 22  1  0  0  0  0
 26 23  1  0  0  0  0
 26 21  1  1  0  0  0
 26 24  1  0  0  0  0
 27 28  1  0  0  0  0
 28 30  1  6  0  0  0
 28 29  1  0  0  0  0
 31 36  1  0  0  0  0
 32 31  2  0  0  0  0
 33 34  2  0  0  0  0
 33 32  1  0  0  0  0
 34 35  1  0  0  0  0
 35 36  2  0  0  0  0
 37 32  1  0  0  0  0
 38 37  1  0  0  0  0
 40 38  1  0  0  0  0
 40 39  1  1  0  0  0
 41 40  1  0  0  0  0
 41 38  1  0  0  0  0
 42 44  1  6  0  0  0
 42 40  1  0  0  0  0
 43 46  1  0  0  0  0
 43 45  1  0  0  0  0
 45 42  1  0  0  0  0
 46 49  1  1  0  0  0
 46 44  1  0  0  0  0
 48 49  1  0  0  0  0
 49 47  1  0  0  0  0
 50 49  2  0  0  0  0
M  END
>  <MODEL>
9

>  <REMARK>
 VINA RESULT:      -5.6      3.681      7.737
  Name = 
  11 active torsions:
  status: ('A' for Active; 'I' for Inactive)
    1  A    between atoms: C_1  and  C_44
    2  A    between atoms: C_4  and  C_31
    3  A    between atoms: N_5  and  C_12
    4  A    between atoms: N_5  and  C_41
    5  A    between atoms: N_6  and  C_7
    6  A    between atoms: N_6  and  N_15
    7  A    between atoms: S_9  and  C_47
    8  A    between atoms: S_9  and  C_50
    9  A    between atoms: C_26  and  C_32
   10  A    between atoms: C_27  and  P_28
   11  A    between atoms: N_39  and  C_50
                            x       y       z     vdW  Elec       q    Type
                         _______ _______ _______ _____ _____    ______ ____

>  <TORSDO>
F 11

$$$$
