=
 OpenBabel10222421473D

 31 33  0  0  1  0  0  0  0  0999 V2000
  189.0640  177.8640  139.8300 C   0  0  0  0  0  0  0  0  0  0  0  0
  191.9370  177.3460  140.6690 C   0  0  0  0  0  3  0  0  0  0  0  0
  190.8880  176.9180  138.4030 C   0  0  0  0  0  0  0  0  0  0  0  0
  189.6920  177.7840  138.6440 C   0  0  0  0  0  0  0  0  0  0  0  0
  190.8710  177.5300  141.4550 C   0  0  0  0  0  0  0  0  0  0  0  0
  191.8880  176.7960  139.2990 C   0  0  0  0  0  3  0  0  0  0  0  0
  187.9920  178.7400  139.9890 O   0  0  0  0  0  1  0  0  0  0  0  0
  189.1930  178.6170  137.5050 C   0  0  0  0  0  1  0  0  0  0  0  0
  189.5270  177.0410  140.9980 C   0  0  1  0  0  3  0  0  0  0  0  0
  190.5290  175.3950  134.9730 C   0  0  0  0  0  2  0  0  0  0  0  0
  191.0380  176.2760  137.1200 N   0  0  0  0  0  0  0  0  0  0  0  0
  192.3020  176.2470  136.4100 C   0  0  0  0  0  2  0  0  0  0  0  0
  191.9740  175.8690  134.9780 C   0  0  0  0  0  2  0  0  0  0  0  0
  189.9240  175.8350  136.2940 C   0  0  2  0  0  3  0  0  0  0  0  0
  189.9330  173.5350  137.3310 N   0  0  0  0  0  1  0  0  0  0  0  0
  187.9610  174.7420  137.1300 O   0  0  0  0  0  0  0  0  0  0  0  0
  189.2040  174.6890  136.9330 C   0  0  0  0  0  0  0  0  0  0  0  0
  188.5180  176.9700  142.1090 C   0  0  0  0  0  3  0  0  0  0  0  0
  187.5850  177.9090  142.2400 C   0  0  0  0  0  3  0  0  0  0  0  0
  186.5930  177.8240  143.3490 C   0  0  0  0  0  2  0  0  0  0  0  0
  185.3950  179.5500  141.9550 N   0  0  0  0  0  1  0  0  0  0  0  0
  185.3560  178.5640  142.9800 C   0  0  0  0  0  0  0  0  0  0  0  0
  184.2670  178.2970  143.5530 O   0  0  0  0  0  0  0  0  0  0  0  0
  191.0240  178.1100  142.7610 N   0  0  0  0  0  2  0  0  0  0  0  0
  190.7170  176.2640  147.2500 N   0  0  0  0  0  2  0  0  0  0  0  0
  189.6460  177.9430  145.2900 N   0  0  0  0  0  2  0  0  0  0  0  0
  190.9530  177.3890  145.0950 C   0  0  0  0  0  0  0  0  0  0  0  0
  189.8320  177.3520  147.6590 C   0  0  0  0  0  2  0  0  0  0  0  0
  191.5740  177.4580  143.9150 C   0  0  0  0  0  3  0  0  0  0  0  0
  191.6680  176.7730  146.2600 C   0  0  0  0  0  2  0  0  0  0  0  0
  188.8870  177.6880  146.5090 C   0  0  0  0  0  2  0  0  0  0  0  0
  1  7  1  0  0  0  0
  1  9  1  0  0  0  0
  2  5  2  0  0  0  0
  3  4  1  0  0  0  0
  3  6  2  0  0  0  0
  4  1  2  0  0  0  0
  5 24  1  0  0  0  0
  6  2  1  0  0  0  0
  8  4  1  0  0  0  0
  9  5  1  0  0  0  0
  9 18  1  1  0  0  0
 10 13  1  0  0  0  0
 10 14  1  0  0  0  0
 11  3  1  0  0  0  0
 12 11  1  0  0  0  0
 13 12  1  0  0  0  0
 14 17  1  1  0  0  0
 14 11  1  0  0  0  0
 17 16  2  0  0  0  0
 17 15  1  0  0  0  0
 18 19  2  0  0  0  0
 19 20  1  0  0  0  0
 21 22  1  0  0  0  0
 22 20  1  0  0  0  0
 22 23  2  0  0  0  0
 24 29  1  0  0  0  0
 25 28  1  0  0  0  0
 26 31  1  0  0  0  0
 27 26  1  0  0  0  0
 27 30  1  0  0  0  0
 29 27  2  0  0  0  0
 30 25  1  0  0  0  0
 31 28  1  0  0  0  0
M  END
>  <MODEL>
1

>  <REMARK>
 VINA RESULT:      -7.9      0.000      0.000
  Name = 
  7 active torsions:
  status: ('A' for Active; 'I' for Inactive)
    1  A    between atoms: C_3  and  C_29
    2  A    between atoms: N_5  and  C_13
    3  A    between atoms: C_11  and  C_21
    4  A    between atoms: C_16  and  N_17
    5  A    between atoms: N_17  and  C_18
    6  A    between atoms: C_21  and  C_24
    7  A    between atoms: C_30  and  C_31
                            x       y       z     vdW  Elec       q    Type
                         _______ _______ _______ _____ _____    ______ ____

>  <TORSDO>
F 7

$$$$
=
 OpenBabel10222421473D

 31 33  0  0  1  0  0  0  0  0999 V2000
  188.2180  178.1790  140.3910 C   0  0  0  0  0  0  0  0  0  0  0  0
  190.9240  176.8150  140.6030 C   0  0  0  0  0  3  0  0  0  0  0  0
  189.2200  176.5850  138.7430 C   0  0  0  0  0  0  0  0  0  0  0  0
  188.4470  177.8090  139.1180 C   0  0  0  0  0  0  0  0  0  0  0  0
  190.2160  177.3960  141.5790 C   0  0  0  0  0  0  0  0  0  0  0  0
  190.3440  176.2100  139.3870 C   0  0  0  0  0  3  0  0  0  0  0  0
  187.5390  179.3670  140.6560 O   0  0  0  0  0  1  0  0  0  0  0  0
  187.9260  178.6710  138.0120 C   0  0  0  0  0  1  0  0  0  0  0  0
  188.7170  177.3400  141.5320 C   0  0  1  0  0  3  0  0  0  0  0  0
  188.9030  174.3880  135.6950 C   0  0  0  0  0  2  0  0  0  0  0  0
  188.8180  175.8350  137.5790 N   0  0  0  0  0  0  0  0  0  0  0  0
  187.4500  175.3990  137.3700 C   0  0  0  0  0  2  0  0  0  0  0  0
  187.5070  174.3290  136.2960 C   0  0  0  0  0  2  0  0  0  0  0  0
  189.7480  175.2170  136.6450 C   0  0  2  0  0  3  0  0  0  0  0  0
  189.7980  177.2390  135.1360 N   0  0  0  0  0  1  0  0  0  0  0  0
  191.7670  176.2720  135.8970 O   0  0  0  0  0  0  0  0  0  0  0  0
  190.5070  176.2560  135.8790 C   0  0  0  0  0  0  0  0  0  0  0  0
  188.0750  177.6860  142.8460 C   0  0  0  0  0  3  0  0  0  0  0  0
  186.8030  177.3760  143.0830 C   0  0  0  0  0  3  0  0  0  0  0  0
  186.1820  177.7290  144.3910 C   0  0  0  0  0  2  0  0  0  0  0  0
  184.2410  179.0710  145.2790 N   0  0  0  0  0  1  0  0  0  0  0  0
  184.9920  178.5940  144.1690 C   0  0  0  0  0  0  0  0  0  0  0  0
  184.6670  178.9290  143.0000 O   0  0  0  0  0  0  0  0  0  0  0  0
  190.8840  177.9910  142.7040 N   0  0  0  0  0  2  0  0  0  0  0  0
  190.9410  176.1610  147.2100 N   0  0  0  0  0  2  0  0  0  0  0  0
  189.8090  177.9450  145.3810 N   0  0  0  0  0  2  0  0  0  0  0  0
  191.0250  177.2690  145.0340 C   0  0  0  0  0  0  0  0  0  0  0  0
  190.2200  177.3270  147.7140 C   0  0  0  0  0  2  0  0  0  0  0  0
  191.5030  177.2830  143.7880 C   0  0  0  0  0  3  0  0  0  0  0  0
  191.8110  176.5810  146.1100 C   0  0  0  0  0  2  0  0  0  0  0  0
  189.1810  177.7580  146.6840 C   0  0  0  0  0  2  0  0  0  0  0  0
  1  7  1  0  0  0  0
  1  9  1  0  0  0  0
  2  5  2  0  0  0  0
  3  4  1  0  0  0  0
  3  6  2  0  0  0  0
  4  1  2  0  0  0  0
  5 24  1  0  0  0  0
  6  2  1  0  0  0  0
  8  4  1  0  0  0  0
  9  5  1  0  0  0  0
  9 18  1  1  0  0  0
 10 13  1  0  0  0  0
 10 14  1  0  0  0  0
 11  3  1  0  0  0  0
 12 11  1  0  0  0  0
 13 12  1  0  0  0  0
 14 17  1  6  0  0  0
 14 11  1  0  0  0  0
 15 17  1  0  0  0  0
 17 16  2  0  0  0  0
 18 19  2  0  0  0  0
 19 20  1  0  0  0  0
 22 20  1  0  0  0  0
 22 21  1  0  0  0  0
 23 22  2  0  0  0  0
 24 29  1  0  0  0  0
 25 28  1  0  0  0  0
 26 31  1  0  0  0  0
 27 26  1  0  0  0  0
 27 30  1  0  0  0  0
 29 27  2  0  0  0  0
 30 25  1  0  0  0  0
 31 28  1  0  0  0  0
M  END
>  <MODEL>
2

>  <REMARK>
 VINA RESULT:      -7.6      1.495      2.091
  Name = 
  7 active torsions:
  status: ('A' for Active; 'I' for Inactive)
    1  A    between atoms: C_3  and  C_29
    2  A    between atoms: N_5  and  C_13
    3  A    between atoms: C_11  and  C_21
    4  A    between atoms: C_16  and  N_17
    5  A    between atoms: N_17  and  C_18
    6  A    between atoms: C_21  and  C_24
    7  A    between atoms: C_30  and  C_31
                            x       y       z     vdW  Elec       q    Type
                         _______ _______ _______ _____ _____    ______ ____

>  <TORSDO>
F 7

$$$$
=
 OpenBabel10222421473D

 31 33  0  0  1  0  0  0  0  0999 V2000
  188.6370  177.8630  139.7410 C   0  0  0  0  0  0  0  0  0  0  0  0
  191.0730  177.1780  141.4210 C   0  0  0  0  0  3  0  0  0  0  0  0
  190.5460  176.3900  139.0720 C   0  0  0  0  0  0  0  0  0  0  0  0
  189.5090  177.4360  138.8100 C   0  0  0  0  0  0  0  0  0  0  0  0
  189.9010  177.6720  141.8350 C   0  0  0  0  0  0  0  0  0  0  0  0
  191.2580  176.3440  140.2160 C   0  0  0  0  0  3  0  0  0  0  0  0
  187.7400  178.8840  139.4340 O   0  0  0  0  0  1  0  0  0  0  0  0
  189.4640  178.0480  137.4450 C   0  0  0  0  0  1  0  0  0  0  0  0
  188.6420  177.2720  141.1220 C   0  0  1  0  0  3  0  0  0  0  0  0
  192.1030  173.9220  136.6850 C   0  0  0  0  0  2  0  0  0  0  0  0
  190.8810  175.4610  138.0210 N   0  0  0  0  0  0  0  0  0  0  0  0
  189.8770  174.6730  137.3330 C   0  0  0  0  0  2  0  0  0  0  0  0
  190.6270  173.5620  136.6220 C   0  0  0  0  0  2  0  0  0  0  0  0
  192.2370  175.0210  137.7240 C   0  0  2  0  0  3  0  0  0  0  0  0
  193.1060  176.3580  135.7680 N   0  0  0  0  0  1  0  0  0  0  0  0
  193.6920  176.9140  137.9440 O   0  0  0  0  0  0  0  0  0  0  0  0
  193.0560  176.1470  137.1730 C   0  0  0  0  0  0  0  0  0  0  0  0
  187.3980  177.5860  141.9040 C   0  0  0  0  0  3  0  0  0  0  0  0
  186.7590  178.7390  141.7300 C   0  0  0  0  0  3  0  0  0  0  0  0
  185.5280  179.0350  142.5160 C   0  0  0  0  0  2  0  0  0  0  0  0
  183.0550  178.6420  142.2200 N   0  0  0  0  0  1  0  0  0  0  0  0
  184.3280  178.9070  141.6440 C   0  0  0  0  0  0  0  0  0  0  0  0
  184.4350  179.0620  140.4000 O   0  0  0  0  0  0  0  0  0  0  0  0
  189.8360  178.5080  143.0020 N   0  0  0  0  0  2  0  0  0  0  0  0
  188.8870  176.9040  147.4950 N   0  0  0  0  0  2  0  0  0  0  0  0
  187.9390  178.0420  145.1250 N   0  0  0  0  0  2  0  0  0  0  0  0
  189.3540  177.9280  145.3260 C   0  0  0  0  0  0  0  0  0  0  0  0
  187.6430  177.6690  147.5270 C   0  0  0  0  0  2  0  0  0  0  0  0
  190.2210  178.1300  144.3320 C   0  0  0  0  0  3  0  0  0  0  0  0
  189.8750  177.6370  146.7020 C   0  0  0  0  0  2  0  0  0  0  0  0
  186.9900  177.6220  146.1500 C   0  0  0  0  0  2  0  0  0  0  0  0
  1  9  1  0  0  0  0
  2  5  2  0  0  0  0
  3  6  2  0  0  0  0
  4  3  1  0  0  0  0
  4  1  2  0  0  0  0
  5 24  1  0  0  0  0
  6  2  1  0  0  0  0
  7  1  1  0  0  0  0
  8  4  1  0  0  0  0
  9  5  1  0  0  0  0
  9 18  1  1  0  0  0
 10 14  1  0  0  0  0
 11  3  1  0  0  0  0
 12 11  1  0  0  0  0
 13 10  1  0  0  0  0
 13 12  1  0  0  0  0
 14 17  1  6  0  0  0
 14 11  1  0  0  0  0
 15 17  1  0  0  0  0
 17 16  2  0  0  0  0
 19 18  2  0  0  0  0
 19 20  1  0  0  0  0
 22 21  1  0  0  0  0
 22 20  1  0  0  0  0
 23 22  2  0  0  0  0
 24 29  1  0  0  0  0
 25 28  1  0  0  0  0
 26 27  1  0  0  0  0
 26 31  1  0  0  0  0
 27 30  1  0  0  0  0
 29 27  2  0  0  0  0
 30 25  1  0  0  0  0
 31 28  1  0  0  0  0
M  END
>  <MODEL>
3

>  <REMARK>
 VINA RESULT:      -7.2      1.854      2.353
  Name = 
  7 active torsions:
  status: ('A' for Active; 'I' for Inactive)
    1  A    between atoms: C_3  and  C_29
    2  A    between atoms: N_5  and  C_13
    3  A    between atoms: C_11  and  C_21
    4  A    between atoms: C_16  and  N_17
    5  A    between atoms: N_17  and  C_18
    6  A    between atoms: C_21  and  C_24
    7  A    between atoms: C_30  and  C_31
                            x       y       z     vdW  Elec       q    Type
                         _______ _______ _______ _____ _____    ______ ____

>  <TORSDO>
F 7

$$$$
=
 OpenBabel10222421473D

 31 33  0  0  1  0  0  0  0  0999 V2000
  183.5910  179.0180  138.8300 C   0  0  0  0  0  0  0  0  0  0  0  0
  185.7460  177.2130  137.6800 C   0  0  0  0  0  3  0  0  0  0  0  0
  183.2440  177.0560  137.3150 C   0  0  0  0  0  0  0  0  0  0  0  0
  182.9520  178.4440  137.7940 C   0  0  0  0  0  0  0  0  0  0  0  0
  185.8390  178.0420  138.7250 C   0  0  0  0  0  0  0  0  0  0  0  0
  184.4970  176.5690  137.2240 C   0  0  0  0  0  3  0  0  0  0  0  0
  183.3020  180.3370  139.1770 O   0  0  0  0  0  1  0  0  0  0  0  0
  181.9120  179.2310  137.0620 C   0  0  0  0  0  1  0  0  0  0  0  0
  184.6370  178.2620  139.5980 C   0  0  1  0  0  3  0  0  0  0  0  0
  179.9820  175.3310  136.5420 C   0  0  0  0  0  2  0  0  0  0  0  0
  182.1570  176.2450  136.8250 N   0  0  0  0  0  0  0  0  0  0  0  0
  182.1490  175.6870  135.4860 C   0  0  0  0  0  2  0  0  0  0  0  0
  180.7170  175.2680  135.2120 C   0  0  0  0  0  2  0  0  0  0  0  0
  180.8690  176.1190  137.4900 C   0  0  2  0  0  3  0  0  0  0  0  0
  180.2780  174.1830  138.9960 N   0  0  0  0  0  1  0  0  0  0  0  0
  181.7660  175.8230  139.6930 O   0  0  0  0  0  0  0  0  0  0  0  0
  181.0050  175.3870  138.7880 C   0  0  0  0  0  0  0  0  0  0  0  0
  184.9770  178.8970  140.9160 C   0  0  0  0  0  3  0  0  0  0  0  0
  184.3730  178.5040  142.0350 C   0  0  0  0  0  3  0  0  0  0  0  0
  184.7210  179.1450  143.3340 C   0  0  0  0  0  2  0  0  0  0  0  0
  183.9100  178.8920  145.7080 N   0  0  0  0  0  1  0  0  0  0  0  0
  183.6240  178.9290  144.3150 C   0  0  0  0  0  0  0  0  0  0  0  0
  182.4360  178.8090  143.9150 O   0  0  0  0  0  0  0  0  0  0  0  0
  187.0980  178.6470  139.0620 N   0  0  0  0  0  2  0  0  0  0  0  0
  190.3810  176.2780  141.7560 N   0  0  0  0  0  2  0  0  0  0  0  0
  188.1740  177.9890  141.6560 N   0  0  0  0  0  2  0  0  0  0  0  0
  188.8590  177.6640  140.4400 C   0  0  0  0  0  0  0  0  0  0  0  0
  190.1250  177.1670  142.8870 C   0  0  0  0  0  2  0  0  0  0  0  0
  188.3430  177.9580  139.2450 C   0  0  0  0  0  3  0  0  0  0  0  0
  190.2180  177.0330  140.5130 C   0  0  0  0  0  2  0  0  0  0  0  0
  188.6340  177.4860  142.9450 C   0  0  0  0  0  2  0  0  0  0  0  0
  1  7  1  0  0  0  0
  1  9  1  0  0  0  0
  2  5  2  0  0  0  0
  3  4  1  0  0  0  0
  4  1  2  0  0  0  0
  5 24  1  0  0  0  0
  5  9  1  0  0  0  0
  6  3  2  0  0  0  0
  6  2  1  0  0  0  0
  8  4  1  0  0  0  0
  9 18  1  1  0  0  0
 10 14  1  0  0  0  0
 11  3  1  0  0  0  0
 11 14  1  0  0  0  0
 12 11  1  0  0  0  0
 13 12  1  0  0  0  0
 13 10  1  0  0  0  0
 14 17  1  1  0  0  0
 17 15  1  0  0  0  0
 17 16  2  0  0  0  0
 18 19  2  0  0  0  0
 19 20  1  0  0  0  0
 20 22  1  0  0  0  0
 22 21  1  0  0  0  0
 23 22  2  0  0  0  0
 24 29  1  0  0  0  0
 25 28  1  0  0  0  0
 26 31  1  0  0  0  0
 27 30  1  0  0  0  0
 27 26  1  0  0  0  0
 28 31  1  0  0  0  0
 29 27  2  0  0  0  0
 30 25  1  0  0  0  0
M  END
>  <MODEL>
4

>  <REMARK>
 VINA RESULT:      -7.0      4.890      6.645
  Name = 
  7 active torsions:
  status: ('A' for Active; 'I' for Inactive)
    1  A    between atoms: C_3  and  C_29
    2  A    between atoms: N_5  and  C_13
    3  A    between atoms: C_11  and  C_21
    4  A    between atoms: C_16  and  N_17
    5  A    between atoms: N_17  and  C_18
    6  A    between atoms: C_21  and  C_24
    7  A    between atoms: C_30  and  C_31
                            x       y       z     vdW  Elec       q    Type
                         _______ _______ _______ _____ _____    ______ ____

>  <TORSDO>
F 7

$$$$
=
 OpenBabel10222421473D

 31 33  0  0  1  0  0  0  0  0999 V2000
  189.2240  178.4280  142.6380 C   0  0  0  0  0  0  0  0  0  0  0  0
  186.8590  177.5710  144.3390 C   0  0  0  0  0  3  0  0  0  0  0  0
  189.3160  177.4610  144.9440 C   0  0  0  0  0  0  0  0  0  0  0  0
  189.7600  178.4060  143.8720 C   0  0  0  0  0  0  0  0  0  0  0  0
  186.8910  177.7750  143.0170 C   0  0  0  0  0  0  0  0  0  0  0  0
  188.0180  177.1620  145.1560 C   0  0  0  0  0  3  0  0  0  0  0  0
  189.6530  179.3790  141.7140 O   0  0  0  0  0  1  0  0  0  0  0  0
  190.8380  179.3860  144.2080 C   0  0  0  0  0  1  0  0  0  0  0  0
  188.1440  177.4570  142.2550 C   0  0  1  0  0  3  0  0  0  0  0  0
  191.2660  175.8510  147.7400 C   0  0  0  0  0  2  0  0  0  0  0  0
  190.2970  176.9350  145.8600 N   0  0  0  0  0  0  0  0  0  0  0  0
  191.6290  176.5500  145.4340 C   0  0  0  0  0  2  0  0  0  0  0  0
  192.1970  175.6910  146.5480 C   0  0  0  0  0  2  0  0  0  0  0  0
  189.9950  176.4920  147.2130 C   0  0  2  0  0  3  0  0  0  0  0  0
  188.2480  177.8160  148.4620 N   0  0  0  0  0  1  0  0  0  0  0  0
  190.4770  178.4650  148.4860 O   0  0  0  0  0  0  0  0  0  0  0  0
  189.6080  177.6480  148.0820 C   0  0  0  0  0  0  0  0  0  0  0  0
  187.9240  177.3720  140.7710 C   0  0  0  0  0  3  0  0  0  0  0  0
  188.9450  177.1660  139.9440 C   0  0  0  0  0  3  0  0  0  0  0  0
  188.7090  177.0870  138.4740 C   0  0  0  0  0  2  0  0  0  0  0  0
  186.9070  178.5720  137.5250 N   0  0  0  0  0  1  0  0  0  0  0  0
  188.2500  178.4060  137.9630 C   0  0  0  0  0  0  0  0  0  0  0  0
  189.0410  179.3850  137.9460 O   0  0  0  0  0  0  0  0  0  0  0  0
  185.7110  178.2100  142.3210 N   0  0  0  0  0  2  0  0  0  0  0  0
  180.8610  178.5630  142.3750 N   0  0  0  0  0  2  0  0  0  0  0  0
  183.2060  178.2270  140.8920 N   0  0  0  0  0  2  0  0  0  0  0  0
  183.3010  178.6090  142.2700 C   0  0  0  0  0  0  0  0  0  0  0  0
  180.8490  178.8880  140.9500 C   0  0  0  0  0  2  0  0  0  0  0  0
  184.4640  178.5810  142.9250 C   0  0  0  0  0  3  0  0  0  0  0  0
  182.0770  179.1120  142.9760 C   0  0  0  0  0  2  0  0  0  0  0  0
  181.9120  178.0580  140.2380 C   0  0  0  0  0  2  0  0  0  0  0  0
  1  4  2  0  0  0  0
  2  6  1  0  0  0  0
  3  6  2  0  0  0  0
  3 11  1  0  0  0  0
  4  8  1  0  0  0  0
  4  3  1  0  0  0  0
  5  2  2  0  0  0  0
  7  1  1  0  0  0  0
  9 18  1  6  0  0  0
  9  1  1  0  0  0  0
  9  5  1  0  0  0  0
 11 14  1  0  0  0  0
 12 11  1  0  0  0  0
 12 13  1  0  0  0  0
 13 10  1  0  0  0  0
 14 10  1  0  0  0  0
 14 17  1  1  0  0  0
 17 15  1  0  0  0  0
 17 16  2  0  0  0  0
 19 18  2  0  0  0  0
 20 19  1  0  0  0  0
 21 22  1  0  0  0  0
 22 20  1  0  0  0  0
 23 22  2  0  0  0  0
 24 29  1  0  0  0  0
 24  5  1  0  0  0  0
 25 30  1  0  0  0  0
 26 27  1  0  0  0  0
 27 29  2  0  0  0  0
 27 30  1  0  0  0  0
 28 25  1  0  0  0  0
 31 26  1  0  0  0  0
 31 28  1  0  0  0  0
M  END
>  <MODEL>
5

>  <REMARK>
 VINA RESULT:      -7.0      2.882      8.156
  Name = 
  7 active torsions:
  status: ('A' for Active; 'I' for Inactive)
    1  A    between atoms: C_3  and  C_29
    2  A    between atoms: N_5  and  C_13
    3  A    between atoms: C_11  and  C_21
    4  A    between atoms: C_16  and  N_17
    5  A    between atoms: N_17  and  C_18
    6  A    between atoms: C_21  and  C_24
    7  A    between atoms: C_30  and  C_31
                            x       y       z     vdW  Elec       q    Type
                         _______ _______ _______ _____ _____    ______ ____

>  <TORSDO>
F 7

$$$$
=
 OpenBabel10222421473D

 31 33  0  0  1  0  0  0  0  0999 V2000
  189.0280  178.1220  138.2770 C   0  0  0  0  0  0  0  0  0  0  0  0
  191.1380  176.2840  139.4580 C   0  0  0  0  0  3  0  0  0  0  0  0
  189.7900  175.9290  137.3430 C   0  0  0  0  0  0  0  0  0  0  0  0
  189.3550  177.3560  137.2210 C   0  0  0  0  0  0  0  0  0  0  0  0
  190.4730  177.2720  140.0670 C   0  0  0  0  0  0  0  0  0  0  0  0
  190.6260  175.5060  138.3120 C   0  0  0  0  0  3  0  0  0  0  0  0
  188.6900  179.4600  138.0830 O   0  0  0  0  0  1  0  0  0  0  0  0
  189.3080  177.9560  135.8510 C   0  0  0  0  0  1  0  0  0  0  0  0
  189.0550  177.5590  139.6690 C   0  0  1  0  0  3  0  0  0  0  0  0
  188.1750  173.9640  134.5610 C   0  0  0  0  0  2  0  0  0  0  0  0
  189.3950  174.9890  136.3230 N   0  0  0  0  0  0  0  0  0  0  0  0
  190.3490  174.1290  135.6490 C   0  0  0  0  0  2  0  0  0  0  0  0
  189.6460  173.6110  134.4080 C   0  0  0  0  0  2  0  0  0  0  0  0
  188.0880  174.9830  135.6830 C   0  0  2  0  0  3  0  0  0  0  0  0
  185.9820  175.5040  136.9720 N   0  0  0  0  0  1  0  0  0  0  0  0
  187.0230  173.4400  137.1780 O   0  0  0  0  0  0  0  0  0  0  0  0
  187.0190  174.5850  136.6520 C   0  0  0  0  0  0  0  0  0  0  0  0
  188.3250  178.4120  140.6670 C   0  0  0  0  0  3  0  0  0  0  0  0
  187.0070  178.3050  140.8160 C   0  0  0  0  0  3  0  0  0  0  0  0
  186.2990  179.1610  141.8100 C   0  0  0  0  0  2  0  0  0  0  0  0
  185.3180  178.0430  143.8450 N   0  0  0  0  0  1  0  0  0  0  0  0
  185.2160  178.3820  142.4680 C   0  0  0  0  0  0  0  0  0  0  0  0
  184.1930  178.0470  141.8130 O   0  0  0  0  0  0  0  0  0  0  0  0
  191.0800  177.9950  141.1510 N   0  0  0  0  0  2  0  0  0  0  0  0
  190.6210  176.5270  145.7650 N   0  0  0  0  0  2  0  0  0  0  0  0
  189.6420  178.0690  143.6510 N   0  0  0  0  0  2  0  0  0  0  0  0
  190.9370  177.4680  143.5330 C   0  0  0  0  0  0  0  0  0  0  0  0
  189.7580  177.6670  146.0630 C   0  0  0  0  0  2  0  0  0  0  0  0
  191.5860  177.4240  142.3670 C   0  0  0  0  0  3  0  0  0  0  0  0
  191.6080  176.9290  144.7610 C   0  0  0  0  0  2  0  0  0  0  0  0
  188.8490  177.9330  144.8680 C   0  0  0  0  0  2  0  0  0  0  0  0
  1  9  1  0  0  0  0
  2  5  2  0  0  0  0
  3  6  2  0  0  0  0
  4  3  1  0  0  0  0
  4  1  2  0  0  0  0
  5 24  1  0  0  0  0
  6  2  1  0  0  0  0
  7  1  1  0  0  0  0
  8  4  1  0  0  0  0
  9  5  1  0  0  0  0
  9 18  1  1  0  0  0
 10 14  1  0  0  0  0
 11  3  1  0  0  0  0
 12 11  1  0  0  0  0
 13 10  1  0  0  0  0
 13 12  1  0  0  0  0
 14 11  1  0  0  0  0
 14 17  1  1  0  0  0
 17 15  1  0  0  0  0
 17 16  2  0  0  0  0
 18 19  2  0  0  0  0
 19 20  1  0  0  0  0
 20 22  1  0  0  0  0
 22 21  1  0  0  0  0
 23 22  2  0  0  0  0
 24 29  1  0  0  0  0
 25 28  1  0  0  0  0
 26 31  1  0  0  0  0
 27 26  1  0  0  0  0
 27 30  1  0  0  0  0
 29 27  2  0  0  0  0
 30 25  1  0  0  0  0
 31 28  1  0  0  0  0
M  END
>  <MODEL>
6

>  <REMARK>
 VINA RESULT:      -7.0      1.733      2.065
  Name = 
  7 active torsions:
  status: ('A' for Active; 'I' for Inactive)
    1  A    between atoms: C_3  and  C_29
    2  A    between atoms: N_5  and  C_13
    3  A    between atoms: C_11  and  C_21
    4  A    between atoms: C_16  and  N_17
    5  A    between atoms: N_17  and  C_18
    6  A    between atoms: C_21  and  C_24
    7  A    between atoms: C_30  and  C_31
                            x       y       z     vdW  Elec       q    Type
                         _______ _______ _______ _____ _____    ______ ____

>  <TORSDO>
F 7

$$$$
=
 OpenBabel10222421473D

 31 33  0  0  1  0  0  0  0  0999 V2000
  185.3430  178.5570  143.9140 C   0  0  0  0  0  0  0  0  0  0  0  0
  185.8860  178.8250  140.9380 C   0  0  0  0  0  3  0  0  0  0  0  0
  183.6340  178.7040  142.0930 C   0  0  0  0  0  0  0  0  0  0  0  0
  184.1660  179.0190  143.4550 C   0  0  0  0  0  0  0  0  0  0  0  0
  186.7280  178.4190  141.8950 C   0  0  0  0  0  0  0  0  0  0  0  0
  184.4170  178.6850  140.9950 C   0  0  0  0  0  3  0  0  0  0  0  0
  185.7960  178.9450  145.1750 O   0  0  0  0  0  1  0  0  0  0  0  0
  183.3490  179.9120  144.3340 C   0  0  0  0  0  1  0  0  0  0  0  0
  186.1930  177.6520  143.0690 C   0  0  1  0  0  3  0  0  0  0  0  0
  180.1280  177.7640  141.0740 C   0  0  0  0  0  2  0  0  0  0  0  0
  182.2140  178.5240  141.9220 N   0  0  0  0  0  0  0  0  0  0  0  0
  181.2740  178.6880  143.0160 C   0  0  0  0  0  2  0  0  0  0  0  0
  179.9820  178.0350  142.5630 C   0  0  0  0  0  2  0  0  0  0  0  0
  181.6030  177.9180  140.7490 C   0  0  2  0  0  3  0  0  0  0  0  0
  182.2880  178.2370  138.3410 N   0  0  0  0  0  1  0  0  0  0  0  0
  181.4510  180.0090  139.5860 O   0  0  0  0  0  0  0  0  0  0  0  0
  181.7720  178.7910  139.5450 C   0  0  0  0  0  0  0  0  0  0  0  0
  187.2660  176.9480  143.8500 C   0  0  0  0  0  3  0  0  0  0  0  0
  188.0670  177.6260  144.6670 C   0  0  0  0  0  3  0  0  0  0  0  0
  189.1270  176.9110  145.4330 C   0  0  0  0  0  2  0  0  0  0  0  0
  191.6020  177.0890  145.8820 N   0  0  0  0  0  1  0  0  0  0  0  0
  190.4390  177.5830  145.2280 C   0  0  0  0  0  0  0  0  0  0  0  0
  190.5270  178.5710  144.4520 O   0  0  0  0  0  0  0  0  0  0  0  0
  188.1420  178.6380  141.7580 N   0  0  0  0  0  2  0  0  0  0  0  0
  190.7620  177.1730  137.9320 N   0  0  0  0  0  2  0  0  0  0  0  0
  188.6080  178.6600  138.9110 N   0  0  0  0  0  2  0  0  0  0  0  0
  189.2840  177.7500  139.7890 C   0  0  0  0  0  0  0  0  0  0  0  0
  189.6650  177.5080  137.0270 C   0  0  0  0  0  2  0  0  0  0  0  0
  189.0720  177.7610  141.1070 C   0  0  0  0  0  3  0  0  0  0  0  0
  190.2040  176.7190  139.2060 C   0  0  0  0  0  2  0  0  0  0  0  0
  188.9900  178.7880  137.5090 C   0  0  0  0  0  2  0  0  0  0  0  0
  1  7  1  0  0  0  0
  2  6  1  0  0  0  0
  2  5  2  0  0  0  0
  3  4  1  0  0  0  0
  4  1  2  0  0  0  0
  4  8  1  0  0  0  0
  5  9  1  0  0  0  0
  6  3  2  0  0  0  0
  9 18  1  1  0  0  0
  9  1  1  0  0  0  0
 10 13  1  0  0  0  0
 11  3  1  0  0  0  0
 11 12  1  0  0  0  0
 13 12  1  0  0  0  0
 14 17  1  6  0  0  0
 14 10  1  0  0  0  0
 14 11  1  0  0  0  0
 15 17  1  0  0  0  0
 17 16  2  0  0  0  0
 18 19  2  0  0  0  0
 19 20  1  0  0  0  0
 22 20  1  0  0  0  0
 22 21  1  0  0  0  0
 23 22  2  0  0  0  0
 24  5  1  0  0  0  0
 25 30  1  0  0  0  0
 26 27  1  0  0  0  0
 27 29  2  0  0  0  0
 28 31  1  0  0  0  0
 28 25  1  0  0  0  0
 29 24  1  0  0  0  0
 30 27  1  0  0  0  0
 31 26  1  0  0  0  0
M  END
>  <MODEL>
7

>  <REMARK>
 VINA RESULT:      -7.0      3.005      7.943
  Name = 
  7 active torsions:
  status: ('A' for Active; 'I' for Inactive)
    1  A    between atoms: C_3  and  C_29
    2  A    between atoms: N_5  and  C_13
    3  A    between atoms: C_11  and  C_21
    4  A    between atoms: C_16  and  N_17
    5  A    between atoms: N_17  and  C_18
    6  A    between atoms: C_21  and  C_24
    7  A    between atoms: C_30  and  C_31
                            x       y       z     vdW  Elec       q    Type
                         _______ _______ _______ _____ _____    ______ ____

>  <TORSDO>
F 7

$$$$
=
 OpenBabel10222421473D

 31 33  0  0  1  0  0  0  0  0999 V2000
  189.2070  178.5140  142.5220 C   0  0  0  0  0  0  0  0  0  0  0  0
  186.8160  177.7240  144.2180 C   0  0  0  0  0  3  0  0  0  0  0  0
  189.2690  177.4870  144.8020 C   0  0  0  0  0  0  0  0  0  0  0  0
  189.7490  178.4370  143.7500 C   0  0  0  0  0  0  0  0  0  0  0  0
  186.8490  177.9590  142.9020 C   0  0  0  0  0  0  0  0  0  0  0  0
  187.9610  177.2430  145.0170 C   0  0  0  0  0  3  0  0  0  0  0  0
  189.6730  179.4670  141.6180 O   0  0  0  0  0  1  0  0  0  0  0  0
  190.8740  179.3580  144.1030 C   0  0  0  0  0  1  0  0  0  0  0  0
  188.0810  177.6040  142.1230 C   0  0  1  0  0  3  0  0  0  0  0  0
  192.2930  176.1280  146.5980 C   0  0  0  0  0  2  0  0  0  0  0  0
  190.2310  176.8940  145.6980 N   0  0  0  0  0  0  0  0  0  0  0  0
  190.0240  176.8370  147.1320 C   0  0  0  0  0  2  0  0  0  0  0  0
  191.3790  176.5350  147.7430 C   0  0  0  0  0  2  0  0  0  0  0  0
  191.5900  176.5390  145.3160 C   0  0  2  0  0  3  0  0  0  0  0  0
  192.3580  174.2350  144.6300 N   0  0  0  0  0  1  0  0  0  0  0  0
  190.9170  175.4610  143.2830 O   0  0  0  0  0  0  0  0  0  0  0  0
  191.5940  175.4000  144.3450 C   0  0  0  0  0  0  0  0  0  0  0  0
  187.8480  177.5660  140.6390 C   0  0  0  0  0  3  0  0  0  0  0  0
  188.8400  177.2720  139.8030 C   0  0  0  0  0  3  0  0  0  0  0  0
  188.5910  177.2410  138.3340 C   0  0  0  0  0  2  0  0  0  0  0  0
  186.8110  178.8000  137.4640 N   0  0  0  0  0  1  0  0  0  0  0  0
  188.1590  178.5850  137.8650 C   0  0  0  0  0  0  0  0  0  0  0  0
  188.9780  179.5410  137.8510 O   0  0  0  0  0  0  0  0  0  0  0  0
  185.6860  178.4660  142.2260 N   0  0  0  0  0  2  0  0  0  0  0  0
  180.8470  178.4230  141.7420 N   0  0  0  0  0  2  0  0  0  0  0  0
  183.3510  178.8460  140.5750 N   0  0  0  0  0  2  0  0  0  0  0  0
  183.2630  178.6800  141.9960 C   0  0  0  0  0  0  0  0  0  0  0  0
  180.9380  179.2640  140.5500 C   0  0  0  0  0  2  0  0  0  0  0  0
  184.3500  178.4880  142.7470 C   0  0  0  0  0  3  0  0  0  0  0  0
  181.9240  178.7870  142.6630 C   0  0  0  0  0  2  0  0  0  0  0  0
  182.1580  178.8470  139.7350 C   0  0  0  0  0  2  0  0  0  0  0  0
  1  4  2  0  0  0  0
  2  6  1  0  0  0  0
  3  6  2  0  0  0  0
  3 11  1  0  0  0  0
  4  8  1  0  0  0  0
  4  3  1  0  0  0  0
  5  2  2  0  0  0  0
  7  1  1  0  0  0  0
  9 18  1  6  0  0  0
  9  1  1  0  0  0  0
  9  5  1  0  0  0  0
 10 13  1  0  0  0  0
 11 12  1  0  0  0  0
 12 13  1  0  0  0  0
 14 17  1  6  0  0  0
 14 11  1  0  0  0  0
 14 10  1  0  0  0  0
 16 17  2  0  0  0  0
 17 15  1  0  0  0  0
 19 18  2  0  0  0  0
 20 19  1  0  0  0  0
 21 22  1  0  0  0  0
 22 20  1  0  0  0  0
 23 22  2  0  0  0  0
 24 29  1  0  0  0  0
 24  5  1  0  0  0  0
 25 30  1  0  0  0  0
 26 27  1  0  0  0  0
 27 30  1  0  0  0  0
 27 29  2  0  0  0  0
 28 25  1  0  0  0  0
 31 28  1  0  0  0  0
 31 26  1  0  0  0  0
M  END
>  <MODEL>
8

>  <REMARK>
 VINA RESULT:      -6.9      2.937      7.685
  Name = 
  7 active torsions:
  status: ('A' for Active; 'I' for Inactive)
    1  A    between atoms: C_3  and  C_29
    2  A    between atoms: N_5  and  C_13
    3  A    between atoms: C_11  and  C_21
    4  A    between atoms: C_16  and  N_17
    5  A    between atoms: N_17  and  C_18
    6  A    between atoms: C_21  and  C_24
    7  A    between atoms: C_30  and  C_31
                            x       y       z     vdW  Elec       q    Type
                         _______ _______ _______ _____ _____    ______ ____

>  <TORSDO>
F 7

$$$$
=
 OpenBabel10222421473D

 31 33  0  0  1  0  0  0  0  0999 V2000
  188.2780  178.0220  137.1590 C   0  0  0  0  0  0  0  0  0  0  0  0
  189.7520  177.0220  139.6190 C   0  0  0  0  0  3  0  0  0  0  0  0
  190.0270  176.2350  137.2270 C   0  0  0  0  0  0  0  0  0  0  0  0
  189.3530  177.4230  136.6170 C   0  0  0  0  0  0  0  0  0  0  0  0
  188.6090  177.7150  139.5700 C   0  0  0  0  0  0  0  0  0  0  0  0
  190.2370  176.1220  138.5540 C   0  0  0  0  0  3  0  0  0  0  0  0
  187.7440  179.1620  136.5590 O   0  0  0  0  0  1  0  0  0  0  0  0
  189.9270  177.9780  135.3520 C   0  0  0  0  0  1  0  0  0  0  0  0
  187.6650  177.4950  138.4240 C   0  0  1  0  0  3  0  0  0  0  0  0
  192.0360  173.5690  135.4740 C   0  0  0  0  0  2  0  0  0  0  0  0
  190.5760  175.2220  136.3590 N   0  0  0  0  0  0  0  0  0  0  0  0
  189.7430  174.3920  135.5110 C   0  0  0  0  0  2  0  0  0  0  0  0
  190.6070  173.2200  135.0860 C   0  0  0  0  0  2  0  0  0  0  0  0
  191.9500  174.7470  136.4280 C   0  0  2  0  0  3  0  0  0  0  0  0
  193.7400  176.4370  136.9810 N   0  0  0  0  0  1  0  0  0  0  0  0
  192.9940  176.1630  134.8000 O   0  0  0  0  0  0  0  0  0  0  0  0
  192.9090  175.8160  136.0080 C   0  0  0  0  0  0  0  0  0  0  0  0
  186.2880  178.0370  138.6850 C   0  0  0  0  0  3  0  0  0  0  0  0
  185.2360  177.5690  138.0180 C   0  0  0  0  0  3  0  0  0  0  0  0
  183.8780  178.1200  138.2880 C   0  0  0  0  0  2  0  0  0  0  0  0
  183.7360  178.6080  140.7570 N   0  0  0  0  0  1  0  0  0  0  0  0
  183.9360  179.0740  139.4280 C   0  0  0  0  0  0  0  0  0  0  0  0
  184.1920  180.2890  139.2210 O   0  0  0  0  0  0  0  0  0  0  0  0
  188.2480  178.5970  140.6460 N   0  0  0  0  0  2  0  0  0  0  0  0
  188.7670  177.9340  145.4360 N   0  0  0  0  0  2  0  0  0  0  0  0
  189.9700  178.2960  142.9400 N   0  0  0  0  0  2  0  0  0  0  0  0
  188.5620  178.0390  143.0030 C   0  0  0  0  0  0  0  0  0  0  0  0
  190.1460  177.4900  145.2450 C   0  0  0  0  0  2  0  0  0  0  0  0
  187.7720  178.1980  141.9390 C   0  0  0  0  0  3  0  0  0  0  0  0
  187.9710  177.5190  144.2800 C   0  0  0  0  0  2  0  0  0  0  0  0
  190.7930  178.3240  144.1440 C   0  0  0  0  0  2  0  0  0  0  0  0
  1  9  1  0  0  0  0
  3  6  2  0  0  0  0
  4  1  2  0  0  0  0
  4  3  1  0  0  0  0
  5  2  2  0  0  0  0
  5 24  1  0  0  0  0
  6  2  1  0  0  0  0
  7  1  1  0  0  0  0
  8  4  1  0  0  0  0
  9 18  1  1  0  0  0
  9  5  1  0  0  0  0
 10 14  1  0  0  0  0
 11 14  1  0  0  0  0
 11  3  1  0  0  0  0
 12 11  1  0  0  0  0
 13 10  1  0  0  0  0
 13 12  1  0  0  0  0
 14 17  1  6  0  0  0
 16 17  2  0  0  0  0
 17 15  1  0  0  0  0
 19 20  1  0  0  0  0
 19 18  2  0  0  0  0
 20 22  1  0  0  0  0
 22 21  1  0  0  0  0
 23 22  2  0  0  0  0
 24 29  1  0  0  0  0
 26 27  1  0  0  0  0
 26 31  1  0  0  0  0
 27 30  1  0  0  0  0
 28 25  1  0  0  0  0
 29 27  2  0  0  0  0
 30 25  1  0  0  0  0
 31 28  1  0  0  0  0
M  END
>  <MODEL>
9

>  <REMARK>
 VINA RESULT:      -6.7      2.498      3.472
  Name = 
  7 active torsions:
  status: ('A' for Active; 'I' for Inactive)
    1  A    between atoms: C_3  and  C_29
    2  A    between atoms: N_5  and  C_13
    3  A    between atoms: C_11  and  C_21
    4  A    between atoms: C_16  and  N_17
    5  A    between atoms: N_17  and  C_18
    6  A    between atoms: C_21  and  C_24
    7  A    between atoms: C_30  and  C_31
                            x       y       z     vdW  Elec       q    Type
                         _______ _______ _______ _____ _____    ______ ____

>  <TORSDO>
F 7

$$$$
