=
 OpenBabel10232411333D

 27 29  0  0  1  0  0  0  0  0999 V2000
  188.5960  177.3360  147.6840 C   0  0  0  0  0  3  0  0  0  0  0  0
  191.9370  176.9200  146.5910 O   0  0  0  0  0  0  0  0  0  0  0  0
  188.7210  177.4090  145.1700 C   0  0  0  0  0  0  0  0  0  0  0  0
  186.7000  177.8380  144.6740 C   0  0  0  0  0  0  0  0  0  0  0  0
  190.6920  177.0800  146.5020 C   0  0  0  0  0  0  0  0  0  0  0  0
  187.8460  177.6350  144.0810 N   0  0  0  0  0  0  0  0  0  0  0  0
  186.7300  177.7600  146.1150 N   0  0  0  0  0  0  0  0  0  0  0  0
  190.0410  177.2060  145.1650 C   0  0  0  0  0  0  0  0  0  0  0  0
  187.9630  177.4980  146.3730 C   0  0  0  0  0  0  0  0  0  0  0  0
  189.8870  177.1380  147.7130 N   0  0  0  0  0  0  0  0  0  0  0  0
  184.3300  178.7080  144.5040 C   0  0  0  0  0  3  0  0  0  0  0  0
  183.4310  178.9610  143.5360 N   0  0  0  0  0  0  0  0  0  0  0  0
  185.3080  178.1220  142.5710 C   0  0  0  0  0  3  0  0  0  0  0  0
  185.4800  178.1940  143.9380 C   0  0  1  0  0  3  0  0  0  0  0  0
  184.0240  178.6050  142.3810 C   0  0  0  0  0  0  0  0  0  0  0  0
  183.3790  178.7820  141.0470 C   0  0  0  0  0  2  0  0  0  0  0  0
  184.4270  179.0710  139.9800 C   0  0  0  0  0  2  0  0  0  0  0  0
  183.9870  180.0810  139.1350 F   0  0  0  0  0  0  0  0  0  0  0  0
  190.8340  177.1500  143.8890 C   0  0  0  0  0  2  0  0  0  0  0  0
  190.8700  175.7850  143.3750 N   0  0  0  0  0  2  0  0  0  0  0  0
  190.2400  175.7930  142.1740 O   0  0  0  0  0  0  0  0  0  0  0  0
  190.6130  177.0120  141.5990 C   0  0  0  0  0  2  0  0  0  0  0  0
  190.1720  177.0300  140.1410 C   0  0  0  0  0  2  0  0  0  0  0  0
  188.6660  178.0280  139.9810 S   0  0  0  0  0  0  0  0  0  0  0  0
  188.2130  177.2640  138.3940 C   0  0  0  0  0  2  0  0  0  0  0  0
  187.1050  178.0620  137.7180 C   0  0  0  0  0  2  0  0  0  0  0  0
  186.0320  177.1150  137.2000 C   0  0  0  0  0  1  0  0  0  0  0  0
  1 10  2  0  0  0  0
  3  9  1  0  0  0  0
  4  7  1  0  0  0  0
  5  2  2  0  0  0  0
  5 10  1  0  0  0  0
  6  4  2  0  0  0  0
  6  3  1  0  0  0  0
  7  9  2  0  0  0  0
  8  3  2  0  0  0  0
  8  5  1  0  0  0  0
  9  1  1  0  0  0  0
 12 11  2  0  0  0  0
 13 14  1  0  0  0  0
 14 11  1  0  0  0  0
 14  4  1  6  0  0  0
 15 13  2  0  0  0  0
 15 12  1  0  0  0  0
 16 15  1  0  0  0  0
 17 16  1  0  0  0  0
 18 17  1  0  0  0  0
 19  8  1  0  0  0  0
 20 19  1  0  0  0  0
 21 20  1  0  0  0  0
 22 21  1  0  0  0  0
 23 22  1  0  0  0  0
 24 23  1  0  0  0  0
 25 24  1  0  0  0  0
 26 25  1  0  0  0  0
 27 26  1  0  0  0  0
M  END
>  <MODEL>
1

>  <REMARK>
 VINA RESULT:      -7.0      0.000      0.000
  Name = 
  11 active torsions:
  status: ('A' for Active; 'I' for Inactive)
    1  A    between atoms: C_2  and  C_3
    2  A    between atoms: C_3  and  S_8
    3  A    between atoms: S_8  and  C_27
    4  A    between atoms: C_10  and  C_23
    5  A    between atoms: O_12  and  N_17
    6  A    between atoms: O_12  and  C_18
    7  A    between atoms: C_13  and  C_16
    8  A    between atoms: C_13  and  C_24
    9  A    between atoms: C_14  and  N_17
   10  A    between atoms: C_14  and  C_21
   11  A    between atoms: C_18  and  C_27
                            x       y       z     vdW  Elec       q    Type
                         _______ _______ _______ _____ _____    ______ ____

>  <TORSDO>
F 11

$$$$
=
 OpenBabel10232411333D

 27 29  0  0  1  0  0  0  0  0999 V2000
  183.2290  178.8820  144.9190 C   0  0  0  0  0  3  0  0  0  0  0  0
  181.8120  178.9130  141.6750 O   0  0  0  0  0  0  0  0  0  0  0  0
  184.9800  178.3730  143.1820 C   0  0  0  0  0  0  0  0  0  0  0  0
  186.6700  177.9820  144.4100 C   0  0  0  0  0  0  0  0  0  0  0  0
  182.7030  178.8120  142.5580 C   0  0  0  0  0  0  0  0  0  0  0  0
  186.3490  178.0150  143.1440 N   0  0  0  0  0  0  0  0  0  0  0  0
  185.6010  178.3030  145.3250 N   0  0  0  0  0  0  0  0  0  0  0  0
  184.1110  178.4970  142.1770 C   0  0  0  0  0  0  0  0  0  0  0  0
  184.6020  178.5350  144.5470 C   0  0  0  0  0  0  0  0  0  0  0  0
  182.3540  179.0080  143.9570 N   0  0  0  0  0  0  0  0  0  0  0  0
  189.0860  177.3130  144.0650 C   0  0  0  0  0  3  0  0  0  0  0  0
  190.1520  177.0150  144.8280 N   0  0  0  0  0  0  0  0  0  0  0  0
  188.3910  177.4450  146.1960 C   0  0  0  0  0  3  0  0  0  0  0  0
  188.0010  177.5750  144.8790 C   0  0  1  0  0  3  0  0  0  0  0  0
  189.7280  177.0940  146.1030 C   0  0  0  0  0  0  0  0  0  0  0  0
  190.6290  176.8900  147.2750 C   0  0  0  0  0  2  0  0  0  0  0  0
  191.8780  176.1200  146.8630 C   0  0  0  0  0  2  0  0  0  0  0  0
  192.3540  175.3710  147.9300 F   0  0  0  0  0  0  0  0  0  0  0  0
  184.5160  178.2880  140.7430 C   0  0  0  0  0  2  0  0  0  0  0  0
  185.0540  179.5240  140.1850 N   0  0  0  0  0  2  0  0  0  0  0  0
  184.9400  179.4380  138.8370 O   0  0  0  0  0  0  0  0  0  0  0  0
  185.3230  178.1260  138.5440 C   0  0  0  0  0  2  0  0  0  0  0  0
  186.1880  178.1270  137.2890 C   0  0  0  0  0  2  0  0  0  0  0  0
  187.5780  176.9840  137.5150 S   0  0  0  0  0  0  0  0  0  0  0  0
  188.7530  178.3300  137.8560 C   0  0  0  0  0  2  0  0  0  0  0  0
  189.5090  178.0580  139.1510 C   0  0  0  0  0  2  0  0  0  0  0  0
  188.5880  178.2850  140.3410 C   0  0  0  0  0  1  0  0  0  0  0  0
  2  5  2  0  0  0  0
  3  9  1  0  0  0  0
  4  7  1  0  0  0  0
  5 10  1  0  0  0  0
  6  3  1  0  0  0  0
  6  4  2  0  0  0  0
  8  5  1  0  0  0  0
  8  3  2  0  0  0  0
  9  1  1  0  0  0  0
  9  7  2  0  0  0  0
 10  1  2  0  0  0  0
 11 12  2  0  0  0  0
 11 14  1  0  0  0  0
 12 15  1  0  0  0  0
 14  4  1  1  0  0  0
 14 13  1  0  0  0  0
 15 13  2  0  0  0  0
 15 16  1  0  0  0  0
 17 16  1  0  0  0  0
 17 18  1  0  0  0  0
 19  8  1  0  0  0  0
 20 19  1  0  0  0  0
 21 20  1  0  0  0  0
 22 21  1  0  0  0  0
 23 24  1  0  0  0  0
 23 22  1  0  0  0  0
 24 25  1  0  0  0  0
 25 26  1  0  0  0  0
 26 27  1  0  0  0  0
M  END
>  <MODEL>
2

>  <REMARK>
 VINA RESULT:      -7.0      3.806      6.678
  Name = 
  11 active torsions:
  status: ('A' for Active; 'I' for Inactive)
    1  A    between atoms: C_2  and  C_3
    2  A    between atoms: C_3  and  S_8
    3  A    between atoms: S_8  and  C_27
    4  A    between atoms: C_10  and  C_23
    5  A    between atoms: O_12  and  N_17
    6  A    between atoms: O_12  and  C_18
    7  A    between atoms: C_13  and  C_16
    8  A    between atoms: C_13  and  C_24
    9  A    between atoms: C_14  and  N_17
   10  A    between atoms: C_14  and  C_21
   11  A    between atoms: C_18  and  C_27
                            x       y       z     vdW  Elec       q    Type
                         _______ _______ _______ _____ _____    ______ ____

>  <TORSDO>
F 11

$$$$
=
 OpenBabel10232411333D

 27 29  0  0  1  0  0  0  0  0999 V2000
  188.0030  178.0530  148.2970 C   0  0  0  0  0  3  0  0  0  0  0  0
  191.3200  177.0940  147.5160 O   0  0  0  0  0  0  0  0  0  0  0  0
  188.2330  177.5840  145.8330 C   0  0  0  0  0  0  0  0  0  0  0  0
  186.2900  178.0940  145.1390 C   0  0  0  0  0  0  0  0  0  0  0  0
  190.1040  177.3520  147.3210 C   0  0  0  0  0  0  0  0  0  0  0  0
  187.4300  177.6600  144.6700 N   0  0  0  0  0  0  0  0  0  0  0  0
  186.2560  178.3180  146.5640 N   0  0  0  0  0  0  0  0  0  0  0  0
  189.5220  177.2570  145.9500 C   0  0  0  0  0  0  0  0  0  0  0  0
  187.4420  177.9970  146.9450 C   0  0  0  0  0  0  0  0  0  0  0  0
  189.2630  177.7410  148.4430 N   0  0  0  0  0  0  0  0  0  0  0  0
  185.1570  178.3650  142.8930 C   0  0  0  0  0  3  0  0  0  0  0  0
  183.9290  178.6600  142.4290 N   0  0  0  0  0  0  0  0  0  0  0  0
  183.8730  178.7280  144.6980 C   0  0  0  0  0  3  0  0  0  0  0  0
  185.1450  178.4040  144.2730 C   0  0  1  0  0  3  0  0  0  0  0  0
  183.1660  178.8780  143.5160 C   0  0  0  0  0  0  0  0  0  0  0  0
  181.7070  179.1800  143.4390 C   0  0  0  0  0  2  0  0  0  0  0  0
  181.1470  178.7750  142.0810 C   0  0  0  0  0  2  0  0  0  0  0  0
  179.9830  178.0370  142.2430 F   0  0  0  0  0  0  0  0  0  0  0  0
  190.3540  176.8570  144.7620 C   0  0  0  0  0  2  0  0  0  0  0  0
  191.0400  178.0210  144.2120 N   0  0  0  0  0  2  0  0  0  0  0  0
  190.5480  178.2230  142.9640 O   0  0  0  0  0  0  0  0  0  0  0  0
  190.5330  176.9470  142.3920 C   0  0  0  0  0  2  0  0  0  0  0  0
  190.0440  177.0520  140.9520 C   0  0  0  0  0  2  0  0  0  0  0  0
  188.5570  178.0900  140.8970 S   0  0  0  0  0  0  0  0  0  0  0  0
  188.2150  177.6740  139.1600 C   0  0  0  0  0  2  0  0  0  0  0  0
  189.4200  178.0090  138.2890 C   0  0  0  0  0  2  0  0  0  0  0  0
  189.0230  179.0300  137.2330 C   0  0  0  0  0  1  0  0  0  0  0  0
  1 10  2  0  0  0  0
  3  8  2  0  0  0  0
  3  9  1  0  0  0  0
  4  7  1  0  0  0  0
  5  2  2  0  0  0  0
  5 10  1  0  0  0  0
  6  4  2  0  0  0  0
  6  3  1  0  0  0  0
  7  9  2  0  0  0  0
  8  5  1  0  0  0  0
  9  1  1  0  0  0  0
 11 14  1  0  0  0  0
 12 11  2  0  0  0  0
 12 15  1  0  0  0  0
 14 13  1  0  0  0  0
 14  4  1  1  0  0  0
 15 13  2  0  0  0  0
 16 15  1  0  0  0  0
 17 18  1  0  0  0  0
 17 16  1  0  0  0  0
 19  8  1  0  0  0  0
 20 19  1  0  0  0  0
 21 20  1  0  0  0  0
 22 21  1  0  0  0  0
 23 22  1  0  0  0  0
 24 23  1  0  0  0  0
 25 24  1  0  0  0  0
 26 25  1  0  0  0  0
 27 26  1  0  0  0  0
M  END
>  <MODEL>
3

>  <REMARK>
 VINA RESULT:      -6.9      1.786      2.035
  Name = 
  11 active torsions:
  status: ('A' for Active; 'I' for Inactive)
    1  A    between atoms: C_2  and  C_3
    2  A    between atoms: C_3  and  S_8
    3  A    between atoms: S_8  and  C_27
    4  A    between atoms: C_10  and  C_23
    5  A    between atoms: O_12  and  N_17
    6  A    between atoms: O_12  and  C_18
    7  A    between atoms: C_13  and  C_16
    8  A    between atoms: C_13  and  C_24
    9  A    between atoms: C_14  and  N_17
   10  A    between atoms: C_14  and  C_21
   11  A    between atoms: C_18  and  C_27
                            x       y       z     vdW  Elec       q    Type
                         _______ _______ _______ _____ _____    ______ ____

>  <TORSDO>
F 11

$$$$
=
 OpenBabel10232411333D

 27 29  0  0  0  0  0  0  0  0999 V2000
  188.3540  177.9570  137.8130 C   0  0  0  0  0  3  0  0  0  0  0  0
  191.6330  176.8590  138.5720 O   0  0  0  0  0  0  0  0  0  0  0  0
  188.7060  177.8760  140.3050 C   0  0  0  0  0  0  0  0  0  0  0  0
  186.7700  178.3990  141.0070 C   0  0  0  0  0  0  0  0  0  0  0  0
  190.4630  177.2720  138.7830 C   0  0  0  0  0  0  0  0  0  0  0  0
  187.9450  178.0810  141.4800 N   0  0  0  0  0  0  0  0  0  0  0  0
  186.6750  178.4320  139.5670 N   0  0  0  0  0  0  0  0  0  0  0  0
  189.9710  177.4700  140.1780 C   0  0  0  0  0  0  0  0  0  0  0  0
  187.8610  178.1140  139.1820 C   0  0  0  0  0  0  0  0  0  0  0  0
  189.5880  177.5580  137.6550 N   0  0  0  0  0  0  0  0  0  0  0  0
  184.2960  178.7150  141.4380 C   0  0  0  0  0  3  0  0  0  0  0  0
  183.4880  178.8920  142.4970 N   0  0  0  0  0  2  0  0  0  0  0  0
  185.6280  178.7610  143.2440 C   0  0  0  0  0  3  0  0  0  0  0  0
  185.6050  178.6350  141.8700 C   0  0  0  0  0  0  0  0  0  0  0  0
  184.2930  178.9210  143.5760 C   0  0  0  0  0  0  0  0  0  0  0  0
  183.7800  179.0440  144.9720 C   0  0  0  0  0  2  0  0  0  0  0  0
  184.8990  178.8000  145.9760 C   0  0  0  0  0  2  0  0  0  0  0  0
  184.4600  177.9600  146.9900 F   0  0  0  0  0  0  0  0  0  0  0  0
  190.8420  177.1870  141.3720 C   0  0  0  0  0  2  0  0  0  0  0  0
  190.4670  175.9160  141.9800 N   0  0  0  0  0  2  0  0  0  0  0  0
  190.2560  176.1490  143.2990 O   0  0  0  0  0  0  0  0  0  0  0  0
  191.3510  176.9260  143.6880 C   0  0  0  0  0  2  0  0  0  0  0  0
  191.2030  177.2950  145.1590 C   0  0  0  0  0  2  0  0  0  0  0  0
  189.4540  177.6100  145.5260 S   0  0  0  0  0  0  0  0  0  0  0  0
  189.5680  176.8600  147.1800 C   0  0  0  0  0  2  0  0  0  0  0  0
  188.2570  177.0410  147.9350 C   0  0  0  0  0  2  0  0  0  0  0  0
  188.2710  178.3710  148.6750 C   0  0  0  0  0  1  0  0  0  0  0  0
  1  9  1  0  0  0  0
  2  5  2  0  0  0  0
  3  6  1  0  0  0  0
  4  6  2  0  0  0  0
  4 14  1  0  0  0  0
  5  8  1  0  0  0  0
  7  4  1  0  0  0  0
  8  3  2  0  0  0  0
  8 19  1  0  0  0  0
  9  7  2  0  0  0  0
  9  3  1  0  0  0  0
 10  1  2  0  0  0  0
 10  5  1  0  0  0  0
 11 14  2  0  0  0  0
 11 12  1  0  0  0  0
 12 15  1  0  0  0  0
 13 15  2  0  0  0  0
 14 13  1  0  0  0  0
 15 16  1  0  0  0  0
 16 17  1  0  0  0  0
 17 18  1  0  0  0  0
 19 20  1  0  0  0  0
 20 21  1  0  0  0  0
 21 22  1  0  0  0  0
 22 23  1  0  0  0  0
 23 24  1  0  0  0  0
 24 25  1  0  0  0  0
 25 26  1  0  0  0  0
 26 27  1  0  0  0  0
M  END
>  <MODEL>
4

>  <REMARK>
 VINA RESULT:      -6.9      2.808      6.150
  Name = 
  11 active torsions:
  status: ('A' for Active; 'I' for Inactive)
    1  A    between atoms: C_2  and  C_3
    2  A    between atoms: C_3  and  S_8
    3  A    between atoms: S_8  and  C_27
    4  A    between atoms: C_10  and  C_23
    5  A    between atoms: O_12  and  N_17
    6  A    between atoms: O_12  and  C_18
    7  A    between atoms: C_13  and  C_16
    8  A    between atoms: C_13  and  C_24
    9  A    between atoms: C_14  and  N_17
   10  A    between atoms: C_14  and  C_21
   11  A    between atoms: C_18  and  C_27
                            x       y       z     vdW  Elec       q    Type
                         _______ _______ _______ _____ _____    ______ ____

>  <TORSDO>
F 11

$$$$
=
 OpenBabel10232411333D

 27 29  0  0  1  0  0  0  0  0999 V2000
  190.9830  176.9600  146.3770 C   0  0  0  0  0  3  0  0  0  0  0  0
  188.1610  177.0400  148.5130 O   0  0  0  0  0  0  0  0  0  0  0  0
  188.8860  177.4100  145.0580 C   0  0  0  0  0  0  0  0  0  0  0  0
  189.6510  177.4390  143.0750 C   0  0  0  0  0  0  0  0  0  0  0  0
  188.8140  177.1130  147.4400 C   0  0  0  0  0  0  0  0  0  0  0  0
  188.5130  177.5730  143.7020 N   0  0  0  0  0  0  0  0  0  0  0  0
  190.7960  177.1990  143.9220 N   0  0  0  0  0  0  0  0  0  0  0  0
  188.1180  177.3870  146.1490 C   0  0  0  0  0  0  0  0  0  0  0  0
  190.2940  177.1910  145.1060 C   0  0  0  0  0  0  0  0  0  0  0  0
  190.2580  176.9290  147.4630 N   0  0  0  0  0  0  0  0  0  0  0  0
  190.9320  177.3540  140.8940 C   0  0  0  0  0  3  0  0  0  0  0  0
  190.6540  177.3600  139.5790 N   0  0  0  0  0  0  0  0  0  0  0  0
  188.7000  177.5280  140.7240 C   0  0  0  0  0  3  0  0  0  0  0  0
  189.7550  177.4580  141.6100 C   0  0  1  0  0  3  0  0  0  0  0  0
  189.3150  177.4670  139.4840 C   0  0  0  0  0  0  0  0  0  0  0  0
  188.5870  177.4520  138.1820 C   0  0  0  0  0  2  0  0  0  0  0  0
  189.3830  178.1920  137.1150 C   0  0  0  0  0  2  0  0  0  0  0  0
  189.1290  179.5550  137.1850 F   0  0  0  0  0  0  0  0  0  0  0  0
  186.6280  177.5840  146.0790 C   0  0  0  0  0  2  0  0  0  0  0  0
  186.2480  178.8150  146.7640 N   0  0  0  0  0  2  0  0  0  0  0  0
  184.9220  178.9990  146.5510 O   0  0  0  0  0  0  0  0  0  0  0  0
  184.8210  179.1960  145.1700 C   0  0  0  0  0  2  0  0  0  0  0  0
  183.3990  178.8770  144.7240 C   0  0  0  0  0  2  0  0  0  0  0  0
  183.3360  178.8210  142.9120 S   0  0  0  0  0  0  0  0  0  0  0  0
  185.0810  179.3070  142.7420 C   0  0  0  0  0  2  0  0  0  0  0  0
  185.6060  178.9230  141.3640 C   0  0  0  0  0  2  0  0  0  0  0  0
  184.4980  179.0770  140.3320 C   0  0  0  0  0  1  0  0  0  0  0  0
  1 10  2  0  0  0  0
  3  9  1  0  0  0  0
  3  8  2  0  0  0  0
  4  6  2  0  0  0  0
  4  7  1  0  0  0  0
  5 10  1  0  0  0  0
  5  2  2  0  0  0  0
  6  3  1  0  0  0  0
  7  9  2  0  0  0  0
  8  5  1  0  0  0  0
  9  1  1  0  0  0  0
 11 14  1  0  0  0  0
 12 11  2  0  0  0  0
 13 14  1  0  0  0  0
 14  4  1  1  0  0  0
 15 12  1  0  0  0  0
 15 13  2  0  0  0  0
 16 15  1  0  0  0  0
 17 18  1  0  0  0  0
 17 16  1  0  0  0  0
 19  8  1  0  0  0  0
 19 20  1  0  0  0  0
 21 20  1  0  0  0  0
 22 21  1  0  0  0  0
 23 22  1  0  0  0  0
 24 23  1  0  0  0  0
 25 24  1  0  0  0  0
 26 25  1  0  0  0  0
 27 26  1  0  0  0  0
M  END
>  <MODEL>
5

>  <REMARK>
 VINA RESULT:      -6.9      2.593      5.198
  Name = 
  11 active torsions:
  status: ('A' for Active; 'I' for Inactive)
    1  A    between atoms: C_2  and  C_3
    2  A    between atoms: C_3  and  S_8
    3  A    between atoms: S_8  and  C_27
    4  A    between atoms: C_10  and  C_23
    5  A    between atoms: O_12  and  N_17
    6  A    between atoms: O_12  and  C_18
    7  A    between atoms: C_13  and  C_16
    8  A    between atoms: C_13  and  C_24
    9  A    between atoms: C_14  and  N_17
   10  A    between atoms: C_14  and  C_21
   11  A    between atoms: C_18  and  C_27
                            x       y       z     vdW  Elec       q    Type
                         _______ _______ _______ _____ _____    ______ ____

>  <TORSDO>
F 11

$$$$
=
 OpenBabel10232411333D

 27 29  0  0  1  0  0  0  0  0999 V2000
  188.6220  177.3150  147.8270 C   0  0  0  0  0  3  0  0  0  0  0  0
  191.9180  176.9030  146.6040 O   0  0  0  0  0  0  0  0  0  0  0  0
  188.6520  177.4140  145.3110 C   0  0  0  0  0  0  0  0  0  0  0  0
  186.6140  177.8540  144.8970 C   0  0  0  0  0  0  0  0  0  0  0  0
  190.6710  177.0660  146.5640 C   0  0  0  0  0  0  0  0  0  0  0  0
  187.7370  177.6540  144.2580 N   0  0  0  0  0  0  0  0  0  0  0  0
  186.6990  177.7600  146.3340 N   0  0  0  0  0  0  0  0  0  0  0  0
  189.9690  177.2080  145.2540 C   0  0  0  0  0  0  0  0  0  0  0  0
  187.9400  177.4920  146.5430 C   0  0  0  0  0  0  0  0  0  0  0  0
  189.9120  177.1140  147.8050 N   0  0  0  0  0  0  0  0  0  0  0  0
  184.2850  178.8390  144.8050 C   0  0  0  0  0  3  0  0  0  0  0  0
  183.3400  179.0680  143.8770 N   0  0  0  0  0  0  0  0  0  0  0  0
  185.1040  178.0550  142.8670 C   0  0  0  0  0  3  0  0  0  0  0  0
  185.3680  178.2210  144.2110 C   0  0  1  0  0  3  0  0  0  0  0  0
  183.8360  178.5930  142.7190 C   0  0  0  0  0  0  0  0  0  0  0  0
  183.1150  178.7050  141.4170 C   0  0  0  0  0  2  0  0  0  0  0  0
  181.6100  178.7780  141.6440 C   0  0  0  0  0  2  0  0  0  0  0  0
  180.9340  178.2350  140.5600 F   0  0  0  0  0  0  0  0  0  0  0  0
  190.7140  177.1640  143.9480 C   0  0  0  0  0  2  0  0  0  0  0  0
  190.7000  175.8110  143.4040 N   0  0  0  0  0  2  0  0  0  0  0  0
  190.1490  175.8820  142.1670 O   0  0  0  0  0  0  0  0  0  0  0  0
  190.7730  176.9870  141.5780 C   0  0  0  0  0  2  0  0  0  0  0  0
  190.2080  177.1900  140.1770 C   0  0  0  0  0  2  0  0  0  0  0  0
  188.5940  178.0100  140.2940 S   0  0  0  0  0  0  0  0  0  0  0  0
  188.3770  178.0510  138.4880 C   0  0  0  0  0  2  0  0  0  0  0  0
  186.8960  178.0460  138.1320 C   0  0  0  0  0  2  0  0  0  0  0  0
  186.5820  176.8410  137.2580 C   0  0  0  0  0  1  0  0  0  0  0  0
  3  9  1  0  0  0  0
  4  7  1  0  0  0  0
  5  2  2  0  0  0  0
  5 10  1  0  0  0  0
  6  4  2  0  0  0  0
  6  3  1  0  0  0  0
  7  9  2  0  0  0  0
  8  3  2  0  0  0  0
  8  5  1  0  0  0  0
  9  1  1  0  0  0  0
 10  1  2  0  0  0  0
 12 11  2  0  0  0  0
 13 14  1  0  0  0  0
 14 11  1  0  0  0  0
 14  4  1  6  0  0  0
 15 13  2  0  0  0  0
 15 12  1  0  0  0  0
 16 17  1  0  0  0  0
 16 15  1  0  0  0  0
 18 17  1  0  0  0  0
 19  8  1  0  0  0  0
 20 19  1  0  0  0  0
 21 20  1  0  0  0  0
 22 21  1  0  0  0  0
 23 24  1  0  0  0  0
 23 22  1  0  0  0  0
 25 24  1  0  0  0  0
 26 25  1  0  0  0  0
 27 26  1  0  0  0  0
M  END
>  <MODEL>
6

>  <REMARK>
 VINA RESULT:      -6.7      0.887      1.020
  Name = 
  11 active torsions:
  status: ('A' for Active; 'I' for Inactive)
    1  A    between atoms: C_2  and  C_3
    2  A    between atoms: C_3  and  S_8
    3  A    between atoms: S_8  and  C_27
    4  A    between atoms: C_10  and  C_23
    5  A    between atoms: O_12  and  N_17
    6  A    between atoms: O_12  and  C_18
    7  A    between atoms: C_13  and  C_16
    8  A    between atoms: C_13  and  C_24
    9  A    between atoms: C_14  and  N_17
   10  A    between atoms: C_14  and  C_21
   11  A    between atoms: C_18  and  C_27
                            x       y       z     vdW  Elec       q    Type
                         _______ _______ _______ _____ _____    ______ ____

>  <TORSDO>
F 11

$$$$
=
 OpenBabel10232411333D

 27 29  0  0  0  0  0  0  0  0999 V2000
  182.9660  179.1450  144.8620 C   0  0  0  0  0  3  0  0  0  0  0  0
  182.7570  178.6960  141.3570 O   0  0  0  0  0  0  0  0  0  0  0  0
  185.2020  178.4680  143.9210 C   0  0  0  0  0  0  0  0  0  0  0  0
  186.3570  178.3000  145.6970 C   0  0  0  0  0  0  0  0  0  0  0  0
  183.2870  178.7430  142.4980 C   0  0  0  0  0  0  0  0  0  0  0  0
  186.4940  178.1540  144.4060 N   0  0  0  0  0  0  0  0  0  0  0  0
  185.0430  178.7050  146.1340 N   0  0  0  0  0  0  0  0  0  0  0  0
  184.7350  178.4280  142.6710 C   0  0  0  0  0  0  0  0  0  0  0  0
  184.3780  178.7970  145.0370 C   0  0  0  0  0  0  0  0  0  0  0  0
  182.4790  179.1120  143.6510 N   0  0  0  0  0  0  0  0  0  0  0  0
  187.3410  178.1040  148.0200 C   0  0  0  0  0  3  0  0  0  0  0  0
  188.5010  177.7140  148.5780 N   0  0  0  0  0  2  0  0  0  0  0  0
  188.6950  177.5360  146.3220 C   0  0  0  0  0  3  0  0  0  0  0  0
  187.4390  178.0050  146.6460 C   0  0  0  0  0  0  0  0  0  0  0  0
  189.3080  177.3780  147.5540 C   0  0  0  0  0  0  0  0  0  0  0  0
  190.6830  176.8330  147.7470 C   0  0  0  0  0  2  0  0  0  0  0  0
  191.2430  176.3120  146.4290 C   0  0  0  0  0  2  0  0  0  0  0  0
  191.9650  177.3090  145.7870 F   0  0  0  0  0  0  0  0  0  0  0  0
  185.6070  178.0430  141.5070 C   0  0  0  0  0  2  0  0  0  0  0  0
  186.4310  179.1760  141.0980 N   0  0  0  0  0  2  0  0  0  0  0  0
  187.7260  178.8030  141.2480 O   0  0  0  0  0  0  0  0  0  0  0  0
  188.1250  178.4250  139.9620 C   0  0  0  0  0  2  0  0  0  0  0  0
  189.0350  177.2070  140.0600 C   0  0  0  0  0  2  0  0  0  0  0  0
  189.3980  176.8680  141.8050 S   0  0  0  0  0  0  0  0  0  0  0  0
  191.1630  177.2630  141.6130 C   0  0  0  0  0  2  0  0  0  0  0  0
  191.6640  178.0500  142.8170 C   0  0  0  0  0  2  0  0  0  0  0  0
  190.4960  178.7580  143.4900 C   0  0  0  0  0  1  0  0  0  0  0  0
  1  9  1  0  0  0  0
  2  5  2  0  0  0  0
  3  6  1  0  0  0  0
  3  9  1  0  0  0  0
  4  7  1  0  0  0  0
  4 14  1  0  0  0  0
  5  8  1  0  0  0  0
  5 10  1  0  0  0  0
  6  4  2  0  0  0  0
  8  3  2  0  0  0  0
  9  7  2  0  0  0  0
 10  1  2  0  0  0  0
 11 12  1  0  0  0  0
 13 14  1  0  0  0  0
 13 15  2  0  0  0  0
 14 11  2  0  0  0  0
 15 16  1  0  0  0  0
 15 12  1  0  0  0  0
 17 16  1  0  0  0  0
 18 17  1  0  0  0  0
 19  8  1  0  0  0  0
 20 21  1  0  0  0  0
 20 19  1  0  0  0  0
 22 23  1  0  0  0  0
 22 21  1  0  0  0  0
 23 24  1  0  0  0  0
 25 24  1  0  0  0  0
 25 26  1  0  0  0  0
 26 27  1  0  0  0  0
M  END
>  <MODEL>
7

>  <REMARK>
 VINA RESULT:      -6.7      3.139      6.366
  Name = 
  11 active torsions:
  status: ('A' for Active; 'I' for Inactive)
    1  A    between atoms: C_2  and  C_3
    2  A    between atoms: C_3  and  S_8
    3  A    between atoms: S_8  and  C_27
    4  A    between atoms: C_10  and  C_23
    5  A    between atoms: O_12  and  N_17
    6  A    between atoms: O_12  and  C_18
    7  A    between atoms: C_13  and  C_16
    8  A    between atoms: C_13  and  C_24
    9  A    between atoms: C_14  and  N_17
   10  A    between atoms: C_14  and  C_21
   11  A    between atoms: C_18  and  C_27
                            x       y       z     vdW  Elec       q    Type
                         _______ _______ _______ _____ _____    ______ ____

>  <TORSDO>
F 11

$$$$
=
 OpenBabel10232411333D

 27 29  0  0  0  0  0  0  0  0999 V2000
  185.1700  178.5970  138.8140 C   0  0  0  0  0  3  0  0  0  0  0  0
  188.2930  177.8000  137.3500 O   0  0  0  0  0  0  0  0  0  0  0  0
  186.9590  178.4300  140.5790 C   0  0  0  0  0  0  0  0  0  0  0  0
  185.8150  178.7210  142.3460 C   0  0  0  0  0  0  0  0  0  0  0  0
  187.4680  178.0820  138.2580 C   0  0  0  0  0  0  0  0  0  0  0  0
  187.0530  178.5000  141.9890 N   0  0  0  0  0  0  0  0  0  0  0  0
  184.8690  178.8140  141.2610 N   0  0  0  0  0  0  0  0  0  0  0  0
  187.9090  178.1620  139.6810 C   0  0  0  0  0  0  0  0  0  0  0  0
  185.5960  178.6370  140.2140 C   0  0  0  0  0  0  0  0  0  0  0  0
  186.0770  178.3330  137.9120 N   0  0  0  0  0  0  0  0  0  0  0  0
  184.1640  179.2300  144.1950 C   0  0  0  0  0  3  0  0  0  0  0  0
  184.1090  179.1230  145.5340 N   0  0  0  0  0  2  0  0  0  0  0  0
  186.1470  178.3990  144.8410 C   0  0  0  0  0  3  0  0  0  0  0  0
  185.3990  178.7960  143.7530 C   0  0  0  0  0  0  0  0  0  0  0  0
  185.3020  178.6270  145.9150 C   0  0  0  0  0  0  0  0  0  0  0  0
  185.6330  178.3020  147.3330 C   0  0  0  0  0  2  0  0  0  0  0  0
  187.1410  178.1780  147.5150 C   0  0  0  0  0  2  0  0  0  0  0  0
  187.4420  177.8920  148.8390 F   0  0  0  0  0  0  0  0  0  0  0  0
  189.3370  177.9100  140.0830 C   0  0  0  0  0  2  0  0  0  0  0  0
  189.6230  176.4800  140.0640 N   0  0  0  0  0  2  0  0  0  0  0  0
  190.4080  176.2140  141.1370 O   0  0  0  0  0  0  0  0  0  0  0  0
  191.0180  177.4390  141.4270 C   0  0  0  0  0  2  0  0  0  0  0  0
  191.8710  177.2860  142.6800 C   0  0  0  0  0  2  0  0  0  0  0  0
  191.0030  176.2310  143.8740 S   0  0  0  0  0  0  0  0  0  0  0  0
  191.2840  177.3900  145.2470 C   0  0  0  0  0  2  0  0  0  0  0  0
  190.9120  176.7400  146.5740 C   0  0  0  0  0  2  0  0  0  0  0  0
  192.0670  175.8780  147.0650 C   0  0  0  0  0  1  0  0  0  0  0  0
  1  9  1  0  0  0  0
  2  5  2  0  0  0  0
  3  6  1  0  0  0  0
  4 14  1  0  0  0  0
  5  8  1  0  0  0  0
  6  4  2  0  0  0  0
  7  4  1  0  0  0  0
  8 19  1  0  0  0  0
  8  3  2  0  0  0  0
  9  3  1  0  0  0  0
  9  7  2  0  0  0  0
 10  5  1  0  0  0  0
 10  1  2  0  0  0  0
 11 12  1  0  0  0  0
 12 15  1  0  0  0  0
 13 15  2  0  0  0  0
 14 11  2  0  0  0  0
 14 13  1  0  0  0  0
 15 16  1  0  0  0  0
 16 17  1  0  0  0  0
 17 18  1  0  0  0  0
 20 19  1  0  0  0  0
 20 21  1  0  0  0  0
 21 22  1  0  0  0  0
 22 23  1  0  0  0  0
 23 24  1  0  0  0  0
 24 25  1  0  0  0  0
 25 26  1  0  0  0  0
 26 27  1  0  0  0  0
M  END
>  <MODEL>
8

>  <REMARK>
 VINA RESULT:      -6.5      3.214      6.460
  Name = 
  11 active torsions:
  status: ('A' for Active; 'I' for Inactive)
    1  A    between atoms: C_2  and  C_3
    2  A    between atoms: C_3  and  S_8
    3  A    between atoms: S_8  and  C_27
    4  A    between atoms: C_10  and  C_23
    5  A    between atoms: O_12  and  N_17
    6  A    between atoms: O_12  and  C_18
    7  A    between atoms: C_13  and  C_16
    8  A    between atoms: C_13  and  C_24
    9  A    between atoms: C_14  and  N_17
   10  A    between atoms: C_14  and  C_21
   11  A    between atoms: C_18  and  C_27
                            x       y       z     vdW  Elec       q    Type
                         _______ _______ _______ _____ _____    ______ ____

>  <TORSDO>
F 11

$$$$
=
 OpenBabel10232411333D

 27 29  0  0  1  0  0  0  0  0999 V2000
  185.5190  178.6940  147.0910 C   0  0  0  0  0  3  0  0  0  0  0  0
  188.7420  177.6300  148.0970 O   0  0  0  0  0  0  0  0  0  0  0  0
  186.8770  177.9760  145.0960 C   0  0  0  0  0  0  0  0  0  0  0  0
  185.5400  178.4320  143.5080 C   0  0  0  0  0  0  0  0  0  0  0  0
  187.7860  177.8780  147.3170 C   0  0  0  0  0  0  0  0  0  0  0  0
  186.7380  177.9410  143.6880 N   0  0  0  0  0  0  0  0  0  0  0  0
  184.8380  178.7990  144.7150 N   0  0  0  0  0  0  0  0  0  0  0  0
  187.9300  177.6500  145.8490 C   0  0  0  0  0  0  0  0  0  0  0  0
  185.6750  178.5070  145.6470 C   0  0  0  0  0  0  0  0  0  0  0  0
  186.5330  178.3870  147.8550 N   0  0  0  0  0  0  0  0  0  0  0  0
  185.6650  179.1630  141.0890 C   0  0  0  0  0  3  0  0  0  0  0  0
  184.8510  179.2010  140.0200 N   0  0  0  0  0  0  0  0  0  0  0  0
  183.6820  178.3720  141.7810 C   0  0  0  0  0  3  0  0  0  0  0  0
  184.9720  178.6640  142.1740 C   0  0  1  0  0  3  0  0  0  0  0  0
  183.6640  178.7280  140.4430 C   0  0  0  0  0  0  0  0  0  0  0  0
  182.4900  178.5500  139.5390 C   0  0  0  0  0  2  0  0  0  0  0  0
  181.8310  179.8920  139.2460 C   0  0  0  0  0  2  0  0  0  0  0  0
  182.6920  180.6990  138.5140 F   0  0  0  0  0  0  0  0  0  0  0  0
  189.2060  177.1250  145.2500 C   0  0  0  0  0  2  0  0  0  0  0  0
  190.1090  178.2270  144.9370 N   0  0  0  0  0  2  0  0  0  0  0  0
  190.0520  178.4230  143.5970 O   0  0  0  0  0  0  0  0  0  0  0  0
  191.3890  178.3950  143.1890 C   0  0  0  0  0  2  0  0  0  0  0  0
  191.6220  177.1580  142.3300 C   0  0  0  0  0  2  0  0  0  0  0  0
  190.0320  176.5610  141.6920 S   0  0  0  0  0  0  0  0  0  0  0  0
  190.2220  177.4520  140.1170 C   0  0  0  0  0  2  0  0  0  0  0  0
  188.9270  178.1680  139.7540 C   0  0  0  0  0  2  0  0  0  0  0  0
  189.0290  178.7300  138.3440 C   0  0  0  0  0  1  0  0  0  0  0  0
  1 10  2  0  0  0  0
  3  9  1  0  0  0  0
  3  8  2  0  0  0  0
  4  6  2  0  0  0  0
  4  7  1  0  0  0  0
  5 10  1  0  0  0  0
  5  2  2  0  0  0  0
  6  3  1  0  0  0  0
  7  9  2  0  0  0  0
  8  5  1  0  0  0  0
  9  1  1  0  0  0  0
 11 14  1  0  0  0  0
 12 15  1  0  0  0  0
 12 11  2  0  0  0  0
 13 14  1  0  0  0  0
 14  4  1  6  0  0  0
 15 13  2  0  0  0  0
 16 15  1  0  0  0  0
 17 16  1  0  0  0  0
 18 17  1  0  0  0  0
 19  8  1  0  0  0  0
 20 19  1  0  0  0  0
 21 20  1  0  0  0  0
 22 21  1  0  0  0  0
 23 22  1  0  0  0  0
 24 23  1  0  0  0  0
 25 24  1  0  0  0  0
 26 25  1  0  0  0  0
 27 26  1  0  0  0  0
M  END
>  <MODEL>
9

>  <REMARK>
 VINA RESULT:      -6.4      1.896      2.689
  Name = 
  11 active torsions:
  status: ('A' for Active; 'I' for Inactive)
    1  A    between atoms: C_2  and  C_3
    2  A    between atoms: C_3  and  S_8
    3  A    between atoms: S_8  and  C_27
    4  A    between atoms: C_10  and  C_23
    5  A    between atoms: O_12  and  N_17
    6  A    between atoms: O_12  and  C_18
    7  A    between atoms: C_13  and  C_16
    8  A    between atoms: C_13  and  C_24
    9  A    between atoms: C_14  and  N_17
   10  A    between atoms: C_14  and  C_21
   11  A    between atoms: C_18  and  C_27
                            x       y       z     vdW  Elec       q    Type
                         _______ _______ _______ _____ _____    ______ ____

>  <TORSDO>
F 11

$$$$
