=
 OpenBabel10232407493D

 32 34  0  0  1  0  0  0  0  0999 V2000
  189.0160  177.4020  140.8710 C   0  0  1  0  0  3  0  0  0  0  0  0
  190.7420  177.4810  139.2180 O   0  0  0  0  0  0  0  0  0  0  0  0
  189.6350  177.9340  139.6200 C   0  0  0  0  0  0  0  0  0  0  0  0
  188.9730  178.9340  138.9100 O   0  0  0  0  0  0  0  0  0  0  0  0
  188.9040  178.9270  137.4880 C   0  0  0  0  0  2  0  0  0  0  0  0
  187.5670  178.3790  137.0170 C   0  0  1  0  0  3  0  0  0  0  0  0
  187.6610  176.8890  136.7480 C   0  0  0  0  0  1  0  0  0  0  0  0
  186.5380  178.6370  138.0100 N   0  0  0  0  0  1  0  0  0  0  0  0
  189.9960  176.6310  141.6220 N   0  0  0  0  0  2  0  0  0  0  0  0
  190.3010  177.3710  142.8410 C   0  0  1  0  0  3  0  0  0  0  0  0
  191.4040  175.2720  143.7360 C   0  0  0  0  0  1  0  0  0  0  0  0
  191.5980  178.3430  145.1230 N   0  0  0  0  0  0  0  0  0  0  0  0
  191.6930  179.1100  143.8770 C   0  0  0  0  0  2  0  0  0  0  0  0
  190.4780  176.4410  144.0500 C   0  0  1  0  0  3  0  0  0  0  0  0
  191.0100  177.1840  145.2490 C   0  0  0  0  0  0  0  0  0  0  0  0
  191.5440  178.2210  142.6500 C   0  0  0  0  0  2  0  0  0  0  0  0
  190.9120  176.5560  146.4990 O   0  0  0  0  0  0  0  0  0  0  0  0
  192.6250  175.1000  146.9600 O   0  0  0  0  0  0  0  0  0  0  0  0
  192.3630  176.8240  148.4810 N   0  0  0  0  0  1  0  0  0  0  0  0
  191.9870  176.1310  147.2940 C   0  0  0  0  0  0  0  0  0  0  0  0
  188.4680  178.5310  141.7310 C   0  0  0  0  0  2  0  0  0  0  0  0
  186.9500  178.5120  141.7120 C   0  0  0  0  0  2  0  0  0  0  0  0
  186.4490  177.7390  142.8380 N   0  0  0  0  0  2  0  0  0  0  0  0
  183.5740  179.0730  144.7010 N   0  0  0  0  0  0  0  0  0  0  0  0
  184.2770  178.6190  143.5450 C   0  0  0  0  0  0  0  0  0  0  0  0
  185.5510  178.2930  143.8020 C   0  0  0  0  0  0  0  0  0  0  0  0
  185.9290  178.7540  145.1770 C   0  0  1  0  0  3  0  0  0  0  0  0
  184.5310  179.0500  145.5580 C   0  0  0  0  0  0  0  0  0  0  0  0
  183.6300  178.3640  142.3030 N   0  0  0  0  0  1  0  0  0  0  0  0
  185.9580  177.8080  146.2590 C   0  0  1  0  0  3  0  0  0  0  0  0
  187.1200  178.1150  147.1850 C   0  0  0  0  0  1  0  0  0  0  0  0
  184.7310  178.3310  146.8260 N   0  0  0  0  0  2  0  0  0  0  0  0
  1  9  1  0  0  0  0
  1 21  1  1  0  0  0
  2  3  2  0  0  0  0
  3  1  1  0  0  0  0
  4  3  1  0  0  0  0
  5  4  1  0  0  0  0
  6  7  1  1  0  0  0
  6  5  1  0  0  0  0
  6  8  1  0  0  0  0
 10  9  1  6  0  0  0
 10 14  1  0  0  0  0
 12 15  2  0  0  0  0
 13 12  1  0  0  0  0
 14 11  1  6  0  0  0
 14 15  1  0  0  0  0
 15 17  1  0  0  0  0
 16 10  1  0  0  0  0
 16 13  1  0  0  0  0
 17 20  1  0  0  0  0
 18 20  2  0  0  0  0
 20 19  1  0  0  0  0
 22 21  1  0  0  0  0
 22 23  1  0  0  0  0
 23 26  1  0  0  0  0
 24 28  2  0  0  0  0
 25 26  2  0  0  0  0
 25 24  1  0  0  0  0
 27 26  1  6  0  0  0
 27 28  1  0  0  0  0
 27 30  1  0  0  0  0
 28 32  1  0  0  0  0
 29 25  1  0  0  0  0
 30 32  1  0  0  0  0
 30 31  1  1  0  0  0
M  END
>  <MODEL>
1

>  <REMARK>
 VINA RESULT:      -7.6      0.000      0.000
  Name = 
  12 active torsions:
  status: ('A' for Active; 'I' for Inactive)
    1  A    between atoms: N_1  and  C_9
    2  A    between atoms: N_1  and  C_13
    3  A    between atoms: O_3  and  C_27
    4  A    between atoms: O_3  and  C_30
    5  A    between atoms: C_5  and  C_32
    6  A    between atoms: C_7  and  C_13
    7  A    between atoms: C_7  and  C_24
    8  A    between atoms: O_8  and  C_20
    9  A    between atoms: O_8  and  C_32
   10  A    between atoms: C_10  and  N_15
   11  A    between atoms: C_13  and  C_20
   12  A    between atoms: N_15  and  C_24
                            x       y       z     vdW  Elec       q    Type
                         _______ _______ _______ _____ _____    ______ ____

>  <TORSDO>
F 12

$$$$
=
 OpenBabel10232407493D

 32 34  0  0  1  0  0  0  0  0999 V2000
  188.7240  177.6980  140.1570 C   0  0  1  0  0  3  0  0  0  0  0  0
  188.8420  179.2670  138.3560 O   0  0  0  0  0  0  0  0  0  0  0  0
  189.3420  178.2520  138.9160 C   0  0  0  0  0  0  0  0  0  0  0  0
  190.4740  177.6330  138.3890 O   0  0  0  0  0  0  0  0  0  0  0  0
  190.4320  176.9010  137.1690 C   0  0  0  0  0  2  0  0  0  0  0  0
  191.5020  175.8210  137.1520 C   0  0  1  0  0  3  0  0  0  0  0  0
  192.8460  176.3890  137.5640 C   0  0  0  0  0  1  0  0  0  0  0  0
  191.1330  174.7320  138.0410 N   0  0  0  0  0  1  0  0  0  0  0  0
  189.7250  176.9790  140.9330 N   0  0  0  0  0  2  0  0  0  0  0  0
  189.8580  177.6570  142.2170 C   0  0  1  0  0  3  0  0  0  0  0  0
  189.9370  175.3740  143.3150 C   0  0  0  0  0  1  0  0  0  0  0  0
  190.6370  178.3090  144.8260 N   0  0  0  0  0  0  0  0  0  0  0  0
  191.3350  178.9410  143.7020 C   0  0  0  0  0  2  0  0  0  0  0  0
  189.3660  176.7850  143.3820 C   0  0  1  0  0  3  0  0  0  0  0  0
  189.7110  177.3950  144.7170 C   0  0  0  0  0  0  0  0  0  0  0  0
  191.2990  178.0740  142.4510 C   0  0  0  0  0  2  0  0  0  0  0  0
  189.0510  176.8960  145.8500 O   0  0  0  0  0  0  0  0  0  0  0  0
  190.5910  176.3490  147.4600 O   0  0  0  0  0  0  0  0  0  0  0  0
  188.8200  177.6460  148.1920 N   0  0  0  0  0  1  0  0  0  0  0  0
  189.5240  176.9490  147.1680 C   0  0  0  0  0  0  0  0  0  0  0  0
  188.1050  178.8030  140.9990 C   0  0  0  0  0  2  0  0  0  0  0  0
  186.5930  178.6610  141.0170 C   0  0  0  0  0  2  0  0  0  0  0  0
  186.1630  178.0950  142.2860 N   0  0  0  0  0  2  0  0  0  0  0  0
  182.8100  179.0810  143.4300 N   0  0  0  0  0  0  0  0  0  0  0  0
  183.7810  178.6190  142.4900 C   0  0  0  0  0  0  0  0  0  0  0  0
  185.0220  178.5890  142.9920 C   0  0  0  0  0  0  0  0  0  0  0  0
  185.0570  179.3000  144.3110 C   0  0  1  0  0  3  0  0  0  0  0  0
  183.5840  179.3640  144.4150 C   0  0  0  0  0  0  0  0  0  0  0  0
  183.4260  178.0720  141.2240 N   0  0  0  0  0  1  0  0  0  0  0  0
  185.0490  178.5360  145.5290 C   0  0  1  0  0  3  0  0  0  0  0  0
  185.9520  179.1910  146.5570 C   0  0  0  0  0  1  0  0  0  0  0  0
  183.6670  178.8800  145.8030 N   0  0  0  0  0  2  0  0  0  0  0  0
  1  9  1  0  0  0  0
  1 21  1  1  0  0  0
  2  3  2  0  0  0  0
  3  1  1  0  0  0  0
  4  3  1  0  0  0  0
  5  4  1  0  0  0  0
  6  5  1  0  0  0  0
  6  7  1  1  0  0  0
  6  8  1  0  0  0  0
 10  9  1  6  0  0  0
 10 16  1  0  0  0  0
 10 14  1  0  0  0  0
 13 12  1  0  0  0  0
 14 11  1  6  0  0  0
 14 15  1  0  0  0  0
 15 12  2  0  0  0  0
 15 17  1  0  0  0  0
 16 13  1  0  0  0  0
 17 20  1  0  0  0  0
 20 18  2  0  0  0  0
 20 19  1  0  0  0  0
 21 22  1  0  0  0  0
 22 23  1  0  0  0  0
 23 26  1  0  0  0  0
 24 28  2  0  0  0  0
 25 26  2  0  0  0  0
 25 24  1  0  0  0  0
 27 26  1  6  0  0  0
 27 28  1  0  0  0  0
 27 30  1  0  0  0  0
 28 32  1  0  0  0  0
 29 25  1  0  0  0  0
 30 32  1  0  0  0  0
 30 31  1  1  0  0  0
M  END
>  <MODEL>
2

>  <REMARK>
 VINA RESULT:      -7.5      1.811      2.263
  Name = 
  12 active torsions:
  status: ('A' for Active; 'I' for Inactive)
    1  A    between atoms: N_1  and  C_9
    2  A    between atoms: N_1  and  C_13
    3  A    between atoms: O_3  and  C_27
    4  A    between atoms: O_3  and  C_30
    5  A    between atoms: C_5  and  C_32
    6  A    between atoms: C_7  and  C_13
    7  A    between atoms: C_7  and  C_24
    8  A    between atoms: O_8  and  C_20
    9  A    between atoms: O_8  and  C_32
   10  A    between atoms: C_10  and  N_15
   11  A    between atoms: C_13  and  C_20
   12  A    between atoms: N_15  and  C_24
                            x       y       z     vdW  Elec       q    Type
                         _______ _______ _______ _____ _____    ______ ____

>  <TORSDO>
F 12

$$$$
=
 OpenBabel10232407493D

 32 34  0  0  1  0  0  0  0  0999 V2000
  190.1290  177.5960  140.7040 C   0  0  1  0  0  3  0  0  0  0  0  0
  192.5120  177.5110  140.8870 O   0  0  0  0  0  0  0  0  0  0  0  0
  191.3950  177.2860  141.4320 C   0  0  0  0  0  0  0  0  0  0  0  0
  191.3240  176.7460  142.7140 O   0  0  0  0  0  0  0  0  0  0  0  0
  191.5620  177.5340  143.8760 C   0  0  0  0  0  2  0  0  0  0  0  0
  190.7780  176.9940  145.0630 C   0  0  1  0  0  3  0  0  0  0  0  0
  191.7160  176.5620  146.1740 C   0  0  0  0  0  1  0  0  0  0  0  0
  189.8570  178.0020  145.5580 N   0  0  0  0  0  1  0  0  0  0  0  0
  190.2260  177.1440  139.3220 N   0  0  0  0  0  2  0  0  0  0  0  0
  188.8750  176.8490  138.8590 C   0  0  1  0  0  3  0  0  0  0  0  0
  188.9280  179.0390  137.5840 C   0  0  0  0  0  1  0  0  0  0  0  0
  186.5870  176.6300  137.2610 N   0  0  0  0  0  0  0  0  0  0  0  0
  187.4840  175.4760  137.3710 C   0  0  0  0  0  2  0  0  0  0  0  0
  188.1050  178.1230  138.4810 C   0  0  1  0  0  3  0  0  0  0  0  0
  186.8020  177.8020  137.7960 C   0  0  0  0  0  0  0  0  0  0  0  0
  188.9150  175.8950  137.6790 C   0  0  0  0  0  2  0  0  0  0  0  0
  185.8510  178.8280  137.6920 O   0  0  0  0  0  0  0  0  0  0  0  0
  184.6320  179.9610  139.2710 O   0  0  0  0  0  0  0  0  0  0  0  0
  183.6400  178.0340  138.4580 N   0  0  0  0  0  1  0  0  0  0  0  0
  184.7080  178.9770  138.4910 C   0  0  0  0  0  0  0  0  0  0  0  0
  188.9350  176.9440  141.3840 C   0  0  0  0  0  2  0  0  0  0  0  0
  188.1970  177.9640  142.2330 C   0  0  0  0  0  2  0  0  0  0  0  0
  187.2590  177.2880  143.1170 N   0  0  0  0  0  2  0  0  0  0  0  0
  184.1570  178.9550  144.1740 N   0  0  0  0  0  0  0  0  0  0  0  0
  185.0510  178.3380  143.2490 C   0  0  0  0  0  0  0  0  0  0  0  0
  186.2200  177.9910  143.8040 C   0  0  0  0  0  0  0  0  0  0  0  0
  186.3370  178.5950  145.1700 C   0  0  1  0  0  3  0  0  0  0  0  0
  184.9140  178.9930  145.2120 C   0  0  0  0  0  0  0  0  0  0  0  0
  184.6580  177.9640  141.9330 N   0  0  0  0  0  1  0  0  0  0  0  0
  186.0810  177.7840  146.3290 C   0  0  1  0  0  3  0  0  0  0  0  0
  187.0450  178.1500  147.4410 C   0  0  0  0  0  1  0  0  0  0  0  0
  184.8000  178.4220  146.5640 N   0  0  0  0  0  2  0  0  0  0  0  0
  1 21  1  1  0  0  0
  1  3  1  0  0  0  0
  2  3  2  0  0  0  0
  3  4  1  0  0  0  0
  4  5  1  0  0  0  0
  5  6  1  0  0  0  0
  6  8  1  0  0  0  0
  6  7  1  1  0  0  0
  9  1  1  0  0  0  0
 10  9  1  6  0  0  0
 12 13  1  0  0  0  0
 12 15  2  0  0  0  0
 13 16  1  0  0  0  0
 14 11  1  6  0  0  0
 14 10  1  0  0  0  0
 15 14  1  0  0  0  0
 16 10  1  0  0  0  0
 17 15  1  0  0  0  0
 17 20  1  0  0  0  0
 19 20  1  0  0  0  0
 20 18  2  0  0  0  0
 21 22  1  0  0  0  0
 22 23  1  0  0  0  0
 23 26  1  0  0  0  0
 24 28  2  0  0  0  0
 25 26  2  0  0  0  0
 25 24  1  0  0  0  0
 27 26  1  6  0  0  0
 27 28  1  0  0  0  0
 27 30  1  0  0  0  0
 28 32  1  0  0  0  0
 29 25  1  0  0  0  0
 30 32  1  0  0  0  0
 30 31  1  1  0  0  0
M  END
>  <MODEL>
3

>  <REMARK>
 VINA RESULT:      -7.2      1.878      6.413
  Name = 
  12 active torsions:
  status: ('A' for Active; 'I' for Inactive)
    1  A    between atoms: N_1  and  C_9
    2  A    between atoms: N_1  and  C_13
    3  A    between atoms: O_3  and  C_27
    4  A    between atoms: O_3  and  C_30
    5  A    between atoms: C_5  and  C_32
    6  A    between atoms: C_7  and  C_13
    7  A    between atoms: C_7  and  C_24
    8  A    between atoms: O_8  and  C_20
    9  A    between atoms: O_8  and  C_32
   10  A    between atoms: C_10  and  N_15
   11  A    between atoms: C_13  and  C_20
   12  A    between atoms: N_15  and  C_24
                            x       y       z     vdW  Elec       q    Type
                         _______ _______ _______ _____ _____    ______ ____

>  <TORSDO>
F 12

$$$$
=
 OpenBabel10232407493D

 32 34  0  0  1  0  0  0  0  0999 V2000
  187.1350  178.2250  140.9470 C   0  0  1  0  0  3  0  0  0  0  0  0
  185.3420  179.5750  141.7720 O   0  0  0  0  0  0  0  0  0  0  0  0
  185.8920  179.0340  140.7730 C   0  0  0  0  0  0  0  0  0  0  0  0
  185.3520  179.1790  139.4970 O   0  0  0  0  0  0  0  0  0  0  0  0
  183.9550  179.3550  139.2860 C   0  0  0  0  0  2  0  0  0  0  0  0
  183.3280  178.0830  138.7370 C   0  0  1  0  0  3  0  0  0  0  0  0
  184.2560  177.4140  137.7410 C   0  0  0  0  0  1  0  0  0  0  0  0
  183.0220  177.1650  139.8200 N   0  0  0  0  0  1  0  0  0  0  0  0
  188.1280  178.6210  139.9580 N   0  0  0  0  0  2  0  0  0  0  0  0
  188.7320  177.4040  139.4270 C   0  0  1  0  0  3  0  0  0  0  0  0
  187.9580  178.1300  137.1250 C   0  0  0  0  0  1  0  0  0  0  0  0
  190.0890  175.5950  137.7770 N   0  0  0  0  0  0  0  0  0  0  0  0
  190.8210  176.2380  138.8720 C   0  0  0  0  0  2  0  0  0  0  0  0
  188.0820  176.9700  138.1050 C   0  0  1  0  0  3  0  0  0  0  0  0
  188.8510  175.8500  137.4500 C   0  0  0  0  0  0  0  0  0  0  0  0
  190.2270  177.5910  139.2380 C   0  0  0  0  0  2  0  0  0  0  0  0
  188.2120  175.1340  136.4270 O   0  0  0  0  0  0  0  0  0  0  0  0
  185.9650  174.6840  136.3070 O   0  0  0  0  0  0  0  0  0  0  0  0
  187.2800  172.9380  137.0680 N   0  0  0  0  0  1  0  0  0  0  0  0
  187.1200  174.2690  136.5840 C   0  0  0  0  0  0  0  0  0  0  0  0
  187.7000  178.3870  142.3500 C   0  0  0  0  0  2  0  0  0  0  0  0
  187.5100  177.1050  143.1410 C   0  0  0  0  0  2  0  0  0  0  0  0
  188.3120  177.1470  144.3540 N   0  0  0  0  0  0  0  0  0  0  0  0
  187.6920  178.0750  147.8580 N   0  0  0  0  0  0  0  0  0  0  0  0
  188.4610  177.5890  146.7580 C   0  0  1  0  0  3  0  0  0  0  0  0
  187.7590  177.5250  145.6180 C   0  0  0  0  0  0  0  0  0  0  0  0
  186.3040  177.7370  145.9010 C   0  0  1  0  0  3  0  0  0  0  0  0
  186.5480  178.1950  147.2850 C   0  0  0  0  0  0  0  0  0  0  0  0
  189.8670  177.3800  146.8340 N   0  0  0  0  0  1  0  0  0  0  0  0
  185.7100  179.0220  145.6470 C   0  0  1  0  0  3  0  0  0  0  0  0
  184.3060  178.8450  145.1010 C   0  0  0  0  0  1  0  0  0  0  0  0
  185.6490  179.3380  147.0600 N   0  0  0  0  0  2  0  0  0  0  0  0
  1 21  1  1  0  0  0
  3  1  1  0  0  0  0
  3  2  2  0  0  0  0
  4  3  1  0  0  0  0
  5  4  1  0  0  0  0
  6  7  1  6  0  0  0
  6  5  1  0  0  0  0
  6  8  1  0  0  0  0
  9  1  1  0  0  0  0
 10  9  1  6  0  0  0
 12 13  1  0  0  0  0
 13 16  1  0  0  0  0
 14 11  1  6  0  0  0
 14 10  1  0  0  0  0
 15 12  2  0  0  0  0
 15 14  1  0  0  0  0
 16 10  1  0  0  0  0
 17 20  1  0  0  0  0
 17 15  1  0  0  0  0
 18 20  2  0  0  0  0
 20 19  1  0  0  0  0
 21 22  1  0  0  0  0
 22 23  1  0  0  0  0
 23 26  2  0  0  0  0
 25 29  1  6  0  0  0
 25 24  1  0  0  0  0
 26 25  1  0  0  0  0
 27 26  1  6  0  0  0
 27 28  1  0  0  0  0
 28 24  2  0  0  0  0
 30 31  1  1  0  0  0
 30 27  1  0  0  0  0
 30 32  1  0  0  0  0
 32 28  1  0  0  0  0
M  END
>  <MODEL>
4

>  <REMARK>
 VINA RESULT:      -7.2      3.368      6.143
  Name = 
  12 active torsions:
  status: ('A' for Active; 'I' for Inactive)
    1  A    between atoms: N_1  and  C_9
    2  A    between atoms: N_1  and  C_13
    3  A    between atoms: O_3  and  C_27
    4  A    between atoms: O_3  and  C_30
    5  A    between atoms: C_5  and  C_32
    6  A    between atoms: C_7  and  C_13
    7  A    between atoms: C_7  and  C_24
    8  A    between atoms: O_8  and  C_20
    9  A    between atoms: O_8  and  C_32
   10  A    between atoms: C_10  and  N_15
   11  A    between atoms: C_13  and  C_20
   12  A    between atoms: N_15  and  C_24
                            x       y       z     vdW  Elec       q    Type
                         _______ _______ _______ _____ _____    ______ ____

>  <TORSDO>
F 12

$$$$
=
 OpenBabel10232407493D

 32 34  0  0  1  0  0  0  0  0999 V2000
  187.7350  178.3700  141.6520 C   0  0  1  0  0  3  0  0  0  0  0  0
  185.6640  179.5670  141.6220 O   0  0  0  0  0  0  0  0  0  0  0  0
  186.3930  178.7180  142.2070 C   0  0  0  0  0  0  0  0  0  0  0  0
  185.9620  178.0940  143.3770 O   0  0  0  0  0  0  0  0  0  0  0  0
  185.2500  178.8010  144.3880 C   0  0  0  0  0  2  0  0  0  0  0  0
  185.4540  178.1480  145.7460 C   0  0  1  0  0  3  0  0  0  0  0  0
  186.8640  177.6060  145.8750 C   0  0  0  0  0  1  0  0  0  0  0  0
  185.1930  179.1040  146.8080 N   0  0  0  0  0  1  0  0  0  0  0  0
  188.2780  177.2140  142.3530 N   0  0  0  0  0  2  0  0  0  0  0  0
  189.2370  177.7040  143.3360 C   0  0  1  0  0  3  0  0  0  0  0  0
  190.5370  175.5530  143.0100 C   0  0  0  0  0  1  0  0  0  0  0  0
  191.6200  178.2710  144.6920 N   0  0  0  0  0  0  0  0  0  0  0  0
  191.0590  179.2860  143.7960 C   0  0  0  0  0  2  0  0  0  0  0  0
  189.9960  176.5570  144.0200 C   0  0  1  0  0  3  0  0  0  0  0  0
  191.1350  177.0710  144.8640 C   0  0  0  0  0  0  0  0  0  0  0  0
  190.2180  178.6660  142.6880 C   0  0  0  0  0  2  0  0  0  0  0  0
  191.7020  176.1890  145.7960 O   0  0  0  0  0  0  0  0  0  0  0  0
  190.7060  176.9170  147.7300 O   0  0  0  0  0  0  0  0  0  0  0  0
  192.7550  175.8780  148.0090 N   0  0  0  0  0  1  0  0  0  0  0  0
  191.6850  176.3410  147.1900 C   0  0  0  0  0  0  0  0  0  0  0  0
  187.6520  178.0860  140.1610 C   0  0  0  0  0  2  0  0  0  0  0  0
  188.8920  178.6120  139.4590 C   0  0  0  0  0  2  0  0  0  0  0  0
  188.9470  178.0980  138.0990 N   0  0  0  0  0  2  0  0  0  0  0  0
  189.1500  174.5830  137.0380 N   0  0  0  0  0  0  0  0  0  0  0  0
  188.4990  175.8220  137.3150 C   0  0  0  0  0  0  0  0  0  0  0  0
  189.3290  176.7500  137.8100 C   0  0  0  0  0  0  0  0  0  0  0  0
  190.6400  176.1230  138.1700 C   0  0  1  0  0  3  0  0  0  0  0  0
  190.3290  174.8590  137.4710 C   0  0  0  0  0  0  0  0  0  0  0  0
  187.1560  176.0890  136.9240 N   0  0  0  0  0  1  0  0  0  0  0  0
  191.7630  176.2650  137.2840 C   0  0  1  0  0  3  0  0  0  0  0  0
  193.0390  176.4400  138.0850 C   0  0  0  0  0  1  0  0  0  0  0  0
  191.6540  174.8920  136.8320 N   0  0  0  0  0  2  0  0  0  0  0  0
  1 21  1  6  0  0  0
  1  3  1  0  0  0  0
  1  9  1  0  0  0  0
  2  3  2  0  0  0  0
  3  4  1  0  0  0  0
  4  5  1  0  0  0  0
  5  6  1  0  0  0  0
  6  7  1  6  0  0  0
  6  8  1  0  0  0  0
 10  9  1  6  0  0  0
 10 14  1  0  0  0  0
 12 15  2  0  0  0  0
 13 12  1  0  0  0  0
 14 11  1  6  0  0  0
 14 15  1  0  0  0  0
 15 17  1  0  0  0  0
 16 10  1  0  0  0  0
 16 13  1  0  0  0  0
 17 20  1  0  0  0  0
 20 18  2  0  0  0  0
 20 19  1  0  0  0  0
 22 21  1  0  0  0  0
 23 22  1  0  0  0  0
 24 25  1  0  0  0  0
 24 28  2  0  0  0  0
 25 26  2  0  0  0  0
 26 23  1  0  0  0  0
 26 27  1  0  0  0  0
 27 28  1  6  0  0  0
 29 25  1  0  0  0  0
 30 31  1  1  0  0  0
 30 27  1  0  0  0  0
 32 30  1  0  0  0  0
 32 28  1  0  0  0  0
M  END
>  <MODEL>
5

>  <REMARK>
 VINA RESULT:      -7.1      2.441      6.419
  Name = 
  12 active torsions:
  status: ('A' for Active; 'I' for Inactive)
    1  A    between atoms: N_1  and  C_9
    2  A    between atoms: N_1  and  C_13
    3  A    between atoms: O_3  and  C_27
    4  A    between atoms: O_3  and  C_30
    5  A    between atoms: C_5  and  C_32
    6  A    between atoms: C_7  and  C_13
    7  A    between atoms: C_7  and  C_24
    8  A    between atoms: O_8  and  C_20
    9  A    between atoms: O_8  and  C_32
   10  A    between atoms: C_10  and  N_15
   11  A    between atoms: C_13  and  C_20
   12  A    between atoms: N_15  and  C_24
                            x       y       z     vdW  Elec       q    Type
                         _______ _______ _______ _____ _____    ______ ____

>  <TORSDO>
F 12

$$$$
=
 OpenBabel10232407493D

 32 34  0  0  1  0  0  0  0  0999 V2000
  188.2710  178.3480  141.0340 C   0  0  1  0  0  3  0  0  0  0  0  0
  186.2380  178.7400  139.8370 O   0  0  0  0  0  0  0  0  0  0  0  0
  186.8110  178.6530  140.9580 C   0  0  0  0  0  0  0  0  0  0  0  0
  186.0970  178.8390  142.1400 O   0  0  0  0  0  0  0  0  0  0  0  0
  184.6900  179.0590  142.1420 C   0  0  0  0  0  2  0  0  0  0  0  0
  184.0780  178.6170  143.4630 C   0  0  1  0  0  3  0  0  0  0  0  0
  184.7750  179.2900  144.6290 C   0  0  0  0  0  1  0  0  0  0  0  0
  182.6590  178.9290  143.4890 N   0  0  0  0  0  1  0  0  0  0  0  0
  188.4780  177.0630  141.6870 N   0  0  0  0  0  2  0  0  0  0  0  0
  189.4130  177.2720  142.7870 C   0  0  1  0  0  3  0  0  0  0  0  0
  187.5030  176.7980  144.3840 C   0  0  0  0  0  1  0  0  0  0  0  0
  190.7620  177.0360  145.2280 N   0  0  0  0  0  0  0  0  0  0  0  0
  191.3150  176.3640  144.0480 C   0  0  0  0  0  2  0  0  0  0  0  0
  188.6960  177.6950  144.0780 C   0  0  1  0  0  3  0  0  0  0  0  0
  189.6330  177.6910  145.2590 C   0  0  0  0  0  0  0  0  0  0  0  0
  190.2340  176.0200  143.0320 C   0  0  0  0  0  2  0  0  0  0  0  0
  189.2180  178.3600  146.4200 O   0  0  0  0  0  0  0  0  0  0  0  0
  189.6160  178.3140  148.6790 O   0  0  0  0  0  0  0  0  0  0  0  0
  188.2770  176.6040  147.8820 N   0  0  0  0  0  1  0  0  0  0  0  0
  189.0520  177.7840  147.6880 C   0  0  0  0  0  0  0  0  0  0  0  0
  188.8990  178.3370  139.6480 C   0  0  0  0  0  2  0  0  0  0  0  0
  189.4950  176.9710  139.3570 C   0  0  0  0  0  2  0  0  0  0  0  0
  190.9430  177.0240  139.4930 N   0  0  0  0  0  2  0  0  0  0  0  0
  193.8000  176.1710  137.3410 N   0  0  0  0  0  0  0  0  0  0  0  0
  193.1560  176.7140  138.4940 C   0  0  0  0  0  0  0  0  0  0  0  0
  191.8210  176.6260  138.4360 C   0  0  0  0  0  0  0  0  0  0  0  0
  191.3940  176.2210  137.0580 C   0  0  1  0  0  3  0  0  0  0  0  0
  192.7660  175.8650  136.6420 C   0  0  0  0  0  0  0  0  0  0  0  0
  193.8730  177.1240  139.6530 N   0  0  0  0  0  1  0  0  0  0  0  0
  191.0270  174.8550  136.8010 C   0  0  1  0  0  3  0  0  0  0  0  0
  189.8600  174.8050  135.8330 C   0  0  0  0  0  1  0  0  0  0  0  0
  192.2640  174.5960  136.0900 N   0  0  0  0  0  2  0  0  0  0  0  0
  1 21  1  6  0  0  0
  1  9  1  0  0  0  0
  2  3  2  0  0  0  0
  3  1  1  0  0  0  0
  3  4  1  0  0  0  0
  4  5  1  0  0  0  0
  5  6  1  0  0  0  0
  6  8  1  0  0  0  0
  6  7  1  1  0  0  0
 10  9  1  6  0  0  0
 10 16  1  0  0  0  0
 10 14  1  0  0  0  0
 12 15  2  0  0  0  0
 13 12  1  0  0  0  0
 14 11  1  1  0  0  0
 14 15  1  0  0  0  0
 15 17  1  0  0  0  0
 16 13  1  0  0  0  0
 17 20  1  0  0  0  0
 20 19  1  0  0  0  0
 20 18  2  0  0  0  0
 22 23  1  0  0  0  0
 22 21  1  0  0  0  0
 24 25  1  0  0  0  0
 25 29  1  0  0  0  0
 26 25  2  0  0  0  0
 26 23  1  0  0  0  0
 27 28  1  6  0  0  0
 27 26  1  0  0  0  0
 28 24  2  0  0  0  0
 30 31  1  6  0  0  0
 30 27  1  0  0  0  0
 32 28  1  0  0  0  0
 32 30  1  0  0  0  0
M  END
>  <MODEL>
6

>  <REMARK>
 VINA RESULT:      -7.1      2.927      7.064
  Name = 
  12 active torsions:
  status: ('A' for Active; 'I' for Inactive)
    1  A    between atoms: N_1  and  C_9
    2  A    between atoms: N_1  and  C_13
    3  A    between atoms: O_3  and  C_27
    4  A    between atoms: O_3  and  C_30
    5  A    between atoms: C_5  and  C_32
    6  A    between atoms: C_7  and  C_13
    7  A    between atoms: C_7  and  C_24
    8  A    between atoms: O_8  and  C_20
    9  A    between atoms: O_8  and  C_32
   10  A    between atoms: C_10  and  N_15
   11  A    between atoms: C_13  and  C_20
   12  A    between atoms: N_15  and  C_24
                            x       y       z     vdW  Elec       q    Type
                         _______ _______ _______ _____ _____    ______ ____

>  <TORSDO>
F 12

$$$$
=
 OpenBabel10232407493D

 32 34  0  0  1  0  0  0  0  0999 V2000
  188.0760  178.4870  141.5800 C   0  0  1  0  0  3  0  0  0  0  0  0
  185.9440  179.3330  140.9020 O   0  0  0  0  0  0  0  0  0  0  0  0
  186.6030  178.6640  141.7460 C   0  0  0  0  0  0  0  0  0  0  0  0
  185.9710  178.0840  142.8450 O   0  0  0  0  0  0  0  0  0  0  0  0
  185.4000  178.8700  143.8850 C   0  0  0  0  0  2  0  0  0  0  0  0
  185.2790  178.0610  145.1670 C   0  0  1  0  0  3  0  0  0  0  0  0
  186.6500  177.6870  145.6970 C   0  0  0  0  0  1  0  0  0  0  0  0
  184.5500  178.8150  146.1720 N   0  0  0  0  0  1  0  0  0  0  0  0
  188.5220  177.3110  142.3160 N   0  0  0  0  0  2  0  0  0  0  0  0
  189.4170  177.7660  143.3730 C   0  0  1  0  0  3  0  0  0  0  0  0
  190.7640  175.6480  143.0240 C   0  0  0  0  0  1  0  0  0  0  0  0
  191.7100  178.2970  144.8880 N   0  0  0  0  0  0  0  0  0  0  0  0
  191.1870  179.3470  144.0090 C   0  0  0  0  0  2  0  0  0  0  0  0
  190.1520  176.5980  144.0460 C   0  0  1  0  0  3  0  0  0  0  0  0
  191.2340  177.0850  144.9770 C   0  0  0  0  0  0  0  0  0  0  0  0
  190.4180  178.7680  142.8280 C   0  0  0  0  0  2  0  0  0  0  0  0
  191.7600  176.1680  145.8980 O   0  0  0  0  0  0  0  0  0  0  0  0
  190.7460  176.8700  147.8330 O   0  0  0  0  0  0  0  0  0  0  0  0
  192.7740  175.7920  148.1200 N   0  0  0  0  0  1  0  0  0  0  0  0
  191.7240  176.2900  147.2950 C   0  0  0  0  0  0  0  0  0  0  0  0
  188.4470  178.3550  140.1100 C   0  0  0  0  0  2  0  0  0  0  0  0
  189.3360  177.1410  139.9040 C   0  0  0  0  0  2  0  0  0  0  0  0
  190.5550  177.5310  139.2120 N   0  0  0  0  0  2  0  0  0  0  0  0
  193.0150  175.4310  137.4620 N   0  0  0  0  0  0  0  0  0  0  0  0
  192.5800  176.4360  138.3780 C   0  0  0  0  0  0  0  0  0  0  0  0
  191.2550  176.6370  138.3430 C   0  0  0  0  0  0  0  0  0  0  0  0
  190.6620  175.9290  137.1630 C   0  0  1  0  0  3  0  0  0  0  0  0
  191.8960  175.1620  136.8910 C   0  0  0  0  0  0  0  0  0  0  0  0
  193.4430  177.0160  139.3500 N   0  0  0  0  0  1  0  0  0  0  0  0
  189.9940  174.6700  137.3530 C   0  0  1  0  0  3  0  0  0  0  0  0
  188.7830  174.5840  136.4440 C   0  0  0  0  0  1  0  0  0  0  0  0
  191.0970  173.9320  136.7700 N   0  0  0  0  0  2  0  0  0  0  0  0
  1 21  1  6  0  0  0
  1  3  1  0  0  0  0
  1  9  1  0  0  0  0
  2  3  2  0  0  0  0
  3  4  1  0  0  0  0
  4  5  1  0  0  0  0
  5  6  1  0  0  0  0
  6  7  1  1  0  0  0
  6  8  1  0  0  0  0
 10  9  1  6  0  0  0
 10 14  1  0  0  0  0
 12 15  2  0  0  0  0
 13 12  1  0  0  0  0
 14 11  1  6  0  0  0
 14 15  1  0  0  0  0
 15 17  1  0  0  0  0
 16 10  1  0  0  0  0
 16 13  1  0  0  0  0
 17 20  1  0  0  0  0
 20 18  2  0  0  0  0
 20 19  1  0  0  0  0
 22 21  1  0  0  0  0
 23 22  1  0  0  0  0
 24 25  1  0  0  0  0
 25 29  1  0  0  0  0
 26 25  2  0  0  0  0
 26 23  1  0  0  0  0
 27 28  1  6  0  0  0
 27 30  1  0  0  0  0
 27 26  1  0  0  0  0
 28 24  2  0  0  0  0
 30 31  1  6  0  0  0
 32 28  1  0  0  0  0
 32 30  1  0  0  0  0
M  END
>  <MODEL>
7

>  <REMARK>
 VINA RESULT:      -7.1      2.541      6.785
  Name = 
  12 active torsions:
  status: ('A' for Active; 'I' for Inactive)
    1  A    between atoms: N_1  and  C_9
    2  A    between atoms: N_1  and  C_13
    3  A    between atoms: O_3  and  C_27
    4  A    between atoms: O_3  and  C_30
    5  A    between atoms: C_5  and  C_32
    6  A    between atoms: C_7  and  C_13
    7  A    between atoms: C_7  and  C_24
    8  A    between atoms: O_8  and  C_20
    9  A    between atoms: O_8  and  C_32
   10  A    between atoms: C_10  and  N_15
   11  A    between atoms: C_13  and  C_20
   12  A    between atoms: N_15  and  C_24
                            x       y       z     vdW  Elec       q    Type
                         _______ _______ _______ _____ _____    ______ ____

>  <TORSDO>
F 12

$$$$
=
 OpenBabel10232407493D

 32 34  0  0  1  0  0  0  0  0999 V2000
  190.1860  177.3060  142.2530 C   0  0  1  0  0  3  0  0  0  0  0  0
  190.1280  175.0260  142.9750 O   0  0  0  0  0  0  0  0  0  0  0  0
  190.6240  176.1780  143.1280 C   0  0  0  0  0  0  0  0  0  0  0  0
  191.5820  176.4160  144.1110 O   0  0  0  0  0  0  0  0  0  0  0  0
  191.4240  177.4460  145.0810 C   0  0  0  0  0  2  0  0  0  0  0  0
  191.5080  176.8780  146.4890 C   0  0  1  0  0  3  0  0  0  0  0  0
  190.1230  176.7100  147.0840 C   0  0  0  0  0  1  0  0  0  0  0  0
  192.1980  175.5990  146.4760 N   0  0  0  0  0  1  0  0  0  0  0  0
  189.7860  176.7970  140.9480 N   0  0  0  0  0  2  0  0  0  0  0  0
  191.0000  176.5450  140.1810 C   0  0  1  0  0  3  0  0  0  0  0  0
  189.8850  177.6830  138.2100 C   0  0  0  0  0  1  0  0  0  0  0  0
  193.1440  176.8280  138.4030 N   0  0  0  0  0  0  0  0  0  0  0  0
  193.3480  177.1690  139.8150 C   0  0  0  0  0  2  0  0  0  0  0  0
  190.7270  176.5000  138.6700 C   0  0  1  0  0  3  0  0  0  0  0  0
  192.0070  176.4650  137.8750 C   0  0  0  0  0  0  0  0  0  0  0  0
  192.0510  177.5960  140.4890 C   0  0  0  0  0  2  0  0  0  0  0  0
  191.9250  176.0930  136.5250 O   0  0  0  0  0  0  0  0  0  0  0  0
  193.5840  176.2520  134.9480 O   0  0  0  0  0  0  0  0  0  0  0  0
  193.2980  174.1470  135.8680 N   0  0  0  0  0  1  0  0  0  0  0  0
  192.9550  175.5260  135.7620 C   0  0  0  0  0  0  0  0  0  0  0  0
  189.0380  178.0760  142.8880 C   0  0  0  0  0  2  0  0  0  0  0  0
  187.9450  177.1160  143.3250 C   0  0  0  0  0  2  0  0  0  0  0  0
  187.5540  177.4030  144.6960 N   0  0  0  0  0  0  0  0  0  0  0  0
  184.6250  178.9480  146.2970 N   0  0  0  0  0  0  0  0  0  0  0  0
  185.9090  178.3250  146.2590 C   0  0  1  0  0  3  0  0  0  0  0  0
  186.2830  177.9720  145.0210 C   0  0  0  0  0  0  0  0  0  0  0  0
  185.1230  178.1010  144.0810 C   0  0  1  0  0  3  0  0  0  0  0  0
  184.3000  178.8450  145.0580 C   0  0  0  0  0  0  0  0  0  0  0  0
  186.7690  178.2660  147.3920 N   0  0  0  0  0  1  0  0  0  0  0  0
  185.0310  179.2500  143.2210 C   0  0  1  0  0  3  0  0  0  0  0  0
  184.4860  178.8400  141.8660 C   0  0  0  0  0  1  0  0  0  0  0  0
  183.9690  179.8330  144.0180 N   0  0  0  0  0  2  0  0  0  0  0  0
  1 21  1  1  0  0  0
  1  3  1  0  0  0  0
  2  3  2  0  0  0  0
  3  4  1  0  0  0  0
  4  5  1  0  0  0  0
  5  6  1  0  0  0  0
  6  7  1  6  0  0  0
  8  6  1  0  0  0  0
  9  1  1  0  0  0  0
 10 16  1  0  0  0  0
 10  9  1  1  0  0  0
 12 13  1  0  0  0  0
 13 16  1  0  0  0  0
 14 11  1  6  0  0  0
 14 10  1  0  0  0  0
 15 12  2  0  0  0  0
 15 14  1  0  0  0  0
 17 15  1  0  0  0  0
 18 20  2  0  0  0  0
 20 19  1  0  0  0  0
 20 17  1  0  0  0  0
 21 22  1  0  0  0  0
 22 23  1  0  0  0  0
 23 26  2  0  0  0  0
 25 24  1  0  0  0  0
 25 29  1  6  0  0  0
 26 25  1  0  0  0  0
 27 26  1  1  0  0  0
 27 28  1  0  0  0  0
 28 24  2  0  0  0  0
 30 31  1  6  0  0  0
 30 32  1  0  0  0  0
 30 27  1  0  0  0  0
 32 28  1  0  0  0  0
M  END
>  <MODEL>
8

>  <REMARK>
 VINA RESULT:      -7.0      2.719      6.529
  Name = 
  12 active torsions:
  status: ('A' for Active; 'I' for Inactive)
    1  A    between atoms: N_1  and  C_9
    2  A    between atoms: N_1  and  C_13
    3  A    between atoms: O_3  and  C_27
    4  A    between atoms: O_3  and  C_30
    5  A    between atoms: C_5  and  C_32
    6  A    between atoms: C_7  and  C_13
    7  A    between atoms: C_7  and  C_24
    8  A    between atoms: O_8  and  C_20
    9  A    between atoms: O_8  and  C_32
   10  A    between atoms: C_10  and  N_15
   11  A    between atoms: C_13  and  C_20
   12  A    between atoms: N_15  and  C_24
                            x       y       z     vdW  Elec       q    Type
                         _______ _______ _______ _____ _____    ______ ____

>  <TORSDO>
F 12

$$$$
=
 OpenBabel10232407493D

 32 34  0  0  1  0  0  0  0  0999 V2000
  187.9510  178.7890  140.9790 C   0  0  1  0  0  3  0  0  0  0  0  0
  188.0240  176.7610  142.2460 O   0  0  0  0  0  0  0  0  0  0  0  0
  188.6340  177.7990  141.8650 C   0  0  0  0  0  0  0  0  0  0  0  0
  189.9480  178.0400  142.2620 O   0  0  0  0  0  0  0  0  0  0  0  0
  190.7500  177.0280  142.8600 C   0  0  0  0  0  2  0  0  0  0  0  0
  191.6990  177.6290  143.8860 C   0  0  1  0  0  3  0  0  0  0  0  0
  191.3950  179.0990  144.1020 C   0  0  0  0  0  1  0  0  0  0  0  0
  191.5960  176.9140  145.1470 N   0  0  0  0  0  1  0  0  0  0  0  0
  188.6600  178.8930  139.7110 N   0  0  0  0  0  2  0  0  0  0  0  0
  188.7870  177.5470  139.1650 C   0  0  1  0  0  3  0  0  0  0  0  0
  187.8890  178.4470  136.9720 C   0  0  0  0  0  1  0  0  0  0  0  0
  189.2680  175.4010  137.4330 N   0  0  0  0  0  0  0  0  0  0  0  0
  190.3260  175.8090  138.3620 C   0  0  0  0  0  2  0  0  0  0  0  0
  187.8300  177.3120  137.9860 C   0  0  1  0  0  3  0  0  0  0  0  0
  188.1220  176.0080  137.2870 C   0  0  0  0  0  0  0  0  0  0  0  0
  190.2190  177.2810  138.7350 C   0  0  0  0  0  2  0  0  0  0  0  0
  187.1430  175.5030  136.4180 O   0  0  0  0  0  0  0  0  0  0  0  0
  184.9540  174.8160  136.4010 O   0  0  0  0  0  0  0  0  0  0  0  0
  186.4210  173.4020  137.4990 N   0  0  0  0  0  1  0  0  0  0  0  0
  186.1390  174.5830  136.7540 C   0  0  0  0  0  0  0  0  0  0  0  0
  186.5020  178.3950  140.7370 C   0  0  0  0  0  2  0  0  0  0  0  0
  185.5880  179.1660  141.6740 C   0  0  0  0  0  2  0  0  0  0  0  0
  184.9380  178.2500  142.5970 N   0  0  0  0  0  2  0  0  0  0  0  0
  183.9590  178.9130  146.0800 N   0  0  0  0  0  0  0  0  0  0  0  0
  183.7550  178.7900  144.6720 C   0  0  0  0  0  0  0  0  0  0  0  0
  184.8800  178.5020  144.0040 C   0  0  0  0  0  0  0  0  0  0  0  0
  186.0650  178.6540  144.9080 C   0  0  1  0  0  3  0  0  0  0  0  0
  185.2340  178.7570  146.1260 C   0  0  0  0  0  0  0  0  0  0  0  0
  182.4610  178.7870  144.0800 N   0  0  0  0  0  1  0  0  0  0  0  0
  186.6670  177.4870  145.4920 C   0  0  1  0  0  3  0  0  0  0  0  0
  188.1750  177.6490  145.5390 C   0  0  0  0  0  1  0  0  0  0  0  0
  186.1050  177.7770  146.7960 N   0  0  0  0  0  2  0  0  0  0  0  0
  1 21  1  6  0  0  0
  1  3  1  0  0  0  0
  3  2  2  0  0  0  0
  3  4  1  0  0  0  0
  4  5  1  0  0  0  0
  5  6  1  0  0  0  0
  6  7  1  1  0  0  0
  6  8  1  0  0  0  0
  9  1  1  0  0  0  0
 10  9  1  6  0  0  0
 12 13  1  0  0  0  0
 13 16  1  0  0  0  0
 14 11  1  6  0  0  0
 14 10  1  0  0  0  0
 15 12  2  0  0  0  0
 15 14  1  0  0  0  0
 16 10  1  0  0  0  0
 17 20  1  0  0  0  0
 17 15  1  0  0  0  0
 18 20  2  0  0  0  0
 20 19  1  0  0  0  0
 21 22  1  0  0  0  0
 22 23  1  0  0  0  0
 23 26  1  0  0  0  0
 24 28  2  0  0  0  0
 25 24  1  0  0  0  0
 26 25  2  0  0  0  0
 27 26  1  6  0  0  0
 27 30  1  0  0  0  0
 27 28  1  0  0  0  0
 28 32  1  0  0  0  0
 29 25  1  0  0  0  0
 30 31  1  1  0  0  0
 30 32  1  0  0  0  0
M  END
>  <MODEL>
9

>  <REMARK>
 VINA RESULT:      -7.0      2.410      6.296
  Name = 
  12 active torsions:
  status: ('A' for Active; 'I' for Inactive)
    1  A    between atoms: N_1  and  C_9
    2  A    between atoms: N_1  and  C_13
    3  A    between atoms: O_3  and  C_27
    4  A    between atoms: O_3  and  C_30
    5  A    between atoms: C_5  and  C_32
    6  A    between atoms: C_7  and  C_13
    7  A    between atoms: C_7  and  C_24
    8  A    between atoms: O_8  and  C_20
    9  A    between atoms: O_8  and  C_32
   10  A    between atoms: C_10  and  N_15
   11  A    between atoms: C_13  and  C_20
   12  A    between atoms: N_15  and  C_24
                            x       y       z     vdW  Elec       q    Type
                         _______ _______ _______ _____ _____    ______ ____

>  <TORSDO>
F 12

$$$$
