=
 OpenBabel10232409253D

 52 57  0  0  1  0  0  0  0  0999 V2000
  184.1480  179.0210  138.8390 C   0  0  2  0  0  3  0  0  0  0  0  0
  181.5070  179.5100  137.9930 S   0  0  0  0  0  0  0  0  0  0  0  0
  182.2810  177.2470  138.7080 C   0  0  0  0  0  3  0  0  0  0  0  0
  182.7530  178.5420  138.5610 C   0  0  0  0  0  0  0  0  0  0  0  0
  180.3260  178.3120  137.9160 C   0  0  0  0  0  3  0  0  0  0  0  0
  180.9340  177.1320  138.3430 C   0  0  0  0  0  0  0  0  0  0  0  0
  180.1930  175.8470  138.4390 C   0  0  0  0  0  2  0  0  0  0  0  0
  180.2770  175.1350  137.1740 N   0  0  0  0  0  2  0  0  0  0  0  0
  180.3460  173.7700  137.4800 N   0  0  0  0  0  2  0  0  0  0  0  0
  181.6970  170.2460  135.6260 N   0  0  0  0  0  1  0  0  0  0  0  0
  182.1550  172.2190  136.8440 C   0  0  0  0  0  0  0  0  0  0  0  0
  181.7020  173.4190  137.4730 N   0  0  0  0  0  2  0  0  0  0  0  0
  181.3050  171.4400  136.2450 N   0  0  0  0  0  0  0  0  0  0  0  0
  183.6090  171.8680  136.9240 C   0  0  0  0  0  2  0  0  0  0  0  0
  184.7840  173.7290  135.7930 C   0  0  0  0  0  2  0  0  0  0  0  0
  184.4500  173.1190  137.1260 C   0  0  2  0  0  3  0  0  0  0  0  0
  186.2260  174.0760  135.9660 C   0  0  0  0  0  2  0  0  0  0  0  0
  185.6620  172.7950  137.7530 O   0  0  0  0  0  0  0  0  0  0  0  0
  186.5530  173.7430  137.3450 N   0  0  0  0  0  2  0  0  0  0  0  0
  187.0020  177.6290  136.6240 C   0  0  0  0  0  2  0  0  0  0  0  0
  185.1900  177.6510  136.6620 S   0  0  0  0  0  0  0  0  0  0  0  0
  185.2220  177.9940  138.4520 C   0  0  1  0  0  3  0  0  0  0  0  0
  187.4810  177.6690  138.0620 C   0  0  2  0  0  3  0  0  0  0  0  0
  186.5440  178.4900  138.8090 N   0  0  0  0  0  2  0  0  0  0  0  0
  191.0700  175.1840  138.2610 O   0  0  0  0  0  1  0  0  0  0  0  0
  189.2260  178.7290  139.5800 C   0  0  0  0  0  2  0  0  0  0  0  0
  190.4400  176.5950  140.0770 C   0  0  0  0  0  2  0  0  0  0  0  0
  189.9570  177.2220  137.7020 C   0  0  0  0  0  2  0  0  0  0  0  0
  188.9020  178.2380  138.1610 C   0  0  1  0  0  3  0  0  0  0  0  0
  190.0790  176.0640  138.6950 C   0  0  1  0  0  3  0  0  0  0  0  0
  189.3650  177.5630  140.5610 C   0  0  0  0  0  2  0  0  0  0  0  0
  184.2860  179.4990  140.1600 O   0  0  0  0  0  0  0  0  0  0  0  0
  183.1550  179.2330  140.7910 O   0  0  0  0  0  0  0  0  0  0  0  0
  184.5720  179.0690  144.7060 C   0  0  2  0  0  3  0  0  0  0  0  0
  183.5440  178.5800  141.9640 C   0  0  1  0  0  3  0  0  0  0  0  0
  185.0110  178.9070  142.2570 C   0  0  0  0  0  2  0  0  0  0  0  0
  183.1030  178.6990  144.5210 C   0  0  0  0  0  2  0  0  0  0  0  0
  182.6640  178.9960  143.1190 C   0  0  0  0  0  0  0  0  0  0  0  0
  181.5550  179.4720  142.9230 O   0  0  0  0  0  0  0  0  0  0  0  0
  185.4270  178.3950  143.6350 C   0  0  0  0  0  2  0  0  0  0  0  0
  184.9980  178.6690  145.9740 O   0  0  0  0  0  0  0  0  0  0  0  0
  186.2200  179.1490  146.0920 O   0  0  0  0  0  0  0  0  0  0  0  0
  187.2080  177.8000  146.3950 P   0  0  1  0  0  0  0  0  0  0  0  0
  188.7970  178.0390  145.6880 N   0  0  0  0  0  2  0  0  0  0  0  0
  188.7180  178.3730  148.5540 C   0  0  0  0  0  2  0  0  0  0  0  0
  187.4550  177.6090  148.1800 C   0  0  0  0  0  2  0  0  0  0  0  0
  189.7370  177.2310  146.4640 C   0  0  2  0  0  3  0  0  0  0  0  0
  189.9760  177.8030  147.8760 C   0  0  0  0  0  2  0  0  0  0  0  0
  186.5660  176.5540  145.8310 O   0  0  0  0  0  0  0  0  0  0  0  0
  191.9700  176.1070  146.4970 C   0  0  0  0  0  1  0  0  0  0  0  0
  191.0600  177.0410  145.7240 C   0  0  0  0  0  3  0  0  0  0  0  0
  190.8580  176.5140  144.3130 C   0  0  0  0  0  1  0  0  0  0  0  0
  1 32  1  1  0  0  0
  2  4  1  0  0  0  0
  4  3  2  0  0  0  0
  4  1  1  0  0  0  0
  5  2  1  0  0  0  0
  5  6  2  0  0  0  0
  6  7  1  0  0  0  0
  6  3  1  0  0  0  0
  8  9  1  0  0  0  0
  8  7  1  0  0  0  0
 10 13  1  0  0  0  0
 11 14  1  0  0  0  0
 11 12  1  0  0  0  0
 12  9  1  0  0  0  0
 13 11  2  0  0  0  0
 15 17  1  0  0  0  0
 15 16  1  0  0  0  0
 16 14  1  6  0  0  0
 16 18  1  0  0  0  0
 17 19  1  0  0  0  0
 19 18  1  0  0  0  0
 20 21  1  0  0  0  0
 21 22  1  0  0  0  0
 22 24  1  0  0  0  0
 22  1  1  6  0  0  0
 23 20  1  6  0  0  0
 23 29  1  0  0  0  0
 23 24  1  0  0  0  0
 26 31  1  0  0  0  0
 27 31  1  0  0  0  0
 28 30  1  0  0  0  0
 29 28  1  1  0  0  0
 29 26  1  0  0  0  0
 30 25  1  6  0  0  0
 30 27  1  0  0  0  0
 32 33  1  0  0  0  0
 34 41  1  1  0  0  0
 35 33  1  6  0  0  0
 35 36  1  0  0  0  0
 35 38  1  0  0  0  0
 36 40  1  0  0  0  0
 37 34  1  0  0  0  0
 38 37  1  0  0  0  0
 39 38  2  0  0  0  0
 40 34  1  0  0  0  0
 41 42  1  0  0  0  0
 42 43  1  0  0  0  0
 43 49  2  6  0  0  0
 43 46  1  0  0  0  0
 44 43  1  0  0  0  0
 44 47  1  0  0  0  0
 46 45  1  0  0  0  0
 47 51  1  6  0  0  0
 47 48  1  0  0  0  0
 48 45  1  0  0  0  0
 51 50  1  0  0  0  0
 52 51  1  0  0  0  0
M  END
>  <MODEL>
1

>  <REMARK>
 VINA RESULT:      -8.2      0.000      0.000
  Name = 
  16 active torsions:
  status: ('A' for Active; 'I' for Inactive)
    1  A    between atoms: O_1  and  O_26
    2  A    between atoms: O_1  and  C_41
    3  A    between atoms: C_3  and  N_8
    4  A    between atoms: C_3  and  C_49
    5  A    between atoms: C_4  and  O_37
    6  A    between atoms: C_6  and  C_22
    7  A    between atoms: C_6  and  C_28
    8  A    between atoms: N_8  and  N_14
    9  A    between atoms: P_13  and  O_21
   10  A    between atoms: N_14  and  N_36
   11  A    between atoms: C_16  and  O_26
   12  A    between atoms: C_18  and  C_41
   13  A    between atoms: O_21  and  O_37
   14  A    between atoms: C_24  and  C_41
   15  A    between atoms: C_25  and  C_40
   16  A    between atoms: C_29  and  C_45
                            x       y       z     vdW  Elec       q    Type
                         _______ _______ _______ _____ _____    ______ ____

>  <TORSDO>
F 16

$$$$
=
 OpenBabel10232409253D

 52 57  0  0  1  0  0  0  0  0999 V2000
  189.5960  174.5590  136.4230 C   0  0  2  0  0  3  0  0  0  0  0  0
  187.8940  172.3850  136.9790 S   0  0  0  0  0  0  0  0  0  0  0  0
  187.0300  174.5820  136.1660 C   0  0  0  0  0  3  0  0  0  0  0  0
  188.2240  173.9540  136.4850 C   0  0  0  0  0  0  0  0  0  0  0  0
  186.2210  172.4550  136.8040 C   0  0  0  0  0  3  0  0  0  0  0  0
  185.9260  173.7400  136.3520 C   0  0  0  0  0  0  0  0  0  0  0  0
  184.5370  174.1770  136.0520 C   0  0  0  0  0  2  0  0  0  0  0  0
  183.6120  173.5500  136.9830 N   0  0  0  0  0  2  0  0  0  0  0  0
  182.6660  174.5220  137.3330 N   0  0  0  0  0  2  0  0  0  0  0  0
  180.6960  178.2180  137.6970 N   0  0  0  0  0  1  0  0  0  0  0  0
  182.6970  176.9600  137.6980 C   0  0  0  0  0  0  0  0  0  0  0  0
  183.3710  175.7070  137.5790 N   0  0  0  0  0  2  0  0  0  0  0  0
  181.4020  177.0130  137.6000 N   0  0  0  0  0  0  0  0  0  0  0  0
  183.5110  178.2000  137.9000 C   0  0  0  0  0  2  0  0  0  0  0  0
  183.4910  177.9320  140.3590 C   0  0  0  0  0  2  0  0  0  0  0  0
  184.3710  178.0780  139.1490 C   0  0  2  0  0  3  0  0  0  0  0  0
  184.1590  178.8430  141.3360 C   0  0  0  0  0  2  0  0  0  0  0  0
  185.1400  179.2370  139.3270 O   0  0  0  0  0  0  0  0  0  0  0  0
  185.3570  179.3320  140.6700 N   0  0  0  0  0  2  0  0  0  0  0  0
  192.5860  173.0890  134.4510 C   0  0  0  0  0  2  0  0  0  0  0  0
  190.7750  173.0990  134.3780 S   0  0  0  0  0  0  0  0  0  0  0  0
  190.6960  173.5230  136.1500 C   0  0  1  0  0  3  0  0  0  0  0  0
  192.9750  173.1970  135.9120 C   0  0  2  0  0  3  0  0  0  0  0  0
  191.9910  174.0450  136.5630 N   0  0  0  0  0  2  0  0  0  0  0  0
  196.6270  170.8250  135.5440 O   0  0  0  0  0  1  0  0  0  0  0  0
  194.7470  174.0130  137.5470 C   0  0  0  0  0  2  0  0  0  0  0  0
  196.0280  171.8600  137.6060 C   0  0  0  0  0  2  0  0  0  0  0  0
  195.4480  172.8960  135.4030 C   0  0  0  0  0  2  0  0  0  0  0  0
  194.3860  173.7800  136.0720 C   0  0  1  0  0  3  0  0  0  0  0  0
  195.6320  171.5810  136.1620 C   0  0  1  0  0  3  0  0  0  0  0  0
  194.9480  172.6910  138.2920 C   0  0  0  0  0  2  0  0  0  0  0  0
  189.8630  175.3710  137.5460 O   0  0  0  0  0  0  0  0  0  0  0  0
  190.2310  176.5570  137.0910 O   0  0  0  0  0  0  0  0  0  0  0  0
  189.6880  177.4360  141.1280 C   0  0  2  0  0  3  0  0  0  0  0  0
  190.1190  177.4130  138.1900 C   0  0  1  0  0  3  0  0  0  0  0  0
  188.7410  177.2290  138.8310 C   0  0  0  0  0  2  0  0  0  0  0  0
  191.0930  177.6790  140.5840 C   0  0  0  0  0  2  0  0  0  0  0  0
  191.2140  177.1340  139.1940 C   0  0  0  0  0  0  0  0  0  0  0  0
  192.2430  176.5650  138.8560 O   0  0  0  0  0  0  0  0  0  0  0  0
  188.6420  177.9810  140.1580 C   0  0  0  0  0  2  0  0  0  0  0  0
  189.5540  178.0610  142.3700 O   0  0  0  0  0  0  0  0  0  0  0  0
  188.2590  178.2710  142.5090 O   0  0  0  0  0  0  0  0  0  0  0  0
  187.7740  177.2620  143.7870 P   0  0  1  0  0  0  0  0  0  0  0  0
  188.7340  177.5900  145.2190 N   0  0  0  0  0  2  0  0  0  0  0  0
  186.0600  178.6690  145.3210 C   0  0  0  0  0  2  0  0  0  0  0  0
  186.0500  177.6120  144.2250 C   0  0  0  0  0  2  0  0  0  0  0  0
  187.9230  177.2120  146.3760 C   0  0  2  0  0  3  0  0  0  0  0  0
  186.7450  178.1810  146.6080 C   0  0  0  0  0  2  0  0  0  0  0  0
  187.9150  175.8120  143.3830 O   0  0  0  0  0  0  0  0  0  0  0  0
  190.2370  176.9360  147.2790 C   0  0  0  0  0  1  0  0  0  0  0  0
  188.7720  177.0770  147.6390 C   0  0  0  0  0  3  0  0  0  0  0  0
  188.5840  178.2510  148.5850 C   0  0  0  0  0  1  0  0  0  0  0  0
  1  4  1  0  0  0  0
  1 32  1  1  0  0  0
  3  6  1  0  0  0  0
  3  4  2  0  0  0  0
  4  2  1  0  0  0  0
  5  2  1  0  0  0  0
  6  5  2  0  0  0  0
  7  6  1  0  0  0  0
  7  8  1  0  0  0  0
  8  9  1  0  0  0  0
  9 12  1  0  0  0  0
 11 14  1  0  0  0  0
 12 11  1  0  0  0  0
 13 10  1  0  0  0  0
 13 11  2  0  0  0  0
 15 17  1  0  0  0  0
 16 14  1  6  0  0  0
 16 18  1  0  0  0  0
 16 15  1  0  0  0  0
 18 19  1  0  0  0  0
 19 17  1  0  0  0  0
 21 20  1  0  0  0  0
 21 22  1  0  0  0  0
 22  1  1  6  0  0  0
 22 24  1  0  0  0  0
 23 20  1  6  0  0  0
 23 29  1  0  0  0  0
 23 24  1  0  0  0  0
 26 31  1  0  0  0  0
 27 31  1  0  0  0  0
 28 30  1  0  0  0  0
 29 28  1  1  0  0  0
 29 26  1  0  0  0  0
 30 25  1  6  0  0  0
 30 27  1  0  0  0  0
 33 32  1  0  0  0  0
 34 41  1  1  0  0  0
 35 33  1  6  0  0  0
 35 36  1  0  0  0  0
 35 38  1  0  0  0  0
 36 40  1  0  0  0  0
 37 34  1  0  0  0  0
 38 37  1  0  0  0  0
 39 38  2  0  0  0  0
 40 34  1  0  0  0  0
 41 42  1  0  0  0  0
 42 43  1  0  0  0  0
 43 49  2  6  0  0  0
 43 46  1  0  0  0  0
 43 44  1  0  0  0  0
 44 47  1  0  0  0  0
 45 48  1  0  0  0  0
 46 45  1  0  0  0  0
 47 48  1  0  0  0  0
 47 51  1  1  0  0  0
 50 51  1  0  0  0  0
 51 52  1  0  0  0  0
M  END
>  <MODEL>
2

>  <REMARK>
 VINA RESULT:      -7.9      3.540      6.518
  Name = 
  16 active torsions:
  status: ('A' for Active; 'I' for Inactive)
    1  A    between atoms: O_1  and  O_26
    2  A    between atoms: O_1  and  C_41
    3  A    between atoms: C_3  and  N_8
    4  A    between atoms: C_3  and  C_49
    5  A    between atoms: C_4  and  O_37
    6  A    between atoms: C_6  and  C_22
    7  A    between atoms: C_6  and  C_28
    8  A    between atoms: N_8  and  N_14
    9  A    between atoms: P_13  and  O_21
   10  A    between atoms: N_14  and  N_36
   11  A    between atoms: C_16  and  O_26
   12  A    between atoms: C_18  and  C_41
   13  A    between atoms: O_21  and  O_37
   14  A    between atoms: C_24  and  C_41
   15  A    between atoms: C_25  and  C_40
   16  A    between atoms: C_29  and  C_45
                            x       y       z     vdW  Elec       q    Type
                         _______ _______ _______ _____ _____    ______ ____

>  <TORSDO>
F 16

$$$$
=
 OpenBabel10232409253D

 52 57  0  0  1  0  0  0  0  0999 V2000
  190.2020  176.8840  137.7870 C   0  0  2  0  0  3  0  0  0  0  0  0
  191.1740  174.2880  137.2870 S   0  0  0  0  0  0  0  0  0  0  0  0
  192.6870  176.2640  137.4820 C   0  0  0  0  0  3  0  0  0  0  0  0
  191.3410  175.9360  137.5450 C   0  0  0  0  0  0  0  0  0  0  0  0
  192.8080  173.9370  137.0850 C   0  0  0  0  0  3  0  0  0  0  0  0
  193.4900  175.1450  137.2220 C   0  0  0  0  0  0  0  0  0  0  0  0
  194.9710  175.2360  137.1340 C   0  0  0  0  0  2  0  0  0  0  0  0
  195.3480  175.9990  135.9550 N   0  0  0  0  0  2  0  0  0  0  0  0
  196.5510  175.4560  135.4870 N   0  0  0  0  0  2  0  0  0  0  0  0
  198.4310  171.8970  136.7030 N   0  0  0  0  0  1  0  0  0  0  0  0
  198.0690  174.2160  136.9820 C   0  0  0  0  0  0  0  0  0  0  0  0
  197.4360  175.4280  136.5720 N   0  0  0  0  0  2  0  0  0  0  0  0
  197.8450  173.1140  136.3320 N   0  0  0  0  0  0  0  0  0  0  0  0
  198.9570  174.2400  138.1880 C   0  0  0  0  0  2  0  0  0  0  0  0
  199.3090  175.2120  140.4350 C   0  0  0  0  0  2  0  0  0  0  0  0
  198.4780  175.2830  139.1850 C   0  0  2  0  0  3  0  0  0  0  0  0
  198.2710  175.3280  141.5020 C   0  0  0  0  0  2  0  0  0  0  0  0
  197.1480  175.0320  139.5510 O   0  0  0  0  0  0  0  0  0  0  0  0
  197.0090  175.5430  140.8080 N   0  0  0  0  0  2  0  0  0  0  0  0
  188.6250  177.7730  141.2090 C   0  0  0  0  0  2  0  0  0  0  0  0
  188.6900  178.4350  139.5230 S   0  0  0  0  0  0  0  0  0  0  0  0
  190.2140  177.4860  139.1990 C   0  0  1  0  0  3  0  0  0  0  0  0
  189.9290  177.0390  141.4530 C   0  0  2  0  0  3  0  0  0  0  0  0
  190.3260  176.4300  140.1950 N   0  0  0  0  0  2  0  0  0  0  0  0
  187.7060  177.6900  145.1580 O   0  0  0  0  0  1  0  0  0  0  0  0
  191.0470  175.8360  143.3960 C   0  0  0  0  0  2  0  0  0  0  0  0
  190.0560  177.2880  145.1800 C   0  0  0  0  0  2  0  0  0  0  0  0
  188.5670  176.2590  143.4520 C   0  0  0  0  0  2  0  0  0  0  0  0
  189.7740  175.9760  142.5480 C   0  0  1  0  0  3  0  0  0  0  0  0
  188.8080  177.4890  144.3290 C   0  0  1  0  0  3  0  0  0  0  0  0
  191.2680  177.0630  144.2830 C   0  0  0  0  0  2  0  0  0  0  0  0
  188.9610  176.3140  137.4350 O   0  0  0  0  0  0  0  0  0  0  0  0
  188.8260  176.4480  136.1270 O   0  0  0  0  0  0  0  0  0  0  0  0
  184.8000  176.1370  137.1540 C   0  0  2  0  0  3  0  0  0  0  0  0
  187.4790  176.1730  135.8750 C   0  0  1  0  0  3  0  0  0  0  0  0
  187.0150  175.0480  136.8040 C   0  0  0  0  0  2  0  0  0  0  0  0
  185.1510  177.2770  136.2020 C   0  0  0  0  0  2  0  0  0  0  0  0
  186.6380  177.4110  136.0770 C   0  0  0  0  0  0  0  0  0  0  0  0
  187.1410  178.5250  136.0310 O   0  0  0  0  0  0  0  0  0  0  0  0
  185.5010  174.8520  136.7220 C   0  0  0  0  0  2  0  0  0  0  0  0
  183.4160  175.9430  137.1590 O   0  0  0  0  0  0  0  0  0  0  0  0
  183.1790  175.2090  138.2280 O   0  0  0  0  0  0  0  0  0  0  0  0
  182.2360  176.1880  139.2470 P   0  0  1  0  0  0  0  0  0  0  0  0
  183.2650  177.0690  140.3650 N   0  0  0  0  0  2  0  0  0  0  0  0
  182.2320  178.6730  138.2010 C   0  0  0  0  0  2  0  0  0  0  0  0
  181.3560  177.4300  138.2630 C   0  0  0  0  0  2  0  0  0  0  0  0
  182.5460  178.2850  140.7420 C   0  0  2  0  0  3  0  0  0  0  0  0
  182.4660  179.3020  139.5850 C   0  0  0  0  0  2  0  0  0  0  0  0
  181.2440  175.3390  140.0070 O   0  0  0  0  0  0  0  0  0  0  0  0
  182.1670  178.8580  143.1460 C   0  0  0  0  0  1  0  0  0  0  0  0
  183.1460  178.9300  141.9910 C   0  0  0  0  0  3  0  0  0  0  0  0
  184.4640  178.2890  142.3900 C   0  0  0  0  0  1  0  0  0  0  0  0
  1 32  1  1  0  0  0
  2  4  1  0  0  0  0
  3  4  2  0  0  0  0
  4  1  1  0  0  0  0
  5  6  2  0  0  0  0
  5  2  1  0  0  0  0
  6  3  1  0  0  0  0
  7  6  1  0  0  0  0
  8  7  1  0  0  0  0
  9  8  1  0  0  0  0
  9 12  1  0  0  0  0
 11 14  1  0  0  0  0
 12 11  1  0  0  0  0
 13 10  1  0  0  0  0
 13 11  2  0  0  0  0
 15 17  1  0  0  0  0
 16 14  1  6  0  0  0
 16 18  1  0  0  0  0
 16 15  1  0  0  0  0
 18 19  1  0  0  0  0
 19 17  1  0  0  0  0
 21 20  1  0  0  0  0
 22  1  1  6  0  0  0
 22 21  1  0  0  0  0
 22 24  1  0  0  0  0
 23 20  1  6  0  0  0
 23 29  1  0  0  0  0
 24 23  1  0  0  0  0
 26 31  1  0  0  0  0
 28 30  1  0  0  0  0
 29 26  1  1  0  0  0
 29 28  1  0  0  0  0
 30 25  1  1  0  0  0
 30 27  1  0  0  0  0
 31 27  1  0  0  0  0
 33 32  1  0  0  0  0
 34 41  1  6  0  0  0
 35 38  1  0  0  0  0
 35 33  1  1  0  0  0
 35 36  1  0  0  0  0
 37 34  1  0  0  0  0
 38 37  1  0  0  0  0
 39 38  2  0  0  0  0
 40 36  1  0  0  0  0
 40 34  1  0  0  0  0
 41 42  1  0  0  0  0
 42 43  1  0  0  0  0
 43 49  2  1  0  0  0
 43 44  1  0  0  0  0
 44 47  1  0  0  0  0
 45 46  1  0  0  0  0
 45 48  1  0  0  0  0
 46 43  1  0  0  0  0
 47 51  1  1  0  0  0
 48 47  1  0  0  0  0
 51 52  1  0  0  0  0
 51 50  1  0  0  0  0
M  END
>  <MODEL>
3

>  <REMARK>
 VINA RESULT:      -7.7      5.328     10.400
  Name = 
  16 active torsions:
  status: ('A' for Active; 'I' for Inactive)
    1  A    between atoms: O_1  and  O_26
    2  A    between atoms: O_1  and  C_41
    3  A    between atoms: C_3  and  N_8
    4  A    between atoms: C_3  and  C_49
    5  A    between atoms: C_4  and  O_37
    6  A    between atoms: C_6  and  C_22
    7  A    between atoms: C_6  and  C_28
    8  A    between atoms: N_8  and  N_14
    9  A    between atoms: P_13  and  O_21
   10  A    between atoms: N_14  and  N_36
   11  A    between atoms: C_16  and  O_26
   12  A    between atoms: C_18  and  C_41
   13  A    between atoms: O_21  and  O_37
   14  A    between atoms: C_24  and  C_41
   15  A    between atoms: C_25  and  C_40
   16  A    between atoms: C_29  and  C_45
                            x       y       z     vdW  Elec       q    Type
                         _______ _______ _______ _____ _____    ______ ____

>  <TORSDO>
F 16

$$$$
=
 OpenBabel10232409253D

 52 57  0  0  1  0  0  0  0  0999 V2000
  191.9960  175.1060  136.2130 C   0  0  2  0  0  3  0  0  0  0  0  0
  191.2580  172.7360  134.8830 S   0  0  0  0  0  0  0  0  0  0  0  0
  189.6200  174.1060  136.1770 C   0  0  0  0  0  3  0  0  0  0  0  0
  190.9600  174.0930  135.8220 C   0  0  0  0  0  0  0  0  0  0  0  0
  189.6910  172.1190  134.8990 C   0  0  0  0  0  3  0  0  0  0  0  0
  188.9280  173.0020  135.6610 C   0  0  0  0  0  0  0  0  0  0  0  0
  187.4710  172.8050  135.8820 C   0  0  0  0  0  2  0  0  0  0  0  0
  186.9440  173.8960  136.6880 N   0  0  0  0  0  2  0  0  0  0  0  0
  185.8960  174.4700  135.9580 N   0  0  0  0  0  2  0  0  0  0  0  0
  182.0650  175.8730  136.9730 N   0  0  0  0  0  1  0  0  0  0  0  0
  184.3950  176.2310  136.8110 C   0  0  0  0  0  0  0  0  0  0  0  0
  185.6990  175.7590  136.4710 N   0  0  0  0  0  2  0  0  0  0  0  0
  183.3650  175.4530  136.6670 N   0  0  0  0  0  0  0  0  0  0  0  0
  184.2430  177.6390  137.2980 C   0  0  0  0  0  2  0  0  0  0  0  0
  183.4510  178.1080  139.5940 C   0  0  0  0  0  2  0  0  0  0  0  0
  184.6480  177.7460  138.7600 C   0  0  2  0  0  3  0  0  0  0  0  0
  184.0170  179.1410  140.5120 C   0  0  0  0  0  2  0  0  0  0  0  0
  185.5990  178.7620  138.9290 O   0  0  0  0  0  0  0  0  0  0  0  0
  185.4390  179.2080  140.2080 N   0  0  0  0  0  2  0  0  0  0  0  0
  195.6990  175.9070  135.4130 C   0  0  0  0  0  2  0  0  0  0  0  0
  194.0540  176.2120  134.7140 S   0  0  0  0  0  0  0  0  0  0  0  0
  193.3870  174.7910  135.6420 C   0  0  1  0  0  3  0  0  0  0  0  0
  195.6370  174.5790  136.1410 C   0  0  2  0  0  3  0  0  0  0  0  0
  194.3090  174.4610  136.7190 N   0  0  0  0  0  2  0  0  0  0  0  0
  199.7450  173.2980  135.3760 O   0  0  0  0  0  1  0  0  0  0  0  0
  196.5420  173.2390  138.1050 C   0  0  0  0  0  2  0  0  0  0  0  0
  198.2960  172.0320  136.7860 C   0  0  0  0  0  2  0  0  0  0  0  0
  198.1300  174.5250  136.6360 C   0  0  0  0  0  2  0  0  0  0  0  0
  196.7150  174.4890  137.2290 C   0  0  1  0  0  3  0  0  0  0  0  0
  198.4410  173.2390  135.8680 C   0  0  1  0  0  3  0  0  0  0  0  0
  196.8740  171.9610  137.3320 C   0  0  0  0  0  2  0  0  0  0  0  0
  192.0070  175.3360  137.6050 O   0  0  0  0  0  0  0  0  0  0  0  0
  191.4580  176.5220  137.8080 O   0  0  0  0  0  0  0  0  0  0  0  0
  189.9580  178.1680  141.3290 C   0  0  2  0  0  3  0  0  0  0  0  0
  190.9550  176.4660  139.1110 C   0  0  1  0  0  3  0  0  0  0  0  0
  191.8840  177.2500  140.0410 C   0  0  0  0  0  2  0  0  0  0  0  0
  188.9530  177.3840  140.4890 C   0  0  0  0  0  2  0  0  0  0  0  0
  189.5530  177.0260  139.1630 C   0  0  0  0  0  0  0  0  0  0  0  0
  188.8650  177.0880  138.1540 O   0  0  0  0  0  0  0  0  0  0  0  0
  191.2740  177.4020  141.4330 C   0  0  0  0  0  2  0  0  0  0  0  0
  189.4310  178.3830  142.6050 O   0  0  0  0  0  0  0  0  0  0  0  0
  188.1240  178.3020  142.4540 O   0  0  0  0  0  0  0  0  0  0  0  0
  187.5840  177.3100  143.7230 P   0  0  1  0  0  0  0  0  0  0  0  0
  188.5000  177.6390  145.1840 N   0  0  0  0  0  2  0  0  0  0  0  0
  185.8370  178.7520  145.1870 C   0  0  0  0  0  2  0  0  0  0  0  0
  185.8510  177.6850  144.1000 C   0  0  0  0  0  2  0  0  0  0  0  0
  187.6460  177.2810  146.3160 C   0  0  2  0  0  3  0  0  0  0  0  0
  186.4740  178.2660  146.5010 C   0  0  0  0  0  2  0  0  0  0  0  0
  187.7200  175.8560  143.3360 O   0  0  0  0  0  0  0  0  0  0  0  0
  189.9210  176.9480  147.2970 C   0  0  0  0  0  1  0  0  0  0  0  0
  188.4510  177.1470  147.6080 C   0  0  0  0  0  3  0  0  0  0  0  0
  188.2740  178.3480  148.5210 C   0  0  0  0  0  1  0  0  0  0  0  0
  1 32  1  1  0  0  0
  2  5  1  0  0  0  0
  2  4  1  0  0  0  0
  4  3  2  0  0  0  0
  4  1  1  0  0  0  0
  5  6  2  0  0  0  0
  6  7  1  0  0  0  0
  6  3  1  0  0  0  0
  7  8  1  0  0  0  0
  9 12  1  0  0  0  0
  9  8  1  0  0  0  0
 11 14  1  0  0  0  0
 12 11  1  0  0  0  0
 13 11  2  0  0  0  0
 13 10  1  0  0  0  0
 15 17  1  0  0  0  0
 16 14  1  6  0  0  0
 16 18  1  0  0  0  0
 16 15  1  0  0  0  0
 18 19  1  0  0  0  0
 19 17  1  0  0  0  0
 21 20  1  0  0  0  0
 21 22  1  0  0  0  0
 22  1  1  1  0  0  0
 22 24  1  0  0  0  0
 23 20  1  1  0  0  0
 23 24  1  0  0  0  0
 23 29  1  0  0  0  0
 27 31  1  0  0  0  0
 29 28  1  6  0  0  0
 29 26  1  0  0  0  0
 30 25  1  1  0  0  0
 30 28  1  0  0  0  0
 30 27  1  0  0  0  0
 31 26  1  0  0  0  0
 32 33  1  0  0  0  0
 34 40  1  0  0  0  0
 34 41  1  1  0  0  0
 35 33  1  6  0  0  0
 35 38  1  0  0  0  0
 35 36  1  0  0  0  0
 36 40  1  0  0  0  0
 37 34  1  0  0  0  0
 38 37  1  0  0  0  0
 39 38  2  0  0  0  0
 42 41  1  0  0  0  0
 42 43  1  0  0  0  0
 43 49  2  6  0  0  0
 43 46  1  0  0  0  0
 43 44  1  0  0  0  0
 44 47  1  0  0  0  0
 45 48  1  0  0  0  0
 46 45  1  0  0  0  0
 47 48  1  0  0  0  0
 47 51  1  1  0  0  0
 50 51  1  0  0  0  0
 51 52  1  0  0  0  0
M  END
>  <MODEL>
4

>  <REMARK>
 VINA RESULT:      -7.6      4.387      7.391
  Name = 
  16 active torsions:
  status: ('A' for Active; 'I' for Inactive)
    1  A    between atoms: O_1  and  O_26
    2  A    between atoms: O_1  and  C_41
    3  A    between atoms: C_3  and  N_8
    4  A    between atoms: C_3  and  C_49
    5  A    between atoms: C_4  and  O_37
    6  A    between atoms: C_6  and  C_22
    7  A    between atoms: C_6  and  C_28
    8  A    between atoms: N_8  and  N_14
    9  A    between atoms: P_13  and  O_21
   10  A    between atoms: N_14  and  N_36
   11  A    between atoms: C_16  and  O_26
   12  A    between atoms: C_18  and  C_41
   13  A    between atoms: O_21  and  O_37
   14  A    between atoms: C_24  and  C_41
   15  A    between atoms: C_25  and  C_40
   16  A    between atoms: C_29  and  C_45
                            x       y       z     vdW  Elec       q    Type
                         _______ _______ _______ _____ _____    ______ ____

>  <TORSDO>
F 16

$$$$
=
 OpenBabel10232409253D

 52 57  0  0  1  0  0  0  0  0999 V2000
  188.1240  178.0790  140.1900 C   0  0  2  0  0  3  0  0  0  0  0  0
  189.0880  178.8090  137.6470 S   0  0  0  0  0  0  0  0  0  0  0  0
  188.4090  176.4700  138.1950 C   0  0  0  0  0  3  0  0  0  0  0  0
  188.4890  177.7260  138.7780 C   0  0  0  0  0  0  0  0  0  0  0  0
  189.2650  177.7170  136.3790 C   0  0  0  0  0  3  0  0  0  0  0  0
  188.8460  176.4790  136.8640 C   0  0  0  0  0  0  0  0  0  0  0  0
  188.8300  175.2580  136.0160 C   0  0  0  0  0  2  0  0  0  0  0  0
  190.1600  174.6710  135.9750 N   0  0  0  0  0  2  0  0  0  0  0  0
  190.4310  174.1880  137.2620 N   0  0  0  0  0  2  0  0  0  0  0  0
  193.4850  176.8240  138.4480 N   0  0  0  0  0  1  0  0  0  0  0  0
  192.8090  174.6950  137.6750 C   0  0  0  0  0  0  0  0  0  0  0  0
  191.7760  173.7950  137.2750 N   0  0  0  0  0  2  0  0  0  0  0  0
  192.5070  175.8990  138.0590 N   0  0  0  0  0  0  0  0  0  0  0  0
  194.2320  174.2350  137.6090 C   0  0  0  0  0  2  0  0  0  0  0  0
  196.1800  174.9050  136.2390 C   0  0  0  0  0  2  0  0  0  0  0  0
  194.7740  174.3750  136.1950 C   0  0  2  0  0  3  0  0  0  0  0  0
  196.1610  175.9190  135.1430 C   0  0  0  0  0  2  0  0  0  0  0  0
  194.0030  175.2930  135.4660 O   0  0  0  0  0  0  0  0  0  0  0  0
  194.8440  175.8200  134.5310 N   0  0  0  0  0  2  0  0  0  0  0  0
  191.2860  177.6200  142.3780 C   0  0  0  0  0  2  0  0  0  0  0  0
  190.7300  177.2640  140.6890 S   0  0  0  0  0  0  0  0  0  0  0  0
  188.9920  177.3570  141.2320 C   0  0  1  0  0  3  0  0  0  0  0  0
  190.0640  177.5590  143.2730 C   0  0  2  0  0  3  0  0  0  0  0  0
  188.9370  178.0600  142.5060 N   0  0  0  0  0  2  0  0  0  0  0  0
  192.2810  176.1320  146.7580 O   0  0  0  0  0  1  0  0  0  0  0  0
  189.0040  178.4090  145.4240 C   0  0  0  0  0  2  0  0  0  0  0  0
  189.9480  176.6070  146.8860 C   0  0  0  0  0  2  0  0  0  0  0  0
  191.4660  177.8930  145.3670 C   0  0  0  0  0  2  0  0  0  0  0  0
  190.2660  178.3870  144.5490 C   0  0  1  0  0  3  0  0  0  0  0  0
  191.1830  176.5270  145.9970 C   0  0  1  0  0  3  0  0  0  0  0  0
  188.7400  177.0440  146.0640 C   0  0  0  0  0  2  0  0  0  0  0  0
  186.7400  177.9380  140.4270 O   0  0  0  0  0  0  0  0  0  0  0  0
  186.3120  179.0810  140.9330 O   0  0  0  0  0  0  0  0  0  0  0  0
  182.6770  177.6250  139.5100 C   0  0  2  0  0  3  0  0  0  0  0  0
  184.9970  179.2050  140.4780 C   0  0  1  0  0  3  0  0  0  0  0  0
  184.9040  178.6490  139.0550 C   0  0  0  0  0  2  0  0  0  0  0  0
  182.6530  178.1810  140.9310 C   0  0  0  0  0  2  0  0  0  0  0  0
  184.0460  178.4760  141.3980 C   0  0  0  0  0  0  0  0  0  0  0  0
  184.3620  178.2210  142.5520 O   0  0  0  0  0  0  0  0  0  0  0  0
  183.4520  178.5630  138.5880 C   0  0  0  0  0  2  0  0  0  0  0  0
  181.3680  177.4760  139.0450 O   0  0  0  0  0  0  0  0  0  0  0  0
  181.0870  176.2000  139.2180 O   0  0  0  0  0  0  0  0  0  0  0  0
  181.3280  175.4760  137.7010 P   0  0  1  0  0  0  0  0  0  0  0  0
  182.8160  174.5430  137.7000 N   0  0  0  0  0  2  0  0  0  0  0  0
  180.4210  172.9410  137.8610 C   0  0  0  0  0  2  0  0  0  0  0  0
  179.9830  174.3090  137.3570 C   0  0  0  0  0  2  0  0  0  0  0  0
  182.6650  173.4950  136.6920 C   0  0  2  0  0  3  0  0  0  0  0  0
  181.6600  172.4070  137.1240 C   0  0  0  0  0  2  0  0  0  0  0  0
  181.3740  176.5360  136.6240 O   0  0  0  0  0  0  0  0  0  0  0  0
  184.6240  173.6070  135.1430 C   0  0  0  0  0  1  0  0  0  0  0  0
  184.0100  172.8740  136.3200 C   0  0  0  0  0  3  0  0  0  0  0  0
  184.9820  172.8690  137.4880 C   0  0  0  0  0  1  0  0  0  0  0  0
  1 32  1  1  0  0  0
  2  4  1  0  0  0  0
  3  4  2  0  0  0  0
  4  1  1  0  0  0  0
  5  6  2  0  0  0  0
  5  2  1  0  0  0  0
  6  3  1  0  0  0  0
  7  6  1  0  0  0  0
  8  7  1  0  0  0  0
  8  9  1  0  0  0  0
  9 12  1  0  0  0  0
 11 13  2  0  0  0  0
 12 11  1  0  0  0  0
 13 10  1  0  0  0  0
 14 11  1  0  0  0  0
 16 15  1  0  0  0  0
 16 14  1  1  0  0  0
 17 15  1  0  0  0  0
 18 16  1  0  0  0  0
 19 17  1  0  0  0  0
 19 18  1  0  0  0  0
 21 22  1  0  0  0  0
 21 20  1  0  0  0  0
 22  1  1  6  0  0  0
 22 24  1  0  0  0  0
 23 20  1  6  0  0  0
 23 29  1  0  0  0  0
 24 23  1  0  0  0  0
 26 31  1  0  0  0  0
 28 30  1  0  0  0  0
 29 28  1  1  0  0  0
 29 26  1  0  0  0  0
 30 25  1  1  0  0  0
 30 27  1  0  0  0  0
 31 27  1  0  0  0  0
 32 33  1  0  0  0  0
 34 41  1  6  0  0  0
 34 37  1  0  0  0  0
 35 33  1  1  0  0  0
 35 38  1  0  0  0  0
 36 35  1  0  0  0  0
 37 38  1  0  0  0  0
 38 39  2  0  0  0  0
 40 36  1  0  0  0  0
 40 34  1  0  0  0  0
 41 42  1  0  0  0  0
 43 49  2  6  0  0  0
 43 42  1  0  0  0  0
 44 43  1  0  0  0  0
 46 43  1  0  0  0  0
 46 45  1  0  0  0  0
 47 51  1  1  0  0  0
 47 48  1  0  0  0  0
 47 44  1  0  0  0  0
 48 45  1  0  0  0  0
 50 51  1  0  0  0  0
 51 52  1  0  0  0  0
M  END
>  <MODEL>
5

>  <REMARK>
 VINA RESULT:      -7.5      3.817      8.879
  Name = 
  16 active torsions:
  status: ('A' for Active; 'I' for Inactive)
    1  A    between atoms: O_1  and  O_26
    2  A    between atoms: O_1  and  C_41
    3  A    between atoms: C_3  and  N_8
    4  A    between atoms: C_3  and  C_49
    5  A    between atoms: C_4  and  O_37
    6  A    between atoms: C_6  and  C_22
    7  A    between atoms: C_6  and  C_28
    8  A    between atoms: N_8  and  N_14
    9  A    between atoms: P_13  and  O_21
   10  A    between atoms: N_14  and  N_36
   11  A    between atoms: C_16  and  O_26
   12  A    between atoms: C_18  and  C_41
   13  A    between atoms: O_21  and  O_37
   14  A    between atoms: C_24  and  C_41
   15  A    between atoms: C_25  and  C_40
   16  A    between atoms: C_29  and  C_45
                            x       y       z     vdW  Elec       q    Type
                         _______ _______ _______ _____ _____    ______ ____

>  <TORSDO>
F 16

$$$$
=
 OpenBabel10232409253D

 52 57  0  0  1  0  0  0  0  0999 V2000
  190.9980  175.6880  136.5840 C   0  0  2  0  0  3  0  0  0  0  0  0
  189.5060  173.3410  136.1360 S   0  0  0  0  0  0  0  0  0  0  0  0
  188.5690  175.6180  135.7220 C   0  0  0  0  0  3  0  0  0  0  0  0
  189.7340  175.0030  136.1530 C   0  0  0  0  0  0  0  0  0  0  0  0
  187.9170  173.3500  135.5810 C   0  0  0  0  0  3  0  0  0  0  0  0
  187.5670  174.6890  135.4110 C   0  0  0  0  0  0  0  0  0  0  0  0
  186.2330  175.1020  134.9020 C   0  0  0  0  0  2  0  0  0  0  0  0
  185.9720  176.4840  135.2710 N   0  0  0  0  0  2  0  0  0  0  0  0
  184.5860  176.6050  135.4400 N   0  0  0  0  0  2  0  0  0  0  0  0
  180.7210  177.5650  136.7860 N   0  0  0  0  0  1  0  0  0  0  0  0
  183.0660  177.6910  137.0490 C   0  0  0  0  0  0  0  0  0  0  0  0
  184.3810  177.3650  136.5980 N   0  0  0  0  0  2  0  0  0  0  0  0
  182.0300  177.2620  136.3920 N   0  0  0  0  0  0  0  0  0  0  0  0
  182.9130  178.5570  138.2600 C   0  0  0  0  0  2  0  0  0  0  0  0
  183.6770  177.7720  140.4780 C   0  0  0  0  0  2  0  0  0  0  0  0
  184.1120  178.4010  139.1840 C   0  0  2  0  0  3  0  0  0  0  0  0
  184.4150  178.5950  141.4830 C   0  0  0  0  0  2  0  0  0  0  0  0
  184.6570  179.6560  139.4910 O   0  0  0  0  0  0  0  0  0  0  0  0
  185.2410  179.5150  140.7150 N   0  0  0  0  0  2  0  0  0  0  0  0
  194.8260  175.1440  136.3670 C   0  0  0  0  0  2  0  0  0  0  0  0
  193.5230  176.0490  135.4890 S   0  0  0  0  0  0  0  0  0  0  0  0
  192.2650  174.9220  136.1750 C   0  0  1  0  0  3  0  0  0  0  0  0
  194.1910  173.8950  136.9450 C   0  0  2  0  0  3  0  0  0  0  0  0
  192.8310  174.2350  137.3270 N   0  0  0  0  0  2  0  0  0  0  0  0
  198.1410  175.3870  138.0700 O   0  0  0  0  0  1  0  0  0  0  0  0
  195.6340  172.0140  137.8700 C   0  0  0  0  0  2  0  0  0  0  0  0
  197.8230  173.1270  137.3790 C   0  0  0  0  0  2  0  0  0  0  0  0
  196.0450  174.3830  138.6150 C   0  0  0  0  0  2  0  0  0  0  0  0
  194.9820  173.3760  138.1530 C   0  0  1  0  0  3  0  0  0  0  0  0
  197.1830  174.4920  137.5980 C   0  0  1  0  0  3  0  0  0  0  0  0
  196.7820  172.1390  136.8660 C   0  0  0  0  0  2  0  0  0  0  0  0
  190.9710  176.0260  137.9540 O   0  0  0  0  0  0  0  0  0  0  0  0
  190.8470  177.3400  138.0290 O   0  0  0  0  0  0  0  0  0  0  0  0
  190.1270  176.2680  141.9900 C   0  0  2  0  0  3  0  0  0  0  0  0
  190.5100  177.5930  139.3610 C   0  0  1  0  0  3  0  0  0  0  0  0
  189.2500  176.8020  139.7180 C   0  0  0  0  0  2  0  0  0  0  0  0
  191.3980  177.0780  141.7480 C   0  0  0  0  0  2  0  0  0  0  0  0
  191.6520  177.2190  140.2770 C   0  0  0  0  0  0  0  0  0  0  0  0
  192.7960  177.1370  139.8520 O   0  0  0  0  0  0  0  0  0  0  0  0
  188.9580  176.8720  141.2170 C   0  0  0  0  0  2  0  0  0  0  0  0
  189.8370  176.2540  143.3560 O   0  0  0  0  0  0  0  0  0  0  0  0
  190.8250  176.9190  143.9230 O   0  0  0  0  0  0  0  0  0  0  0  0
  190.0780  178.0320  144.9660 P   0  0  1  0  0  0  0  0  0  0  0  0
  188.3320  177.9530  144.7920 N   0  0  0  0  0  2  0  0  0  0  0  0
  189.3350  176.6880  147.1830 C   0  0  0  0  0  2  0  0  0  0  0  0
  190.4480  177.6020  146.6880 C   0  0  0  0  0  2  0  0  0  0  0  0
  187.7540  178.4020  146.0570 C   0  0  2  0  0  3  0  0  0  0  0  0
  187.9620  177.3790  147.1930 C   0  0  0  0  0  2  0  0  0  0  0  0
  190.5720  179.4290  144.6700 O   0  0  0  0  0  0  0  0  0  0  0  0
  185.6920  178.0780  144.6820 C   0  0  0  0  0  1  0  0  0  0  0  0
  186.2750  178.7540  145.9070 C   0  0  0  0  0  3  0  0  0  0  0  0
  185.4680  178.3760  147.1380 C   0  0  0  0  0  1  0  0  0  0  0  0
  1 32  1  1  0  0  0
  2  4  1  0  0  0  0
  3  4  2  0  0  0  0
  4  1  1  0  0  0  0
  5  2  1  0  0  0  0
  6  5  2  0  0  0  0
  6  3  1  0  0  0  0
  7  8  1  0  0  0  0
  7  6  1  0  0  0  0
  8  9  1  0  0  0  0
  9 12  1  0  0  0  0
 11 14  1  0  0  0  0
 12 11  1  0  0  0  0
 13 10  1  0  0  0  0
 13 11  2  0  0  0  0
 15 17  1  0  0  0  0
 16 14  1  6  0  0  0
 16 18  1  0  0  0  0
 16 15  1  0  0  0  0
 18 19  1  0  0  0  0
 19 17  1  0  0  0  0
 21 22  1  0  0  0  0
 21 20  1  0  0  0  0
 22  1  1  1  0  0  0
 22 24  1  0  0  0  0
 23 20  1  1  0  0  0
 23 24  1  0  0  0  0
 23 29  1  0  0  0  0
 27 30  1  0  0  0  0
 29 26  1  6  0  0  0
 29 28  1  0  0  0  0
 30 25  1  1  0  0  0
 30 28  1  0  0  0  0
 31 27  1  0  0  0  0
 31 26  1  0  0  0  0
 32 33  1  0  0  0  0
 34 41  1  1  0  0  0
 35 33  1  6  0  0  0
 35 36  1  0  0  0  0
 35 38  1  0  0  0  0
 36 40  1  0  0  0  0
 37 34  1  0  0  0  0
 38 37  1  0  0  0  0
 39 38  2  0  0  0  0
 40 34  1  0  0  0  0
 41 42  1  0  0  0  0
 42 43  1  0  0  0  0
 43 49  2  6  0  0  0
 43 46  1  0  0  0  0
 44 43  1  0  0  0  0
 44 47  1  0  0  0  0
 45 48  1  0  0  0  0
 46 45  1  0  0  0  0
 47 51  1  6  0  0  0
 47 48  1  0  0  0  0
 50 51  1  0  0  0  0
 51 52  1  0  0  0  0
M  END
>  <MODEL>
6

>  <REMARK>
 VINA RESULT:      -7.3      3.890      7.074
  Name = 
  16 active torsions:
  status: ('A' for Active; 'I' for Inactive)
    1  A    between atoms: O_1  and  O_26
    2  A    between atoms: O_1  and  C_41
    3  A    between atoms: C_3  and  N_8
    4  A    between atoms: C_3  and  C_49
    5  A    between atoms: C_4  and  O_37
    6  A    between atoms: C_6  and  C_22
    7  A    between atoms: C_6  and  C_28
    8  A    between atoms: N_8  and  N_14
    9  A    between atoms: P_13  and  O_21
   10  A    between atoms: N_14  and  N_36
   11  A    between atoms: C_16  and  O_26
   12  A    between atoms: C_18  and  C_41
   13  A    between atoms: O_21  and  O_37
   14  A    between atoms: C_24  and  C_41
   15  A    between atoms: C_25  and  C_40
   16  A    between atoms: C_29  and  C_45
                            x       y       z     vdW  Elec       q    Type
                         _______ _______ _______ _____ _____    ______ ____

>  <TORSDO>
F 16

$$$$
=
 OpenBabel10232409253D

 52 57  0  0  1  0  0  0  0  0999 V2000
  192.0030  174.8500  136.1430 C   0  0  2  0  0  3  0  0  0  0  0  0
  191.0170  172.6330  134.7140 S   0  0  0  0  0  0  0  0  0  0  0  0
  189.6650  173.8070  136.4530 C   0  0  0  0  0  3  0  0  0  0  0  0
  190.9100  173.8660  135.8450 C   0  0  0  0  0  0  0  0  0  0  0  0
  189.4840  171.9830  134.9610 C   0  0  0  0  0  3  0  0  0  0  0  0
  188.8850  172.7550  135.9560 C   0  0  0  0  0  0  0  0  0  0  0  0
  187.5000  172.5010  136.4310 C   0  0  0  0  0  2  0  0  0  0  0  0
  187.0950  173.5530  137.3510 N   0  0  0  0  0  2  0  0  0  0  0  0
  186.1090  174.3050  136.7000 N   0  0  0  0  0  2  0  0  0  0  0  0
  186.7190  177.7650  134.3910 N   0  0  0  0  0  1  0  0  0  0  0  0
  186.3300  176.7510  136.4910 C   0  0  0  0  0  0  0  0  0  0  0  0
  186.1190  175.5800  137.2790 N   0  0  0  0  0  2  0  0  0  0  0  0
  186.4950  176.6480  135.2060 N   0  0  0  0  0  0  0  0  0  0  0  0
  186.3900  178.0810  137.1770 C   0  0  0  0  0  2  0  0  0  0  0  0
  184.2720  178.6590  138.3160 C   0  0  0  0  0  2  0  0  0  0  0  0
  185.6290  178.0380  138.4930 C   0  0  2  0  0  3  0  0  0  0  0  0
  184.1510  179.4900  139.5520 C   0  0  0  0  0  2  0  0  0  0  0  0
  186.3050  178.7810  139.4720 O   0  0  0  0  0  0  0  0  0  0  0  0
  185.3440  179.2120  140.3370 N   0  0  0  0  0  2  0  0  0  0  0  0
  195.8750  174.9160  136.1140 C   0  0  0  0  0  2  0  0  0  0  0  0
  194.4880  175.7420  135.2870 S   0  0  0  0  0  0  0  0  0  0  0  0
  193.3910  174.3500  135.7170 C   0  0  1  0  0  3  0  0  0  0  0  0
  195.4170  173.5140  136.4630 C   0  0  2  0  0  3  0  0  0  0  0  0
  194.0040  173.5880  136.7950 N   0  0  0  0  0  2  0  0  0  0  0  0
  199.3410  171.6450  136.0140 O   0  0  0  0  0  1  0  0  0  0  0  0
  195.6820  171.5760  138.0900 C   0  0  0  0  0  2  0  0  0  0  0  0
  197.4560  170.3970  136.7720 C   0  0  0  0  0  2  0  0  0  0  0  0
  197.7160  172.8290  137.3020 C   0  0  0  0  0  2  0  0  0  0  0  0
  196.2220  172.9400  137.6350 C   0  0  1  0  0  3  0  0  0  0  0  0
  197.9720  171.7360  136.2620 C   0  0  1  0  0  3  0  0  0  0  0  0
  195.9600  170.4870  137.0510 C   0  0  0  0  0  2  0  0  0  0  0  0
  191.9600  175.2940  137.4820 O   0  0  0  0  0  0  0  0  0  0  0  0
  192.7120  176.3780  137.5580 O   0  0  0  0  0  0  0  0  0  0  0  0
  190.5660  177.2210  141.0280 C   0  0  2  0  0  3  0  0  0  0  0  0
  192.0430  177.2180  138.4530 C   0  0  1  0  0  3  0  0  0  0  0  0
  190.5880  176.7580  138.5780 C   0  0  0  0  0  2  0  0  0  0  0  0
  191.9980  177.7470  140.9950 C   0  0  0  0  0  2  0  0  0  0  0  0
  192.7240  177.2050  139.8010 C   0  0  0  0  0  0  0  0  0  0  0  0
  193.8930  176.8620  139.9100 O   0  0  0  0  0  0  0  0  0  0  0  0
  189.8670  177.5040  139.7000 C   0  0  0  0  0  2  0  0  0  0  0  0
  189.8680  177.8340  142.0710 O   0  0  0  0  0  0  0  0  0  0  0  0
  188.5970  177.5810  141.8270 O   0  0  0  0  0  0  0  0  0  0  0  0
  187.9860  176.9130  143.2650 P   0  0  1  0  0  0  0  0  0  0  0  0
  188.7550  177.6580  144.6560 N   0  0  0  0  0  2  0  0  0  0  0  0
  186.0600  178.5690  144.1710 C   0  0  0  0  0  2  0  0  0  0  0  0
  186.2130  177.2640  143.4000 C   0  0  0  0  0  2  0  0  0  0  0  0
  187.8190  177.5470  145.7740 C   0  0  2  0  0  3  0  0  0  0  0  0
  186.5960  178.4730  145.6090 C   0  0  0  0  0  2  0  0  0  0  0  0
  188.2140  175.4190  143.2780 O   0  0  0  0  0  0  0  0  0  0  0  0
  187.4840  178.0270  148.2040 C   0  0  0  0  0  1  0  0  0  0  0  0
  188.5100  177.7950  147.1140 C   0  0  0  0  0  3  0  0  0  0  0  0
  189.4290  176.6500  147.5060 C   0  0  0  0  0  1  0  0  0  0  0  0
  1 32  1  1  0  0  0
  2  5  1  0  0  0  0
  2  4  1  0  0  0  0
  4  1  1  0  0  0  0
  4  3  2  0  0  0  0
  5  6  2  0  0  0  0
  6  7  1  0  0  0  0
  6  3  1  0  0  0  0
  7  8  1  0  0  0  0
  9 12  1  0  0  0  0
  9  8  1  0  0  0  0
 10 13  1  0  0  0  0
 11 14  1  0  0  0  0
 11 12  1  0  0  0  0
 13 11  2  0  0  0  0
 15 16  1  0  0  0  0
 15 17  1  0  0  0  0
 16 14  1  6  0  0  0
 16 18  1  0  0  0  0
 17 19  1  0  0  0  0
 18 19  1  0  0  0  0
 21 22  1  0  0  0  0
 21 20  1  0  0  0  0
 22  1  1  1  0  0  0
 22 24  1  0  0  0  0
 23 20  1  1  0  0  0
 23 24  1  0  0  0  0
 23 29  1  0  0  0  0
 27 31  1  0  0  0  0
 29 28  1  6  0  0  0
 29 26  1  0  0  0  0
 30 25  1  1  0  0  0
 30 27  1  0  0  0  0
 30 28  1  0  0  0  0
 31 26  1  0  0  0  0
 32 33  1  0  0  0  0
 34 41  1  1  0  0  0
 35 33  1  6  0  0  0
 35 36  1  0  0  0  0
 35 38  1  0  0  0  0
 36 40  1  0  0  0  0
 37 34  1  0  0  0  0
 38 39  2  0  0  0  0
 38 37  1  0  0  0  0
 40 34  1  0  0  0  0
 42 41  1  0  0  0  0
 42 43  1  0  0  0  0
 43 49  2  1  0  0  0
 43 46  1  0  0  0  0
 43 44  1  0  0  0  0
 44 47  1  0  0  0  0
 45 48  1  0  0  0  0
 46 45  1  0  0  0  0
 47 51  1  1  0  0  0
 48 47  1  0  0  0  0
 51 52  1  0  0  0  0
 51 50  1  0  0  0  0
M  END
>  <MODEL>
7

>  <REMARK>
 VINA RESULT:      -7.2      4.503      7.937
  Name = 
  16 active torsions:
  status: ('A' for Active; 'I' for Inactive)
    1  A    between atoms: O_1  and  O_26
    2  A    between atoms: O_1  and  C_41
    3  A    between atoms: C_3  and  N_8
    4  A    between atoms: C_3  and  C_49
    5  A    between atoms: C_4  and  O_37
    6  A    between atoms: C_6  and  C_22
    7  A    between atoms: C_6  and  C_28
    8  A    between atoms: N_8  and  N_14
    9  A    between atoms: P_13  and  O_21
   10  A    between atoms: N_14  and  N_36
   11  A    between atoms: C_16  and  O_26
   12  A    between atoms: C_18  and  C_41
   13  A    between atoms: O_21  and  O_37
   14  A    between atoms: C_24  and  C_41
   15  A    between atoms: C_25  and  C_40
   16  A    between atoms: C_29  and  C_45
                            x       y       z     vdW  Elec       q    Type
                         _______ _______ _______ _____ _____    ______ ____

>  <TORSDO>
F 16

$$$$
=
 OpenBabel10232409253D

 52 57  0  0  1  0  0  0  0  0999 V2000
  191.1230  175.6540  136.7600 C   0  0  2  0  0  3  0  0  0  0  0  0
  188.9520  175.3980  134.9840 S   0  0  0  0  0  0  0  0  0  0  0  0
  189.3920  173.7440  136.8010 C   0  0  0  0  0  3  0  0  0  0  0  0
  189.9060  174.9200  136.2780 C   0  0  0  0  0  0  0  0  0  0  0  0
  187.8540  174.1240  135.0470 C   0  0  0  0  0  3  0  0  0  0  0  0
  188.2550  173.3110  136.1060 C   0  0  0  0  0  0  0  0  0  0  0  0
  187.5060  172.0870  136.4950 C   0  0  0  0  0  2  0  0  0  0  0  0
  186.0880  172.3900  136.5980 N   0  0  0  0  0  2  0  0  0  0  0  0
  185.9150  173.1340  137.7720 N   0  0  0  0  0  2  0  0  0  0  0  0
  185.4840  177.1920  136.7620 N   0  0  0  0  0  1  0  0  0  0  0  0
  184.5140  175.1180  137.3490 C   0  0  0  0  0  0  0  0  0  0  0  0
  184.6540  173.7380  137.6890 N   0  0  0  0  0  2  0  0  0  0  0  0
  185.5670  175.8320  137.0880 N   0  0  0  0  0  0  0  0  0  0  0  0
  183.1430  175.7220  137.3380 C   0  0  0  0  0  2  0  0  0  0  0  0
  181.8120  175.7940  139.4210 C   0  0  0  0  0  2  0  0  0  0  0  0
  182.8850  176.4860  138.6270 C   0  0  2  0  0  3  0  0  0  0  0  0
  180.9760  176.9450  139.8760 C   0  0  0  0  0  2  0  0  0  0  0  0
  182.4260  177.7800  138.3430 O   0  0  0  0  0  0  0  0  0  0  0  0
  181.6600  178.1430  139.4110 N   0  0  0  0  0  2  0  0  0  0  0  0
  194.9740  175.2540  136.7090 C   0  0  0  0  0  2  0  0  0  0  0  0
  193.6840  176.1630  135.8160 S   0  0  0  0  0  0  0  0  0  0  0  0
  192.4360  174.9560  136.3740 C   0  0  1  0  0  3  0  0  0  0  0  0
  194.3580  173.9540  137.1840 C   0  0  2  0  0  3  0  0  0  0  0  0
  192.9700  174.2250  137.5140 N   0  0  0  0  0  2  0  0  0  0  0  0
  198.2670  175.4030  138.4930 O   0  0  0  0  0  1  0  0  0  0  0  0
  195.7690  172.0410  138.0950 C   0  0  0  0  0  2  0  0  0  0  0  0
  197.9740  173.1680  137.7170 C   0  0  0  0  0  2  0  0  0  0  0  0
  196.1540  174.3830  138.9320 C   0  0  0  0  0  2  0  0  0  0  0  0
  195.1080  173.3940  138.4010 C   0  0  1  0  0  3  0  0  0  0  0  0
  197.3260  174.5260  137.9590 C   0  0  1  0  0  3  0  0  0  0  0  0
  196.9510  172.1980  137.1360 C   0  0  0  0  0  2  0  0  0  0  0  0
  191.0410  175.9630  138.1340 O   0  0  0  0  0  0  0  0  0  0  0  0
  190.9790  177.2800  138.2350 O   0  0  0  0  0  0  0  0  0  0  0  0
  190.9810  176.2680  142.2770 C   0  0  2  0  0  3  0  0  0  0  0  0
  190.7760  177.5260  139.5960 C   0  0  1  0  0  3  0  0  0  0  0  0
  189.7370  176.5380  140.1340 C   0  0  0  0  0  2  0  0  0  0  0  0
  192.0410  177.2810  141.8510 C   0  0  0  0  0  2  0  0  0  0  0  0
  192.0740  177.4010  140.3580 C   0  0  0  0  0  0  0  0  0  0  0  0
  193.1490  177.5070  139.7850 O   0  0  0  0  0  0  0  0  0  0  0  0
  189.6320  176.6200  141.6560 C   0  0  0  0  0  2  0  0  0  0  0  0
  190.8760  176.2620  143.6700 O   0  0  0  0  0  0  0  0  0  0  0  0
  189.5840  176.1670  143.9140 O   0  0  0  0  0  0  0  0  0  0  0  0
  189.2010  177.5280  144.8550 P   0  0  1  0  0  0  0  0  0  0  0  0
  187.4600  177.6900  145.0120 N   0  0  0  0  0  2  0  0  0  0  0  0
  188.7660  176.6720  147.3750 C   0  0  0  0  0  2  0  0  0  0  0  0
  189.8570  177.3180  146.5330 C   0  0  0  0  0  2  0  0  0  0  0  0
  187.2070  178.4120  146.2580 C   0  0  2  0  0  3  0  0  0  0  0  0
  187.5150  177.5570  147.5050 C   0  0  0  0  0  2  0  0  0  0  0  0
  189.7890  178.7710  144.2280 O   0  0  0  0  0  0  0  0  0  0  0  0
  185.2380  179.1630  144.9130 C   0  0  0  0  0  1  0  0  0  0  0  0
  185.7800  178.9570  146.3130 C   0  0  0  0  0  3  0  0  0  0  0  0
  184.8490  178.0480  147.0980 C   0  0  0  0  0  1  0  0  0  0  0  0
  1 32  1  1  0  0  0
  2  5  1  0  0  0  0
  2  4  1  0  0  0  0
  4  1  1  0  0  0  0
  4  3  2  0  0  0  0
  5  6  2  0  0  0  0
  6  7  1  0  0  0  0
  6  3  1  0  0  0  0
  7  8  1  0  0  0  0
  8  9  1  0  0  0  0
 10 13  1  0  0  0  0
 11 12  1  0  0  0  0
 12  9  1  0  0  0  0
 13 11  2  0  0  0  0
 14 11  1  0  0  0  0
 15 17  1  0  0  0  0
 16 14  1  6  0  0  0
 16 15  1  0  0  0  0
 18 16  1  0  0  0  0
 18 19  1  0  0  0  0
 19 17  1  0  0  0  0
 21 22  1  0  0  0  0
 21 20  1  0  0  0  0
 22  1  1  1  0  0  0
 22 24  1  0  0  0  0
 23 20  1  1  0  0  0
 23 24  1  0  0  0  0
 23 29  1  0  0  0  0
 27 30  1  0  0  0  0
 29 26  1  6  0  0  0
 29 28  1  0  0  0  0
 30 25  1  1  0  0  0
 30 28  1  0  0  0  0
 31 27  1  0  0  0  0
 31 26  1  0  0  0  0
 32 33  1  0  0  0  0
 34 41  1  1  0  0  0
 35 33  1  6  0  0  0
 35 36  1  0  0  0  0
 35 38  1  0  0  0  0
 36 40  1  0  0  0  0
 37 34  1  0  0  0  0
 38 37  1  0  0  0  0
 39 38  2  0  0  0  0
 40 34  1  0  0  0  0
 41 42  1  0  0  0  0
 42 43  1  0  0  0  0
 43 49  2  6  0  0  0
 43 44  1  0  0  0  0
 43 46  1  0  0  0  0
 44 47  1  0  0  0  0
 45 48  1  0  0  0  0
 46 45  1  0  0  0  0
 47 51  1  1  0  0  0
 47 48  1  0  0  0  0
 50 51  1  0  0  0  0
 51 52  1  0  0  0  0
M  END
>  <MODEL>
8

>  <REMARK>
 VINA RESULT:      -7.0      3.867      7.086
  Name = 
  16 active torsions:
  status: ('A' for Active; 'I' for Inactive)
    1  A    between atoms: O_1  and  O_26
    2  A    between atoms: O_1  and  C_41
    3  A    between atoms: C_3  and  N_8
    4  A    between atoms: C_3  and  C_49
    5  A    between atoms: C_4  and  O_37
    6  A    between atoms: C_6  and  C_22
    7  A    between atoms: C_6  and  C_28
    8  A    between atoms: N_8  and  N_14
    9  A    between atoms: P_13  and  O_21
   10  A    between atoms: N_14  and  N_36
   11  A    between atoms: C_16  and  O_26
   12  A    between atoms: C_18  and  C_41
   13  A    between atoms: O_21  and  O_37
   14  A    between atoms: C_24  and  C_41
   15  A    between atoms: C_25  and  C_40
   16  A    between atoms: C_29  and  C_45
                            x       y       z     vdW  Elec       q    Type
                         _______ _______ _______ _____ _____    ______ ____

>  <TORSDO>
F 16

$$$$
=
 OpenBabel10232409253D

 52 57  0  0  1  0  0  0  0  0999 V2000
  190.4540  176.7300  137.8280 C   0  0  2  0  0  3  0  0  0  0  0  0
  191.3560  174.2000  136.9830 S   0  0  0  0  0  0  0  0  0  0  0  0
  192.8790  175.8770  138.0330 C   0  0  0  0  0  3  0  0  0  0  0  0
  191.5510  175.7190  137.6660 C   0  0  0  0  0  0  0  0  0  0  0  0
  192.9550  173.6940  137.1310 C   0  0  0  0  0  3  0  0  0  0  0  0
  193.6480  174.7470  137.7260 C   0  0  0  0  0  0  0  0  0  0  0  0
  195.0970  174.6630  138.0470 C   0  0  0  0  0  2  0  0  0  0  0  0
  195.3560  173.4760  138.8460 N   0  0  0  0  0  2  0  0  0  0  0  0
  196.2160  172.6620  138.0970 N   0  0  0  0  0  2  0  0  0  0  0  0
  198.4460  169.3700  136.7320 N   0  0  0  0  0  1  0  0  0  0  0  0
  196.4840  170.2400  137.7210 C   0  0  0  0  0  0  0  0  0  0  0  0
  195.7240  171.3540  138.1890 N   0  0  0  0  0  2  0  0  0  0  0  0
  197.6670  170.4280  137.2170 N   0  0  0  0  0  0  0  0  0  0  0  0
  195.8770  168.8730  137.7910 C   0  0  0  0  0  2  0  0  0  0  0  0
  195.2450  168.7520  135.4030 C   0  0  0  0  0  2  0  0  0  0  0  0
  194.7200  168.7510  136.8110 C   0  0  2  0  0  3  0  0  0  0  0  0
  194.2770  169.6580  134.7150 C   0  0  0  0  0  2  0  0  0  0  0  0
  193.8570  169.8490  136.9370 O   0  0  0  0  0  0  0  0  0  0  0  0
  193.2760  170.0030  135.7130 N   0  0  0  0  0  2  0  0  0  0  0  0
  188.8110  177.8260  141.1580 C   0  0  0  0  0  2  0  0  0  0  0  0
  188.9560  178.4130  139.4490 S   0  0  0  0  0  0  0  0  0  0  0  0
  190.4470  177.3900  139.2150 C   0  0  1  0  0  3  0  0  0  0  0  0
  190.0740  177.0490  141.4730 C   0  0  2  0  0  3  0  0  0  0  0  0
  190.4840  176.3720  140.2550 N   0  0  0  0  0  2  0  0  0  0  0  0
  188.0460  178.0390  145.2160 O   0  0  0  0  0  1  0  0  0  0  0  0
  191.1160  175.7880  143.4220 C   0  0  0  0  0  2  0  0  0  0  0  0
  190.3400  177.3880  145.1870 C   0  0  0  0  0  2  0  0  0  0  0  0
  188.6980  176.4760  143.5330 C   0  0  0  0  0  2  0  0  0  0  0  0
  189.8400  176.0400  142.6050 C   0  0  1  0  0  3  0  0  0  0  0  0
  189.0950  177.6970  144.3640 C   0  0  1  0  0  3  0  0  0  0  0  0
  191.4940  177.0090  144.2640 C   0  0  0  0  0  2  0  0  0  0  0  0
  189.1980  176.2080  137.4540 O   0  0  0  0  0  0  0  0  0  0  0  0
  188.9500  176.6270  136.2250 O   0  0  0  0  0  0  0  0  0  0  0  0
  184.9730  176.0970  137.3460 C   0  0  2  0  0  3  0  0  0  0  0  0
  187.6100  176.3030  135.9990 C   0  0  1  0  0  3  0  0  0  0  0  0
  187.2220  175.1220  136.8930 C   0  0  0  0  0  2  0  0  0  0  0  0
  185.2460  177.2890  136.4320 C   0  0  0  0  0  2  0  0  0  0  0  0
  186.7220  177.4940  136.2740 C   0  0  0  0  0  0  0  0  0  0  0  0
  187.1750  178.6300  136.2600 O   0  0  0  0  0  0  0  0  0  0  0  0
  185.7170  174.8620  136.8430 C   0  0  0  0  0  2  0  0  0  0  0  0
  183.6000  175.8420  137.3810 O   0  0  0  0  0  0  0  0  0  0  0  0
  183.1880  176.3430  138.5290 O   0  0  0  0  0  0  0  0  0  0  0  0
  181.7000  177.0880  138.1870 P   0  0  1  0  0  0  0  0  0  0  0  0
  181.8760  178.8350  138.2070 N   0  0  0  0  0  2  0  0  0  0  0  0
  181.6880  177.7000  135.5610 C   0  0  0  0  0  2  0  0  0  0  0  0
  181.1580  176.6390  136.5160 C   0  0  0  0  0  2  0  0  0  0  0  0
  180.8350  179.3810  137.3370 C   0  0  2  0  0  3  0  0  0  0  0  0
  181.1080  179.0960  135.8460 C   0  0  0  0  0  2  0  0  0  0  0  0
  180.6620  176.6540  139.1960 O   0  0  0  0  0  0  0  0  0  0  0  0
  181.7220  181.4240  138.4720 C   0  0  0  0  0  1  0  0  0  0  0  0
  180.6300  180.8760  137.5750 C   0  0  0  0  0  3  0  0  0  0  0  0
  180.5860  181.6630  136.2760 C   0  0  0  0  0  1  0  0  0  0  0  0
  1 32  1  1  0  0  0
  2  5  1  0  0  0  0
  2  4  1  0  0  0  0
  4  1  1  0  0  0  0
  4  3  2  0  0  0  0
  5  6  2  0  0  0  0
  6  3  1  0  0  0  0
  6  7  1  0  0  0  0
  7  8  1  0  0  0  0
  9 12  1  0  0  0  0
  9  8  1  0  0  0  0
 10 13  1  0  0  0  0
 11 14  1  0  0  0  0
 11 12  1  0  0  0  0
 13 11  2  0  0  0  0
 15 16  1  0  0  0  0
 16 18  1  0  0  0  0
 16 14  1  1  0  0  0
 17 15  1  0  0  0  0
 17 19  1  0  0  0  0
 19 18  1  0  0  0  0
 21 20  1  0  0  0  0
 22  1  1  6  0  0  0
 22 21  1  0  0  0  0
 22 24  1  0  0  0  0
 23 20  1  6  0  0  0
 23 29  1  0  0  0  0
 24 23  1  0  0  0  0
 26 31  1  0  0  0  0
 28 30  1  0  0  0  0
 29 26  1  1  0  0  0
 29 28  1  0  0  0  0
 30 27  1  0  0  0  0
 30 25  1  1  0  0  0
 31 27  1  0  0  0  0
 33 32  1  0  0  0  0
 34 41  1  6  0  0  0
 35 33  1  1  0  0  0
 35 38  1  0  0  0  0
 35 36  1  0  0  0  0
 37 34  1  0  0  0  0
 38 37  1  0  0  0  0
 39 38  2  0  0  0  0
 40 36  1  0  0  0  0
 40 34  1  0  0  0  0
 41 42  1  0  0  0  0
 43 44  1  0  0  0  0
 43 42  1  0  0  0  0
 43 49  2  1  0  0  0
 45 48  1  0  0  0  0
 45 46  1  0  0  0  0
 46 43  1  0  0  0  0
 47 51  1  6  0  0  0
 47 44  1  0  0  0  0
 48 47  1  0  0  0  0
 51 50  1  0  0  0  0
 52 51  1  0  0  0  0
M  END
>  <MODEL>
9

>  <REMARK>
 VINA RESULT:      -6.8      5.408     10.512
  Name = 
  16 active torsions:
  status: ('A' for Active; 'I' for Inactive)
    1  A    between atoms: O_1  and  O_26
    2  A    between atoms: O_1  and  C_41
    3  A    between atoms: C_3  and  N_8
    4  A    between atoms: C_3  and  C_49
    5  A    between atoms: C_4  and  O_37
    6  A    between atoms: C_6  and  C_22
    7  A    between atoms: C_6  and  C_28
    8  A    between atoms: N_8  and  N_14
    9  A    between atoms: P_13  and  O_21
   10  A    between atoms: N_14  and  N_36
   11  A    between atoms: C_16  and  O_26
   12  A    between atoms: C_18  and  C_41
   13  A    between atoms: O_21  and  O_37
   14  A    between atoms: C_24  and  C_41
   15  A    between atoms: C_25  and  C_40
   16  A    between atoms: C_29  and  C_45
                            x       y       z     vdW  Elec       q    Type
                         _______ _______ _______ _____ _____    ______ ____

>  <TORSDO>
F 16

$$$$
