=
 OpenBabel10232411223D

 37 41  0  0  1  0  0  0  0  0999 V2000
  189.1250  177.5480  141.6260 C   0  0  0  0  0  0  0  0  0  0  0  0
  193.0510  176.9290  139.0540 N   0  0  0  0  0  2  0  0  0  0  0  0
  191.4310  177.0380  141.8950 C   0  0  0  0  0  3  0  0  0  0  0  0
  190.1590  177.2620  142.6960 C   0  0  0  0  0  2  0  0  0  0  0  0
  191.0620  177.0930  140.6330 C   0  0  0  0  0  0  0  0  0  0  0  0
  190.7910  177.4490  138.4120 N   0  0  0  0  0  0  0  0  0  0  0  0
  189.7170  177.3900  140.4620 C   0  0  0  0  0  0  0  0  0  0  0  0
  189.4550  177.6630  139.0190 C   0  0  2  0  0  3  0  0  0  0  0  0
  191.6660  177.1430  139.3260 C   0  0  0  0  0  0  0  0  0  0  0  0
  184.2380  176.8290  136.9200 C   0  0  0  0  0  2  0  0  0  0  0  0
  188.4430  176.7460  138.4750 N   0  0  1  0  0  0  0  0  0  0  0  0
  185.4280  177.4100  136.1630 C   0  0  0  0  0  2  0  0  0  0  0  0
  186.7130  175.3080  136.9000 C   0  0  0  0  0  0  0  0  0  0  0  0
  184.2720  175.3280  136.8670 C   0  0  0  0  0  0  0  0  0  0  0  0
  187.4510  177.5580  137.7400 C   0  0  0  0  0  2  0  0  0  0  0  0
  183.1570  174.6060  136.8190 C   0  0  0  0  0  3  0  0  0  0  0  0
  187.9950  174.6380  137.2810 C   0  0  0  0  0  2  0  0  0  0  0  0
  189.0460  175.6960  137.6280 C   0  0  0  0  0  2  0  0  0  0  0  0
  186.7600  176.7890  136.6040 C   0  0  2  0  0  3  0  0  0  0  0  0
  185.5630  174.6420  137.0130 C   0  0  0  0  0  3  0  0  0  0  0  0
  180.0150  176.1540  137.7690 O   0  0  0  0  0  0  0  0  0  0  0  0
  181.6540  175.3450  139.1980 N   0  0  0  0  0  1  0  0  0  0  0  0
  181.1340  175.5920  137.8970 C   0  0  0  0  0  0  0  0  0  0  0  0
  181.8710  175.2190  136.7330 N   0  0  0  0  0  2  0  0  0  0  0  0
  185.8140  179.1490  141.0500 C   0  0  0  0  0  3  0  0  0  0  0  0
  187.7440  178.0130  141.8470 C   0  0  0  0  0  0  0  0  0  0  0  0
  187.0860  178.7030  140.8750 N   0  0  0  0  0  0  0  0  0  0  0  0
  187.1020  177.7470  143.0610 C   0  0  0  0  0  3  0  0  0  0  0  0
  185.1470  178.9060  142.2510 C   0  0  0  0  0  3  0  0  0  0  0  0
  185.7960  178.1980  143.2730 C   0  0  0  0  0  0  0  0  0  0  0  0
  185.1840  177.9130  144.5040 O   0  0  0  0  0  0  0  0  0  0  0  0
  184.7390  178.8550  145.4400 C   0  0  0  0  0  0  0  0  0  0  0  0
  185.6080  179.4530  146.3450 O   0  0  0  0  0  1  0  0  0  0  0  0
  183.5170  179.1540  145.4750 O   0  0  0  0  0  0  0  0  0  0  0  0
  193.5340  176.9930  137.7890 O   0  0  0  0  0  0  0  0  0  0  0  0
  193.6850  175.6650  137.3920 C   0  0  0  0  0  2  0  0  0  0  0  0
  192.8410  175.4040  136.1620 C   0  0  0  0  0  1  0  0  0  0  0  0
  1 26  1  0  0  0  0
  1  4  1  0  0  0  0
  2  9  1  0  0  0  0
  3  4  1  0  0  0  0
  5  3  2  0  0  0  0
  6  9  2  0  0  0  0
  7  5  1  0  0  0  0
  7  1  2  0  0  0  0
  8  6  1  6  0  0  0
  8  7  1  0  0  0  0
  9  5  1  0  0  0  0
 11 18  1  6  0  0  0
 11  8  1  0  0  0  0
 12 10  1  0  0  0  0
 13 20  2  0  0  0  0
 13 17  1  0  0  0  0
 14 10  1  0  0  0  0
 14 20  1  0  0  0  0
 15 11  1  0  0  0  0
 16 14  2  0  0  0  0
 17 18  1  0  0  0  0
 19 12  1  1  0  0  0
 19 13  1  0  0  0  0
 19 15  1  0  0  0  0
 21 23  2  0  0  0  0
 23 22  1  0  0  0  0
 24 16  1  0  0  0  0
 24 23  1  0  0  0  0
 25 29  1  0  0  0  0
 26 28  2  0  0  0  0
 27 25  2  0  0  0  0
 27 26  1  0  0  0  0
 28 30  1  0  0  0  0
 29 30  2  0  0  0  0
 30 31  1  0  0  0  0
 31 32  1  0  0  0  0
 32 34  2  0  0  0  0
 32 33  1  0  0  0  0
 35  2  1  0  0  0  0
 36 35  1  0  0  0  0
 37 36  1  0  0  0  0
M  END
>  <MODEL>
1

>  <REMARK>
 VINA RESULT:      -7.7      0.000      0.000
  Name = 
  7 active torsions:
  status: ('A' for Active; 'I' for Inactive)
    1  A    between atoms: C_1  and  C_13
    2  A    between atoms: N_4  and  C_36
    3  A    between atoms: C_8  and  O_21
    4  A    between atoms: O_9  and  C_22
    5  A    between atoms: O_9  and  C_33
    6  A    between atoms: N_12  and  O_21
    7  A    between atoms: C_20  and  N_25
                            x       y       z     vdW  Elec       q    Type
                         _______ _______ _______ _____ _____    ______ ____

>  <TORSDO>
F 7

$$$$
=
 OpenBabel10232411223D

 37 41  0  0  1  0  0  0  0  0999 V2000
  189.4630  175.5160  137.1380 C   0  0  0  0  0  0  0  0  0  0  0  0
  185.5470  178.1080  137.7410 N   0  0  0  0  0  2  0  0  0  0  0  0
  187.1080  175.3760  136.8410 C   0  0  0  0  0  3  0  0  0  0  0  0
  188.3840  174.5750  136.6390 C   0  0  0  0  0  3  0  0  0  0  0  0
  187.4840  176.4840  137.4430 C   0  0  0  0  0  0  0  0  0  0  0  0
  187.8620  178.5940  138.1790 N   0  0  0  0  0  0  0  0  0  0  0  0
  188.8570  176.5780  137.6230 C   0  0  2  0  0  3  0  0  0  0  0  0
  189.1970  177.9540  138.0890 C   0  0  2  0  0  3  0  0  0  0  0  0
  186.9300  177.7630  137.8090 C   0  0  0  0  0  0  0  0  0  0  0  0
  188.9860  177.3070  143.7330 C   0  0  0  0  0  2  0  0  0  0  0  0
  189.8900  177.9250  139.3850 N   0  0  1  0  0  0  0  0  0  0  0  0
  188.9610  176.1850  142.6980 C   0  0  0  0  0  2  0  0  0  0  0  0
  191.1060  177.2360  141.7480 C   0  0  0  0  0  0  0  0  0  0  0  0
  190.4040  177.6970  144.0400 C   0  0  0  0  0  0  0  0  0  0  0  0
  189.0260  177.2000  140.3390 C   0  0  0  0  0  2  0  0  0  0  0  0
  190.7700  178.0940  145.2550 C   0  0  0  0  0  3  0  0  0  0  0  0
  192.0030  177.5300  140.5870 C   0  0  0  0  0  2  0  0  0  0  0  0
  191.2360  177.3240  139.2790 C   0  0  0  0  0  2  0  0  0  0  0  0
  189.8120  176.5100  141.4640 C   0  0  2  0  0  3  0  0  0  0  0  0
  191.3730  177.7740  142.9400 C   0  0  0  0  0  3  0  0  0  0  0  0
  189.1760  177.2430  148.4020 O   0  0  0  0  0  0  0  0  0  0  0  0
  191.0440  176.2290  147.4710 N   0  0  0  0  0  1  0  0  0  0  0  0
  189.9910  177.1870  147.4450 C   0  0  0  0  0  0  0  0  0  0  0  0
  189.8560  178.0930  146.3510 N   0  0  0  0  0  2  0  0  0  0  0  0
  192.9150  174.2690  137.7560 C   0  0  0  0  0  3  0  0  0  0  0  0
  190.9180  175.3220  137.0120 C   0  0  0  0  0  0  0  0  0  0  0  0
  191.5730  174.4670  137.8450 N   0  0  0  0  0  0  0  0  0  0  0  0
  191.6350  176.0180  136.0320 C   0  0  0  0  0  3  0  0  0  0  0  0
  193.6600  174.9520  136.7940 C   0  0  0  0  0  3  0  0  0  0  0  0
  193.0160  175.8400  135.9200 C   0  0  0  0  0  0  0  0  0  0  0  0
  193.7030  176.5540  134.9260 O   0  0  0  0  0  0  0  0  0  0  0  0
  195.0470  176.9460  134.9730 C   0  0  0  0  0  0  0  0  0  0  0  0
  195.4330  178.1760  135.4910 O   0  0  0  0  0  1  0  0  0  0  0  0
  195.9260  176.1690  134.5150 O   0  0  0  0  0  0  0  0  0  0  0  0
  185.1130  179.3380  138.1080 O   0  0  0  0  0  0  0  0  0  0  0  0
  184.3860  179.1300  139.2800 C   0  0  0  0  0  2  0  0  0  0  0  0
  182.9460  179.5440  139.0640 C   0  0  0  0  0  1  0  0  0  0  0  0
  2  9  1  0  0  0  0
  2 35  1  0  0  0  0
  3  5  2  0  0  0  0
  4  3  1  0  0  0  0
  4  1  2  0  0  0  0
  5  7  1  0  0  0  0
  5  9  1  0  0  0  0
  7  1  1  6  0  0  0
  7  8  1  0  0  0  0
  8  6  1  1  0  0  0
  8 11  1  0  0  0  0
  9  6  2  0  0  0  0
 10 14  1  0  0  0  0
 11 18  1  6  0  0  0
 11 15  1  0  0  0  0
 12 10  1  0  0  0  0
 13 20  2  0  0  0  0
 14 16  2  0  0  0  0
 16 24  1  0  0  0  0
 17 13  1  0  0  0  0
 18 17  1  0  0  0  0
 19 15  1  6  0  0  0
 19 13  1  0  0  0  0
 19 12  1  0  0  0  0
 20 14  1  0  0  0  0
 23 22  1  0  0  0  0
 23 21  2  0  0  0  0
 24 23  1  0  0  0  0
 25 27  1  0  0  0  0
 26  1  1  0  0  0  0
 26 27  2  0  0  0  0
 28 26  1  0  0  0  0
 29 25  2  0  0  0  0
 30 28  2  0  0  0  0
 30 29  1  0  0  0  0
 31 32  1  0  0  0  0
 31 30  1  0  0  0  0
 32 33  1  0  0  0  0
 34 32  2  0  0  0  0
 35 36  1  0  0  0  0
 37 36  1  0  0  0  0
M  END
>  <MODEL>
2

>  <REMARK>
 VINA RESULT:      -7.5      3.046      9.271
  Name = 
  7 active torsions:
  status: ('A' for Active; 'I' for Inactive)
    1  A    between atoms: C_1  and  C_13
    2  A    between atoms: N_4  and  C_36
    3  A    between atoms: C_8  and  O_21
    4  A    between atoms: O_9  and  C_22
    5  A    between atoms: O_9  and  C_33
    6  A    between atoms: N_12  and  O_21
    7  A    between atoms: C_20  and  N_25
                            x       y       z     vdW  Elec       q    Type
                         _______ _______ _______ _____ _____    ______ ____

>  <TORSDO>
F 7

$$$$
=
 OpenBabel10232411223D

 37 41  0  0  1  0  0  0  0  0999 V2000
  185.4980  178.2530  142.1330 C   0  0  0  0  0  0  0  0  0  0  0  0
  189.6910  178.1940  144.3300 N   0  0  0  0  0  2  0  0  0  0  0  0
  186.4280  177.9480  144.2990 C   0  0  0  0  0  3  0  0  0  0  0  0
  185.0950  177.9930  143.5710 C   0  0  0  0  0  2  0  0  0  0  0  0
  187.3430  178.0560  143.3590 C   0  0  0  0  0  0  0  0  0  0  0  0
  189.1070  178.5390  142.0220 N   0  0  0  0  0  0  0  0  0  0  0  0
  186.8130  178.2340  142.0890 C   0  0  0  0  0  0  0  0  0  0  0  0
  187.9130  178.5810  141.1440 C   0  0  2  0  0  3  0  0  0  0  0  0
  188.7650  178.2540  143.2460 C   0  0  0  0  0  0  0  0  0  0  0  0
  185.7940  176.4830  136.3040 C   0  0  0  0  0  2  0  0  0  0  0  0
  187.9980  177.6120  140.0420 N   0  0  1  0  0  0  0  0  0  0  0  0
  186.6130  177.7620  136.4450 C   0  0  0  0  0  2  0  0  0  0  0  0
  188.3620  176.3130  137.6500 C   0  0  0  0  0  0  0  0  0  0  0  0
  186.7040  175.2960  136.1750 C   0  0  0  0  0  0  0  0  0  0  0  0
  187.1890  178.1350  138.9210 C   0  0  0  0  0  2  0  0  0  0  0  0
  186.3820  174.2480  135.4230 C   0  0  0  0  0  3  0  0  0  0  0  0
  189.4470  176.1680  138.6690 C   0  0  0  0  0  2  0  0  0  0  0  0
  189.3970  177.3460  139.6460 C   0  0  0  0  0  2  0  0  0  0  0  0
  187.6760  177.6550  137.5460 C   0  0  2  0  0  3  0  0  0  0  0  0
  187.9110  175.2330  137.0100 C   0  0  0  0  0  3  0  0  0  0  0  0
  182.9780  173.5930  134.3480 O   0  0  0  0  0  0  0  0  0  0  0  0
  183.9820  172.8610  136.3070 N   0  0  0  0  0  1  0  0  0  0  0  0
  184.0110  173.5580  135.0670 C   0  0  0  0  0  0  0  0  0  0  0  0
  185.1930  174.2290  134.6330 N   0  0  0  0  0  2  0  0  0  0  0  0
  184.0410  179.9320  139.1470 C   0  0  0  0  0  3  0  0  0  0  0  0
  184.5920  178.5670  141.0150 C   0  0  0  0  0  0  0  0  0  0  0  0
  184.8590  179.6130  140.1850 N   0  0  0  0  0  0  0  0  0  0  0  0
  183.4480  177.7910  140.8010 C   0  0  0  0  0  3  0  0  0  0  0  0
  182.8890  179.1810  138.9100 C   0  0  0  0  0  3  0  0  0  0  0  0
  182.5840  178.0970  139.7460 C   0  0  0  0  0  0  0  0  0  0  0  0
  181.4460  177.2960  139.5620 O   0  0  0  0  0  0  0  0  0  0  0  0
  181.4400  175.9120  139.3400 C   0  0  0  0  0  0  0  0  0  0  0  0
  180.5440  175.0710  139.9900 O   0  0  0  0  0  1  0  0  0  0  0  0
  182.2810  175.4170  138.5460 O   0  0  0  0  0  0  0  0  0  0  0  0
  191.0170  178.3920  144.1310 O   0  0  0  0  0  0  0  0  0  0  0  0
  191.6280  177.2190  144.5740 C   0  0  0  0  0  2  0  0  0  0  0  0
  191.0990  176.8580  145.9450 C   0  0  0  0  0  1  0  0  0  0  0  0
  1  4  1  0  0  0  0
  4  3  1  0  0  0  0
  5  3  2  0  0  0  0
  6  9  2  0  0  0  0
  7  1  2  0  0  0  0
  7  5  1  0  0  0  0
  8  6  1  1  0  0  0
  8  7  1  0  0  0  0
  9  5  1  0  0  0  0
  9  2  1  0  0  0  0
 10 12  1  0  0  0  0
 11 15  1  6  0  0  0
 11  8  1  0  0  0  0
 13 17  1  0  0  0  0
 14 10  1  0  0  0  0
 14 20  1  0  0  0  0
 16 14  2  0  0  0  0
 17 18  1  0  0  0  0
 18 11  1  0  0  0  0
 19 12  1  6  0  0  0
 19 13  1  0  0  0  0
 19 15  1  0  0  0  0
 20 13  2  0  0  0  0
 21 23  2  0  0  0  0
 23 22  1  0  0  0  0
 24 23  1  0  0  0  0
 24 16  1  0  0  0  0
 25 27  1  0  0  0  0
 26  1  1  0  0  0  0
 27 26  2  0  0  0  0
 28 26  1  0  0  0  0
 29 25  2  0  0  0  0
 29 30  1  0  0  0  0
 30 28  2  0  0  0  0
 31 30  1  0  0  0  0
 32 31  1  0  0  0  0
 32 33  1  0  0  0  0
 34 32  2  0  0  0  0
 35  2  1  0  0  0  0
 35 36  1  0  0  0  0
 36 37  1  0  0  0  0
M  END
>  <MODEL>
3

>  <REMARK>
 VINA RESULT:      -7.4      2.994      4.847
  Name = 
  7 active torsions:
  status: ('A' for Active; 'I' for Inactive)
    1  A    between atoms: C_1  and  C_13
    2  A    between atoms: N_4  and  C_36
    3  A    between atoms: C_8  and  O_21
    4  A    between atoms: O_9  and  C_22
    5  A    between atoms: O_9  and  C_33
    6  A    between atoms: N_12  and  O_21
    7  A    between atoms: C_20  and  N_25
                            x       y       z     vdW  Elec       q    Type
                         _______ _______ _______ _____ _____    ______ ____

>  <TORSDO>
F 7

$$$$
=
 OpenBabel10232411223D

 37 41  0  0  1  0  0  0  0  0999 V2000
  183.8100  176.3980  137.1880 C   0  0  0  0  0  0  0  0  0  0  0  0
  180.2660  179.4330  137.9860 N   0  0  0  0  0  2  0  0  0  0  0  0
  181.4930  176.6690  136.7340 C   0  0  0  0  0  3  0  0  0  0  0  0
  182.6550  175.7240  136.4760 C   0  0  0  0  0  3  0  0  0  0  0  0
  181.9710  177.5980  137.5340 C   0  0  0  0  0  0  0  0  0  0  0  0
  182.5820  179.4820  138.6340 N   0  0  0  0  0  0  0  0  0  0  0  0
  183.3240  177.4500  137.8080 C   0  0  2  0  0  3  0  0  0  0  0  0
  183.8160  178.6670  138.5160 C   0  0  2  0  0  3  0  0  0  0  0  0
  181.5760  178.8730  138.0760 C   0  0  0  0  0  0  0  0  0  0  0  0
  188.3880  177.6890  141.7500 C   0  0  0  0  0  2  0  0  0  0  0  0
  184.3880  178.3290  139.8280 N   0  0  1  0  0  0  0  0  0  0  0  0
  187.8700  179.0570  141.3170 C   0  0  0  0  0  2  0  0  0  0  0  0
  185.6050  178.3240  142.2890 C   0  0  0  0  0  0  0  0  0  0  0  0
  187.6730  177.2320  142.9890 C   0  0  0  0  0  0  0  0  0  0  0  0
  185.8040  178.7520  139.8210 C   0  0  0  0  0  2  0  0  0  0  0  0
  188.2850  176.5080  143.9200 C   0  0  0  0  0  3  0  0  0  0  0  0
  184.1100  178.3740  142.2750 C   0  0  0  0  0  2  0  0  0  0  0  0
  183.6260  178.9390  140.9370 C   0  0  0  0  0  2  0  0  0  0  0  0
  186.3390  179.0970  141.2180 C   0  0  2  0  0  3  0  0  0  0  0  0
  186.2280  177.4710  143.1040 C   0  0  0  0  0  3  0  0  0  0  0  0
  191.8240  176.3220  144.7070 O   0  0  0  0  0  0  0  0  0  0  0  0
  190.1890  177.4470  145.9100 N   0  0  0  0  0  1  0  0  0  0  0  0
  190.6120  176.6460  144.8120 C   0  0  0  0  0  0  0  0  0  0  0  0
  189.6750  176.1950  143.8340 N   0  0  0  0  0  2  0  0  0  0  0  0
  186.8890  174.3040  137.1980 C   0  0  0  0  0  3  0  0  0  0  0  0
  185.2290  176.0050  137.1160 C   0  0  0  0  0  0  0  0  0  0  0  0
  185.5890  174.6990  137.2550 N   0  0  0  0  0  0  0  0  0  0  0  0
  186.2150  176.9740  136.9040 C   0  0  0  0  0  3  0  0  0  0  0  0
  187.8960  175.2480  136.9940 C   0  0  0  0  0  3  0  0  0  0  0  0
  187.5600  176.6010  136.8460 C   0  0  0  0  0  0  0  0  0  0  0  0
  188.5210  177.6010  136.6320 O   0  0  0  0  0  0  0  0  0  0  0  0
  189.1150  178.3980  137.6200 C   0  0  0  0  0  0  0  0  0  0  0  0
  189.9460  177.8570  138.5940 O   0  0  0  0  0  1  0  0  0  0  0  0
  188.8720  179.6320  137.6370 O   0  0  0  0  0  0  0  0  0  0  0  0
  179.9820  180.6420  138.5280 O   0  0  0  0  0  0  0  0  0  0  0  0
  179.9820  181.5300  137.4520 C   0  0  0  0  0  2  0  0  0  0  0  0
  180.9440  182.6650  137.7320 C   0  0  0  0  0  1  0  0  0  0  0  0
  2  9  1  0  0  0  0
  2 35  1  0  0  0  0
  3  5  2  0  0  0  0
  4  3  1  0  0  0  0
  4  1  2  0  0  0  0
  5  7  1  0  0  0  0
  5  9  1  0  0  0  0
  7  1  1  6  0  0  0
  7  8  1  0  0  0  0
  8  6  1  1  0  0  0
  8 11  1  0  0  0  0
  9  6  2  0  0  0  0
 10 14  1  0  0  0  0
 11 15  1  6  0  0  0
 11 18  1  0  0  0  0
 12 10  1  0  0  0  0
 13 20  2  0  0  0  0
 14 20  1  0  0  0  0
 14 16  2  0  0  0  0
 17 13  1  0  0  0  0
 18 17  1  0  0  0  0
 19 15  1  6  0  0  0
 19 12  1  0  0  0  0
 19 13  1  0  0  0  0
 21 23  2  0  0  0  0
 23 22  1  0  0  0  0
 24 16  1  0  0  0  0
 24 23  1  0  0  0  0
 25 27  1  0  0  0  0
 26  1  1  0  0  0  0
 26 27  2  0  0  0  0
 28 26  1  0  0  0  0
 29 25  2  0  0  0  0
 30 28  2  0  0  0  0
 30 29  1  0  0  0  0
 31 30  1  0  0  0  0
 31 32  1  0  0  0  0
 32 34  2  0  0  0  0
 32 33  1  0  0  0  0
 36 37  1  0  0  0  0
 36 35  1  0  0  0  0
M  END
>  <MODEL>
4

>  <REMARK>
 VINA RESULT:      -7.3      3.437      8.991
  Name = 
  7 active torsions:
  status: ('A' for Active; 'I' for Inactive)
    1  A    between atoms: C_1  and  C_13
    2  A    between atoms: N_4  and  C_36
    3  A    between atoms: C_8  and  O_21
    4  A    between atoms: O_9  and  C_22
    5  A    between atoms: O_9  and  C_33
    6  A    between atoms: N_12  and  O_21
    7  A    between atoms: C_20  and  N_25
                            x       y       z     vdW  Elec       q    Type
                         _______ _______ _______ _____ _____    ______ ____

>  <TORSDO>
F 7

$$$$
=
 OpenBabel10232411223D

 37 41  0  0  1  0  0  0  0  0999 V2000
  189.8880  175.6290  137.1130 C   0  0  0  0  0  0  0  0  0  0  0  0
  185.7630  177.8920  137.6420 N   0  0  0  0  0  2  0  0  0  0  0  0
  187.5650  175.3230  136.7100 C   0  0  0  0  0  3  0  0  0  0  0  0
  188.9060  174.6300  136.5340 C   0  0  0  0  0  3  0  0  0  0  0  0
  187.8300  176.4330  137.3680 C   0  0  0  0  0  0  0  0  0  0  0  0
  188.0140  178.5330  138.1960 N   0  0  0  0  0  0  0  0  0  0  0  0
  189.1830  176.6220  137.6100 C   0  0  2  0  0  3  0  0  0  0  0  0
  189.3970  178.0000  138.1390 C   0  0  2  0  0  3  0  0  0  0  0  0
  187.1650  177.6500  137.7560 C   0  0  0  0  0  0  0  0  0  0  0  0
  188.9570  177.3900  143.7740 C   0  0  0  0  0  2  0  0  0  0  0  0
  190.0380  177.9730  139.4620 N   0  0  1  0  0  0  0  0  0  0  0  0
  188.9600  176.2620  142.7460 C   0  0  0  0  0  2  0  0  0  0  0  0
  191.1530  177.2850  141.8760 C   0  0  0  0  0  0  0  0  0  0  0  0
  190.3650  177.7670  144.1350 C   0  0  0  0  0  0  0  0  0  0  0  0
  189.1300  177.2620  140.3860 C   0  0  0  0  0  2  0  0  0  0  0  0
  190.6870  178.1680  145.3610 C   0  0  0  0  0  3  0  0  0  0  0  0
  192.0980  177.5630  140.7500 C   0  0  0  0  0  2  0  0  0  0  0  0
  191.3810  177.3570  139.4130 C   0  0  0  0  0  2  0  0  0  0  0  0
  189.8630  176.5710  141.5450 C   0  0  2  0  0  3  0  0  0  0  0  0
  191.3780  177.8280  143.0740 C   0  0  0  0  0  3  0  0  0  0  0  0
  188.8960  177.2800  148.3910 O   0  0  0  0  0  0  0  0  0  0  0  0
  190.7120  176.1650  147.4710 N   0  0  0  0  0  1  0  0  0  0  0  0
  189.7440  177.2090  147.4630 C   0  0  0  0  0  0  0  0  0  0  0  0
  189.7310  178.1830  146.4210 N   0  0  0  0  0  2  0  0  0  0  0  0
  193.4270  176.4930  136.3470 C   0  0  0  0  0  3  0  0  0  0  0  0
  191.3570  175.5510  137.0410 C   0  0  0  0  0  0  0  0  0  0  0  0
  192.0710  176.5380  136.4330 N   0  0  0  0  0  0  0  0  0  0  0  0
  192.0280  174.4580  137.6000 C   0  0  0  0  0  3  0  0  0  0  0  0
  194.1250  175.4140  136.8890 C   0  0  0  0  0  3  0  0  0  0  0  0
  193.4210  174.3800  137.5230 C   0  0  0  0  0  0  0  0  0  0  0  0
  194.0600  173.2690  138.0950 O   0  0  0  0  0  0  0  0  0  0  0  0
  195.4080  173.1970  138.4700 C   0  0  0  0  0  0  0  0  0  0  0  0
  196.3000  172.3410  137.8350 O   0  0  0  0  0  0  0  0  0  0  0  0
  195.8170  173.9140  139.4200 O   0  0  0  0  0  1  0  0  0  0  0  0
  185.2210  179.0700  138.0350 O   0  0  0  0  0  0  0  0  0  0  0  0
  184.3090  178.7320  139.0350 C   0  0  0  0  0  2  0  0  0  0  0  0
  184.8590  179.1500  140.3830 C   0  0  0  0  0  1  0  0  0  0  0  0
  2  9  1  0  0  0  0
  2 35  1  0  0  0  0
  3  5  2  0  0  0  0
  4  3  1  0  0  0  0
  4  1  2  0  0  0  0
  5  7  1  0  0  0  0
  5  9  1  0  0  0  0
  7  1  1  6  0  0  0
  7  8  1  0  0  0  0
  8  6  1  1  0  0  0
  8 11  1  0  0  0  0
  9  6  2  0  0  0  0
 10 14  1  0  0  0  0
 11 18  1  6  0  0  0
 11 15  1  0  0  0  0
 12 10  1  0  0  0  0
 13 20  2  0  0  0  0
 14 16  2  0  0  0  0
 16 24  1  0  0  0  0
 17 13  1  0  0  0  0
 18 17  1  0  0  0  0
 19 15  1  6  0  0  0
 19 13  1  0  0  0  0
 19 12  1  0  0  0  0
 20 14  1  0  0  0  0
 23 22  1  0  0  0  0
 23 21  2  0  0  0  0
 24 23  1  0  0  0  0
 25 27  2  0  0  0  0
 25 29  1  0  0  0  0
 26  1  1  0  0  0  0
 26 28  2  0  0  0  0
 27 26  1  0  0  0  0
 29 30  2  0  0  0  0
 30 28  1  0  0  0  0
 30 31  1  0  0  0  0
 31 32  1  0  0  0  0
 32 34  1  0  0  0  0
 33 32  2  0  0  0  0
 35 36  1  0  0  0  0
 36 37  1  0  0  0  0
M  END
>  <MODEL>
5

>  <REMARK>
 VINA RESULT:      -7.2      3.030      9.053
  Name = 
  7 active torsions:
  status: ('A' for Active; 'I' for Inactive)
    1  A    between atoms: C_1  and  C_13
    2  A    between atoms: N_4  and  C_36
    3  A    between atoms: C_8  and  O_21
    4  A    between atoms: O_9  and  C_22
    5  A    between atoms: O_9  and  C_33
    6  A    between atoms: N_12  and  O_21
    7  A    between atoms: C_20  and  N_25
                            x       y       z     vdW  Elec       q    Type
                         _______ _______ _______ _____ _____    ______ ____

>  <TORSDO>
F 7

$$$$
=
 OpenBabel10232411223D

 37 41  0  0  1  0  0  0  0  0999 V2000
  185.2910  177.6330  138.6880 C   0  0  0  0  0  0  0  0  0  0  0  0
  182.7120  178.8720  142.4590 N   0  0  0  0  0  2  0  0  0  0  0  0
  183.1490  177.2570  139.6460 C   0  0  0  0  0  3  0  0  0  0  0  0
  183.9920  176.8940  138.4360 C   0  0  0  0  0  3  0  0  0  0  0  0
  183.9400  177.9680  140.4220 C   0  0  0  0  0  0  0  0  0  0  0  0
  184.9470  179.4660  141.7920 N   0  0  0  0  0  0  0  0  0  0  0  0
  185.1950  178.1940  139.8730 C   0  0  2  0  0  3  0  0  0  0  0  0
  185.9210  179.1940  140.7080 C   0  0  2  0  0  3  0  0  0  0  0  0
  183.8540  178.7820  141.6080 C   0  0  0  0  0  0  0  0  0  0  0  0
  189.0640  177.4430  145.1100 C   0  0  0  0  0  2  0  0  0  0  0  0
  187.1860  178.6470  141.2210 N   0  0  1  0  0  0  0  0  0  0  0  0
  187.9480  176.6530  144.4330 C   0  0  0  0  0  2  0  0  0  0  0  0
  189.2050  177.0840  142.2310 C   0  0  0  0  0  0  0  0  0  0  0  0
  190.3590  177.2460  144.3760 C   0  0  0  0  0  0  0  0  0  0  0  0
  186.9180  178.0730  142.5550 C   0  0  0  0  0  2  0  0  0  0  0  0
  191.5250  177.2170  145.0140 C   0  0  0  0  0  3  0  0  0  0  0  0
  189.1920  177.2980  140.7500 C   0  0  0  0  0  2  0  0  0  0  0  0
  187.7770  177.6590  140.2940 C   0  0  0  0  0  2  0  0  0  0  0  0
  187.8720  176.9270  142.9250 C   0  0  2  0  0  3  0  0  0  0  0  0
  190.3470  177.2230  142.9070 C   0  0  0  0  0  3  0  0  0  0  0  0
  192.1950  176.3400  148.4710 O   0  0  0  0  0  0  0  0  0  0  0  0
  192.5650  175.0130  146.6030 N   0  0  0  0  0  1  0  0  0  0  0  0
  192.1210  176.2170  147.2200 C   0  0  0  0  0  0  0  0  0  0  0  0
  191.6030  177.2910  146.4370 N   0  0  0  0  0  2  0  0  0  0  0  0
  187.7540  179.1710  136.3580 C   0  0  0  0  0  3  0  0  0  0  0  0
  186.4100  177.7790  137.7410 C   0  0  0  0  0  0  0  0  0  0  0  0
  186.7300  179.0030  137.2360 N   0  0  0  0  0  0  0  0  0  0  0  0
  187.1520  176.6580  137.3540 C   0  0  0  0  0  3  0  0  0  0  0  0
  188.5090  178.0720  135.9480 C   0  0  0  0  0  3  0  0  0  0  0  0
  188.2070  176.7970  136.4480 C   0  0  0  0  0  0  0  0  0  0  0  0
  188.9280  175.6500  136.0830 O   0  0  0  0  0  0  0  0  0  0  0  0
  189.3720  174.6450  136.9520 C   0  0  0  0  0  0  0  0  0  0  0  0
  190.4290  174.8520  137.8300 O   0  0  0  0  0  1  0  0  0  0  0  0
  188.8100  173.5190  136.9230 O   0  0  0  0  0  0  0  0  0  0  0  0
  182.7200  179.6640  143.5590 O   0  0  0  0  0  0  0  0  0  0  0  0
  182.7780  178.7830  144.6390 C   0  0  0  0  0  2  0  0  0  0  0  0
  184.1700  178.8030  145.2350 C   0  0  0  0  0  1  0  0  0  0  0  0
  2 35  1  0  0  0  0
  3  5  2  0  0  0  0
  4  1  2  0  0  0  0
  4  3  1  0  0  0  0
  5  9  1  0  0  0  0
  7  1  1  6  0  0  0
  7  5  1  0  0  0  0
  7  8  1  0  0  0  0
  8 11  1  0  0  0  0
  8  6  1  1  0  0  0
  9  6  2  0  0  0  0
  9  2  1  0  0  0  0
 11 18  1  6  0  0  0
 11 15  1  0  0  0  0
 12 10  1  0  0  0  0
 13 20  2  0  0  0  0
 13 19  1  0  0  0  0
 14 16  2  0  0  0  0
 14 10  1  0  0  0  0
 16 24  1  0  0  0  0
 17 13  1  0  0  0  0
 18 17  1  0  0  0  0
 19 15  1  1  0  0  0
 19 12  1  0  0  0  0
 20 14  1  0  0  0  0
 22 23  1  0  0  0  0
 23 21  2  0  0  0  0
 24 23  1  0  0  0  0
 25 27  1  0  0  0  0
 26  1  1  0  0  0  0
 27 26  2  0  0  0  0
 28 26  1  0  0  0  0
 29 25  2  0  0  0  0
 29 30  1  0  0  0  0
 30 28  2  0  0  0  0
 31 30  1  0  0  0  0
 31 32  1  0  0  0  0
 32 33  1  0  0  0  0
 34 32  2  0  0  0  0
 35 36  1  0  0  0  0
 36 37  1  0  0  0  0
M  END
>  <MODEL>
6

>  <REMARK>
 VINA RESULT:      -7.1      3.233      9.153
  Name = 
  7 active torsions:
  status: ('A' for Active; 'I' for Inactive)
    1  A    between atoms: C_1  and  C_13
    2  A    between atoms: N_4  and  C_36
    3  A    between atoms: C_8  and  O_21
    4  A    between atoms: O_9  and  C_22
    5  A    between atoms: O_9  and  C_33
    6  A    between atoms: N_12  and  O_21
    7  A    between atoms: C_20  and  N_25
                            x       y       z     vdW  Elec       q    Type
                         _______ _______ _______ _____ _____    ______ ____

>  <TORSDO>
F 7

$$$$
=
 OpenBabel10232411223D

 37 41  0  0  1  0  0  0  0  0999 V2000
  189.2700  177.3290  146.1830 C   0  0  0  0  0  0  0  0  0  0  0  0
  185.2180  178.3360  143.9530 N   0  0  0  0  0  2  0  0  0  0  0  0
  187.2860  178.6060  146.4750 C   0  0  0  0  0  3  0  0  0  0  0  0
  188.5860  178.2480  147.1760 C   0  0  0  0  0  2  0  0  0  0  0  0
  187.3660  178.0460  145.2860 C   0  0  0  0  0  0  0  0  0  0  0  0
  187.0810  176.9500  143.3240 N   0  0  0  0  0  0  0  0  0  0  0  0
  188.5210  177.2980  145.1030 C   0  0  0  0  0  0  0  0  0  0  0  0
  188.4050  176.5210  143.8350 C   0  0  2  0  0  3  0  0  0  0  0  0
  186.5210  177.7880  144.1480 C   0  0  0  0  0  0  0  0  0  0  0  0
  190.6630  176.1620  138.6300 C   0  0  0  0  0  2  0  0  0  0  0  0
  189.4950  176.8500  142.9040 N   0  0  1  0  0  0  0  0  0  0  0  0
  189.5290  177.0900  139.0550 C   0  0  0  0  0  2  0  0  0  0  0  0
  191.1000  177.8820  140.9300 C   0  0  0  0  0  0  0  0  0  0  0  0
  191.9920  176.7930  138.9360 C   0  0  0  0  0  0  0  0  0  0  0  0
  188.9760  176.6820  141.5300 C   0  0  0  0  0  2  0  0  0  0  0  0
  193.0510  176.6010  138.1550 C   0  0  0  0  0  3  0  0  0  0  0  0
  191.3050  178.4120  142.3140 C   0  0  0  0  0  2  0  0  0  0  0  0
  190.0310  178.2060  143.1380 C   0  0  0  0  0  2  0  0  0  0  0  0
  189.6840  177.5760  140.5020 C   0  0  2  0  0  3  0  0  0  0  0  0
  192.1580  177.5230  140.1990 C   0  0  0  0  0  3  0  0  0  0  0  0
  193.9730  174.5620  135.2980 O   0  0  0  0  0  0  0  0  0  0  0  0
  195.3920  175.3610  136.9520 N   0  0  0  0  0  1  0  0  0  0  0  0
  194.1060  175.2350  136.3540 C   0  0  0  0  0  0  0  0  0  0  0  0
  192.9630  175.8530  136.9430 N   0  0  0  0  0  2  0  0  0  0  0  0
  192.1390  175.0250  145.6210 C   0  0  0  0  0  3  0  0  0  0  0  0
  190.4920  176.5410  146.4220 C   0  0  0  0  0  0  0  0  0  0  0  0
  191.0160  175.7670  145.4320 N   0  0  0  0  0  0  0  0  0  0  0  0
  191.1220  176.5850  147.6700 C   0  0  0  0  0  3  0  0  0  0  0  0
  192.7880  175.0420  146.8560 C   0  0  0  0  0  3  0  0  0  0  0  0
  192.2750  175.8300  147.8980 C   0  0  0  0  0  0  0  0  0  0  0  0
  192.8800  175.8990  149.1630 O   0  0  0  0  0  0  0  0  0  0  0  0
  193.4940  177.0270  149.7210 C   0  0  0  0  0  0  0  0  0  0  0  0
  192.8750  178.2720  149.7220 O   0  0  0  0  0  0  0  0  0  0  0  0
  194.6440  176.9140  150.2180 O   0  0  0  0  0  1  0  0  0  0  0  0
  184.4910  178.0390  142.8480 O   0  0  0  0  0  0  0  0  0  0  0  0
  183.3220  178.7890  142.9720 C   0  0  0  0  0  2  0  0  0  0  0  0
  183.0030  178.9910  144.4390 C   0  0  0  0  0  1  0  0  0  0  0  0
  1 26  1  0  0  0  0
  1  4  1  0  0  0  0
  2  9  1  0  0  0  0
  3  4  1  0  0  0  0
  5  3  2  0  0  0  0
  6  9  2  0  0  0  0
  7  5  1  0  0  0  0
  7  1  2  0  0  0  0
  8  6  1  6  0  0  0
  8  7  1  0  0  0  0
  9  5  1  0  0  0  0
 10 14  1  0  0  0  0
 10 12  1  0  0  0  0
 11 15  1  6  0  0  0
 11 18  1  0  0  0  0
 11  8  1  0  0  0  0
 13 17  1  0  0  0  0
 14 20  1  0  0  0  0
 16 14  2  0  0  0  0
 17 18  1  0  0  0  0
 19 12  1  6  0  0  0
 19 13  1  0  0  0  0
 19 15  1  0  0  0  0
 20 13  2  0  0  0  0
 21 23  2  0  0  0  0
 23 24  1  0  0  0  0
 23 22  1  0  0  0  0
 24 16  1  0  0  0  0
 25 29  1  0  0  0  0
 26 28  2  0  0  0  0
 27 25  2  0  0  0  0
 27 26  1  0  0  0  0
 28 30  1  0  0  0  0
 29 30  2  0  0  0  0
 30 31  1  0  0  0  0
 31 32  1  0  0  0  0
 32 33  2  0  0  0  0
 32 34  1  0  0  0  0
 35 36  1  0  0  0  0
 35  2  1  0  0  0  0
 36 37  1  0  0  0  0
M  END
>  <MODEL>
7

>  <REMARK>
 VINA RESULT:      -7.1      4.071      8.577
  Name = 
  7 active torsions:
  status: ('A' for Active; 'I' for Inactive)
    1  A    between atoms: C_1  and  C_13
    2  A    between atoms: N_4  and  C_36
    3  A    between atoms: C_8  and  O_21
    4  A    between atoms: O_9  and  C_22
    5  A    between atoms: O_9  and  C_33
    6  A    between atoms: N_12  and  O_21
    7  A    between atoms: C_20  and  N_25
                            x       y       z     vdW  Elec       q    Type
                         _______ _______ _______ _____ _____    ______ ____

>  <TORSDO>
F 7

$$$$
=
 OpenBabel10232411223D

 37 41  0  0  1  0  0  0  0  0999 V2000
  189.0650  177.6880  147.0220 C   0  0  0  0  0  0  0  0  0  0  0  0
  184.5720  178.7250  145.9520 N   0  0  0  0  0  2  0  0  0  0  0  0
  187.2350  178.9680  147.8380 C   0  0  0  0  0  3  0  0  0  0  0  0
  188.6730  178.6000  148.1670 C   0  0  0  0  0  2  0  0  0  0  0  0
  186.9950  178.4170  146.6660 C   0  0  0  0  0  0  0  0  0  0  0  0
  186.1950  177.3380  144.8420 N   0  0  0  0  0  0  0  0  0  0  0  0
  188.0560  177.6670  146.1790 C   0  0  0  0  0  0  0  0  0  0  0  0
  187.6050  176.9020  144.9810 C   0  0  2  0  0  3  0  0  0  0  0  0
  185.8770  178.1710  145.7910 C   0  0  0  0  0  0  0  0  0  0  0  0
  188.0540  177.3030  139.3280 C   0  0  0  0  0  2  0  0  0  0  0  0
  188.4110  177.2350  143.7970 N   0  0  1  0  0  0  0  0  0  0  0  0
  187.3460  178.2960  140.2460 C   0  0  0  0  0  2  0  0  0  0  0  0
  189.5450  178.3820  141.5760 C   0  0  0  0  0  0  0  0  0  0  0  0
  189.5210  177.6180  139.2580 C   0  0  0  0  0  0  0  0  0  0  0  0
  187.4810  177.4590  142.6710 C   0  0  0  0  0  2  0  0  0  0  0  0
  190.2230  177.4220  138.1460 C   0  0  0  0  0  3  0  0  0  0  0  0
  190.2710  178.5570  142.8720 C   0  0  0  0  0  2  0  0  0  0  0  0
  189.2910  178.3960  144.0370 C   0  0  0  0  0  2  0  0  0  0  0  0
  188.0350  178.4220  141.6110 C   0  0  2  0  0  3  0  0  0  0  0  0
  190.2220  178.0170  140.4850 C   0  0  0  0  0  3  0  0  0  0  0  0
  188.9930  175.2610  135.5020 O   0  0  0  0  0  0  0  0  0  0  0  0
  190.1790  174.6130  137.3890 N   0  0  0  0  0  1  0  0  0  0  0  0
  189.5730  175.6040  136.5660 C   0  0  0  0  0  0  0  0  0  0  0  0
  189.6060  176.9820  136.9370 N   0  0  0  0  0  2  0  0  0  0  0  0
  191.7530  175.5150  145.6390 C   0  0  0  0  0  3  0  0  0  0  0  0
  190.3020  176.8940  146.9230 C   0  0  0  0  0  0  0  0  0  0  0  0
  190.6210  176.2580  145.7620 N   0  0  0  0  0  0  0  0  0  0  0  0
  191.1580  176.7900  148.0250 C   0  0  0  0  0  3  0  0  0  0  0  0
  192.6240  175.3870  146.7210 C   0  0  0  0  0  3  0  0  0  0  0  0
  192.3260  176.0290  147.9320 C   0  0  0  0  0  0  0  0  0  0  0  0
  193.1610  175.9480  149.0580 O   0  0  0  0  0  0  0  0  0  0  0  0
  193.7120  177.0310  149.7540 C   0  0  0  0  0  0  0  0  0  0  0  0
  194.8980  176.9140  150.4700 O   0  0  0  0  0  1  0  0  0  0  0  0
  193.1070  178.1350  149.7460 O   0  0  0  0  0  0  0  0  0  0  0  0
  183.5770  178.4390  145.0760 O   0  0  0  0  0  0  0  0  0  0  0  0
  183.6610  179.4300  144.0980 C   0  0  0  0  0  2  0  0  0  0  0  0
  183.6210  178.7920  142.7250 C   0  0  0  0  0  1  0  0  0  0  0  0
  1  4  1  0  0  0  0
  3  4  1  0  0  0  0
  5  3  2  0  0  0  0
  6  9  2  0  0  0  0
  7  5  1  0  0  0  0
  7  1  2  0  0  0  0
  8  6  1  6  0  0  0
  8  7  1  0  0  0  0
  9  2  1  0  0  0  0
  9  5  1  0  0  0  0
 10 12  1  0  0  0  0
 11 15  1  6  0  0  0
 11 18  1  0  0  0  0
 11  8  1  0  0  0  0
 13 19  1  0  0  0  0
 13 17  1  0  0  0  0
 14 10  1  0  0  0  0
 14 20  1  0  0  0  0
 16 14  2  0  0  0  0
 17 18  1  0  0  0  0
 19 12  1  6  0  0  0
 19 15  1  0  0  0  0
 20 13  2  0  0  0  0
 21 23  2  0  0  0  0
 23 24  1  0  0  0  0
 23 22  1  0  0  0  0
 24 16  1  0  0  0  0
 25 27  2  0  0  0  0
 25 29  1  0  0  0  0
 26  1  1  0  0  0  0
 26 28  2  0  0  0  0
 27 26  1  0  0  0  0
 29 30  2  0  0  0  0
 30 28  1  0  0  0  0
 30 31  1  0  0  0  0
 31 32  1  0  0  0  0
 32 33  1  0  0  0  0
 34 32  2  0  0  0  0
 35  2  1  0  0  0  0
 36 35  1  0  0  0  0
 37 36  1  0  0  0  0
M  END
>  <MODEL>
8

>  <REMARK>
 VINA RESULT:      -7.0      4.309      8.099
  Name = 
  7 active torsions:
  status: ('A' for Active; 'I' for Inactive)
    1  A    between atoms: C_1  and  C_13
    2  A    between atoms: N_4  and  C_36
    3  A    between atoms: C_8  and  O_21
    4  A    between atoms: O_9  and  C_22
    5  A    between atoms: O_9  and  C_33
    6  A    between atoms: N_12  and  O_21
    7  A    between atoms: C_20  and  N_25
                            x       y       z     vdW  Elec       q    Type
                         _______ _______ _______ _____ _____    ______ ____

>  <TORSDO>
F 7

$$$$
=
 OpenBabel10232411223D

 37 41  0  0  1  0  0  0  0  0999 V2000
  191.2200  177.7560  142.5820 C   0  0  0  0  0  0  0  0  0  0  0  0
  189.1260  177.6480  146.8260 N   0  0  0  0  0  2  0  0  0  0  0  0
  191.5860  178.4540  144.8250 C   0  0  0  0  0  3  0  0  0  0  0  0
  192.2430  178.4550  143.4550 C   0  0  0  0  0  2  0  0  0  0  0  0
  190.3890  177.9390  144.6370 C   0  0  0  0  0  0  0  0  0  0  0  0
  188.4240  176.8120  144.6820 N   0  0  0  0  0  0  0  0  0  0  0  0
  190.1630  177.5280  143.3310 C   0  0  0  0  0  0  0  0  0  0  0  0
  188.8900  176.7520  143.2760 C   0  0  2  0  0  3  0  0  0  0  0  0
  189.2750  177.4670  145.4190 C   0  0  0  0  0  0  0  0  0  0  0  0
  183.5010  177.6990  141.7330 C   0  0  0  0  0  2  0  0  0  0  0  0
  187.9300  177.3630  142.3440 N   0  0  1  0  0  0  0  0  0  0  0  0
  184.2540  178.4150  142.8500 C   0  0  0  0  0  2  0  0  0  0  0  0
  186.0540  178.9240  141.0860 C   0  0  0  0  0  0  0  0  0  0  0  0
  183.7750  178.3620  140.4140 C   0  0  0  0  0  0  0  0  0  0  0  0
  186.6260  177.4450  143.0350 C   0  0  0  0  0  2  0  0  0  0  0  0
  182.8500  178.4320  139.4620 C   0  0  0  0  0  3  0  0  0  0  0  0
  187.4860  179.1650  140.7250 C   0  0  0  0  0  2  0  0  0  0  0  0
  188.3910  178.6800  141.8600 C   0  0  0  0  0  2  0  0  0  0  0  0
  185.7430  178.5950  142.5270 C   0  0  2  0  0  3  0  0  0  0  0  0
  185.1390  178.8200  140.1190 C   0  0  0  0  0  3  0  0  0  0  0  0
  179.9890  176.2080  139.6680 O   0  0  0  0  0  0  0  0  0  0  0  0
  182.1330  175.6540  138.9750 N   0  0  0  0  0  1  0  0  0  0  0  0
  181.1670  176.5890  139.4430 C   0  0  0  0  0  0  0  0  0  0  0  0
  181.5220  177.9530  139.6720 N   0  0  0  0  0  2  0  0  0  0  0  0
  192.8690  176.9000  139.3570 C   0  0  0  0  0  3  0  0  0  0  0  0
  191.4120  177.3230  141.1870 C   0  0  0  0  0  0  0  0  0  0  0  0
  192.6590  177.2910  140.6420 N   0  0  0  0  0  0  0  0  0  0  0  0
  190.3100  176.9420  140.4140 C   0  0  0  0  0  3  0  0  0  0  0  0
  191.7910  176.5200  138.5570 C   0  0  0  0  0  3  0  0  0  0  0  0
  190.4930  176.5410  139.0880 C   0  0  0  0  0  0  0  0  0  0  0  0
  189.3640  176.1660  138.3420 O   0  0  0  0  0  0  0  0  0  0  0  0
  188.4070  177.0350  137.8040 C   0  0  0  0  0  0  0  0  0  0  0  0
  188.7400  178.3110  137.3670 O   0  0  0  0  0  0  0  0  0  0  0  0
  187.2080  176.6560  137.7340 O   0  0  0  0  0  1  0  0  0  0  0  0
  188.0400  177.1700  147.4830 O   0  0  0  0  0  0  0  0  0  0  0  0
  187.3380  178.3040  147.8930 C   0  0  0  0  0  2  0  0  0  0  0  0
  186.0750  178.4440  147.0710 C   0  0  0  0  0  1  0  0  0  0  0  0
  1  7  2  0  0  0  0
  1  4  1  0  0  0  0
  2 35  1  0  0  0  0
  4  3  1  0  0  0  0
  5  3  2  0  0  0  0
  5  9  1  0  0  0  0
  6  9  2  0  0  0  0
  7  5  1  0  0  0  0
  8  7  1  1  0  0  0
  8  6  1  0  0  0  0
  9  2  1  0  0  0  0
 10 12  1  0  0  0  0
 11 18  1  1  0  0  0
 11 15  1  0  0  0  0
 11  8  1  0  0  0  0
 13 19  1  0  0  0  0
 14 10  1  0  0  0  0
 16 24  1  0  0  0  0
 16 14  2  0  0  0  0
 17 13  1  0  0  0  0
 17 18  1  0  0  0  0
 19 12  1  6  0  0  0
 19 15  1  0  0  0  0
 20 14  1  0  0  0  0
 20 13  2  0  0  0  0
 22 23  1  0  0  0  0
 23 21  2  0  0  0  0
 23 24  1  0  0  0  0
 25 27  1  0  0  0  0
 26  1  1  0  0  0  0
 27 26  2  0  0  0  0
 28 26  1  0  0  0  0
 29 30  1  0  0  0  0
 29 25  2  0  0  0  0
 30 28  2  0  0  0  0
 31 30  1  0  0  0  0
 32 31  1  0  0  0  0
 33 32  2  0  0  0  0
 34 32  1  0  0  0  0
 35 36  1  0  0  0  0
 37 36  1  0  0  0  0
M  END
>  <MODEL>
9

>  <REMARK>
 VINA RESULT:      -7.0      2.649      6.498
  Name = 
  7 active torsions:
  status: ('A' for Active; 'I' for Inactive)
    1  A    between atoms: C_1  and  C_13
    2  A    between atoms: N_4  and  C_36
    3  A    between atoms: C_8  and  O_21
    4  A    between atoms: O_9  and  C_22
    5  A    between atoms: O_9  and  C_33
    6  A    between atoms: N_12  and  O_21
    7  A    between atoms: C_20  and  N_25
                            x       y       z     vdW  Elec       q    Type
                         _______ _______ _______ _____ _____    ______ ____

>  <TORSDO>
F 7

$$$$
