=
 OpenBabel10232411453D

 27 28  0  0  0  0  0  0  0  0999 V2000
  183.1650  178.5920  139.7190 C   0  0  0  0  0  2  0  0  0  0  0  0
  183.8160  178.2950  138.3730 C   0  0  0  0  0  2  0  0  0  0  0  0
  185.2290  178.6680  138.3770 N   0  0  0  0  0  2  0  0  0  0  0  0
  185.9220  177.7510  137.4790 C   0  0  0  0  0  2  0  0  0  0  0  0
  187.4270  177.8230  137.6780 C   0  0  0  0  0  2  0  0  0  0  0  0
  187.7400  178.3450  138.9990 N   0  0  0  0  0  2  0  0  0  0  0  0
  189.1760  178.2450  139.1730 C   0  0  0  0  0  2  0  0  0  0  0  0
  188.2590  178.4700  141.3130 C   0  0  0  0  0  1  0  0  0  0  0  0
  189.5080  178.3160  140.5880 N   0  0  0  0  0  0  0  0  0  0  0  0
  190.0380  177.0190  140.9640 C   0  0  0  0  0  2  0  0  0  0  0  0
  191.2990  177.1930  141.7930 C   0  0  0  0  0  2  0  0  0  0  0  0
  191.0900  176.6540  143.2010 C   0  0  0  0  0  2  0  0  0  0  0  0
  191.6210  177.6210  144.2500 C   0  0  0  0  0  2  0  0  0  0  0  0
  191.2340  179.0510  143.9070 C   0  0  0  0  0  1  0  0  0  0  0  0
  184.1750  179.0220  140.7810 C   0  0  0  0  0  2  0  0  0  0  0  0
  184.3840  177.9550  141.8470 C   0  0  0  0  0  2  0  0  0  0  0  0
  186.2940  178.3720  146.5810 C   0  0  0  0  0  0  0  0  0  0  0  0
  186.9610  178.3060  147.7630 N   0  0  0  0  0  0  0  0  0  0  0  0
  183.9780  178.4480  143.1580 N   0  0  0  0  0  0  0  0  0  0  0  0
  188.2090  177.7770  147.8470 C   0  0  0  0  0  3  0  0  0  0  0  0
  186.8940  177.8850  145.4080 C   0  0  0  0  0  0  0  0  0  0  0  0
  188.8410  177.2870  146.7030 C   0  0  0  0  0  3  0  0  0  0  0  0
  188.1750  177.3450  145.4790 C   0  0  0  0  0  3  0  0  0  0  0  0
  186.1980  177.9560  144.0820 C   0  0  0  0  0  2  0  0  0  0  0  0
  184.2610  178.9790  145.4610 C   0  0  0  0  0  3  0  0  0  0  0  0
  184.9750  178.9330  146.5440 N   0  0  0  0  0  0  0  0  0  0  0  0
  184.7710  178.4550  144.1850 C   0  0  0  0  0  0  0  0  0  0  0  0
  1 15  1  0  0  0  0
  2  3  1  0  0  0  0
  2  1  1  0  0  0  0
  4  5  1  0  0  0  0
  4  3  1  0  0  0  0
  5  6  1  0  0  0  0
  6  7  1  0  0  0  0
  7  9  1  0  0  0  0
  9 10  1  0  0  0  0
  9  8  1  0  0  0  0
 10 11  1  0  0  0  0
 11 12  1  0  0  0  0
 12 13  1  0  0  0  0
 14 13  1  0  0  0  0
 15 16  1  0  0  0  0
 16 19  1  0  0  0  0
 17 18  2  0  0  0  0
 18 20  1  0  0  0  0
 19 27  2  0  0  0  0
 21 23  2  0  0  0  0
 21 17  1  0  0  0  0
 22 20  2  0  0  0  0
 23 22  1  0  0  0  0
 24 27  1  0  0  0  0
 24 21  1  0  0  0  0
 25 26  2  0  0  0  0
 26 17  1  0  0  0  0
 27 25  1  0  0  0  0
M  END
>  <MODEL>
1

>  <REMARK>
 VINA RESULT:      -6.5      0.000      0.000
  Name = 
  14 active torsions:
  status: ('A' for Active; 'I' for Inactive)
    1  A    between atoms: C_1  and  C_3
    2  A    between atoms: C_1  and  N_14
    3  A    between atoms: C_3  and  N_13
    4  A    between atoms: C_5  and  C_8
    5  A    between atoms: C_5  and  C_15
    6  A    between atoms: C_6  and  N_14
    7  A    between atoms: C_6  and  C_17
    8  A    between atoms: C_7  and  N_11
    9  A    between atoms: C_7  and  C_20
   10  A    between atoms: C_9  and  N_13
   11  A    between atoms: C_9  and  N_25
   12  A    between atoms: C_15  and  C_21
   13  A    between atoms: C_17  and  C_20
   14  A    between atoms: C_21  and  N_25
                            x       y       z     vdW  Elec       q    Type
                         _______ _______ _______ _____ _____    ______ ____

>  <TORSDO>
F 14

$$$$
=
 OpenBabel10232411453D

 27 28  0  0  0  0  0  0  0  0999 V2000
  191.3240  177.6030  142.4920 C   0  0  0  0  0  2  0  0  0  0  0  0
  190.5170  176.3290  142.2680 C   0  0  0  0  0  2  0  0  0  0  0  0
  189.1040  176.6300  142.0480 N   0  0  0  0  0  2  0  0  0  0  0  0
  189.0340  177.6430  141.0010 C   0  0  0  0  0  2  0  0  0  0  0  0
  188.0630  178.7510  141.3750 C   0  0  0  0  0  2  0  0  0  0  0  0
  186.8260  178.6170  140.6210 N   0  0  0  0  0  2  0  0  0  0  0  0
  185.7920  179.3130  141.3620 C   0  0  0  0  0  2  0  0  0  0  0  0
  184.8000  178.6890  139.3380 C   0  0  0  0  0  1  0  0  0  0  0  0
  184.5160  179.1770  140.6750 N   0  0  0  0  0  0  0  0  0  0  0  0
  183.7860  178.1170  141.3470 C   0  0  0  0  0  2  0  0  0  0  0  0
  182.3390  178.1090  140.8840 C   0  0  0  0  0  2  0  0  0  0  0  0
  181.5290  179.1460  141.6510 C   0  0  0  0  0  2  0  0  0  0  0  0
  181.7530  179.0270  143.1520 C   0  0  0  0  0  2  0  0  0  0  0  0
  180.5040  178.5000  143.8400 C   0  0  0  0  0  1  0  0  0  0  0  0
  191.5420  177.9090  143.9720 C   0  0  0  0  0  2  0  0  0  0  0  0
  191.2830  176.6990  144.8590 C   0  0  0  0  0  2  0  0  0  0  0  0
  186.8410  178.2120  146.9100 C   0  0  0  0  0  0  0  0  0  0  0  0
  185.5970  178.6660  147.2180 N   0  0  0  0  0  0  0  0  0  0  0  0
  190.7530  177.1100  146.1530 N   0  0  0  0  0  0  0  0  0  0  0  0
  184.6150  178.7390  146.2840 C   0  0  0  0  0  3  0  0  0  0  0  0
  187.1340  177.8060  145.5980 C   0  0  0  0  0  0  0  0  0  0  0  0
  184.8660  178.3400  144.9710 C   0  0  0  0  0  3  0  0  0  0  0  0
  186.1340  177.8700  144.6310 C   0  0  0  0  0  3  0  0  0  0  0  0
  188.4880  177.2830  145.2210 C   0  0  0  0  0  2  0  0  0  0  0  0
  189.0690  177.7890  147.6920 C   0  0  0  0  0  3  0  0  0  0  0  0
  187.8480  178.1610  147.9290 N   0  0  0  0  0  0  0  0  0  0  0  0
  189.4990  177.3870  146.3450 C   0  0  0  0  0  0  0  0  0  0  0  0
  1 15  1  0  0  0  0
  2  1  1  0  0  0  0
  3  2  1  0  0  0  0
  4  5  1  0  0  0  0
  4  3  1  0  0  0  0
  6  7  1  0  0  0  0
  6  5  1  0  0  0  0
  8  9  1  0  0  0  0
  9 10  1  0  0  0  0
  9  7  1  0  0  0  0
 11 10  1  0  0  0  0
 11 12  1  0  0  0  0
 12 13  1  0  0  0  0
 13 14  1  0  0  0  0
 15 16  1  0  0  0  0
 16 19  1  0  0  0  0
 17 18  2  0  0  0  0
 17 26  1  0  0  0  0
 19 27  2  0  0  0  0
 20 18  1  0  0  0  0
 21 17  1  0  0  0  0
 22 20  2  0  0  0  0
 23 22  1  0  0  0  0
 23 21  2  0  0  0  0
 24 21  1  0  0  0  0
 24 27  1  0  0  0  0
 25 26  2  0  0  0  0
 27 25  1  0  0  0  0
M  END
>  <MODEL>
2

>  <REMARK>
 VINA RESULT:      -6.5      1.776      6.116
  Name = 
  14 active torsions:
  status: ('A' for Active; 'I' for Inactive)
    1  A    between atoms: C_1  and  C_3
    2  A    between atoms: C_1  and  N_14
    3  A    between atoms: C_3  and  N_13
    4  A    between atoms: C_5  and  C_8
    5  A    between atoms: C_5  and  C_15
    6  A    between atoms: C_6  and  N_14
    7  A    between atoms: C_6  and  C_17
    8  A    between atoms: C_7  and  N_11
    9  A    between atoms: C_7  and  C_20
   10  A    between atoms: C_9  and  N_13
   11  A    between atoms: C_9  and  N_25
   12  A    between atoms: C_15  and  C_21
   13  A    between atoms: C_17  and  C_20
   14  A    between atoms: C_21  and  N_25
                            x       y       z     vdW  Elec       q    Type
                         _______ _______ _______ _____ _____    ______ ____

>  <TORSDO>
F 14

$$$$
=
 OpenBabel10232411453D

 27 28  0  0  0  0  0  0  0  0999 V2000
  191.3140  178.0000  143.1400 C   0  0  0  0  0  2  0  0  0  0  0  0
  191.0260  176.5870  142.6460 C   0  0  0  0  0  2  0  0  0  0  0  0
  189.7270  176.5140  141.9810 N   0  0  0  0  0  2  0  0  0  0  0  0
  189.2800  177.8820  141.7500 C   0  0  0  0  0  2  0  0  0  0  0  0
  188.5550  178.0040  140.4190 C   0  0  0  0  0  2  0  0  0  0  0  0
  189.1390  177.1000  139.4400 N   0  0  0  0  0  2  0  0  0  0  0  0
  188.3090  177.1590  138.2510 C   0  0  0  0  0  2  0  0  0  0  0  0
  188.9170  179.1150  137.1220 C   0  0  0  0  0  1  0  0  0  0  0  0
  187.9120  178.5360  137.9960 N   0  0  0  0  0  0  0  0  0  0  0  0
  186.6840  178.4850  137.2240 C   0  0  0  0  0  2  0  0  0  0  0  0
  185.7390  177.4540  137.8170 C   0  0  0  0  0  2  0  0  0  0  0  0
  184.3850  178.0820  138.1150 C   0  0  0  0  0  2  0  0  0  0  0  0
  184.5180  179.2680  139.0590 C   0  0  0  0  0  2  0  0  0  0  0  0
  184.8590  178.7990  140.4640 C   0  0  0  0  0  1  0  0  0  0  0  0
  191.4890  178.0700  144.6560 C   0  0  0  0  0  2  0  0  0  0  0  0
  190.9470  176.8330  145.3590 C   0  0  0  0  0  2  0  0  0  0  0  0
  186.1770  178.3080  146.5020 C   0  0  0  0  0  0  0  0  0  0  0  0
  184.8960  178.7590  146.5620 N   0  0  0  0  0  0  0  0  0  0  0  0
  190.1610  177.2070  146.5290 N   0  0  0  0  0  0  0  0  0  0  0  0
  184.1270  178.8670  145.4490 C   0  0  0  0  0  3  0  0  0  0  0  0
  186.7340  177.9410  145.2650 C   0  0  0  0  0  0  0  0  0  0  0  0
  184.6420  178.5070  144.2030 C   0  0  0  0  0  3  0  0  0  0  0  0
  185.9530  178.0410  144.1160 C   0  0  0  0  0  3  0  0  0  0  0  0
  188.1370  177.4220  145.1580 C   0  0  0  0  0  2  0  0  0  0  0  0
  188.1970  177.8470  147.7110 C   0  0  0  0  0  3  0  0  0  0  0  0
  186.9530  178.2180  147.7030 N   0  0  0  0  0  0  0  0  0  0  0  0
  188.8950  177.4850  146.4680 C   0  0  0  0  0  0  0  0  0  0  0  0
  1 15  1  0  0  0  0
  2  1  1  0  0  0  0
  3  2  1  0  0  0  0
  4  3  1  0  0  0  0
  5  4  1  0  0  0  0
  6  5  1  0  0  0  0
  7  6  1  0  0  0  0
  8  9  1  0  0  0  0
  9  7  1  0  0  0  0
 10 11  1  0  0  0  0
 10  9  1  0  0  0  0
 11 12  1  0  0  0  0
 12 13  1  0  0  0  0
 13 14  1  0  0  0  0
 15 16  1  0  0  0  0
 16 19  1  0  0  0  0
 17 18  2  0  0  0  0
 17 26  1  0  0  0  0
 20 18  1  0  0  0  0
 21 17  1  0  0  0  0
 22 20  2  0  0  0  0
 23 22  1  0  0  0  0
 23 21  2  0  0  0  0
 24 21  1  0  0  0  0
 24 27  1  0  0  0  0
 26 25  2  0  0  0  0
 27 19  2  0  0  0  0
 27 25  1  0  0  0  0
M  END
>  <MODEL>
3

>  <REMARK>
 VINA RESULT:      -6.5      1.231      5.568
  Name = 
  14 active torsions:
  status: ('A' for Active; 'I' for Inactive)
    1  A    between atoms: C_1  and  C_3
    2  A    between atoms: C_1  and  N_14
    3  A    between atoms: C_3  and  N_13
    4  A    between atoms: C_5  and  C_8
    5  A    between atoms: C_5  and  C_15
    6  A    between atoms: C_6  and  N_14
    7  A    between atoms: C_6  and  C_17
    8  A    between atoms: C_7  and  N_11
    9  A    between atoms: C_7  and  C_20
   10  A    between atoms: C_9  and  N_13
   11  A    between atoms: C_9  and  N_25
   12  A    between atoms: C_15  and  C_21
   13  A    between atoms: C_17  and  C_20
   14  A    between atoms: C_21  and  N_25
                            x       y       z     vdW  Elec       q    Type
                         _______ _______ _______ _____ _____    ______ ____

>  <TORSDO>
F 14

$$$$
=
 OpenBabel10232411453D

 27 28  0  0  0  0  0  0  0  0999 V2000
  189.7900  177.9380  139.1460 C   0  0  0  0  0  2  0  0  0  0  0  0
  189.3460  178.1930  137.7110 C   0  0  0  0  0  2  0  0  0  0  0  0
  187.9510  178.6250  137.6580 N   0  0  0  0  0  2  0  0  0  0  0  0
  187.1990  177.5820  136.9710 C   0  0  0  0  0  2  0  0  0  0  0  0
  185.7360  177.5990  137.3830 C   0  0  0  0  0  2  0  0  0  0  0  0
  185.4630  178.7460  138.2350 N   0  0  0  0  0  2  0  0  0  0  0  0
  184.0470  178.7220  138.5480 C   0  0  0  0  0  2  0  0  0  0  0  0
  182.4180  179.0710  140.1900 C   0  0  0  0  0  1  0  0  0  0  0  0
  183.8310  179.2320  139.8940 N   0  0  0  0  0  0  0  0  0  0  0  0
  184.5380  178.3460  140.8010 C   0  0  0  0  0  2  0  0  0  0  0  0
  185.2400  179.1560  141.8770 C   0  0  0  0  0  2  0  0  0  0  0  0
  185.0950  178.4780  143.2320 C   0  0  0  0  0  2  0  0  0  0  0  0
  184.7030  179.4750  144.3140 C   0  0  0  0  0  2  0  0  0  0  0  0
  183.6930  178.8600  145.2690 C   0  0  0  0  0  1  0  0  0  0  0  0
  188.7530  178.3890  140.1730 C   0  0  0  0  0  2  0  0  0  0  0  0
  188.5030  177.3360  141.2450 C   0  0  0  0  0  2  0  0  0  0  0  0
  189.7190  177.4240  146.2190 C   0  0  0  0  0  0  0  0  0  0  0  0
  189.8280  177.5740  147.5660 N   0  0  0  0  0  0  0  0  0  0  0  0
  189.6780  177.1750  142.0930 N   0  0  0  0  0  0  0  0  0  0  0  0
  188.7490  177.8610  148.3390 C   0  0  0  0  0  3  0  0  0  0  0  0
  188.4690  177.5670  145.5960 C   0  0  0  0  0  0  0  0  0  0  0  0
  187.4890  178.0050  147.7570 C   0  0  0  0  0  3  0  0  0  0  0  0
  187.3530  177.8560  146.3780 C   0  0  0  0  0  3  0  0  0  0  0  0
  188.3040  177.3920  144.1160 C   0  0  0  0  0  2  0  0  0  0  0  0
  190.8660  177.0260  144.1500 C   0  0  0  0  0  3  0  0  0  0  0  0
  190.8880  177.1290  145.4440 N   0  0  0  0  0  0  0  0  0  0  0  0
  189.6200  177.2030  143.3900 C   0  0  0  0  0  0  0  0  0  0  0  0
  1 15  1  0  0  0  0
  2  1  1  0  0  0  0
  3  2  1  0  0  0  0
  4  5  1  0  0  0  0
  4  3  1  0  0  0  0
  5  6  1  0  0  0  0
  6  7  1  0  0  0  0
  7  9  1  0  0  0  0
  9  8  1  0  0  0  0
  9 10  1  0  0  0  0
 10 11  1  0  0  0  0
 11 12  1  0  0  0  0
 12 13  1  0  0  0  0
 13 14  1  0  0  0  0
 15 16  1  0  0  0  0
 16 19  1  0  0  0  0
 17 18  2  0  0  0  0
 18 20  1  0  0  0  0
 19 27  2  0  0  0  0
 21 17  1  0  0  0  0
 21 23  2  0  0  0  0
 22 20  2  0  0  0  0
 23 22  1  0  0  0  0
 24 21  1  0  0  0  0
 25 26  2  0  0  0  0
 26 17  1  0  0  0  0
 27 24  1  0  0  0  0
 27 25  1  0  0  0  0
M  END
>  <MODEL>
4

>  <REMARK>
 VINA RESULT:      -6.3      1.720      4.854
  Name = 
  14 active torsions:
  status: ('A' for Active; 'I' for Inactive)
    1  A    between atoms: C_1  and  C_3
    2  A    between atoms: C_1  and  N_14
    3  A    between atoms: C_3  and  N_13
    4  A    between atoms: C_5  and  C_8
    5  A    between atoms: C_5  and  C_15
    6  A    between atoms: C_6  and  N_14
    7  A    between atoms: C_6  and  C_17
    8  A    between atoms: C_7  and  N_11
    9  A    between atoms: C_7  and  C_20
   10  A    between atoms: C_9  and  N_13
   11  A    between atoms: C_9  and  N_25
   12  A    between atoms: C_15  and  C_21
   13  A    between atoms: C_17  and  C_20
   14  A    between atoms: C_21  and  N_25
                            x       y       z     vdW  Elec       q    Type
                         _______ _______ _______ _____ _____    ______ ____

>  <TORSDO>
F 14

$$$$
=
 OpenBabel10232411453D

 27 28  0  0  0  0  0  0  0  0999 V2000
  183.3740  178.7840  142.6570 C   0  0  0  0  0  2  0  0  0  0  0  0
  184.0660  178.2400  141.4120 C   0  0  0  0  0  2  0  0  0  0  0  0
  184.7520  179.3030  140.6810 N   0  0  0  0  0  2  0  0  0  0  0  0
  184.1250  179.4020  139.3690 C   0  0  0  0  0  2  0  0  0  0  0  0
  184.7180  178.3910  138.4000 C   0  0  0  0  0  2  0  0  0  0  0  0
  186.1160  178.7000  138.1390 N   0  0  0  0  0  2  0  0  0  0  0  0
  186.8390  177.4420  138.1280 C   0  0  0  0  0  2  0  0  0  0  0  0
  188.0210  178.8720  136.7020 C   0  0  0  0  0  1  0  0  0  0  0  0
  187.8910  177.4880  137.1230 N   0  0  0  0  0  0  0  0  0  0  0  0
  189.1320  177.1500  137.7940 C   0  0  0  0  0  2  0  0  0  0  0  0
  189.3890  178.1230  138.9320 C   0  0  0  0  0  2  0  0  0  0  0  0
  190.1360  177.4330  140.0650 C   0  0  0  0  0  2  0  0  0  0  0  0
  189.3370  177.4690  141.3600 C   0  0  0  0  0  2  0  0  0  0  0  0
  188.2640  178.5440  141.2990 C   0  0  0  0  0  1  0  0  0  0  0  0
  184.3610  179.3010  143.7010 C   0  0  0  0  0  2  0  0  0  0  0  0
  185.4880  178.3140  143.9720 C   0  0  0  0  0  2  0  0  0  0  0  0
  189.4720  177.2500  147.0090 C   0  0  0  0  0  0  0  0  0  0  0  0
  190.6190  176.8450  147.6160 N   0  0  0  0  0  0  0  0  0  0  0  0
  185.8070  178.2710  145.3940 N   0  0  0  0  0  0  0  0  0  0  0  0
  191.7040  176.4560  146.8990 C   0  0  0  0  0  3  0  0  0  0  0  0
  189.3900  177.2700  145.6070 C   0  0  0  0  0  0  0  0  0  0  0  0
  191.6640  176.4680  145.5040 C   0  0  0  0  0  3  0  0  0  0  0  0
  190.4970  176.8790  144.8590 C   0  0  0  0  0  3  0  0  0  0  0  0
  188.1490  177.7260  144.9000 C   0  0  0  0  0  2  0  0  0  0  0  0
  187.2080  177.9890  147.2970 C   0  0  0  0  0  3  0  0  0  0  0  0
  188.3500  177.6440  147.8090 N   0  0  0  0  0  0  0  0  0  0  0  0
  186.9950  178.0020  145.8420 C   0  0  0  0  0  0  0  0  0  0  0  0
  1 15  1  0  0  0  0
  2  1  1  0  0  0  0
  3  2  1  0  0  0  0
  4  3  1  0  0  0  0
  5  4  1  0  0  0  0
  6  5  1  0  0  0  0
  7  6  1  0  0  0  0
  8  9  1  0  0  0  0
  9 10  1  0  0  0  0
  9  7  1  0  0  0  0
 10 11  1  0  0  0  0
 11 12  1  0  0  0  0
 12 13  1  0  0  0  0
 14 13  1  0  0  0  0
 15 16  1  0  0  0  0
 16 19  1  0  0  0  0
 17 18  2  0  0  0  0
 17 26  1  0  0  0  0
 19 27  2  0  0  0  0
 20 18  1  0  0  0  0
 21 17  1  0  0  0  0
 22 20  2  0  0  0  0
 23 22  1  0  0  0  0
 23 21  2  0  0  0  0
 24 21  1  0  0  0  0
 24 27  1  0  0  0  0
 25 26  2  0  0  0  0
 27 25  1  0  0  0  0
M  END
>  <MODEL>
5

>  <REMARK>
 VINA RESULT:      -6.3      1.540      3.227
  Name = 
  14 active torsions:
  status: ('A' for Active; 'I' for Inactive)
    1  A    between atoms: C_1  and  C_3
    2  A    between atoms: C_1  and  N_14
    3  A    between atoms: C_3  and  N_13
    4  A    between atoms: C_5  and  C_8
    5  A    between atoms: C_5  and  C_15
    6  A    between atoms: C_6  and  N_14
    7  A    between atoms: C_6  and  C_17
    8  A    between atoms: C_7  and  N_11
    9  A    between atoms: C_7  and  C_20
   10  A    between atoms: C_9  and  N_13
   11  A    between atoms: C_9  and  N_25
   12  A    between atoms: C_15  and  C_21
   13  A    between atoms: C_17  and  C_20
   14  A    between atoms: C_21  and  N_25
                            x       y       z     vdW  Elec       q    Type
                         _______ _______ _______ _____ _____    ______ ____

>  <TORSDO>
F 14

$$$$
=
 OpenBabel10232411453D

 27 28  0  0  0  0  0  0  0  0999 V2000
  189.1650  178.0570  137.7740 C   0  0  0  0  0  2  0  0  0  0  0  0
  189.7540  176.6640  137.5840 C   0  0  0  0  0  2  0  0  0  0  0  0
  190.1900  176.0960  138.8580 N   0  0  0  0  0  2  0  0  0  0  0  0
  191.4750  176.7020  139.1870 C   0  0  0  0  0  2  0  0  0  0  0  0
  191.4140  177.4240  140.5230 C   0  0  0  0  0  2  0  0  0  0  0  0
  190.4670  176.7680  141.4110 N   0  0  0  0  0  2  0  0  0  0  0  0
  190.0440  177.7500  142.3910 C   0  0  0  0  0  2  0  0  0  0  0  0
  190.9680  179.2060  143.9720 C   0  0  0  0  0  1  0  0  0  0  0  0
  191.0410  177.8540  143.4470 N   0  0  0  0  0  0  0  0  0  0  0  0
  190.6110  176.9790  144.5210 C   0  0  0  0  0  2  0  0  0  0  0  0
  189.6360  177.7090  145.4290 C   0  0  0  0  0  2  0  0  0  0  0  0
  189.5770  177.0410  146.7950 C   0  0  0  0  0  2  0  0  0  0  0  0
  189.2620  178.0470  147.8930 C   0  0  0  0  0  2  0  0  0  0  0  0
  187.9650  177.6830  148.5990 C   0  0  0  0  0  1  0  0  0  0  0  0
  187.6740  178.0260  138.1050 C   0  0  0  0  0  2  0  0  0  0  0  0
  187.4030  178.2860  139.5810 C   0  0  0  0  0  2  0  0  0  0  0  0
  184.1310  178.8080  143.4860 C   0  0  0  0  0  0  0  0  0  0  0  0
  183.4330  178.8170  144.6520 N   0  0  0  0  0  0  0  0  0  0  0  0
  185.9930  178.5830  139.8020 N   0  0  0  0  0  0  0  0  0  0  0  0
  184.0370  178.5840  145.8450 C   0  0  0  0  0  3  0  0  0  0  0  0
  185.5120  178.5530  143.4970 C   0  0  0  0  0  0  0  0  0  0  0  0
  185.4090  178.3320  145.8980 C   0  0  0  0  0  3  0  0  0  0  0  0
  186.1460  178.3190  144.7150 C   0  0  0  0  0  3  0  0  0  0  0  0
  186.3210  178.5520  142.2350 C   0  0  0  0  0  2  0  0  0  0  0  0
  184.0410  179.0050  141.0970 C   0  0  0  0  0  3  0  0  0  0  0  0
  183.4470  179.0510  142.2500 N   0  0  0  0  0  0  0  0  0  0  0  0
  185.4750  178.7010  140.9870 C   0  0  0  0  0  0  0  0  0  0  0  0
  1 15  1  0  0  0  0
  2  1  1  0  0  0  0
  2  3  1  0  0  0  0
  3  4  1  0  0  0  0
  4  5  1  0  0  0  0
  5  6  1  0  0  0  0
  6  7  1  0  0  0  0
  7  9  1  0  0  0  0
  9  8  1  0  0  0  0
  9 10  1  0  0  0  0
 10 11  1  0  0  0  0
 11 12  1  0  0  0  0
 12 13  1  0  0  0  0
 13 14  1  0  0  0  0
 15 16  1  0  0  0  0
 16 19  1  0  0  0  0
 17 21  1  0  0  0  0
 17 18  2  0  0  0  0
 18 20  1  0  0  0  0
 19 27  2  0  0  0  0
 20 22  2  0  0  0  0
 21 23  2  0  0  0  0
 23 22  1  0  0  0  0
 24 21  1  0  0  0  0
 25 26  2  0  0  0  0
 26 17  1  0  0  0  0
 27 25  1  0  0  0  0
 27 24  1  0  0  0  0
M  END
>  <MODEL>
6

>  <REMARK>
 VINA RESULT:      -6.2      1.700      4.340
  Name = 
  14 active torsions:
  status: ('A' for Active; 'I' for Inactive)
    1  A    between atoms: C_1  and  C_3
    2  A    between atoms: C_1  and  N_14
    3  A    between atoms: C_3  and  N_13
    4  A    between atoms: C_5  and  C_8
    5  A    between atoms: C_5  and  C_15
    6  A    between atoms: C_6  and  N_14
    7  A    between atoms: C_6  and  C_17
    8  A    between atoms: C_7  and  N_11
    9  A    between atoms: C_7  and  C_20
   10  A    between atoms: C_9  and  N_13
   11  A    between atoms: C_9  and  N_25
   12  A    between atoms: C_15  and  C_21
   13  A    between atoms: C_17  and  C_20
   14  A    between atoms: C_21  and  N_25
                            x       y       z     vdW  Elec       q    Type
                         _______ _______ _______ _____ _____    ______ ____

>  <TORSDO>
F 14

$$$$
=
 OpenBabel10232411453D

 27 28  0  0  0  0  0  0  0  0999 V2000
  191.4920  177.6320  143.3730 C   0  0  0  0  0  2  0  0  0  0  0  0
  190.9420  176.2530  143.0290 C   0  0  0  0  0  2  0  0  0  0  0  0
  190.2160  176.2750  141.7620 N   0  0  0  0  0  2  0  0  0  0  0  0
  188.9630  176.9830  141.9910 C   0  0  0  0  0  2  0  0  0  0  0  0
  188.5640  177.8010  140.7730 C   0  0  0  0  0  2  0  0  0  0  0  0
  189.6560  177.8430  139.8120 N   0  0  0  0  0  2  0  0  0  0  0  0
  189.1700  178.5450  138.6390 C   0  0  0  0  0  2  0  0  0  0  0  0
  187.4720  178.2630  137.0560 C   0  0  0  0  0  1  0  0  0  0  0  0
  188.5890  177.5960  137.7020 N   0  0  0  0  0  0  0  0  0  0  0  0
  189.5780  177.3650  136.6650 C   0  0  0  0  0  2  0  0  0  0  0  0
  189.8400  175.8760  136.5180 C   0  0  0  0  0  2  0  0  0  0  0  0
  190.9300  175.4290  137.4830 C   0  0  0  0  0  2  0  0  0  0  0  0
  192.2260  176.1930  137.2490 C   0  0  0  0  0  2  0  0  0  0  0  0
  193.4140  175.4050  137.7770 C   0  0  0  0  0  1  0  0  0  0  0  0
  191.6120  177.8600  144.8790 C   0  0  0  0  0  2  0  0  0  0  0  0
  191.0850  176.6810  145.6870 C   0  0  0  0  0  2  0  0  0  0  0  0
  186.3400  178.3390  146.6680 C   0  0  0  0  0  0  0  0  0  0  0  0
  185.0700  178.8250  146.6820 N   0  0  0  0  0  0  0  0  0  0  0  0
  190.2940  177.1450  146.8200 N   0  0  0  0  0  0  0  0  0  0  0  0
  184.3180  178.8840  145.5530 C   0  0  0  0  0  3  0  0  0  0  0  0
  186.9030  177.8840  145.4640 C   0  0  0  0  0  0  0  0  0  0  0  0
  184.8410  178.4370  144.3390 C   0  0  0  0  0  3  0  0  0  0  0  0
  186.1410  177.9340  144.2990 C   0  0  0  0  0  3  0  0  0  0  0  0
  188.2940  177.3260  145.4090 C   0  0  0  0  0  2  0  0  0  0  0  0
  188.3310  177.9030  147.9320 C   0  0  0  0  0  3  0  0  0  0  0  0
  187.0970  178.3040  147.8840 N   0  0  0  0  0  0  0  0  0  0  0  0
  189.0360  177.4490  146.7240 C   0  0  0  0  0  0  0  0  0  0  0  0
  1 15  1  0  0  0  0
  2  1  1  0  0  0  0
  3  4  1  0  0  0  0
  3  2  1  0  0  0  0
  5  4  1  0  0  0  0
  6  5  1  0  0  0  0
  7  6  1  0  0  0  0
  8  9  1  0  0  0  0
  9  7  1  0  0  0  0
 10  9  1  0  0  0  0
 11 10  1  0  0  0  0
 11 12  1  0  0  0  0
 13 12  1  0  0  0  0
 13 14  1  0  0  0  0
 15 16  1  0  0  0  0
 16 19  1  0  0  0  0
 17 18  2  0  0  0  0
 17 26  1  0  0  0  0
 20 18  1  0  0  0  0
 21 17  1  0  0  0  0
 22 20  2  0  0  0  0
 23 22  1  0  0  0  0
 23 21  2  0  0  0  0
 24 21  1  0  0  0  0
 24 27  1  0  0  0  0
 26 25  2  0  0  0  0
 27 19  2  0  0  0  0
 27 25  1  0  0  0  0
M  END
>  <MODEL>
7

>  <REMARK>
 VINA RESULT:      -6.1      1.962      5.363
  Name = 
  14 active torsions:
  status: ('A' for Active; 'I' for Inactive)
    1  A    between atoms: C_1  and  C_3
    2  A    between atoms: C_1  and  N_14
    3  A    between atoms: C_3  and  N_13
    4  A    between atoms: C_5  and  C_8
    5  A    between atoms: C_5  and  C_15
    6  A    between atoms: C_6  and  N_14
    7  A    between atoms: C_6  and  C_17
    8  A    between atoms: C_7  and  N_11
    9  A    between atoms: C_7  and  C_20
   10  A    between atoms: C_9  and  N_13
   11  A    between atoms: C_9  and  N_25
   12  A    between atoms: C_15  and  C_21
   13  A    between atoms: C_17  and  C_20
   14  A    between atoms: C_21  and  N_25
                            x       y       z     vdW  Elec       q    Type
                         _______ _______ _______ _____ _____    ______ ____

>  <TORSDO>
F 14

$$$$
=
 OpenBabel10232411453D

 27 28  0  0  0  0  0  0  0  0999 V2000
  183.9620  177.8920  138.3260 C   0  0  0  0  0  2  0  0  0  0  0  0
  185.1950  178.0820  137.4510 C   0  0  0  0  0  2  0  0  0  0  0  0
  186.3980  178.2530  138.2630 N   0  0  0  0  0  2  0  0  0  0  0  0
  187.5240  178.3860  137.3470 C   0  0  0  0  0  2  0  0  0  0  0  0
  188.8430  178.1300  138.0600 C   0  0  0  0  0  2  0  0  0  0  0  0
  188.6030  177.5890  139.3900 N   0  0  0  0  0  2  0  0  0  0  0  0
  189.6980  178.0250  140.2350 C   0  0  0  0  0  2  0  0  0  0  0  0
  191.8700  177.3130  140.7350 C   0  0  0  0  0  1  0  0  0  0  0  0
  190.4880  176.8750  140.6510 N   0  0  0  0  0  0  0  0  0  0  0  0
  190.0820  176.5510  142.0060 C   0  0  0  0  0  2  0  0  0  0  0  0
  189.8820  177.8260  142.8070 C   0  0  0  0  0  2  0  0  0  0  0  0
  190.8730  177.8920  143.9610 C   0  0  0  0  0  2  0  0  0  0  0  0
  190.8190  176.6310  144.8130 C   0  0  0  0  0  2  0  0  0  0  0  0
  191.3580  176.9030  146.2080 C   0  0  0  0  0  1  0  0  0  0  0  0
  184.0390  178.6790  139.6330 C   0  0  0  0  0  2  0  0  0  0  0  0
  184.1780  177.7710  140.8480 C   0  0  0  0  0  2  0  0  0  0  0  0
  185.0940  178.6770  145.8040 C   0  0  0  0  0  0  0  0  0  0  0  0
  185.5160  178.7430  147.0950 N   0  0  0  0  0  0  0  0  0  0  0  0
  183.5030  178.3490  142.0040 N   0  0  0  0  0  0  0  0  0  0  0  0
  186.7390  178.2890  147.4680 C   0  0  0  0  0  3  0  0  0  0  0  0
  185.9320  178.1270  144.8200 C   0  0  0  0  0  0  0  0  0  0  0  0
  187.6030  177.7410  146.5190 C   0  0  0  0  0  3  0  0  0  0  0  0
  187.1920  177.6620  145.1880 C   0  0  0  0  0  3  0  0  0  0  0  0
  185.5110  178.0510  143.3830 C   0  0  0  0  0  2  0  0  0  0  0  0
  183.3040  179.0810  144.2600 C   0  0  0  0  0  3  0  0  0  0  0  0
  183.7900  179.1630  145.4610 N   0  0  0  0  0  0  0  0  0  0  0  0
  184.0760  178.4820  143.1610 C   0  0  0  0  0  0  0  0  0  0  0  0
  1 15  1  0  0  0  0
  2  3  1  0  0  0  0
  2  1  1  0  0  0  0
  4  5  1  0  0  0  0
  4  3  1  0  0  0  0
  5  6  1  0  0  0  0
  6  7  1  0  0  0  0
  7  9  1  0  0  0  0
  9  8  1  0  0  0  0
  9 10  1  0  0  0  0
 10 11  1  0  0  0  0
 11 12  1  0  0  0  0
 12 13  1  0  0  0  0
 13 14  1  0  0  0  0
 15 16  1  0  0  0  0
 16 19  1  0  0  0  0
 17 18  2  0  0  0  0
 18 20  1  0  0  0  0
 19 27  2  0  0  0  0
 21 23  2  0  0  0  0
 21 17  1  0  0  0  0
 22 20  2  0  0  0  0
 23 22  1  0  0  0  0
 24 21  1  0  0  0  0
 25 26  2  0  0  0  0
 26 17  1  0  0  0  0
 27 24  1  0  0  0  0
 27 25  1  0  0  0  0
M  END
>  <MODEL>
8

>  <REMARK>
 VINA RESULT:      -6.1      1.199      1.671
  Name = 
  14 active torsions:
  status: ('A' for Active; 'I' for Inactive)
    1  A    between atoms: C_1  and  C_3
    2  A    between atoms: C_1  and  N_14
    3  A    between atoms: C_3  and  N_13
    4  A    between atoms: C_5  and  C_8
    5  A    between atoms: C_5  and  C_15
    6  A    between atoms: C_6  and  N_14
    7  A    between atoms: C_6  and  C_17
    8  A    between atoms: C_7  and  N_11
    9  A    between atoms: C_7  and  C_20
   10  A    between atoms: C_9  and  N_13
   11  A    between atoms: C_9  and  N_25
   12  A    between atoms: C_15  and  C_21
   13  A    between atoms: C_17  and  C_20
   14  A    between atoms: C_21  and  N_25
                            x       y       z     vdW  Elec       q    Type
                         _______ _______ _______ _____ _____    ______ ____

>  <TORSDO>
F 14

$$$$
=
 OpenBabel10232411453D

 27 28  0  0  0  0  0  0  0  0999 V2000
  191.2670  176.5300  146.4170 C   0  0  0  0  0  2  0  0  0  0  0  0
  191.4630  177.2310  145.0780 C   0  0  0  0  0  2  0  0  0  0  0  0
  191.5330  176.2670  143.9820 N   0  0  0  0  0  2  0  0  0  0  0  0
  190.2780  176.3550  143.2450 C   0  0  0  0  0  2  0  0  0  0  0  0
  190.0660  177.7540  142.6880 C   0  0  0  0  0  2  0  0  0  0  0  0
  188.9800  177.7550  141.7200 N   0  0  0  0  0  2  0  0  0  0  0  0
  189.5670  177.5200  140.4150 C   0  0  0  0  0  2  0  0  0  0  0  0
  187.4460  178.4080  139.9880 C   0  0  0  0  0  1  0  0  0  0  0  0
  188.5580  177.6990  139.3810 N   0  0  0  0  0  0  0  0  0  0  0  0
  189.1210  178.5990  138.3920 C   0  0  0  0  0  2  0  0  0  0  0  0
  189.3230  177.8650  137.0770 C   0  0  0  0  0  2  0  0  0  0  0  0
  188.5380  176.5610  137.0690 C   0  0  0  0  0  2  0  0  0  0  0  0
  187.3720  176.6200  136.0920 C   0  0  0  0  0  2  0  0  0  0  0  0
  187.2470  178.0100  135.4890 C   0  0  0  0  0  1  0  0  0  0  0  0
  189.9110  176.8370  147.0500 C   0  0  0  0  0  2  0  0  0  0  0  0
  189.0450  177.7220  146.1630 C   0  0  0  0  0  2  0  0  0  0  0  0
  184.1770  178.7600  144.9550 C   0  0  0  0  0  0  0  0  0  0  0  0
  182.9770  179.0860  144.4060 N   0  0  0  0  0  0  0  0  0  0  0  0
  187.7920  178.0540  146.8310 N   0  0  0  0  0  0  0  0  0  0  0  0
  182.7840  179.0840  143.0630 C   0  0  0  0  0  3  0  0  0  0  0  0
  185.2560  178.4100  144.1250 C   0  0  0  0  0  0  0  0  0  0  0  0
  183.8300  178.7370  142.2060 C   0  0  0  0  0  3  0  0  0  0  0  0
  185.0700  178.3980  142.7450 C   0  0  0  0  0  3  0  0  0  0  0  0
  186.5900  178.0270  144.6910 C   0  0  0  0  0  2  0  0  0  0  0  0
  185.4660  178.5370  146.9660 C   0  0  0  0  0  3  0  0  0  0  0  0
  184.3340  178.7850  146.3790 N   0  0  0  0  0  0  0  0  0  0  0  0
  186.6720  178.2050  146.1930 C   0  0  0  0  0  0  0  0  0  0  0  0
  1 15  1  0  0  0  0
  2  1  1  0  0  0  0
  3  2  1  0  0  0  0
  4  3  1  0  0  0  0
  5  4  1  0  0  0  0
  6  5  1  0  0  0  0
  7  6  1  0  0  0  0
  9  8  1  0  0  0  0
  9  7  1  0  0  0  0
 10  9  1  0  0  0  0
 11 10  1  0  0  0  0
 12 11  1  0  0  0  0
 13 12  1  0  0  0  0
 14 13  1  0  0  0  0
 16 19  1  0  0  0  0
 16 15  1  0  0  0  0
 17 26  1  0  0  0  0
 18 17  2  0  0  0  0
 20 18  1  0  0  0  0
 21 24  1  0  0  0  0
 21 17  1  0  0  0  0
 22 23  1  0  0  0  0
 22 20  2  0  0  0  0
 23 21  2  0  0  0  0
 24 27  1  0  0  0  0
 26 25  2  0  0  0  0
 27 19  2  0  0  0  0
 27 25  1  0  0  0  0
M  END
>  <MODEL>
9

>  <REMARK>
 VINA RESULT:      -6.1      1.663      5.996
  Name = 
  14 active torsions:
  status: ('A' for Active; 'I' for Inactive)
    1  A    between atoms: C_1  and  C_3
    2  A    between atoms: C_1  and  N_14
    3  A    between atoms: C_3  and  N_13
    4  A    between atoms: C_5  and  C_8
    5  A    between atoms: C_5  and  C_15
    6  A    between atoms: C_6  and  N_14
    7  A    between atoms: C_6  and  C_17
    8  A    between atoms: C_7  and  N_11
    9  A    between atoms: C_7  and  C_20
   10  A    between atoms: C_9  and  N_13
   11  A    between atoms: C_9  and  N_25
   12  A    between atoms: C_15  and  C_21
   13  A    between atoms: C_17  and  C_20
   14  A    between atoms: C_21  and  N_25
                            x       y       z     vdW  Elec       q    Type
                         _______ _______ _______ _____ _____    ______ ____

>  <TORSDO>
F 14

$$$$
