=
 OpenBabel10232410273D

 43 47  0  0  1  0  0  0  0  0999 V2000
  189.6720  177.3510  141.0130 C   0  0  0  0  0  0  0  0  0  0  0  0
  190.8970  176.9950  140.3570 N   0  0  0  0  0  0  0  0  0  0  0  0
  189.5550  177.2130  142.4030 C   0  0  0  0  0  0  0  0  0  0  0  0
  187.7820  178.4170  138.1100 O   0  0  0  0  0  0  0  0  0  0  0  0
  191.3650  178.0290  144.9040 O   0  0  0  0  0  1  0  0  0  0  0  0
  189.0840  176.7200  146.5830 N   0  0  0  0  0  2  0  0  0  0  0  0
  190.6430  176.8740  144.5960 C   0  0  1  0  0  3  0  0  0  0  0  0
  187.3980  178.2050  140.9170 C   0  0  0  0  0  3  0  0  0  0  0  0
  189.2570  176.9780  145.1890 C   0  0  0  0  0  0  0  0  0  0  0  0
  189.9980  177.5470  138.1270 C   0  0  0  0  0  2  0  0  0  0  0  0
  190.6090  176.7050  143.1740 O   0  0  0  0  0  0  0  0  0  0  0  0
  188.2420  177.3390  144.4550 N   0  0  0  0  0  0  0  0  0  0  0  0
  188.3630  177.5630  143.0460 C   0  0  0  0  0  0  0  0  0  0  0  0
  188.5890  177.8470  140.2680 C   0  0  0  0  0  0  0  0  0  0  0  0
  187.2840  178.0590  142.3060 C   0  0  0  0  0  3  0  0  0  0  0  0
  188.7300  177.9700  138.8100 C   0  0  0  0  0  0  0  0  0  0  0  0
  191.0790  177.0760  139.0670 C   0  0  0  0  0  0  0  0  0  0  0  0
  192.4750  176.1450  137.2730 C   0  0  0  0  0  3  0  0  0  0  0  0
  192.3720  176.7010  138.4780 C   0  0  0  0  0  3  0  0  0  0  0  0
  194.9460  174.6430  135.2030 C   0  0  0  0  0  2  0  0  0  0  0  0
  194.6700  174.6710  137.8620 S   0  0  0  0  0  0  0  0  0  0  0  0
  195.1510  172.5170  136.3620 N   0  0  0  0  0  1  0  0  0  0  0  0
  193.6780  175.1610  135.4870 O   0  0  0  0  0  0  0  0  0  0  0  0
  193.8140  175.7910  136.7280 C   0  0  1  0  0  3  0  0  0  0  0  0
  195.4770  173.9280  136.4250 C   0  0  1  0  0  0  0  0  0  0  0  0
  197.6440  175.7680  136.8200 O   0  0  0  0  0  1  0  0  0  0  0  0
  197.8140  173.3030  137.6750 O   0  0  0  0  0  1  0  0  0  0  0  0
  197.2770  174.1380  136.5330 P   0  0  0  0  0  0  0  0  0  0  0  0
  197.9940  173.6360  135.0820 O   0  0  0  0  0  0  0  0  0  0  0  0
  187.8080  176.8730  147.2720 C   0  0  0  0  0  2  0  0  0  0  0  0
  187.2930  178.2970  147.1290 C   0  0  2  0  0  3  0  0  0  0  0  0
  187.7150  179.0530  148.2270 O   0  0  0  0  0  1  0  0  0  0  0  0
  185.1210  178.8680  145.9630 C   0  0  0  0  0  0  0  0  0  0  0  0
  184.6900  179.8720  144.0090 C   0  0  0  0  0  2  0  0  0  0  0  0
  185.7060  179.4320  144.9570 N   0  0  0  0  0  0  0  0  0  0  0  0
  183.3580  179.4810  144.6740 C   0  0  2  0  0  3  0  0  0  0  0  0
  183.7470  178.8430  145.8800 O   0  0  0  0  0  0  0  0  0  0  0  0
  185.8370  178.3010  147.0660 N   0  0  0  0  0  2  0  0  0  0  0  0
  182.5310  178.5320  143.8030 C   0  0  0  0  0  2  0  0  0  0  0  0
  181.0240  178.7180  144.0060 C   0  0  0  0  0  2  0  0  0  0  0  0
  180.1950  180.6740  142.8810 O   0  0  0  0  0  1  0  0  0  0  0  0
  181.1350  178.9770  141.4990 C   0  0  0  0  0  1  0  0  0  0  0  0
  180.3490  179.2930  142.7590 C   0  0  1  0  0  3  0  0  0  0  0  0
  1  3  1  0  0  0  0
  2  1  1  0  0  0  0
  3 13  2  0  0  0  0
  3 11  1  0  0  0  0
  4 16  2  0  0  0  0
  6 30  1  0  0  0  0
  7  5  1  6  0  0  0
  7  9  1  0  0  0  0
  8 15  2  0  0  0  0
  9  6  1  0  0  0  0
 10 16  1  0  0  0  0
 10 17  1  0  0  0  0
 11  7  1  0  0  0  0
 12  9  2  0  0  0  0
 13 12  1  0  0  0  0
 14  8  1  0  0  0  0
 14  1  2  0  0  0  0
 15 13  1  0  0  0  0
 16 14  1  0  0  0  0
 17  2  2  0  0  0  0
 18 19  2  0  0  0  0
 19 17  1  0  0  0  0
 20 23  1  0  0  0  0
 20 25  1  0  0  0  0
 23 24  1  0  0  0  0
 24 18  1  1  0  0  0
 24 21  1  0  0  0  0
 25 22  1  6  0  0  0
 25 28  1  0  0  0  0
 25 21  1  0  0  0  0
 28 26  1  0  0  0  0
 28 27  1  0  0  0  0
 29 28  2  0  0  0  0
 31 30  1  0  0  0  0
 31 32  1  1  0  0  0
 33 38  1  0  0  0  0
 34 36  1  0  0  0  0
 34 35  1  0  0  0  0
 35 33  2  0  0  0  0
 36 39  1  6  0  0  0
 36 37  1  0  0  0  0
 37 33  1  0  0  0  0
 38 31  1  0  0  0  0
 39 40  1  0  0  0  0
 43 42  1  6  0  0  0
 43 41  1  0  0  0  0
 43 40  1  0  0  0  0
M  END
>  <MODEL>
1

>  <REMARK>
 VINA RESULT:      -9.0      0.000      0.000
  Name = 
  9 active torsions:
  status: ('A' for Active; 'I' for Inactive)
    1  A    between atoms: C_1  and  C_34
    2  A    between atoms: C_2  and  C_8
    3  A    between atoms: C_2  and  N_36
    4  A    between atoms: C_8  and  N_18
    5  A    between atoms: C_21  and  C_23
    6  A    between atoms: C_23  and  C_24
    7  A    between atoms: C_24  and  C_31
    8  A    between atoms: P_25  and  C_43
    9  A    between atoms: C_41  and  C_42
                            x       y       z     vdW  Elec       q    Type
                         _______ _______ _______ _____ _____    ______ ____

>  <TORSDO>
F 9

$$$$
=
 OpenBabel10232410273D

 43 47  0  0  1  0  0  0  0  0999 V2000
  189.8460  176.9380  140.1140 C   0  0  0  0  0  0  0  0  0  0  0  0
  190.8050  176.0680  139.4990 N   0  0  0  0  0  0  0  0  0  0  0  0
  189.8920  177.1650  141.4970 C   0  0  0  0  0  0  0  0  0  0  0  0
  187.9630  177.8610  137.1590 O   0  0  0  0  0  0  0  0  0  0  0  0
  192.1970  177.9070  143.5790 O   0  0  0  0  0  1  0  0  0  0  0  0
  189.8940  177.8180  145.6810 N   0  0  0  0  0  2  0  0  0  0  0  0
  191.1310  177.0060  143.6290 C   0  0  1  0  0  3  0  0  0  0  0  0
  187.9350  178.4300  139.9420 C   0  0  0  0  0  3  0  0  0  0  0  0
  189.9350  177.6810  144.2610 C   0  0  0  0  0  0  0  0  0  0  0  0
  189.8030  176.3540  137.2630 C   0  0  0  0  0  2  0  0  0  0  0  0
  190.8470  176.5370  142.3060 O   0  0  0  0  0  0  0  0  0  0  0  0
  188.9780  178.1720  143.5230 N   0  0  0  0  0  0  0  0  0  0  0  0
  188.9590  178.0170  142.0990 C   0  0  0  0  0  0  0  0  0  0  0  0
  188.8630  177.5710  139.3360 C   0  0  0  0  0  0  0  0  0  0  0  0
  187.9800  178.6500  141.3250 C   0  0  0  0  0  3  0  0  0  0  0  0
  188.8260  177.3060  137.8900 C   0  0  0  0  0  0  0  0  0  0  0  0
  190.8190  175.7890  138.2230 C   0  0  0  0  0  0  0  0  0  0  0  0
  193.1400  175.2070  137.6720 C   0  0  0  0  0  3  0  0  0  0  0  0
  191.8470  174.8950  137.6720 C   0  0  0  0  0  3  0  0  0  0  0  0
  194.5280  172.1930  136.3920 C   0  0  0  0  0  2  0  0  0  0  0  0
  195.3520  173.8030  138.3610 S   0  0  0  0  0  0  0  0  0  0  0  0
  195.1360  171.1470  138.4990 N   0  0  0  0  0  1  0  0  0  0  0  0
  193.4950  173.1000  136.6510 O   0  0  0  0  0  0  0  0  0  0  0  0
  194.1350  174.2580  137.1020 C   0  0  1  0  0  3  0  0  0  0  0  0
  195.4920  172.1900  137.5580 C   0  0  1  0  0  0  0  0  0  0  0  0
  197.2150  172.0240  135.2680 O   0  0  0  0  0  0  0  0  0  0  0  0
  198.0930  172.9950  137.5320 O   0  0  0  0  0  1  0  0  0  0  0  0
  197.1860  171.9270  136.9610 P   0  0  0  0  0  0  0  0  0  0  0  0
  197.7310  170.4000  137.4560 O   0  0  0  0  0  1  0  0  0  0  0  0
  188.8300  178.5260  146.3860 C   0  0  0  0  0  2  0  0  0  0  0  0
  187.7280  177.5600  146.7940 C   0  0  2  0  0  3  0  0  0  0  0  0
  188.2980  176.4490  147.4240 O   0  0  0  0  0  1  0  0  0  0  0  0
  185.9470  177.9210  145.0320 C   0  0  0  0  0  0  0  0  0  0  0  0
  184.5350  179.6180  144.6580 C   0  0  0  0  0  2  0  0  0  0  0  0
  185.5860  179.0690  145.5050 N   0  0  0  0  0  0  0  0  0  0  0  0
  184.3150  178.5370  143.5840 C   0  0  2  0  0  3  0  0  0  0  0  0
  185.2630  177.5320  143.9030 O   0  0  0  0  0  0  0  0  0  0  0  0
  186.9820  177.1240  145.6200 N   0  0  0  0  0  2  0  0  0  0  0  0
  184.5480  179.0700  142.1670 C   0  0  0  0  0  2  0  0  0  0  0  0
  183.8590  178.2140  141.1010 C   0  0  0  0  0  2  0  0  0  0  0  0
  184.7560  179.8130  139.5450 O   0  0  0  0  0  1  0  0  0  0  0  0
  183.4550  178.0480  138.6160 C   0  0  0  0  0  1  0  0  0  0  0  0
  183.6620  178.9840  139.7930 C   0  0  1  0  0  3  0  0  0  0  0  0
  1  3  1  0  0  0  0
  2  1  1  0  0  0  0
  3 13  2  0  0  0  0
  3 11  1  0  0  0  0
  4 16  2  0  0  0  0
  6 30  1  0  0  0  0
  7  5  1  6  0  0  0
  7  9  1  0  0  0  0
  8 15  2  0  0  0  0
  9  6  1  0  0  0  0
 10 16  1  0  0  0  0
 10 17  1  0  0  0  0
 11  7  1  0  0  0  0
 12  9  2  0  0  0  0
 13 12  1  0  0  0  0
 14  8  1  0  0  0  0
 14  1  2  0  0  0  0
 15 13  1  0  0  0  0
 16 14  1  0  0  0  0
 17  2  2  0  0  0  0
 19 18  2  0  0  0  0
 19 17  1  0  0  0  0
 20 23  1  0  0  0  0
 20 25  1  0  0  0  0
 23 24  1  0  0  0  0
 24 18  1  1  0  0  0
 24 21  1  0  0  0  0
 25 21  1  0  0  0  0
 25 22  1  1  0  0  0
 26 28  2  0  0  0  0
 28 29  1  0  0  0  0
 28 27  1  0  0  0  0
 28 25  1  0  0  0  0
 30 31  1  0  0  0  0
 31 32  1  6  0  0  0
 33 35  2  0  0  0  0
 33 38  1  0  0  0  0
 34 35  1  0  0  0  0
 36 39  1  6  0  0  0
 36 37  1  0  0  0  0
 36 34  1  0  0  0  0
 37 33  1  0  0  0  0
 38 31  1  0  0  0  0
 40 39  1  0  0  0  0
 41 43  1  0  0  0  0
 43 42  1  6  0  0  0
 43 40  1  0  0  0  0
M  END
>  <MODEL>
2

>  <REMARK>
 VINA RESULT:      -8.6      1.956      2.274
  Name = 
  9 active torsions:
  status: ('A' for Active; 'I' for Inactive)
    1  A    between atoms: C_1  and  C_34
    2  A    between atoms: C_2  and  C_8
    3  A    between atoms: C_2  and  N_36
    4  A    between atoms: C_8  and  N_18
    5  A    between atoms: C_21  and  C_23
    6  A    between atoms: C_23  and  C_24
    7  A    between atoms: C_24  and  C_31
    8  A    between atoms: P_25  and  C_43
    9  A    between atoms: C_41  and  C_42
                            x       y       z     vdW  Elec       q    Type
                         _______ _______ _______ _____ _____    ______ ____

>  <TORSDO>
F 9

$$$$
=
 OpenBabel10232410273D

 43 47  0  0  1  0  0  0  0  0999 V2000
  189.3140  177.0050  138.1110 C   0  0  0  0  0  0  0  0  0  0  0  0
  190.4840  176.1830  138.2130 N   0  0  0  0  0  0  0  0  0  0  0  0
  188.6300  177.3990  139.2700 C   0  0  0  0  0  0  0  0  0  0  0  0
  189.1960  177.3520  134.5060 O   0  0  0  0  0  0  0  0  0  0  0  0
  189.5000  178.6380  142.0820 O   0  0  0  0  0  1  0  0  0  0  0  0
  186.4460  178.5390  142.7150 N   0  0  0  0  0  2  0  0  0  0  0  0
  188.5940  177.6350  141.7300 C   0  0  1  0  0  3  0  0  0  0  0  0
  187.7140  178.2410  136.7610 C   0  0  0  0  0  3  0  0  0  0  0  0
  187.2210  178.2410  141.5530 C   0  0  0  0  0  0  0  0  0  0  0  0
  190.7710  176.0870  135.7650 C   0  0  0  0  0  2  0  0  0  0  0  0
  189.0520  176.9830  140.5390 O   0  0  0  0  0  0  0  0  0  0  0  0
  186.7660  178.5290  140.3660 N   0  0  0  0  0  0  0  0  0  0  0  0
  187.4910  178.2050  139.1730 C   0  0  0  0  0  0  0  0  0  0  0  0
  188.8530  177.4270  136.8530 C   0  0  0  0  0  0  0  0  0  0  0  0
  187.0310  178.6270  137.9210 C   0  0  0  0  0  3  0  0  0  0  0  0
  189.5770  176.9900  135.6500 C   0  0  0  0  0  0  0  0  0  0  0  0
  191.1640  175.7580  137.1830 C   0  0  0  0  0  0  0  0  0  0  0  0
  193.5720  175.4470  137.5510 C   0  0  0  0  0  3  0  0  0  0  0  0
  192.3610  174.9270  137.3780 C   0  0  0  0  0  3  0  0  0  0  0  0
  196.7040  174.2640  138.7520 C   0  0  0  0  0  2  0  0  0  0  0  0
  195.7760  174.5460  136.2600 S   0  0  0  0  0  0  0  0  0  0  0  0
  198.1530  175.3740  137.1480 N   0  0  0  0  0  1  0  0  0  0  0  0
  195.5150  174.9970  138.8280 O   0  0  0  0  0  0  0  0  0  0  0  0
  194.7460  174.5540  137.7470 C   0  0  1  0  0  3  0  0  0  0  0  0
  197.2120  174.2860  137.3280 C   0  0  1  0  0  0  0  0  0  0  0  0
  199.5950  172.7020  137.5480 O   0  0  0  0  0  1  0  0  0  0  0  0
  197.2360  171.5730  137.5620 O   0  0  0  0  0  1  0  0  0  0  0  0
  198.0160  172.7070  136.9320 P   0  0  0  0  0  0  0  0  0  0  0  0
  198.0550  172.4970  135.2510 O   0  0  0  0  0  0  0  0  0  0  0  0
  185.1470  179.2010  142.6610 C   0  0  0  0  0  2  0  0  0  0  0  0
  184.3780  178.9660  143.9530 C   0  0  2  0  0  3  0  0  0  0  0  0
  183.1260  179.5810  143.8620 O   0  0  0  0  0  1  0  0  0  0  0  0
  185.8630  178.7000  145.9850 C   0  0  0  0  0  0  0  0  0  0  0  0
  186.7920  176.8980  146.9340 C   0  0  0  0  0  2  0  0  0  0  0  0
  185.9300  177.4140  145.8790 N   0  0  0  0  0  0  0  0  0  0  0  0
  187.2100  178.1510  147.7250 C   0  0  2  0  0  3  0  0  0  0  0  0
  186.5880  179.2220  147.0330 O   0  0  0  0  0  0  0  0  0  0  0  0
  185.1130  179.5220  145.0830 N   0  0  0  0  0  2  0  0  0  0  0  0
  188.7290  178.3380  147.7580 C   0  0  0  0  0  2  0  0  0  0  0  0
  189.4820  177.0630  147.3690 C   0  0  0  0  0  2  0  0  0  0  0  0
  189.7510  178.3840  145.3780 O   0  0  0  0  0  1  0  0  0  0  0  0
  191.5470  176.9190  145.9260 C   0  0  0  0  0  1  0  0  0  0  0  0
  190.0460  177.1460  145.9490 C   0  0  1  0  0  3  0  0  0  0  0  0
  1  2  1  0  0  0  0
  1  3  1  0  0  0  0
  3 11  1  0  0  0  0
  4 16  2  0  0  0  0
  7  5  1  6  0  0  0
  8 14  1  0  0  0  0
  8 15  2  0  0  0  0
  9  7  1  0  0  0  0
  9  6  1  0  0  0  0
 10 17  1  0  0  0  0
 11  7  1  0  0  0  0
 12  9  2  0  0  0  0
 13  3  2  0  0  0  0
 13 12  1  0  0  0  0
 14  1  2  0  0  0  0
 15 13  1  0  0  0  0
 16 10  1  0  0  0  0
 16 14  1  0  0  0  0
 17 19  1  0  0  0  0
 17  2  2  0  0  0  0
 19 18  2  0  0  0  0
 20 23  1  0  0  0  0
 21 25  1  0  0  0  0
 21 24  1  0  0  0  0
 24 18  1  6  0  0  0
 24 23  1  0  0  0  0
 25 22  1  6  0  0  0
 25 20  1  0  0  0  0
 28 25  1  0  0  0  0
 28 26  1  0  0  0  0
 28 27  1  0  0  0  0
 29 28  2  0  0  0  0
 30  6  1  0  0  0  0
 30 31  1  0  0  0  0
 31 32  1  6  0  0  0
 31 38  1  0  0  0  0
 33 37  1  0  0  0  0
 34 36  1  0  0  0  0
 35 33  2  0  0  0  0
 35 34  1  0  0  0  0
 36 39  1  6  0  0  0
 37 36  1  0  0  0  0
 38 33  1  0  0  0  0
 40 39  1  0  0  0  0
 41 43  1  0  0  0  0
 43 42  1  1  0  0  0
 43 40  1  0  0  0  0
M  END
>  <MODEL>
3

>  <REMARK>
 VINA RESULT:      -8.3      2.167      4.730
  Name = 
  9 active torsions:
  status: ('A' for Active; 'I' for Inactive)
    1  A    between atoms: C_1  and  C_34
    2  A    between atoms: C_2  and  C_8
    3  A    between atoms: C_2  and  N_36
    4  A    between atoms: C_8  and  N_18
    5  A    between atoms: C_21  and  C_23
    6  A    between atoms: C_23  and  C_24
    7  A    between atoms: C_24  and  C_31
    8  A    between atoms: P_25  and  C_43
    9  A    between atoms: C_41  and  C_42
                            x       y       z     vdW  Elec       q    Type
                         _______ _______ _______ _____ _____    ______ ____

>  <TORSDO>
F 9

$$$$
=
 OpenBabel10232410273D

 43 47  0  0  1  0  0  0  0  0999 V2000
  188.6620  177.4770  138.5310 C   0  0  0  0  0  0  0  0  0  0  0  0
  189.9880  176.9570  138.3690 N   0  0  0  0  0  0  0  0  0  0  0  0
  188.1380  177.6710  139.8170 C   0  0  0  0  0  0  0  0  0  0  0  0
  187.7870  177.8590  135.0360 O   0  0  0  0  0  0  0  0  0  0  0  0
  189.2120  179.0250  142.5020 O   0  0  0  0  0  1  0  0  0  0  0  0
  186.4420  178.1840  143.6640 N   0  0  0  0  0  2  0  0  0  0  0  0
  188.5140  177.8420  142.2540 C   0  0  1  0  0  3  0  0  0  0  0  0
  186.5930  178.3190  137.5720 C   0  0  0  0  0  3  0  0  0  0  0  0
  187.0300  178.1040  142.3660 C   0  0  0  0  0  0  0  0  0  0  0  0
  189.8210  176.9830  135.9080 C   0  0  0  0  0  2  0  0  0  0  0  0
  188.8770  177.3430  140.9610 O   0  0  0  0  0  0  0  0  0  0  0  0
  186.3040  178.2980  141.3000 N   0  0  0  0  0  0  0  0  0  0  0  0
  186.8450  178.1820  139.9790 C   0  0  0  0  0  0  0  0  0  0  0  0
  187.8860  177.8000  137.4060 C   0  0  0  0  0  0  0  0  0  0  0  0
  186.0710  178.5060  138.8590 C   0  0  0  0  0  3  0  0  0  0  0  0
  188.4510  177.5750  136.0680 C   0  0  0  0  0  0  0  0  0  0  0  0
  190.5410  176.7290  137.2090 C   0  0  0  0  0  0  0  0  0  0  0  0
  192.2880  175.3140  136.2190 C   0  0  0  0  0  3  0  0  0  0  0  0
  191.9120  176.2060  137.1320 C   0  0  0  0  0  3  0  0  0  0  0  0
  195.0440  173.0690  136.3330 C   0  0  0  0  0  2  0  0  0  0  0  0
  194.5530  175.3120  137.7040 S   0  0  0  0  0  0  0  0  0  0  0  0
  195.3470  172.9850  138.7420 N   0  0  0  0  0  1  0  0  0  0  0  0
  193.7150  173.4300  136.0850 O   0  0  0  0  0  0  0  0  0  0  0  0
  193.6920  174.8240  136.1890 C   0  0  1  0  0  3  0  0  0  0  0  0
  195.5370  173.8020  137.5600 C   0  0  1  0  0  0  0  0  0  0  0  0
  197.4550  175.6660  136.5170 O   0  0  0  0  0  0  0  0  0  0  0  0
  197.9250  174.3730  138.7400 O   0  0  0  0  0  1  0  0  0  0  0  0
  197.2970  174.2110  137.3730 P   0  0  0  0  0  0  0  0  0  0  0  0
  198.0820  172.9650  136.5350 O   0  0  0  0  0  1  0  0  0  0  0  0
  185.0380  178.5150  143.8870 C   0  0  0  0  0  2  0  0  0  0  0  0
  184.7250  178.5270  145.3760 C   0  0  2  0  0  3  0  0  0  0  0  0
  183.5290  179.2160  145.5900 O   0  0  0  0  0  1  0  0  0  0  0  0
  186.6800  178.4590  146.9820 C   0  0  0  0  0  0  0  0  0  0  0  0
  187.6350  176.7750  148.1070 C   0  0  0  0  0  2  0  0  0  0  0  0
  186.5740  177.1880  147.1970 N   0  0  0  0  0  0  0  0  0  0  0  0
  188.3900  178.0790  148.4220 C   0  0  2  0  0  3  0  0  0  0  0  0
  187.7210  179.0630  147.6500 O   0  0  0  0  0  0  0  0  0  0  0  0
  185.8020  179.1800  146.1100 N   0  0  0  0  0  2  0  0  0  0  0  0
  189.8690  178.0010  148.0340 C   0  0  0  0  0  2  0  0  0  0  0  0
  190.2150  176.6970  147.3090 C   0  0  0  0  0  2  0  0  0  0  0  0
  192.3540  175.6470  146.9870 O   0  0  0  0  0  1  0  0  0  0  0  0
  191.4810  176.8620  145.1330 C   0  0  0  0  0  1  0  0  0  0  0  0
  191.5920  176.7640  146.6440 C   0  0  1  0  0  3  0  0  0  0  0  0
  1  3  1  0  0  0  0
  2  1  1  0  0  0  0
  3 13  2  0  0  0  0
  3 11  1  0  0  0  0
  4 16  2  0  0  0  0
  6 30  1  0  0  0  0
  7  9  1  0  0  0  0
  7  5  1  6  0  0  0
  8 15  2  0  0  0  0
  9  6  1  0  0  0  0
 10 16  1  0  0  0  0
 10 17  1  0  0  0  0
 11  7  1  0  0  0  0
 12  9  2  0  0  0  0
 13 12  1  0  0  0  0
 14  8  1  0  0  0  0
 14  1  2  0  0  0  0
 15 13  1  0  0  0  0
 16 14  1  0  0  0  0
 17  2  2  0  0  0  0
 18 19  2  0  0  0  0
 19 17  1  0  0  0  0
 20 25  1  0  0  0  0
 23 24  1  0  0  0  0
 23 20  1  0  0  0  0
 24 18  1  1  0  0  0
 24 21  1  0  0  0  0
 25 21  1  0  0  0  0
 25 22  1  1  0  0  0
 26 28  2  0  0  0  0
 28 25  1  0  0  0  0
 28 27  1  0  0  0  0
 29 28  1  0  0  0  0
 30 31  1  0  0  0  0
 31 32  1  6  0  0  0
 31 38  1  0  0  0  0
 33 35  2  0  0  0  0
 33 37  1  0  0  0  0
 34 36  1  0  0  0  0
 35 34  1  0  0  0  0
 36 39  1  6  0  0  0
 37 36  1  0  0  0  0
 38 33  1  0  0  0  0
 40 39  1  0  0  0  0
 43 42  1  6  0  0  0
 43 41  1  0  0  0  0
 43 40  1  0  0  0  0
M  END
>  <MODEL>
4

>  <REMARK>
 VINA RESULT:      -7.9      2.069      4.818
  Name = 
  9 active torsions:
  status: ('A' for Active; 'I' for Inactive)
    1  A    between atoms: C_1  and  C_34
    2  A    between atoms: C_2  and  C_8
    3  A    between atoms: C_2  and  N_36
    4  A    between atoms: C_8  and  N_18
    5  A    between atoms: C_21  and  C_23
    6  A    between atoms: C_23  and  C_24
    7  A    between atoms: C_24  and  C_31
    8  A    between atoms: P_25  and  C_43
    9  A    between atoms: C_41  and  C_42
                            x       y       z     vdW  Elec       q    Type
                         _______ _______ _______ _____ _____    ______ ____

>  <TORSDO>
F 9

$$$$
=
 OpenBabel10232410273D

 43 47  0  0  1  0  0  0  0  0999 V2000
  190.1040  176.7890  139.3720 C   0  0  0  0  0  0  0  0  0  0  0  0
  191.1850  175.9540  138.9380 N   0  0  0  0  0  0  0  0  0  0  0  0
  189.9140  177.0360  140.7390 C   0  0  0  0  0  0  0  0  0  0  0  0
  188.6920  177.5910  136.1330 O   0  0  0  0  0  0  0  0  0  0  0  0
  191.8170  177.9030  143.1530 O   0  0  0  0  0  1  0  0  0  0  0  0
  189.2070  177.7430  144.8550 N   0  0  0  0  0  2  0  0  0  0  0  0
  190.7940  176.9590  143.0480 C   0  0  1  0  0  3  0  0  0  0  0  0
  188.1880  178.1950  138.8630 C   0  0  0  0  0  3  0  0  0  0  0  0
  189.4860  177.5900  143.4630 C   0  0  0  0  0  0  0  0  0  0  0  0
  190.5500  176.1670  136.5650 C   0  0  0  0  0  2  0  0  0  0  0  0
  190.7490  176.4600  141.7050 O   0  0  0  0  0  0  0  0  0  0  0  0
  188.6430  178.0290  142.5700 N   0  0  0  0  0  0  0  0  0  0  0  0
  188.8620  177.8550  141.1650 C   0  0  0  0  0  0  0  0  0  0  0  0
  189.2370  177.3690  138.4320 C   0  0  0  0  0  0  0  0  0  0  0  0
  187.9980  178.4350  140.2300 C   0  0  0  0  0  3  0  0  0  0  0  0
  189.4460  177.0840  137.0050 C   0  0  0  0  0  0  0  0  0  0  0  0
  191.4180  175.6590  137.6880 C   0  0  0  0  0  0  0  0  0  0  0  0
  193.7520  174.9260  137.9000 C   0  0  0  0  0  3  0  0  0  0  0  0
  192.5580  174.8030  137.3290 C   0  0  0  0  0  3  0  0  0  0  0  0
  196.8620  173.2050  138.0170 C   0  0  0  0  0  2  0  0  0  0  0  0
  195.7900  174.7600  136.1240 S   0  0  0  0  0  0  0  0  0  0  0  0
  198.2770  174.9430  137.0770 N   0  0  0  0  0  1  0  0  0  0  0  0
  195.7390  173.8260  138.5720 O   0  0  0  0  0  0  0  0  0  0  0  0
  194.8680  174.0270  137.4970 C   0  0  1  0  0  3  0  0  0  0  0  0
  197.2720  173.9450  136.7640 C   0  0  1  0  0  0  0  0  0  0  0  0
  198.7850  173.6220  134.3460 O   0  0  0  0  0  0  0  0  0  0  0  0
  198.8650  171.8040  136.2230 O   0  0  0  0  0  1  0  0  0  0  0  0
  197.9280  172.7760  135.5390 P   0  0  0  0  0  0  0  0  0  0  0  0
  196.6480  171.9220  134.8290 O   0  0  0  0  0  1  0  0  0  0  0  0
  188.0150  178.4130  145.3630 C   0  0  0  0  0  2  0  0  0  0  0  0
  186.9760  177.3910  145.7990 C   0  0  2  0  0  3  0  0  0  0  0  0
  186.8100  176.4410  144.7880 O   0  0  0  0  0  1  0  0  0  0  0  0
  184.8450  178.5060  145.0090 C   0  0  0  0  0  0  0  0  0  0  0  0
  184.0450  178.9200  142.9600 C   0  0  0  0  0  2  0  0  0  0  0  0
  185.1400  178.3830  143.7560 N   0  0  0  0  0  0  0  0  0  0  0  0
  183.0330  179.4260  144.0040 C   0  0  2  0  0  3  0  0  0  0  0  0
  183.6260  179.0980  145.2500 O   0  0  0  0  0  0  0  0  0  0  0  0
  185.7030  178.0520  146.0620 N   0  0  0  0  0  2  0  0  0  0  0  0
  181.6650  178.7510  143.8610 C   0  0  0  0  0  2  0  0  0  0  0  0
  180.5720  179.7330  143.4330 C   0  0  0  0  0  2  0  0  0  0  0  0
  180.3200  180.5260  141.1770 O   0  0  0  0  0  1  0  0  0  0  0  0
  180.7070  178.1910  141.4410 C   0  0  0  0  0  1  0  0  0  0  0  0
  180.0680  179.4420  142.0180 C   0  0  1  0  0  3  0  0  0  0  0  0
  1  3  1  0  0  0  0
  2  1  1  0  0  0  0
  3 13  2  0  0  0  0
  3 11  1  0  0  0  0
  4 16  2  0  0  0  0
  6 30  1  0  0  0  0
  7  5  1  6  0  0  0
  7  9  1  0  0  0  0
  8 15  2  0  0  0  0
  9  6  1  0  0  0  0
 10 16  1  0  0  0  0
 10 17  1  0  0  0  0
 11  7  1  0  0  0  0
 12  9  2  0  0  0  0
 13 12  1  0  0  0  0
 14  8  1  0  0  0  0
 14  1  2  0  0  0  0
 15 13  1  0  0  0  0
 16 14  1  0  0  0  0
 17  2  2  0  0  0  0
 19 17  1  0  0  0  0
 19 18  2  0  0  0  0
 20 23  1  0  0  0  0
 21 25  1  0  0  0  0
 21 24  1  0  0  0  0
 24 18  1  1  0  0  0
 24 23  1  0  0  0  0
 25 22  1  1  0  0  0
 25 20  1  0  0  0  0
 26 28  2  0  0  0  0
 28 27  1  0  0  0  0
 28 25  1  0  0  0  0
 29 28  1  0  0  0  0
 30 31  1  0  0  0  0
 31 32  1  6  0  0  0
 31 38  1  0  0  0  0
 33 37  1  0  0  0  0
 33 38  1  0  0  0  0
 34 35  1  0  0  0  0
 34 36  1  0  0  0  0
 35 33  2  0  0  0  0
 36 39  1  6  0  0  0
 36 37  1  0  0  0  0
 40 39  1  0  0  0  0
 41 43  1  0  0  0  0
 43 42  1  6  0  0  0
 43 40  1  0  0  0  0
M  END
>  <MODEL>
5

>  <REMARK>
 VINA RESULT:      -7.7      1.836      2.160
  Name = 
  9 active torsions:
  status: ('A' for Active; 'I' for Inactive)
    1  A    between atoms: C_1  and  C_34
    2  A    between atoms: C_2  and  C_8
    3  A    between atoms: C_2  and  N_36
    4  A    between atoms: C_8  and  N_18
    5  A    between atoms: C_21  and  C_23
    6  A    between atoms: C_23  and  C_24
    7  A    between atoms: C_24  and  C_31
    8  A    between atoms: P_25  and  C_43
    9  A    between atoms: C_41  and  C_42
                            x       y       z     vdW  Elec       q    Type
                         _______ _______ _______ _____ _____    ______ ____

>  <TORSDO>
F 9

$$$$
=
 OpenBabel10232410273D

 43 47  0  0  1  0  0  0  0  0999 V2000
  188.5540  177.8460  140.9610 C   0  0  0  0  0  0  0  0  0  0  0  0
  189.7140  177.6890  140.1330 N   0  0  0  0  0  0  0  0  0  0  0  0
  187.3310  178.2250  140.3890 C   0  0  0  0  0  0  0  0  0  0  0  0
  190.0400  177.0070  144.1570 O   0  0  0  0  0  0  0  0  0  0  0  0
  185.6400  177.2680  137.8560 O   0  0  0  0  0  1  0  0  0  0  0  0
  183.6290  179.4760  138.7570 N   0  0  0  0  0  2  0  0  0  0  0  0
  185.9430  178.5310  138.3680 C   0  0  1  0  0  3  0  0  0  0  0  0
  187.4940  177.7570  143.1460 C   0  0  0  0  0  3  0  0  0  0  0  0
  184.8430  178.9670  139.3080 C   0  0  0  0  0  0  0  0  0  0  0  0
  191.1510  177.1170  142.0550 C   0  0  0  0  0  2  0  0  0  0  0  0
  187.2190  178.4830  139.0170 O   0  0  0  0  0  0  0  0  0  0  0  0
  184.9790  178.8400  140.5990 N   0  0  0  0  0  0  0  0  0  0  0  0
  186.1970  178.3760  141.1940 C   0  0  0  0  0  0  0  0  0  0  0  0
  188.6350  177.6130  142.3430 C   0  0  0  0  0  0  0  0  0  0  0  0
  186.2750  178.1430  142.5710 C   0  0  0  0  0  3  0  0  0  0  0  0
  189.9310  177.2300  142.9220 C   0  0  0  0  0  0  0  0  0  0  0  0
  190.8920  177.3580  140.5890 C   0  0  0  0  0  0  0  0  0  0  0  0
  191.9350  176.5310  138.5260 C   0  0  0  0  0  3  0  0  0  0  0  0
  192.0270  177.2060  139.6680 C   0  0  0  0  0  3  0  0  0  0  0  0
  193.8700  175.8670  135.6160 C   0  0  0  0  0  2  0  0  0  0  0  0
  194.1420  175.0090  138.1340 S   0  0  0  0  0  0  0  0  0  0  0  0
  194.2190  173.4840  135.9450 N   0  0  0  0  0  1  0  0  0  0  0  0
  192.7090  176.2250  136.3090 O   0  0  0  0  0  0  0  0  0  0  0  0
  193.1190  176.4140  137.6310 C   0  0  1  0  0  3  0  0  0  0  0  0
  194.6090  174.8050  136.4000 C   0  0  1  0  0  0  0  0  0  0  0  0
  196.7210  176.5580  135.5620 O   0  0  0  0  0  1  0  0  0  0  0  0
  197.0770  174.8910  137.5450 O   0  0  0  0  0  1  0  0  0  0  0  0
  196.4000  175.0190  136.1980 P   0  0  0  0  0  0  0  0  0  0  0  0
  196.9990  173.8290  135.1510 O   0  0  0  0  0  0  0  0  0  0  0  0
  182.4750  179.8450  139.5700 C   0  0  0  0  0  2  0  0  0  0  0  0
  181.3170  178.8920  139.3130 C   0  0  2  0  0  3  0  0  0  0  0  0
  180.2780  179.1790  140.2020 O   0  0  0  0  0  1  0  0  0  0  0  0
  181.4940  176.4920  138.5300 C   0  0  0  0  0  0  0  0  0  0  0  0
  180.7890  175.4700  136.6670 C   0  0  0  0  0  2  0  0  0  0  0  0
  180.8470  176.7090  137.4320 N   0  0  0  0  0  0  0  0  0  0  0  0
  181.5170  174.4450  137.5550 C   0  0  2  0  0  3  0  0  0  0  0  0
  181.9330  175.1960  138.6840 O   0  0  0  0  0  0  0  0  0  0  0  0
  181.7520  177.5130  139.5000 N   0  0  0  0  0  2  0  0  0  0  0  0
  182.7220  173.8170  136.8500 C   0  0  0  0  0  2  0  0  0  0  0  0
  184.0370  174.0970  137.5810 C   0  0  0  0  0  2  0  0  0  0  0  0
  184.4050  171.8290  136.8710 O   0  0  0  0  0  1  0  0  0  0  0  0
  186.3520  173.1260  137.3200 C   0  0  0  0  0  1  0  0  0  0  0  0
  184.9070  172.8420  137.6890 C   0  0  1  0  0  3  0  0  0  0  0  0
  1 14  1  0  0  0  0
  2 17  2  0  0  0  0
  2  1  1  0  0  0  0
  3  1  2  0  0  0  0
  3 13  1  0  0  0  0
  6  9  1  0  0  0  0
  6 30  1  0  0  0  0
  7  5  1  1  0  0  0
  7 11  1  0  0  0  0
  7  9  1  0  0  0  0
  9 12  2  0  0  0  0
 10 16  1  0  0  0  0
 11  3  1  0  0  0  0
 12 13  1  0  0  0  0
 13 15  2  0  0  0  0
 14 16  1  0  0  0  0
 14  8  2  0  0  0  0
 15  8  1  0  0  0  0
 16  4  2  0  0  0  0
 17 10  1  0  0  0  0
 18 19  2  0  0  0  0
 19 17  1  0  0  0  0
 20 23  1  0  0  0  0
 20 25  1  0  0  0  0
 23 24  1  0  0  0  0
 24 21  1  0  0  0  0
 24 18  1  1  0  0  0
 25 22  1  6  0  0  0
 25 21  1  0  0  0  0
 26 28  1  0  0  0  0
 28 25  1  0  0  0  0
 28 27  1  0  0  0  0
 29 28  2  0  0  0  0
 31 38  1  0  0  0  0
 31 30  1  0  0  0  0
 31 32  1  1  0  0  0
 33 37  1  0  0  0  0
 33 38  1  0  0  0  0
 34 35  1  0  0  0  0
 34 36  1  0  0  0  0
 35 33  2  0  0  0  0
 36 39  1  6  0  0  0
 36 37  1  0  0  0  0
 39 40  1  0  0  0  0
 40 43  1  0  0  0  0
 41 43  1  0  0  0  0
 43 42  1  6  0  0  0
M  END
>  <MODEL>
6

>  <REMARK>
 VINA RESULT:      -7.6      3.817      6.341
  Name = 
  9 active torsions:
  status: ('A' for Active; 'I' for Inactive)
    1  A    between atoms: C_1  and  C_34
    2  A    between atoms: C_2  and  C_8
    3  A    between atoms: C_2  and  N_36
    4  A    between atoms: C_8  and  N_18
    5  A    between atoms: C_21  and  C_23
    6  A    between atoms: C_23  and  C_24
    7  A    between atoms: C_24  and  C_31
    8  A    between atoms: P_25  and  C_43
    9  A    between atoms: C_41  and  C_42
                            x       y       z     vdW  Elec       q    Type
                         _______ _______ _______ _____ _____    ______ ____

>  <TORSDO>
F 9

$$$$
=
 OpenBabel10232410273D

 43 47  0  0  1  0  0  0  0  0999 V2000
  190.1480  176.9910  139.3380 C   0  0  0  0  0  0  0  0  0  0  0  0
  191.5220  176.6750  139.0740 N   0  0  0  0  0  0  0  0  0  0  0  0
  189.6850  177.0580  140.6590 C   0  0  0  0  0  0  0  0  0  0  0  0
  189.0060  177.3810  135.9210 O   0  0  0  0  0  0  0  0  0  0  0  0
  190.7270  178.4450  143.3400 O   0  0  0  0  0  1  0  0  0  0  0  0
  188.1830  177.1680  144.6170 N   0  0  0  0  0  2  0  0  0  0  0  0
  190.1890  177.1840  143.0760 C   0  0  1  0  0  3  0  0  0  0  0  0
  187.9250  177.5650  138.5410 C   0  0  0  0  0  3  0  0  0  0  0  0
  188.6930  177.2250  143.2850 C   0  0  0  0  0  0  0  0  0  0  0  0
  191.1950  176.7730  136.6310 C   0  0  0  0  0  2  0  0  0  0  0  0
  190.5350  176.7940  141.7410 O   0  0  0  0  0  0  0  0  0  0  0  0
  187.8800  177.3550  142.2740 N   0  0  0  0  0  0  0  0  0  0  0  0
  188.3470  177.3710  140.9200 C   0  0  0  0  0  0  0  0  0  0  0  0
  189.2640  177.2440  138.2760 C   0  0  0  0  0  0  0  0  0  0  0  0
  187.4650  177.6240  139.8630 C   0  0  0  0  0  3  0  0  0  0  0  0
  189.7680  177.1550  136.8980 C   0  0  0  0  0  0  0  0  0  0  0  0
  192.0260  176.5740  137.8740 C   0  0  0  0  0  0  0  0  0  0  0  0
  193.9100  175.6200  136.6200 C   0  0  0  0  0  3  0  0  0  0  0  0
  193.4490  176.2570  137.6930 C   0  0  0  0  0  3  0  0  0  0  0  0
  196.9200  174.0390  135.5770 C   0  0  0  0  0  2  0  0  0  0  0  0
  195.9870  174.5910  138.0210 S   0  0  0  0  0  0  0  0  0  0  0  0
  196.9790  172.2480  137.2180 N   0  0  0  0  0  1  0  0  0  0  0  0
  195.5870  174.4420  135.4360 O   0  0  0  0  0  0  0  0  0  0  0  0
  195.3640  175.3300  136.4920 C   0  0  1  0  0  3  0  0  0  0  0  0
  197.1780  173.6700  137.0210 C   0  0  1  0  0  0  0  0  0  0  0  0
  199.7950  172.7180  137.7150 O   0  0  0  0  0  1  0  0  0  0  0  0
  199.4970  174.9420  136.3730 O   0  0  0  0  0  0  0  0  0  0  0  0
  198.8740  174.1220  137.4830 P   0  0  0  0  0  0  0  0  0  0  0  0
  198.8490  175.0340  138.9110 O   0  0  0  0  0  1  0  0  0  0  0  0
  186.7650  177.2850  144.9370 C   0  0  0  0  0  2  0  0  0  0  0  0
  186.1570  178.4860  144.2280 C   0  0  2  0  0  3  0  0  0  0  0  0
  185.9920  179.5280  145.1440 O   0  0  0  0  0  1  0  0  0  0  0  0
  184.4620  178.5540  142.3490 C   0  0  0  0  0  0  0  0  0  0  0  0
  184.5070  179.5140  140.3270 C   0  0  0  0  0  2  0  0  0  0  0  0
  185.2020  179.2940  141.5890 N   0  0  0  0  0  0  0  0  0  0  0  0
  183.1700  178.7710  140.4980 C   0  0  2  0  0  3  0  0  0  0  0  0
  183.2570  178.1910  141.7900 O   0  0  0  0  0  0  0  0  0  0  0  0
  184.8640  178.1300  143.6560 N   0  0  0  0  0  2  0  0  0  0  0  0
  182.9660  177.6900  139.4330 C   0  0  0  0  0  2  0  0  0  0  0  0
  183.6340  178.0470  138.1030 C   0  0  0  0  0  2  0  0  0  0  0  0
  183.7560  175.7180  137.5180 O   0  0  0  0  0  1  0  0  0  0  0  0
  185.0650  177.2100  136.2010 C   0  0  0  0  0  1  0  0  0  0  0  0
  184.4970  176.8990  137.5740 C   0  0  1  0  0  3  0  0  0  0  0  0
  1  3  1  0  0  0  0
  2  1  1  0  0  0  0
  3 13  2  0  0  0  0
  3 11  1  0  0  0  0
  4 16  2  0  0  0  0
  6 30  1  0  0  0  0
  7  9  1  0  0  0  0
  7  5  1  6  0  0  0
  8 15  2  0  0  0  0
  9  6  1  0  0  0  0
 10 16  1  0  0  0  0
 10 17  1  0  0  0  0
 11  7  1  0  0  0  0
 12  9  2  0  0  0  0
 13 12  1  0  0  0  0
 14  8  1  0  0  0  0
 14  1  2  0  0  0  0
 15 13  1  0  0  0  0
 16 14  1  0  0  0  0
 17  2  2  0  0  0  0
 18 19  2  0  0  0  0
 19 17  1  0  0  0  0
 20 25  1  0  0  0  0
 23 20  1  0  0  0  0
 23 24  1  0  0  0  0
 24 18  1  1  0  0  0
 24 21  1  0  0  0  0
 25 22  1  1  0  0  0
 25 28  1  0  0  0  0
 25 21  1  0  0  0  0
 27 28  2  0  0  0  0
 28 26  1  0  0  0  0
 28 29  1  0  0  0  0
 31 30  1  0  0  0  0
 31 32  1  1  0  0  0
 33 38  1  0  0  0  0
 34 36  1  0  0  0  0
 34 35  1  0  0  0  0
 35 33  2  0  0  0  0
 36 39  1  6  0  0  0
 36 37  1  0  0  0  0
 37 33  1  0  0  0  0
 38 31  1  0  0  0  0
 40 39  1  0  0  0  0
 41 43  1  0  0  0  0
 43 42  1  6  0  0  0
 43 40  1  0  0  0  0
M  END
>  <MODEL>
7

>  <REMARK>
 VINA RESULT:      -6.8      2.309      3.341
  Name = 
  9 active torsions:
  status: ('A' for Active; 'I' for Inactive)
    1  A    between atoms: C_1  and  C_34
    2  A    between atoms: C_2  and  C_8
    3  A    between atoms: C_2  and  N_36
    4  A    between atoms: C_8  and  N_18
    5  A    between atoms: C_21  and  C_23
    6  A    between atoms: C_23  and  C_24
    7  A    between atoms: C_24  and  C_31
    8  A    between atoms: P_25  and  C_43
    9  A    between atoms: C_41  and  C_42
                            x       y       z     vdW  Elec       q    Type
                         _______ _______ _______ _____ _____    ______ ____

>  <TORSDO>
F 9

$$$$
=
 OpenBabel10232410273D

 43 47  0  0  1  0  0  0  0  0999 V2000
  188.3260  177.5950  143.0290 C   0  0  0  0  0  0  0  0  0  0  0  0
  189.1720  177.5350  141.8730 N   0  0  0  0  0  0  0  0  0  0  0  0
  186.9880  177.9930  142.8990 C   0  0  0  0  0  0  0  0  0  0  0  0
  190.7250  176.5240  145.5250 O   0  0  0  0  0  0  0  0  0  0  0  0
  184.5910  177.2140  140.9380 O   0  0  0  0  0  1  0  0  0  0  0  0
  182.9680  179.2910  142.6060 N   0  0  0  0  0  2  0  0  0  0  0  0
  185.0430  178.4360  141.4400 C   0  0  1  0  0  3  0  0  0  0  0  0
  187.9940  177.2970  145.4180 C   0  0  0  0  0  3  0  0  0  0  0  0
  184.2910  178.7650  142.7080 C   0  0  0  0  0  0  0  0  0  0  0  0
  191.1310  176.8370  143.2000 C   0  0  0  0  0  2  0  0  0  0  0  0
  186.4580  178.3630  141.6560 O   0  0  0  0  0  0  0  0  0  0  0  0
  184.8190  178.5330  143.8770 N   0  0  0  0  0  0  0  0  0  0  0  0
  186.1590  178.0480  144.0240 C   0  0  0  0  0  0  0  0  0  0  0  0
  188.8300  177.2480  144.2930 C   0  0  0  0  0  0  0  0  0  0  0  0
  186.6590  177.7010  145.2840 C   0  0  0  0  0  3  0  0  0  0  0  0
  190.2400  176.8470  144.4080 C   0  0  0  0  0  0  0  0  0  0  0  0
  190.4320  177.1940  141.9130 C   0  0  0  0  0  0  0  0  0  0  0  0
  190.6740  176.9680  139.4790 C   0  0  0  0  0  3  0  0  0  0  0  0
  191.2250  177.1470  140.6760 C   0  0  0  0  0  3  0  0  0  0  0  0
  191.7930  176.1360  136.2070 C   0  0  0  0  0  2  0  0  0  0  0  0
  193.0180  175.9550  138.5770 S   0  0  0  0  0  0  0  0  0  0  0  0
  192.9030  174.0380  136.7240 N   0  0  0  0  0  1  0  0  0  0  0  0
  190.8290  176.3610  137.1960 O   0  0  0  0  0  0  0  0  0  0  0  0
  191.5290  176.9330  138.2620 C   0  0  1  0  0  3  0  0  0  0  0  0
  193.0030  175.4800  136.8330 C   0  0  1  0  0  0  0  0  0  0  0  0
  195.8700  175.3610  136.7570 O   0  0  0  0  0  1  0  0  0  0  0  0
  194.4870  175.6370  134.5550 O   0  0  0  0  0  0  0  0  0  0  0  0
  194.5160  176.0550  136.0090 P   0  0  0  0  0  0  0  0  0  0  0  0
  194.6080  177.7440  136.1090 O   0  0  0  0  0  1  0  0  0  0  0  0
  182.1230  179.5630  143.7640 C   0  0  0  0  0  2  0  0  0  0  0  0
  180.6550  179.3960  143.4030 C   0  0  2  0  0  3  0  0  0  0  0  0
  179.9820  178.8000  144.4720 O   0  0  0  0  0  1  0  0  0  0  0  0
  180.3920  179.1140  140.9010 C   0  0  0  0  0  0  0  0  0  0  0  0
  180.2520  180.6010  139.2340 C   0  0  0  0  0  2  0  0  0  0  0  0
  180.3650  180.3860  140.6710 N   0  0  0  0  0  0  0  0  0  0  0  0
  180.1860  179.1810  138.6440 C   0  0  2  0  0  3  0  0  0  0  0  0
  180.3020  178.3300  139.7730 O   0  0  0  0  0  0  0  0  0  0  0  0
  180.5220  178.5610  142.2160 N   0  0  0  0  0  2  0  0  0  0  0  0
  181.3170  178.9130  137.6470 C   0  0  0  0  0  2  0  0  0  0  0  0
  182.4030  178.0020  138.2270 C   0  0  0  0  0  2  0  0  0  0  0  0
  184.6240  178.9190  138.1520 O   0  0  0  0  0  1  0  0  0  0  0  0
  184.3370  176.7620  137.1840 C   0  0  0  0  0  1  0  0  0  0  0  0
  183.7180  178.1220  137.4530 C   0  0  1  0  0  3  0  0  0  0  0  0
  1 14  1  0  0  0  0
  2 17  2  0  0  0  0
  2  1  1  0  0  0  0
  3  1  2  0  0  0  0
  3 13  1  0  0  0  0
  6  9  1  0  0  0  0
  6 30  1  0  0  0  0
  7  5  1  1  0  0  0
  7 11  1  0  0  0  0
  7  9  1  0  0  0  0
  9 12  2  0  0  0  0
 10 16  1  0  0  0  0
 11  3  1  0  0  0  0
 12 13  1  0  0  0  0
 13 15  2  0  0  0  0
 14 16  1  0  0  0  0
 14  8  2  0  0  0  0
 15  8  1  0  0  0  0
 16  4  2  0  0  0  0
 17 10  1  0  0  0  0
 18 19  2  0  0  0  0
 19 17  1  0  0  0  0
 20 25  1  0  0  0  0
 20 23  1  0  0  0  0
 23 24  1  0  0  0  0
 24 21  1  0  0  0  0
 24 18  1  1  0  0  0
 25 22  1  6  0  0  0
 25 21  1  0  0  0  0
 27 28  2  0  0  0  0
 28 29  1  0  0  0  0
 28 26  1  0  0  0  0
 28 25  1  0  0  0  0
 31 30  1  0  0  0  0
 31 32  1  1  0  0  0
 33 38  1  0  0  0  0
 34 35  1  0  0  0  0
 35 33  2  0  0  0  0
 36 39  1  6  0  0  0
 36 34  1  0  0  0  0
 36 37  1  0  0  0  0
 37 33  1  0  0  0  0
 38 31  1  0  0  0  0
 39 40  1  0  0  0  0
 43 42  1  1  0  0  0
 43 41  1  0  0  0  0
 43 40  1  0  0  0  0
M  END
>  <MODEL>
8

>  <REMARK>
 VINA RESULT:      -6.7      2.845      5.401
  Name = 
  9 active torsions:
  status: ('A' for Active; 'I' for Inactive)
    1  A    between atoms: C_1  and  C_34
    2  A    between atoms: C_2  and  C_8
    3  A    between atoms: C_2  and  N_36
    4  A    between atoms: C_8  and  N_18
    5  A    between atoms: C_21  and  C_23
    6  A    between atoms: C_23  and  C_24
    7  A    between atoms: C_24  and  C_31
    8  A    between atoms: P_25  and  C_43
    9  A    between atoms: C_41  and  C_42
                            x       y       z     vdW  Elec       q    Type
                         _______ _______ _______ _____ _____    ______ ____

>  <TORSDO>
F 9

$$$$
