=
 OpenBabel10232412223D

 38 40  0  0  1  0  0  0  0  0999 V2000
  185.0570  178.0290  143.1560 C   0  0  1  0  0  3  0  0  0  0  0  0
  187.3580  178.2550  141.9880 N   0  0  0  0  0  0  0  0  0  0  0  0
  185.1300  178.9940  145.6010 C   0  0  0  0  0  3  0  0  0  0  0  0
  187.2650  177.4450  144.1030 C   0  0  2  0  0  3  0  0  0  0  0  0
  188.7210  177.4660  143.7860 C   0  0  1  0  0  3  0  0  0  0  0  0
  186.5510  177.8880  143.0940 C   0  0  0  0  0  0  0  0  0  0  0  0
  188.7480  178.0130  142.3500 C   0  0  1  0  0  3  0  0  0  0  0  0
  184.6460  179.0470  144.2030 C   0  0  0  0  0  0  0  0  0  0  0  0
  186.0070  178.1270  146.1250 C   0  0  0  0  0  3  0  0  0  0  0  0
  186.6610  176.9900  145.3930 C   0  0  0  0  0  2  0  0  0  0  0  0
  183.8510  179.9770  143.8980 O   0  0  0  0  0  0  0  0  0  0  0  0
  189.3740  177.0150  141.4210 C   0  0  0  0  0  0  0  0  0  0  0  0
  189.5060  177.3080  140.0170 N   0  0  0  0  0  0  0  0  0  0  0  0
  189.8290  175.9330  141.8870 O   0  0  0  0  0  0  0  0  0  0  0  0
  190.2530  176.4190  139.1380 C   0  0  0  0  0  2  0  0  0  0  0  0
  191.7140  176.8220  139.1050 C   0  0  0  0  0  2  0  0  0  0  0  0
  192.2860  176.5240  137.7340 C   0  0  0  0  0  2  0  0  0  0  0  0
  194.4050  175.5710  138.2520 O   0  0  0  0  0  0  0  0  0  0  0  0
  191.5690  173.8010  136.9160 N   0  0  0  0  0  1  0  0  0  0  0  0
  192.8550  174.0700  137.3990 N   0  0  0  0  0  2  0  0  0  0  0  0
  193.2390  175.3790  137.8180 C   0  0  0  0  0  0  0  0  0  0  0  0
  189.0460  178.5770  139.4710 C   0  0  0  0  0  2  0  0  0  0  0  0
  188.8230  179.6150  137.3340 O   0  0  0  0  0  1  0  0  0  0  0  0
  188.6420  178.4110  138.0150 C   0  0  2  0  0  3  0  0  0  0  0  0
  186.9340  176.8200  137.5510 O   0  0  0  0  0  0  0  0  0  0  0  0
  187.2160  177.9900  137.9210 C   0  0  0  0  0  0  0  0  0  0  0  0
  186.1920  178.8890  138.2060 O   0  0  0  0  0  1  0  0  0  0  0  0
  184.4770  178.3050  141.8270 C   0  0  0  0  0  0  0  0  0  0  0  0
  184.0210  178.5210  140.7850 N   0  0  0  0  0  0  0  0  0  0  0  0
  189.4430  178.4290  144.7200 C   0  0  0  0  0  2  0  0  0  0  0  0
  190.7310  178.9390  144.0870 C   0  0  0  0  0  2  0  0  0  0  0  0
  191.7970  178.0150  144.2900 O   0  0  0  0  0  0  0  0  0  0  0  0
  191.9580  175.6890  145.2010 C   0  0  0  0  0  0  0  0  0  0  0  0
  191.7110  177.4520  146.5880 N   0  0  0  0  0  0  0  0  0  0  0  0
  192.0870  175.0810  144.1080 O   0  0  0  0  0  0  0  0  0  0  0  0
  191.7550  176.2750  147.4580 C   0  0  0  0  0  3  0  0  0  0  0  0
  191.9370  175.0580  146.5380 C   0  0  0  0  0  3  0  0  0  0  0  0
  191.8170  177.1080  145.3520 C   0  0  0  0  0  0  0  0  0  0  0  0
  1 28  1  6  0  0  0
  1  8  1  0  0  0  0
  2  7  1  0  0  0  0
  2  6  2  0  0  0  0
  3  9  2  0  0  0  0
  4 10  1  1  0  0  0
  5  4  1  0  0  0  0
  5 30  1  1  0  0  0
  6  1  1  0  0  0  0
  6  4  1  0  0  0  0
  7 12  1  6  0  0  0
  7  5  1  0  0  0  0
  8  3  1  0  0  0  0
 10  9  1  0  0  0  0
 11  8  2  0  0  0  0
 12 14  2  0  0  0  0
 13 12  1  0  0  0  0
 15 13  1  0  0  0  0
 16 15  1  0  0  0  0
 17 21  1  0  0  0  0
 17 16  1  0  0  0  0
 19 20  1  0  0  0  0
 20 21  1  0  0  0  0
 21 18  2  0  0  0  0
 22 13  1  0  0  0  0
 24 23  1  6  0  0  0
 24 22  1  0  0  0  0
 25 26  2  0  0  0  0
 26 24  1  0  0  0  0
 26 27  1  0  0  0  0
 29 28  3  0  0  0  0
 31 32  1  0  0  0  0
 31 30  1  0  0  0  0
 32 38  1  0  0  0  0
 33 38  1  0  0  0  0
 33 37  1  0  0  0  0
 34 36  1  0  0  0  0
 35 33  2  0  0  0  0
 37 36  2  0  0  0  0
 38 34  2  0  0  0  0
M  END
>  <MODEL>
1

>  <REMARK>
 VINA RESULT:      -8.3      0.000      0.000
  Name = 
  13 active torsions:
  status: ('A' for Active; 'I' for Inactive)
    1  A    between atoms: C_1  and  C_26
    2  A    between atoms: N_2  and  C_6
    3  A    between atoms: N_2  and  C_12
    4  A    between atoms: C_5  and  C_7
    5  A    between atoms: C_6  and  C_30
    6  A    between atoms: C_12  and  C_36
    7  A    between atoms: C_16  and  C_22
    8  A    between atoms: C_18  and  C_24
    9  A    between atoms: C_18  and  C_30
   10  A    between atoms: C_20  and  C_22
   11  A    between atoms: C_20  and  O_32
   12  A    between atoms: C_23  and  C_36
   13  A    between atoms: C_27  and  O_32
                            x       y       z     vdW  Elec       q    Type
                         _______ _______ _______ _____ _____    ______ ____

>  <TORSDO>
F 13

$$$$
=
 OpenBabel10232412223D

 38 40  0  0  1  0  0  0  0  0999 V2000
  185.4320  177.9170  143.6640 C   0  0  1  0  0  3  0  0  0  0  0  0
  186.8650  178.8970  141.7420 N   0  0  0  0  0  0  0  0  0  0  0  0
  186.6740  178.1150  145.9740 C   0  0  0  0  0  3  0  0  0  0  0  0
  187.8320  177.4970  143.2400 C   0  0  2  0  0  3  0  0  0  0  0  0
  188.9470  177.8780  142.3280 C   0  0  1  0  0  3  0  0  0  0  0  0
  186.7080  178.0780  142.8880 C   0  0  0  0  0  0  0  0  0  0  0  0
  188.2600  178.8190  141.3260 C   0  0  1  0  0  3  0  0  0  0  0  0
  185.5670  178.4880  145.0630 C   0  0  0  0  0  0  0  0  0  0  0  0
  187.7100  177.3090  145.7060 C   0  0  0  0  0  3  0  0  0  0  0  0
  187.9430  176.5790  144.4150 C   0  0  0  0  0  2  0  0  0  0  0  0
  184.7080  179.3030  145.4950 O   0  0  0  0  0  0  0  0  0  0  0  0
  188.3680  178.2720  139.9320 C   0  0  0  0  0  0  0  0  0  0  0  0
  187.1860  178.0440  139.1440 N   0  0  0  0  0  0  0  0  0  0  0  0
  189.5100  178.0580  139.4380 O   0  0  0  0  0  0  0  0  0  0  0  0
  187.2880  177.6690  137.7400 C   0  0  0  0  0  2  0  0  0  0  0  0
  187.4300  176.1650  137.6090 C   0  0  0  0  0  2  0  0  0  0  0  0
  188.6290  175.8490  136.7380 C   0  0  0  0  0  2  0  0  0  0  0  0
  188.2730  173.5100  136.4730 O   0  0  0  0  0  0  0  0  0  0  0  0
  191.1020  175.0400  138.0900 N   0  0  0  0  0  1  0  0  0  0  0  0
  190.2300  174.0680  137.5880 N   0  0  0  0  0  2  0  0  0  0  0  0
  189.0230  174.4210  136.9140 C   0  0  0  0  0  0  0  0  0  0  0  0
  185.8630  178.3470  139.6730 C   0  0  0  0  0  2  0  0  0  0  0  0
  184.4820  180.1370  138.9120 O   0  0  0  0  0  1  0  0  0  0  0  0
  184.9600  178.8730  138.5690 C   0  0  2  0  0  3  0  0  0  0  0  0
  183.2260  177.9280  137.2400 O   0  0  0  0  0  0  0  0  0  0  0  0
  183.8150  177.9450  138.3530 C   0  0  0  0  0  0  0  0  0  0  0  0
  183.3680  177.1200  139.3820 O   0  0  0  0  0  1  0  0  0  0  0  0
  184.2720  178.4600  142.9310 C   0  0  0  0  0  0  0  0  0  0  0  0
  183.3630  178.8860  142.3550 N   0  0  0  0  0  0  0  0  0  0  0  0
  190.0150  178.6380  143.1020 C   0  0  0  0  0  2  0  0  0  0  0  0
  191.3680  177.9460  142.9870 C   0  0  0  0  0  2  0  0  0  0  0  0
  191.3320  176.6570  143.5940 O   0  0  0  0  0  0  0  0  0  0  0  0
  192.0960  175.2920  145.5480 C   0  0  0  0  0  0  0  0  0  0  0  0
  191.1690  177.3250  145.8600 N   0  0  0  0  0  0  0  0  0  0  0  0
  192.5260  174.2960  144.9100 O   0  0  0  0  0  0  0  0  0  0  0  0
  191.4760  176.8270  147.2020 C   0  0  0  0  0  3  0  0  0  0  0  0
  192.1230  175.4450  147.0180 C   0  0  0  0  0  3  0  0  0  0  0  0
  191.5110  176.4640  144.9650 C   0  0  0  0  0  0  0  0  0  0  0  0
  1 28  1  6  0  0  0
  1  8  1  0  0  0  0
  2  6  2  0  0  0  0
  4 10  1  1  0  0  0
  5 30  1  1  0  0  0
  5  4  1  0  0  0  0
  6  4  1  0  0  0  0
  6  1  1  0  0  0  0
  7 12  1  6  0  0  0
  7  2  1  0  0  0  0
  7  5  1  0  0  0  0
  8 11  2  0  0  0  0
  8  3  1  0  0  0  0
  9  3  2  0  0  0  0
 10  9  1  0  0  0  0
 13 22  1  0  0  0  0
 13 12  1  0  0  0  0
 14 12  2  0  0  0  0
 15 13  1  0  0  0  0
 16 15  1  0  0  0  0
 17 21  1  0  0  0  0
 17 16  1  0  0  0  0
 18 21  2  0  0  0  0
 20 19  1  0  0  0  0
 21 20  1  0  0  0  0
 24 23  1  1  0  0  0
 24 22  1  0  0  0  0
 25 26  2  0  0  0  0
 26 24  1  0  0  0  0
 26 27  1  0  0  0  0
 29 28  3  0  0  0  0
 31 30  1  0  0  0  0
 31 32  1  0  0  0  0
 32 38  1  0  0  0  0
 33 37  1  0  0  0  0
 34 36  1  0  0  0  0
 35 33  2  0  0  0  0
 37 36  2  0  0  0  0
 38 33  1  0  0  0  0
 38 34  2  0  0  0  0
M  END
>  <MODEL>
2

>  <REMARK>
 VINA RESULT:      -7.1      2.071      2.659
  Name = 
  13 active torsions:
  status: ('A' for Active; 'I' for Inactive)
    1  A    between atoms: C_1  and  C_26
    2  A    between atoms: N_2  and  C_6
    3  A    between atoms: N_2  and  C_12
    4  A    between atoms: C_5  and  C_7
    5  A    between atoms: C_6  and  C_30
    6  A    between atoms: C_12  and  C_36
    7  A    between atoms: C_16  and  C_22
    8  A    between atoms: C_18  and  C_24
    9  A    between atoms: C_18  and  C_30
   10  A    between atoms: C_20  and  C_22
   11  A    between atoms: C_20  and  O_32
   12  A    between atoms: C_23  and  C_36
   13  A    between atoms: C_27  and  O_32
                            x       y       z     vdW  Elec       q    Type
                         _______ _______ _______ _____ _____    ______ ____

>  <TORSDO>
F 13

$$$$
=
 OpenBabel10232412223D

 38 40  0  0  1  0  0  0  0  0999 V2000
  185.2750  178.0070  143.1570 C   0  0  1  0  0  3  0  0  0  0  0  0
  187.4340  178.3180  141.7610 N   0  0  0  0  0  0  0  0  0  0  0  0
  185.5660  178.9660  145.5880 C   0  0  0  0  0  3  0  0  0  0  0  0
  187.5890  177.4980  143.8680 C   0  0  2  0  0  3  0  0  0  0  0  0
  189.0020  177.5720  143.4040 C   0  0  1  0  0  3  0  0  0  0  0  0
  186.7590  177.9190  142.9410 C   0  0  0  0  0  0  0  0  0  0  0  0
  188.8630  178.1240  141.9760 C   0  0  1  0  0  3  0  0  0  0  0  0
  184.9390  179.0060  144.2480 C   0  0  0  0  0  0  0  0  0  0  0  0
  186.5220  178.1280  146.0130 C   0  0  0  0  0  3  0  0  0  0  0  0
  187.1370  177.0180  145.2100 C   0  0  0  0  0  2  0  0  0  0  0  0
  184.0850  179.9080  144.0320 O   0  0  0  0  0  0  0  0  0  0  0  0
  189.4230  177.1520  140.9800 C   0  0  0  0  0  0  0  0  0  0  0  0
  189.2320  177.3620  139.5690 N   0  0  0  0  0  0  0  0  0  0  0  0
  190.1080  176.1720  141.3870 O   0  0  0  0  0  0  0  0  0  0  0  0
  189.9060  176.5170  138.5920 C   0  0  0  0  0  2  0  0  0  0  0  0
  188.9490  175.4690  138.0570 C   0  0  0  0  0  2  0  0  0  0  0  0
  189.4710  174.9440  136.7350 C   0  0  0  0  0  2  0  0  0  0  0  0
  187.1700  174.7220  136.1620 O   0  0  0  0  0  0  0  0  0  0  0  0
  189.8940  172.8870  134.6870 N   0  0  0  0  0  1  0  0  0  0  0  0
  188.5980  173.3380  134.9690 N   0  0  0  0  0  2  0  0  0  0  0  0
  188.3530  174.3450  135.9490 C   0  0  0  0  0  0  0  0  0  0  0  0
  188.5010  178.5210  139.0760 C   0  0  0  0  0  2  0  0  0  0  0  0
  189.1300  179.8400  137.1910 O   0  0  0  0  0  1  0  0  0  0  0  0
  188.6010  178.6040  137.5620 C   0  0  2  0  0  3  0  0  0  0  0  0
  187.1620  178.0440  135.7510 O   0  0  0  0  0  0  0  0  0  0  0  0
  187.2550  178.4290  136.9460 C   0  0  0  0  0  0  0  0  0  0  0  0
  186.1020  178.7190  137.6700 O   0  0  0  0  0  1  0  0  0  0  0  0
  184.5520  178.2660  141.8970 C   0  0  0  0  0  0  0  0  0  0  0  0
  183.9850  178.4690  140.9080 N   0  0  0  0  0  0  0  0  0  0  0  0
  189.7820  178.5570  144.2650 C   0  0  0  0  0  2  0  0  0  0  0  0
  191.2790  178.2840  144.1850 C   0  0  0  0  0  2  0  0  0  0  0  0
  191.5740  176.9470  144.5800 O   0  0  0  0  0  0  0  0  0  0  0  0
  192.3030  175.3140  146.3320 C   0  0  0  0  0  0  0  0  0  0  0  0
  191.5360  177.3550  146.9120 N   0  0  0  0  0  0  0  0  0  0  0  0
  192.6380  174.3730  145.5670 O   0  0  0  0  0  0  0  0  0  0  0  0
  191.8500  176.6850  148.1740 C   0  0  0  0  0  3  0  0  0  0  0  0
  192.3890  175.2930  147.8080 C   0  0  0  0  0  3  0  0  0  0  0  0
  191.7850  176.5830  145.9120 C   0  0  0  0  0  0  0  0  0  0  0  0
  1 28  1  6  0  0  0
  1  8  1  0  0  0  0
  2  7  1  0  0  0  0
  2  6  2  0  0  0  0
  3  9  2  0  0  0  0
  4 10  1  1  0  0  0
  5  4  1  0  0  0  0
  5 30  1  1  0  0  0
  6  1  1  0  0  0  0
  6  4  1  0  0  0  0
  7 12  1  6  0  0  0
  7  5  1  0  0  0  0
  8  3  1  0  0  0  0
 10  9  1  0  0  0  0
 11  8  2  0  0  0  0
 12 14  2  0  0  0  0
 13 12  1  0  0  0  0
 15 13  1  0  0  0  0
 16 15  1  0  0  0  0
 17 16  1  0  0  0  0
 19 20  1  0  0  0  0
 20 21  1  0  0  0  0
 21 18  2  0  0  0  0
 21 17  1  0  0  0  0
 22 13  1  0  0  0  0
 24 23  1  1  0  0  0
 24 22  1  0  0  0  0
 25 26  2  0  0  0  0
 26 24  1  0  0  0  0
 26 27  1  0  0  0  0
 29 28  3  0  0  0  0
 31 30  1  0  0  0  0
 31 32  1  0  0  0  0
 32 38  1  0  0  0  0
 33 37  1  0  0  0  0
 34 36  1  0  0  0  0
 35 33  2  0  0  0  0
 37 36  2  0  0  0  0
 38 33  1  0  0  0  0
 38 34  2  0  0  0  0
M  END
>  <MODEL>
3

>  <REMARK>
 VINA RESULT:      -7.1      1.587      2.060
  Name = 
  13 active torsions:
  status: ('A' for Active; 'I' for Inactive)
    1  A    between atoms: C_1  and  C_26
    2  A    between atoms: N_2  and  C_6
    3  A    between atoms: N_2  and  C_12
    4  A    between atoms: C_5  and  C_7
    5  A    between atoms: C_6  and  C_30
    6  A    between atoms: C_12  and  C_36
    7  A    between atoms: C_16  and  C_22
    8  A    between atoms: C_18  and  C_24
    9  A    between atoms: C_18  and  C_30
   10  A    between atoms: C_20  and  C_22
   11  A    between atoms: C_20  and  O_32
   12  A    between atoms: C_23  and  C_36
   13  A    between atoms: C_27  and  O_32
                            x       y       z     vdW  Elec       q    Type
                         _______ _______ _______ _____ _____    ______ ____

>  <TORSDO>
F 13

$$$$
=
 OpenBabel10232412223D

 38 40  0  0  1  0  0  0  0  0999 V2000
  185.3100  178.0510  144.0730 C   0  0  1  0  0  3  0  0  0  0  0  0
  186.0250  178.9120  141.7370 N   0  0  0  0  0  0  0  0  0  0  0  0
  187.3290  178.0800  145.7570 C   0  0  0  0  0  3  0  0  0  0  0  0
  187.3280  177.3940  142.8030 C   0  0  2  0  0  3  0  0  0  0  0  0
  188.0600  177.6750  141.5360 C   0  0  1  0  0  3  0  0  0  0  0  0
  186.2190  178.0930  142.8780 C   0  0  0  0  0  0  0  0  0  0  0  0
  187.1520  178.6990  140.8380 C   0  0  1  0  0  3  0  0  0  0  0  0
  186.0090  178.5800  145.3110 C   0  0  0  0  0  0  0  0  0  0  0  0
  188.1050  177.1760  145.1440 C   0  0  0  0  0  3  0  0  0  0  0  0
  187.7700  176.4490  143.8740 C   0  0  0  0  0  2  0  0  0  0  0  0
  185.4570  179.4710  146.0120 O   0  0  0  0  0  0  0  0  0  0  0  0
  186.6830  178.1680  139.5150 C   0  0  0  0  0  0  0  0  0  0  0  0
  185.3340  178.4050  139.0700 N   0  0  0  0  0  0  0  0  0  0  0  0
  187.4950  177.5520  138.7700 O   0  0  0  0  0  0  0  0  0  0  0  0
  184.9180  178.0370  137.7240 C   0  0  0  0  0  2  0  0  0  0  0  0
  184.3060  176.6490  137.7260 C   0  0  0  0  0  2  0  0  0  0  0  0
  184.6710  175.9390  136.4380 C   0  0  0  0  0  2  0  0  0  0  0  0
  187.0240  175.7150  136.1560 O   0  0  0  0  0  0  0  0  0  0  0  0
  184.8620  173.3410  137.7830 N   0  0  0  0  0  1  0  0  0  0  0  0
  186.0120  173.9420  137.2570 N   0  0  0  0  0  2  0  0  0  0  0  0
  185.9620  175.2110  136.6060 C   0  0  0  0  0  0  0  0  0  0  0  0
  184.4010  179.1700  139.8850 C   0  0  0  0  0  2  0  0  0  0  0  0
  183.2250  180.9710  138.8520 O   0  0  0  0  0  1  0  0  0  0  0  0
  183.1980  179.5920  139.0560 C   0  0  2  0  0  3  0  0  0  0  0  0
  181.0270  180.0690  139.9070 O   0  0  0  0  0  0  0  0  0  0  0  0
  181.9350  179.2110  139.7490 C   0  0  0  0  0  0  0  0  0  0  0  0
  181.7640  177.9240  140.2520 O   0  0  0  0  0  1  0  0  0  0  0  0
  184.0230  178.7240  143.8070 C   0  0  0  0  0  0  0  0  0  0  0  0
  183.0140  179.2500  143.5980 N   0  0  0  0  0  0  0  0  0  0  0  0
  189.4110  178.3080  141.8450 C   0  0  0  0  0  2  0  0  0  0  0  0
  190.5340  177.5760  141.1210 C   0  0  0  0  0  2  0  0  0  0  0  0
  191.7050  177.5130  141.9300 O   0  0  0  0  0  0  0  0  0  0  0  0
  191.6760  178.0610  144.3730 C   0  0  0  0  0  0  0  0  0  0  0  0
  191.6360  175.9160  143.6760 N   0  0  0  0  0  0  0  0  0  0  0  0
  191.7010  179.3140  144.2720 O   0  0  0  0  0  0  0  0  0  0  0  0
  191.6220  175.8500  145.1380 C   0  0  0  0  0  3  0  0  0  0  0  0
  191.6350  177.3020  145.6410 C   0  0  0  0  0  3  0  0  0  0  0  0
  191.6730  177.1380  143.2750 C   0  0  0  0  0  0  0  0  0  0  0  0
  1 28  1  6  0  0  0
  1  8  1  0  0  0  0
  2  6  2  0  0  0  0
  4  6  1  0  0  0  0
  4 10  1  1  0  0  0
  5 30  1  1  0  0  0
  5  4  1  0  0  0  0
  6  1  1  0  0  0  0
  7 12  1  6  0  0  0
  7  5  1  0  0  0  0
  7  2  1  0  0  0  0
  8  3  1  0  0  0  0
  8 11  2  0  0  0  0
  9  3  2  0  0  0  0
 10  9  1  0  0  0  0
 13 12  1  0  0  0  0
 13 22  1  0  0  0  0
 14 12  2  0  0  0  0
 15 16  1  0  0  0  0
 15 13  1  0  0  0  0
 17 21  1  0  0  0  0
 17 16  1  0  0  0  0
 18 21  2  0  0  0  0
 20 19  1  0  0  0  0
 21 20  1  0  0  0  0
 24 23  1  1  0  0  0
 24 26  1  0  0  0  0
 24 22  1  0  0  0  0
 26 25  2  0  0  0  0
 26 27  1  0  0  0  0
 29 28  3  0  0  0  0
 31 30  1  0  0  0  0
 31 32  1  0  0  0  0
 32 38  1  0  0  0  0
 33 37  1  0  0  0  0
 34 36  1  0  0  0  0
 35 33  2  0  0  0  0
 36 37  2  0  0  0  0
 38 34  2  0  0  0  0
 38 33  1  0  0  0  0
M  END
>  <MODEL>
4

>  <REMARK>
 VINA RESULT:      -6.9      2.655      4.400
  Name = 
  13 active torsions:
  status: ('A' for Active; 'I' for Inactive)
    1  A    between atoms: C_1  and  C_26
    2  A    between atoms: N_2  and  C_6
    3  A    between atoms: N_2  and  C_12
    4  A    between atoms: C_5  and  C_7
    5  A    between atoms: C_6  and  C_30
    6  A    between atoms: C_12  and  C_36
    7  A    between atoms: C_16  and  C_22
    8  A    between atoms: C_18  and  C_24
    9  A    between atoms: C_18  and  C_30
   10  A    between atoms: C_20  and  C_22
   11  A    between atoms: C_20  and  O_32
   12  A    between atoms: C_23  and  C_36
   13  A    between atoms: C_27  and  O_32
                            x       y       z     vdW  Elec       q    Type
                         _______ _______ _______ _____ _____    ______ ____

>  <TORSDO>
F 13

$$$$
=
 OpenBabel10232412223D

 38 40  0  0  1  0  0  0  0  0999 V2000
  188.5270  176.7300  144.1910 C   0  0  1  0  0  3  0  0  0  0  0  0
  188.4510  177.8130  141.8400 N   0  0  0  0  0  0  0  0  0  0  0  0
  190.9170  176.9480  145.2650 C   0  0  0  0  0  3  0  0  0  0  0  0
  190.1720  176.4360  142.3690 C   0  0  2  0  0  3  0  0  0  0  0  0
  190.4820  176.8880  140.9840 C   0  0  1  0  0  3  0  0  0  0  0  0
  189.0530  176.9670  142.8050 C   0  0  0  0  0  0  0  0  0  0  0  0
  189.2990  177.8110  140.6540 C   0  0  1  0  0  3  0  0  0  0  0  0
  189.4750  177.2820  145.2390 C   0  0  0  0  0  0  0  0  0  0  0  0
  191.5940  176.1990  144.3840 C   0  0  0  0  0  3  0  0  0  0  0  0
  191.0070  175.5040  143.1890 C   0  0  0  0  0  2  0  0  0  0  0  0
  189.0380  178.0460  146.1420 O   0  0  0  0  0  0  0  0  0  0  0  0
  188.5460  177.2950  139.4630 C   0  0  0  0  0  0  0  0  0  0  0  0
  187.2780  177.8690  139.0970 N   0  0  0  0  0  0  0  0  0  0  0  0
  189.0570  176.3840  138.7540 O   0  0  0  0  0  0  0  0  0  0  0  0
  186.6180  177.4880  137.8560 C   0  0  0  0  0  2  0  0  0  0  0  0
  187.0100  178.4380  136.7410 C   0  0  0  0  0  2  0  0  0  0  0  0
  187.1080  177.6700  135.4390 C   0  0  0  0  0  2  0  0  0  0  0  0
  189.4780  177.4440  135.4470 O   0  0  0  0  0  0  0  0  0  0  0  0
  187.1060  174.7390  135.3240 N   0  0  0  0  0  1  0  0  0  0  0  0
  188.3190  175.4370  135.3510 N   0  0  0  0  0  2  0  0  0  0  0  0
  188.3620  176.8620  135.4180 C   0  0  0  0  0  0  0  0  0  0  0  0
  186.7020  178.9650  139.8640 C   0  0  0  0  0  2  0  0  0  0  0  0
  184.5930  179.8910  139.2450 O   0  0  0  0  0  1  0  0  0  0  0  0
  185.1890  178.8300  139.9250 C   0  0  2  0  0  3  0  0  0  0  0  0
  183.8580  177.9890  141.7090 O   0  0  0  0  0  0  0  0  0  0  0  0
  184.7290  178.8200  141.3420 C   0  0  0  0  0  0  0  0  0  0  0  0
  185.2300  179.7430  142.2560 O   0  0  0  0  0  1  0  0  0  0  0  0
  187.1460  177.2280  144.3460 C   0  0  0  0  0  0  0  0  0  0  0  0
  186.0630  177.6190  144.4670 N   0  0  0  0  0  0  0  0  0  0  0  0
  191.7800  177.6860  140.9750 C   0  0  0  0  0  2  0  0  0  0  0  0
  192.7830  177.0840  139.9990 C   0  0  0  0  0  2  0  0  0  0  0  0
  192.2050  176.9340  138.7050 O   0  0  0  0  0  0  0  0  0  0  0  0
  193.5140  175.8310  136.8780 C   0  0  0  0  0  0  0  0  0  0  0  0
  191.8440  174.7300  137.9200 N   0  0  0  0  0  0  0  0  0  0  0  0
  194.2970  176.7820  136.6240 O   0  0  0  0  0  0  0  0  0  0  0  0
  192.3630  173.7940  136.9210 C   0  0  0  0  0  3  0  0  0  0  0  0
  193.5150  174.5160  136.2040 C   0  0  0  0  0  3  0  0  0  0  0  0
  192.4850  175.8450  137.8760 C   0  0  0  0  0  0  0  0  0  0  0  0
  1 28  1  6  0  0  0
  1  8  1  0  0  0  0
  2  6  2  0  0  0  0
  4  6  1  0  0  0  0
  4 10  1  1  0  0  0
  5 30  1  1  0  0  0
  5  4  1  0  0  0  0
  6  1  1  0  0  0  0
  7 12  1  6  0  0  0
  7  5  1  0  0  0  0
  7  2  1  0  0  0  0
  8  3  1  0  0  0  0
  8 11  2  0  0  0  0
  9  3  2  0  0  0  0
 10  9  1  0  0  0  0
 13 12  1  0  0  0  0
 13 22  1  0  0  0  0
 14 12  2  0  0  0  0
 15 13  1  0  0  0  0
 16 15  1  0  0  0  0
 17 16  1  0  0  0  0
 19 20  1  0  0  0  0
 20 21  1  0  0  0  0
 21 17  1  0  0  0  0
 21 18  2  0  0  0  0
 22 24  1  0  0  0  0
 24 23  1  6  0  0  0
 24 26  1  0  0  0  0
 26 25  2  0  0  0  0
 26 27  1  0  0  0  0
 28 29  3  0  0  0  0
 31 30  1  0  0  0  0
 32 31  1  0  0  0  0
 33 38  1  0  0  0  0
 35 33  2  0  0  0  0
 36 34  1  0  0  0  0
 37 33  1  0  0  0  0
 37 36  2  0  0  0  0
 38 34  2  0  0  0  0
 38 32  1  0  0  0  0
M  END
>  <MODEL>
5

>  <REMARK>
 VINA RESULT:      -6.9      2.277      5.513
  Name = 
  13 active torsions:
  status: ('A' for Active; 'I' for Inactive)
    1  A    between atoms: C_1  and  C_26
    2  A    between atoms: N_2  and  C_6
    3  A    between atoms: N_2  and  C_12
    4  A    between atoms: C_5  and  C_7
    5  A    between atoms: C_6  and  C_30
    6  A    between atoms: C_12  and  C_36
    7  A    between atoms: C_16  and  C_22
    8  A    between atoms: C_18  and  C_24
    9  A    between atoms: C_18  and  C_30
   10  A    between atoms: C_20  and  C_22
   11  A    between atoms: C_20  and  O_32
   12  A    between atoms: C_23  and  C_36
   13  A    between atoms: C_27  and  O_32
                            x       y       z     vdW  Elec       q    Type
                         _______ _______ _______ _____ _____    ______ ____

>  <TORSDO>
F 13

$$$$
=
 OpenBabel10232412223D

 38 40  0  0  1  0  0  0  0  0999 V2000
  185.0100  178.1720  144.8250 C   0  0  1  0  0  3  0  0  0  0  0  0
  185.0770  179.2710  142.4810 N   0  0  0  0  0  0  0  0  0  0  0  0
  187.4130  178.0400  145.8850 C   0  0  0  0  0  3  0  0  0  0  0  0
  186.5880  177.6590  142.9910 C   0  0  2  0  0  3  0  0  0  0  0  0
  186.9510  178.0730  141.6060 C   0  0  1  0  0  3  0  0  0  0  0  0
  185.5580  178.3410  143.4370 C   0  0  0  0  0  0  0  0  0  0  0  0
  185.9100  179.1570  141.2900 C   0  0  1  0  0  3  0  0  0  0  0  0
  186.0330  178.5750  145.8700 C   0  0  0  0  0  0  0  0  0  0  0  0
  187.9720  177.2080  144.9940 C   0  0  0  0  0  3  0  0  0  0  0  0
  187.2850  176.6130  143.7990 C   0  0  0  0  0  2  0  0  0  0  0  0
  185.7140  179.3870  146.7810 O   0  0  0  0  0  0  0  0  0  0  0  0
  185.0850  178.7620  140.1010 C   0  0  0  0  0  0  0  0  0  0  0  0
  185.7190  178.4090  138.8580 N   0  0  0  0  0  0  0  0  0  0  0  0
  183.8290  178.6950  140.2120 O   0  0  0  0  0  0  0  0  0  0  0  0
  184.9400  177.8700  137.7510 C   0  0  0  0  0  2  0  0  0  0  0  0
  184.2300  176.6010  138.1790 C   0  0  0  0  0  2  0  0  0  0  0  0
  183.9770  175.7340  136.9620 C   0  0  0  0  0  2  0  0  0  0  0  0
  185.0010  173.7270  137.7300 O   0  0  0  0  0  0  0  0  0  0  0  0
  186.0580  175.6790  134.8960 N   0  0  0  0  0  1  0  0  0  0  0  0
  186.0100  174.6720  135.8680 N   0  0  0  0  0  2  0  0  0  0  0  0
  185.0070  174.6570  136.8820 C   0  0  0  0  0  0  0  0  0  0  0  0
  187.1690  178.4170  138.7280 C   0  0  0  0  0  2  0  0  0  0  0  0
  188.1470  176.4040  137.9010 O   0  0  0  0  0  1  0  0  0  0  0  0
  187.5950  177.6220  137.5040 C   0  0  2  0  0  3  0  0  0  0  0  0
  188.9680  179.5260  137.1110 O   0  0  0  0  0  1  0  0  0  0  0  0
  188.5940  178.3920  136.7110 C   0  0  0  0  0  0  0  0  0  0  0  0
  189.0940  177.8820  135.5160 O   0  0  0  0  0  0  0  0  0  0  0  0
  183.7150  178.8600  144.9920 C   0  0  0  0  0  0  0  0  0  0  0  0
  182.7000  179.3990  145.1230 N   0  0  0  0  0  0  0  0  0  0  0  0
  188.3490  178.6790  141.5950 C   0  0  0  0  0  2  0  0  0  0  0  0
  189.3790  177.6620  141.1170 C   0  0  0  0  0  2  0  0  0  0  0  0
  190.6570  177.9270  141.6880 O   0  0  0  0  0  0  0  0  0  0  0  0
  191.2100  178.3300  144.0960 C   0  0  0  0  0  0  0  0  0  0  0  0
  191.2300  176.2400  143.2480 N   0  0  0  0  0  0  0  0  0  0  0  0
  191.0670  179.5790  144.1030 O   0  0  0  0  0  0  0  0  0  0  0  0
  191.6080  176.0920  144.6540 C   0  0  0  0  0  3  0  0  0  0  0  0
  191.5890  177.5040  145.2620 C   0  0  0  0  0  3  0  0  0  0  0  0
  191.0220  177.4770  142.9590 C   0  0  0  0  0  0  0  0  0  0  0  0
  1 28  1  6  0  0  0
  1  8  1  0  0  0  0
  2  6  2  0  0  0  0
  4  6  1  0  0  0  0
  4 10  1  1  0  0  0
  5 30  1  1  0  0  0
  5  4  1  0  0  0  0
  6  1  1  0  0  0  0
  7 12  1  6  0  0  0
  7  5  1  0  0  0  0
  7  2  1  0  0  0  0
  8  3  1  0  0  0  0
  8 11  2  0  0  0  0
  9  3  2  0  0  0  0
 10  9  1  0  0  0  0
 12 14  2  0  0  0  0
 13 12  1  0  0  0  0
 15 16  1  0  0  0  0
 15 13  1  0  0  0  0
 17 16  1  0  0  0  0
 19 20  1  0  0  0  0
 20 21  1  0  0  0  0
 21 17  1  0  0  0  0
 21 18  2  0  0  0  0
 22 13  1  0  0  0  0
 24 23  1  1  0  0  0
 24 22  1  0  0  0  0
 26 25  1  0  0  0  0
 26 24  1  0  0  0  0
 27 26  2  0  0  0  0
 28 29  3  0  0  0  0
 31 30  1  0  0  0  0
 31 32  1  0  0  0  0
 32 38  1  0  0  0  0
 33 35  2  0  0  0  0
 33 37  1  0  0  0  0
 34 36  1  0  0  0  0
 36 37  2  0  0  0  0
 38 34  2  0  0  0  0
 38 33  1  0  0  0  0
M  END
>  <MODEL>
6

>  <REMARK>
 VINA RESULT:      -6.9      2.768      4.400
  Name = 
  13 active torsions:
  status: ('A' for Active; 'I' for Inactive)
    1  A    between atoms: C_1  and  C_26
    2  A    between atoms: N_2  and  C_6
    3  A    between atoms: N_2  and  C_12
    4  A    between atoms: C_5  and  C_7
    5  A    between atoms: C_6  and  C_30
    6  A    between atoms: C_12  and  C_36
    7  A    between atoms: C_16  and  C_22
    8  A    between atoms: C_18  and  C_24
    9  A    between atoms: C_18  and  C_30
   10  A    between atoms: C_20  and  C_22
   11  A    between atoms: C_20  and  O_32
   12  A    between atoms: C_23  and  C_36
   13  A    between atoms: C_27  and  O_32
                            x       y       z     vdW  Elec       q    Type
                         _______ _______ _______ _____ _____    ______ ____

>  <TORSDO>
F 13

$$$$
=
 OpenBabel10232412223D

 38 40  0  0  1  0  0  0  0  0999 V2000
  186.3420  178.7200  145.6960 C   0  0  1  0  0  3  0  0  0  0  0  0
  187.3120  177.5520  143.5980 N   0  0  0  0  0  2  0  0  0  0  0  0
  183.7150  178.7860  145.6220 C   0  0  0  0  0  3  0  0  0  0  0  0
  185.6900  179.1150  143.3430 C   0  0  0  0  0  0  0  0  0  0  0  0
  185.9640  178.6470  141.9550 C   0  0  1  0  0  3  0  0  0  0  0  0
  186.4460  178.4890  144.2160 C   0  0  0  0  0  0  0  0  0  0  0  0
  187.0660  177.5970  142.1620 C   0  0  1  0  0  3  0  0  0  0  0  0
  184.9810  178.3070  146.2210 C   0  0  0  0  0  0  0  0  0  0  0  0
  183.5710  179.5680  144.5430 C   0  0  0  0  0  3  0  0  0  0  0  0
  184.6880  180.1550  143.7300 C   0  0  0  0  0  2  0  0  0  0  0  0
  184.8990  177.5350  147.2150 O   0  0  0  0  0  0  0  0  0  0  0  0
  188.3110  177.9900  141.4220 C   0  0  0  0  0  0  0  0  0  0  0  0
  189.5680  177.3520  141.7170 N   0  0  0  0  0  0  0  0  0  0  0  0
  188.2400  178.8520  140.5030 O   0  0  0  0  0  0  0  0  0  0  0  0
  190.7440  177.6090  140.8980 C   0  0  0  0  0  2  0  0  0  0  0  0
  190.7580  176.6860  139.6960 C   0  0  0  0  0  2  0  0  0  0  0  0
  192.1180  176.7500  139.0300 C   0  0  0  0  0  2  0  0  0  0  0  0
  191.4500  174.6710  138.0810 O   0  0  0  0  0  0  0  0  0  0  0  0
  194.2020  176.7070  136.9680 N   0  0  0  0  0  1  0  0  0  0  0  0
  193.2880  175.6510  137.0600 N   0  0  0  0  0  2  0  0  0  0  0  0
  192.2530  175.6410  138.0420 C   0  0  0  0  0  0  0  0  0  0  0  0
  189.6580  176.3090  142.7290 C   0  0  0  0  0  2  0  0  0  0  0  0
  191.4160  175.0410  143.7250 O   0  0  0  0  0  1  0  0  0  0  0  0
  191.0230  176.3380  143.3980 C   0  0  2  0  0  3  0  0  0  0  0  0
  190.5130  178.3440  144.5730 O   0  0  0  0  0  0  0  0  0  0  0  0
  190.9750  177.1740  144.6310 C   0  0  0  0  0  0  0  0  0  0  0  0
  191.4670  176.6850  145.8370 O   0  0  0  0  0  1  0  0  0  0  0  0
  187.4580  178.0900  146.4290 C   0  0  0  0  0  0  0  0  0  0  0  0
  188.3330  177.5970  147.0040 N   0  0  0  0  0  0  0  0  0  0  0  0
  184.7210  177.9850  141.3750 C   0  0  0  0  0  2  0  0  0  0  0  0
  184.2870  178.6750  140.0880 C   0  0  0  0  0  2  0  0  0  0  0  0
  185.4010  178.8860  139.2240 O   0  0  0  0  0  0  0  0  0  0  0  0
  186.7260  178.3050  137.1810 C   0  0  0  0  0  0  0  0  0  0  0  0
  184.8670  177.1430  137.7130 N   0  0  0  0  0  0  0  0  0  0  0  0
  187.6260  179.1750  137.3010 O   0  0  0  0  0  0  0  0  0  0  0  0
  185.3600  176.5410  136.4740 C   0  0  0  0  0  3  0  0  0  0  0  0
  186.6380  177.3060  136.0950 C   0  0  0  0  0  3  0  0  0  0  0  0
  185.6270  178.1150  138.0820 C   0  0  0  0  0  0  0  0  0  0  0  0
  1  8  1  0  0  0  0
  1 28  1  1  0  0  0
  2  6  1  0  0  0  0
  3  8  1  0  0  0  0
  4 10  1  0  0  0  0
  4  6  2  0  0  0  0
  5 30  1  1  0  0  0
  5  7  1  0  0  0  0
  5  4  1  0  0  0  0
  6  1  1  0  0  0  0
  7 12  1  6  0  0  0
  7  2  1  0  0  0  0
  8 11  2  0  0  0  0
  9  3  2  0  0  0  0
 10  9  1  0  0  0  0
 12 13  1  0  0  0  0
 13 22  1  0  0  0  0
 14 12  2  0  0  0  0
 15 13  1  0  0  0  0
 16 15  1  0  0  0  0
 17 16  1  0  0  0  0
 19 20  1  0  0  0  0
 20 21  1  0  0  0  0
 21 18  2  0  0  0  0
 21 17  1  0  0  0  0
 22 24  1  0  0  0  0
 24 23  1  1  0  0  0
 24 26  1  0  0  0  0
 25 26  2  0  0  0  0
 26 27  1  0  0  0  0
 28 29  3  0  0  0  0
 31 30  1  0  0  0  0
 32 31  1  0  0  0  0
 33 35  2  0  0  0  0
 33 38  1  0  0  0  0
 34 38  2  0  0  0  0
 36 34  1  0  0  0  0
 37 36  2  0  0  0  0
 37 33  1  0  0  0  0
 38 32  1  0  0  0  0
M  END
>  <MODEL>
7

>  <REMARK>
 VINA RESULT:      -6.8      1.958      6.134
  Name = 
  13 active torsions:
  status: ('A' for Active; 'I' for Inactive)
    1  A    between atoms: C_1  and  C_26
    2  A    between atoms: N_2  and  C_6
    3  A    between atoms: N_2  and  C_12
    4  A    between atoms: C_5  and  C_7
    5  A    between atoms: C_6  and  C_30
    6  A    between atoms: C_12  and  C_36
    7  A    between atoms: C_16  and  C_22
    8  A    between atoms: C_18  and  C_24
    9  A    between atoms: C_18  and  C_30
   10  A    between atoms: C_20  and  C_22
   11  A    between atoms: C_20  and  O_32
   12  A    between atoms: C_23  and  C_36
   13  A    between atoms: C_27  and  O_32
                            x       y       z     vdW  Elec       q    Type
                         _______ _______ _______ _____ _____    ______ ____

>  <TORSDO>
F 13

$$$$
=
 OpenBabel10232412223D

 38 40  0  0  1  0  0  0  0  0999 V2000
  185.3150  178.3760  142.8850 C   0  0  1  0  0  3  0  0  0  0  0  0
  187.6780  178.4880  141.8300 N   0  0  0  0  0  0  0  0  0  0  0  0
  185.3780  179.0200  145.4340 C   0  0  0  0  0  3  0  0  0  0  0  0
  187.4030  177.4390  143.8210 C   0  0  2  0  0  3  0  0  0  0  0  0
  188.8660  177.3380  143.5570 C   0  0  1  0  0  3  0  0  0  0  0  0
  186.7860  178.0790  142.8540 C   0  0  0  0  0  0  0  0  0  0  0  0
  189.0170  178.0510  142.2030 C   0  0  1  0  0  3  0  0  0  0  0  0
  184.9660  179.2970  144.0380 C   0  0  0  0  0  0  0  0  0  0  0  0
  186.1330  178.0030  145.8710 C   0  0  0  0  0  3  0  0  0  0  0  0
  186.6960  176.9000  145.0230 C   0  0  0  0  0  2  0  0  0  0  0  0
  184.2880  180.3390  143.8280 O   0  0  0  0  0  0  0  0  0  0  0  0
  189.5750  177.1110  141.1750 C   0  0  0  0  0  0  0  0  0  0  0  0
  189.3640  177.3560  139.7720 N   0  0  0  0  0  0  0  0  0  0  0  0
  190.2750  176.1290  141.5480 O   0  0  0  0  0  0  0  0  0  0  0  0
  190.0340  176.5450  138.7650 C   0  0  0  0  0  2  0  0  0  0  0  0
  191.5290  176.8000  138.7970 C   0  0  0  0  0  2  0  0  0  0  0  0
  192.2220  175.8290  137.8630 C   0  0  0  0  0  2  0  0  0  0  0  0
  194.2620  176.1530  139.0470 O   0  0  0  0  0  0  0  0  0  0  0  0
  193.9130  175.9570  135.4700 N   0  0  0  0  0  1  0  0  0  0  0  0
  194.4860  176.0970  136.7390 N   0  0  0  0  0  2  0  0  0  0  0  0
  193.6990  176.0290  137.9270 C   0  0  0  0  0  0  0  0  0  0  0  0
  188.6150  178.5200  139.3200 C   0  0  0  0  0  2  0  0  0  0  0  0
  188.9400  179.9120  137.4100 O   0  0  0  0  0  1  0  0  0  0  0  0
  188.6410  178.6080  137.8020 C   0  0  2  0  0  3  0  0  0  0  0  0
  187.2590  177.7210  136.0790 O   0  0  0  0  0  0  0  0  0  0  0  0
  187.3210  178.2050  137.2400 C   0  0  0  0  0  0  0  0  0  0  0  0
  186.1530  178.3880  137.9740 O   0  0  0  0  0  1  0  0  0  0  0  0
  184.8290  178.8750  141.5830 C   0  0  0  0  0  0  0  0  0  0  0  0
  184.4470  179.2670  140.5630 N   0  0  0  0  0  0  0  0  0  0  0  0
  189.6420  178.0940  144.6280 C   0  0  0  0  0  2  0  0  0  0  0  0
  190.7510  177.2260  145.2100 C   0  0  0  0  0  2  0  0  0  0  0  0
  190.8190  177.3710  146.6260 O   0  0  0  0  0  0  0  0  0  0  0  0
  189.1990  178.4200  148.2200 C   0  0  0  0  0  0  0  0  0  0  0  0
  188.9600  176.2670  147.5910 N   0  0  0  0  0  0  0  0  0  0  0  0
  189.7120  179.5680  148.2620 O   0  0  0  0  0  0  0  0  0  0  0  0
  187.8580  176.5260  148.5200 C   0  0  0  0  0  3  0  0  0  0  0  0
  187.9890  177.9940  148.9550 C   0  0  0  0  0  3  0  0  0  0  0  0
  189.6890  177.3180  147.4450 C   0  0  0  0  0  0  0  0  0  0  0  0
  1 28  1  6  0  0  0
  1  8  1  0  0  0  0
  2  7  1  0  0  0  0
  2  6  2  0  0  0  0
  3  9  2  0  0  0  0
  4 10  1  1  0  0  0
  5  4  1  0  0  0  0
  5 30  1  1  0  0  0
  6  1  1  0  0  0  0
  6  4  1  0  0  0  0
  7 12  1  6  0  0  0
  7  5  1  0  0  0  0
  8  3  1  0  0  0  0
 10  9  1  0  0  0  0
 11  8  2  0  0  0  0
 12 14  2  0  0  0  0
 13 12  1  0  0  0  0
 15 16  1  0  0  0  0
 15 13  1  0  0  0  0
 17 21  1  0  0  0  0
 17 16  1  0  0  0  0
 19 20  1  0  0  0  0
 20 21  1  0  0  0  0
 21 18  2  0  0  0  0
 22 13  1  0  0  0  0
 24 23  1  1  0  0  0
 24 22  1  0  0  0  0
 25 26  2  0  0  0  0
 26 24  1  0  0  0  0
 26 27  1  0  0  0  0
 29 28  3  0  0  0  0
 30 31  1  0  0  0  0
 31 32  1  0  0  0  0
 32 38  1  0  0  0  0
 33 35  2  0  0  0  0
 33 37  1  0  0  0  0
 34 36  1  0  0  0  0
 36 37  2  0  0  0  0
 38 34  2  0  0  0  0
 38 33  1  0  0  0  0
M  END
>  <MODEL>
8

>  <REMARK>
 VINA RESULT:      -6.8      1.679      2.137
  Name = 
  13 active torsions:
  status: ('A' for Active; 'I' for Inactive)
    1  A    between atoms: C_1  and  C_26
    2  A    between atoms: N_2  and  C_6
    3  A    between atoms: N_2  and  C_12
    4  A    between atoms: C_5  and  C_7
    5  A    between atoms: C_6  and  C_30
    6  A    between atoms: C_12  and  C_36
    7  A    between atoms: C_16  and  C_22
    8  A    between atoms: C_18  and  C_24
    9  A    between atoms: C_18  and  C_30
   10  A    between atoms: C_20  and  C_22
   11  A    between atoms: C_20  and  O_32
   12  A    between atoms: C_23  and  C_36
   13  A    between atoms: C_27  and  O_32
                            x       y       z     vdW  Elec       q    Type
                         _______ _______ _______ _____ _____    ______ ____

>  <TORSDO>
F 13

$$$$
=
 OpenBabel10232412223D

 38 40  0  0  1  0  0  0  0  0999 V2000
  191.5460  176.4160  144.5390 C   0  0  1  0  0  3  0  0  0  0  0  0
  190.5060  175.9370  142.2160 N   0  0  0  0  0  0  0  0  0  0  0  0
  190.0290  178.0380  145.9470 C   0  0  0  0  0  3  0  0  0  0  0  0
  190.5990  178.0740  142.9680 C   0  0  2  0  0  3  0  0  0  0  0  0
  189.9170  178.1830  141.6470 C   0  0  1  0  0  3  0  0  0  0  0  0
  190.9030  176.8270  143.2460 C   0  0  0  0  0  0  0  0  0  0  0  0
  189.8750  176.7250  141.1650 C   0  0  1  0  0  3  0  0  0  0  0  0
  190.6390  176.7080  145.7190 C   0  0  0  0  0  0  0  0  0  0  0  0
  190.1220  179.1200  145.1620 C   0  0  0  0  0  3  0  0  0  0  0  0
  190.9080  179.2130  143.8860 C   0  0  0  0  0  2  0  0  0  0  0  0
  190.3910  175.8030  146.5610 O   0  0  0  0  0  0  0  0  0  0  0  0
  190.6210  176.5780  139.8710 C   0  0  0  0  0  0  0  0  0  0  0  0
  189.9110  176.5370  138.6200 N   0  0  0  0  0  0  0  0  0  0  0  0
  191.8830  176.5410  139.8840 O   0  0  0  0  0  0  0  0  0  0  0  0
  190.6310  176.5580  137.3540 C   0  0  0  0  0  2  0  0  0  0  0  0
  190.7780  175.1490  136.8110 C   0  0  0  0  0  2  0  0  0  0  0  0
  192.0950  175.0320  136.0710 C   0  0  0  0  0  2  0  0  0  0  0  0
  193.2270  173.7420  137.7210 O   0  0  0  0  0  0  0  0  0  0  0  0
  194.2600  176.9640  136.4930 N   0  0  0  0  0  1  0  0  0  0  0  0
  194.2340  175.7720  137.2270 N   0  0  0  0  0  2  0  0  0  0  0  0
  193.2040  174.8020  137.0420 C   0  0  0  0  0  0  0  0  0  0  0  0
  188.4590  176.6440  138.5790 C   0  0  0  0  0  2  0  0  0  0  0  0
  188.6450  179.0190  138.4540 O   0  0  0  0  0  1  0  0  0  0  0  0
  188.0440  177.9140  137.8530 C   0  0  2  0  0  3  0  0  0  0  0  0
  185.8620  177.5680  136.9680 O   0  0  0  0  0  0  0  0  0  0  0  0
  186.5620  178.0660  137.8880 C   0  0  0  0  0  0  0  0  0  0  0  0
  185.9490  178.7830  138.9110 O   0  0  0  0  0  1  0  0  0  0  0  0
  192.0070  175.0140  144.5010 C   0  0  0  0  0  0  0  0  0  0  0  0
  192.3690  173.9150  144.4710 N   0  0  0  0  0  0  0  0  0  0  0  0
  188.4990  178.7070  141.8360 C   0  0  0  0  0  2  0  0  0  0  0  0
  187.5550  177.5850  142.2500 C   0  0  0  0  0  2  0  0  0  0  0  0
  187.2690  177.6500  143.6450 O   0  0  0  0  0  0  0  0  0  0  0  0
  185.7640  178.3110  145.5330 C   0  0  0  0  0  0  0  0  0  0  0  0
  185.0290  178.3770  143.4010 N   0  0  0  0  0  0  0  0  0  0  0  0
  186.5750  178.1270  146.4770 O   0  0  0  0  0  0  0  0  0  0  0  0
  183.8940  178.8110  144.2170 C   0  0  0  0  0  3  0  0  0  0  0  0
  184.3730  178.7890  145.6780 C   0  0  0  0  0  3  0  0  0  0  0  0
  186.0440  178.1010  144.1430 C   0  0  0  0  0  0  0  0  0  0  0  0
  1 28  1  6  0  0  0
  1  8  1  0  0  0  0
  2  6  2  0  0  0  0
  4  6  1  0  0  0  0
  4 10  1  1  0  0  0
  5 30  1  1  0  0  0
  5  4  1  0  0  0  0
  6  1  1  0  0  0  0
  7 12  1  6  0  0  0
  7  5  1  0  0  0  0
  7  2  1  0  0  0  0
  8  3  1  0  0  0  0
  8 11  2  0  0  0  0
  9  3  2  0  0  0  0
 10  9  1  0  0  0  0
 12 14  2  0  0  0  0
 13 12  1  0  0  0  0
 15 13  1  0  0  0  0
 16 15  1  0  0  0  0
 17 16  1  0  0  0  0
 17 21  1  0  0  0  0
 19 20  1  0  0  0  0
 21 20  1  0  0  0  0
 21 18  2  0  0  0  0
 22 13  1  0  0  0  0
 24 26  1  0  0  0  0
 24 23  1  1  0  0  0
 24 22  1  0  0  0  0
 25 26  2  0  0  0  0
 26 27  1  0  0  0  0
 29 28  3  0  0  0  0
 30 31  1  0  0  0  0
 31 32  1  0  0  0  0
 32 38  1  0  0  0  0
 33 37  1  0  0  0  0
 33 35  2  0  0  0  0
 34 38  2  0  0  0  0
 34 36  1  0  0  0  0
 36 37  2  0  0  0  0
 38 33  1  0  0  0  0
M  END
>  <MODEL>
9

>  <REMARK>
 VINA RESULT:      -6.6      2.001      4.906
  Name = 
  13 active torsions:
  status: ('A' for Active; 'I' for Inactive)
    1  A    between atoms: C_1  and  C_26
    2  A    between atoms: N_2  and  C_6
    3  A    between atoms: N_2  and  C_12
    4  A    between atoms: C_5  and  C_7
    5  A    between atoms: C_6  and  C_30
    6  A    between atoms: C_12  and  C_36
    7  A    between atoms: C_16  and  C_22
    8  A    between atoms: C_18  and  C_24
    9  A    between atoms: C_18  and  C_30
   10  A    between atoms: C_20  and  C_22
   11  A    between atoms: C_20  and  O_32
   12  A    between atoms: C_23  and  C_36
   13  A    between atoms: C_27  and  O_32
                            x       y       z     vdW  Elec       q    Type
                         _______ _______ _______ _____ _____    ______ ____

>  <TORSDO>
F 13

$$$$
