=
 OpenBabel10232410013D

 26 29  0  0  1  0  0  0  0  0999 V2000
  190.6470  176.5550  143.6110 C   0  0  0  0  0  3  0  0  0  0  0  0
  188.3110  177.9370  146.3810 C   0  0  2  0  0  3  0  0  0  0  0  0
  185.8420  177.5680  143.4180 C   0  0  1  0  0  3  0  0  0  0  0  0
  191.7350  176.1230  144.3700 C   0  0  0  0  0  3  0  0  0  0  0  0
  191.7200  176.2770  145.7560 C   0  0  0  0  0  3  0  0  0  0  0  0
  189.5430  177.1520  144.2300 C   0  0  0  0  0  0  0  0  0  0  0  0
  187.1010  178.2800  143.3440 C   0  0  2  0  0  0  0  0  0  0  0  0
  190.6140  176.8500  146.3860 C   0  0  0  0  0  3  0  0  0  0  0  0
  188.4410  177.5740  143.4230 N   0  0  0  0  0  0  0  0  0  0  0  0
  186.9590  177.4330  145.9420 C   0  0  0  0  0  3  0  0  0  0  0  0
  186.6320  177.6550  144.6770 C   0  0  0  0  0  0  0  0  0  0  0  0
  189.4960  177.2780  145.6500 C   0  0  0  0  0  0  0  0  0  0  0  0
  187.6160  177.6300  142.2210 C   0  0  2  0  0  3  0  0  0  0  0  0
  188.4060  177.8940  147.8770 C   0  0  0  0  0  0  0  0  0  0  0  0
  189.0840  178.7510  148.5030 O   0  0  0  0  0  0  0  0  0  0  0  0
  187.6970  176.8910  148.5950 N   0  0  0  0  0  1  0  0  0  0  0  0
  184.2100  178.9540  144.8670 C   0  0  0  0  0  1  0  0  0  0  0  0
  183.8880  178.7870  142.5030 N   0  0  0  0  0  0  0  0  0  0  0  0
  184.6420  178.4830  143.5190 C   0  0  0  0  0  0  0  0  0  0  0  0
  184.7680  179.1820  140.3420 C   0  0  0  0  0  2  0  0  0  0  0  0
  184.1010  178.3690  141.1510 C   0  0  0  0  0  0  0  0  0  0  0  0
  183.1430  177.4140  140.5190 C   0  0  0  0  0  2  0  0  0  0  0  0
  180.6120  178.2410  140.7710 C   0  0  0  0  0  3  0  0  0  0  0  0
  181.7550  177.8700  140.6610 C   0  0  0  0  0  0  0  0  0  0  0  0
  188.2340  178.6280  141.2610 C   0  0  0  0  0  2  0  0  0  0  0  0
  188.1250  178.1540  139.9540 O   0  0  0  0  0  1  0  0  0  0  0  0
  1  6  2  0  0  0  0
  1  4  1  0  0  0  0
  2 14  1  1  0  0  0
  3 19  1  1  0  0  0
  3 11  1  0  0  0  0
  4  5  2  0  0  0  0
  5  8  1  0  0  0  0
  6 12  1  0  0  0  0
  7  3  1  0  0  0  0
  7  9  1  0  0  0  0
  7 11  1  1  0  0  0
  9  6  1  0  0  0  0
 10  2  1  0  0  0  0
 11 10  2  0  0  0  0
 12  2  1  0  0  0  0
 12  8  2  0  0  0  0
 13 25  1  6  0  0  0
 13  7  1  0  0  0  0
 13  9  1  0  0  0  0
 14 15  2  0  0  0  0
 14 16  1  0  0  0  0
 18 19  2  0  0  0  0
 19 17  1  0  0  0  0
 20 21  2  0  0  0  0
 21 18  1  0  0  0  0
 22 24  1  0  0  0  0
 22 21  1  0  0  0  0
 24 23  3  0  0  0  0
 26 25  1  0  0  0  0
M  END
>  <MODEL>
1

>  <REMARK>
 VINA RESULT:      -8.1      0.000      0.000
  Name = 
  6 active torsions:
  status: ('A' for Active; 'I' for Inactive)
    1  A    between atoms: C_1  and  C_8
    2  A    between atoms: N_4  and  C_25
    3  A    between atoms: C_9  and  C_20
    4  A    between atoms: C_11  and  C_23
    5  A    between atoms: C_14  and  C_26
    6  A    between atoms: C_25  and  C_26
                            x       y       z     vdW  Elec       q    Type
                         _______ _______ _______ _____ _____    ______ ____

>  <TORSDO>
F 6

$$$$
=
 OpenBabel10232410013D

 26 29  0  0  1  0  0  0  0  0999 V2000
  189.6390  177.3240  146.8250 C   0  0  0  0  0  3  0  0  0  0  0  0
  186.5850  178.4460  144.7150 C   0  0  2  0  0  3  0  0  0  0  0  0
  188.9630  177.1130  141.9620 C   0  0  1  0  0  3  0  0  0  0  0  0
  189.0760  177.2680  148.1000 C   0  0  0  0  0  3  0  0  0  0  0  0
  187.7330  177.5910  148.2820 C   0  0  0  0  0  3  0  0  0  0  0  0
  188.8660  177.7110  145.7250 C   0  0  0  0  0  0  0  0  0  0  0  0
  189.3420  178.0920  142.9600 C   0  0  2  0  0  0  0  0  0  0  0  0
  186.9460  177.9570  147.1880 C   0  0  0  0  0  3  0  0  0  0  0  0
  189.4700  177.7470  144.4310 N   0  0  0  0  0  0  0  0  0  0  0  0
  186.7060  177.5780  143.4870 C   0  0  0  0  0  3  0  0  0  0  0  0
  187.8950  177.5490  142.9040 C   0  0  0  0  0  0  0  0  0  0  0  0
  187.4790  178.0030  145.8890 C   0  0  0  0  0  0  0  0  0  0  0  0
  190.4880  177.4470  143.4280 C   0  0  2  0  0  3  0  0  0  0  0  0
  185.1380  178.6200  145.0710 C   0  0  0  0  0  0  0  0  0  0  0  0
  184.8040  179.0610  146.2020 O   0  0  0  0  0  0  0  0  0  0  0  0
  184.1380  178.3120  144.1080 N   0  0  0  0  0  1  0  0  0  0  0  0
  187.4150  178.4340  140.3670 C   0  0  0  0  0  1  0  0  0  0  0  0
  189.4890  177.5400  139.5780 N   0  0  0  0  0  0  0  0  0  0  0  0
  188.7020  177.7170  140.6000 C   0  0  0  0  0  0  0  0  0  0  0  0
  191.7860  177.4090  140.1260 C   0  0  0  0  0  2  0  0  0  0  0  0
  190.7250  176.8200  139.5910 C   0  0  0  0  0  0  0  0  0  0  0  0
  190.9760  175.7750  138.5560 C   0  0  0  0  0  2  0  0  0  0  0  0
  193.2160  176.2680  137.1790 C   0  0  0  0  0  3  0  0  0  0  0  0
  192.2070  176.0460  137.8040 C   0  0  0  0  0  0  0  0  0  0  0  0
  191.6280  178.4320  143.5920 C   0  0  0  0  0  2  0  0  0  0  0  0
  191.1300  179.6600  144.0240 O   0  0  0  0  0  1  0  0  0  0  0  0
  1  4  1  0  0  0  0
  2 14  1  1  0  0  0
  2 12  1  0  0  0  0
  3 19  1  6  0  0  0
  3 11  1  0  0  0  0
  3  7  1  0  0  0  0
  4  5  2  0  0  0  0
  6 12  1  0  0  0  0
  6  1  2  0  0  0  0
  7 11  1  6  0  0  0
  7 13  1  0  0  0  0
  7  9  1  0  0  0  0
  8  5  1  0  0  0  0
  9  6  1  0  0  0  0
 10  2  1  0  0  0  0
 11 10  2  0  0  0  0
 12  8  2  0  0  0  0
 13 25  1  1  0  0  0
 13  9  1  0  0  0  0
 14 15  2  0  0  0  0
 16 14  1  0  0  0  0
 17 19  1  0  0  0  0
 18 21  1  0  0  0  0
 18 19  2  0  0  0  0
 21 20  2  0  0  0  0
 22 21  1  0  0  0  0
 23 24  3  0  0  0  0
 24 22  1  0  0  0  0
 25 26  1  0  0  0  0
M  END
>  <MODEL>
2

>  <REMARK>
 VINA RESULT:      -7.7      2.924      5.592
  Name = 
  6 active torsions:
  status: ('A' for Active; 'I' for Inactive)
    1  A    between atoms: C_1  and  C_8
    2  A    between atoms: N_4  and  C_25
    3  A    between atoms: C_9  and  C_20
    4  A    between atoms: C_11  and  C_23
    5  A    between atoms: C_14  and  C_26
    6  A    between atoms: C_25  and  C_26
                            x       y       z     vdW  Elec       q    Type
                         _______ _______ _______ _____ _____    ______ ____

>  <TORSDO>
F 6

$$$$
=
 OpenBabel10232410013D

 26 29  0  0  1  0  0  0  0  0999 V2000
  191.7280  176.1640  145.1620 C   0  0  0  0  0  3  0  0  0  0  0  0
  188.3280  177.9580  145.6730 C   0  0  2  0  0  3  0  0  0  0  0  0
  188.2580  177.2670  141.8620 C   0  0  1  0  0  3  0  0  0  0  0  0
  192.0410  175.8070  146.4740 C   0  0  0  0  0  3  0  0  0  0  0  0
  191.1730  176.1410  147.5120 C   0  0  0  0  0  3  0  0  0  0  0  0
  190.5500  176.8650  144.8800 C   0  0  0  0  0  0  0  0  0  0  0  0
  189.3470  177.9300  142.5490 C   0  0  2  0  0  0  0  0  0  0  0  0
  189.9840  176.8210  147.2390 C   0  0  0  0  0  3  0  0  0  0  0  0
  190.2540  177.2070  143.5240 N   0  0  0  0  0  0  0  0  0  0  0  0
  187.5120  177.4360  144.5170 C   0  0  0  0  0  3  0  0  0  0  0  0
  188.0800  177.4980  143.3220 C   0  0  0  0  0  0  0  0  0  0  0  0
  189.6320  177.1770  145.9260 C   0  0  0  0  0  0  0  0  0  0  0  0
  190.3840  177.1260  142.0730 C   0  0  2  0  0  3  0  0  0  0  0  0
  187.4530  178.1080  146.8830 C   0  0  0  0  0  0  0  0  0  0  0  0
  187.9440  178.4510  147.9910 O   0  0  0  0  0  0  0  0  0  0  0  0
  186.0530  177.8910  146.7660 N   0  0  0  0  0  1  0  0  0  0  0  0
  186.1670  178.7870  141.7790 C   0  0  0  0  0  1  0  0  0  0  0  0
  187.5180  178.4770  139.8290 N   0  0  0  0  0  0  0  0  0  0  0  0
  187.3660  178.2190  141.0960 C   0  0  0  0  0  0  0  0  0  0  0  0
  189.3730  178.8360  138.4070 C   0  0  0  0  0  2  0  0  0  0  0  0
  188.5610  177.9680  138.9940 C   0  0  0  0  0  0  0  0  0  0  0  0
  188.3870  176.6420  138.3290 C   0  0  0  0  0  2  0  0  0  0  0  0
  190.7460  175.4800  137.8400 C   0  0  0  0  0  3  0  0  0  0  0  0
  189.6800  176.0020  138.0570 C   0  0  0  0  0  0  0  0  0  0  0  0
  191.5680  177.9720  141.6490 C   0  0  0  0  0  2  0  0  0  0  0  0
  192.0390  177.5360  140.4110 O   0  0  0  0  0  1  0  0  0  0  0  0
  1  4  1  0  0  0  0
  2 12  1  0  0  0  0
  2 14  1  1  0  0  0
  3 19  1  6  0  0  0
  3  7  1  0  0  0  0
  3 11  1  0  0  0  0
  4  5  2  0  0  0  0
  6  1  2  0  0  0  0
  6 12  1  0  0  0  0
  7 11  1  6  0  0  0
  7  9  1  0  0  0  0
  8  5  1  0  0  0  0
  9  6  1  0  0  0  0
 10  2  1  0  0  0  0
 11 10  2  0  0  0  0
 12  8  2  0  0  0  0
 13 25  1  1  0  0  0
 13  7  1  0  0  0  0
 13  9  1  0  0  0  0
 14 15  2  0  0  0  0
 16 14  1  0  0  0  0
 18 19  2  0  0  0  0
 19 17  1  0  0  0  0
 20 21  2  0  0  0  0
 21 18  1  0  0  0  0
 22 21  1  0  0  0  0
 23 24  3  0  0  0  0
 24 22  1  0  0  0  0
 26 25  1  0  0  0  0
M  END
>  <MODEL>
3

>  <REMARK>
 VINA RESULT:      -7.7      2.482      3.956
  Name = 
  6 active torsions:
  status: ('A' for Active; 'I' for Inactive)
    1  A    between atoms: C_1  and  C_8
    2  A    between atoms: N_4  and  C_25
    3  A    between atoms: C_9  and  C_20
    4  A    between atoms: C_11  and  C_23
    5  A    between atoms: C_14  and  C_26
    6  A    between atoms: C_25  and  C_26
                            x       y       z     vdW  Elec       q    Type
                         _______ _______ _______ _____ _____    ______ ____

>  <TORSDO>
F 6

$$$$
=
 OpenBabel10232410013D

 26 29  0  0  1  0  0  0  0  0999 V2000
  189.8950  176.8820  146.0130 C   0  0  0  0  0  3  0  0  0  0  0  0
  186.5300  178.6990  145.3700 C   0  0  2  0  0  3  0  0  0  0  0  0
  187.4680  177.5480  141.7920 C   0  0  1  0  0  3  0  0  0  0  0  0
  189.8360  176.6900  147.3930 C   0  0  0  0  0  3  0  0  0  0  0  0
  188.7300  177.1420  148.1110 C   0  0  0  0  0  3  0  0  0  0  0  0
  188.8550  177.5350  145.3420 C   0  0  0  0  0  0  0  0  0  0  0  0
  188.3500  178.2980  142.6630 C   0  0  2  0  0  0  0  0  0  0  0  0
  187.6750  177.7740  147.4490 C   0  0  0  0  0  3  0  0  0  0  0  0
  188.9430  177.7060  143.9260 N   0  0  0  0  0  0  0  0  0  0  0  0
  186.0410  178.0340  144.1080 C   0  0  0  0  0  3  0  0  0  0  0  0
  186.9110  177.9540  143.1120 C   0  0  0  0  0  0  0  0  0  0  0  0
  187.6980  177.9650  146.0570 C   0  0  0  0  0  0  0  0  0  0  0  0
  189.4550  177.4500  142.5830 C   0  0  2  0  0  3  0  0  0  0  0  0
  185.3670  178.9890  146.2730 C   0  0  0  0  0  0  0  0  0  0  0  0
  185.5430  179.5540  147.3850 O   0  0  0  0  0  0  0  0  0  0  0  0
  184.0520  178.6510  145.8500 N   0  0  0  0  0  1  0  0  0  0  0  0
  185.5950  179.1530  141.0180 C   0  0  0  0  0  1  0  0  0  0  0  0
  187.2560  178.3970  139.4730 N   0  0  0  0  0  0  0  0  0  0  0  0
  186.8390  178.3920  140.7060 C   0  0  0  0  0  0  0  0  0  0  0  0
  189.5440  178.3100  138.8760 C   0  0  0  0  0  2  0  0  0  0  0  0
  188.3840  177.6740  138.9720 C   0  0  0  0  0  0  0  0  0  0  0  0
  188.1650  176.5170  138.0540 C   0  0  0  0  0  2  0  0  0  0  0  0
  185.9880  176.8680  136.5410 C   0  0  0  0  0  3  0  0  0  0  0  0
  186.9690  176.7060  137.2250 C   0  0  0  0  0  0  0  0  0  0  0  0
  190.7310  178.2470  142.3970 C   0  0  0  0  0  2  0  0  0  0  0  0
  191.6410  177.5080  141.6430 O   0  0  0  0  0  1  0  0  0  0  0  0
  1  4  1  0  0  0  0
  2 12  1  0  0  0  0
  2 14  1  1  0  0  0
  3 19  1  6  0  0  0
  3  7  1  0  0  0  0
  3 11  1  0  0  0  0
  4  5  2  0  0  0  0
  6  1  2  0  0  0  0
  6 12  1  0  0  0  0
  7 11  1  6  0  0  0
  7  9  1  0  0  0  0
  8  5  1  0  0  0  0
  9  6  1  0  0  0  0
 10  2  1  0  0  0  0
 11 10  2  0  0  0  0
 12  8  2  0  0  0  0
 13 25  1  1  0  0  0
 13  7  1  0  0  0  0
 13  9  1  0  0  0  0
 14 15  2  0  0  0  0
 16 14  1  0  0  0  0
 18 19  2  0  0  0  0
 19 17  1  0  0  0  0
 20 21  2  0  0  0  0
 21 18  1  0  0  0  0
 22 21  1  0  0  0  0
 23 24  3  0  0  0  0
 24 22  1  0  0  0  0
 26 25  1  0  0  0  0
M  END
>  <MODEL>
4

>  <REMARK>
 VINA RESULT:      -7.5      2.421      3.771
  Name = 
  6 active torsions:
  status: ('A' for Active; 'I' for Inactive)
    1  A    between atoms: C_1  and  C_8
    2  A    between atoms: N_4  and  C_25
    3  A    between atoms: C_9  and  C_20
    4  A    between atoms: C_11  and  C_23
    5  A    between atoms: C_14  and  C_26
    6  A    between atoms: C_25  and  C_26
                            x       y       z     vdW  Elec       q    Type
                         _______ _______ _______ _____ _____    ______ ____

>  <TORSDO>
F 6

$$$$
=
 OpenBabel10232410013D

 26 29  0  0  1  0  0  0  0  0999 V2000
  184.8210  178.7890  145.7020 C   0  0  0  0  0  3  0  0  0  0  0  0
  187.1760  177.4080  142.9480 C   0  0  2  0  0  3  0  0  0  0  0  0
  184.6260  179.4160  140.8320 C   0  0  1  0  0  3  0  0  0  0  0  0
  185.6070  178.6080  146.8410 C   0  0  0  0  0  3  0  0  0  0  0  0
  186.8770  178.0460  146.7270 C   0  0  0  0  0  3  0  0  0  0  0  0
  185.2950  178.4000  144.4440 C   0  0  0  0  0  0  0  0  0  0  0  0
  184.2600  178.4110  141.8090 C   0  0  2  0  0  0  0  0  0  0  0  0
  187.3690  177.6760  145.4730 C   0  0  0  0  0  3  0  0  0  0  0  0
  184.4680  178.6090  143.2970 N   0  0  0  0  0  0  0  0  0  0  0  0
  186.9960  178.4130  141.8380 C   0  0  0  0  0  3  0  0  0  0  0  0
  185.7470  178.7060  141.5070 C   0  0  0  0  0  0  0  0  0  0  0  0
  186.6090  177.8630  144.3060 C   0  0  0  0  0  0  0  0  0  0  0  0
  183.3590  179.1840  142.5420 C   0  0  2  0  0  3  0  0  0  0  0  0
  188.6050  176.9550  142.9950 C   0  0  0  0  0  0  0  0  0  0  0  0
  188.8880  175.7350  143.1190 O   0  0  0  0  0  0  0  0  0  0  0  0
  189.6470  177.9150  142.8670 N   0  0  0  0  0  1  0  0  0  0  0  0
  185.7410  178.4120  138.7260 C   0  0  0  0  0  1  0  0  0  0  0  0
  183.4370  179.0530  138.6880 N   0  0  0  0  0  0  0  0  0  0  0  0
  184.5170  178.9300  139.4040 C   0  0  0  0  0  0  0  0  0  0  0  0
  181.1760  178.7600  139.3220 C   0  0  0  0  0  2  0  0  0  0  0  0
  182.1930  179.5930  139.1420 C   0  0  0  0  0  0  0  0  0  0  0  0
  181.8600  181.0180  138.8460 C   0  0  0  0  0  2  0  0  0  0  0  0
  180.4940  181.2520  136.5580 C   0  0  0  0  0  3  0  0  0  0  0  0
  181.1070  181.1470  137.5930 C   0  0  0  0  0  0  0  0  0  0  0  0
  182.1040  178.3930  142.8550 C   0  0  0  0  0  2  0  0  0  0  0  0
  181.5950  178.7880  144.0920 O   0  0  0  0  0  1  0  0  0  0  0  0
  1  4  1  0  0  0  0
  2 14  1  1  0  0  0
  2 12  1  0  0  0  0
  3 19  1  6  0  0  0
  3 11  1  0  0  0  0
  3  7  1  0  0  0  0
  5  4  2  0  0  0  0
  6  1  2  0  0  0  0
  7 11  1  6  0  0  0
  7 13  1  0  0  0  0
  7  9  1  0  0  0  0
  8  5  1  0  0  0  0
  9  6  1  0  0  0  0
 10  2  1  0  0  0  0
 11 10  2  0  0  0  0
 12  6  1  0  0  0  0
 12  8  2  0  0  0  0
 13 25  1  1  0  0  0
 13  9  1  0  0  0  0
 14 15  2  0  0  0  0
 16 14  1  0  0  0  0
 17 19  1  0  0  0  0
 18 21  1  0  0  0  0
 18 19  2  0  0  0  0
 21 20  2  0  0  0  0
 22 21  1  0  0  0  0
 23 24  3  0  0  0  0
 24 22  1  0  0  0  0
 25 26  1  0  0  0  0
M  END
>  <MODEL>
5

>  <REMARK>
 VINA RESULT:      -7.2      2.702      4.910
  Name = 
  6 active torsions:
  status: ('A' for Active; 'I' for Inactive)
    1  A    between atoms: C_1  and  C_8
    2  A    between atoms: N_4  and  C_25
    3  A    between atoms: C_9  and  C_20
    4  A    between atoms: C_11  and  C_23
    5  A    between atoms: C_14  and  C_26
    6  A    between atoms: C_25  and  C_26
                            x       y       z     vdW  Elec       q    Type
                         _______ _______ _______ _____ _____    ______ ____

>  <TORSDO>
F 6

$$$$
=
 OpenBabel10232410013D

 26 29  0  0  1  0  0  0  0  0999 V2000
  188.7970  177.2860  140.4160 C   0  0  0  0  0  3  0  0  0  0  0  0
  190.0660  178.0800  143.9930 C   0  0  2  0  0  3  0  0  0  0  0  0
  186.2710  177.6160  144.6190 C   0  0  1  0  0  3  0  0  0  0  0  0
  189.9910  176.9500  139.7770 C   0  0  0  0  0  3  0  0  0  0  0  0
  191.1910  176.9810  140.4860 C   0  0  0  0  0  3  0  0  0  0  0  0
  188.7950  177.6640  141.7630 C   0  0  0  0  0  0  0  0  0  0  0  0
  186.8280  178.5040  143.6190 C   0  0  2  0  0  0  0  0  0  0  0  0
  191.1980  177.3350  141.8360 C   0  0  0  0  0  3  0  0  0  0  0  0
  187.5530  177.9930  142.3900 N   0  0  0  0  0  0  0  0  0  0  0  0
  189.0170  177.4280  144.8590 C   0  0  0  0  0  3  0  0  0  0  0  0
  187.7560  177.7070  144.5640 C   0  0  0  0  0  0  0  0  0  0  0  0
  190.0090  177.6610  142.5120 C   0  0  0  0  0  0  0  0  0  0  0  0
  186.1000  178.0330  142.5250 C   0  0  2  0  0  3  0  0  0  0  0  0
  191.4160  177.9230  144.6280 C   0  0  0  0  0  0  0  0  0  0  0  0
  191.7180  176.8660  145.2430 O   0  0  0  0  0  0  0  0  0  0  0  0
  192.3730  178.9680  144.5050 N   0  0  0  0  0  1  0  0  0  0  0  0
  186.5430  178.2070  147.1220 C   0  0  0  0  0  1  0  0  0  0  0  0
  184.6390  178.9770  145.8950 N   0  0  0  0  0  0  0  0  0  0  0  0
  185.7740  178.3400  145.8500 C   0  0  0  0  0  0  0  0  0  0  0  0
  183.7780  180.2840  144.1210 C   0  0  0  0  0  2  0  0  0  0  0  0
  183.7340  179.1460  144.8000 C   0  0  0  0  0  0  0  0  0  0  0  0
  182.4400  178.4010  144.7960 C   0  0  0  0  0  2  0  0  0  0  0  0
  180.8960  179.1340  142.7390 C   0  0  0  0  0  3  0  0  0  0  0  0
  181.5890  178.8050  143.6700 C   0  0  0  0  0  0  0  0  0  0  0  0
  185.5730  179.1860  141.6950 C   0  0  0  0  0  2  0  0  0  0  0  0
  185.7020  178.8870  140.3390 O   0  0  0  0  0  1  0  0  0  0  0  0
  1  6  1  0  0  0  0
  2 14  1  1  0  0  0
  2 10  1  0  0  0  0
  3 19  1  1  0  0  0
  4  1  2  0  0  0  0
  4  5  1  0  0  0  0
  5  8  2  0  0  0  0
  6  9  1  0  0  0  0
  6 12  2  0  0  0  0
  7 11  1  1  0  0  0
  7  3  1  0  0  0  0
  8 12  1  0  0  0  0
  9 13  1  0  0  0  0
  9  7  1  0  0  0  0
 11  3  1  0  0  0  0
 11 10  2  0  0  0  0
 12  2  1  0  0  0  0
 13 25  1  6  0  0  0
 13  7  1  0  0  0  0
 14 15  2  0  0  0  0
 16 14  1  0  0  0  0
 19 18  2  0  0  0  0
 19 17  1  0  0  0  0
 20 21  2  0  0  0  0
 21 18  1  0  0  0  0
 22 21  1  0  0  0  0
 23 24  3  0  0  0  0
 24 22  1  0  0  0  0
 26 25  1  0  0  0  0
M  END
>  <MODEL>
6

>  <REMARK>
 VINA RESULT:      -6.8      2.185      3.511
  Name = 
  6 active torsions:
  status: ('A' for Active; 'I' for Inactive)
    1  A    between atoms: C_1  and  C_8
    2  A    between atoms: N_4  and  C_25
    3  A    between atoms: C_9  and  C_20
    4  A    between atoms: C_11  and  C_23
    5  A    between atoms: C_14  and  C_26
    6  A    between atoms: C_25  and  C_26
                            x       y       z     vdW  Elec       q    Type
                         _______ _______ _______ _____ _____    ______ ____

>  <TORSDO>
F 6

$$$$
=
 OpenBabel10232410013D

 26 29  0  0  1  0  0  0  0  0999 V2000
  189.0790  177.9440  140.5300 C   0  0  0  0  0  3  0  0  0  0  0  0
  185.2490  178.4770  140.2300 C   0  0  2  0  0  3  0  0  0  0  0  0
  185.8010  179.0450  144.0220 C   0  0  1  0  0  3  0  0  0  0  0  0
  189.4700  178.0630  139.1960 C   0  0  0  0  0  3  0  0  0  0  0  0
  188.5160  178.3070  138.2110 C   0  0  0  0  0  3  0  0  0  0  0  0
  187.7310  178.0600  140.8870 C   0  0  0  0  0  0  0  0  0  0  0  0
  186.2600  177.8770  143.2990 C   0  0  2  0  0  0  0  0  0  0  0  0
  187.1700  178.4470  138.5570 C   0  0  0  0  0  3  0  0  0  0  0  0
  187.3650  177.9430  142.2630 N   0  0  0  0  0  0  0  0  0  0  0  0
  184.9550  179.3670  141.4120 C   0  0  0  0  0  3  0  0  0  0  0  0
  185.4440  178.9740  142.5780 C   0  0  0  0  0  0  0  0  0  0  0  0
  186.7480  178.3520  139.8950 C   0  0  0  0  0  0  0  0  0  0  0  0
  187.5950  177.9200  143.7040 C   0  0  2  0  0  3  0  0  0  0  0  0
  184.3880  178.8760  139.0680 C   0  0  0  0  0  0  0  0  0  0  0  0
  183.8900  178.0040  138.3090 O   0  0  0  0  0  0  0  0  0  0  0  0
  184.1070  180.2520  138.8460 N   0  0  0  0  0  1  0  0  0  0  0  0
  183.2330  178.7900  144.1810 C   0  0  0  0  0  1  0  0  0  0  0  0
  184.5850  178.6800  146.1510 N   0  0  0  0  0  0  0  0  0  0  0  0
  184.5650  178.7860  144.8540 C   0  0  0  0  0  0  0  0  0  0  0  0
  186.2620  179.9140  147.2740 C   0  0  0  0  0  2  0  0  0  0  0  0
  185.7550  178.7260  146.9730 C   0  0  0  0  0  0  0  0  0  0  0  0
  186.6920  177.5640  146.9810 C   0  0  0  0  0  2  0  0  0  0  0  0
  188.8160  178.0350  148.5370 C   0  0  0  0  0  3  0  0  0  0  0  0
  187.8590  177.8180  147.8340 C   0  0  0  0  0  0  0  0  0  0  0  0
  188.0840  176.5380  144.0900 C   0  0  0  0  0  2  0  0  0  0  0  0
  189.4170  176.6060  144.4950 O   0  0  0  0  0  1  0  0  0  0  0  0
  1  6  1  0  0  0  0
  2 14  1  6  0  0  0
  2 10  1  0  0  0  0
  3 19  1  1  0  0  0
  4  1  2  0  0  0  0
  5  8  2  0  0  0  0
  5  4  1  0  0  0  0
  6  9  1  0  0  0  0
  7 11  1  1  0  0  0
  7 13  1  0  0  0  0
  7  3  1  0  0  0  0
  8 12  1  0  0  0  0
  9  7  1  0  0  0  0
  9 13  1  0  0  0  0
 10 11  2  0  0  0  0
 11  3  1  0  0  0  0
 12  2  1  0  0  0  0
 12  6  2  0  0  0  0
 13 25  1  6  0  0  0
 15 14  2  0  0  0  0
 16 14  1  0  0  0  0
 17 19  1  0  0  0  0
 18 21  1  0  0  0  0
 19 18  2  0  0  0  0
 21 22  1  0  0  0  0
 21 20  2  0  0  0  0
 22 24  1  0  0  0  0
 24 23  3  0  0  0  0
 25 26  1  0  0  0  0
M  END
>  <MODEL>
7

>  <REMARK>
 VINA RESULT:      -6.8      2.605      6.514
  Name = 
  6 active torsions:
  status: ('A' for Active; 'I' for Inactive)
    1  A    between atoms: C_1  and  C_8
    2  A    between atoms: N_4  and  C_25
    3  A    between atoms: C_9  and  C_20
    4  A    between atoms: C_11  and  C_23
    5  A    between atoms: C_14  and  C_26
    6  A    between atoms: C_25  and  C_26
                            x       y       z     vdW  Elec       q    Type
                         _______ _______ _______ _____ _____    ______ ____

>  <TORSDO>
F 6

$$$$
=
 OpenBabel10232410013D

 26 29  0  0  1  0  0  0  0  0999 V2000
  186.0020  178.5460  145.9120 C   0  0  0  0  0  3  0  0  0  0  0  0
  188.2110  177.0510  143.0970 C   0  0  2  0  0  3  0  0  0  0  0  0
  185.6900  179.1600  141.0460 C   0  0  1  0  0  3  0  0  0  0  0  0
  186.8120  178.3360  147.0280 C   0  0  0  0  0  3  0  0  0  0  0  0
  188.0530  177.7190  146.8800 C   0  0  0  0  0  3  0  0  0  0  0  0
  186.4200  178.1320  144.6430 C   0  0  0  0  0  0  0  0  0  0  0  0
  185.3090  178.1760  142.0390 C   0  0  2  0  0  0  0  0  0  0  0  0
  188.4910  177.3220  145.6150 C   0  0  0  0  0  3  0  0  0  0  0  0
  185.5700  178.3710  143.5200 N   0  0  0  0  0  0  0  0  0  0  0  0
  188.0430  178.0580  141.9870 C   0  0  0  0  0  3  0  0  0  0  0  0
  186.7980  178.4040  141.6920 C   0  0  0  0  0  0  0  0  0  0  0  0
  187.7050  177.5360  144.4690 C   0  0  0  0  0  0  0  0  0  0  0  0
  184.4650  178.9910  142.7940 C   0  0  2  0  0  3  0  0  0  0  0  0
  189.6200  176.5370  143.1050 C   0  0  0  0  0  0  0  0  0  0  0  0
  189.8570  175.3110  142.9360 O   0  0  0  0  0  0  0  0  0  0  0  0
  190.6970  177.4500  143.2740 N   0  0  0  0  0  1  0  0  0  0  0  0
  186.6940  178.0870  138.9180 C   0  0  0  0  0  1  0  0  0  0  0  0
  184.4260  178.8480  138.9370 N   0  0  0  0  0  0  0  0  0  0  0  0
  185.5170  178.6720  139.6250 C   0  0  0  0  0  0  0  0  0  0  0  0
  182.2850  178.6670  139.9270 C   0  0  0  0  0  2  0  0  0  0  0  0
  183.2240  179.4550  139.4200 C   0  0  0  0  0  0  0  0  0  0  0  0
  182.7820  180.7620  138.8500 C   0  0  0  0  0  2  0  0  0  0  0  0
  180.2130  181.2520  139.4140 C   0  0  0  0  0  3  0  0  0  0  0  0
  181.3720  181.0340  139.1560 C   0  0  0  0  0  0  0  0  0  0  0  0
  183.1870  178.2570  143.1490 C   0  0  0  0  0  2  0  0  0  0  0  0
  182.4650  178.9950  144.0860 O   0  0  0  0  0  1  0  0  0  0  0  0
  1  4  1  0  0  0  0
  2 14  1  1  0  0  0
  2 12  1  0  0  0  0
  3 19  1  6  0  0  0
  3 11  1  0  0  0  0
  3  7  1  0  0  0  0
  5  4  2  0  0  0  0
  6  1  2  0  0  0  0
  7 11  1  6  0  0  0
  7 13  1  0  0  0  0
  7  9  1  0  0  0  0
  8  5  1  0  0  0  0
  9  6  1  0  0  0  0
 10  2  1  0  0  0  0
 11 10  2  0  0  0  0
 12  6  1  0  0  0  0
 12  8  2  0  0  0  0
 13 25  1  1  0  0  0
 13  9  1  0  0  0  0
 14 16  1  0  0  0  0
 15 14  2  0  0  0  0
 17 19  1  0  0  0  0
 18 21  1  0  0  0  0
 18 19  2  0  0  0  0
 21 20  2  0  0  0  0
 22 24  1  0  0  0  0
 22 21  1  0  0  0  0
 24 23  3  0  0  0  0
 25 26  1  0  0  0  0
M  END
>  <MODEL>
8

>  <REMARK>
 VINA RESULT:      -6.7      2.466      4.313
  Name = 
  6 active torsions:
  status: ('A' for Active; 'I' for Inactive)
    1  A    between atoms: C_1  and  C_8
    2  A    between atoms: N_4  and  C_25
    3  A    between atoms: C_9  and  C_20
    4  A    between atoms: C_11  and  C_23
    5  A    between atoms: C_14  and  C_26
    6  A    between atoms: C_25  and  C_26
                            x       y       z     vdW  Elec       q    Type
                         _______ _______ _______ _____ _____    ______ ____

>  <TORSDO>
F 6

$$$$
=
 OpenBabel10232410013D

 26 29  0  0  1  0  0  0  0  0999 V2000
  186.9850  178.3650  146.3930 C   0  0  0  0  0  3  0  0  0  0  0  0
  190.5180  176.7920  146.1050 C   0  0  2  0  0  3  0  0  0  0  0  0
  190.0250  178.2120  142.5340 C   0  0  1  0  0  3  0  0  0  0  0  0
  186.8360  178.4340  147.7780 C   0  0  0  0  0  3  0  0  0  0  0  0
  187.8560  177.9770  148.6110 C   0  0  0  0  0  3  0  0  0  0  0  0
  188.1500  177.8310  145.8310 C   0  0  0  0  0  0  0  0  0  0  0  0
  189.0790  177.3410  143.2010 C   0  0  2  0  0  0  0  0  0  0  0  0
  189.0320  177.4630  148.0610 C   0  0  0  0  0  3  0  0  0  0  0  0
  188.2760  177.7850  144.4080 N   0  0  0  0  0  0  0  0  0  0  0  0
  191.1370  177.5930  144.9870 C   0  0  0  0  0  3  0  0  0  0  0  0
  190.4140  177.7180  143.8840 C   0  0  0  0  0  0  0  0  0  0  0  0
  189.2200  177.3980  146.6700 C   0  0  0  0  0  0  0  0  0  0  0  0
  187.9440  178.1350  143.0300 C   0  0  2  0  0  3  0  0  0  0  0  0
  191.5570  176.4810  147.1410 C   0  0  0  0  0  0  0  0  0  0  0  0
  191.9750  177.3780  147.9210 O   0  0  0  0  0  0  0  0  0  0  0  0
  192.0500  175.1530  147.2620 N   0  0  0  0  0  1  0  0  0  0  0  0
  192.2250  177.0380  141.8500 C   0  0  0  0  0  1  0  0  0  0  0  0
  190.4860  177.3850  140.2440 N   0  0  0  0  0  0  0  0  0  0  0  0
  190.8550  177.5030  141.4870 C   0  0  0  0  0  0  0  0  0  0  0  0
  188.2660  176.9520  139.5530 C   0  0  0  0  0  2  0  0  0  0  0  0
  189.2450  177.8350  139.6950 C   0  0  0  0  0  0  0  0  0  0  0  0
  189.2310  179.0180  138.7850 C   0  0  0  0  0  2  0  0  0  0  0  0
  188.9480  178.2790  136.2300 C   0  0  0  0  0  3  0  0  0  0  0  0
  189.0760  178.6170  137.3820 C   0  0  0  0  0  0  0  0  0  0  0  0
  186.7620  177.2920  142.5930 C   0  0  0  0  0  2  0  0  0  0  0  0
  185.5730  177.9510  142.9060 O   0  0  0  0  0  1  0  0  0  0  0  0
  1  4  1  0  0  0  0
  2 12  1  0  0  0  0
  2 14  1  1  0  0  0
  3 19  1  6  0  0  0
  3  7  1  0  0  0  0
  3 11  1  0  0  0  0
  4  5  2  0  0  0  0
  6  1  2  0  0  0  0
  6 12  1  0  0  0  0
  7 11  1  6  0  0  0
  7  9  1  0  0  0  0
  8  5  1  0  0  0  0
  9  6  1  0  0  0  0
 10  2  1  0  0  0  0
 11 10  2  0  0  0  0
 12  8  2  0  0  0  0
 13 25  1  6  0  0  0
 13  7  1  0  0  0  0
 13  9  1  0  0  0  0
 14 16  1  0  0  0  0
 14 15  2  0  0  0  0
 18 19  2  0  0  0  0
 19 17  1  0  0  0  0
 20 21  2  0  0  0  0
 21 18  1  0  0  0  0
 22 21  1  0  0  0  0
 23 24  3  0  0  0  0
 24 22  1  0  0  0  0
 25 26  1  0  0  0  0
M  END
>  <MODEL>
9

>  <REMARK>
 VINA RESULT:      -6.6      2.903      5.007
  Name = 
  6 active torsions:
  status: ('A' for Active; 'I' for Inactive)
    1  A    between atoms: C_1  and  C_8
    2  A    between atoms: N_4  and  C_25
    3  A    between atoms: C_9  and  C_20
    4  A    between atoms: C_11  and  C_23
    5  A    between atoms: C_14  and  C_26
    6  A    between atoms: C_25  and  C_26
                            x       y       z     vdW  Elec       q    Type
                         _______ _______ _______ _____ _____    ______ ____

>  <TORSDO>
F 6

$$$$
