=
 OpenBabel10232412343D

 34 37  0  0  0  0  0  0  0  0999 V2000
  189.0140  177.5020  141.9900 C   0  0  0  0  0  0  0  0  0  0  0  0
  190.1510  176.8710  137.9940 C   0  0  0  0  0  0  0  0  0  0  0  0
  190.8300  176.0330  142.6720 C   0  0  0  0  0  3  0  0  0  0  0  0
  190.4760  176.2230  144.0110 C   0  0  0  0  0  3  0  0  0  0  0  0
  188.3510  178.3530  137.3210 C   0  0  0  0  0  3  0  0  0  0  0  0
  189.4000  177.0530  144.3440 C   0  0  0  0  0  0  0  0  0  0  0  0
  188.6770  177.9200  139.6300 C   0  0  0  0  0  0  0  0  0  0  0  0
  188.6670  177.6860  143.3350 C   0  0  0  0  0  3  0  0  0  0  0  0
  188.2990  178.1290  140.9620 C   0  0  0  0  0  0  0  0  0  0  0  0
  190.1050  176.6680  141.6610 C   0  0  0  0  0  0  0  0  0  0  0  0
  188.0030  178.5320  138.6210 N   0  0  0  0  0  0  0  0  0  0  0  0
  190.4510  176.4800  140.3610 N   0  0  0  0  0  0  0  0  0  0  0  0
  187.2210  178.9590  141.2580 O   0  0  0  0  0  1  0  0  0  0  0  0
  189.7710  177.0720  139.3390 C   0  0  0  0  0  0  0  0  0  0  0  0
  189.4230  177.5240  136.9890 C   0  0  0  0  0  3  0  0  0  0  0  0
  193.3660  175.0960  137.2060 C   0  0  0  0  0  0  0  0  0  0  0  0
  192.4870  174.1330  136.9820 C   0  0  0  0  0  3  0  0  0  0  0  0
  191.1690  174.6870  137.2520 C   0  0  0  0  0  0  0  0  0  0  0  0
  192.7110  176.3690  137.6240 C   0  0  0  0  0  2  0  0  0  0  0  0
  191.2710  175.9660  137.6190 C   0  0  0  0  0  0  0  0  0  0  0  0
  189.9050  173.9060  137.0950 C   0  0  0  0  0  2  0  0  0  0  0  0
  189.9690  173.0570  135.8400 C   0  0  0  0  0  1  0  0  0  0  0  0
  194.8370  174.9400  137.0210 C   0  0  0  0  0  2  0  0  0  0  0  0
  195.7230  173.6710  138.7740 C   0  0  0  0  0  1  0  0  0  0  0  0
  195.5190  175.0290  138.3020 N   0  0  0  0  0  2  0  0  0  0  0  0
  189.0120  177.2330  145.7690 C   0  0  0  0  0  2  0  0  0  0  0  0
  187.0620  178.1540  147.0760 C   0  0  0  0  0  0  0  0  0  0  0  0
  187.7780  177.9980  145.8490 N   0  0  0  0  0  2  0  0  0  0  0  0
  187.4920  177.6210  148.1350 O   0  0  0  0  0  0  0  0  0  0  0  0
  185.8220  178.9350  147.1040 C   0  0  0  0  0  0  0  0  0  0  0  0
  185.7990  180.0560  147.6810 O   0  0  0  0  0  0  0  0  0  0  0  0
  184.6730  178.4280  146.4930 O   0  0  0  0  0  0  0  0  0  0  0  0
  184.7430  178.3890  144.0990 C   0  0  0  0  0  1  0  0  0  0  0  0
  184.1210  179.0200  145.3270 C   0  0  0  0  0  2  0  0  0  0  0  0
  1  8  2  0  0  0  0
  2 14  1  0  0  0  0
  3  4  1  0  0  0  0
  4  6  2  0  0  0  0
  5 11  2  0  0  0  0
  6 26  1  0  0  0  0
  7  9  2  0  0  0  0
  8  6  1  0  0  0  0
  9 13  1  0  0  0  0
  9  1  1  0  0  0  0
 10  1  1  0  0  0  0
 10  3  2  0  0  0  0
 11  7  1  0  0  0  0
 12 10  1  0  0  0  0
 14  7  1  0  0  0  0
 14 12  2  0  0  0  0
 15  5  1  0  0  0  0
 15  2  2  0  0  0  0
 16 19  1  0  0  0  0
 17 16  2  0  0  0  0
 17 18  1  0  0  0  0
 18 20  2  0  0  0  0
 20 19  1  0  0  0  0
 20  2  1  0  0  0  0
 21 18  1  0  0  0  0
 22 21  1  0  0  0  0
 23 16  1  0  0  0  0
 23 25  1  0  0  0  0
 25 24  1  0  0  0  0
 26 28  1  0  0  0  0
 27 30  1  0  0  0  0
 27 29  2  0  0  0  0
 28 27  1  0  0  0  0
 30 31  2  0  0  0  0
 32 30  1  0  0  0  0
 33 34  1  0  0  0  0
 34 32  1  0  0  0  0
M  END
>  <MODEL>
1

>  <REMARK>
 VINA RESULT:      -8.6      0.000      0.000
  Name = 
  9 active torsions:
  status: ('A' for Active; 'I' for Inactive)
    1  A    between atoms: C_1  and  C_11
    2  A    between atoms: C_2  and  C_20
    3  A    between atoms: C_4  and  C_8
    4  A    between atoms: C_7  and  C_30
    5  A    between atoms: C_11  and  N_21
    6  A    between atoms: C_12  and  N_15
    7  A    between atoms: C_12  and  C_17
    8  A    between atoms: C_13  and  O_27
    9  A    between atoms: C_20  and  O_27
                            x       y       z     vdW  Elec       q    Type
                         _______ _______ _______ _____ _____    ______ ____

>  <TORSDO>
F 9

$$$$
=
 OpenBabel10232412343D

 34 37  0  0  0  0  0  0  0  0999 V2000
  184.8820  178.4480  144.9480 C   0  0  0  0  0  0  0  0  0  0  0  0
  188.9260  177.5550  145.6680 C   0  0  0  0  0  0  0  0  0  0  0  0
  185.3260  178.2360  142.5640 C   0  0  0  0  0  3  0  0  0  0  0  0
  183.9860  178.5310  142.2930 C   0  0  0  0  0  3  0  0  0  0  0  0
  188.4720  177.7470  148.0440 C   0  0  0  0  0  3  0  0  0  0  0  0
  183.0930  178.7770  143.3410 C   0  0  0  0  0  0  0  0  0  0  0  0
  186.7010  178.1030  146.5070 C   0  0  0  0  0  0  0  0  0  0  0  0
  183.5420  178.7420  144.6650 C   0  0  0  0  0  3  0  0  0  0  0  0
  185.3540  178.4010  146.2660 C   0  0  0  0  0  0  0  0  0  0  0  0
  185.7770  178.1930  143.8860 C   0  0  0  0  0  0  0  0  0  0  0  0
  187.1730  178.0400  147.7810 N   0  0  0  0  0  0  0  0  0  0  0  0
  187.0800  177.9080  144.1460 N   0  0  0  0  0  0  0  0  0  0  0  0
  184.4930  178.6440  147.3320 O   0  0  0  0  0  1  0  0  0  0  0  0
  187.5700  177.8620  145.4170 C   0  0  0  0  0  0  0  0  0  0  0  0
  189.3630  177.5030  146.9990 C   0  0  0  0  0  3  0  0  0  0  0  0
  190.9070  177.2230  142.4950 C   0  0  0  0  0  0  0  0  0  0  0  0
  191.7860  176.7930  143.3850 C   0  0  0  0  0  2  0  0  0  0  0  0
  191.1440  176.8660  144.6890 C   0  0  0  0  0  0  0  0  0  0  0  0
  189.6090  177.6000  143.1240 C   0  0  0  0  0  3  0  0  0  0  0  0
  189.8970  177.3240  144.5650 C   0  0  0  0  0  0  0  0  0  0  0  0
  191.8150  176.4470  145.9560 C   0  0  0  0  0  2  0  0  0  0  0  0
  192.1890  174.9790  145.8870 C   0  0  0  0  0  1  0  0  0  0  0  0
  191.1690  177.2850  141.0280 C   0  0  0  0  0  2  0  0  0  0  0  0
  190.3470  176.5270  138.9740 C   0  0  0  0  0  1  0  0  0  0  0  0
  189.9500  177.0080  140.2860 N   0  0  0  0  0  2  0  0  0  0  0  0
  181.6750  179.1140  143.0460 C   0  0  0  0  0  2  0  0  0  0  0  0
  180.5920  179.6330  140.8280 C   0  0  0  0  0  0  0  0  0  0  0  0
  181.3660  178.7720  141.6670 N   0  0  0  0  0  2  0  0  0  0  0  0
  180.1520  180.7270  141.2740 O   0  0  0  0  0  0  0  0  0  0  0  0
  180.3080  179.2430  139.4440 C   0  0  0  0  0  0  0  0  0  0  0  0
  180.3600  178.0280  139.1110 O   0  0  0  0  0  0  0  0  0  0  0  0
  179.9820  180.2230  138.5040 O   0  0  0  0  0  0  0  0  0  0  0  0
  180.8550  182.2150  137.5000 C   0  0  0  0  0  1  0  0  0  0  0  0
  180.9300  180.7050  137.5640 C   0  0  0  0  0  2  0  0  0  0  0  0
  1  9  2  0  0  0  0
  2 15  1  0  0  0  0
  3 10  1  0  0  0  0
  4  3  2  0  0  0  0
  4  6  1  0  0  0  0
  6  8  2  0  0  0  0
  7 11  2  0  0  0  0
  8  1  1  0  0  0  0
  9  7  1  0  0  0  0
  9 13  1  0  0  0  0
 10 12  2  0  0  0  0
 10  1  1  0  0  0  0
 11  5  1  0  0  0  0
 12 14  1  0  0  0  0
 14  2  2  0  0  0  0
 14  7  1  0  0  0  0
 15  5  2  0  0  0  0
 16 19  2  0  0  0  0
 16 17  1  0  0  0  0
 17 18  1  0  0  0  0
 18 21  1  0  0  0  0
 19 20  1  0  0  0  0
 20 18  2  0  0  0  0
 20  2  1  0  0  0  0
 22 21  1  0  0  0  0
 23 16  1  0  0  0  0
 24 25  1  0  0  0  0
 25 23  1  0  0  0  0
 26  6  1  0  0  0  0
 27 29  2  0  0  0  0
 27 28  1  0  0  0  0
 28 26  1  0  0  0  0
 30 27  1  0  0  0  0
 31 30  2  0  0  0  0
 32 30  1  0  0  0  0
 33 34  1  0  0  0  0
 34 32  1  0  0  0  0
M  END
>  <MODEL>
2

>  <REMARK>
 VINA RESULT:      -8.0      3.789      7.811
  Name = 
  9 active torsions:
  status: ('A' for Active; 'I' for Inactive)
    1  A    between atoms: C_1  and  C_11
    2  A    between atoms: C_2  and  C_20
    3  A    between atoms: C_4  and  C_8
    4  A    between atoms: C_7  and  C_30
    5  A    between atoms: C_11  and  N_21
    6  A    between atoms: C_12  and  N_15
    7  A    between atoms: C_12  and  C_17
    8  A    between atoms: C_13  and  O_27
    9  A    between atoms: C_20  and  O_27
                            x       y       z     vdW  Elec       q    Type
                         _______ _______ _______ _____ _____    ______ ____

>  <TORSDO>
F 9

$$$$
=
 OpenBabel10232412343D

 34 37  0  0  0  0  0  0  0  0999 V2000
  190.0990  177.0830  141.5150 C   0  0  0  0  0  0  0  0  0  0  0  0
  187.6070  177.7130  144.8410 C   0  0  0  0  0  0  0  0  0  0  0  0
  188.2520  177.7620  140.0830 C   0  0  0  0  0  3  0  0  0  0  0  0
  189.0560  177.5610  138.9580 C   0  0  0  0  0  3  0  0  0  0  0  0
  189.4580  177.0540  146.2650 C   0  0  0  0  0  3  0  0  0  0  0  0
  190.3780  177.1290  139.1050 C   0  0  0  0  0  0  0  0  0  0  0  0
  189.7670  177.0600  143.9130 C   0  0  0  0  0  0  0  0  0  0  0  0
  190.8960  176.8850  140.3810 C   0  0  0  0  0  3  0  0  0  0  0  0
  190.5960  176.8500  142.8040 C   0  0  0  0  0  0  0  0  0  0  0  0
  188.7660  177.5260  141.3600 C   0  0  0  0  0  0  0  0  0  0  0  0
  190.2380  176.8530  145.1720 N   0  0  0  0  0  0  0  0  0  0  0  0
  187.9820  177.7200  142.4530 N   0  0  0  0  0  0  0  0  0  0  0  0
  191.9070  176.4160  142.9860 O   0  0  0  0  0  1  0  0  0  0  0  0
  188.4360  177.4970  143.7180 C   0  0  0  0  0  0  0  0  0  0  0  0
  188.1390  177.4840  146.1180 C   0  0  0  0  0  3  0  0  0  0  0  0
  184.1160  178.6730  143.8460 C   0  0  0  0  0  0  0  0  0  0  0  0
  184.0480  178.8110  145.1600 C   0  0  0  0  0  2  0  0  0  0  0  0
  185.3570  178.4660  145.6940 C   0  0  0  0  0  0  0  0  0  0  0  0
  185.4700  178.2440  143.3950 C   0  0  0  0  0  3  0  0  0  0  0  0
  186.1890  178.1400  144.7020 C   0  0  0  0  0  0  0  0  0  0  0  0
  185.6870  178.5160  147.1490 C   0  0  0  0  0  2  0  0  0  0  0  0
  186.1220  179.9160  147.5380 C   0  0  0  0  0  1  0  0  0  0  0  0
  182.9810  178.9540  142.9200 C   0  0  0  0  0  2  0  0  0  0  0  0
  180.6610  179.0890  142.6600 C   0  0  0  0  0  1  0  0  0  0  0  0
  181.7180  178.9010  143.6380 N   0  0  0  0  0  2  0  0  0  0  0  0
  191.2220  176.8940  137.9030 C   0  0  0  0  0  2  0  0  0  0  0  0
  193.5110  175.8520  137.7070 C   0  0  0  0  0  0  0  0  0  0  0  0
  192.1570  175.8110  138.1640 N   0  0  0  0  0  2  0  0  0  0  0  0
  193.9310  176.8460  137.0550 O   0  0  0  0  0  0  0  0  0  0  0  0
  194.4140  174.7350  137.9950 C   0  0  0  0  0  0  0  0  0  0  0  0
  194.0500  173.5530  137.7480 O   0  0  0  0  0  0  0  0  0  0  0  0
  195.6730  174.9890  138.5450 O   0  0  0  0  0  0  0  0  0  0  0  0
  197.3620  175.0870  140.2400 C   0  0  0  0  0  1  0  0  0  0  0  0
  195.8770  175.0640  139.9480 C   0  0  0  0  0  2  0  0  0  0  0  0
  1  9  2  0  0  0  0
  2 15  1  0  0  0  0
  3 10  1  0  0  0  0
  4  6  1  0  0  0  0
  4  3  2  0  0  0  0
  6  8  2  0  0  0  0
  7 11  2  0  0  0  0
  8  1  1  0  0  0  0
  9 13  1  0  0  0  0
  9  7  1  0  0  0  0
 10  1  1  0  0  0  0
 10 12  2  0  0  0  0
 11  5  1  0  0  0  0
 12 14  1  0  0  0  0
 14  7  1  0  0  0  0
 14  2  2  0  0  0  0
 15  5  2  0  0  0  0
 16 17  1  0  0  0  0
 17 18  1  0  0  0  0
 18 21  1  0  0  0  0
 19 16  2  0  0  0  0
 19 20  1  0  0  0  0
 20  2  1  0  0  0  0
 20 18  2  0  0  0  0
 21 22  1  0  0  0  0
 23 25  1  0  0  0  0
 23 16  1  0  0  0  0
 24 25  1  0  0  0  0
 26 28  1  0  0  0  0
 26  6  1  0  0  0  0
 27 30  1  0  0  0  0
 27 28  1  0  0  0  0
 29 27  2  0  0  0  0
 30 32  1  0  0  0  0
 31 30  2  0  0  0  0
 32 34  1  0  0  0  0
 34 33  1  0  0  0  0
M  END
>  <MODEL>
3

>  <REMARK>
 VINA RESULT:      -7.8      3.457     10.123
  Name = 
  9 active torsions:
  status: ('A' for Active; 'I' for Inactive)
    1  A    between atoms: C_1  and  C_11
    2  A    between atoms: C_2  and  C_20
    3  A    between atoms: C_4  and  C_8
    4  A    between atoms: C_7  and  C_30
    5  A    between atoms: C_11  and  N_21
    6  A    between atoms: C_12  and  N_15
    7  A    between atoms: C_12  and  C_17
    8  A    between atoms: C_13  and  O_27
    9  A    between atoms: C_20  and  O_27
                            x       y       z     vdW  Elec       q    Type
                         _______ _______ _______ _____ _____    ______ ____

>  <TORSDO>
F 9

$$$$
=
 OpenBabel10232412343D

 34 37  0  0  0  0  0  0  0  0999 V2000
  189.8880  177.6640  140.6870 C   0  0  0  0  0  0  0  0  0  0  0  0
  189.0990  177.6860  144.8150 C   0  0  0  0  0  0  0  0  0  0  0  0
  187.5340  178.1460  140.2990 C   0  0  0  0  0  3  0  0  0  0  0  0
  187.7660  178.1450  138.9200 C   0  0  0  0  0  3  0  0  0  0  0  0
  191.4510  177.2250  145.1960 C   0  0  0  0  0  3  0  0  0  0  0  0
  189.0520  177.9110  138.4220 C   0  0  0  0  0  0  0  0  0  0  0  0
  190.6700  177.4330  142.9660 C   0  0  0  0  0  0  0  0  0  0  0  0
  190.1090  177.6650  139.3030 C   0  0  0  0  0  3  0  0  0  0  0  0
  190.9320  177.4260  141.5900 C   0  0  0  0  0  0  0  0  0  0  0  0
  188.5890  177.9070  141.1840 C   0  0  0  0  0  0  0  0  0  0  0  0
  191.6740  177.2170  143.8570 N   0  0  0  0  0  0  0  0  0  0  0  0
  188.3610  177.9070  142.5230 N   0  0  0  0  0  0  0  0  0  0  0  0
  192.2230  177.1860  141.1280 O   0  0  0  0  0  1  0  0  0  0  0  0
  189.3540  177.6730  143.4260 C   0  0  0  0  0  0  0  0  0  0  0  0
  190.1680  177.4570  145.6920 C   0  0  0  0  0  3  0  0  0  0  0  0
  185.4920  178.3990  145.5770 C   0  0  0  0  0  0  0  0  0  0  0  0
  185.9160  177.9690  146.7540 C   0  0  0  0  0  2  0  0  0  0  0  0
  187.3270  177.6480  146.6090 C   0  0  0  0  0  0  0  0  0  0  0  0
  186.5810  178.4180  144.5600 C   0  0  0  0  0  3  0  0  0  0  0  0
  187.7320  177.8990  145.3620 C   0  0  0  0  0  0  0  0  0  0  0  0
  188.1730  177.1440  147.7320 C   0  0  0  0  0  2  0  0  0  0  0  0
  188.2970  178.2040  148.8080 C   0  0  0  0  0  1  0  0  0  0  0  0
  184.0960  178.8530  145.3100 C   0  0  0  0  0  2  0  0  0  0  0  0
  183.1830  178.9080  143.1580 C   0  0  0  0  0  1  0  0  0  0  0  0
  184.0440  179.6270  144.0800 N   0  0  0  0  0  2  0  0  0  0  0  0
  189.2880  177.8870  136.9540 C   0  0  0  0  0  2  0  0  0  0  0  0
  190.0200  175.5560  136.3300 C   0  0  0  0  0  0  0  0  0  0  0  0
  190.3250  176.9180  136.6380 N   0  0  0  0  0  2  0  0  0  0  0  0
  188.8230  175.1580  136.3260 O   0  0  0  0  0  0  0  0  0  0  0  0
  191.1010  174.6170  136.0190 C   0  0  0  0  0  0  0  0  0  0  0  0
  191.4160  174.3980  134.8180 O   0  0  0  0  0  0  0  0  0  0  0  0
  191.7740  173.9700  137.0580 O   0  0  0  0  0  0  0  0  0  0  0  0
  193.4160  175.5310  137.8330 C   0  0  0  0  0  1  0  0  0  0  0  0
  193.1650  174.1460  137.2750 C   0  0  0  0  0  2  0  0  0  0  0  0
  1 10  1  0  0  0  0
  1  9  2  0  0  0  0
  2 20  1  0  0  0  0
  2 15  1  0  0  0  0
  3 10  1  0  0  0  0
  4  3  2  0  0  0  0
  5 15  2  0  0  0  0
  6  4  1  0  0  0  0
  6  8  2  0  0  0  0
  7 14  1  0  0  0  0
  7 11  2  0  0  0  0
  8  1  1  0  0  0  0
  9  7  1  0  0  0  0
 10 12  2  0  0  0  0
 11  5  1  0  0  0  0
 12 14  1  0  0  0  0
 13  9  1  0  0  0  0
 14  2  2  0  0  0  0
 16 17  1  0  0  0  0
 18 17  1  0  0  0  0
 18 21  1  0  0  0  0
 19 20  1  0  0  0  0
 19 16  2  0  0  0  0
 20 18  2  0  0  0  0
 21 22  1  0  0  0  0
 23 16  1  0  0  0  0
 24 25  1  0  0  0  0
 25 23  1  0  0  0  0
 26  6  1  0  0  0  0
 27 28  1  0  0  0  0
 28 26  1  0  0  0  0
 29 27  2  0  0  0  0
 30 27  1  0  0  0  0
 30 32  1  0  0  0  0
 31 30  2  0  0  0  0
 32 34  1  0  0  0  0
 34 33  1  0  0  0  0
M  END
>  <MODEL>
4

>  <REMARK>
 VINA RESULT:      -7.8      3.397      9.740
  Name = 
  9 active torsions:
  status: ('A' for Active; 'I' for Inactive)
    1  A    between atoms: C_1  and  C_11
    2  A    between atoms: C_2  and  C_20
    3  A    between atoms: C_4  and  C_8
    4  A    between atoms: C_7  and  C_30
    5  A    between atoms: C_11  and  N_21
    6  A    between atoms: C_12  and  N_15
    7  A    between atoms: C_12  and  C_17
    8  A    between atoms: C_13  and  O_27
    9  A    between atoms: C_20  and  O_27
                            x       y       z     vdW  Elec       q    Type
                         _______ _______ _______ _____ _____    ______ ____

>  <TORSDO>
F 9

$$$$
=
 OpenBabel10232412343D

 34 37  0  0  0  0  0  0  0  0999 V2000
  189.8890  177.6490  140.7820 C   0  0  0  0  0  0  0  0  0  0  0  0
  189.0720  177.6500  144.9050 C   0  0  0  0  0  0  0  0  0  0  0  0
  187.5410  178.1510  140.3810 C   0  0  0  0  0  3  0  0  0  0  0  0
  187.7820  178.1580  139.0040 C   0  0  0  0  0  3  0  0  0  0  0  0
  191.4170  177.1690  145.2990 C   0  0  0  0  0  3  0  0  0  0  0  0
  189.0690  177.9170  138.5130 C   0  0  0  0  0  0  0  0  0  0  0  0
  190.6530  177.3970  143.0650 C   0  0  0  0  0  0  0  0  0  0  0  0
  190.1190  177.6570  139.4000 C   0  0  0  0  0  3  0  0  0  0  0  0
  190.9240  177.3960  141.6900 C   0  0  0  0  0  0  0  0  0  0  0  0
  188.5880  177.8990  141.2720 C   0  0  0  0  0  0  0  0  0  0  0  0
  191.6490  177.1680  143.9610 N   0  0  0  0  0  0  0  0  0  0  0  0
  188.3510  177.8920  142.6100 N   0  0  0  0  0  0  0  0  0  0  0  0
  192.2170  177.1500  141.2350 O   0  0  0  0  0  1  0  0  0  0  0  0
  189.3360  177.6440  143.5170 C   0  0  0  0  0  0  0  0  0  0  0  0
  190.1330  177.4070  145.7880 C   0  0  0  0  0  3  0  0  0  0  0  0
  185.4630  178.3800  145.6460 C   0  0  0  0  0  0  0  0  0  0  0  0
  185.8800  177.9530  146.8260 C   0  0  0  0  0  2  0  0  0  0  0  0
  187.2910  177.6270  146.6900 C   0  0  0  0  0  0  0  0  0  0  0  0
  186.5580  178.3910  144.6340 C   0  0  0  0  0  3  0  0  0  0  0  0
  187.7020  177.8700  145.4440 C   0  0  0  0  0  0  0  0  0  0  0  0
  188.1290  177.1230  147.8190 C   0  0  0  0  0  2  0  0  0  0  0  0
  188.3850  178.2380  148.8140 C   0  0  0  0  0  1  0  0  0  0  0  0
  184.0710  178.8380  145.3700 C   0  0  0  0  0  2  0  0  0  0  0  0
  183.0780  178.9750  143.2570 C   0  0  0  0  0  1  0  0  0  0  0  0
  184.0300  179.6190  144.1440 N   0  0  0  0  0  2  0  0  0  0  0  0
  189.3150  177.9000  137.0460 C   0  0  0  0  0  2  0  0  0  0  0  0
  188.8970  175.5270  136.3030 C   0  0  0  0  0  0  0  0  0  0  0  0
  188.4790  176.8880  136.4200 N   0  0  0  0  0  2  0  0  0  0  0  0
  190.0210  175.1670  136.7480 O   0  0  0  0  0  0  0  0  0  0  0  0
  188.0180  174.5440  135.6620 C   0  0  0  0  0  0  0  0  0  0  0  0
  188.3530  174.0250  134.5630 O   0  0  0  0  0  0  0  0  0  0  0  0
  186.8140  174.1930  136.2760 O   0  0  0  0  0  0  0  0  0  0  0  0
  185.3370  172.9990  137.7350 C   0  0  0  0  0  1  0  0  0  0  0  0
  186.6820  173.0040  137.0400 C   0  0  0  0  0  2  0  0  0  0  0  0
  1 10  1  0  0  0  0
  1  9  2  0  0  0  0
  2 20  1  0  0  0  0
  2 15  1  0  0  0  0
  3 10  1  0  0  0  0
  4  3  2  0  0  0  0
  5 15  2  0  0  0  0
  6  4  1  0  0  0  0
  6  8  2  0  0  0  0
  7 14  1  0  0  0  0
  7 11  2  0  0  0  0
  8  1  1  0  0  0  0
  9  7  1  0  0  0  0
 10 12  2  0  0  0  0
 11  5  1  0  0  0  0
 12 14  1  0  0  0  0
 13  9  1  0  0  0  0
 14  2  2  0  0  0  0
 16 17  1  0  0  0  0
 18 17  1  0  0  0  0
 18 21  1  0  0  0  0
 19 20  1  0  0  0  0
 19 16  2  0  0  0  0
 20 18  2  0  0  0  0
 21 22  1  0  0  0  0
 23 16  1  0  0  0  0
 24 25  1  0  0  0  0
 25 23  1  0  0  0  0
 26  6  1  0  0  0  0
 27 28  1  0  0  0  0
 27 29  2  0  0  0  0
 28 26  1  0  0  0  0
 30 32  1  0  0  0  0
 30 27  1  0  0  0  0
 31 30  2  0  0  0  0
 32 34  1  0  0  0  0
 34 33  1  0  0  0  0
M  END
>  <MODEL>
5

>  <REMARK>
 VINA RESULT:      -7.7      3.943      9.487
  Name = 
  9 active torsions:
  status: ('A' for Active; 'I' for Inactive)
    1  A    between atoms: C_1  and  C_11
    2  A    between atoms: C_2  and  C_20
    3  A    between atoms: C_4  and  C_8
    4  A    between atoms: C_7  and  C_30
    5  A    between atoms: C_11  and  N_21
    6  A    between atoms: C_12  and  N_15
    7  A    between atoms: C_12  and  C_17
    8  A    between atoms: C_13  and  O_27
    9  A    between atoms: C_20  and  O_27
                            x       y       z     vdW  Elec       q    Type
                         _______ _______ _______ _____ _____    ______ ____

>  <TORSDO>
F 9

$$$$
=
 OpenBabel10232412343D

 34 37  0  0  0  0  0  0  0  0999 V2000
  189.5550  177.6180  139.9030 C   0  0  0  0  0  0  0  0  0  0  0  0
  187.2830  178.1360  143.4000 C   0  0  0  0  0  0  0  0  0  0  0  0
  191.3890  176.8180  141.2890 C   0  0  0  0  0  3  0  0  0  0  0  0
  192.1690  176.6350  140.1440 C   0  0  0  0  0  3  0  0  0  0  0  0
  185.4520  178.9140  142.0110 C   0  0  0  0  0  3  0  0  0  0  0  0
  191.6480  176.9350  138.8800 C   0  0  0  0  0  0  0  0  0  0  0  0
  187.4880  178.2810  140.9740 C   0  0  0  0  0  0  0  0  0  0  0  0
  190.3460  177.4310  138.7610 C   0  0  0  0  0  3  0  0  0  0  0  0
  188.2470  178.1080  139.8090 C   0  0  0  0  0  0  0  0  0  0  0  0
  190.0850  177.3070  141.1740 C   0  0  0  0  0  0  0  0  0  0  0  0
  186.2120  178.7430  140.9000 N   0  0  0  0  0  0  0  0  0  0  0  0
  189.3290  177.4850  142.2890 N   0  0  0  0  0  0  0  0  0  0  0  0
  187.6980  178.4200  138.5680 O   0  0  0  0  0  1  0  0  0  0  0  0
  188.0560  177.9660  142.2300 C   0  0  0  0  0  0  0  0  0  0  0  0
  185.9720  178.6160  143.2710 C   0  0  0  0  0  3  0  0  0  0  0  0
  189.2590  177.4990  146.5290 C   0  0  0  0  0  0  0  0  0  0  0  0
  188.0240  177.4370  146.9970 C   0  0  0  0  0  2  0  0  0  0  0  0
  187.1290  177.6690  145.8730 C   0  0  0  0  0  0  0  0  0  0  0  0
  189.2930  177.7580  145.0620 C   0  0  0  0  0  3  0  0  0  0  0  0
  187.8320  177.8540  144.7540 C   0  0  0  0  0  0  0  0  0  0  0  0
  185.6410  177.6600  145.9950 C   0  0  0  0  0  2  0  0  0  0  0  0
  185.1840  178.8030  146.8820 C   0  0  0  0  0  1  0  0  0  0  0  0
  190.4770  177.2910  147.3640 C   0  0  0  0  0  2  0  0  0  0  0  0
  192.2650  175.7970  147.1640 C   0  0  0  0  0  1  0  0  0  0  0  0
  191.6070  176.9240  146.5260 N   0  0  0  0  0  2  0  0  0  0  0  0
  192.4910  176.7620  137.6670 C   0  0  0  0  0  2  0  0  0  0  0  0
  194.0250  174.7650  137.8130 C   0  0  0  0  0  0  0  0  0  0  0  0
  193.7590  176.1520  138.0340 N   0  0  0  0  0  2  0  0  0  0  0  0
  193.1490  174.0260  137.2860 O   0  0  0  0  0  0  0  0  0  0  0  0
  195.3200  174.1980  138.2000 C   0  0  0  0  0  0  0  0  0  0  0  0
  195.3630  173.1210  138.8560 O   0  0  0  0  0  0  0  0  0  0  0  0
  196.4970  174.8560  137.8400 O   0  0  0  0  0  0  0  0  0  0  0  0
  198.4380  175.0390  139.2320 C   0  0  0  0  0  1  0  0  0  0  0  0
  197.7770  174.2960  138.0910 C   0  0  0  0  0  2  0  0  0  0  0  0
  1 10  1  0  0  0  0
  2 20  1  0  0  0  0
  4  3  2  0  0  0  0
  5 15  2  0  0  0  0
  6  4  1  0  0  0  0
  7 14  1  0  0  0  0
  8  6  2  0  0  0  0
  8  1  1  0  0  0  0
  9  1  2  0  0  0  0
  9  7  1  0  0  0  0
 10  3  1  0  0  0  0
 10 12  2  0  0  0  0
 11  7  2  0  0  0  0
 11  5  1  0  0  0  0
 13  9  1  0  0  0  0
 14 12  1  0  0  0  0
 14  2  2  0  0  0  0
 15  2  1  0  0  0  0
 16 17  1  0  0  0  0
 16 23  1  0  0  0  0
 18 21  1  0  0  0  0
 18 17  1  0  0  0  0
 19 16  2  0  0  0  0
 20 19  1  0  0  0  0
 20 18  2  0  0  0  0
 21 22  1  0  0  0  0
 25 24  1  0  0  0  0
 25 23  1  0  0  0  0
 26 28  1  0  0  0  0
 26  6  1  0  0  0  0
 27 28  1  0  0  0  0
 27 30  1  0  0  0  0
 29 27  2  0  0  0  0
 30 31  2  0  0  0  0
 32 34  1  0  0  0  0
 32 30  1  0  0  0  0
 34 33  1  0  0  0  0
M  END
>  <MODEL>
6

>  <REMARK>
 VINA RESULT:      -7.6      3.468      9.272
  Name = 
  9 active torsions:
  status: ('A' for Active; 'I' for Inactive)
    1  A    between atoms: C_1  and  C_11
    2  A    between atoms: C_2  and  C_20
    3  A    between atoms: C_4  and  C_8
    4  A    between atoms: C_7  and  C_30
    5  A    between atoms: C_11  and  N_21
    6  A    between atoms: C_12  and  N_15
    7  A    between atoms: C_12  and  C_17
    8  A    between atoms: C_13  and  O_27
    9  A    between atoms: C_20  and  O_27
                            x       y       z     vdW  Elec       q    Type
                         _______ _______ _______ _____ _____    ______ ____

>  <TORSDO>
F 9

$$$$
=
 OpenBabel10232412343D

 34 37  0  0  0  0  0  0  0  0999 V2000
  189.0540  177.6040  139.2320 C   0  0  0  0  0  0  0  0  0  0  0  0
  186.1150  178.4230  142.1230 C   0  0  0  0  0  0  0  0  0  0  0  0
  190.5390  176.9090  141.0300 C   0  0  0  0  0  3  0  0  0  0  0  0
  191.5370  176.6280  140.0920 C   0  0  0  0  0  3  0  0  0  0  0  0
  184.6330  179.0960  140.3240 C   0  0  0  0  0  3  0  0  0  0  0  0
  191.2970  176.8260  138.7280 C   0  0  0  0  0  0  0  0  0  0  0  0
  186.8250  178.3670  139.7900 C   0  0  0  0  0  0  0  0  0  0  0  0
  190.0600  177.3190  138.3000 C   0  0  0  0  0  3  0  0  0  0  0  0
  187.8060  178.0940  138.8270 C   0  0  0  0  0  0  0  0  0  0  0  0
  189.3000  177.3960  140.6070 C   0  0  0  0  0  0  0  0  0  0  0  0
  185.6030  178.8290  139.4140 N   0  0  0  0  0  0  0  0  0  0  0  0
  188.3330  177.6700  141.5210 N   0  0  0  0  0  0  0  0  0  0  0  0
  187.5350  178.3060  137.4780 O   0  0  0  0  0  1  0  0  0  0  0  0
  187.1110  178.1520  141.1590 C   0  0  0  0  0  0  0  0  0  0  0  0
  184.8720  178.8990  141.6840 C   0  0  0  0  0  3  0  0  0  0  0  0
  187.2850  177.6620  145.6100 C   0  0  0  0  0  0  0  0  0  0  0  0
  186.2050  178.3830  145.8600 C   0  0  0  0  0  2  0  0  0  0  0  0
  185.6330  178.7560  144.5760 C   0  0  0  0  0  0  0  0  0  0  0  0
  187.5140  177.4810  144.1480 C   0  0  0  0  0  3  0  0  0  0  0  0
  186.3640  178.2510  143.5800 C   0  0  0  0  0  0  0  0  0  0  0  0
  184.3850  179.5660  144.4380 C   0  0  0  0  0  2  0  0  0  0  0  0
  183.1980  178.7870  144.9700 C   0  0  0  0  0  1  0  0  0  0  0  0
  188.1510  177.0640  146.6670 C   0  0  0  0  0  2  0  0  0  0  0  0
  188.8910  178.4090  148.4300 C   0  0  0  0  0  1  0  0  0  0  0  0
  189.1830  178.0070  147.0660 N   0  0  0  0  0  2  0  0  0  0  0  0
  192.3700  176.5480  137.7370 C   0  0  0  0  0  2  0  0  0  0  0  0
  194.1640  174.8160  138.1130 C   0  0  0  0  0  0  0  0  0  0  0  0
  193.5620  176.0740  138.4220 N   0  0  0  0  0  2  0  0  0  0  0  0
  193.6660  174.0750  137.2220 O   0  0  0  0  0  0  0  0  0  0  0  0
  195.3650  174.3830  138.8330 C   0  0  0  0  0  0  0  0  0  0  0  0
  195.6830  173.1630  138.8470 O   0  0  0  0  0  0  0  0  0  0  0  0
  196.1480  175.3280  139.4990 O   0  0  0  0  0  0  0  0  0  0  0  0
  197.6200  175.4140  141.3870 C   0  0  0  0  0  1  0  0  0  0  0  0
  197.4700  175.0380  139.9280 C   0  0  0  0  0  2  0  0  0  0  0  0
  1 10  1  0  0  0  0
  2 20  1  0  0  0  0
  4  3  2  0  0  0  0
  5 15  2  0  0  0  0
  6  4  1  0  0  0  0
  7 14  1  0  0  0  0
  8  6  2  0  0  0  0
  8  1  1  0  0  0  0
  9  1  2  0  0  0  0
  9  7  1  0  0  0  0
 10  3  1  0  0  0  0
 10 12  2  0  0  0  0
 11  7  2  0  0  0  0
 11  5  1  0  0  0  0
 13  9  1  0  0  0  0
 14 12  1  0  0  0  0
 14  2  2  0  0  0  0
 15  2  1  0  0  0  0
 16 17  1  0  0  0  0
 16 23  1  0  0  0  0
 18 17  1  0  0  0  0
 19 16  2  0  0  0  0
 20 19  1  0  0  0  0
 20 18  2  0  0  0  0
 21 18  1  0  0  0  0
 21 22  1  0  0  0  0
 23 25  1  0  0  0  0
 25 24  1  0  0  0  0
 26 28  1  0  0  0  0
 26  6  1  0  0  0  0
 27 28  1  0  0  0  0
 27 30  1  0  0  0  0
 29 27  2  0  0  0  0
 30 31  2  0  0  0  0
 30 32  1  0  0  0  0
 32 34  1  0  0  0  0
 34 33  1  0  0  0  0
M  END
>  <MODEL>
7

>  <REMARK>
 VINA RESULT:      -7.5      3.588      9.268
  Name = 
  9 active torsions:
  status: ('A' for Active; 'I' for Inactive)
    1  A    between atoms: C_1  and  C_11
    2  A    between atoms: C_2  and  C_20
    3  A    between atoms: C_4  and  C_8
    4  A    between atoms: C_7  and  C_30
    5  A    between atoms: C_11  and  N_21
    6  A    between atoms: C_12  and  N_15
    7  A    between atoms: C_12  and  C_17
    8  A    between atoms: C_13  and  O_27
    9  A    between atoms: C_20  and  O_27
                            x       y       z     vdW  Elec       q    Type
                         _______ _______ _______ _____ _____    ______ ____

>  <TORSDO>
F 9

$$$$
=
 OpenBabel10232412343D

 34 37  0  0  0  0  0  0  0  0999 V2000
  188.4560  177.6680  141.3330 C   0  0  0  0  0  0  0  0  0  0  0  0
  190.2560  176.8390  137.6260 C   0  0  0  0  0  0  0  0  0  0  0  0
  190.0960  176.2090  142.3830 C   0  0  0  0  0  3  0  0  0  0  0  0
  189.5200  176.4650  143.6310 C   0  0  0  0  0  3  0  0  0  0  0  0
  188.6310  178.3110  136.5870 C   0  0  0  0  0  3  0  0  0  0  0  0
  188.4190  177.3230  143.7350 C   0  0  0  0  0  0  0  0  0  0  0  0
  188.5430  177.9810  138.9340 C   0  0  0  0  0  0  0  0  0  0  0  0
  187.8860  177.9190  142.5870 C   0  0  0  0  0  3  0  0  0  0  0  0
  187.9430  178.2560  140.1700 C   0  0  0  0  0  0  0  0  0  0  0  0
  189.5710  176.8060  141.2350 C   0  0  0  0  0  0  0  0  0  0  0  0
  188.0660  178.5550  137.7970 N   0  0  0  0  0  0  0  0  0  0  0  0
  190.1330  176.5540  140.0240 N   0  0  0  0  0  0  0  0  0  0  0  0
  186.8480  179.1130  140.2370 O   0  0  0  0  0  1  0  0  0  0  0  0
  189.6520  177.1060  138.8750 C   0  0  0  0  0  0  0  0  0  0  0  0
  189.7270  177.4540  136.4830 C   0  0  0  0  0  3  0  0  0  0  0  0
  193.5250  174.9990  137.4500 C   0  0  0  0  0  0  0  0  0  0  0  0
  192.6730  174.0200  137.1950 C   0  0  0  0  0  3  0  0  0  0  0  0
  191.3370  174.5960  137.2300 C   0  0  0  0  0  0  0  0  0  0  0  0
  192.8360  176.3040  137.6570 C   0  0  0  0  0  2  0  0  0  0  0  0
  191.4040  175.9030  137.4920 C   0  0  0  0  0  0  0  0  0  0  0  0
  190.0970  173.8050  136.9730 C   0  0  0  0  0  2  0  0  0  0  0  0
  189.8370  173.7130  135.4820 C   0  0  0  0  0  1  0  0  0  0  0  0
  195.0060  174.8260  137.4830 C   0  0  0  0  0  2  0  0  0  0  0  0
  195.9960  174.6660  139.5950 C   0  0  0  0  0  1  0  0  0  0  0  0
  195.3810  173.8910  138.5320 N   0  0  0  0  0  2  0  0  0  0  0  0
  187.7940  177.5740  145.0610 C   0  0  0  0  0  2  0  0  0  0  0  0
  188.9690  177.2930  147.2750 C   0  0  0  0  0  0  0  0  0  0  0  0
  188.8160  177.9600  146.0210 N   0  0  0  0  0  2  0  0  0  0  0  0
  188.2060  176.3370  147.5830 O   0  0  0  0  0  0  0  0  0  0  0  0
  190.0150  177.7200  148.2090 C   0  0  0  0  0  0  0  0  0  0  0  0
  189.7110  178.4140  149.2170 O   0  0  0  0  0  0  0  0  0  0  0  0
  191.3420  177.3570  147.9710 O   0  0  0  0  0  0  0  0  0  0  0  0
  191.9820  176.1590  145.9980 C   0  0  0  0  0  1  0  0  0  0  0  0
  191.6910  176.0710  147.4810 C   0  0  0  0  0  2  0  0  0  0  0  0
  1  8  2  0  0  0  0
  2 14  1  0  0  0  0
  3  4  1  0  0  0  0
  4  6  2  0  0  0  0
  5 11  2  0  0  0  0
  6 26  1  0  0  0  0
  7  9  2  0  0  0  0
  8  6  1  0  0  0  0
  9 13  1  0  0  0  0
  9  1  1  0  0  0  0
 10  1  1  0  0  0  0
 10  3  2  0  0  0  0
 11  7  1  0  0  0  0
 12 10  1  0  0  0  0
 14  7  1  0  0  0  0
 14 12  2  0  0  0  0
 15  5  1  0  0  0  0
 15  2  2  0  0  0  0
 16 23  1  0  0  0  0
 16 19  1  0  0  0  0
 17 18  1  0  0  0  0
 17 16  2  0  0  0  0
 18 20  2  0  0  0  0
 20  2  1  0  0  0  0
 20 19  1  0  0  0  0
 21 18  1  0  0  0  0
 22 21  1  0  0  0  0
 23 25  1  0  0  0  0
 25 24  1  0  0  0  0
 26 28  1  0  0  0  0
 27 29  2  0  0  0  0
 27 30  1  0  0  0  0
 28 27  1  0  0  0  0
 30 31  2  0  0  0  0
 32 30  1  0  0  0  0
 33 34  1  0  0  0  0
 34 32  1  0  0  0  0
M  END
>  <MODEL>
8

>  <REMARK>
 VINA RESULT:      -7.4      1.690      2.684
  Name = 
  9 active torsions:
  status: ('A' for Active; 'I' for Inactive)
    1  A    between atoms: C_1  and  C_11
    2  A    between atoms: C_2  and  C_20
    3  A    between atoms: C_4  and  C_8
    4  A    between atoms: C_7  and  C_30
    5  A    between atoms: C_11  and  N_21
    6  A    between atoms: C_12  and  N_15
    7  A    between atoms: C_12  and  C_17
    8  A    between atoms: C_13  and  O_27
    9  A    between atoms: C_20  and  O_27
                            x       y       z     vdW  Elec       q    Type
                         _______ _______ _______ _____ _____    ______ ____

>  <TORSDO>
F 9

$$$$
=
 OpenBabel10232412343D

 34 37  0  0  0  0  0  0  0  0999 V2000
  189.3150  177.8420  140.0750 C   0  0  0  0  0  0  0  0  0  0  0  0
  185.9220  178.4890  142.4700 C   0  0  0  0  0  0  0  0  0  0  0  0
  190.5700  177.3410  142.0990 C   0  0  0  0  0  3  0  0  0  0  0  0
  191.7150  177.1180  141.3290 C   0  0  0  0  0  3  0  0  0  0  0  0
  184.6720  178.9680  140.4460 C   0  0  0  0  0  3  0  0  0  0  0  0
  191.6650  177.2500  139.9370 C   0  0  0  0  0  0  0  0  0  0  0  0
  186.9720  178.4200  140.2690 C   0  0  0  0  0  0  0  0  0  0  0  0
  190.4680  177.6170  139.3120 C   0  0  0  0  0  3  0  0  0  0  0  0
  188.1040  178.2040  139.4720 C   0  0  0  0  0  0  0  0  0  0  0  0
  189.3710  177.7010  141.4790 C   0  0  0  0  0  0  0  0  0  0  0  0
  185.7850  178.7590  139.6990 N   0  0  0  0  0  0  0  0  0  0  0  0
  188.2590  177.9170  142.2300 N   0  0  0  0  0  0  0  0  0  0  0  0
  188.0200  178.3470  138.0890 O   0  0  0  0  0  1  0  0  0  0  0  0
  187.0690  178.2770  141.6730 C   0  0  0  0  0  0  0  0  0  0  0  0
  184.7230  178.8380  141.8340 C   0  0  0  0  0  3  0  0  0  0  0  0
  186.6010  177.9100  146.1180 C   0  0  0  0  0  0  0  0  0  0  0  0
  185.4840  178.6170  146.1800 C   0  0  0  0  0  2  0  0  0  0  0  0
  185.0940  178.9200  144.8120 C   0  0  0  0  0  0  0  0  0  0  0  0
  187.0360  177.6690  144.7130 C   0  0  0  0  0  3  0  0  0  0  0  0
  185.9660  178.3870  143.9530 C   0  0  0  0  0  0  0  0  0  0  0  0
  183.8650  179.6950  144.4630 C   0  0  0  0  0  2  0  0  0  0  0  0
  182.6480  178.7920  144.5150 C   0  0  0  0  0  1  0  0  0  0  0  0
  187.3180  177.3790  147.3130 C   0  0  0  0  0  2  0  0  0  0  0  0
  189.6260  177.0090  147.3650 C   0  0  0  0  0  1  0  0  0  0  0  0
  188.6060  178.0380  147.4620 N   0  0  0  0  0  2  0  0  0  0  0  0
  192.8920  177.0360  139.1250 C   0  0  0  0  0  2  0  0  0  0  0  0
  193.5760  175.6620  137.1240 C   0  0  0  0  0  0  0  0  0  0  0  0
  192.5660  176.2650  137.9360 N   0  0  0  0  0  2  0  0  0  0  0  0
  194.7940  175.7890  137.4250 O   0  0  0  0  0  0  0  0  0  0  0  0
  193.1950  174.8950  135.9340 C   0  0  0  0  0  0  0  0  0  0  0  0
  193.7100  175.1720  134.8170 O   0  0  0  0  0  0  0  0  0  0  0  0
  192.2630  173.8610  136.0490 O   0  0  0  0  0  0  0  0  0  0  0  0
  190.0380  173.8970  136.9350 C   0  0  0  0  0  1  0  0  0  0  0  0
  190.8990  174.0400  135.6980 C   0  0  0  0  0  2  0  0  0  0  0  0
  1 10  1  0  0  0  0
  2 20  1  0  0  0  0
  4  3  2  0  0  0  0
  5 15  2  0  0  0  0
  6  4  1  0  0  0  0
  7 14  1  0  0  0  0
  8  6  2  0  0  0  0
  8  1  1  0  0  0  0
  9  1  2  0  0  0  0
  9  7  1  0  0  0  0
 10  3  1  0  0  0  0
 10 12  2  0  0  0  0
 11  7  2  0  0  0  0
 11  5  1  0  0  0  0
 13  9  1  0  0  0  0
 14 12  1  0  0  0  0
 14  2  2  0  0  0  0
 15  2  1  0  0  0  0
 16 17  1  0  0  0  0
 16 23  1  0  0  0  0
 18 17  1  0  0  0  0
 19 16  2  0  0  0  0
 20 19  1  0  0  0  0
 20 18  2  0  0  0  0
 21 22  1  0  0  0  0
 21 18  1  0  0  0  0
 23 25  1  0  0  0  0
 24 25  1  0  0  0  0
 26  6  1  0  0  0  0
 27 29  2  0  0  0  0
 27 28  1  0  0  0  0
 28 26  1  0  0  0  0
 30 32  1  0  0  0  0
 30 27  1  0  0  0  0
 31 30  2  0  0  0  0
 34 32  1  0  0  0  0
 34 33  1  0  0  0  0
M  END
>  <MODEL>
9

>  <REMARK>
 VINA RESULT:      -7.4      3.401      9.171
  Name = 
  9 active torsions:
  status: ('A' for Active; 'I' for Inactive)
    1  A    between atoms: C_1  and  C_11
    2  A    between atoms: C_2  and  C_20
    3  A    between atoms: C_4  and  C_8
    4  A    between atoms: C_7  and  C_30
    5  A    between atoms: C_11  and  N_21
    6  A    between atoms: C_12  and  N_15
    7  A    between atoms: C_12  and  C_17
    8  A    between atoms: C_13  and  O_27
    9  A    between atoms: C_20  and  O_27
                            x       y       z     vdW  Elec       q    Type
                         _______ _______ _______ _____ _____    ______ ____

>  <TORSDO>
F 9

$$$$
