=
 OpenBabel10222421383D

 60 68  0  0  1  0  0  0  0  0999 V2000
  181.1540  179.8550  138.5630 C   0  0  2  0  0  3  0  0  0  0  0  0
  183.6790  178.2650  139.9660 C   0  0  2  0  0  3  0  0  0  0  0  0
  182.0030  178.8290  143.4250 C   0  0  0  0  0  2  0  0  0  0  0  0
  183.5060  178.8630  138.5520 C   0  0  2  0  0  3  0  0  0  0  0  0
  182.6410  178.7490  140.9980 C   0  0  2  0  0  3  0  0  0  0  0  0
  185.2620  179.0620  141.8110 C   0  0  0  0  0  2  0  0  0  0  0  0
  180.7170  179.6300  140.0130 C   0  0  0  0  0  2  0  0  0  0  0  0
  182.8640  179.1310  144.6340 C   0  0  0  0  0  2  0  0  0  0  0  0
  184.3620  178.4190  142.8690 C   0  0  2  0  0  3  0  0  0  0  0  0
  185.1360  178.2940  140.5000 C   0  0  2  0  0  3  0  0  0  0  0  0
  182.9140  178.1760  142.3950 C   0  0  1  0  0  3  0  0  0  0  0  0
  182.6530  180.1350  138.4760 C   0  0  0  0  0  2  0  0  0  0  0  0
  181.2980  178.4120  140.5510 N   0  0  0  0  0  2  0  0  0  0  0  0
  184.2650  179.3170  144.0840 C   0  0  2  0  0  3  0  0  0  0  0  0
  186.0900  178.8040  139.5190 N   0  0  0  0  0  2  0  0  0  0  0  0
  187.4560  178.3810  139.5130 C   0  0  0  0  0  0  0  0  0  0  0  0
  187.8960  177.6260  140.4300 O   0  0  0  0  0  0  0  0  0  0  0  0
  189.2890  177.5100  136.7680 C   0  0  0  0  0  0  0  0  0  0  0  0
  188.3720  178.8770  138.4410 C   0  0  2  0  0  3  0  0  0  0  0  0
  187.6760  178.9460  137.1660 N   0  0  0  0  0  2  0  0  0  0  0  0
  189.5030  177.8740  138.1970 C   0  0  0  0  0  2  0  0  0  0  0  0
  188.2880  178.1110  136.2340 N   0  0  0  0  0  0  0  0  0  0  0  0
  190.0750  176.6060  136.0610 O   0  0  0  0  0  0  0  0  0  0  0  0
  190.5580  175.5090  136.6610 O   0  0  0  0  0  0  0  0  0  0  0  0
  193.6420  174.4330  137.5220 C   0  0  2  0  0  3  0  0  0  0  0  0
  193.3950  173.7640  136.2510 N   0  0  0  0  0  2  0  0  0  0  0  0
  191.9020  175.4540  136.2800 C   0  0  2  0  0  3  0  0  0  0  0  0
  192.6870  176.4750  138.2910 O   0  0  0  0  0  0  0  0  0  0  0  0
  192.1750  174.1730  135.7480 O   0  0  0  0  0  0  0  0  0  0  0  0
  192.7580  175.5830  137.4600 C   0  0  0  0  0  0  0  0  0  0  0  0
  195.7650  174.6390  138.8300 O   0  0  0  0  0  1  0  0  0  0  0  0
  195.6800  175.3940  136.6650 O   0  0  0  0  0  0  0  0  0  0  0  0
  195.0830  174.8510  137.6370 C   0  0  0  0  0  0  0  0  0  0  0  0
  180.4090  181.0470  137.9920 C   0  0  0  0  0  2  0  0  0  0  0  0
  181.3870  182.0910  137.4850 C   0  0  0  0  0  1  0  0  0  0  0  0
  183.0450  177.8920  137.6620 O   0  0  0  0  0  0  0  0  0  0  0  0
  183.6860  176.7140  138.0570 C   0  0  0  0  0  2  0  0  0  0  0  0
  184.7250  176.1060  136.7010 P   0  0  0  0  0  0  0  0  0  0  0  0
  186.2690  175.7400  137.2860 O   0  0  0  0  0  1  0  0  0  0  0  0
  184.1040  174.8590  136.1170 O   0  0  0  0  0  1  0  0  0  0  0  0
  184.8500  177.2950  135.4990 O   0  0  0  0  0  0  0  0  0  0  0  0
  185.3440  179.0230  145.1220 C   0  0  0  0  0  2  0  0  0  0  0  0
  185.8750  178.8420  147.6350 C   0  0  1  0  0  3  0  0  0  0  0  0
  184.8030  179.0190  146.5540 C   0  0  2  0  0  3  0  0  0  0  0  0
  185.0510  177.6560  147.1710 C   0  0  0  0  0  2  0  0  0  0  0  0
  188.3100  178.1490  147.7690 C   0  0  0  0  0  0  0  0  0  0  0  0
  187.2240  178.7660  147.0760 N   0  0  0  0  0  2  0  0  0  0  0  0
  188.1360  177.6690  148.9260 O   0  0  0  0  0  0  0  0  0  0  0  0
  190.5260  175.8960  146.6870 C   0  0  0  0  0  2  0  0  0  0  0  0
  189.9450  178.8370  144.8160 N   0  0  0  0  0  2  0  0  0  0  0  0
  191.4830  176.9600  144.6600 C   0  0  1  0  0  3  0  0  0  0  0  0
  192.5200  176.6670  142.5000 O   0  0  0  0  0  0  0  0  0  0  0  0
  190.2180  176.4830  145.3270 C   0  0  2  0  0  3  0  0  0  0  0  0
  191.9030  175.9850  143.5570 C   0  0  0  0  0  2  0  0  0  0  0  0
  190.4270  176.9570  147.6750 N   0  0  0  0  0  2  0  0  0  0  0  0
  191.4730  177.3100  141.8410 C   0  0  0  0  0  2  0  0  0  0  0  0
  189.4230  177.7270  145.6120 C   0  0  1  0  0  3  0  0  0  0  0  0
  189.6250  178.0210  147.0820 C   0  0  1  0  0  3  0  0  0  0  0  0
  191.0190  178.5370  142.6300 C   0  0  0  0  0  2  0  0  0  0  0  0
  191.1610  178.3720  144.1550 C   0  0  1  0  0  3  0  0  0  0  0  0
  1 34  1  1  0  0  0
  1  7  1  0  0  0  0
  2 10  1  0  0  0  0
  2  5  1  0  0  0  0
  3  8  1  0  0  0  0
  4  2  1  0  0  0  0
  5 11  1  0  0  0  0
  6  9  1  0  0  0  0
  7 13  1  0  0  0  0
  9 14  1  0  0  0  0
 10  6  1  0  0  0  0
 11  9  1  0  0  0  0
 11  3  1  0  0  0  0
 12  4  1  0  0  0  0
 12  1  1  0  0  0  0
 13  5  1  0  0  0  0
 14  8  1  0  0  0  0
 14 42  1  0  0  0  0
 15 10  1  0  0  0  0
 16 15  1  0  0  0  0
 16 17  2  0  0  0  0
 18 21  1  0  0  0  0
 19 16  1  0  0  0  0
 20 19  1  0  0  0  0
 21 19  1  0  0  0  0
 22 18  2  0  0  0  0
 22 20  1  0  0  0  0
 23 24  1  0  0  0  0
 23 18  1  0  0  0  0
 25 33  1  0  0  0  0
 26 25  1  0  0  0  0
 27 24  1  0  0  0  0
 27 30  1  0  0  0  0
 29 26  1  0  0  0  0
 29 27  1  0  0  0  0
 30 25  1  0  0  0  0
 30 28  2  0  0  0  0
 32 33  2  0  0  0  0
 33 31  1  0  0  0  0
 35 34  1  0  0  0  0
 36 37  1  0  0  0  0
 36  4  1  0  0  0  0
 38 39  1  0  0  0  0
 38 37  1  0  0  0  0
 40 38  1  0  0  0  0
 41 38  2  0  0  0  0
 42 44  1  0  0  0  0
 44 45  1  0  0  0  0
 44 43  1  0  0  0  0
 45 43  1  0  0  0  0
 46 48  2  0  0  0  0
 47 43  1  0  0  0  0
 47 46  1  0  0  0  0
 49 55  1  0  0  0  0
 50 57  1  0  0  0  0
 51 53  1  0  0  0  0
 52 54  1  0  0  0  0
 53 57  1  0  0  0  0
 53 49  1  0  0  0  0
 54 51  1  0  0  0  0
 56 52  1  0  0  0  0
 56 59  1  0  0  0  0
 57 58  1  0  0  0  0
 58 55  1  0  0  0  0
 58 46  1  0  0  0  0
 59 60  1  0  0  0  0
 60 51  1  0  0  0  0
 60 50  1  0  0  0  0
M  END
>  <MODEL>
1

>  <REMARK>
 VINA RESULT:      -7.9      0.000      0.000
  Name = 
  14 active torsions:
  status: ('A' for Active; 'I' for Inactive)
    1  A    between atoms: C_1  and  C_44
    2  A    between atoms: P_2  and  C_9
    3  A    between atoms: C_5  and  N_43
    4  A    between atoms: C_7  and  C_22
    5  A    between atoms: N_8  and  C_48
    6  A    between atoms: C_9  and  O_35
    7  A    between atoms: C_10  and  C_57
    8  A    between atoms: C_13  and  O_46
    9  A    between atoms: C_16  and  C_33
   10  A    between atoms: C_18  and  C_27
   11  A    between atoms: C_19  and  O_35
   12  A    between atoms: O_23  and  C_28
   13  A    between atoms: O_23  and  O_46
   14  A    between atoms: C_56  and  C_57
                            x       y       z     vdW  Elec       q    Type
                         _______ _______ _______ _____ _____    ______ ____

>  <TORSDO>
F 14

$$$$
=
 OpenBabel10222421383D

 60 68  0  0  1  0  0  0  0  0999 V2000
  193.7770  175.7790  135.2340 C   0  0  2  0  0  3  0  0  0  0  0  0
  191.4570  174.7620  137.3440 C   0  0  2  0  0  3  0  0  0  0  0  0
  189.0180  174.3750  134.3460 C   0  0  0  0  0  2  0  0  0  0  0  0
  192.8070  175.4750  137.5760 C   0  0  2  0  0  3  0  0  0  0  0  0
  190.9520  174.8010  135.8880 C   0  0  2  0  0  3  0  0  0  0  0  0
  189.1100  175.7020  137.7390 C   0  0  0  0  0  2  0  0  0  0  0  0
  192.6470  175.2500  134.3470 C   0  0  0  0  0  2  0  0  0  0  0  0
  187.5560  174.7340  134.5190 C   0  0  0  0  0  2  0  0  0  0  0  0
  188.5340  174.7020  136.7330 C   0  0  2  0  0  3  0  0  0  0  0  0
  190.3600  175.1130  138.3850 C   0  0  2  0  0  3  0  0  0  0  0  0
  189.5750  174.1400  135.7430 C   0  0  1  0  0  3  0  0  0  0  0  0
  193.2240  176.4650  136.4820 C   0  0  0  0  0  2  0  0  0  0  0  0
  191.9250  174.1740  135.0060 N   0  0  0  0  0  2  0  0  0  0  0  0
  187.4650  175.3660  135.8930 C   0  0  2  0  0  3  0  0  0  0  0  0
  190.8440  175.9920  139.4460 N   0  0  0  0  0  2  0  0  0  0  0  0
  190.1140  177.1540  139.8480 C   0  0  0  0  0  0  0  0  0  0  0  0
  189.0740  177.5050  139.2160 O   0  0  0  0  0  0  0  0  0  0  0  0
  190.6440  177.2420  143.2190 C   0  0  0  0  0  0  0  0  0  0  0  0
  190.6160  177.9760  140.9900 C   0  0  2  0  0  3  0  0  0  0  0  0
  191.9090  177.4890  141.4420 N   0  0  0  0  0  2  0  0  0  0  0  0
  189.7060  177.8100  142.2110 C   0  0  0  0  0  2  0  0  0  0  0  0
  191.8370  177.0790  142.7710 N   0  0  0  0  0  0  0  0  0  0  0  0
  190.2880  176.9040  144.5210 O   0  0  0  0  0  0  0  0  0  0  0  0
  189.0360  176.5210  144.8070 O   0  0  0  0  0  0  0  0  0  0  0  0
  186.3010  177.6710  146.4230 C   0  0  2  0  0  3  0  0  0  0  0  0
  187.2790  177.5060  147.4910 N   0  0  0  0  0  2  0  0  0  0  0  0
  188.5230  177.5440  145.6100 C   0  0  2  0  0  3  0  0  0  0  0  0
  186.7350  178.0520  144.1120 O   0  0  0  0  0  0  0  0  0  0  0  0
  188.4830  177.0970  146.9510 O   0  0  0  0  0  0  0  0  0  0  0  0
  187.1330  177.8150  145.2410 C   0  0  0  0  0  0  0  0  0  0  0  0
  185.9840  179.9680  147.3590 O   0  0  0  0  0  1  0  0  0  0  0  0
  184.2710  178.9550  146.2180 O   0  0  0  0  0  0  0  0  0  0  0  0
  185.4550  178.8930  146.6540 C   0  0  0  0  0  0  0  0  0  0  0  0
  194.5980  176.7900  134.4550 C   0  0  0  0  0  2  0  0  0  0  0  0
  195.8870  177.1060  135.1890 C   0  0  0  0  0  1  0  0  0  0  0  0
  193.8170  174.5450  137.8260 O   0  0  0  0  0  0  0  0  0  0  0  0
  194.5740  175.1100  138.8560 C   0  0  0  0  0  2  0  0  0  0  0  0
  196.2180  174.3450  138.8880 P   0  0  0  0  0  0  0  0  0  0  0  0
  196.0740  172.6750  138.6580 O   0  0  0  0  0  1  0  0  0  0  0  0
  197.0630  174.9290  137.7810 O   0  0  0  0  0  0  0  0  0  0  0  0
  196.9580  174.6410  140.3850 O   0  0  0  0  0  1  0  0  0  0  0  0
  186.0720  175.2390  136.5040 C   0  0  0  0  0  2  0  0  0  0  0  0
  184.0350  173.7030  136.8480 C   0  0  1  0  0  3  0  0  0  0  0  0
  185.4310  173.8750  136.2400 C   0  0  2  0  0  3  0  0  0  0  0  0
  185.2550  173.1490  137.5600 C   0  0  0  0  0  2  0  0  0  0  0  0
  182.5510  175.7550  136.9750 C   0  0  0  0  0  0  0  0  0  0  0  0
  183.5670  174.9130  137.5220 N   0  0  0  0  0  2  0  0  0  0  0  0
  182.0410  175.4860  135.8490 O   0  0  0  0  0  0  0  0  0  0  0  0
  180.0950  176.6920  139.0360 C   0  0  0  0  0  2  0  0  0  0  0  0
  183.3910  177.8440  139.5810 N   0  0  0  0  0  2  0  0  0  0  0  0
  181.2170  178.2730  140.5840 C   0  0  1  0  0  3  0  0  0  0  0  0
  181.2860  179.2750  142.7790 O   0  0  0  0  0  0  0  0  0  0  0  0
  181.2190  176.8700  140.0340 C   0  0  2  0  0  3  0  0  0  0  0  0
  180.6590  178.2860  142.0090 C   0  0  0  0  0  2  0  0  0  0  0  0
  180.6060  177.0120  137.7140 N   0  0  0  0  0  2  0  0  0  0  0  0
  182.5550  178.7610  143.0420 C   0  0  0  0  0  2  0  0  0  0  0  0
  182.4800  176.7580  139.2240 C   0  0  1  0  0  3  0  0  0  0  0  0
  182.0590  176.9080  137.7790 C   0  0  1  0  0  3  0  0  0  0  0  0
  183.4460  178.8780  141.8070 C   0  0  0  0  0  2  0  0  0  0  0  0
  182.6740  178.7440  140.4800 C   0  0  1  0  0  3  0  0  0  0  0  0
  1 34  1  6  0  0  0
  1 12  1  0  0  0  0
  2  4  1  0  0  0  0
  2 10  1  0  0  0  0
  3  8  1  0  0  0  0
  3 11  1  0  0  0  0
  4 36  1  0  0  0  0
  5  2  1  0  0  0  0
  6 10  1  0  0  0  0
  7 13  1  0  0  0  0
  7  1  1  0  0  0  0
  8 14  1  0  0  0  0
  9  6  1  0  0  0  0
 10 15  1  0  0  0  0
 11  5  1  0  0  0  0
 11  9  1  0  0  0  0
 12  4  1  0  0  0  0
 13  5  1  0  0  0  0
 14 42  1  0  0  0  0
 14  9  1  0  0  0  0
 15 16  1  0  0  0  0
 16 19  1  0  0  0  0
 17 16  2  0  0  0  0
 18 23  1  0  0  0  0
 19 20  1  0  0  0  0
 19 21  1  0  0  0  0
 20 22  1  0  0  0  0
 21 18  1  0  0  0  0
 22 18  2  0  0  0  0
 23 24  1  0  0  0  0
 24 27  1  0  0  0  0
 25 33  1  0  0  0  0
 25 26  1  0  0  0  0
 27 29  1  0  0  0  0
 28 30  2  0  0  0  0
 29 26  1  0  0  0  0
 30 27  1  0  0  0  0
 30 25  1  0  0  0  0
 32 33  2  0  0  0  0
 33 31  1  0  0  0  0
 34 35  1  0  0  0  0
 36 37  1  0  0  0  0
 37 38  1  0  0  0  0
 38 41  1  0  0  0  0
 39 38  1  0  0  0  0
 40 38  2  0  0  0  0
 43 47  1  0  0  0  0
 43 45  1  0  0  0  0
 44 42  1  0  0  0  0
 44 43  1  0  0  0  0
 44 45  1  0  0  0  0
 46 47  1  0  0  0  0
 46 58  1  0  0  0  0
 48 46  2  0  0  0  0
 49 53  1  0  0  0  0
 50 60  1  0  0  0  0
 51 54  1  0  0  0  0
 52 56  1  0  0  0  0
 53 51  1  0  0  0  0
 54 52  1  0  0  0  0
 55 58  1  0  0  0  0
 55 49  1  0  0  0  0
 57 50  1  0  0  0  0
 57 53  1  0  0  0  0
 58 57  1  0  0  0  0
 59 56  1  0  0  0  0
 60 51  1  0  0  0  0
 60 59  1  0  0  0  0
M  END
>  <MODEL>
2

>  <REMARK>
 VINA RESULT:      -7.0      3.111     10.803
  Name = 
  14 active torsions:
  status: ('A' for Active; 'I' for Inactive)
    1  A    between atoms: C_1  and  C_44
    2  A    between atoms: P_2  and  C_9
    3  A    between atoms: C_5  and  N_43
    4  A    between atoms: C_7  and  C_22
    5  A    between atoms: N_8  and  C_48
    6  A    between atoms: C_9  and  O_35
    7  A    between atoms: C_10  and  C_57
    8  A    between atoms: C_13  and  O_46
    9  A    between atoms: C_16  and  C_33
   10  A    between atoms: C_18  and  C_27
   11  A    between atoms: C_19  and  O_35
   12  A    between atoms: O_23  and  C_28
   13  A    between atoms: O_23  and  O_46
   14  A    between atoms: C_56  and  C_57
                            x       y       z     vdW  Elec       q    Type
                         _______ _______ _______ _____ _____    ______ ____

>  <TORSDO>
F 14

$$$$
=
 OpenBabel10222421383D

 60 68  0  0  1  0  0  0  0  0999 V2000
  181.5020  178.7650  141.6620 C   0  0  2  0  0  3  0  0  0  0  0  0
  182.9980  178.0840  138.8040 C   0  0  2  0  0  3  0  0  0  0  0  0
  180.4500  175.2040  138.2540 C   0  0  0  0  0  2  0  0  0  0  0  0
  183.4390  178.9430  140.0090 C   0  0  2  0  0  3  0  0  0  0  0  0
  181.8150  177.1360  139.0910 C   0  0  2  0  0  3  0  0  0  0  0  0
  184.0220  175.8800  138.0030 C   0  0  0  0  0  2  0  0  0  0  0  0
  180.5740  177.7680  140.9640 C   0  0  0  0  0  2  0  0  0  0  0  0
  180.9100  173.9080  137.6170 C   0  0  0  0  0  2  0  0  0  0  0  0
  182.7030  175.5080  137.3210 C   0  0  2  0  0  3  0  0  0  0  0  0
  184.1640  177.3970  138.0440 C   0  0  2  0  0  3  0  0  0  0  0  0
  181.4770  176.2620  137.8770 C   0  0  1  0  0  3  0  0  0  0  0  0
  182.9690  178.4440  141.3810 C   0  0  0  0  0  2  0  0  0  0  0  0
  180.6550  177.9030  139.5190 N   0  0  0  0  0  2  0  0  0  0  0  0
  182.4170  174.0340  137.5110 C   0  0  2  0  0  3  0  0  0  0  0  0
  185.4780  177.7700  138.5650 N   0  0  0  0  0  2  0  0  0  0  0  0
  186.5860  178.0120  137.6950 C   0  0  0  0  0  0  0  0  0  0  0  0
  186.4790  177.8070  136.4500 O   0  0  0  0  0  0  0  0  0  0  0  0
  188.9540  177.4080  140.0790 C   0  0  0  0  0  0  0  0  0  0  0  0
  187.8870  178.4640  138.2750 C   0  0  2  0  0  3  0  0  0  0  0  0
  188.9600  177.5610  137.8880 N   0  0  0  0  0  2  0  0  0  0  0  0
  187.8540  178.3730  139.8030 C   0  0  0  0  0  2  0  0  0  0  0  0
  189.5380  176.9840  139.0170 N   0  0  0  0  0  0  0  0  0  0  0  0
  189.3270  176.9830  141.3500 O   0  0  0  0  0  0  0  0  0  0  0  0
  189.3420  177.8430  142.3780 O   0  0  0  0  0  0  0  0  0  0  0  0
  187.9560  178.0110  145.4540 C   0  0  2  0  0  3  0  0  0  0  0  0
  186.9900  177.2290  144.6920 N   0  0  0  0  0  2  0  0  0  0  0  0
  188.8830  177.1030  143.4710 C   0  0  2  0  0  3  0  0  0  0  0  0
  190.2900  178.2290  145.0370 O   0  0  0  0  0  0  0  0  0  0  0  0
  187.4720  177.0260  143.4130 O   0  0  0  0  0  0  0  0  0  0  0  0
  189.1890  177.8120  144.7140 C   0  0  0  0  0  0  0  0  0  0  0  0
  187.2380  178.0150  147.8500 O   0  0  0  0  0  1  0  0  0  0  0  0
  188.9100  176.6040  147.1630 O   0  0  0  0  0  0  0  0  0  0  0  0
  188.0690  177.4970  146.8630 C   0  0  0  0  0  0  0  0  0  0  0  0
  181.2770  178.6980  143.1620 C   0  0  0  0  0  2  0  0  0  0  0  0
  182.5970  178.7930  143.9020 C   0  0  0  0  0  1  0  0  0  0  0  0
  183.0910  180.2800  139.8120 O   0  0  0  0  0  0  0  0  0  0  0  0
  182.7170  180.3560  138.4680 C   0  0  0  0  0  2  0  0  0  0  0  0
  181.2630  181.4280  138.3040 P   0  0  0  0  0  0  0  0  0  0  0  0
  181.7560  183.0090  137.9610 O   0  0  0  0  0  1  0  0  0  0  0  0
  180.3940  180.9210  137.1770 O   0  0  0  0  0  0  0  0  0  0  0  0
  180.3800  181.4190  139.7520 O   0  0  0  0  0  1  0  0  0  0  0  0
  182.9980  173.1720  136.3950 C   0  0  0  0  0  2  0  0  0  0  0  0
  184.0990  170.8650  136.0850 C   0  0  1  0  0  3  0  0  0  0  0  0
  182.9670  171.6770  136.7240 C   0  0  2  0  0  3  0  0  0  0  0  0
  182.7230  170.8960  135.4470 C   0  0  0  0  0  2  0  0  0  0  0  0
  186.1720  172.3150  135.9120 C   0  0  0  0  0  0  0  0  0  0  0  0
  185.0250  171.7020  135.3220 N   0  0  0  0  0  2  0  0  0  0  0  0
  186.4050  172.1730  137.1470 O   0  0  0  0  0  0  0  0  0  0  0  0
  187.4280  175.3610  135.3630 C   0  0  0  0  0  2  0  0  0  0  0  0
  189.4860  172.5130  134.9920 N   0  0  0  0  0  2  0  0  0  0  0  0
  189.7420  174.8990  134.5990 C   0  0  1  0  0  3  0  0  0  0  0  0
  192.0240  175.6650  134.4280 O   0  0  0  0  0  0  0  0  0  0  0  0
  188.7460  174.7060  135.7130 C   0  0  2  0  0  3  0  0  0  0  0  0
  190.7730  175.9620  134.9850 C   0  0  0  0  0  2  0  0  0  0  0  0
  186.5920  174.3780  134.6950 N   0  0  0  0  0  2  0  0  0  0  0  0
  192.5040  174.6020  135.1910 C   0  0  0  0  0  2  0  0  0  0  0  0
  188.4520  173.2320  135.7360 C   0  0  1  0  0  3  0  0  0  0  0  0
  187.1200  173.0620  135.0390 C   0  0  1  0  0  3  0  0  0  0  0  0
  191.8010  173.3030  134.8000 C   0  0  0  0  0  2  0  0  0  0  0  0
  190.3410  173.5080  134.3520 C   0  0  1  0  0  3  0  0  0  0  0  0
  1 34  1  1  0  0  0
  2  5  1  0  0  0  0
  2  4  1  0  0  0  0
  4 12  1  0  0  0  0
  5 13  1  0  0  0  0
  6 10  1  0  0  0  0
  7  1  1  0  0  0  0
  8  3  1  0  0  0  0
  9 14  1  0  0  0  0
  9 11  1  0  0  0  0
  9  6  1  0  0  0  0
 10 15  1  0  0  0  0
 10  2  1  0  0  0  0
 11  3  1  0  0  0  0
 11  5  1  0  0  0  0
 12  1  1  0  0  0  0
 13  7  1  0  0  0  0
 14  8  1  0  0  0  0
 16 19  1  0  0  0  0
 16 15  1  0  0  0  0
 17 16  2  0  0  0  0
 18 23  1  0  0  0  0
 19 21  1  0  0  0  0
 20 19  1  0  0  0  0
 20 22  1  0  0  0  0
 21 18  1  0  0  0  0
 22 18  2  0  0  0  0
 23 24  1  0  0  0  0
 24 27  1  0  0  0  0
 25 33  1  0  0  0  0
 26 25  1  0  0  0  0
 27 30  1  0  0  0  0
 29 27  1  0  0  0  0
 29 26  1  0  0  0  0
 30 28  2  0  0  0  0
 30 25  1  0  0  0  0
 33 32  2  0  0  0  0
 33 31  1  0  0  0  0
 34 35  1  0  0  0  0
 36  4  1  0  0  0  0
 37 36  1  0  0  0  0
 38 37  1  0  0  0  0
 38 41  1  0  0  0  0
 39 38  1  0  0  0  0
 40 38  2  0  0  0  0
 42 44  1  0  0  0  0
 42 14  1  0  0  0  0
 43 44  1  0  0  0  0
 45 43  1  0  0  0  0
 45 44  1  0  0  0  0
 46 48  2  0  0  0  0
 47 46  1  0  0  0  0
 47 43  1  0  0  0  0
 49 53  1  0  0  0  0
 50 57  1  0  0  0  0
 51 54  1  0  0  0  0
 51 53  1  0  0  0  0
 52 54  1  0  0  0  0
 52 56  1  0  0  0  0
 53 57  1  0  0  0  0
 55 58  1  0  0  0  0
 55 49  1  0  0  0  0
 58 57  1  0  0  0  0
 58 46  1  0  0  0  0
 59 56  1  0  0  0  0
 60 51  1  0  0  0  0
 60 59  1  0  0  0  0
 60 50  1  0  0  0  0
M  END
>  <MODEL>
3

>  <REMARK>
 VINA RESULT:      -6.7      3.227      8.508
  Name = 
  14 active torsions:
  status: ('A' for Active; 'I' for Inactive)
    1  A    between atoms: C_1  and  C_44
    2  A    between atoms: P_2  and  C_9
    3  A    between atoms: C_5  and  N_43
    4  A    between atoms: C_7  and  C_22
    5  A    between atoms: N_8  and  C_48
    6  A    between atoms: C_9  and  O_35
    7  A    between atoms: C_10  and  C_57
    8  A    between atoms: C_13  and  O_46
    9  A    between atoms: C_16  and  C_33
   10  A    between atoms: C_18  and  C_27
   11  A    between atoms: C_19  and  O_35
   12  A    between atoms: O_23  and  C_28
   13  A    between atoms: O_23  and  O_46
   14  A    between atoms: C_56  and  C_57
                            x       y       z     vdW  Elec       q    Type
                         _______ _______ _______ _____ _____    ______ ____

>  <TORSDO>
F 14

$$$$
=
 OpenBabel10222421383D

 60 68  0  0  1  0  0  0  0  0999 V2000
  187.4690  177.6110  143.3820 C   0  0  2  0  0  3  0  0  0  0  0  0
  188.4340  178.1060  140.2690 C   0  0  2  0  0  3  0  0  0  0  0  0
  184.7170  178.6780  139.2960 C   0  0  0  0  0  2  0  0  0  0  0  0
  189.1690  177.4950  141.4820 C   0  0  2  0  0  3  0  0  0  0  0  0
  186.9060  178.2230  140.4380 C   0  0  2  0  0  3  0  0  0  0  0  0
  187.6840  176.9070  138.1370 C   0  0  0  0  0  2  0  0  0  0  0  0
  186.2270  178.1510  142.6690 C   0  0  0  0  0  2  0  0  0  0  0  0
  184.2030  178.1650  137.9660 C   0  0  0  0  0  2  0  0  0  0  0  0
  186.6160  177.9800  137.9020 C   0  0  2  0  0  3  0  0  0  0  0  0
  188.8570  177.5140  138.8980 C   0  0  2  0  0  3  0  0  0  0  0  0
  186.2310  178.7670  139.1720 C   0  0  1  0  0  3  0  0  0  0  0  0
  188.2870  176.7100  142.4590 C   0  0  0  0  0  2  0  0  0  0  0  0
  186.5930  179.0540  141.5910 N   0  0  0  0  0  2  0  0  0  0  0  0
  185.3410  177.3420  137.3950 C   0  0  2  0  0  3  0  0  0  0  0  0
  189.9440  176.5450  139.0100 N   0  0  0  0  0  2  0  0  0  0  0  0
  191.0320  176.5290  138.0810 C   0  0  0  0  0  0  0  0  0  0  0  0
  191.0230  177.2970  137.0740 O   0  0  0  0  0  0  0  0  0  0  0  0
  193.6210  174.8840  136.5830 C   0  0  0  0  0  0  0  0  0  0  0  0
  192.1560  175.5670  138.2860 C   0  0  2  0  0  3  0  0  0  0  0  0
  193.4330  176.2630  138.2820 N   0  0  0  0  0  2  0  0  0  0  0  0
  192.2540  174.5980  137.1030 C   0  0  0  0  0  2  0  0  0  0  0  0
  194.2390  175.7950  137.2460 N   0  0  0  0  0  0  0  0  0  0  0  0
  194.1930  174.2500  135.4850 O   0  0  0  0  0  0  0  0  0  0  0  0
  195.3100  174.7350  134.9250 O   0  0  0  0  0  0  0  0  0  0  0  0
  197.2620  174.5810  137.6780 C   0  0  2  0  0  3  0  0  0  0  0  0
  196.6000  173.2830  137.6610 N   0  0  0  0  0  2  0  0  0  0  0  0
  196.3530  174.0510  135.5550 C   0  0  2  0  0  3  0  0  0  0  0  0
  197.7000  176.0050  135.8190 O   0  0  0  0  0  0  0  0  0  0  0  0
  195.8090  173.1860  136.5320 O   0  0  0  0  0  0  0  0  0  0  0  0
  197.1960  174.9960  136.2880 C   0  0  0  0  0  0  0  0  0  0  0  0
  199.4760  173.4190  137.6600 O   0  0  0  0  0  0  0  0  0  0  0  0
  199.1690  175.2680  138.9830 O   0  0  0  0  0  1  0  0  0  0  0  0
  198.6850  174.4520  138.1480 C   0  0  0  0  0  0  0  0  0  0  0  0
  187.0430  176.7980  144.5910 C   0  0  0  0  0  2  0  0  0  0  0  0
  186.8630  177.6970  145.8000 C   0  0  0  0  0  1  0  0  0  0  0  0
  189.9140  178.4710  142.1470 O   0  0  0  0  0  0  0  0  0  0  0  0
  191.1010  177.8290  142.5080 C   0  0  0  0  0  2  0  0  0  0  0  0
  191.3100  177.9110  144.3080 P   0  0  0  0  0  0  0  0  0  0  0  0
  191.7060  176.3790  144.9070 O   0  0  0  0  0  1  0  0  0  0  0  0
  192.4230  178.8780  144.6370 O   0  0  0  0  0  0  0  0  0  0  0  0
  189.8680  178.4370  145.0280 O   0  0  0  0  0  1  0  0  0  0  0  0
  185.2910  177.2540  135.8730 C   0  0  0  0  0  2  0  0  0  0  0  0
  183.6970  175.4110  135.0410 C   0  0  1  0  0  3  0  0  0  0  0  0
  185.1380  175.8170  135.3680 C   0  0  2  0  0  3  0  0  0  0  0  0
  184.3190  175.0260  136.3700 C   0  0  0  0  0  2  0  0  0  0  0  0
  181.3660  176.2930  135.5010 C   0  0  0  0  0  0  0  0  0  0  0  0
  182.7510  176.5090  135.2290 N   0  0  0  0  0  2  0  0  0  0  0  0
  180.9040  175.1180  135.5560 O   0  0  0  0  0  0  0  0  0  0  0  0
  180.6070  178.5190  137.8740 C   0  0  0  0  0  2  0  0  0  0  0  0
  180.6740  179.5110  134.4830 N   0  0  0  0  0  2  0  0  0  0  0  0
  180.0630  180.5690  136.5860 C   0  0  1  0  0  3  0  0  0  0  0  0
  179.9830  182.9800  136.5300 O   0  0  0  0  0  0  0  0  0  0  0  0
  181.1150  179.5270  136.8660 C   0  0  2  0  0  3  0  0  0  0  0  0
  180.4150  181.8830  137.2860 C   0  0  0  0  0  2  0  0  0  0  0  0
  179.9820  177.4250  137.1500 N   0  0  0  0  0  2  0  0  0  0  0  0
  180.8820  183.0470  135.4660 C   0  0  0  0  0  2  0  0  0  0  0  0
  181.2650  178.7540  135.5860 C   0  0  1  0  0  3  0  0  0  0  0  0
  180.4940  177.4680  135.7850 C   0  0  1  0  0  3  0  0  0  0  0  0
  180.5730  181.9630  134.4360 C   0  0  0  0  0  2  0  0  0  0  0  0
  180.0020  180.6730  135.0560 C   0  0  1  0  0  3  0  0  0  0  0  0
  1 34  1  1  0  0  0
  2  5  1  0  0  0  0
  2  4  1  0  0  0  0
  4 36  1  0  0  0  0
  4 12  1  0  0  0  0
  5 13  1  0  0  0  0
  6 10  1  0  0  0  0
  7  1  1  0  0  0  0
  8  3  1  0  0  0  0
  9  6  1  0  0  0  0
  9 11  1  0  0  0  0
 10 15  1  0  0  0  0
 10  2  1  0  0  0  0
 11  3  1  0  0  0  0
 11  5  1  0  0  0  0
 12  1  1  0  0  0  0
 13  7  1  0  0  0  0
 14  9  1  0  0  0  0
 14  8  1  0  0  0  0
 16 19  1  0  0  0  0
 16 15  1  0  0  0  0
 17 16  2  0  0  0  0
 18 21  1  0  0  0  0
 18 22  2  0  0  0  0
 20 19  1  0  0  0  0
 21 19  1  0  0  0  0
 22 20  1  0  0  0  0
 23 18  1  0  0  0  0
 24 23  1  0  0  0  0
 24 27  1  0  0  0  0
 25 33  1  0  0  0  0
 26 25  1  0  0  0  0
 27 30  1  0  0  0  0
 27 29  1  0  0  0  0
 28 30  2  0  0  0  0
 29 26  1  0  0  0  0
 30 25  1  0  0  0  0
 31 33  2  0  0  0  0
 33 32  1  0  0  0  0
 34 35  1  0  0  0  0
 36 37  1  0  0  0  0
 37 38  1  0  0  0  0
 38 40  2  0  0  0  0
 38 39  1  0  0  0  0
 38 41  1  0  0  0  0
 42 14  1  0  0  0  0
 43 47  1  0  0  0  0
 43 44  1  0  0  0  0
 43 45  1  0  0  0  0
 44 42  1  0  0  0  0
 44 45  1  0  0  0  0
 46 48  2  0  0  0  0
 46 58  1  0  0  0  0
 47 46  1  0  0  0  0
 50 60  1  0  0  0  0
 50 57  1  0  0  0  0
 51 53  1  0  0  0  0
 51 54  1  0  0  0  0
 52 54  1  0  0  0  0
 53 49  1  0  0  0  0
 55 49  1  0  0  0  0
 56 52  1  0  0  0  0
 57 58  1  0  0  0  0
 57 53  1  0  0  0  0
 58 55  1  0  0  0  0
 59 60  1  0  0  0  0
 59 56  1  0  0  0  0
 60 51  1  0  0  0  0
M  END
>  <MODEL>
4

>  <REMARK>
 VINA RESULT:      -6.6      3.134      9.361
  Name = 
  14 active torsions:
  status: ('A' for Active; 'I' for Inactive)
    1  A    between atoms: C_1  and  C_44
    2  A    between atoms: P_2  and  C_9
    3  A    between atoms: C_5  and  N_43
    4  A    between atoms: C_7  and  C_22
    5  A    between atoms: N_8  and  C_48
    6  A    between atoms: C_9  and  O_35
    7  A    between atoms: C_10  and  C_57
    8  A    between atoms: C_13  and  O_46
    9  A    between atoms: C_16  and  C_33
   10  A    between atoms: C_18  and  C_27
   11  A    between atoms: C_19  and  O_35
   12  A    between atoms: O_23  and  C_28
   13  A    between atoms: O_23  and  O_46
   14  A    between atoms: C_56  and  C_57
                            x       y       z     vdW  Elec       q    Type
                         _______ _______ _______ _____ _____    ______ ____

>  <TORSDO>
F 14

$$$$
=
 OpenBabel10222421383D

 60 68  0  0  1  0  0  0  0  0999 V2000
  187.2440  177.8230  147.0880 C   0  0  2  0  0  3  0  0  0  0  0  0
  186.9900  178.7300  143.9280 C   0  0  2  0  0  3  0  0  0  0  0  0
  183.2260  179.4770  144.5330 C   0  0  0  0  0  2  0  0  0  0  0  0
  188.0880  177.9490  144.6820 C   0  0  2  0  0  3  0  0  0  0  0  0
  185.6500  178.8420  144.6830 C   0  0  2  0  0  3  0  0  0  0  0  0
  185.4130  177.8450  142.1170 C   0  0  0  0  0  2  0  0  0  0  0  0
  185.8620  178.4710  146.9770 C   0  0  0  0  0  2  0  0  0  0  0  0
  182.2160  179.1580  143.4500 C   0  0  0  0  0  2  0  0  0  0  0  0
  184.4080  178.9530  142.4430 C   0  0  2  0  0  3  0  0  0  0  0  0
  186.8240  178.3260  142.4380 C   0  0  2  0  0  3  0  0  0  0  0  0
  184.5830  179.5630  143.8490 C   0  0  1  0  0  3  0  0  0  0  0  0
  187.5930  177.0470  145.8190 C   0  0  0  0  0  2  0  0  0  0  0  0
  185.8510  179.5090  145.9600 N   0  0  0  0  0  2  0  0  0  0  0  0
  182.9970  178.4070  142.3900 C   0  0  2  0  0  3  0  0  0  0  0  0
  187.8080  177.3380  142.0050 N   0  0  0  0  0  2  0  0  0  0  0  0
  188.7210  177.6080  140.9380 C   0  0  0  0  0  0  0  0  0  0  0  0
  188.6260  178.6810  140.2720 O   0  0  0  0  0  0  0  0  0  0  0  0
  191.3170  176.8580  138.8520 C   0  0  0  0  0  0  0  0  0  0  0  0
  189.7570  176.5910  140.5850 C   0  0  2  0  0  3  0  0  0  0  0  0
  191.0720  177.0260  141.0280 N   0  0  0  0  0  2  0  0  0  0  0  0
  189.8940  176.4710  139.0650 C   0  0  0  0  0  2  0  0  0  0  0  0
  191.9330  177.1540  139.9390 N   0  0  0  0  0  0  0  0  0  0  0  0
  191.9400  176.9120  137.6090 O   0  0  0  0  0  0  0  0  0  0  0  0
  191.4970  176.1570  136.5930 O   0  0  0  0  0  0  0  0  0  0  0  0
  194.5020  175.0240  137.6420 C   0  0  2  0  0  3  0  0  0  0  0  0
  193.6490  173.8450  137.7250 N   0  0  0  0  0  2  0  0  0  0  0  0
  192.5240  175.2390  136.3550 C   0  0  2  0  0  3  0  0  0  0  0  0
  194.2190  176.9150  136.2220 O   0  0  0  0  0  0  0  0  0  0  0  0
  192.3880  174.1570  137.2540 O   0  0  0  0  0  0  0  0  0  0  0  0
  193.8170  175.8500  136.6640 C   0  0  0  0  0  0  0  0  0  0  0  0
  196.9860  175.0620  137.9260 O   0  0  0  0  0  1  0  0  0  0  0  0
  196.0600  173.9830  136.1260 O   0  0  0  0  0  0  0  0  0  0  0  0
  195.8850  174.6550  137.1810 C   0  0  0  0  0  0  0  0  0  0  0  0
  187.2560  176.8570  148.2580 C   0  0  0  0  0  2  0  0  0  0  0  0
  188.5320  176.0380  148.2580 C   0  0  0  0  0  1  0  0  0  0  0  0
  189.0900  178.8140  145.1240 O   0  0  0  0  0  0  0  0  0  0  0  0
  189.8840  178.0370  145.9720 C   0  0  0  0  0  2  0  0  0  0  0  0
  191.1630  177.1960  145.0000 P   0  0  0  0  0  0  0  0  0  0  0  0
  191.9890  178.3240  144.0460 O   0  0  0  0  0  1  0  0  0  0  0  0
  192.1400  176.5240  145.9350 O   0  0  0  0  0  1  0  0  0  0  0  0
  190.4460  176.0330  143.9950 O   0  0  0  0  0  0  0  0  0  0  0  0
  182.3690  178.5290  141.0050 C   0  0  0  0  0  2  0  0  0  0  0  0
  180.2440  177.7920  139.7540 C   0  0  1  0  0  3  0  0  0  0  0  0
  180.8460  178.3880  141.0300 C   0  0  2  0  0  3  0  0  0  0  0  0
  180.2480  179.2930  139.9700 C   0  0  0  0  0  2  0  0  0  0  0  0
  181.4380  176.0830  138.3100 C   0  0  0  0  0  0  0  0  0  0  0  0
  181.2650  177.4220  138.7740 N   0  0  0  0  0  2  0  0  0  0  0  0
  180.7150  175.1520  138.7700 O   0  0  0  0  0  0  0  0  0  0  0  0
  184.3760  177.1110  137.0990 C   0  0  0  0  0  2  0  0  0  0  0  0
  183.5660  173.6720  137.0750 N   0  0  0  0  0  2  0  0  0  0  0  0
  185.3990  175.0250  136.2280 C   0  0  1  0  0  3  0  0  0  0  0  0
  187.4160  173.8040  135.7140 O   0  0  0  0  0  0  0  0  0  0  0  0
  184.8270  175.7080  137.4430 C   0  0  2  0  0  3  0  0  0  0  0  0
  186.9260  174.9690  136.3170 C   0  0  0  0  0  2  0  0  0  0  0  0
  182.9800  177.0560  136.7020 N   0  0  0  0  0  2  0  0  0  0  0  0
  187.1040  172.7860  136.6140 C   0  0  0  0  0  2  0  0  0  0  0  0
  183.5630  174.9610  137.7640 C   0  0  1  0  0  3  0  0  0  0  0  0
  182.4310  175.8140  137.2330 C   0  0  1  0  0  3  0  0  0  0  0  0
  185.6180  172.4400  136.5330 C   0  0  0  0  0  2  0  0  0  0  0  0
  184.7250  173.6470  136.1890 C   0  0  1  0  0  3  0  0  0  0  0  0
  1 34  1  1  0  0  0
  2  4  1  0  0  0  0
  2  5  1  0  0  0  0
  4 36  1  0  0  0  0
  4 12  1  0  0  0  0
  5 13  1  0  0  0  0
  6 10  1  0  0  0  0
  6  9  1  0  0  0  0
  7  1  1  0  0  0  0
  8  3  1  0  0  0  0
  9 11  1  0  0  0  0
 10  2  1  0  0  0  0
 11  3  1  0  0  0  0
 11  5  1  0  0  0  0
 12  1  1  0  0  0  0
 13  7  1  0  0  0  0
 14  9  1  0  0  0  0
 14  8  1  0  0  0  0
 15 10  1  0  0  0  0
 16 15  1  0  0  0  0
 17 16  2  0  0  0  0
 18 21  1  0  0  0  0
 18 22  2  0  0  0  0
 19 16  1  0  0  0  0
 19 20  1  0  0  0  0
 21 19  1  0  0  0  0
 22 20  1  0  0  0  0
 23 18  1  0  0  0  0
 24 23  1  0  0  0  0
 25 26  1  0  0  0  0
 27 24  1  0  0  0  0
 27 30  1  0  0  0  0
 27 29  1  0  0  0  0
 28 30  2  0  0  0  0
 29 26  1  0  0  0  0
 30 25  1  0  0  0  0
 32 33  2  0  0  0  0
 33 25  1  0  0  0  0
 33 31  1  0  0  0  0
 34 35  1  0  0  0  0
 36 37  1  0  0  0  0
 38 40  1  0  0  0  0
 38 37  1  0  0  0  0
 39 38  1  0  0  0  0
 41 38  2  0  0  0  0
 42 44  1  0  0  0  0
 42 14  1  0  0  0  0
 43 45  1  0  0  0  0
 43 44  1  0  0  0  0
 45 44  1  0  0  0  0
 46 48  2  0  0  0  0
 46 47  1  0  0  0  0
 47 43  1  0  0  0  0
 49 53  1  0  0  0  0
 50 57  1  0  0  0  0
 51 54  1  0  0  0  0
 51 53  1  0  0  0  0
 52 54  1  0  0  0  0
 52 56  1  0  0  0  0
 53 57  1  0  0  0  0
 55 49  1  0  0  0  0
 55 58  1  0  0  0  0
 58 57  1  0  0  0  0
 58 46  1  0  0  0  0
 59 56  1  0  0  0  0
 60 51  1  0  0  0  0
 60 59  1  0  0  0  0
 60 50  1  0  0  0  0
M  END
>  <MODEL>
5

>  <REMARK>
 VINA RESULT:      -6.2      2.809      7.782
  Name = 
  14 active torsions:
  status: ('A' for Active; 'I' for Inactive)
    1  A    between atoms: C_1  and  C_44
    2  A    between atoms: P_2  and  C_9
    3  A    between atoms: C_5  and  N_43
    4  A    between atoms: C_7  and  C_22
    5  A    between atoms: N_8  and  C_48
    6  A    between atoms: C_9  and  O_35
    7  A    between atoms: C_10  and  C_57
    8  A    between atoms: C_13  and  O_46
    9  A    between atoms: C_16  and  C_33
   10  A    between atoms: C_18  and  C_27
   11  A    between atoms: C_19  and  O_35
   12  A    between atoms: O_23  and  C_28
   13  A    between atoms: O_23  and  O_46
   14  A    between atoms: C_56  and  C_57
                            x       y       z     vdW  Elec       q    Type
                         _______ _______ _______ _____ _____    ______ ____

>  <TORSDO>
F 14

$$$$
=
 OpenBabel10222421383D

 60 68  0  0  1  0  0  0  0  0999 V2000
  180.8830  177.4170  135.4780 C   0  0  2  0  0  3  0  0  0  0  0  0
  183.2740  176.8400  137.6730 C   0  0  2  0  0  3  0  0  0  0  0  0
  180.7800  177.7600  140.5050 C   0  0  0  0  0  2  0  0  0  0  0  0
  183.3180  177.0410  136.1420 C   0  0  2  0  0  3  0  0  0  0  0  0
  181.9560  177.2840  138.3400 C   0  0  2  0  0  3  0  0  0  0  0  0
  184.2190  178.3910  139.4750 C   0  0  0  0  0  2  0  0  0  0  0  0
  180.1780  177.4320  136.8360 C   0  0  0  0  0  2  0  0  0  0  0  0
  181.2720  178.5270  141.7160 C   0  0  0  0  0  2  0  0  0  0  0  0
  183.2370  177.8100  140.4970 C   0  0  2  0  0  3  0  0  0  0  0  0
  184.5400  177.3370  138.4220 C   0  0  2  0  0  3  0  0  0  0  0  0
  182.0070  177.1270  139.8650 C   0  0  1  0  0  3  0  0  0  0  0  0
  182.2830  178.0200  135.5760 C   0  0  0  0  0  2  0  0  0  0  0  0
  180.8380  176.5430  137.7770 N   0  0  0  0  0  2  0  0  0  0  0  0
  182.7000  178.9110  141.3860 C   0  0  2  0  0  3  0  0  0  0  0  0
  185.5790  177.8230  137.5180 N   0  0  0  0  0  2  0  0  0  0  0  0
  186.8350  178.3000  138.0090 C   0  0  0  0  0  0  0  0  0  0  0  0
  187.0340  178.4080  139.2550 O   0  0  0  0  0  0  0  0  0  0  0  0
  189.5400  177.2700  136.2000 C   0  0  0  0  0  0  0  0  0  0  0  0
  187.8920  178.7160  137.0380 C   0  0  2  0  0  3  0  0  0  0  0  0
  187.6050  178.1880  135.7140 N   0  0  0  0  0  2  0  0  0  0  0  0
  189.2380  178.0860  137.4090 C   0  0  0  0  0  2  0  0  0  0  0  0
  188.6330  177.3460  135.2940 N   0  0  0  0  0  0  0  0  0  0  0  0
  190.6790  176.4870  136.0450 O   0  0  0  0  0  0  0  0  0  0  0  0
  191.5840  176.3990  137.0300 O   0  0  0  0  0  0  0  0  0  0  0  0
  194.5800  174.9480  137.6040 C   0  0  2  0  0  3  0  0  0  0  0  0
  193.6420  173.8400  137.7210 N   0  0  0  0  0  2  0  0  0  0  0  0
  192.4850  175.4210  136.6020 C   0  0  2  0  0  3  0  0  0  0  0  0
  194.2960  176.9580  136.3580 O   0  0  0  0  0  0  0  0  0  0  0  0
  192.3650  174.2880  137.4400 O   0  0  0  0  0  0  0  0  0  0  0  0
  193.8570  175.8990  136.7780 C   0  0  0  0  0  0  0  0  0  0  0  0
  195.8770  174.2810  135.5720 O   0  0  0  0  0  0  0  0  0  0  0  0
  196.9090  174.3250  137.6200 O   0  0  0  0  0  1  0  0  0  0  0  0
  195.8570  174.5030  136.9440 C   0  0  0  0  0  0  0  0  0  0  0  0
  180.0790  178.2350  134.4840 C   0  0  0  0  0  2  0  0  0  0  0  0
  180.4640  179.7000  134.5650 C   0  0  0  0  0  1  0  0  0  0  0  0
  183.2620  175.8110  135.4840 O   0  0  0  0  0  0  0  0  0  0  0  0
  183.4350  174.8590  136.4930 C   0  0  0  0  0  2  0  0  0  0  0  0
  184.9630  173.9300  136.1930 P   0  0  0  0  0  0  0  0  0  0  0  0
  185.4010  173.0860  137.5930 O   0  0  0  0  0  1  0  0  0  0  0  0
  184.7370  172.9480  135.0680 O   0  0  0  0  0  0  0  0  0  0  0  0
  186.2100  175.0000  135.7730 O   0  0  0  0  0  1  0  0  0  0  0  0
  183.5500  179.1280  142.6350 C   0  0  0  0  0  2  0  0  0  0  0  0
  183.5580  179.1540  145.2090 C   0  0  1  0  0  3  0  0  0  0  0  0
  182.7250  179.1100  143.9240 C   0  0  2  0  0  3  0  0  0  0  0  0
  183.0270  177.8330  144.6850 C   0  0  0  0  0  2  0  0  0  0  0  0
  185.9560  178.4150  145.5720 C   0  0  0  0  0  0  0  0  0  0  0  0
  184.9920  179.2590  144.9420 N   0  0  0  0  0  2  0  0  0  0  0  0
  185.5890  177.5540  146.4220 O   0  0  0  0  0  0  0  0  0  0  0  0
  188.9230  176.9150  145.8990 C   0  0  0  0  0  2  0  0  0  0  0  0
  188.0330  178.4110  142.8240 N   0  0  0  0  0  2  0  0  0  0  0  0
  190.0280  177.3460  143.7190 C   0  0  1  0  0  3  0  0  0  0  0  0
  191.6260  176.6180  142.0650 O   0  0  0  0  0  0  0  0  0  0  0  0
  188.8230  176.7470  144.3980 C   0  0  2  0  0  3  0  0  0  0  0  0
  190.9780  176.2430  143.2480 C   0  0  0  0  0  2  0  0  0  0  0  0
  188.2750  178.1640  146.2620 N   0  0  0  0  0  2  0  0  0  0  0  0
  190.6470  176.5040  141.0780 C   0  0  0  0  0  2  0  0  0  0  0  0
  187.6620  177.6080  143.9880 C   0  0  1  0  0  3  0  0  0  0  0  0
  187.3850  178.5200  145.1620 C   0  0  1  0  0  3  0  0  0  0  0  0
  189.6750  177.6810  141.1520 C   0  0  0  0  0  2  0  0  0  0  0  0
  189.4590  178.2070  142.5840 C   0  0  1  0  0  3  0  0  0  0  0  0
  1 34  1  6  0  0  0
  1 12  1  0  0  0  0
  1  7  1  0  0  0  0
  2  5  1  0  0  0  0
  2 10  1  0  0  0  0
  3  8  1  0  0  0  0
  4  2  1  0  0  0  0
  5 11  1  0  0  0  0
  6  9  1  0  0  0  0
  7 13  1  0  0  0  0
  9 14  1  0  0  0  0
 10  6  1  0  0  0  0
 11  9  1  0  0  0  0
 11  3  1  0  0  0  0
 12  4  1  0  0  0  0
 13  5  1  0  0  0  0
 14  8  1  0  0  0  0
 14 42  1  0  0  0  0
 15 16  1  0  0  0  0
 15 10  1  0  0  0  0
 16 17  2  0  0  0  0
 18 21  1  0  0  0  0
 19 21  1  0  0  0  0
 19 16  1  0  0  0  0
 20 19  1  0  0  0  0
 22 20  1  0  0  0  0
 22 18  2  0  0  0  0
 23 18  1  0  0  0  0
 23 24  1  0  0  0  0
 25 26  1  0  0  0  0
 27 30  1  0  0  0  0
 27 24  1  0  0  0  0
 27 29  1  0  0  0  0
 28 30  2  0  0  0  0
 29 26  1  0  0  0  0
 30 25  1  0  0  0  0
 31 33  2  0  0  0  0
 33 25  1  0  0  0  0
 33 32  1  0  0  0  0
 34 35  1  0  0  0  0
 36  4  1  0  0  0  0
 36 37  1  0  0  0  0
 38 37  1  0  0  0  0
 38 39  1  0  0  0  0
 40 38  2  0  0  0  0
 41 38  1  0  0  0  0
 42 44  1  0  0  0  0
 44 45  1  0  0  0  0
 44 43  1  0  0  0  0
 45 43  1  0  0  0  0
 46 48  2  0  0  0  0
 47 43  1  0  0  0  0
 47 46  1  0  0  0  0
 49 55  1  0  0  0  0
 50 57  1  0  0  0  0
 51 53  1  0  0  0  0
 52 54  1  0  0  0  0
 53 49  1  0  0  0  0
 54 51  1  0  0  0  0
 56 59  1  0  0  0  0
 56 52  1  0  0  0  0
 57 53  1  0  0  0  0
 57 58  1  0  0  0  0
 58 46  1  0  0  0  0
 58 55  1  0  0  0  0
 59 60  1  0  0  0  0
 60 50  1  0  0  0  0
 60 51  1  0  0  0  0
M  END
>  <MODEL>
6

>  <REMARK>
 VINA RESULT:      -6.2      1.959      2.580
  Name = 
  14 active torsions:
  status: ('A' for Active; 'I' for Inactive)
    1  A    between atoms: C_1  and  C_44
    2  A    between atoms: P_2  and  C_9
    3  A    between atoms: C_5  and  N_43
    4  A    between atoms: C_7  and  C_22
    5  A    between atoms: N_8  and  C_48
    6  A    between atoms: C_9  and  O_35
    7  A    between atoms: C_10  and  C_57
    8  A    between atoms: C_13  and  O_46
    9  A    between atoms: C_16  and  C_33
   10  A    between atoms: C_18  and  C_27
   11  A    between atoms: C_19  and  O_35
   12  A    between atoms: O_23  and  C_28
   13  A    between atoms: O_23  and  O_46
   14  A    between atoms: C_56  and  C_57
                            x       y       z     vdW  Elec       q    Type
                         _______ _______ _______ _____ _____    ______ ____

>  <TORSDO>
F 14

$$$$
=
 OpenBabel10222421383D

 60 68  0  0  1  0  0  0  0  0999 V2000
  181.5960  176.1230  135.5320 C   0  0  2  0  0  3  0  0  0  0  0  0
  184.2060  177.6140  136.8860 C   0  0  2  0  0  3  0  0  0  0  0  0
  186.4900  175.6820  134.4080 C   0  0  0  0  0  2  0  0  0  0  0  0
  182.7440  177.4770  137.3660 C   0  0  2  0  0  3  0  0  0  0  0  0
  184.6030  176.6460  135.7530 C   0  0  2  0  0  3  0  0  0  0  0  0
  186.2940  176.5740  137.9360 C   0  0  0  0  0  2  0  0  0  0  0  0
  182.7630  175.7900  134.6000 C   0  0  0  0  0  2  0  0  0  0  0  0
  187.8380  175.1730  134.8740 C   0  0  0  0  0  2  0  0  0  0  0  0
  187.0240  176.6700  136.5940 C   0  0  2  0  0  3  0  0  0  0  0  0
  185.2520  177.6830  138.0300 C   0  0  2  0  0  3  0  0  0  0  0  0
  186.0830  176.7840  135.3760 C   0  0  1  0  0  3  0  0  0  0  0  0
  182.0490  176.1630  136.9900 C   0  0  0  0  0  2  0  0  0  0  0  0
  183.7490  176.8570  134.5940 N   0  0  0  0  0  2  0  0  0  0  0  0
  187.8620  175.4300  136.3680 C   0  0  2  0  0  3  0  0  0  0  0  0
  184.6420  177.6950  139.3570 N   0  0  0  0  0  2  0  0  0  0  0  0
  185.1670  178.5010  140.4150 C   0  0  0  0  0  0  0  0  0  0  0  0
  186.2430  179.1490  140.2520 O   0  0  0  0  0  0  0  0  0  0  0  0
  185.5560  178.6540  143.8030 C   0  0  0  0  0  0  0  0  0  0  0  0
  184.4600  178.5340  141.7310 C   0  0  2  0  0  3  0  0  0  0  0  0
  184.5080  179.8700  142.3040 N   0  0  0  0  0  2  0  0  0  0  0  0
  185.1920  177.6610  142.7550 C   0  0  0  0  0  2  0  0  0  0  0  0
  185.1700  179.8490  143.5300 N   0  0  0  0  0  0  0  0  0  0  0  0
  186.2530  178.3490  144.9680 O   0  0  0  0  0  0  0  0  0  0  0  0
  186.3670  177.0780  145.3790 O   0  0  0  0  0  0  0  0  0  0  0  0
  189.5190  177.9770  144.5630 C   0  0  2  0  0  3  0  0  0  0  0  0
  189.3920  178.4140  145.9470 N   0  0  0  0  0  2  0  0  0  0  0  0
  187.7210  176.9220  145.6890 C   0  0  2  0  0  3  0  0  0  0  0  0
  188.3170  176.2270  143.4840 O   0  0  0  0  0  0  0  0  0  0  0  0
  188.1530  178.0430  146.4330 O   0  0  0  0  0  0  0  0  0  0  0  0
  188.5150  176.9330  144.4600 C   0  0  0  0  0  0  0  0  0  0  0  0
  191.6750  176.9830  145.3520 O   0  0  0  0  0  1  0  0  0  0  0  0
  191.3660  177.4100  143.1200 O   0  0  0  0  0  0  0  0  0  0  0  0
  190.9000  177.4430  144.2930 C   0  0  0  0  0  0  0  0  0  0  0  0
  180.5210  175.0600  135.3940 C   0  0  0  0  0  2  0  0  0  0  0  0
  180.6300  174.0450  136.5160 C   0  0  0  0  0  1  0  0  0  0  0  0
  181.9900  178.5810  136.9630 O   0  0  0  0  0  0  0  0  0  0  0  0
  181.1870  178.8850  138.0650 C   0  0  0  0  0  2  0  0  0  0  0  0
  181.4420  180.6180  138.5380 P   0  0  0  0  0  0  0  0  0  0  0  0
  183.0820  180.8890  138.8520 O   0  0  0  0  0  1  0  0  0  0  0  0
  180.9950  181.5140  137.4070 O   0  0  0  0  0  0  0  0  0  0  0  0
  180.5410  180.9690  139.9310 O   0  0  0  0  0  1  0  0  0  0  0  0
  189.2800  175.5690  136.9140 C   0  0  0  0  0  2  0  0  0  0  0  0
  190.9630  177.2370  137.9210 C   0  0  1  0  0  3  0  0  0  0  0  0
  189.4930  176.8740  137.6850 C   0  0  2  0  0  3  0  0  0  0  0  0
  190.1570  176.5600  139.0130 C   0  0  0  0  0  2  0  0  0  0  0  0
  193.2940  176.3330  137.5030 C   0  0  0  0  0  0  0  0  0  0  0  0
  191.8810  176.2790  137.3070 N   0  0  0  0  0  2  0  0  0  0  0  0
  193.8040  177.2530  138.2050 O   0  0  0  0  0  0  0  0  0  0  0  0
  195.7950  174.2470  138.2490 C   0  0  0  0  0  2  0  0  0  0  0  0
  193.1730  173.1740  136.1360 N   0  0  0  0  0  2  0  0  0  0  0  0
  195.2800  172.2290  136.9000 C   0  0  1  0  0  3  0  0  0  0  0  0
  195.4740  169.8360  136.6560 O   0  0  0  0  0  0  0  0  0  0  0  0
  194.7700  173.1720  137.9600 C   0  0  2  0  0  3  0  0  0  0  0  0
  195.7150  170.9040  137.5300 C   0  0  0  0  0  2  0  0  0  0  0  0
  195.5270  175.3780  137.3760 N   0  0  0  0  0  2  0  0  0  0  0  0
  194.0910  169.6580  136.6950 C   0  0  0  0  0  2  0  0  0  0  0  0
  193.6140  173.8960  137.3280 C   0  0  1  0  0  3  0  0  0  0  0  0
  194.1450  175.2550  136.9270 C   0  0  1  0  0  3  0  0  0  0  0  0
  193.3900  170.7420  135.8790 C   0  0  0  0  0  2  0  0  0  0  0  0
  194.1270  172.0950  135.8960 C   0  0  1  0  0  3  0  0  0  0  0  0
  1 34  1  1  0  0  0
  1 12  1  0  0  0  0
  2  4  1  0  0  0  0
  2 10  1  0  0  0  0
  3  8  1  0  0  0  0
  3 11  1  0  0  0  0
  5  2  1  0  0  0  0
  6 10  1  0  0  0  0
  7  1  1  0  0  0  0
  8 14  1  0  0  0  0
  9  6  1  0  0  0  0
 10 15  1  0  0  0  0
 11  5  1  0  0  0  0
 11  9  1  0  0  0  0
 12  4  1  0  0  0  0
 13  7  1  0  0  0  0
 13  5  1  0  0  0  0
 14  9  1  0  0  0  0
 14 42  1  0  0  0  0
 15 16  1  0  0  0  0
 16 19  1  0  0  0  0
 17 16  2  0  0  0  0
 18 23  1  0  0  0  0
 19 20  1  0  0  0  0
 19 21  1  0  0  0  0
 20 22  1  0  0  0  0
 21 18  1  0  0  0  0
 22 18  2  0  0  0  0
 23 24  1  0  0  0  0
 24 27  1  0  0  0  0
 25 26  1  0  0  0  0
 26 29  1  0  0  0  0
 27 29  1  0  0  0  0
 28 30  2  0  0  0  0
 30 25  1  0  0  0  0
 30 27  1  0  0  0  0
 32 33  2  0  0  0  0
 33 25  1  0  0  0  0
 33 31  1  0  0  0  0
 34 35  1  0  0  0  0
 36  4  1  0  0  0  0
 36 37  1  0  0  0  0
 37 38  1  0  0  0  0
 38 39  1  0  0  0  0
 38 41  1  0  0  0  0
 40 38  2  0  0  0  0
 42 44  1  0  0  0  0
 43 45  1  0  0  0  0
 44 43  1  0  0  0  0
 44 45  1  0  0  0  0
 46 48  2  0  0  0  0
 47 46  1  0  0  0  0
 47 43  1  0  0  0  0
 50 57  1  0  0  0  0
 51 54  1  0  0  0  0
 51 53  1  0  0  0  0
 52 56  1  0  0  0  0
 52 54  1  0  0  0  0
 53 49  1  0  0  0  0
 55 49  1  0  0  0  0
 57 53  1  0  0  0  0
 58 57  1  0  0  0  0
 58 55  1  0  0  0  0
 58 46  1  0  0  0  0
 59 60  1  0  0  0  0
 59 56  1  0  0  0  0
 60 50  1  0  0  0  0
 60 51  1  0  0  0  0
M  END
>  <MODEL>
7

>  <REMARK>
 VINA RESULT:      -6.2      2.906      8.421
  Name = 
  14 active torsions:
  status: ('A' for Active; 'I' for Inactive)
    1  A    between atoms: C_1  and  C_44
    2  A    between atoms: P_2  and  C_9
    3  A    between atoms: C_5  and  N_43
    4  A    between atoms: C_7  and  C_22
    5  A    between atoms: N_8  and  C_48
    6  A    between atoms: C_9  and  O_35
    7  A    between atoms: C_10  and  C_57
    8  A    between atoms: C_13  and  O_46
    9  A    between atoms: C_16  and  C_33
   10  A    between atoms: C_18  and  C_27
   11  A    between atoms: C_19  and  O_35
   12  A    between atoms: O_23  and  C_28
   13  A    between atoms: O_23  and  O_46
   14  A    between atoms: C_56  and  C_57
                            x       y       z     vdW  Elec       q    Type
                         _______ _______ _______ _____ _____    ______ ____

>  <TORSDO>
F 14

$$$$
=
 OpenBabel10222421383D

 60 68  0  0  1  0  0  0  0  0999 V2000
  180.8610  177.0750  135.2860 C   0  0  2  0  0  3  0  0  0  0  0  0
  183.3730  176.5510  137.3560 C   0  0  2  0  0  3  0  0  0  0  0  0
  180.9860  177.3310  140.3190 C   0  0  0  0  0  2  0  0  0  0  0  0
  183.3380  176.7780  135.8280 C   0  0  2  0  0  3  0  0  0  0  0  0
  182.0740  176.9350  138.0920 C   0  0  2  0  0  3  0  0  0  0  0  0
  184.3460  178.1050  139.1400 C   0  0  0  0  0  2  0  0  0  0  0  0
  180.2220  177.0410  136.6760 C   0  0  0  0  0  2  0  0  0  0  0  0
  181.5060  178.0960  141.5190 C   0  0  0  0  0  2  0  0  0  0  0  0
  183.4360  177.4730  140.1960 C   0  0  2  0  0  3  0  0  0  0  0  0
  184.6550  177.0810  138.0530 C   0  0  2  0  0  3  0  0  0  0  0  0
  182.2030  176.7540  139.6100 C   0  0  1  0  0  3  0  0  0  0  0  0
  182.2420  177.7270  135.3300 C   0  0  0  0  0  2  0  0  0  0  0  0
  180.9570  176.1620  137.5690 N   0  0  0  0  0  2  0  0  0  0  0  0
  182.9030  178.5380  141.1290 C   0  0  2  0  0  3  0  0  0  0  0  0
  185.6320  177.6210  137.1110 N   0  0  0  0  0  2  0  0  0  0  0  0
  187.0200  177.2890  137.2000 C   0  0  0  0  0  0  0  0  0  0  0  0
  187.4510  176.5960  138.1690 O   0  0  0  0  0  0  0  0  0  0  0  0
  189.9110  176.6820  135.4890 C   0  0  0  0  0  0  0  0  0  0  0  0
  187.9650  177.8070  136.1660 C   0  0  2  0  0  3  0  0  0  0  0  0
  187.8230  177.0630  134.9240 N   0  0  0  0  0  2  0  0  0  0  0  0
  189.4150  177.5550  136.5900 C   0  0  0  0  0  2  0  0  0  0  0  0
  189.0210  176.4320  134.5960 N   0  0  0  0  0  0  0  0  0  0  0  0
  191.2010  176.1660  135.4140 O   0  0  0  0  0  0  0  0  0  0  0  0
  191.7680  175.5930  136.4850 O   0  0  0  0  0  0  0  0  0  0  0  0
  194.7150  174.1510  137.2890 C   0  0  2  0  0  3  0  0  0  0  0  0
  194.5020  173.7340  135.9080 N   0  0  0  0  0  2  0  0  0  0  0  0
  193.1250  175.5030  136.1660 C   0  0  2  0  0  3  0  0  0  0  0  0
  193.8520  176.0940  138.3620 O   0  0  0  0  0  0  0  0  0  0  0  0
  193.3450  174.3180  135.4270 O   0  0  0  0  0  0  0  0  0  0  0  0
  193.9140  175.3580  137.3900 C   0  0  0  0  0  0  0  0  0  0  0  0
  196.8120  175.4330  136.8280 O   0  0  0  0  0  0  0  0  0  0  0  0
  196.8180  173.7660  138.4030 O   0  0  0  0  0  1  0  0  0  0  0  0
  196.1700  174.4310  137.5460 C   0  0  0  0  0  0  0  0  0  0  0  0
  179.9820  177.8790  134.3460 C   0  0  0  0  0  2  0  0  0  0  0  0
  180.1640  179.3650  134.5880 C   0  0  0  0  0  1  0  0  0  0  0  0
  183.2950  175.5580  135.1520 O   0  0  0  0  0  0  0  0  0  0  0  0
  184.6240  175.2930  134.8110 C   0  0  0  0  0  2  0  0  0  0  0  0
  185.0040  173.5550  135.1620 P   0  0  0  0  0  0  0  0  0  0  0  0
  186.5110  173.1560  134.5030 O   0  0  0  0  0  1  0  0  0  0  0  0
  185.0430  173.3450  136.6570 O   0  0  0  0  0  1  0  0  0  0  0  0
  183.8140  172.5600  134.4780 O   0  0  0  0  0  0  0  0  0  0  0  0
  183.8030  178.7660  142.3400 C   0  0  0  0  0  2  0  0  0  0  0  0
  183.8820  179.6860  144.7430 C   0  0  1  0  0  3  0  0  0  0  0  0
  183.1650  179.6800  143.3890 C   0  0  2  0  0  3  0  0  0  0  0  0
  182.6470  178.8300  144.5340 C   0  0  0  0  0  2  0  0  0  0  0  0
  185.5690  178.2060  145.9240 C   0  0  0  0  0  0  0  0  0  0  0  0
  185.0800  178.8470  144.7450 N   0  0  0  0  0  2  0  0  0  0  0  0
  184.9820  178.3770  147.0310 O   0  0  0  0  0  0  0  0  0  0  0  0
  188.2900  177.5820  144.0900 C   0  0  0  0  0  2  0  0  0  0  0  0
  188.3800  177.1220  147.5920 N   0  0  0  0  0  2  0  0  0  0  0  0
  189.9120  176.7050  145.7500 C   0  0  1  0  0  3  0  0  0  0  0  0
  192.2210  176.4170  146.3890 O   0  0  0  0  0  0  0  0  0  0  0  0
  189.0280  177.8680  145.3790 C   0  0  2  0  0  3  0  0  0  0  0  0
  191.3780  177.0350  145.4570 C   0  0  0  0  0  2  0  0  0  0  0  0
  187.0190  176.9600  144.4210 N   0  0  0  0  0  2  0  0  0  0  0  0
  192.0560  177.1610  147.5570 C   0  0  0  0  0  2  0  0  0  0  0  0
  187.9610  177.9130  146.4360 C   0  0  1  0  0  3  0  0  0  0  0  0
  186.7340  177.2840  145.8140 C   0  0  1  0  0  3  0  0  0  0  0  0
  190.7300  176.8110  148.2290 C   0  0  0  0  0  2  0  0  0  0  0  0
  189.6170  176.4360  147.2320 C   0  0  1  0  0  3  0  0  0  0  0  0
  1 34  1  6  0  0  0
  1 12  1  0  0  0  0
  1  7  1  0  0  0  0
  2 10  1  0  0  0  0
  2  5  1  0  0  0  0
  3  8  1  0  0  0  0
  4  2  1  0  0  0  0
  5 11  1  0  0  0  0
  6  9  1  0  0  0  0
  7 13  1  0  0  0  0
  9 14  1  0  0  0  0
 10  6  1  0  0  0  0
 11  9  1  0  0  0  0
 11  3  1  0  0  0  0
 12  4  1  0  0  0  0
 13  5  1  0  0  0  0
 14  8  1  0  0  0  0
 14 42  1  0  0  0  0
 15 16  1  0  0  0  0
 15 10  1  0  0  0  0
 16 17  2  0  0  0  0
 18 21  1  0  0  0  0
 19 21  1  0  0  0  0
 19 16  1  0  0  0  0
 20 19  1  0  0  0  0
 22 20  1  0  0  0  0
 22 18  2  0  0  0  0
 23 18  1  0  0  0  0
 23 24  1  0  0  0  0
 25 30  1  0  0  0  0
 25 33  1  0  0  0  0
 26 25  1  0  0  0  0
 27 24  1  0  0  0  0
 27 30  1  0  0  0  0
 29 26  1  0  0  0  0
 29 27  1  0  0  0  0
 30 28  2  0  0  0  0
 31 33  2  0  0  0  0
 33 32  1  0  0  0  0
 34 35  1  0  0  0  0
 36  4  1  0  0  0  0
 37 36  1  0  0  0  0
 37 38  1  0  0  0  0
 38 40  1  0  0  0  0
 39 38  1  0  0  0  0
 41 38  2  0  0  0  0
 42 44  1  0  0  0  0
 43 47  1  0  0  0  0
 44 45  1  0  0  0  0
 44 43  1  0  0  0  0
 45 43  1  0  0  0  0
 46 48  2  0  0  0  0
 47 46  1  0  0  0  0
 49 55  1  0  0  0  0
 49 53  1  0  0  0  0
 51 60  1  0  0  0  0
 52 56  1  0  0  0  0
 53 51  1  0  0  0  0
 53 57  1  0  0  0  0
 54 51  1  0  0  0  0
 54 52  1  0  0  0  0
 55 58  1  0  0  0  0
 56 59  1  0  0  0  0
 57 50  1  0  0  0  0
 58 46  1  0  0  0  0
 58 57  1  0  0  0  0
 60 50  1  0  0  0  0
 60 59  1  0  0  0  0
M  END
>  <MODEL>
8

>  <REMARK>
 VINA RESULT:      -6.1      2.177      3.221
  Name = 
  14 active torsions:
  status: ('A' for Active; 'I' for Inactive)
    1  A    between atoms: C_1  and  C_44
    2  A    between atoms: P_2  and  C_9
    3  A    between atoms: C_5  and  N_43
    4  A    between atoms: C_7  and  C_22
    5  A    between atoms: N_8  and  C_48
    6  A    between atoms: C_9  and  O_35
    7  A    between atoms: C_10  and  C_57
    8  A    between atoms: C_13  and  O_46
    9  A    between atoms: C_16  and  C_33
   10  A    between atoms: C_18  and  C_27
   11  A    between atoms: C_19  and  O_35
   12  A    between atoms: O_23  and  C_28
   13  A    between atoms: O_23  and  O_46
   14  A    between atoms: C_56  and  C_57
                            x       y       z     vdW  Elec       q    Type
                         _______ _______ _______ _____ _____    ______ ____

>  <TORSDO>
F 14

$$$$
=
 OpenBabel10222421383D

 60 68  0  0  1  0  0  0  0  0999 V2000
  187.8240  177.3970  143.3230 C   0  0  2  0  0  3  0  0  0  0  0  0
  188.8970  177.8320  140.2370 C   0  0  2  0  0  3  0  0  0  0  0  0
  185.2330  178.5320  139.1510 C   0  0  0  0  0  2  0  0  0  0  0  0
  189.5730  177.2050  141.4750 C   0  0  2  0  0  3  0  0  0  0  0  0
  187.3700  178.0070  140.3590 C   0  0  2  0  0  3  0  0  0  0  0  0
  188.1660  176.6450  138.0910 C   0  0  0  0  0  2  0  0  0  0  0  0
  186.6240  177.9760  142.5700 C   0  0  0  0  0  2  0  0  0  0  0  0
  184.7400  178.0280  137.8100 C   0  0  0  0  0  2  0  0  0  0  0  0
  187.1460  177.7540  137.8180 C   0  0  2  0  0  3  0  0  0  0  0  0
  189.3380  177.2150  138.8820 C   0  0  2  0  0  3  0  0  0  0  0  0
  186.7530  178.5650  139.0700 C   0  0  1  0  0  3  0  0  0  0  0  0
  188.6350  176.4590  142.4310 C   0  0  0  0  0  2  0  0  0  0  0  0
  187.0540  178.8570  141.4980 N   0  0  0  0  0  2  0  0  0  0  0  0
  185.8630  177.1600  137.2780 C   0  0  2  0  0  3  0  0  0  0  0  0
  190.3850  176.2070  139.0320 N   0  0  0  0  0  2  0  0  0  0  0  0
  191.4830  176.1270  138.1200 C   0  0  0  0  0  0  0  0  0  0  0  0
  191.5160  176.8690  137.0930 O   0  0  0  0  0  0  0  0  0  0  0  0
  194.0650  174.3940  136.7120 C   0  0  0  0  0  0  0  0  0  0  0  0
  192.5660  175.1270  138.3620 C   0  0  2  0  0  3  0  0  0  0  0  0
  193.8650  175.7800  138.4030 N   0  0  0  0  0  2  0  0  0  0  0  0
  192.6730  174.1550  137.1840 C   0  0  0  0  0  2  0  0  0  0  0  0
  194.6900  175.2840  137.3960 N   0  0  0  0  0  0  0  0  0  0  0  0
  194.6530  173.7390  135.6340 O   0  0  0  0  0  0  0  0  0  0  0  0
  194.6190  172.4020  135.5500 O   0  0  0  0  0  0  0  0  0  0  0  0
  196.5450  169.7990  136.5140 C   0  0  2  0  0  3  0  0  0  0  0  0
  197.5160  170.8430  136.2110 N   0  0  0  0  0  2  0  0  0  0  0  0
  195.5740  171.9610  136.4700 C   0  0  2  0  0  3  0  0  0  0  0  0
  194.2740  170.0850  137.1730 O   0  0  0  0  0  0  0  0  0  0  0  0
  196.8500  172.0020  135.8610 O   0  0  0  0  0  0  0  0  0  0  0  0
  195.3370  170.5540  136.7950 C   0  0  0  0  0  0  0  0  0  0  0  0
  198.3280  168.9430  138.0450 O   0  0  0  0  0  0  0  0  0  0  0  0
  196.1400  168.3520  138.3990 O   0  0  0  0  0  1  0  0  0  0  0  0
  196.9810  168.9910  137.7050 C   0  0  0  0  0  0  0  0  0  0  0  0
  187.3330  176.6100  144.5240 C   0  0  0  0  0  2  0  0  0  0  0  0
  186.4160  177.4620  145.3800 C   0  0  0  0  0  1  0  0  0  0  0  0
  190.3340  178.1580  142.1540 O   0  0  0  0  0  0  0  0  0  0  0  0
  191.2500  177.4150  142.9030 C   0  0  0  0  0  2  0  0  0  0  0  0
  191.4260  178.1530  144.5500 P   0  0  0  0  0  0  0  0  0  0  0  0
  191.9520  176.9790  145.6480 O   0  0  0  0  0  1  0  0  0  0  0  0
  192.4410  179.2700  144.4910 O   0  0  0  0  0  0  0  0  0  0  0  0
  189.9320  178.7680  145.0630 O   0  0  0  0  0  1  0  0  0  0  0  0
  185.8540  177.0610  135.7550 C   0  0  0  0  0  2  0  0  0  0  0  0
  184.5230  174.9310  135.1940 C   0  0  1  0  0  3  0  0  0  0  0  0
  185.8920  175.6160  135.2550 C   0  0  2  0  0  3  0  0  0  0  0  0
  185.4460  174.6940  136.3740 C   0  0  0  0  0  2  0  0  0  0  0  0
  182.1740  175.3450  136.0530 C   0  0  0  0  0  0  0  0  0  0  0  0
  183.4330  175.8250  135.5810 N   0  0  0  0  0  2  0  0  0  0  0  0
  181.9510  174.1020  136.1190 O   0  0  0  0  0  0  0  0  0  0  0  0
  180.6580  176.4690  138.8090 C   0  0  0  0  0  2  0  0  0  0  0  0
  181.4700  178.7130  136.2040 N   0  0  0  0  0  2  0  0  0  0  0  0
  180.2680  178.8680  138.3120 C   0  0  1  0  0  3  0  0  0  0  0  0
  179.9890  181.1080  139.1660 O   0  0  0  0  0  0  0  0  0  0  0  0
  181.3070  177.7840  138.4360 C   0  0  2  0  0  3  0  0  0  0  0  0
  180.3180  179.7960  139.5280 C   0  0  0  0  0  2  0  0  0  0  0  0
  180.3310  175.7580  137.5850 N   0  0  0  0  0  2  0  0  0  0  0  0
  181.1130  181.5750  138.4850 C   0  0  0  0  0  2  0  0  0  0  0  0
  181.8360  177.5750  137.0450 C   0  0  1  0  0  3  0  0  0  0  0  0
  181.1570  176.3260  136.5260 C   0  0  1  0  0  3  0  0  0  0  0  0
  181.1650  180.9880  137.0750 C   0  0  0  0  0  2  0  0  0  0  0  0
  180.5760  179.5670  136.9810 C   0  0  1  0  0  3  0  0  0  0  0  0
  1 34  1  1  0  0  0
  2  5  1  0  0  0  0
  2  4  1  0  0  0  0
  4 36  1  0  0  0  0
  4 12  1  0  0  0  0
  5 13  1  0  0  0  0
  6 10  1  0  0  0  0
  7  1  1  0  0  0  0
  8  3  1  0  0  0  0
  9  6  1  0  0  0  0
  9 11  1  0  0  0  0
 10 15  1  0  0  0  0
 10  2  1  0  0  0  0
 11  3  1  0  0  0  0
 11  5  1  0  0  0  0
 12  1  1  0  0  0  0
 13  7  1  0  0  0  0
 14  8  1  0  0  0  0
 14  9  1  0  0  0  0
 16 19  1  0  0  0  0
 16 15  1  0  0  0  0
 17 16  2  0  0  0  0
 18 21  1  0  0  0  0
 18 22  2  0  0  0  0
 19 20  1  0  0  0  0
 21 19  1  0  0  0  0
 22 20  1  0  0  0  0
 23 18  1  0  0  0  0
 24 23  1  0  0  0  0
 24 27  1  0  0  0  0
 25 30  1  0  0  0  0
 25 33  1  0  0  0  0
 26 25  1  0  0  0  0
 27 30  1  0  0  0  0
 29 26  1  0  0  0  0
 29 27  1  0  0  0  0
 30 28  2  0  0  0  0
 33 31  2  0  0  0  0
 33 32  1  0  0  0  0
 34 35  1  0  0  0  0
 36 37  1  0  0  0  0
 37 38  1  0  0  0  0
 38 41  1  0  0  0  0
 38 39  1  0  0  0  0
 40 38  2  0  0  0  0
 42 14  1  0  0  0  0
 43 44  1  0  0  0  0
 43 47  1  0  0  0  0
 43 45  1  0  0  0  0
 44 42  1  0  0  0  0
 44 45  1  0  0  0  0
 46 48  2  0  0  0  0
 46 58  1  0  0  0  0
 47 46  1  0  0  0  0
 50 60  1  0  0  0  0
 50 57  1  0  0  0  0
 51 53  1  0  0  0  0
 51 54  1  0  0  0  0
 52 54  1  0  0  0  0
 53 49  1  0  0  0  0
 55 49  1  0  0  0  0
 56 52  1  0  0  0  0
 57 53  1  0  0  0  0
 58 57  1  0  0  0  0
 58 55  1  0  0  0  0
 59 56  1  0  0  0  0
 60 59  1  0  0  0  0
 60 51  1  0  0  0  0
M  END
>  <MODEL>
9

>  <REMARK>
 VINA RESULT:      -6.0      3.394      9.182
  Name = 
  14 active torsions:
  status: ('A' for Active; 'I' for Inactive)
    1  A    between atoms: C_1  and  C_44
    2  A    between atoms: P_2  and  C_9
    3  A    between atoms: C_5  and  N_43
    4  A    between atoms: C_7  and  C_22
    5  A    between atoms: N_8  and  C_48
    6  A    between atoms: C_9  and  O_35
    7  A    between atoms: C_10  and  C_57
    8  A    between atoms: C_13  and  O_46
    9  A    between atoms: C_16  and  C_33
   10  A    between atoms: C_18  and  C_27
   11  A    between atoms: C_19  and  O_35
   12  A    between atoms: O_23  and  C_28
   13  A    between atoms: O_23  and  O_46
   14  A    between atoms: C_56  and  C_57
                            x       y       z     vdW  Elec       q    Type
                         _______ _______ _______ _____ _____    ______ ____

>  <TORSDO>
F 14

$$$$
