=
 OpenBabel10222421483D

 31 34  0  0  0  0  0  0  0  0999 V2000
  188.6810  177.4440  147.5450 C   0  0  0  0  0  0  0  0  0  0  0  0
  187.4940  177.9660  144.0010 C   0  0  0  0  0  0  0  0  0  0  0  0
  186.1140  178.3720  144.0890 C   0  0  0  0  0  0  0  0  0  0  0  0
  184.0510  178.0970  145.5440 C   0  0  0  0  0  2  0  0  0  0  0  0
  188.3220  177.6750  145.1350 C   0  0  0  0  0  0  0  0  0  0  0  0
  190.0030  177.0650  147.3290 C   0  0  0  0  0  3  0  0  0  0  0  0
  185.4640  178.6510  145.4290 C   0  0  0  0  0  2  0  0  0  0  0  0
  189.4250  177.4330  142.5390 C   0  0  0  0  0  0  0  0  0  0  0  0
  188.1730  177.5200  148.8700 N   0  0  0  0  0  1  0  0  0  0  0  0
  185.9970  178.4640  141.6520 C   0  0  0  0  0  3  0  0  0  0  0  0
  183.0310  179.1250  145.0440 C   0  0  0  0  0  2  0  0  0  0  0  0
  190.2000  177.1620  143.6620 C   0  0  0  0  0  3  0  0  0  0  0  0
  188.0810  177.8290  142.7020 C   0  0  0  0  0  0  0  0  0  0  0  0
  187.8550  177.7460  146.4610 C   0  0  0  0  0  3  0  0  0  0  0  0
  183.5180  179.8720  143.8840 N   0  0  0  0  0  2  0  0  0  0  0  0
  189.6720  177.2770  144.9390 C   0  0  0  0  0  0  0  0  0  0  0  0
  190.4970  176.9820  146.0290 C   0  0  0  0  0  3  0  0  0  0  0  0
  187.3230  178.0830  141.5590 C   0  0  0  0  0  3  0  0  0  0  0  0
  185.3830  178.6220  142.8900 C   0  0  0  0  0  0  0  0  0  0  0  0
  183.9070  178.9240  142.8460 C   0  0  0  0  0  2  0  0  0  0  0  0
  192.7050  174.9810  137.2770 C   0  0  0  0  0  0  0  0  0  0  0  0
  190.6750  176.8060  138.5690 O   0  0  0  0  0  1  0  0  0  0  0  0
  193.9400  177.4900  139.6050 O   0  0  0  0  0  0  0  0  0  0  0  0
  192.2590  177.3950  141.6880 O   0  0  0  0  0  0  0  0  0  0  0  0
  193.1350  174.4330  135.9630 C   0  0  0  0  0  1  0  0  0  0  0  0
  191.3490  177.2040  140.8350 C   0  0  0  0  0  0  0  0  0  0  0  0
  191.7580  174.4280  137.8950 O   0  0  0  0  0  0  0  0  0  0  0  0
  193.0460  176.8340  139.0080 C   0  0  0  0  0  0  0  0  0  0  0  0
  191.6830  176.8910  139.4710 N   0  0  0  0  0  0  0  0  0  0  0  0
  189.9680  177.2770  141.2140 N   0  0  0  0  0  2  0  0  0  0  0  0
  193.4140  176.0910  137.8380 N   0  0  0  0  0  2  0  0  0  0  0  0
  1  9  1  0  0  0  0
  2  3  1  0  0  0  0
  2  5  1  0  0  0  0
  3  7  1  0  0  0  0
  5 14  1  0  0  0  0
  6  1  1  0  0  0  0
  7  4  1  0  0  0  0
  8 13  1  0  0  0  0
  8 12  2  0  0  0  0
 10 19  1  0  0  0  0
 11  4  1  0  0  0  0
 12 16  1  0  0  0  0
 13  2  2  0  0  0  0
 14  1  2  0  0  0  0
 15 11  1  0  0  0  0
 16  5  2  0  0  0  0
 16 17  1  0  0  0  0
 17  6  2  0  0  0  0
 18 10  2  0  0  0  0
 18 13  1  0  0  0  0
 19  3  2  0  0  0  0
 20 19  1  0  0  0  0
 20 15  1  0  0  0  0
 21 31  1  0  0  0  0
 21 27  2  0  0  0  0
 22 29  1  0  0  0  0
 25 21  1  0  0  0  0
 26 30  1  0  0  0  0
 26 24  2  0  0  0  0
 28 29  1  0  0  0  0
 28 23  2  0  0  0  0
 29 26  1  0  0  0  0
 30  8  1  0  0  0  0
 31 28  1  0  0  0  0
M  END
>  <MODEL>
1

>  <REMARK>
 VINA RESULT:     -11.5      0.000      0.000
  Name = 
  1 active torsions:
  status: ('A' for Active; 'I' for Inactive)
    1  A    between atoms: C_15  and  N_23
                            x       y       z     vdW  Elec       q    Type
                         _______ _______ _______ _____ _____    ______ ____

>  <TORSDO>
F 1

$$$$
=
 OpenBabel10222421483D

 31 34  0  0  0  0  0  0  0  0999 V2000
  186.5270  177.9550  147.1050 C   0  0  0  0  0  0  0  0  0  0  0  0
  187.4330  177.9010  143.4430 C   0  0  0  0  0  0  0  0  0  0  0  0
  188.7390  177.2950  143.3550 C   0  0  0  0  0  0  0  0  0  0  0  0
  190.8930  177.0190  144.6700 C   0  0  0  0  0  2  0  0  0  0  0  0
  186.7200  178.1010  144.6700 C   0  0  0  0  0  0  0  0  0  0  0  0
  185.2690  178.5480  147.0580 C   0  0  0  0  0  3  0  0  0  0  0  0
  189.4080  176.6980  144.5750 C   0  0  0  0  0  2  0  0  0  0  0  0
  185.5320  178.9480  142.2430 C   0  0  0  0  0  0  0  0  0  0  0  0
  187.0870  177.5770  148.3560 N   0  0  0  0  0  1  0  0  0  0  0  0
  188.7120  177.6170  140.9340 C   0  0  0  0  0  3  0  0  0  0  0  0
  191.7180  175.9610  143.9290 C   0  0  0  0  0  2  0  0  0  0  0  0
  184.8670  179.1230  143.4530 C   0  0  0  0  0  3  0  0  0  0  0  0
  186.8070  178.3450  142.2340 C   0  0  0  0  0  0  0  0  0  0  0  0
  187.2400  177.7350  145.9260 C   0  0  0  0  0  3  0  0  0  0  0  0
  191.0630  175.5060  142.7020 N   0  0  0  0  0  2  0  0  0  0  0  0
  185.4380  178.7130  144.6480 C   0  0  0  0  0  0  0  0  0  0  0  0
  184.7250  178.9250  145.8330 C   0  0  0  0  0  3  0  0  0  0  0  0
  187.4560  178.1900  141.0090 C   0  0  0  0  0  3  0  0  0  0  0  0
  189.3590  177.1600  142.0780 C   0  0  0  0  0  0  0  0  0  0  0  0
  190.7680  176.6660  141.8700 C   0  0  0  0  0  2  0  0  0  0  0  0
  181.1370  181.1380  137.7330 C   0  0  0  0  0  0  0  0  0  0  0  0
  183.9430  180.6510  138.7380 O   0  0  0  0  0  1  0  0  0  0  0  0
  182.1700  177.6850  138.2300 O   0  0  0  0  0  0  0  0  0  0  0  0
  183.4350  177.6690  140.5910 O   0  0  0  0  0  0  0  0  0  0  0  0
  180.3620  181.8890  136.7090 C   0  0  0  0  0  1  0  0  0  0  0  0
  183.8920  178.7980  140.2570 C   0  0  0  0  0  0  0  0  0  0  0  0
  181.4640  181.7140  138.8040 O   0  0  0  0  0  0  0  0  0  0  0  0
  182.3080  178.9350  138.3010 C   0  0  0  0  0  0  0  0  0  0  0  0
  183.3450  179.4980  139.1250 N   0  0  0  0  0  0  0  0  0  0  0  0
  184.9500  179.4080  141.0090 N   0  0  0  0  0  2  0  0  0  0  0  0
  181.4480  179.7600  137.5030 N   0  0  0  0  0  2  0  0  0  0  0  0
  1  9  1  0  0  0  0
  2  5  1  0  0  0  0
  3  2  1  0  0  0  0
  3  7  1  0  0  0  0
  5 14  1  0  0  0  0
  6  1  1  0  0  0  0
  7  4  1  0  0  0  0
  8 12  2  0  0  0  0
 10 18  2  0  0  0  0
 10 19  1  0  0  0  0
 11  4  1  0  0  0  0
 12 16  1  0  0  0  0
 13  8  1  0  0  0  0
 13  2  2  0  0  0  0
 14  1  2  0  0  0  0
 15 11  1  0  0  0  0
 16  5  2  0  0  0  0
 16 17  1  0  0  0  0
 17  6  2  0  0  0  0
 18 13  1  0  0  0  0
 19  3  2  0  0  0  0
 20 19  1  0  0  0  0
 20 15  1  0  0  0  0
 21 27  2  0  0  0  0
 22 29  1  0  0  0  0
 23 28  2  0  0  0  0
 25 21  1  0  0  0  0
 26 24  2  0  0  0  0
 26 30  1  0  0  0  0
 28 29  1  0  0  0  0
 29 26  1  0  0  0  0
 30  8  1  0  0  0  0
 31 21  1  0  0  0  0
 31 28  1  0  0  0  0
M  END
>  <MODEL>
2

>  <REMARK>
 VINA RESULT:     -11.4      4.156      7.490
  Name = 
  1 active torsions:
  status: ('A' for Active; 'I' for Inactive)
    1  A    between atoms: C_15  and  N_23
                            x       y       z     vdW  Elec       q    Type
                         _______ _______ _______ _____ _____    ______ ____

>  <TORSDO>
F 1

$$$$
=
 OpenBabel10222421483D

 31 34  0  0  0  0  0  0  0  0999 V2000
  185.8120  178.8040  146.4610 C   0  0  0  0  0  0  0  0  0  0  0  0
  188.5100  177.3000  144.2930 C   0  0  0  0  0  0  0  0  0  0  0  0
  189.5990  176.9610  145.1750 C   0  0  0  0  0  0  0  0  0  0  0  0
  190.6930  177.6830  147.3500 C   0  0  0  0  0  2  0  0  0  0  0  0
  187.2780  177.8910  144.7270 C   0  0  0  0  0  0  0  0  0  0  0  0
  184.8330  179.0810  145.5100 C   0  0  0  0  0  3  0  0  0  0  0  0
  189.4610  177.0940  146.6770 C   0  0  0  0  0  2  0  0  0  0  0  0
  187.6420  177.3510  141.9710 C   0  0  0  0  0  0  0  0  0  0  0  0
  185.5860  179.1250  147.8270 N   0  0  0  0  0  1  0  0  0  0  0  0
  190.8890  176.1700  143.2580 C   0  0  0  0  0  3  0  0  0  0  0  0
  191.6800  176.5730  147.7250 C   0  0  0  0  0  2  0  0  0  0  0  0
  186.4570  177.9210  142.4270 C   0  0  0  0  0  3  0  0  0  0  0  0
  188.6640  177.0440  142.8930 C   0  0  0  0  0  0  0  0  0  0  0  0
  187.0160  178.2170  146.0710 C   0  0  0  0  0  3  0  0  0  0  0  0
  191.7330  175.5140  146.7180 N   0  0  0  0  0  2  0  0  0  0  0  0
  186.2670  178.1910  143.7740 C   0  0  0  0  0  0  0  0  0  0  0  0
  185.0590  178.7740  144.1720 C   0  0  0  0  0  3  0  0  0  0  0  0
  189.8460  176.4830  142.4080 C   0  0  0  0  0  3  0  0  0  0  0  0
  190.7860  176.3880  144.6280 C   0  0  0  0  0  0  0  0  0  0  0  0
  192.0360  176.1130  145.4240 C   0  0  0  0  0  2  0  0  0  0  0  0
  190.5730  176.5880  136.0310 C   0  0  0  0  0  0  0  0  0  0  0  0
  188.2690  176.2560  137.9560 O   0  0  0  0  0  1  0  0  0  0  0  0
  188.9620  179.6080  137.2630 O   0  0  0  0  0  0  0  0  0  0  0  0
  188.6420  179.2050  139.8920 O   0  0  0  0  0  0  0  0  0  0  0  0
  191.1000  176.1090  134.7250 C   0  0  0  0  0  1  0  0  0  0  0  0
  188.3900  178.0050  139.5900 C   0  0  0  0  0  0  0  0  0  0  0  0
  190.7950  175.9120  137.0700 O   0  0  0  0  0  0  0  0  0  0  0  0
  189.1710  178.3670  137.2210 C   0  0  0  0  0  0  0  0  0  0  0  0
  188.6610  177.5160  138.2640 N   0  0  0  0  0  0  0  0  0  0  0  0
  187.8490  177.1060  140.5670 N   0  0  0  0  0  2  0  0  0  0  0  0
  189.8720  177.8340  136.0880 N   0  0  0  0  0  2  0  0  0  0  0  0
  1  9  1  0  0  0  0
  2  5  1  0  0  0  0
  2  3  1  0  0  0  0
  3  7  1  0  0  0  0
  4 11  1  0  0  0  0
  5 14  2  0  0  0  0
  6  1  2  0  0  0  0
  7  4  1  0  0  0  0
  8 12  2  0  0  0  0
  8 13  1  0  0  0  0
 10 19  1  0  0  0  0
 12 16  1  0  0  0  0
 13  2  2  0  0  0  0
 14  1  1  0  0  0  0
 15 11  1  0  0  0  0
 16 17  2  0  0  0  0
 16  5  1  0  0  0  0
 17  6  1  0  0  0  0
 18 13  1  0  0  0  0
 18 10  2  0  0  0  0
 19  3  2  0  0  0  0
 19 20  1  0  0  0  0
 20 15  1  0  0  0  0
 21 31  1  0  0  0  0
 21 27  2  0  0  0  0
 22 29  1  0  0  0  0
 25 21  1  0  0  0  0
 26 24  2  0  0  0  0
 26 30  1  0  0  0  0
 28 23  2  0  0  0  0
 28 29  1  0  0  0  0
 29 26  1  0  0  0  0
 30  8  1  0  0  0  0
 31 28  1  0  0  0  0
M  END
>  <MODEL>
3

>  <REMARK>
 VINA RESULT:     -10.1      2.345      4.763
  Name = 
  1 active torsions:
  status: ('A' for Active; 'I' for Inactive)
    1  A    between atoms: C_15  and  N_23
                            x       y       z     vdW  Elec       q    Type
                         _______ _______ _______ _____ _____    ______ ____

>  <TORSDO>
F 1

$$$$
=
 OpenBabel10222421483D

 31 34  0  0  0  0  0  0  0  0999 V2000
  185.7230  178.7570  142.1820 C   0  0  0  0  0  0  0  0  0  0  0  0
  189.1800  177.4520  142.9430 C   0  0  0  0  0  0  0  0  0  0  0  0
  189.2690  177.3450  144.3780 C   0  0  0  0  0  0  0  0  0  0  0  0
  188.3740  178.3990  146.5080 C   0  0  0  0  0  2  0  0  0  0  0  0
  188.0160  177.9050  142.2390 C   0  0  0  0  0  0  0  0  0  0  0  0
  185.7600  178.8120  140.7910 C   0  0  0  0  0  3  0  0  0  0  0  0
  188.0600  177.5900  145.2560 C   0  0  0  0  0  2  0  0  0  0  0  0
  190.3150  177.1800  140.7540 C   0  0  0  0  0  0  0  0  0  0  0  0
  184.5500  179.1630  142.8760 N   0  0  0  0  0  1  0  0  0  0  0  0
  191.5760  176.5720  144.1660 C   0  0  0  0  0  3  0  0  0  0  0  0
  188.7890  177.4720  147.6540 C   0  0  0  0  0  2  0  0  0  0  0  0
  189.1660  177.6200  140.1050 C   0  0  0  0  0  3  0  0  0  0  0  0
  190.3280  177.0980  142.1620 C   0  0  0  0  0  0  0  0  0  0  0  0
  186.8360  178.3090  142.8930 C   0  0  0  0  0  3  0  0  0  0  0  0
  189.6000  176.3450  147.1920 N   0  0  0  0  0  2  0  0  0  0  0  0
  188.0340  177.9780  140.8210 C   0  0  0  0  0  0  0  0  0  0  0  0
  186.9120  178.4230  140.1130 C   0  0  0  0  0  3  0  0  0  0  0  0
  191.4960  176.6640  142.7890 C   0  0  0  0  0  3  0  0  0  0  0  0
  190.4860  176.8950  144.9690 C   0  0  0  0  0  0  0  0  0  0  0  0
  190.7450  176.8640  146.4540 C   0  0  0  0  0  2  0  0  0  0  0  0
  194.6800  176.4750  135.7640 C   0  0  0  0  0  0  0  0  0  0  0  0
  193.9250  176.5390  138.6880 O   0  0  0  0  0  1  0  0  0  0  0  0
  192.3470  173.9500  136.9550 O   0  0  0  0  0  0  0  0  0  0  0  0
  190.6140  175.2780  138.5060 O   0  0  0  0  0  0  0  0  0  0  0  0
  195.8490  176.5060  134.8450 C   0  0  0  0  0  1  0  0  0  0  0  0
  191.6070  175.9600  138.8840 C   0  0  0  0  0  0  0  0  0  0  0  0
  194.2140  177.5570  136.2060 O   0  0  0  0  0  0  0  0  0  0  0  0
  193.0530  174.9870  137.0620 C   0  0  0  0  0  0  0  0  0  0  0  0
  192.8590  175.8760  138.1780 N   0  0  0  0  0  0  0  0  0  0  0  0
  191.5000  176.8430  140.0080 N   0  0  0  0  0  2  0  0  0  0  0  0
  194.0770  175.2170  136.0840 N   0  0  0  0  0  2  0  0  0  0  0  0
  1  9  1  0  0  0  0
  1 14  1  0  0  0  0
  2  3  1  0  0  0  0
  3 19  2  0  0  0  0
  3  7  1  0  0  0  0
  4 11  1  0  0  0  0
  5 14  2  0  0  0  0
  5  2  1  0  0  0  0
  6  1  2  0  0  0  0
  7  4  1  0  0  0  0
  8 13  1  0  0  0  0
 10 19  1  0  0  0  0
 12  8  2  0  0  0  0
 12 16  1  0  0  0  0
 13 18  1  0  0  0  0
 13  2  2  0  0  0  0
 15 11  1  0  0  0  0
 16  5  1  0  0  0  0
 17  6  1  0  0  0  0
 17 16  2  0  0  0  0
 18 10  2  0  0  0  0
 19 20  1  0  0  0  0
 20 15  1  0  0  0  0
 21 31  1  0  0  0  0
 21 27  2  0  0  0  0
 23 28  2  0  0  0  0
 24 26  2  0  0  0  0
 25 21  1  0  0  0  0
 26 30  1  0  0  0  0
 28 29  1  0  0  0  0
 29 22  1  0  0  0  0
 29 26  1  0  0  0  0
 30  8  1  0  0  0  0
 31 28  1  0  0  0  0
M  END
>  <MODEL>
4

>  <REMARK>
 VINA RESULT:     -10.1      1.700      4.724
  Name = 
  1 active torsions:
  status: ('A' for Active; 'I' for Inactive)
    1  A    between atoms: C_15  and  N_23
                            x       y       z     vdW  Elec       q    Type
                         _______ _______ _______ _____ _____    ______ ____

>  <TORSDO>
F 1

$$$$
=
 OpenBabel10222421483D

 31 34  0  0  0  0  0  0  0  0999 V2000
  191.2640  176.9090  144.7650 C   0  0  0  0  0  0  0  0  0  0  0  0
  187.8940  178.0010  143.4660 C   0  0  0  0  0  0  0  0  0  0  0  0
  187.0490  178.1760  144.6210 C   0  0  0  0  0  0  0  0  0  0  0  0
  186.7010  177.3000  146.9790 C   0  0  0  0  0  2  0  0  0  0  0  0
  189.2680  177.5970  143.5280 C   0  0  0  0  0  0  0  0  0  0  0  0
  191.9770  176.7800  143.5760 C   0  0  0  0  0  3  0  0  0  0  0  0
  187.6080  178.0640  146.0240 C   0  0  0  0  0  2  0  0  0  0  0  0
  188.0960  178.0800  140.9960 C   0  0  0  0  0  0  0  0  0  0  0  0
  191.8960  176.6250  146.0060 N   0  0  0  0  0  1  0  0  0  0  0  0
  185.1880  178.7700  143.1550 C   0  0  0  0  0  3  0  0  0  0  0  0
  185.7070  178.2530  147.6510 C   0  0  0  0  0  2  0  0  0  0  0  0
  189.4280  177.6890  141.0930 C   0  0  0  0  0  3  0  0  0  0  0  0
  187.3300  178.2330  142.1700 C   0  0  0  0  0  0  0  0  0  0  0  0
  189.9290  177.3130  144.7380 C   0  0  0  0  0  3  0  0  0  0  0  0
  185.2330  179.2930  146.7380 N   0  0  0  0  0  2  0  0  0  0  0  0
  190.0140  177.4500  142.3270 C   0  0  0  0  0  0  0  0  0  0  0  0
  191.3540  177.0510  142.3610 C   0  0  0  0  0  3  0  0  0  0  0  0
  185.9940  178.6140  142.0440 C   0  0  0  0  0  3  0  0  0  0  0  0
  185.6900  178.5680  144.4370 C   0  0  0  0  0  0  0  0  0  0  0  0
  184.6770  178.6560  145.5500 C   0  0  0  0  0  2  0  0  0  0  0  0
  184.4660  177.1820  135.4750 C   0  0  0  0  0  0  0  0  0  0  0  0
  186.0170  178.8880  137.4260 O   0  0  0  0  0  1  0  0  0  0  0  0
  188.0210  176.5030  135.8470 O   0  0  0  0  0  0  0  0  0  0  0  0
  188.4670  176.5520  138.4880 O   0  0  0  0  0  0  0  0  0  0  0  0
  183.5010  177.2590  134.3460 C   0  0  0  0  0  1  0  0  0  0  0  0
  187.6350  177.5010  138.5240 C   0  0  0  0  0  0  0  0  0  0  0  0
  184.0350  177.2250  136.6570 O   0  0  0  0  0  0  0  0  0  0  0  0
  186.9330  177.0650  136.1420 C   0  0  0  0  0  0  0  0  0  0  0  0
  186.8130  177.7920  137.3790 N   0  0  0  0  0  0  0  0  0  0  0  0
  187.4820  178.2920  139.7100 N   0  0  0  0  0  2  0  0  0  0  0  0
  185.8580  177.0060  135.1940 N   0  0  0  0  0  2  0  0  0  0  0  0
  1  9  1  0  0  0  0
  2  5  1  0  0  0  0
  2  3  1  0  0  0  0
  3  7  1  0  0  0  0
  4 11  1  0  0  0  0
  5 14  2  0  0  0  0
  6  1  2  0  0  0  0
  7  4  1  0  0  0  0
  8 12  2  0  0  0  0
  8 13  1  0  0  0  0
 10 19  1  0  0  0  0
 12 16  1  0  0  0  0
 13  2  2  0  0  0  0
 14  1  1  0  0  0  0
 15 11  1  0  0  0  0
 16 17  2  0  0  0  0
 16  5  1  0  0  0  0
 17  6  1  0  0  0  0
 18 13  1  0  0  0  0
 18 10  2  0  0  0  0
 19  3  2  0  0  0  0
 19 20  1  0  0  0  0
 20 15  1  0  0  0  0
 21 27  2  0  0  0  0
 23 28  2  0  0  0  0
 24 26  2  0  0  0  0
 25 21  1  0  0  0  0
 26 30  1  0  0  0  0
 28 29  1  0  0  0  0
 29 22  1  0  0  0  0
 29 26  1  0  0  0  0
 30  8  1  0  0  0  0
 31 21  1  0  0  0  0
 31 28  1  0  0  0  0
M  END
>  <MODEL>
5

>  <REMARK>
 VINA RESULT:      -9.9      3.508      4.679
  Name = 
  1 active torsions:
  status: ('A' for Active; 'I' for Inactive)
    1  A    between atoms: C_15  and  N_23
                            x       y       z     vdW  Elec       q    Type
                         _______ _______ _______ _____ _____    ______ ____

>  <TORSDO>
F 1

$$$$
=
 OpenBabel10222421483D

 31 34  0  0  0  0  0  0  0  0999 V2000
  185.5000  178.2610  146.1970 C   0  0  0  0  0  0  0  0  0  0  0  0
  184.6350  178.7100  142.5520 C   0  0  0  0  0  0  0  0  0  0  0  0
  183.2150  178.9530  142.4970 C   0  0  0  0  0  0  0  0  0  0  0  0
  181.0580  178.4130  143.7240 C   0  0  0  0  0  2  0  0  0  0  0  0
  185.3690  178.4950  143.7650 C   0  0  0  0  0  0  0  0  0  0  0  0
  186.8730  178.0410  146.1180 C   0  0  0  0  0  3  0  0  0  0  0  0
  182.4020  179.1290  143.7620 C   0  0  0  0  0  2  0  0  0  0  0  0
  186.7550  178.4310  141.2970 C   0  0  0  0  0  0  0  0  0  0  0  0
  184.8520  178.2530  147.4620 N   0  0  0  0  0  1  0  0  0  0  0  0
  183.3420  179.0760  140.0610 C   0  0  0  0  0  3  0  0  0  0  0  0
  179.9830  179.3260  143.1270 C   0  0  0  0  0  2  0  0  0  0  0  0
  187.4360  178.2310  142.4940 C   0  0  0  0  0  3  0  0  0  0  0  0
  185.3650  178.6660  141.3210 C   0  0  0  0  0  0  0  0  0  0  0  0
  184.7620  178.4860  145.0350 C   0  0  0  0  0  3  0  0  0  0  0  0
  180.4970  180.1460  142.0300 N   0  0  0  0  0  2  0  0  0  0  0  0
  186.7690  178.2600  143.7090 C   0  0  0  0  0  0  0  0  0  0  0  0
  187.5050  178.0410  144.8780 C   0  0  0  0  0  3  0  0  0  0  0  0
  184.7050  178.8530  140.1060 C   0  0  0  0  0  3  0  0  0  0  0  0
  182.5880  179.1380  141.2290 C   0  0  0  0  0  0  0  0  0  0  0  0
  181.0990  179.2690  141.0330 C   0  0  0  0  0  2  0  0  0  0  0  0
  189.5980  176.0890  135.7390 C   0  0  0  0  0  0  0  0  0  0  0  0
  188.4320  178.2970  137.4390 O   0  0  0  0  0  1  0  0  0  0  0  0
  191.3000  176.8920  138.8530 O   0  0  0  0  0  0  0  0  0  0  0  0
  189.3480  177.1490  140.6680 O   0  0  0  0  0  0  0  0  0  0  0  0
  190.0070  175.7600  134.3470 C   0  0  0  0  0  1  0  0  0  0  0  0
  188.6760  177.6860  139.7440 C   0  0  0  0  0  0  0  0  0  0  0  0
  188.3890  175.9710  136.0710 O   0  0  0  0  0  0  0  0  0  0  0  0
  190.3660  176.9760  138.0130 C   0  0  0  0  0  0  0  0  0  0  0  0
  189.1260  177.6100  138.3790 N   0  0  0  0  0  0  0  0  0  0  0  0
  187.4470  178.3650  140.0350 N   0  0  0  0  0  2  0  0  0  0  0  0
  190.5970  176.4810  136.6870 N   0  0  0  0  0  2  0  0  0  0  0  0
  1  9  1  0  0  0  0
  2  5  1  0  0  0  0
  3  2  1  0  0  0  0
  3  7  1  0  0  0  0
  4  7  1  0  0  0  0
  5 14  1  0  0  0  0
  6  1  1  0  0  0  0
  8 13  1  0  0  0  0
  8 12  2  0  0  0  0
 10 18  2  0  0  0  0
 10 19  1  0  0  0  0
 11  4  1  0  0  0  0
 12 16  1  0  0  0  0
 13  2  2  0  0  0  0
 14  1  2  0  0  0  0
 15 11  1  0  0  0  0
 16  5  2  0  0  0  0
 16 17  1  0  0  0  0
 17  6  2  0  0  0  0
 18 13  1  0  0  0  0
 19  3  2  0  0  0  0
 20 19  1  0  0  0  0
 20 15  1  0  0  0  0
 21 27  2  0  0  0  0
 21 31  1  0  0  0  0
 22 29  1  0  0  0  0
 25 21  1  0  0  0  0
 26 30  1  0  0  0  0
 26 24  2  0  0  0  0
 28 29  1  0  0  0  0
 28 23  2  0  0  0  0
 29 26  1  0  0  0  0
 30  8  1  0  0  0  0
 31 28  1  0  0  0  0
M  END
>  <MODEL>
6

>  <REMARK>
 VINA RESULT:      -9.8      2.393      3.321
  Name = 
  1 active torsions:
  status: ('A' for Active; 'I' for Inactive)
    1  A    between atoms: C_15  and  N_23
                            x       y       z     vdW  Elec       q    Type
                         _______ _______ _______ _____ _____    ______ ____

>  <TORSDO>
F 1

$$$$
=
 OpenBabel10222421483D

 31 34  0  0  0  0  0  0  0  0999 V2000
  186.0170  178.2140  145.0540 C   0  0  0  0  0  0  0  0  0  0  0  0
  186.2690  178.2620  141.2900 C   0  0  0  0  0  0  0  0  0  0  0  0
  184.9600  178.6120  140.7980 C   0  0  0  0  0  0  0  0  0  0  0  0
  182.4980  178.4140  141.3880 C   0  0  0  0  0  2  0  0  0  0  0  0
  186.6020  178.1450  142.6790 C   0  0  0  0  0  0  0  0  0  0  0  0
  187.3210  177.8730  145.4030 C   0  0  0  0  0  3  0  0  0  0  0  0
  183.8500  179.0150  141.7460 C   0  0  0  0  0  2  0  0  0  0  0  0
  188.6100  177.6520  140.7440 C   0  0  0  0  0  0  0  0  0  0  0  0
  185.0430  178.4210  146.0690 N   0  0  0  0  0  1  0  0  0  0  0  0
  185.7790  178.4120  138.5070 C   0  0  0  0  0  3  0  0  0  0  0  0
  181.7470  179.3280  140.4150 C   0  0  0  0  0  2  0  0  0  0  0  0
  188.8990  177.5510  142.1020 C   0  0  0  0  0  3  0  0  0  0  0  0
  187.3060  178.0020  140.3370 C   0  0  0  0  0  0  0  0  0  0  0  0
  185.6660  178.3480  143.7110 C   0  0  0  0  0  3  0  0  0  0  0  0
  182.6400  179.9560  139.4410 N   0  0  0  0  0  2  0  0  0  0  0  0
  187.9250  177.7900  143.0590 C   0  0  0  0  0  0  0  0  0  0  0  0
  188.2720  177.6630  144.4080 C   0  0  0  0  0  3  0  0  0  0  0  0
  187.0400  178.0850  138.9700 C   0  0  0  0  0  3  0  0  0  0  0  0
  184.7400  178.6850  139.3910 C   0  0  0  0  0  0  0  0  0  0  0  0
  183.3920  178.9120  138.7550 C   0  0  0  0  0  2  0  0  0  0  0  0
  193.5670  174.6950  137.4070 C   0  0  0  0  0  0  0  0  0  0  0  0
  191.2710  176.6420  137.6440 O   0  0  0  0  0  1  0  0  0  0  0  0
  193.9060  177.4130  139.8010 O   0  0  0  0  0  0  0  0  0  0  0  0
  191.5490  177.5240  141.0680 O   0  0  0  0  0  0  0  0  0  0  0  0
  194.4490  174.0220  136.4160 C   0  0  0  0  0  1  0  0  0  0  0  0
  191.0320  177.2540  139.9480 C   0  0  0  0  0  0  0  0  0  0  0  0
  192.4330  174.2070  137.6540 O   0  0  0  0  0  0  0  0  0  0  0  0
  193.2860  176.7060  138.9640 C   0  0  0  0  0  0  0  0  0  0  0  0
  191.8550  176.8110  138.8550 N   0  0  0  0  0  0  0  0  0  0  0  0
  189.6160  177.3680  139.7530 N   0  0  0  0  0  2  0  0  0  0  0  0
  194.0480  175.8520  138.0990 N   0  0  0  0  0  2  0  0  0  0  0  0
  1  6  1  0  0  0  0
  1  9  1  0  0  0  0
  2  5  1  0  0  0  0
  3  2  1  0  0  0  0
  3  7  1  0  0  0  0
  4  7  1  0  0  0  0
  5 16  2  0  0  0  0
  5 14  1  0  0  0  0
  8 12  2  0  0  0  0
 10 18  2  0  0  0  0
 10 19  1  0  0  0  0
 11  4  1  0  0  0  0
 12 16  1  0  0  0  0
 13  8  1  0  0  0  0
 13  2  2  0  0  0  0
 14  1  2  0  0  0  0
 15 11  1  0  0  0  0
 16 17  1  0  0  0  0
 17  6  2  0  0  0  0
 18 13  1  0  0  0  0
 19  3  2  0  0  0  0
 20 19  1  0  0  0  0
 20 15  1  0  0  0  0
 21 27  2  0  0  0  0
 21 31  1  0  0  0  0
 22 29  1  0  0  0  0
 25 21  1  0  0  0  0
 26 24  2  0  0  0  0
 28 23  2  0  0  0  0
 29 28  1  0  0  0  0
 29 26  1  0  0  0  0
 30 26  1  0  0  0  0
 30  8  1  0  0  0  0
 31 28  1  0  0  0  0
M  END
>  <MODEL>
7

>  <REMARK>
 VINA RESULT:      -9.6      1.846      2.853
  Name = 
  1 active torsions:
  status: ('A' for Active; 'I' for Inactive)
    1  A    between atoms: C_15  and  N_23
                            x       y       z     vdW  Elec       q    Type
                         _______ _______ _______ _____ _____    ______ ____

>  <TORSDO>
F 1

$$$$
=
 OpenBabel10222421483D

 31 34  0  0  0  0  0  0  0  0999 V2000
  183.8620  178.7880  138.8190 C   0  0  0  0  0  0  0  0  0  0  0  0
  187.5050  178.0370  139.4520 C   0  0  0  0  0  0  0  0  0  0  0  0
  188.0690  177.6530  138.1820 C   0  0  0  0  0  0  0  0  0  0  0  0
  187.4410  176.5500  135.9820 C   0  0  0  0  0  2  0  0  0  0  0  0
  186.1350  178.4130  139.6440 C   0  0  0  0  0  0  0  0  0  0  0  0
  183.4390  179.1440  140.0970 C   0  0  0  0  0  3  0  0  0  0  0  0
  187.2580  177.7470  136.9060 C   0  0  0  0  0  2  0  0  0  0  0  0
  187.8750  178.3960  141.8780 C   0  0  0  0  0  0  0  0  0  0  0  0
  182.9360  178.7870  137.7400 N   0  0  0  0  0  1  0  0  0  0  0  0
  190.2270  177.2870  139.2630 C   0  0  0  0  0  3  0  0  0  0  0  0
  188.6200  176.7830  135.0320 C   0  0  0  0  0  2  0  0  0  0  0  0
  186.5400  178.7590  142.0270 C   0  0  0  0  0  3  0  0  0  0  0  0
  188.3580  178.0340  140.6030 C   0  0  0  0  0  0  0  0  0  0  0  0
  185.1920  178.4300  138.5990 C   0  0  0  0  0  3  0  0  0  0  0  0
  189.7280  177.4830  135.6820 N   0  0  0  0  0  2  0  0  0  0  0  0
  185.6780  178.7720  140.9410 C   0  0  0  0  0  0  0  0  0  0  0  0
  184.3450  179.1370  141.1540 C   0  0  0  0  0  3  0  0  0  0  0  0
  189.6970  177.6630  140.4830 C   0  0  0  0  0  3  0  0  0  0  0  0
  189.4450  177.2830  138.1130 C   0  0  0  0  0  0  0  0  0  0  0  0
  190.1140  176.7410  136.8760 C   0  0  0  0  0  2  0  0  0  0  0  0
  191.6450  176.1370  146.8920 C   0  0  0  0  0  0  0  0  0  0  0  0
  190.7510  178.2680  144.9480 O   0  0  0  0  0  1  0  0  0  0  0  0
  188.2090  177.3050  147.1410 O   0  0  0  0  0  0  0  0  0  0  0  0
  187.3250  177.4130  144.6140 O   0  0  0  0  0  0  0  0  0  0  0  0
  192.7320  175.7880  147.8460 C   0  0  0  0  0  1  0  0  0  0  0  0
  188.4840  177.8140  144.3160 C   0  0  0  0  0  0  0  0  0  0  0  0
  191.7980  175.8880  145.6670 O   0  0  0  0  0  0  0  0  0  0  0  0
  189.3490  177.2290  146.6110 C   0  0  0  0  0  0  0  0  0  0  0  0
  189.5540  177.7230  145.2740 N   0  0  0  0  0  0  0  0  0  0  0  0
  188.7580  178.3500  143.0150 N   0  0  0  0  0  2  0  0  0  0  0  0
  190.4280  176.6980  147.3930 N   0  0  0  0  0  2  0  0  0  0  0  0
  1  6  1  0  0  0  0
  2  5  2  0  0  0  0
  2 13  1  0  0  0  0
  3  2  1  0  0  0  0
  4  7  1  0  0  0  0
  5 16  1  0  0  0  0
  6 17  2  0  0  0  0
  7  3  1  0  0  0  0
  8 12  1  0  0  0  0
  8 30  1  0  0  0  0
  9  1  1  0  0  0  0
 10 18  2  0  0  0  0
 11 15  1  0  0  0  0
 11  4  1  0  0  0  0
 13  8  2  0  0  0  0
 14  1  2  0  0  0  0
 14  5  1  0  0  0  0
 15 20  1  0  0  0  0
 16 17  1  0  0  0  0
 16 12  2  0  0  0  0
 18 13  1  0  0  0  0
 19  3  2  0  0  0  0
 19 10  1  0  0  0  0
 20 19  1  0  0  0  0
 21 31  1  0  0  0  0
 21 25  1  0  0  0  0
 22 29  1  0  0  0  0
 26 24  2  0  0  0  0
 26 29  1  0  0  0  0
 27 21  2  0  0  0  0
 28 23  2  0  0  0  0
 28 31  1  0  0  0  0
 29 28  1  0  0  0  0
 30 26  1  0  0  0  0
M  END
>  <MODEL>
8

>  <REMARK>
 VINA RESULT:      -9.5      3.481      7.895
  Name = 
  1 active torsions:
  status: ('A' for Active; 'I' for Inactive)
    1  A    between atoms: C_15  and  N_23
                            x       y       z     vdW  Elec       q    Type
                         _______ _______ _______ _____ _____    ______ ____

>  <TORSDO>
F 1

$$$$
=
 OpenBabel10222421483D

 31 34  0  0  0  0  0  0  0  0999 V2000
  182.1740  178.6840  140.7260 C   0  0  0  0  0  0  0  0  0  0  0  0
  185.9350  178.3930  140.6300 C   0  0  0  0  0  0  0  0  0  0  0  0
  186.2990  178.2690  139.2400 C   0  0  0  0  0  0  0  0  0  0  0  0
  185.4170  177.3910  137.0270 C   0  0  0  0  0  2  0  0  0  0  0  0
  184.5880  178.5370  141.0990 C   0  0  0  0  0  0  0  0  0  0  0  0
  181.9520  178.8010  142.0950 C   0  0  0  0  0  3  0  0  0  0  0  0
  185.2640  178.4130  138.1450 C   0  0  0  0  0  2  0  0  0  0  0  0
  186.6970  178.4750  142.9880 C   0  0  0  0  0  0  0  0  0  0  0  0
  181.0740  178.6930  139.8260 N   0  0  0  0  0  1  0  0  0  0  0  0
  188.6470  178.0790  139.8840 C   0  0  0  0  0  3  0  0  0  0  0  0
  186.3660  177.9180  135.9460 C   0  0  0  0  0  2  0  0  0  0  0  0
  185.3780  178.6170  143.4080 C   0  0  0  0  0  3  0  0  0  0  0  0
  186.9780  178.3600  141.6110 C   0  0  0  0  0  0  0  0  0  0  0  0
  183.4750  178.5560  140.2380 C   0  0  0  0  0  3  0  0  0  0  0  0
  187.4820  178.6780  136.5080 N   0  0  0  0  0  2  0  0  0  0  0  0
  184.3360  178.6490  142.4930 C   0  0  0  0  0  0  0  0  0  0  0  0
  183.0310  178.7840  142.9760 C   0  0  0  0  0  3  0  0  0  0  0  0
  188.3070  178.2080  141.2180 C   0  0  0  0  0  3  0  0  0  0  0  0
  187.6740  178.1160  138.8910 C   0  0  0  0  0  0  0  0  0  0  0  0
  188.1660  177.8470  137.4920 C   0  0  0  0  0  2  0  0  0  0  0  0
  191.4680  176.1210  147.0070 C   0  0  0  0  0  0  0  0  0  0  0  0
  190.0820  178.3310  145.4860 O   0  0  0  0  0  1  0  0  0  0  0  0
  188.0570  176.9420  147.9690 O   0  0  0  0  0  0  0  0  0  0  0  0
  186.7240  177.1990  145.6590 O   0  0  0  0  0  0  0  0  0  0  0  0
  192.7320  175.7880  147.7180 C   0  0  0  0  0  1  0  0  0  0  0  0
  187.7780  177.7300  145.2100 C   0  0  0  0  0  0  0  0  0  0  0  0
  191.4150  176.0010  145.7560 O   0  0  0  0  0  0  0  0  0  0  0  0
  189.0840  177.0200  147.2450 C   0  0  0  0  0  0  0  0  0  0  0  0
  189.0070  177.6500  145.9530 N   0  0  0  0  0  0  0  0  0  0  0  0
  187.7710  178.4060  143.9450 N   0  0  0  0  0  2  0  0  0  0  0  0
  190.3230  176.5200  147.7680 N   0  0  0  0  0  2  0  0  0  0  0  0
  1  6  1  0  0  0  0
  2  5  2  0  0  0  0
  2 13  1  0  0  0  0
  3  2  1  0  0  0  0
  4  7  1  0  0  0  0
  5 16  1  0  0  0  0
  6 17  2  0  0  0  0
  7  3  1  0  0  0  0
  8 12  1  0  0  0  0
  8 30  1  0  0  0  0
  9  1  1  0  0  0  0
 10 18  2  0  0  0  0
 11 15  1  0  0  0  0
 11  4  1  0  0  0  0
 13  8  2  0  0  0  0
 14  1  2  0  0  0  0
 14  5  1  0  0  0  0
 15 20  1  0  0  0  0
 16 17  1  0  0  0  0
 16 12  2  0  0  0  0
 18 13  1  0  0  0  0
 19  3  2  0  0  0  0
 19 10  1  0  0  0  0
 20 19  1  0  0  0  0
 21 25  1  0  0  0  0
 21 31  1  0  0  0  0
 22 29  1  0  0  0  0
 26 24  2  0  0  0  0
 26 29  1  0  0  0  0
 27 21  2  0  0  0  0
 28 31  1  0  0  0  0
 28 23  2  0  0  0  0
 29 28  1  0  0  0  0
 30 26  1  0  0  0  0
M  END
>  <MODEL>
9

>  <REMARK>
 VINA RESULT:      -9.4      3.752      7.524
  Name = 
  1 active torsions:
  status: ('A' for Active; 'I' for Inactive)
    1  A    between atoms: C_15  and  N_23
                            x       y       z     vdW  Elec       q    Type
                         _______ _______ _______ _____ _____    ______ ____

>  <TORSDO>
F 1

$$$$
