=
 OpenBabel10222422063D

 31 31  0  0  1  0  0  0  0  0999 V2000
  185.3430  178.0550  143.0460 C   0  0  0  0  0  3  0  0  0  0  0  0
  183.2270  179.0450  143.6570 C   0  0  0  0  0  3  0  0  0  0  0  0
  185.2740  178.6980  146.7340 N   0  0  0  0  0  1  0  0  0  0  0  0
  184.8910  178.5970  145.3650 C   0  0  0  0  0  0  0  0  0  0  0  0
  184.0840  178.5340  142.6810 C   0  0  0  0  0  0  0  0  0  0  0  0
  185.7710  178.0750  144.3830 C   0  0  0  0  0  0  0  0  0  0  0  0
  183.6310  179.0740  144.9920 C   0  0  0  0  0  3  0  0  0  0  0  0
  183.6070  178.5430  140.9910 S   0  0  0  0  0  0  0  0  0  0  0  0
  182.2950  179.2610  140.8480 O   0  0  0  0  0  0  0  0  0  0  0  0
  183.4340  177.1290  140.5080 O   0  0  0  0  0  0  0  0  0  0  0  0
  184.8050  179.3560  140.0370 N   0  0  0  0  0  2  0  0  0  0  0  0
  185.6670  178.3510  139.4290 C   0  0  1  0  0  3  0  0  0  0  0  0
  185.5060  178.3820  137.9160 C   0  0  0  0  0  2  0  0  0  0  0  0
  184.9550  177.0630  137.3970 C   0  0  0  0  0  2  0  0  0  0  0  0
  183.7860  177.3010  136.4560 C   0  0  0  0  0  2  0  0  0  0  0  0
  181.8950  178.6430  137.3710 C   0  0  0  0  0  1  0  0  0  0  0  0
  182.4730  177.2500  137.2170 C   0  0  0  0  0  2  0  0  0  0  0  0
  187.0570  178.5800  139.8100 N   0  0  0  0  0  2  0  0  0  0  0  0
  189.1570  178.6140  138.6940 C   0  0  0  0  0  2  0  0  0  0  0  0
  188.1430  177.9130  139.1730 C   0  0  0  0  0  3  0  0  0  0  0  0
  187.7390  177.9250  145.8410 C   0  0  0  0  0  3  0  0  0  0  0  0
  187.1410  177.5750  144.6890 C   0  0  0  0  0  0  0  0  0  0  0  0
  189.0340  177.5050  146.2980 N   0  0  0  0  0  2  0  0  0  0  0  0
  189.4880  177.4520  147.6790 C   0  0  0  0  0  2  0  0  0  0  0  0
  188.4420  178.0760  148.5770 C   0  0  0  0  0  1  0  0  0  0  0  0
  187.8000  176.6550  143.7040 C   0  0  0  0  0  2  0  0  0  0  0  0
  188.8070  177.4220  142.8610 C   0  0  0  0  0  2  0  0  0  0  0  0
  189.9330  176.6040  142.5800 O   0  0  0  0  0  0  0  0  0  0  0  0
  191.1180  176.7020  143.3100 C   0  0  0  0  0  0  0  0  0  0  0  0
  191.6900  175.5780  143.8920 O   0  0  0  0  0  1  0  0  0  0  0  0
  191.6700  177.8240  143.4500 O   0  0  0  0  0  0  0  0  0  0  0  0
  1  6  1  0  0  0  0
  2  7  2  0  0  0  0
  4  3  1  0  0  0  0
  5  1  2  0  0  0  0
  5  2  1  0  0  0  0
  6 22  1  0  0  0  0
  6  4  2  0  0  0  0
  7  4  1  0  0  0  0
  8  5  1  0  0  0  0
  9  8  2  0  0  0  0
 10  8  2  0  0  0  0
 11  8  1  0  0  0  0
 12 13  1  6  0  0  0
 12 18  1  0  0  0  0
 12 11  1  0  0  0  0
 14 13  1  0  0  0  0
 15 17  1  0  0  0  0
 15 14  1  0  0  0  0
 17 16  1  0  0  0  0
 19 20  2  0  0  0  0
 20 18  1  0  0  0  0
 21 23  1  0  0  0  0
 22 21  2  0  0  0  0
 23 24  1  0  0  0  0
 24 25  1  0  0  0  0
 26 22  1  0  0  0  0
 27 26  1  0  0  0  0
 28 27  1  0  0  0  0
 28 29  1  0  0  0  0
 29 31  2  0  0  0  0
 29 30  1  0  0  0  0
M  END
>  <MODEL>
1

>  <REMARK>
 VINA RESULT:      -7.0      0.000      0.000
  Name = 
  16 active torsions:
  status: ('A' for Active; 'I' for Inactive)
    1  A    between atoms: C_1  and  N_7
    2  A    between atoms: C_2  and  O_8
    3  A    between atoms: C_3  and  O_8
    4  A    between atoms: C_3  and  C_28
    5  A    between atoms: C_4  and  C_25
    6  A    between atoms: C_4  and  C_26
    7  A    between atoms: S_6  and  N_16
    8  A    between atoms: S_6  and  C_21
    9  A    between atoms: N_7  and  C_11
   10  A    between atoms: C_9  and  C_15
   11  A    between atoms: C_9  and  N_16
   12  A    between atoms: C_9  and  N_29
   13  A    between atoms: C_14  and  C_27
   14  A    between atoms: C_14  and  C_28
   15  A    between atoms: C_15  and  C_25
   16  A    between atoms: N_29  and  C_30
                            x       y       z     vdW  Elec       q    Type
                         _______ _______ _______ _____ _____    ______ ____

>  <TORSDO>
F 16

$$$$
=
 OpenBabel10222422063D

 31 31  0  0  1  0  0  0  0  0999 V2000
  187.9020  177.6520  143.6350 C   0  0  0  0  0  3  0  0  0  0  0  0
  189.3570  177.1880  145.5050 C   0  0  0  0  0  3  0  0  0  0  0  0
  186.0480  178.2150  146.8400 N   0  0  0  0  0  1  0  0  0  0  0  0
  187.0800  177.9300  145.8990 C   0  0  0  0  0  0  0  0  0  0  0  0
  189.1440  177.2500  144.1270 C   0  0  0  0  0  0  0  0  0  0  0  0
  186.8510  177.9970  144.5010 C   0  0  0  0  0  0  0  0  0  0  0  0
  188.3280  177.5280  146.3840 C   0  0  0  0  0  3  0  0  0  0  0  0
  190.4150  176.7730  143.0130 S   0  0  0  0  0  0  0  0  0  0  0  0
  190.2630  175.3150  142.6810 O   0  0  0  0  0  0  0  0  0  0  0  0
  191.7570  176.9800  143.6590 O   0  0  0  0  0  0  0  0  0  0  0  0
  190.3060  177.7010  141.5530 N   0  0  0  0  0  2  0  0  0  0  0  0
  190.1370  176.7820  140.4350 C   0  0  1  0  0  3  0  0  0  0  0  0
  188.9100  177.1750  139.6240 C   0  0  0  0  0  2  0  0  0  0  0  0
  188.9410  178.6520  139.2680 C   0  0  0  0  0  2  0  0  0  0  0  0
  189.2230  178.8430  137.7880 C   0  0  0  0  0  2  0  0  0  0  0  0
  187.0710  178.3390  136.6350 C   0  0  0  0  0  1  0  0  0  0  0  0
  188.4580  177.8220  136.9650 C   0  0  0  0  0  2  0  0  0  0  0  0
  191.3340  176.7760  139.6000 N   0  0  0  0  0  2  0  0  0  0  0  0
  192.1070  176.3650  137.3880 C   0  0  0  0  0  2  0  0  0  0  0  0
  191.4670  175.9300  138.4610 C   0  0  0  0  0  3  0  0  0  0  0  0
  184.6350  179.0400  144.6410 C   0  0  0  0  0  3  0  0  0  0  0  0
  185.5450  178.3850  143.9000 C   0  0  0  0  0  0  0  0  0  0  0  0
  183.3500  179.5120  144.2050 N   0  0  0  0  0  2  0  0  0  0  0  0
  182.1260  178.7310  144.1210 C   0  0  0  0  0  2  0  0  0  0  0  0
  181.4200  179.0400  142.8180 C   0  0  0  0  0  1  0  0  0  0  0  0
  185.3000  178.0580  142.4560 C   0  0  0  0  0  2  0  0  0  0  0  0
  185.5600  179.2790  141.5880 C   0  0  0  0  0  2  0  0  0  0  0  0
  185.6290  178.9020  140.2210 O   0  0  0  0  0  0  0  0  0  0  0  0
  184.5830  179.1540  139.3330 C   0  0  0  0  0  0  0  0  0  0  0  0
  183.9220  178.1090  138.6980 O   0  0  0  0  0  0  0  0  0  0  0  0
  184.2400  180.3410  139.0970 O   0  0  0  0  0  1  0  0  0  0  0  0
  1  5  2  0  0  0  0
  1  6  1  0  0  0  0
  2  7  2  0  0  0  0
  4  7  1  0  0  0  0
  4  3  1  0  0  0  0
  5  2  1  0  0  0  0
  6  4  2  0  0  0  0
  8 10  2  0  0  0  0
  8  5  1  0  0  0  0
  9  8  2  0  0  0  0
 11  8  1  0  0  0  0
 12 13  1  6  0  0  0
 12 11  1  0  0  0  0
 14 13  1  0  0  0  0
 15 14  1  0  0  0  0
 16 17  1  0  0  0  0
 17 15  1  0  0  0  0
 18 12  1  0  0  0  0
 19 20  2  0  0  0  0
 20 18  1  0  0  0  0
 22  6  1  0  0  0  0
 22 21  2  0  0  0  0
 23 21  1  0  0  0  0
 24 23  1  0  0  0  0
 25 24  1  0  0  0  0
 26 22  1  0  0  0  0
 27 26  1  0  0  0  0
 28 27  1  0  0  0  0
 29 28  1  0  0  0  0
 30 29  2  0  0  0  0
 31 29  1  0  0  0  0
M  END
>  <MODEL>
2

>  <REMARK>
 VINA RESULT:      -6.9      2.476      5.899
  Name = 
  16 active torsions:
  status: ('A' for Active; 'I' for Inactive)
    1  A    between atoms: C_1  and  N_7
    2  A    between atoms: C_2  and  O_8
    3  A    between atoms: C_3  and  O_8
    4  A    between atoms: C_3  and  C_28
    5  A    between atoms: C_4  and  C_25
    6  A    between atoms: C_4  and  C_26
    7  A    between atoms: S_6  and  N_16
    8  A    between atoms: S_6  and  C_21
    9  A    between atoms: N_7  and  C_11
   10  A    between atoms: C_9  and  C_15
   11  A    between atoms: C_9  and  N_16
   12  A    between atoms: C_9  and  N_29
   13  A    between atoms: C_14  and  C_27
   14  A    between atoms: C_14  and  C_28
   15  A    between atoms: C_15  and  C_25
   16  A    between atoms: N_29  and  C_30
                            x       y       z     vdW  Elec       q    Type
                         _______ _______ _______ _____ _____    ______ ____

>  <TORSDO>
F 16

$$$$
=
 OpenBabel10222422063D

 31 31  0  0  1  0  0  0  0  0999 V2000
  189.2230  177.3640  140.8030 C   0  0  0  0  0  3  0  0  0  0  0  0
  187.5110  178.3380  142.1990 C   0  0  0  0  0  3  0  0  0  0  0  0
  186.4120  178.6030  138.6620 N   0  0  0  0  0  1  0  0  0  0  0  0
  187.2380  178.3140  139.7870 C   0  0  0  0  0  0  0  0  0  0  0  0
  188.7430  177.6960  142.0700 C   0  0  0  0  0  0  0  0  0  0  0  0
  188.4890  177.6620  139.6440 C   0  0  0  0  0  0  0  0  0  0  0  0
  186.7640  178.6460  141.0610 C   0  0  0  0  0  3  0  0  0  0  0  0
  189.6660  177.2570  143.4990 S   0  0  0  0  0  0  0  0  0  0  0  0
  190.4630  178.4440  143.9610 O   0  0  0  0  0  0  0  0  0  0  0  0
  190.6170  176.1420  143.1620 O   0  0  0  0  0  0  0  0  0  0  0  0
  188.5960  176.7630  144.7700 N   0  0  0  0  0  2  0  0  0  0  0  0
  188.9380  177.5090  145.9740 C   0  0  1  0  0  3  0  0  0  0  0  0
  187.6680  177.9460  146.6890 C   0  0  0  0  0  2  0  0  0  0  0  0
  186.4520  177.7830  145.7920 C   0  0  0  0  0  2  0  0  0  0  0  0
  185.2430  178.4830  146.3910 C   0  0  0  0  0  2  0  0  0  0  0  0
  184.6880  179.6030  144.2340 C   0  0  0  0  0  1  0  0  0  0  0  0
  184.1740  178.6940  145.3340 C   0  0  0  0  0  2  0  0  0  0  0  0
  189.7750  176.6960  146.8510 N   0  0  0  0  0  0  0  0  0  0  0  0
  191.9100  175.8060  147.4080 C   0  0  0  0  0  1  0  0  0  0  0  0
  191.1990  176.7500  146.8140 C   0  0  0  0  0  3  0  0  0  0  0  0
  190.3820  177.1030  138.1860 C   0  0  0  0  0  3  0  0  0  0  0  0
  189.0530  177.2470  138.3290 C   0  0  1  0  0  3  0  0  0  0  0  0
  191.0780  176.6800  137.0030 N   0  0  0  0  0  0  0  0  0  0  0  0
  192.4600  176.2350  136.9250 C   0  0  0  0  0  2  0  0  0  0  0  0
  193.1040  176.3520  138.2890 C   0  0  0  0  0  1  0  0  0  0  0  0
  188.1020  176.9640  137.2030 C   0  0  0  0  0  2  0  0  0  0  0  0
  187.5960  175.5330  137.2890 C   0  0  0  0  0  2  0  0  0  0  0  0
  188.3930  174.6840  136.4750 O   0  0  0  0  0  0  0  0  0  0  0  0
  188.9280  173.4890  136.9570 C   0  0  0  0  0  0  0  0  0  0  0  0
  188.1760  172.3200  136.9490 O   0  0  0  0  0  0  0  0  0  0  0  0
  190.1000  173.4710  137.4120 O   0  0  0  0  0  1  0  0  0  0  0  0
  1  5  1  0  0  0  0
  3  4  1  0  0  0  0
  4  7  2  0  0  0  0
  5  2  2  0  0  0  0
  5  8  1  0  0  0  0
  6  4  1  0  0  0  0
  6  1  2  0  0  0  0
  7  2  1  0  0  0  0
  8  9  2  0  0  0  0
  8 11  1  0  0  0  0
 10  8  2  0  0  0  0
 11 12  1  0  0  0  0
 12 13  1  1  0  0  0
 12 18  1  0  0  0  0
 14 15  1  0  0  0  0
 14 13  1  0  0  0  0
 16 17  1  0  0  0  0
 17 15  1  0  0  0  0
 20 18  2  0  0  0  0
 20 19  1  0  0  0  0
 21 22  1  0  0  0  0
 22 26  1  1  0  0  0
 22  6  1  0  0  0  0
 23 21  2  0  0  0  0
 24 23  1  0  0  0  0
 24 25  1  0  0  0  0
 26 27  1  0  0  0  0
 28 29  1  0  0  0  0
 28 27  1  0  0  0  0
 29 31  1  0  0  0  0
 30 29  2  0  0  0  0
M  END
>  <MODEL>
3

>  <REMARK>
 VINA RESULT:      -6.6      3.319      7.770
  Name = 
  16 active torsions:
  status: ('A' for Active; 'I' for Inactive)
    1  A    between atoms: C_1  and  N_7
    2  A    between atoms: C_2  and  O_8
    3  A    between atoms: C_3  and  O_8
    4  A    between atoms: C_3  and  C_28
    5  A    between atoms: C_4  and  C_25
    6  A    between atoms: C_4  and  C_26
    7  A    between atoms: S_6  and  N_16
    8  A    between atoms: S_6  and  C_21
    9  A    between atoms: N_7  and  C_11
   10  A    between atoms: C_9  and  C_15
   11  A    between atoms: C_9  and  N_16
   12  A    between atoms: C_9  and  N_29
   13  A    between atoms: C_14  and  C_27
   14  A    between atoms: C_14  and  C_28
   15  A    between atoms: C_15  and  C_25
   16  A    between atoms: N_29  and  C_30
                            x       y       z     vdW  Elec       q    Type
                         _______ _______ _______ _____ _____    ______ ____

>  <TORSDO>
F 16

$$$$
=
 OpenBabel10222422063D

 31 31  0  0  1  0  0  0  0  0999 V2000
  190.0480  176.8630  140.8740 C   0  0  0  0  0  3  0  0  0  0  0  0
  188.4430  178.2540  142.0230 C   0  0  0  0  0  3  0  0  0  0  0  0
  187.6460  178.3190  138.3970 N   0  0  0  0  0  1  0  0  0  0  0  0
  188.3310  178.0180  139.6090 C   0  0  0  0  0  0  0  0  0  0  0  0
  189.5500  177.4050  142.0590 C   0  0  0  0  0  0  0  0  0  0  0  0
  189.4560  177.1540  139.6340 C   0  0  0  0  0  0  0  0  0  0  0  0
  187.8390  178.5580  140.8020 C   0  0  0  0  0  3  0  0  0  0  0  0
  190.2840  176.9730  143.5950 S   0  0  0  0  0  0  0  0  0  0  0  0
  191.1120  178.1240  144.0920 O   0  0  0  0  0  0  0  0  0  0  0  0
  191.1830  175.7820  143.4080 O   0  0  0  0  0  0  0  0  0  0  0  0
  189.0540  176.6130  144.7630 N   0  0  0  0  0  2  0  0  0  0  0  0
  189.2910  177.4310  145.9460 C   0  0  1  0  0  3  0  0  0  0  0  0
  187.9820  178.0500  146.4150 C   0  0  0  0  0  2  0  0  0  0  0  0
  186.8230  177.6100  145.5360 C   0  0  0  0  0  2  0  0  0  0  0  0
  185.5340  178.2900  145.9650 C   0  0  0  0  0  2  0  0  0  0  0  0
  183.5050  178.9640  144.6820 C   0  0  0  0  0  1  0  0  0  0  0  0
  184.9990  179.1670  144.8470 C   0  0  0  0  0  2  0  0  0  0  0  0
  189.8960  176.6270  147.0030 N   0  0  0  0  0  2  0  0  0  0  0  0
  192.1110  175.7650  146.9120 C   0  0  0  0  0  2  0  0  0  0  0  0
  191.2810  176.7080  147.3270 C   0  0  0  0  0  3  0  0  0  0  0  0
  189.3150  175.5800  137.7560 C   0  0  0  0  0  3  0  0  0  0  0  0
  190.0250  176.5120  138.4160 C   0  0  0  0  0  0  0  0  0  0  0  0
  189.7040  174.8950  136.5550 N   0  0  0  0  0  2  0  0  0  0  0  0
  189.2780  175.2150  135.2020 C   0  0  0  0  0  2  0  0  0  0  0  0
  188.1080  176.1730  135.2540 C   0  0  0  0  0  1  0  0  0  0  0  0
  191.3760  176.9600  137.9400 C   0  0  0  0  0  2  0  0  0  0  0  0
  192.4370  175.9480  138.3430 C   0  0  0  0  0  2  0  0  0  0  0  0
  192.9660  175.3090  137.1900 O   0  0  0  0  0  0  0  0  0  0  0  0
  193.4160  176.0340  136.0860 C   0  0  0  0  0  0  0  0  0  0  0  0
  194.5180  176.8740  136.1880 O   0  0  0  0  0  1  0  0  0  0  0  0
  192.8110  175.9330  134.9870 O   0  0  0  0  0  0  0  0  0  0  0  0
  1  5  1  0  0  0  0
  2  5  2  0  0  0  0
  3  4  1  0  0  0  0
  4  6  1  0  0  0  0
  4  7  2  0  0  0  0
  5  8  1  0  0  0  0
  6  1  2  0  0  0  0
  7  2  1  0  0  0  0
  8  9  2  0  0  0  0
  8 11  1  0  0  0  0
 10  8  2  0  0  0  0
 11 12  1  0  0  0  0
 12 13  1  1  0  0  0
 12 18  1  0  0  0  0
 14 15  1  0  0  0  0
 14 13  1  0  0  0  0
 16 17  1  0  0  0  0
 17 15  1  0  0  0  0
 18 20  1  0  0  0  0
 19 20  2  0  0  0  0
 21 22  2  0  0  0  0
 22  6  1  0  0  0  0
 23 21  1  0  0  0  0
 24 25  1  0  0  0  0
 24 23  1  0  0  0  0
 26 27  1  0  0  0  0
 26 22  1  0  0  0  0
 28 27  1  0  0  0  0
 29 30  1  0  0  0  0
 29 28  1  0  0  0  0
 31 29  2  0  0  0  0
M  END
>  <MODEL>
4

>  <REMARK>
 VINA RESULT:      -6.6      3.724      8.203
  Name = 
  16 active torsions:
  status: ('A' for Active; 'I' for Inactive)
    1  A    between atoms: C_1  and  N_7
    2  A    between atoms: C_2  and  O_8
    3  A    between atoms: C_3  and  O_8
    4  A    between atoms: C_3  and  C_28
    5  A    between atoms: C_4  and  C_25
    6  A    between atoms: C_4  and  C_26
    7  A    between atoms: S_6  and  N_16
    8  A    between atoms: S_6  and  C_21
    9  A    between atoms: N_7  and  C_11
   10  A    between atoms: C_9  and  C_15
   11  A    between atoms: C_9  and  N_16
   12  A    between atoms: C_9  and  N_29
   13  A    between atoms: C_14  and  C_27
   14  A    between atoms: C_14  and  C_28
   15  A    between atoms: C_15  and  C_25
   16  A    between atoms: N_29  and  C_30
                            x       y       z     vdW  Elec       q    Type
                         _______ _______ _______ _____ _____    ______ ____

>  <TORSDO>
F 16

$$$$
=
 OpenBabel10222422063D

 31 31  0  0  1  0  0  0  0  0999 V2000
  189.1600  177.2310  140.8020 C   0  0  0  0  0  3  0  0  0  0  0  0
  190.6020  177.4500  142.7260 C   0  0  0  0  0  3  0  0  0  0  0  0
  192.7290  177.4120  139.6830 N   0  0  0  0  0  1  0  0  0  0  0  0
  191.5620  177.3490  140.4990 C   0  0  0  0  0  0  0  0  0  0  0  0
  189.3210  177.3370  142.1840 C   0  0  0  0  0  0  0  0  0  0  0  0
  190.2650  177.2350  139.9360 C   0  0  0  0  0  0  0  0  0  0  0  0
  191.7160  177.4540  141.8850 C   0  0  0  0  0  3  0  0  0  0  0  0
  187.9100  177.3850  143.2290 S   0  0  0  0  0  0  0  0  0  0  0  0
  187.5280  175.9830  143.6120 O   0  0  0  0  0  0  0  0  0  0  0  0
  186.7580  178.0120  142.4930 O   0  0  0  0  0  0  0  0  0  0  0  0
  188.2630  178.2890  144.6650 N   0  0  0  0  0  2  0  0  0  0  0  0
  188.0120  177.4350  145.8190 C   0  0  1  0  0  3  0  0  0  0  0  0
  188.9230  177.8410  146.9690 C   0  0  0  0  0  2  0  0  0  0  0  0
  189.9600  176.7670  147.2520 C   0  0  0  0  0  2  0  0  0  0  0  0
  191.1110  176.8570  146.2630 C   0  0  0  0  0  2  0  0  0  0  0  0
  192.5090  175.7340  147.9950 C   0  0  0  0  0  1  0  0  0  0  0  0
  192.1250  175.7580  146.5280 C   0  0  0  0  0  2  0  0  0  0  0  0
  186.6090  177.5160  146.2120 N   0  0  0  0  0  2  0  0  0  0  0  0
  184.7610  178.8170  145.4720 C   0  0  0  0  0  2  0  0  0  0  0  0
  185.8760  178.7370  146.1790 C   0  0  0  0  0  3  0  0  0  0  0  0
  190.2710  176.0080  137.8110 C   0  0  0  0  0  3  0  0  0  0  0  0
  190.0100  177.1500  138.4710 C   0  0  0  0  0  0  0  0  0  0  0  0
  190.0510  175.7530  136.4150 N   0  0  0  0  0  2  0  0  0  0  0  0
  191.0700  175.6740  135.3800 C   0  0  0  0  0  2  0  0  0  0  0  0
  192.4380  175.8320  136.0070 C   0  0  0  0  0  1  0  0  0  0  0  0
  189.4290  178.3470  137.7780 C   0  0  0  0  0  2  0  0  0  0  0  0
  187.9820  178.0820  137.3950 C   0  0  0  0  0  2  0  0  0  0  0  0
  187.1210  178.4240  138.4710 O   0  0  0  0  0  0  0  0  0  0  0  0
  185.7320  178.3560  138.3550 C   0  0  0  0  0  0  0  0  0  0  0  0
  184.9250  179.3590  138.8770 O   0  0  0  0  0  1  0  0  0  0  0  0
  185.2040  177.3690  137.7800 O   0  0  0  0  0  0  0  0  0  0  0  0
  1  5  1  0  0  0  0
  3  4  1  0  0  0  0
  4  7  2  0  0  0  0
  5  2  2  0  0  0  0
  5  8  1  0  0  0  0
  6  4  1  0  0  0  0
  6  1  2  0  0  0  0
  7  2  1  0  0  0  0
  8  9  2  0  0  0  0
  8 11  1  0  0  0  0
 10  8  2  0  0  0  0
 11 12  1  0  0  0  0
 12 18  1  0  0  0  0
 12 13  1  1  0  0  0
 13 14  1  0  0  0  0
 15 17  1  0  0  0  0
 15 14  1  0  0  0  0
 17 16  1  0  0  0  0
 19 20  2  0  0  0  0
 20 18  1  0  0  0  0
 21 22  2  0  0  0  0
 22  6  1  0  0  0  0
 23 21  1  0  0  0  0
 24 25  1  0  0  0  0
 24 23  1  0  0  0  0
 26 22  1  0  0  0  0
 27 26  1  0  0  0  0
 27 28  1  0  0  0  0
 29 28  1  0  0  0  0
 29 30  1  0  0  0  0
 31 29  2  0  0  0  0
M  END
>  <MODEL>
5

>  <REMARK>
 VINA RESULT:      -6.6      2.968      8.780
  Name = 
  16 active torsions:
  status: ('A' for Active; 'I' for Inactive)
    1  A    between atoms: C_1  and  N_7
    2  A    between atoms: C_2  and  O_8
    3  A    between atoms: C_3  and  O_8
    4  A    between atoms: C_3  and  C_28
    5  A    between atoms: C_4  and  C_25
    6  A    between atoms: C_4  and  C_26
    7  A    between atoms: S_6  and  N_16
    8  A    between atoms: S_6  and  C_21
    9  A    between atoms: N_7  and  C_11
   10  A    between atoms: C_9  and  C_15
   11  A    between atoms: C_9  and  N_16
   12  A    between atoms: C_9  and  N_29
   13  A    between atoms: C_14  and  C_27
   14  A    between atoms: C_14  and  C_28
   15  A    between atoms: C_15  and  C_25
   16  A    between atoms: N_29  and  C_30
                            x       y       z     vdW  Elec       q    Type
                         _______ _______ _______ _____ _____    ______ ____

>  <TORSDO>
F 16

$$$$
=
 OpenBabel10222422063D

 31 31  0  0  1  0  0  0  0  0999 V2000
  190.7270  177.1310  141.0420 C   0  0  0  0  0  3  0  0  0  0  0  0
  188.7380  178.2390  141.8430 C   0  0  0  0  0  3  0  0  0  0  0  0
  188.7000  178.3330  138.1320 N   0  0  0  0  0  1  0  0  0  0  0  0
  189.1580  178.0840  139.4580 C   0  0  0  0  0  0  0  0  0  0  0  0
  189.9240  177.5520  142.1020 C   0  0  0  0  0  0  0  0  0  0  0  0
  190.3670  177.3840  139.7090 C   0  0  0  0  0  0  0  0  0  0  0  0
  188.3600  178.5040  140.5270 C   0  0  0  0  0  3  0  0  0  0  0  0
  190.3820  177.1670  143.7540 S   0  0  0  0  0  0  0  0  0  0  0  0
  191.1110  178.3370  144.3530 O   0  0  0  0  0  0  0  0  0  0  0  0
  191.3010  175.9770  143.7580 O   0  0  0  0  0  0  0  0  0  0  0  0
  188.9690  176.8330  144.7010 N   0  0  0  0  0  2  0  0  0  0  0  0
  189.1600  177.4060  146.0280 C   0  0  1  0  0  3  0  0  0  0  0  0
  187.8130  177.7910  146.6220 C   0  0  0  0  0  2  0  0  0  0  0  0
  186.7100  177.6990  145.5800 C   0  0  0  0  0  2  0  0  0  0  0  0
  185.5540  178.6180  145.9380 C   0  0  0  0  0  2  0  0  0  0  0  0
  183.4530  178.9160  144.6290 C   0  0  0  0  0  1  0  0  0  0  0  0
  184.9390  179.2120  144.6840 C   0  0  0  0  0  2  0  0  0  0  0  0
  189.8580  176.4580  146.8910 N   0  0  0  0  0  2  0  0  0  0  0  0
  192.0720  175.7530  147.3980 C   0  0  0  0  0  2  0  0  0  0  0  0
  191.1620  176.7120  147.4070 C   0  0  0  0  0  3  0  0  0  0  0  0
  192.5930  176.8970  138.8000 C   0  0  0  0  0  3  0  0  0  0  0  0
  191.2600  176.8750  138.6310 C   0  0  0  0  0  0  0  0  0  0  0  0
  193.5840  176.4160  137.8780 N   0  0  0  0  0  2  0  0  0  0  0  0
  194.1020  175.0600  137.7950 C   0  0  0  0  0  2  0  0  0  0  0  0
  194.8320  174.8780  136.4820 C   0  0  0  0  0  1  0  0  0  0  0  0
  190.6300  176.3150  137.3890 C   0  0  0  0  0  2  0  0  0  0  0  0
  189.9180  175.0090  137.7050 C   0  0  0  0  0  2  0  0  0  0  0  0
  190.7610  173.9070  137.3990 O   0  0  0  0  0  0  0  0  0  0  0  0
  190.8090  173.3460  136.1230 C   0  0  0  0  0  0  0  0  0  0  0  0
  192.0260  173.0590  135.5170 O   0  0  0  0  0  1  0  0  0  0  0  0
  189.7370  173.1060  135.5090 O   0  0  0  0  0  0  0  0  0  0  0  0
  1  5  1  0  0  0  0
  2  5  2  0  0  0  0
  3  4  1  0  0  0  0
  4  6  1  0  0  0  0
  4  7  2  0  0  0  0
  5  8  1  0  0  0  0
  6  1  2  0  0  0  0
  7  2  1  0  0  0  0
  8 10  2  0  0  0  0
  8  9  2  0  0  0  0
  8 11  1  0  0  0  0
 11 12  1  0  0  0  0
 12 13  1  1  0  0  0
 12 18  1  0  0  0  0
 14 15  1  0  0  0  0
 14 13  1  0  0  0  0
 16 17  1  0  0  0  0
 17 15  1  0  0  0  0
 18 20  1  0  0  0  0
 19 20  2  0  0  0  0
 22 21  2  0  0  0  0
 22  6  1  0  0  0  0
 23 21  1  0  0  0  0
 24 23  1  0  0  0  0
 25 24  1  0  0  0  0
 26 27  1  0  0  0  0
 26 22  1  0  0  0  0
 28 27  1  0  0  0  0
 29 28  1  0  0  0  0
 30 29  1  0  0  0  0
 31 29  2  0  0  0  0
M  END
>  <MODEL>
6

>  <REMARK>
 VINA RESULT:      -6.6      3.986      8.309
  Name = 
  16 active torsions:
  status: ('A' for Active; 'I' for Inactive)
    1  A    between atoms: C_1  and  N_7
    2  A    between atoms: C_2  and  O_8
    3  A    between atoms: C_3  and  O_8
    4  A    between atoms: C_3  and  C_28
    5  A    between atoms: C_4  and  C_25
    6  A    between atoms: C_4  and  C_26
    7  A    between atoms: S_6  and  N_16
    8  A    between atoms: S_6  and  C_21
    9  A    between atoms: N_7  and  C_11
   10  A    between atoms: C_9  and  C_15
   11  A    between atoms: C_9  and  N_16
   12  A    between atoms: C_9  and  N_29
   13  A    between atoms: C_14  and  C_27
   14  A    between atoms: C_14  and  C_28
   15  A    between atoms: C_15  and  C_25
   16  A    between atoms: N_29  and  C_30
                            x       y       z     vdW  Elec       q    Type
                         _______ _______ _______ _____ _____    ______ ____

>  <TORSDO>
F 16

$$$$
=
 OpenBabel10222422063D

 31 31  0  0  1  0  0  0  0  0999 V2000
  186.8810  178.1000  145.0690 C   0  0  0  0  0  3  0  0  0  0  0  0
  185.2340  178.6340  146.7520 C   0  0  0  0  0  3  0  0  0  0  0  0
  188.4390  177.8770  148.4670 N   0  0  0  0  0  1  0  0  0  0  0  0
  187.4920  178.0380  147.4140 C   0  0  0  0  0  0  0  0  0  0  0  0
  185.5810  178.4760  145.4090 C   0  0  0  0  0  0  0  0  0  0  0  0
  187.8570  177.8750  146.0530 C   0  0  0  0  0  0  0  0  0  0  0  0
  186.1870  178.4140  147.7480 C   0  0  0  0  0  3  0  0  0  0  0  0
  184.4050  178.8030  144.1470 S   0  0  0  0  0  0  0  0  0  0  0  0
  184.4290  180.2680  143.8120 O   0  0  0  0  0  0  0  0  0  0  0  0
  183.0280  178.4460  144.6350 O   0  0  0  0  0  0  0  0  0  0  0  0
  184.7890  177.8900  142.7240 N   0  0  0  0  0  2  0  0  0  0  0  0
  184.4850  178.7080  141.5570 C   0  0  1  0  0  3  0  0  0  0  0  0
  185.7340  178.8730  140.7040 C   0  0  0  0  0  2  0  0  0  0  0  0
  186.9730  178.4100  141.4520 C   0  0  0  0  0  2  0  0  0  0  0  0
  188.2220  178.6290  140.6140 C   0  0  0  0  0  2  0  0  0  0  0  0
  189.2180  178.3930  138.3410 C   0  0  0  0  0  1  0  0  0  0  0  0
  188.0410  178.0370  139.2280 C   0  0  0  0  0  2  0  0  0  0  0  0
  183.4030  178.1050  140.7860 N   0  0  0  0  0  2  0  0  0  0  0  0
  181.0560  178.3850  141.0560 C   0  0  0  0  0  2  0  0  0  0  0  0
  182.1880  178.7950  140.5060 C   0  0  0  0  0  3  0  0  0  0  0  0
  190.1410  177.1060  146.5140 C   0  0  0  0  0  3  0  0  0  0  0  0
  189.2300  177.5060  145.6100 C   0  0  0  0  0  0  0  0  0  0  0  0
  191.4890  176.6870  146.2480 N   0  0  0  0  0  2  0  0  0  0  0  0
  192.1410  175.4930  146.7630 C   0  0  0  0  0  2  0  0  0  0  0  0
  192.7310  175.7890  148.1240 C   0  0  0  0  0  1  0  0  0  0  0  0
  189.5440  177.5620  144.1430 C   0  0  0  0  0  2  0  0  0  0  0  0
  189.4510  176.1720  143.5330 C   0  0  0  0  0  2  0  0  0  0  0  0
  190.1260  176.1410  142.2840 O   0  0  0  0  0  0  0  0  0  0  0  0
  191.1990  176.9870  142.0030 C   0  0  0  0  0  0  0  0  0  0  0  0
  191.9830  177.5040  143.0270 O   0  0  0  0  0  1  0  0  0  0  0  0
  191.4540  177.2930  140.8100 O   0  0  0  0  0  0  0  0  0  0  0  0
  1  5  2  0  0  0  0
  1  6  1  0  0  0  0
  2  7  2  0  0  0  0
  4  7  1  0  0  0  0
  4  3  1  0  0  0  0
  5  2  1  0  0  0  0
  6  4  2  0  0  0  0
  8 10  2  0  0  0  0
  8  5  1  0  0  0  0
  9  8  2  0  0  0  0
 11  8  1  0  0  0  0
 12 13  1  6  0  0  0
 12 11  1  0  0  0  0
 13 14  1  0  0  0  0
 15 14  1  0  0  0  0
 16 17  1  0  0  0  0
 17 15  1  0  0  0  0
 18 12  1  0  0  0  0
 20 18  1  0  0  0  0
 20 19  2  0  0  0  0
 22  6  1  0  0  0  0
 22 21  2  0  0  0  0
 23 21  1  0  0  0  0
 23 24  1  0  0  0  0
 24 25  1  0  0  0  0
 26 22  1  0  0  0  0
 27 26  1  0  0  0  0
 28 27  1  0  0  0  0
 29 28  1  0  0  0  0
 29 30  1  0  0  0  0
 31 29  2  0  0  0  0
M  END
>  <MODEL>
7

>  <REMARK>
 VINA RESULT:      -6.5      2.432      3.992
  Name = 
  16 active torsions:
  status: ('A' for Active; 'I' for Inactive)
    1  A    between atoms: C_1  and  N_7
    2  A    between atoms: C_2  and  O_8
    3  A    between atoms: C_3  and  O_8
    4  A    between atoms: C_3  and  C_28
    5  A    between atoms: C_4  and  C_25
    6  A    between atoms: C_4  and  C_26
    7  A    between atoms: S_6  and  N_16
    8  A    between atoms: S_6  and  C_21
    9  A    between atoms: N_7  and  C_11
   10  A    between atoms: C_9  and  C_15
   11  A    between atoms: C_9  and  N_16
   12  A    between atoms: C_9  and  N_29
   13  A    between atoms: C_14  and  C_27
   14  A    between atoms: C_14  and  C_28
   15  A    between atoms: C_15  and  C_25
   16  A    between atoms: N_29  and  C_30
                            x       y       z     vdW  Elec       q    Type
                         _______ _______ _______ _____ _____    ______ ____

>  <TORSDO>
F 16

$$$$
=
 OpenBabel10222422063D

 31 31  0  0  1  0  0  0  0  0999 V2000
  185.3870  178.1650  142.3240 C   0  0  0  0  0  3  0  0  0  0  0  0
  185.5200  178.3530  144.7270 C   0  0  0  0  0  3  0  0  0  0  0  0
  182.0520  179.1780  143.6920 N   0  0  0  0  0  1  0  0  0  0  0  0
  183.4310  178.8340  143.5900 C   0  0  0  0  0  0  0  0  0  0  0  0
  186.1260  178.0670  143.5030 C   0  0  0  0  0  0  0  0  0  0  0  0
  184.0360  178.5460  142.3400 C   0  0  0  0  0  0  0  0  0  0  0  0
  184.1790  178.7350  144.7680 C   0  0  0  0  0  3  0  0  0  0  0  0
  187.7990  177.5320  143.4460 S   0  0  0  0  0  0  0  0  0  0  0  0
  188.4640  178.1100  142.2290 O   0  0  0  0  0  0  0  0  0  0  0  0
  187.8460  176.0320  143.3520 O   0  0  0  0  0  0  0  0  0  0  0  0
  188.6430  178.0680  144.8620 N   0  0  0  0  0  2  0  0  0  0  0  0
  189.2920  176.9140  145.4730 C   0  0  1  0  0  3  0  0  0  0  0  0
  190.7680  176.8970  145.1040 C   0  0  0  0  0  2  0  0  0  0  0  0
  191.2770  178.3010  144.8190 C   0  0  0  0  0  2  0  0  0  0  0  0
  191.5910  178.4700  143.3420 C   0  0  0  0  0  2  0  0  0  0  0  0
  191.8150  177.2930  141.1560 C   0  0  0  0  0  1  0  0  0  0  0  0
  191.6460  177.1190  142.6530 C   0  0  0  0  0  2  0  0  0  0  0  0
  189.1170  176.9460  146.9220 N   0  0  0  0  0  2  0  0  0  0  0  0
  188.1150  178.3990  148.5160 C   0  0  0  0  0  2  0  0  0  0  0  0
  187.9680  177.5170  147.5410 C   0  0  0  0  0  3  0  0  0  0  0  0
  182.1080  177.9950  140.9240 C   0  0  0  0  0  3  0  0  0  0  0  0
  183.3050  178.5970  141.0430 C   0  0  0  0  0  0  0  0  0  0  0  0
  181.2660  177.9800  139.7610 N   0  0  0  0  0  2  0  0  0  0  0  0
  181.1510  176.9030  138.7910 C   0  0  0  0  0  2  0  0  0  0  0  0
  182.0440  175.7530  139.2060 C   0  0  0  0  0  1  0  0  0  0  0  0
  183.9210  179.3600  139.9070 C   0  0  0  0  0  2  0  0  0  0  0  0
  184.6530  178.4100  138.9720 C   0  0  0  0  0  2  0  0  0  0  0  0
  185.9850  178.8580  138.7630 O   0  0  0  0  0  0  0  0  0  0  0  0
  186.9500  178.0490  138.1640 C   0  0  0  0  0  0  0  0  0  0  0  0
  188.3010  178.2410  138.4270 O   0  0  0  0  0  1  0  0  0  0  0  0
  186.5940  177.1420  137.3690 O   0  0  0  0  0  0  0  0  0  0  0  0
  1  6  2  0  0  0  0
  1  5  1  0  0  0  0
  2  7  1  0  0  0  0
  4  3  1  0  0  0  0
  4  7  2  0  0  0  0
  5  2  2  0  0  0  0
  6  4  1  0  0  0  0
  8  5  1  0  0  0  0
  8 11  1  0  0  0  0
  9  8  2  0  0  0  0
 10  8  2  0  0  0  0
 11 12  1  0  0  0  0
 12 13  1  1  0  0  0
 12 18  1  0  0  0  0
 14 13  1  0  0  0  0
 15 14  1  0  0  0  0
 16 17  1  0  0  0  0
 17 15  1  0  0  0  0
 18 20  1  0  0  0  0
 20 19  2  0  0  0  0
 21 22  2  0  0  0  0
 22  6  1  0  0  0  0
 23 21  1  0  0  0  0
 24 25  1  0  0  0  0
 24 23  1  0  0  0  0
 26 22  1  0  0  0  0
 27 26  1  0  0  0  0
 28 27  1  0  0  0  0
 29 30  1  0  0  0  0
 29 28  1  0  0  0  0
 31 29  2  0  0  0  0
M  END
>  <MODEL>
8

>  <REMARK>
 VINA RESULT:      -6.5      2.560      7.420
  Name = 
  16 active torsions:
  status: ('A' for Active; 'I' for Inactive)
    1  A    between atoms: C_1  and  N_7
    2  A    between atoms: C_2  and  O_8
    3  A    between atoms: C_3  and  O_8
    4  A    between atoms: C_3  and  C_28
    5  A    between atoms: C_4  and  C_25
    6  A    between atoms: C_4  and  C_26
    7  A    between atoms: S_6  and  N_16
    8  A    between atoms: S_6  and  C_21
    9  A    between atoms: N_7  and  C_11
   10  A    between atoms: C_9  and  C_15
   11  A    between atoms: C_9  and  N_16
   12  A    between atoms: C_9  and  N_29
   13  A    between atoms: C_14  and  C_27
   14  A    between atoms: C_14  and  C_28
   15  A    between atoms: C_15  and  C_25
   16  A    between atoms: N_29  and  C_30
                            x       y       z     vdW  Elec       q    Type
                         _______ _______ _______ _____ _____    ______ ____

>  <TORSDO>
F 16

$$$$
=
 OpenBabel10222422063D

 31 31  0  0  1  0  0  0  0  0999 V2000
  190.4490  176.5040  139.8780 C   0  0  0  0  0  3  0  0  0  0  0  0
  192.1850  177.6550  141.0990 C   0  0  0  0  0  3  0  0  0  0  0  0
  193.4980  176.8240  137.7280 N   0  0  0  0  0  1  0  0  0  0  0  0
  192.6050  176.8850  138.8360 C   0  0  0  0  0  0  0  0  0  0  0  0
  190.8880  177.1440  141.0380 C   0  0  0  0  0  0  0  0  0  0  0  0
  191.2890  176.3610  138.7620 C   0  0  0  0  0  0  0  0  0  0  0  0
  193.0380  177.5230  140.0030 C   0  0  0  0  0  3  0  0  0  0  0  0
  189.7890  177.3520  142.3930 S   0  0  0  0  0  0  0  0  0  0  0  0
  188.4120  176.9080  141.9880 O   0  0  0  0  0  0  0  0  0  0  0  0
  189.7320  178.8040  142.7770 O   0  0  0  0  0  0  0  0  0  0  0  0
  190.3190  176.3990  143.7410 N   0  0  0  0  0  2  0  0  0  0  0  0
  190.3360  177.2480  144.9240 C   0  0  1  0  0  3  0  0  0  0  0  0
  189.1550  176.9050  145.8220 C   0  0  0  0  0  2  0  0  0  0  0  0
  188.2090  178.0880  145.9560 C   0  0  0  0  0  2  0  0  0  0  0  0
  186.7660  177.6450  145.7860 C   0  0  0  0  0  2  0  0  0  0  0  0
  184.6230  178.7610  145.1730 C   0  0  0  0  0  1  0  0  0  0  0  0
  185.8190  178.7880  146.1050 C   0  0  0  0  0  2  0  0  0  0  0  0
  191.5970  177.0900  145.6410 N   0  0  0  0  0  2  0  0  0  0  0  0
  192.1960  175.7980  147.5460 C   0  0  0  0  0  2  0  0  0  0  0  0
  191.9860  175.8570  146.2420 C   0  0  0  0  0  3  0  0  0  0  0  0
  190.9290  174.3770  137.3640 C   0  0  0  0  0  3  0  0  0  0  0  0
  190.7380  175.6940  137.5490 C   0  0  0  0  0  0  0  0  0  0  0  0
  190.4380  173.5820  136.2730 N   0  0  0  0  0  2  0  0  0  0  0  0
  191.2360  172.9670  135.2240 C   0  0  0  0  0  2  0  0  0  0  0  0
  192.5870  172.5750  135.7820 C   0  0  0  0  0  1  0  0  0  0  0  0
  189.9460  176.5210  136.5790 C   0  0  0  0  0  2  0  0  0  0  0  0
  188.4600  176.4100  136.8840 C   0  0  0  0  0  2  0  0  0  0  0  0
  187.8800  177.7040  136.9650 O   0  0  0  0  0  0  0  0  0  0  0  0
  188.0590  178.5250  138.0780 C   0  0  0  0  0  0  0  0  0  0  0  0
  187.2230  178.4170  139.1830 O   0  0  0  0  0  1  0  0  0  0  0  0
  188.9820  179.3800  138.0780 O   0  0  0  0  0  0  0  0  0  0  0  0
  1  5  1  0  0  0  0
  3  4  1  0  0  0  0
  4  7  2  0  0  0  0
  5  2  2  0  0  0  0
  5  8  1  0  0  0  0
  6  4  1  0  0  0  0
  6  1  2  0  0  0  0
  7  2  1  0  0  0  0
  8 10  2  0  0  0  0
  8 11  1  0  0  0  0
  9  8  2  0  0  0  0
 11 12  1  0  0  0  0
 12 18  1  0  0  0  0
 12 13  1  1  0  0  0
 13 14  1  0  0  0  0
 15 14  1  0  0  0  0
 15 17  1  0  0  0  0
 16 17  1  0  0  0  0
 18 20  1  0  0  0  0
 20 19  2  0  0  0  0
 21 22  2  0  0  0  0
 22  6  1  0  0  0  0
 23 21  1  0  0  0  0
 24 25  1  0  0  0  0
 24 23  1  0  0  0  0
 26 27  1  0  0  0  0
 26 22  1  0  0  0  0
 27 28  1  0  0  0  0
 28 29  1  0  0  0  0
 29 31  2  0  0  0  0
 29 30  1  0  0  0  0
M  END
>  <MODEL>
9

>  <REMARK>
 VINA RESULT:      -6.4      3.980      8.843
  Name = 
  16 active torsions:
  status: ('A' for Active; 'I' for Inactive)
    1  A    between atoms: C_1  and  N_7
    2  A    between atoms: C_2  and  O_8
    3  A    between atoms: C_3  and  O_8
    4  A    between atoms: C_3  and  C_28
    5  A    between atoms: C_4  and  C_25
    6  A    between atoms: C_4  and  C_26
    7  A    between atoms: S_6  and  N_16
    8  A    between atoms: S_6  and  C_21
    9  A    between atoms: N_7  and  C_11
   10  A    between atoms: C_9  and  C_15
   11  A    between atoms: C_9  and  N_16
   12  A    between atoms: C_9  and  N_29
   13  A    between atoms: C_14  and  C_27
   14  A    between atoms: C_14  and  C_28
   15  A    between atoms: C_15  and  C_25
   16  A    between atoms: N_29  and  C_30
                            x       y       z     vdW  Elec       q    Type
                         _______ _______ _______ _____ _____    ______ ____

>  <TORSDO>
F 16

$$$$
