=
 OpenBabel10232412373D

 37 41  0  0  1  0  0  0  0  0999 V2000
  190.5680  177.0050  145.3010 C   0  0  0  0  0  0  0  0  0  0  0  0
  187.9840  177.2750  145.1740 C   0  0  1  0  0  3  0  0  0  0  0  0
  189.2700  176.9850  145.8890 C   0  0  0  0  0  0  0  0  0  0  0  0
  189.1940  176.8130  147.2840 C   0  0  0  0  0  3  0  0  0  0  0  0
  185.5840  178.0060  143.9810 C   0  0  2  0  0  3  0  0  0  0  0  0
  190.1980  178.2500  141.6870 C   0  0  2  0  0  3  0  0  0  0  0  0
  188.6380  176.1770  141.7080 C   0  0  0  0  0  2  0  0  0  0  0  0
  191.6940  176.8580  146.1200 C   0  0  0  0  0  3  0  0  0  0  0  0
  188.5390  176.0600  143.1280 O   0  0  0  0  0  0  0  0  0  0  0  0
  191.5530  176.7000  147.5010 C   0  0  0  0  0  0  0  0  0  0  0  0
  185.8730  178.4180  145.2410 N   0  0  0  0  0  0  0  0  0  0  0  0
  187.0370  178.0670  145.8400 C   0  0  0  0  0  3  0  0  0  0  0  0
  186.4710  177.2190  143.3180 N   0  0  0  0  0  0  0  0  0  0  0  0
  187.6520  176.8380  143.8740 C   0  0  0  0  0  0  0  0  0  0  0  0
  190.3910  178.4020  143.2030 C   0  0  0  0  0  2  0  0  0  0  0  0
  190.8540  177.0990  143.8380 C   0  0  0  0  0  2  0  0  0  0  0  0
  188.8510  177.6370  141.2790 C   0  0  0  0  0  2  0  0  0  0  0  0
  190.3090  176.6720  148.0450 N   0  0  0  0  0  0  0  0  0  0  0  0
  184.3330  178.4370  143.3250 C   0  0  0  0  0  0  0  0  0  0  0  0
  182.8990  178.6930  139.9570 F   0  0  0  0  0  0  0  0  0  0  0  0
  182.0430  179.2500  143.4690 C   0  0  0  0  0  3  0  0  0  0  0  0
  181.9310  179.1960  142.0780 C   0  0  0  0  0  3  0  0  0  0  0  0
  183.2380  178.8690  144.0910 C   0  0  0  0  0  3  0  0  0  0  0  0
  184.2070  178.3840  141.9260 C   0  0  0  0  0  3  0  0  0  0  0  0
  183.0140  178.7640  141.3060 C   0  0  0  0  0  0  0  0  0  0  0  0
  192.9580  177.5140  149.3770 O   0  0  0  0  0  1  0  0  0  0  0  0
  192.7360  176.5890  148.3610 C   0  0  0  0  0  0  0  0  0  0  0  0
  193.5480  175.6400  148.2040 O   0  0  0  0  0  0  0  0  0  0  0  0
  191.3730  177.5860  140.9810 C   0  0  0  0  0  2  0  0  0  0  0  0
  191.1810  177.6890  139.4810 C   0  0  0  0  0  2  0  0  0  0  0  0
  191.1750  175.5310  138.2030 C   0  0  0  0  0  0  0  0  0  0  0  0
  193.2570  174.5220  137.5090 C   0  0  0  0  0  3  0  0  0  0  0  0
  191.8610  174.5000  137.5620 C   0  0  0  0  0  3  0  0  0  0  0  0
  189.8190  175.5080  138.2550 F   0  0  0  0  0  0  0  0  0  0  0  0
  193.2590  176.5790  138.7280 N   0  0  0  0  0  0  0  0  0  0  0  0
  193.9460  175.5820  138.1070 C   0  0  0  0  0  3  0  0  0  0  0  0
  191.8980  176.5780  138.7900 C   0  0  0  0  0  0  0  0  0  0  0  0
  1  3  2  0  0  0  0
  1  8  1  0  0  0  0
  2 12  1  6  0  0  0
  2  3  1  0  0  0  0
  3  4  1  0  0  0  0
  4 18  2  0  0  0  0
  5 19  1  6  0  0  0
  5 11  1  0  0  0  0
  6 29  1  1  0  0  0
  6 15  1  0  0  0  0
  7  9  1  0  0  0  0
  8 10  2  0  0  0  0
  9 14  1  0  0  0  0
 10 18  1  0  0  0  0
 10 27  1  0  0  0  0
 11 12  2  0  0  0  0
 13 14  2  0  0  0  0
 13  5  1  0  0  0  0
 14  2  1  0  0  0  0
 15 16  1  0  0  0  0
 16  1  1  0  0  0  0
 17  6  1  0  0  0  0
 17  7  1  0  0  0  0
 19 23  1  0  0  0  0
 20 25  1  0  0  0  0
 21 23  2  0  0  0  0
 22 21  1  0  0  0  0
 24 19  2  0  0  0  0
 25 24  1  0  0  0  0
 25 22  2  0  0  0  0
 27 26  1  0  0  0  0
 28 27  2  0  0  0  0
 30 29  1  0  0  0  0
 31 34  1  0  0  0  0
 31 37  1  0  0  0  0
 32 33  1  0  0  0  0
 32 36  2  0  0  0  0
 33 31  2  0  0  0  0
 35 37  2  0  0  0  0
 36 35  1  0  0  0  0
 37 30  1  0  0  0  0
M  END
>  <MODEL>
1

>  <REMARK>
 VINA RESULT:      -8.5      0.000      0.000
  Name = 
  5 active torsions:
  status: ('A' for Active; 'I' for Inactive)
    1  A    between atoms: C_3  and  C_7
    2  A    between atoms: C_10  and  C_25
    3  A    between atoms: CA_16  and  C_21
    4  A    between atoms: C_22  and  C_25
    5  A    between atoms: C_22  and  C_36
                            x       y       z     vdW  Elec       q    Type
                         _______ _______ _______ _____ _____    ______ ____

>  <TORSDO>
F 5

$$$$
=
 OpenBabel10232412373D

 37 41  0  0  1  0  0  0  0  0999 V2000
  190.7500  176.8610  139.0820 C   0  0  0  0  0  0  0  0  0  0  0  0
  188.3920  177.2690  138.0610 C   0  0  1  0  0  3  0  0  0  0  0  0
  189.8600  176.9740  137.9740 C   0  0  0  0  0  0  0  0  0  0  0  0
  190.3660  176.6500  136.7010 C   0  0  0  0  0  3  0  0  0  0  0  0
  185.6350  177.5970  138.1440 C   0  0  2  0  0  3  0  0  0  0  0  0
  188.6610  177.1120  142.2940 C   0  0  2  0  0  3  0  0  0  0  0  0
  188.0910  179.3460  141.1020 C   0  0  0  0  0  2  0  0  0  0  0  0
  192.0660  176.4380  138.8630 C   0  0  0  0  0  3  0  0  0  0  0  0
  188.5670  178.9680  139.8100 O   0  0  0  0  0  0  0  0  0  0  0  0
  192.5060  176.1210  137.5750 C   0  0  0  0  0  0  0  0  0  0  0  0
  186.1910  176.7070  137.2840 N   0  0  0  0  0  0  0  0  0  0  0  0
  187.5340  176.5380  137.2280 C   0  0  0  0  0  3  0  0  0  0  0  0
  186.4400  178.3380  138.9500 N   0  0  0  0  0  0  0  0  0  0  0  0
  187.7950  178.2070  138.9300 C   0  0  0  0  0  0  0  0  0  0  0  0
  189.3220  176.3890  141.1120 C   0  0  0  0  0  2  0  0  0  0  0  0
  190.4270  177.2310  140.4930 C   0  0  0  0  0  2  0  0  0  0  0  0
  187.5820  178.1280  141.8900 C   0  0  0  0  0  2  0  0  0  0  0  0
  191.6500  176.2440  136.5290 N   0  0  0  0  0  0  0  0  0  0  0  0
  184.1660  177.7360  138.2280 C   0  0  0  0  0  0  0  0  0  0  0  0
  181.5850  178.5930  140.6910 F   0  0  0  0  0  0  0  0  0  0  0  0
  181.9790  177.7200  137.1600 C   0  0  0  0  0  3  0  0  0  0  0  0
  181.3780  178.0620  138.3750 C   0  0  0  0  0  3  0  0  0  0  0  0
  183.3680  177.5600  137.0860 C   0  0  0  0  0  3  0  0  0  0  0  0
  183.5520  178.0830  139.4430 C   0  0  0  0  0  3  0  0  0  0  0  0
  182.1660  178.2430  139.5170 C   0  0  0  0  0  0  0  0  0  0  0  0
  194.7100  176.2760  136.4470 O   0  0  0  0  0  0  0  0  0  0  0  0
  193.8730  175.6360  137.3550 C   0  0  0  0  0  0  0  0  0  0  0  0
  194.3100  174.6500  138.0060 O   0  0  0  0  0  1  0  0  0  0  0  0
  189.6520  177.6890  143.2960 C   0  0  0  0  0  2  0  0  0  0  0  0
  189.8460  176.7060  144.4330 C   0  0  0  0  0  2  0  0  0  0  0  0
  189.8230  177.3060  146.8680 C   0  0  0  0  0  0  0  0  0  0  0  0
  187.7830  178.0680  147.9150 C   0  0  0  0  0  3  0  0  0  0  0  0
  189.1400  177.7500  148.0010 C   0  0  0  0  0  3  0  0  0  0  0  0
  191.1410  176.9960  146.9540 F   0  0  0  0  0  0  0  0  0  0  0  0
  187.8090  177.4950  145.5930 N   0  0  0  0  0  0  0  0  0  0  0  0
  187.1260  177.9300  146.6870 C   0  0  0  0  0  3  0  0  0  0  0  0
  189.1330  177.1810  145.6550 C   0  0  0  0  0  0  0  0  0  0  0  0
  1 16  1  0  0  0  0
  2 12  1  1  0  0  0
  2 14  1  0  0  0  0
  3  2  1  0  0  0  0
  3  1  2  0  0  0  0
  4  3  1  0  0  0  0
  5 19  1  1  0  0  0
  5 13  1  0  0  0  0
  6 29  1  6  0  0  0
  7 17  1  0  0  0  0
  8  1  1  0  0  0  0
  9  7  1  0  0  0  0
 10  8  2  0  0  0  0
 11  5  1  0  0  0  0
 12 11  2  0  0  0  0
 14 13  2  0  0  0  0
 14  9  1  0  0  0  0
 15  6  1  0  0  0  0
 16 15  1  0  0  0  0
 17  6  1  0  0  0  0
 18  4  2  0  0  0  0
 18 10  1  0  0  0  0
 19 24  1  0  0  0  0
 21 22  2  0  0  0  0
 22 25  1  0  0  0  0
 23 21  1  0  0  0  0
 23 19  2  0  0  0  0
 24 25  2  0  0  0  0
 25 20  1  0  0  0  0
 26 27  2  0  0  0  0
 27 10  1  0  0  0  0
 27 28  1  0  0  0  0
 29 30  1  0  0  0  0
 30 37  1  0  0  0  0
 31 34  1  0  0  0  0
 31 33  1  0  0  0  0
 32 33  2  0  0  0  0
 35 37  1  0  0  0  0
 35 36  2  0  0  0  0
 36 32  1  0  0  0  0
 37 31  2  0  0  0  0
M  END
>  <MODEL>
2

>  <REMARK>
 VINA RESULT:      -8.5      3.583      7.560
  Name = 
  5 active torsions:
  status: ('A' for Active; 'I' for Inactive)
    1  A    between atoms: C_3  and  C_7
    2  A    between atoms: C_10  and  C_25
    3  A    between atoms: CA_16  and  C_21
    4  A    between atoms: C_22  and  C_25
    5  A    between atoms: C_22  and  C_36
                            x       y       z     vdW  Elec       q    Type
                         _______ _______ _______ _____ _____    ______ ____

>  <TORSDO>
F 5

$$$$
=
 OpenBabel10232412373D

 37 41  0  0  1  0  0  0  0  0999 V2000
  189.1410  177.4480  144.3890 C   0  0  0  0  0  0  0  0  0  0  0  0
  189.6580  177.4490  141.8390 C   0  0  1  0  0  3  0  0  0  0  0  0
  190.0410  177.3590  143.2870 C   0  0  0  0  0  0  0  0  0  0  0  0
  191.3790  177.0260  143.5680 C   0  0  0  0  0  3  0  0  0  0  0  0
  189.0100  177.3880  139.1390 C   0  0  2  0  0  3  0  0  0  0  0  0
  185.5730  177.6130  142.9790 C   0  0  2  0  0  3  0  0  0  0  0  0
  186.6980  179.6600  141.8470 C   0  0  0  0  0  2  0  0  0  0  0  0
  189.6160  177.2010  145.6820 C   0  0  0  0  0  3  0  0  0  0  0  0
  188.0470  179.2670  142.1030 O   0  0  0  0  0  0  0  0  0  0  0  0
  190.9550  176.8640  145.8960 C   0  0  0  0  0  0  0  0  0  0  0  0
  189.9350  176.5300  139.6380 N   0  0  0  0  0  0  0  0  0  0  0  0
  190.2660  176.5490  140.9520 C   0  0  0  0  0  3  0  0  0  0  0  0
  188.4190  178.2870  139.9680 N   0  0  0  0  0  0  0  0  0  0  0  0
  188.7170  178.3480  141.2940 C   0  0  0  0  0  0  0  0  0  0  0  0
  186.8410  176.9140  143.4900 C   0  0  0  0  0  2  0  0  0  0  0  0
  187.7080  177.8610  144.3060 C   0  0  0  0  0  2  0  0  0  0  0  0
  185.7780  178.4380  141.7000 C   0  0  0  0  0  2  0  0  0  0  0  0
  191.8020  176.7950  144.8370 N   0  0  0  0  0  0  0  0  0  0  0  0
  188.6250  177.3220  137.7140 C   0  0  0  0  0  0  0  0  0  0  0  0
  185.6300  177.6520  135.6200 F   0  0  0  0  0  0  0  0  0  0  0  0
  189.2360  177.0880  135.3690 C   0  0  0  0  0  3  0  0  0  0  0  0
  187.8990  177.2610  134.9990 C   0  0  0  0  0  3  0  0  0  0  0  0
  189.5980  177.1210  136.7210 C   0  0  0  0  0  3  0  0  0  0  0  0
  187.2850  177.4980  137.3290 C   0  0  0  0  0  3  0  0  0  0  0  0
  186.9230  177.4660  135.9800 C   0  0  0  0  0  0  0  0  0  0  0  0
  192.2960  175.4910  147.4680 O   0  0  0  0  0  0  0  0  0  0  0  0
  191.4400  176.5650  147.2470 C   0  0  0  0  0  0  0  0  0  0  0  0
  191.1050  177.2940  148.2190 O   0  0  0  0  0  1  0  0  0  0  0  0
  184.8230  178.3900  144.0530 C   0  0  0  0  0  2  0  0  0  0  0  0
  183.9960  179.4790  143.4000 C   0  0  0  0  0  2  0  0  0  0  0  0
  182.1000  178.8210  141.8970 C   0  0  0  0  0  0  0  0  0  0  0  0
  179.9820  178.1380  142.8360 C   0  0  0  0  0  3  0  0  0  0  0  0
  180.7870  178.3840  141.7220 C   0  0  0  0  0  3  0  0  0  0  0  0
  182.8800  179.0620  140.8130 F   0  0  0  0  0  0  0  0  0  0  0  0
  181.7920  178.7660  144.2670 N   0  0  0  0  0  0  0  0  0  0  0  0
  180.5080  178.3390  144.1160 C   0  0  0  0  0  3  0  0  0  0  0  0
  182.5940  179.0110  143.1940 C   0  0  0  0  0  0  0  0  0  0  0  0
  1  8  1  0  0  0  0
  2 12  1  1  0  0  0
  2  3  1  0  0  0  0
  3  4  1  0  0  0  0
  3  1  2  0  0  0  0
  4 18  2  0  0  0  0
  5 19  1  1  0  0  0
  5 11  1  0  0  0  0
  5 13  1  0  0  0  0
  6 15  1  0  0  0  0
  6 29  1  1  0  0  0
  7  9  1  0  0  0  0
  8 10  2  0  0  0  0
 10 27  1  0  0  0  0
 11 12  2  0  0  0  0
 13 14  2  0  0  0  0
 14  2  1  0  0  0  0
 14  9  1  0  0  0  0
 15 16  1  0  0  0  0
 16  1  1  0  0  0  0
 17  7  1  0  0  0  0
 17  6  1  0  0  0  0
 18 10  1  0  0  0  0
 20 25  1  0  0  0  0
 21 23  1  0  0  0  0
 22 21  2  0  0  0  0
 22 25  1  0  0  0  0
 23 19  2  0  0  0  0
 24 19  1  0  0  0  0
 25 24  2  0  0  0  0
 27 26  2  0  0  0  0
 27 28  1  0  0  0  0
 30 29  1  0  0  0  0
 31 37  1  0  0  0  0
 32 36  2  0  0  0  0
 33 31  2  0  0  0  0
 33 32  1  0  0  0  0
 34 31  1  0  0  0  0
 36 35  1  0  0  0  0
 37 30  1  0  0  0  0
 37 35  2  0  0  0  0
M  END
>  <MODEL>
3

>  <REMARK>
 VINA RESULT:      -8.4      2.573      7.273
  Name = 
  5 active torsions:
  status: ('A' for Active; 'I' for Inactive)
    1  A    between atoms: C_3  and  C_7
    2  A    between atoms: C_10  and  C_25
    3  A    between atoms: CA_16  and  C_21
    4  A    between atoms: C_22  and  C_25
    5  A    between atoms: C_22  and  C_36
                            x       y       z     vdW  Elec       q    Type
                         _______ _______ _______ _____ _____    ______ ____

>  <TORSDO>
F 5

$$$$
=
 OpenBabel10232412373D

 37 41  0  0  1  0  0  0  0  0999 V2000
  186.2020  178.1170  143.7040 C   0  0  0  0  0  0  0  0  0  0  0  0
  187.7680  178.0190  145.7790 C   0  0  1  0  0  3  0  0  0  0  0  0
  186.4670  178.3090  145.0910 C   0  0  0  0  0  0  0  0  0  0  0  0
  185.3840  178.6720  145.9130 C   0  0  0  0  0  3  0  0  0  0  0  0
  190.0670  177.3090  147.1670 C   0  0  2  0  0  3  0  0  0  0  0  0
  189.2780  176.4270  142.1460 C   0  0  2  0  0  3  0  0  0  0  0  0
  190.3000  178.5910  143.1490 C   0  0  0  0  0  2  0  0  0  0  0  0
  184.8990  178.2910  143.2250 C   0  0  0  0  0  3  0  0  0  0  0  0
  189.2050  178.9050  144.0110 O   0  0  0  0  0  0  0  0  0  0  0  0
  183.8630  178.6430  144.0940 C   0  0  0  0  0  0  0  0  0  0  0  0
  188.8440  177.0510  147.6940 N   0  0  0  0  0  0  0  0  0  0  0  0
  187.7120  177.3940  147.0320 C   0  0  0  0  0  3  0  0  0  0  0  0
  190.1550  177.9340  145.9640 N   0  0  0  0  0  0  0  0  0  0  0  0
  189.0500  178.3010  145.2600 C   0  0  0  0  0  0  0  0  0  0  0  0
  187.9200  176.4670  142.8600 C   0  0  0  0  0  2  0  0  0  0  0  0
  187.2260  177.8060  142.6610 C   0  0  0  0  0  2  0  0  0  0  0  0
  190.4260  177.0750  142.9340 C   0  0  0  0  0  2  0  0  0  0  0  0
  184.1330  178.8330  145.4100 N   0  0  0  0  0  0  0  0  0  0  0  0
  191.2910  176.8850  147.8790 C   0  0  0  0  0  0  0  0  0  0  0  0
  193.4330  177.9990  150.6410 F   0  0  0  0  0  0  0  0  0  0  0  0
  193.0720  175.2660  148.2380 C   0  0  0  0  0  3  0  0  0  0  0  0
  193.5810  176.0490  149.2770 C   0  0  0  0  0  3  0  0  0  0  0  0
  191.9290  175.6810  147.5430 C   0  0  0  0  0  3  0  0  0  0  0  0
  191.8100  177.6630  148.9280 C   0  0  0  0  0  3  0  0  0  0  0  0
  192.9500  177.2490  149.6210 C   0  0  0  0  0  0  0  0  0  0  0  0
  182.2420  178.8860  142.2310 O   0  0  0  0  0  0  0  0  0  0  0  0
  182.4900  178.7830  143.5960 C   0  0  0  0  0  0  0  0  0  0  0  0
  181.5200  178.7850  144.4000 O   0  0  0  0  0  1  0  0  0  0  0  0
  189.2280  176.9040  140.7010 C   0  0  0  0  0  2  0  0  0  0  0  0
  190.6160  176.8230  140.0960 C   0  0  0  0  0  2  0  0  0  0  0  0
  190.0910  177.2150  137.6750 C   0  0  0  0  0  0  0  0  0  0  0  0
  190.4030  175.4460  136.0600 C   0  0  0  0  0  3  0  0  0  0  0  0
  190.0230  176.7560  136.3600 C   0  0  0  0  0  3  0  0  0  0  0  0
  189.7190  178.4880  137.9650 F   0  0  0  0  0  0  0  0  0  0  0  0
  190.9020  175.0760  138.3680 N   0  0  0  0  0  0  0  0  0  0  0  0
  190.8440  174.6100  137.0910 C   0  0  0  0  0  3  0  0  0  0  0  0
  190.5380  176.3500  138.6830 C   0  0  0  0  0  0  0  0  0  0  0  0
  1  3  1  0  0  0  0
  2 12  1  6  0  0  0
  3  2  1  0  0  0  0
  3  4  2  0  0  0  0
  5 11  1  0  0  0  0
  5 19  1  6  0  0  0
  6 29  1  6  0  0  0
  6 15  1  0  0  0  0
  6 17  1  0  0  0  0
  7  9  1  0  0  0  0
  8  1  2  0  0  0  0
  8 10  1  0  0  0  0
  9 14  1  0  0  0  0
 10 18  2  0  0  0  0
 12 11  2  0  0  0  0
 13  5  1  0  0  0  0
 14  2  1  0  0  0  0
 14 13  2  0  0  0  0
 16 15  1  0  0  0  0
 16  1  1  0  0  0  0
 17  7  1  0  0  0  0
 18  4  1  0  0  0  0
 19 24  1  0  0  0  0
 21 22  2  0  0  0  0
 22 25  1  0  0  0  0
 23 19  2  0  0  0  0
 23 21  1  0  0  0  0
 24 25  2  0  0  0  0
 25 20  1  0  0  0  0
 26 27  2  0  0  0  0
 27 10  1  0  0  0  0
 27 28  1  0  0  0  0
 30 29  1  0  0  0  0
 31 34  1  0  0  0  0
 31 37  1  0  0  0  0
 32 33  1  0  0  0  0
 32 36  2  0  0  0  0
 33 31  2  0  0  0  0
 35 37  2  0  0  0  0
 36 35  1  0  0  0  0
 37 30  1  0  0  0  0
M  END
>  <MODEL>
4

>  <REMARK>
 VINA RESULT:      -8.3      3.141      7.219
  Name = 
  5 active torsions:
  status: ('A' for Active; 'I' for Inactive)
    1  A    between atoms: C_3  and  C_7
    2  A    between atoms: C_10  and  C_25
    3  A    between atoms: CA_16  and  C_21
    4  A    between atoms: C_22  and  C_25
    5  A    between atoms: C_22  and  C_36
                            x       y       z     vdW  Elec       q    Type
                         _______ _______ _______ _____ _____    ______ ____

>  <TORSDO>
F 5

$$$$
=
 OpenBabel10232412373D

 37 41  0  0  1  0  0  0  0  0999 V2000
  185.2240  178.4320  138.8540 C   0  0  0  0  0  0  0  0  0  0  0  0
  186.3980  178.4380  141.1750 C   0  0  1  0  0  3  0  0  0  0  0  0
  185.2490  178.7130  140.2510 C   0  0  0  0  0  0  0  0  0  0  0  0
  184.0520  179.1590  140.8430 C   0  0  0  0  0  3  0  0  0  0  0  0
  188.3900  177.7690  142.9910 C   0  0  2  0  0  3  0  0  0  0  0  0
  188.4600  176.5620  137.9760 C   0  0  2  0  0  3  0  0  0  0  0  0
  189.3700  178.7640  139.0050 C   0  0  0  0  0  2  0  0  0  0  0  0
  184.0310  178.6050  138.1420 C   0  0  0  0  0  3  0  0  0  0  0  0
  188.1530  179.1630  139.6370 O   0  0  0  0  0  0  0  0  0  0  0  0
  182.8730  179.0420  138.7890 C   0  0  0  0  0  0  0  0  0  0  0  0
  187.0850  177.5780  143.3090 N   0  0  0  0  0  0  0  0  0  0  0  0
  186.1000  177.9030  142.4370 C   0  0  0  0  0  3  0  0  0  0  0  0
  188.7110  178.3060  141.7850 N   0  0  0  0  0  0  0  0  0  0  0  0
  187.7600  178.6510  140.8750 C   0  0  0  0  0  0  0  0  0  0  0  0
  187.0010  176.6850  138.4340 C   0  0  0  0  0  2  0  0  0  0  0  0
  186.4020  178.0250  138.0310 C   0  0  0  0  0  2  0  0  0  0  0  0
  189.4760  177.2340  138.9120 C   0  0  0  0  0  2  0  0  0  0  0  0
  182.9150  179.3170  140.1180 N   0  0  0  0  0  0  0  0  0  0  0  0
  189.4540  177.3640  143.9340 C   0  0  0  0  0  0  0  0  0  0  0  0
  190.1300  177.3720  147.5400 F   0  0  0  0  0  0  0  0  0  0  0  0
  191.6070  176.3150  144.3650 C   0  0  0  0  0  3  0  0  0  0  0  0
  191.4470  176.5380  145.7350 C   0  0  0  0  0  3  0  0  0  0  0  0
  190.6130  176.7230  143.4680 C   0  0  0  0  0  3  0  0  0  0  0  0
  189.3020  177.5810  145.3140 C   0  0  0  0  0  3  0  0  0  0  0  0
  190.2930  177.1730  146.2090 C   0  0  0  0  0  0  0  0  0  0  0  0
  180.4530  179.5830  138.7010 O   0  0  0  0  0  1  0  0  0  0  0  0
  181.6150  179.1820  138.0480 C   0  0  0  0  0  0  0  0  0  0  0  0
  181.5800  178.9640  136.8080 O   0  0  0  0  0  0  0  0  0  0  0  0
  188.6810  176.9390  136.5170 C   0  0  0  0  0  2  0  0  0  0  0  0
  189.2220  175.7390  135.7640 C   0  0  0  0  0  2  0  0  0  0  0  0
  188.7150  173.4820  136.7310 C   0  0  0  0  0  0  0  0  0  0  0  0
  186.6120  172.3960  136.2500 C   0  0  0  0  0  3  0  0  0  0  0  0
  187.8570  172.3930  136.8830 C   0  0  0  0  0  3  0  0  0  0  0  0
  189.9250  173.4770  137.3460 F   0  0  0  0  0  0  0  0  0  0  0  0
  187.0980  174.5480  135.3300 N   0  0  0  0  0  0  0  0  0  0  0  0
  186.2470  173.4950  135.4670 C   0  0  0  0  0  3  0  0  0  0  0  0
  188.3160  174.5670  135.9390 C   0  0  0  0  0  0  0  0  0  0  0  0
  1  3  1  0  0  0  0
  2 12  1  6  0  0  0
  3  4  2  0  0  0  0
  3  2  1  0  0  0  0
  5 11  1  0  0  0  0
  5 19  1  6  0  0  0
  6 29  1  6  0  0  0
  6 15  1  0  0  0  0
  6 17  1  0  0  0  0
  7  9  1  0  0  0  0
  8 10  1  0  0  0  0
  8  1  2  0  0  0  0
  9 14  1  0  0  0  0
 10 18  2  0  0  0  0
 12 11  2  0  0  0  0
 13  5  1  0  0  0  0
 14  2  1  0  0  0  0
 14 13  2  0  0  0  0
 16 15  1  0  0  0  0
 16  1  1  0  0  0  0
 17  7  1  0  0  0  0
 18  4  1  0  0  0  0
 19 24  1  0  0  0  0
 21 22  2  0  0  0  0
 22 25  1  0  0  0  0
 23 19  2  0  0  0  0
 23 21  1  0  0  0  0
 24 25  2  0  0  0  0
 25 20  1  0  0  0  0
 27 26  1  0  0  0  0
 27 10  1  0  0  0  0
 28 27  2  0  0  0  0
 30 37  1  0  0  0  0
 30 29  1  0  0  0  0
 31 33  1  0  0  0  0
 31 34  1  0  0  0  0
 32 33  2  0  0  0  0
 35 36  2  0  0  0  0
 35 37  1  0  0  0  0
 36 32  1  0  0  0  0
 37 31  2  0  0  0  0
M  END
>  <MODEL>
5

>  <REMARK>
 VINA RESULT:      -7.7      4.186      8.113
  Name = 
  5 active torsions:
  status: ('A' for Active; 'I' for Inactive)
    1  A    between atoms: C_3  and  C_7
    2  A    between atoms: C_10  and  C_25
    3  A    between atoms: CA_16  and  C_21
    4  A    between atoms: C_22  and  C_25
    5  A    between atoms: C_22  and  C_36
                            x       y       z     vdW  Elec       q    Type
                         _______ _______ _______ _____ _____    ______ ____

>  <TORSDO>
F 5

$$$$
=
 OpenBabel10232412373D

 37 41  0  0  1  0  0  0  0  0999 V2000
  185.2200  178.4160  138.8060 C   0  0  0  0  0  0  0  0  0  0  0  0
  186.3930  178.4330  141.1280 C   0  0  1  0  0  3  0  0  0  0  0  0
  185.2460  178.7070  140.2010 C   0  0  0  0  0  0  0  0  0  0  0  0
  184.0520  179.1630  140.7900 C   0  0  0  0  0  3  0  0  0  0  0  0
  188.3820  177.7650  142.9490 C   0  0  2  0  0  3  0  0  0  0  0  0
  188.4470  176.5240  137.9420 C   0  0  2  0  0  3  0  0  0  0  0  0
  189.3680  178.7280  138.9560 C   0  0  0  0  0  2  0  0  0  0  0  0
  184.0290  178.5910  138.0920 C   0  0  0  0  0  3  0  0  0  0  0  0
  188.1530  179.1380  139.5860 O   0  0  0  0  0  0  0  0  0  0  0  0
  182.8720  179.0390  138.7370 C   0  0  0  0  0  0  0  0  0  0  0  0
  187.0750  177.5830  143.2680 N   0  0  0  0  0  0  0  0  0  0  0  0
  186.0930  177.9080  142.3930 C   0  0  0  0  0  3  0  0  0  0  0  0
  188.7050  178.2930  141.7400 N   0  0  0  0  0  0  0  0  0  0  0  0
  187.7560  178.6370  140.8270 C   0  0  0  0  0  0  0  0  0  0  0  0
  186.9880  176.6580  138.3990 C   0  0  0  0  0  2  0  0  0  0  0  0
  186.3960  177.9970  137.9870 C   0  0  0  0  0  2  0  0  0  0  0  0
  189.4660  177.1970  138.8740 C   0  0  0  0  0  2  0  0  0  0  0  0
  182.9160  179.3220  140.0640 N   0  0  0  0  0  0  0  0  0  0  0  0
  189.4430  177.3620  143.8940 C   0  0  0  0  0  0  0  0  0  0  0  0
  190.0890  177.3280  147.5060 F   0  0  0  0  0  0  0  0  0  0  0  0
  191.6070  176.3350  144.3290 C   0  0  0  0  0  3  0  0  0  0  0  0
  191.4320  176.5370  145.7010 C   0  0  0  0  0  3  0  0  0  0  0  0
  190.6150  176.7430  143.4290 C   0  0  0  0  0  3  0  0  0  0  0  0
  189.2770  177.5570  145.2770 C   0  0  0  0  0  3  0  0  0  0  0  0
  190.2670  177.1490  146.1740 C   0  0  0  0  0  0  0  0  0  0  0  0
  181.5430  178.8170  136.6540 O   0  0  0  0  0  0  0  0  0  0  0  0
  181.6150  179.1800  137.9950 C   0  0  0  0  0  0  0  0  0  0  0  0
  180.5810  179.6080  138.5730 O   0  0  0  0  0  1  0  0  0  0  0  0
  188.6700  176.8890  136.4810 C   0  0  0  0  0  2  0  0  0  0  0  0
  189.0600  175.6470  135.7050 C   0  0  0  0  0  2  0  0  0  0  0  0
  190.8230  174.2170  136.7720 C   0  0  0  0  0  0  0  0  0  0  0  0
  193.1630  174.6960  136.4080 C   0  0  0  0  0  3  0  0  0  0  0  0
  192.1660  173.9150  136.9970 C   0  0  0  0  0  3  0  0  0  0  0  0
  189.8560  173.4580  137.3460 F   0  0  0  0  0  0  0  0  0  0  0  0
  191.4790  176.0570  135.3930 N   0  0  0  0  0  0  0  0  0  0  0  0
  192.7950  175.7770  135.6010 C   0  0  0  0  0  3  0  0  0  0  0  0
  190.4910  175.3080  135.9560 C   0  0  0  0  0  0  0  0  0  0  0  0
  1  3  1  0  0  0  0
  2 12  1  6  0  0  0
  3  4  2  0  0  0  0
  3  2  1  0  0  0  0
  5 11  1  0  0  0  0
  5 19  1  6  0  0  0
  6 29  1  6  0  0  0
  6 15  1  0  0  0  0
  6 17  1  0  0  0  0
  7  9  1  0  0  0  0
  8 10  1  0  0  0  0
  8  1  2  0  0  0  0
  9 14  1  0  0  0  0
 10 18  2  0  0  0  0
 12 11  2  0  0  0  0
 13  5  1  0  0  0  0
 14  2  1  0  0  0  0
 14 13  2  0  0  0  0
 16 15  1  0  0  0  0
 16  1  1  0  0  0  0
 17  7  1  0  0  0  0
 18  4  1  0  0  0  0
 19 24  1  0  0  0  0
 21 22  2  0  0  0  0
 22 25  1  0  0  0  0
 23 19  2  0  0  0  0
 23 21  1  0  0  0  0
 24 25  2  0  0  0  0
 25 20  1  0  0  0  0
 26 27  2  0  0  0  0
 27 28  1  0  0  0  0
 27 10  1  0  0  0  0
 30 37  1  0  0  0  0
 30 29  1  0  0  0  0
 31 33  1  0  0  0  0
 31 34  1  0  0  0  0
 32 33  2  0  0  0  0
 35 36  2  0  0  0  0
 35 37  1  0  0  0  0
 36 32  1  0  0  0  0
 37 31  2  0  0  0  0
M  END
>  <MODEL>
6

>  <REMARK>
 VINA RESULT:      -7.7      3.718      7.819
  Name = 
  5 active torsions:
  status: ('A' for Active; 'I' for Inactive)
    1  A    between atoms: C_3  and  C_7
    2  A    between atoms: C_10  and  C_25
    3  A    between atoms: CA_16  and  C_21
    4  A    between atoms: C_22  and  C_25
    5  A    between atoms: C_22  and  C_36
                            x       y       z     vdW  Elec       q    Type
                         _______ _______ _______ _____ _____    ______ ____

>  <TORSDO>
F 5

$$$$
=
 OpenBabel10232412373D

 37 41  0  0  1  0  0  0  0  0999 V2000
  186.7070  178.1240  143.0660 C   0  0  0  0  0  0  0  0  0  0  0  0
  188.0220  177.9210  145.3010 C   0  0  1  0  0  3  0  0  0  0  0  0
  186.7930  178.1970  144.4870 C   0  0  0  0  0  0  0  0  0  0  0  0
  185.5980  178.4130  145.1980 C   0  0  0  0  0  3  0  0  0  0  0  0
  190.1870  177.2190  146.8940 C   0  0  2  0  0  3  0  0  0  0  0  0
  190.0570  176.7810  141.7560 C   0  0  2  0  0  3  0  0  0  0  0  0
  190.7970  178.8960  143.0660 C   0  0  0  0  0  2  0  0  0  0  0  0
  185.4600  178.2650  142.4470 C   0  0  0  0  0  3  0  0  0  0  0  0
  189.5890  179.0580  143.8100 O   0  0  0  0  0  0  0  0  0  0  0  0
  184.3060  178.4680  143.2090 C   0  0  0  0  0  0  0  0  0  0  0  0
  188.9320  176.8380  147.2420 N   0  0  0  0  0  0  0  0  0  0  0  0
  187.8640  177.1750  146.4780 C   0  0  0  0  0  3  0  0  0  0  0  0
  190.3710  177.9620  145.7720 N   0  0  0  0  0  0  0  0  0  0  0  0
  189.3320  178.3280  144.9720 C   0  0  0  0  0  0  0  0  0  0  0  0
  188.6260  176.6700  142.2980 C   0  0  0  0  0  2  0  0  0  0  0  0
  187.8660  177.9780  142.1350 C   0  0  0  0  0  2  0  0  0  0  0  0
  191.0560  177.4180  142.7340 C   0  0  0  0  0  2  0  0  0  0  0  0
  184.4060  178.5470  144.5610 N   0  0  0  0  0  0  0  0  0  0  0  0
  191.3460  176.8030  147.7110 C   0  0  0  0  0  0  0  0  0  0  0  0
  193.3430  178.0210  150.5380 F   0  0  0  0  0  0  0  0  0  0  0  0
  193.0400  175.1540  148.2870 C   0  0  0  0  0  3  0  0  0  0  0  0
  193.5090  175.9850  149.3080 C   0  0  0  0  0  3  0  0  0  0  0  0
  191.9610  175.5590  147.4930 C   0  0  0  0  0  3  0  0  0  0  0  0
  191.8230  177.6290  148.7430 C   0  0  0  0  0  3  0  0  0  0  0  0
  192.9000  177.2240  149.5350 C   0  0  0  0  0  0  0  0  0  0  0  0
  181.8510  178.8090  143.3170 O   0  0  0  0  0  1  0  0  0  0  0  0
  182.9950  178.5730  142.5610 C   0  0  0  0  0  0  0  0  0  0  0  0
  182.8960  178.4760  141.3090 O   0  0  0  0  0  0  0  0  0  0  0  0
  190.1430  177.3920  140.3630 C   0  0  0  0  0  2  0  0  0  0  0  0
  189.9520  176.3040  139.3250 C   0  0  0  0  0  2  0  0  0  0  0  0
  188.5170  175.8190  137.3270 C   0  0  0  0  0  0  0  0  0  0  0  0
  186.7490  177.3410  136.7000 C   0  0  0  0  0  3  0  0  0  0  0  0
  187.4700  176.1660  136.4730 C   0  0  0  0  0  3  0  0  0  0  0  0
  189.2170  174.6770  137.1050 F   0  0  0  0  0  0  0  0  0  0  0  0
  188.1200  177.8010  138.6040 N   0  0  0  0  0  0  0  0  0  0  0  0
  187.0950  178.1560  137.7820 C   0  0  0  0  0  3  0  0  0  0  0  0
  188.8350  176.6590  138.4030 C   0  0  0  0  0  0  0  0  0  0  0  0
  1  3  1  0  0  0  0
  2 12  1  6  0  0  0
  3  4  2  0  0  0  0
  3  2  1  0  0  0  0
  5 11  1  0  0  0  0
  5 19  1  6  0  0  0
  6 29  1  6  0  0  0
  6 15  1  0  0  0  0
  6 17  1  0  0  0  0
  7  9  1  0  0  0  0
  8  1  2  0  0  0  0
  8 10  1  0  0  0  0
  9 14  1  0  0  0  0
 10 18  2  0  0  0  0
 12 11  2  0  0  0  0
 13  5  1  0  0  0  0
 14  2  1  0  0  0  0
 14 13  2  0  0  0  0
 16 15  1  0  0  0  0
 16  1  1  0  0  0  0
 17  7  1  0  0  0  0
 18  4  1  0  0  0  0
 19 24  1  0  0  0  0
 21 22  2  0  0  0  0
 22 25  1  0  0  0  0
 23 19  2  0  0  0  0
 23 21  1  0  0  0  0
 24 25  2  0  0  0  0
 25 20  1  0  0  0  0
 27 10  1  0  0  0  0
 27 26  1  0  0  0  0
 28 27  2  0  0  0  0
 30 29  1  0  0  0  0
 31 37  1  0  0  0  0
 32 36  2  0  0  0  0
 33 32  1  0  0  0  0
 33 31  2  0  0  0  0
 34 31  1  0  0  0  0
 36 35  1  0  0  0  0
 37 35  2  0  0  0  0
 37 30  1  0  0  0  0
M  END
>  <MODEL>
7

>  <REMARK>
 VINA RESULT:      -7.5      3.377      7.398
  Name = 
  5 active torsions:
  status: ('A' for Active; 'I' for Inactive)
    1  A    between atoms: C_3  and  C_7
    2  A    between atoms: C_10  and  C_25
    3  A    between atoms: CA_16  and  C_21
    4  A    between atoms: C_22  and  C_25
    5  A    between atoms: C_22  and  C_36
                            x       y       z     vdW  Elec       q    Type
                         _______ _______ _______ _____ _____    ______ ____

>  <TORSDO>
F 5

$$$$
=
 OpenBabel10232412373D

 37 41  0  0  1  0  0  0  0  0999 V2000
  191.9850  176.4560  138.0430 C   0  0  0  0  0  0  0  0  0  0  0  0
  189.6230  176.2290  136.9780 C   0  0  1  0  0  3  0  0  0  0  0  0
  191.1220  176.1840  136.9430 C   0  0  0  0  0  0  0  0  0  0  0  0
  191.7120  175.7010  135.7600 C   0  0  0  0  0  3  0  0  0  0  0  0
  186.8490  176.0790  137.0130 C   0  0  2  0  0  3  0  0  0  0  0  0
  189.7940  176.9850  141.1510 C   0  0  2  0  0  3  0  0  0  0  0  0
  188.8810  178.7950  139.5310 C   0  0  0  0  0  2  0  0  0  0  0  0
  193.3610  176.2330  137.9060 C   0  0  0  0  0  3  0  0  0  0  0  0
  189.4520  178.2510  138.3400 O   0  0  0  0  0  0  0  0  0  0  0  0
  193.8860  175.7430  136.7070 C   0  0  0  0  0  0  0  0  0  0  0  0
  187.5750  175.1440  136.3500 N   0  0  0  0  0  0  0  0  0  0  0  0
  188.9290  175.2040  136.3190 C   0  0  0  0  0  3  0  0  0  0  0  0
  187.4910  177.0970  137.6430 N   0  0  0  0  0  0  0  0  0  0  0  0
  188.8480  177.2040  137.6410 C   0  0  0  0  0  0  0  0  0  0  0  0
  190.6040  176.1640  140.1380 C   0  0  0  0  0  2  0  0  0  0  0  0
  191.5640  177.0430  139.3500 C   0  0  0  0  0  2  0  0  0  0  0  0
  188.5680  177.6930  140.5550 C   0  0  0  0  0  2  0  0  0  0  0  0
  193.0520  175.4990  135.6640 N   0  0  0  0  0  0  0  0  0  0  0  0
  185.3770  175.9730  137.0780 C   0  0  0  0  0  0  0  0  0  0  0  0
  182.7800  173.3930  137.3290 F   0  0  0  0  0  0  0  0  0  0  0  0
  183.1860  177.0260  137.1960 C   0  0  0  0  0  3  0  0  0  0  0  0
  182.5800  175.7680  137.2650 C   0  0  0  0  0  3  0  0  0  0  0  0
  184.5790  177.1280  137.1050 C   0  0  0  0  0  3  0  0  0  0  0  0
  184.7570  174.7130  137.1520 C   0  0  0  0  0  3  0  0  0  0  0  0
  183.3670  174.6120  137.2420 C   0  0  0  0  0  0  0  0  0  0  0  0
  195.9030  174.4150  137.2750 O   0  0  0  0  0  1  0  0  0  0  0  0
  195.3220  175.4710  136.5810 C   0  0  0  0  0  0  0  0  0  0  0  0
  196.0370  176.1770  135.8210 O   0  0  0  0  0  0  0  0  0  0  0  0
  190.6420  177.9180  142.0050 C   0  0  0  0  0  2  0  0  0  0  0  0
  191.2910  177.1260  143.1230 C   0  0  0  0  0  2  0  0  0  0  0  0
  191.0050  176.7550  145.5860 C   0  0  0  0  0  0  0  0  0  0  0  0
  189.0150  177.5350  146.7120 C   0  0  0  0  0  3  0  0  0  0  0  0
  190.2540  176.8910  146.7540 C   0  0  0  0  0  3  0  0  0  0  0  0
  192.2080  176.1280  145.6280 F   0  0  0  0  0  0  0  0  0  0  0  0
  189.2910  177.8870  144.3630 N   0  0  0  0  0  0  0  0  0  0  0  0
  188.5440  178.0310  145.4920 C   0  0  0  0  0  3  0  0  0  0  0  0
  190.5020  177.2640  144.3810 C   0  0  0  0  0  0  0  0  0  0  0  0
  1 16  1  0  0  0  0
  2 12  1  1  0  0  0
  2 14  1  0  0  0  0
  3  2  1  0  0  0  0
  3  1  2  0  0  0  0
  4  3  1  0  0  0  0
  5 19  1  1  0  0  0
  5 13  1  0  0  0  0
  6 29  1  6  0  0  0
  7 17  1  0  0  0  0
  8  1  1  0  0  0  0
  9  7  1  0  0  0  0
 10  8  2  0  0  0  0
 11  5  1  0  0  0  0
 12 11  2  0  0  0  0
 14 13  2  0  0  0  0
 14  9  1  0  0  0  0
 15  6  1  0  0  0  0
 16 15  1  0  0  0  0
 17  6  1  0  0  0  0
 18  4  2  0  0  0  0
 18 10  1  0  0  0  0
 19 23  2  0  0  0  0
 19 24  1  0  0  0  0
 21 22  2  0  0  0  0
 23 21  1  0  0  0  0
 24 25  2  0  0  0  0
 25 22  1  0  0  0  0
 25 20  1  0  0  0  0
 27 10  1  0  0  0  0
 27 26  1  0  0  0  0
 28 27  2  0  0  0  0
 29 30  1  0  0  0  0
 30 37  1  0  0  0  0
 31 34  1  0  0  0  0
 31 33  1  0  0  0  0
 32 33  2  0  0  0  0
 35 37  1  0  0  0  0
 35 36  2  0  0  0  0
 36 32  1  0  0  0  0
 37 31  2  0  0  0  0
M  END
>  <MODEL>
8

>  <REMARK>
 VINA RESULT:      -7.5      4.220      8.009
  Name = 
  5 active torsions:
  status: ('A' for Active; 'I' for Inactive)
    1  A    between atoms: C_3  and  C_7
    2  A    between atoms: C_10  and  C_25
    3  A    between atoms: CA_16  and  C_21
    4  A    between atoms: C_22  and  C_25
    5  A    between atoms: C_22  and  C_36
                            x       y       z     vdW  Elec       q    Type
                         _______ _______ _______ _____ _____    ______ ____

>  <TORSDO>
F 5

$$$$
=
 OpenBabel10232412373D

 37 41  0  0  1  0  0  0  0  0999 V2000
  189.9350  177.3850  140.1850 C   0  0  0  0  0  0  0  0  0  0  0  0
  187.7320  177.5860  138.8160 C   0  0  1  0  0  3  0  0  0  0  0  0
  189.2200  177.4540  138.9540 C   0  0  0  0  0  0  0  0  0  0  0  0
  189.9490  177.2450  137.7680 C   0  0  0  0  0  3  0  0  0  0  0  0
  184.9760  177.6150  138.4710 C   0  0  2  0  0  3  0  0  0  0  0  0
  187.3620  177.2610  143.0320 C   0  0  2  0  0  3  0  0  0  0  0  0
  186.7340  179.4750  141.8310 C   0  0  0  0  0  2  0  0  0  0  0  0
  191.3090  177.1140  140.1640 C   0  0  0  0  0  3  0  0  0  0  0  0
  187.4430  179.2100  140.6200 O   0  0  0  0  0  0  0  0  0  0  0  0
  191.9750  176.9070  138.9540 C   0  0  0  0  0  0  0  0  0  0  0  0
  185.7550  176.8300  137.6840 N   0  0  0  0  0  0  0  0  0  0  0  0
  187.1010  176.8070  137.8360 C   0  0  0  0  0  3  0  0  0  0  0  0
  185.5590  178.3980  139.4150 N   0  0  0  0  0  0  0  0  0  0  0  0
  186.9060  178.4130  139.6070 C   0  0  0  0  0  0  0  0  0  0  0  0
  188.2740  176.6690  141.9490 C   0  0  0  0  0  2  0  0  0  0  0  0
  189.3600  177.6520  141.5370 C   0  0  0  0  0  2  0  0  0  0  0  0
  186.2510  178.1740  142.4920 C   0  0  0  0  0  2  0  0  0  0  0  0
  191.2820  176.9870  137.7890 N   0  0  0  0  0  0  0  0  0  0  0  0
  183.5060  177.5920  138.3250 C   0  0  0  0  0  0  0  0  0  0  0  0
  180.5040  177.2790  140.4120 F   0  0  0  0  0  0  0  0  0  0  0  0
  181.5180  177.7850  136.9350 C   0  0  0  0  0  3  0  0  0  0  0  0
  180.7080  177.6110  138.0600 C   0  0  0  0  0  3  0  0  0  0  0  0
  182.9120  177.7780  137.0670 C   0  0  0  0  0  3  0  0  0  0  0  0
  182.6810  177.4210  139.4510 C   0  0  0  0  0  3  0  0  0  0  0  0
  181.2900  177.4290  139.3180 C   0  0  0  0  0  0  0  0  0  0  0  0
  194.2330  176.9950  139.9770 O   0  0  0  0  0  1  0  0  0  0  0  0
  193.4050  176.5820  138.9390 C   0  0  0  0  0  0  0  0  0  0  0  0
  193.8920  175.9030  137.9960 O   0  0  0  0  0  0  0  0  0  0  0  0
  188.1160  177.8930  144.1940 C   0  0  0  0  0  2  0  0  0  0  0  0
  189.6070  177.7440  143.9660 C   0  0  0  0  0  2  0  0  0  0  0  0
  191.4340  176.4270  145.0690 C   0  0  0  0  0  0  0  0  0  0  0  0
  191.4680  176.1660  147.4700 C   0  0  0  0  0  3  0  0  0  0  0  0
  192.0350  175.9140  146.2190 C   0  0  0  0  0  3  0  0  0  0  0  0
  191.9850  176.1810  143.8530 F   0  0  0  0  0  0  0  0  0  0  0  0
  189.7270  177.4210  146.4160 N   0  0  0  0  0  0  0  0  0  0  0  0
  190.2990  176.9290  147.5490 C   0  0  0  0  0  3  0  0  0  0  0  0
  190.2640  177.1890  145.1860 C   0  0  0  0  0  0  0  0  0  0  0  0
  1 16  1  0  0  0  0
  2 12  1  1  0  0  0
  2  3  1  0  0  0  0
  2 14  1  0  0  0  0
  3  1  2  0  0  0  0
  4 18  2  0  0  0  0
  4  3  1  0  0  0  0
  5 19  1  1  0  0  0
  5 13  1  0  0  0  0
  6 29  1  1  0  0  0
  7 17  1  0  0  0  0
  8  1  1  0  0  0  0
  9  7  1  0  0  0  0
 10  8  2  0  0  0  0
 11 12  2  0  0  0  0
 11  5  1  0  0  0  0
 13 14  2  0  0  0  0
 14  9  1  0  0  0  0
 15  6  1  0  0  0  0
 16 15  1  0  0  0  0
 17  6  1  0  0  0  0
 18 10  1  0  0  0  0
 19 24  1  0  0  0  0
 21 23  1  0  0  0  0
 21 22  2  0  0  0  0
 22 25  1  0  0  0  0
 23 19  2  0  0  0  0
 25 24  2  0  0  0  0
 25 20  1  0  0  0  0
 27 10  1  0  0  0  0
 27 26  1  0  0  0  0
 28 27  2  0  0  0  0
 30 29  1  0  0  0  0
 30 37  1  0  0  0  0
 31 37  2  0  0  0  0
 31 33  1  0  0  0  0
 32 36  1  0  0  0  0
 33 32  2  0  0  0  0
 34 31  1  0  0  0  0
 35 36  2  0  0  0  0
 37 35  1  0  0  0  0
M  END
>  <MODEL>
9

>  <REMARK>
 VINA RESULT:      -7.0      3.194      6.714
  Name = 
  5 active torsions:
  status: ('A' for Active; 'I' for Inactive)
    1  A    between atoms: C_3  and  C_7
    2  A    between atoms: C_10  and  C_25
    3  A    between atoms: CA_16  and  C_21
    4  A    between atoms: C_22  and  C_25
    5  A    between atoms: C_22  and  C_36
                            x       y       z     vdW  Elec       q    Type
                         _______ _______ _______ _____ _____    ______ ____

>  <TORSDO>
F 5

$$$$
