=
 OpenBabel10232411563D

 37 42  0  0  1  0  0  0  0  0999 V2000
  190.0610  177.4540  139.8050 C   0  0  2  0  0  3  0  0  0  0  0  0
  189.0990  178.5440  141.8060 C   0  0  0  0  0  2  0  0  0  0  0  0
  187.7580  177.8260  142.0330 C   0  0  0  0  0  2  0  0  0  0  0  0
  188.9030  176.6410  144.0370 C   0  0  2  0  0  3  0  0  0  0  0  0
  190.4120  176.4410  141.9570 C   0  0  0  0  0  2  0  0  0  0  0  0
  190.1840  177.7080  141.2510 N   0  0  0  0  0  0  0  0  0  0  0  0
  190.3430  176.5970  143.4800 C   0  0  2  0  0  3  0  0  0  0  0  0
  187.8190  176.5920  142.9420 C   0  0  0  0  0  2  0  0  0  0  0  0
  191.0180  175.5500  144.0760 F   0  0  0  0  0  0  0  0  0  0  0  0
  188.8870  177.2510  147.4270 C   0  0  1  0  0  3  0  0  0  0  0  0
  189.6900  177.6850  146.1970 C   0  0  0  0  0  2  0  0  0  0  0  0
  189.1980  178.1670  148.5920 C   0  0  0  0  0  1  0  0  0  0  0  0
  187.5270  177.3810  147.0660 O   0  0  0  0  0  0  0  0  0  0  0  0
  186.2810  177.8870  145.1860 O   0  0  0  0  0  0  0  0  0  0  0  0
  187.3980  177.6830  145.7290 C   0  0  0  0  0  0  0  0  0  0  0  0
  188.7010  177.7980  145.0300 C   0  0  2  0  0  3  0  0  0  0  0  0
  193.1950  176.4360  137.9530 C   0  0  0  0  0  2  0  0  0  0  0  0
  191.2190  175.1350  138.3760 N   0  0  0  0  0  1  0  0  0  0  0  0
  193.7030  176.7670  139.2850 N   0  0  0  0  0  2  0  0  0  0  0  0
  191.6860  176.4610  137.9990 C   0  0  1  0  0  3  0  0  0  0  0  0
  192.5970  177.3580  140.0330 C   0  0  0  0  0  2  0  0  0  0  0  0
  191.4220  177.4820  139.0890 C   0  0  2  0  0  3  0  0  0  0  0  0
  189.0530  178.2910  139.1520 N   0  0  0  0  0  2  0  0  0  0  0  0
  186.7980  177.4100  138.7860 C   0  0  0  0  0  2  0  0  0  0  0  0
  185.9030  177.9830  136.5090 C   0  0  2  0  0  3  0  0  0  0  0  0
  183.6870  179.2840  138.7930 C   0  0  0  0  0  2  0  0  0  0  0  0
  188.2530  177.4300  138.2950 C   0  0  1  0  0  3  0  0  0  0  0  0
  183.9070  178.0870  139.7130 C   0  0  0  0  0  2  0  0  0  0  0  0
  187.4300  177.7510  134.5450 C   0  0  0  0  0  1  0  0  0  0  0  0
  187.2190  177.3700  135.9990 C   0  0  1  0  0  3  0  0  0  0  0  0
  184.1170  177.3240  135.0810 F   0  0  0  0  0  0  0  0  0  0  0  0
  188.4010  177.8610  136.8290 C   0  0  0  0  0  2  0  0  0  0  0  0
  185.8930  178.3470  137.9790 C   0  0  1  0  0  3  0  0  0  0  0  0
  184.4500  178.0760  138.3010 C   0  0  0  0  0  0  0  0  0  0  0  0
  183.7410  177.3520  137.3320 O   0  0  0  0  0  0  0  0  0  0  0  0
  184.6830  177.0740  136.3190 C   0  0  0  0  0  0  0  0  0  0  0  0
  185.0410  175.7360  136.3970 F   0  0  0  0  0  0  0  0  0  0  0  0
  1 23  1  6  0  0  0
  1  6  1  0  0  0  0
  2  3  1  0  0  0  0
  3  8  1  0  0  0  0
  4  8  1  6  0  0  0
  4 16  1  0  0  0  0
  5  7  1  0  0  0  0
  6  2  1  0  0  0  0
  6  5  1  0  0  0  0
  7  4  1  0  0  0  0
  7  9  1  1  0  0  0
 10 12  1  1  0  0  0
 11 10  1  0  0  0  0
 13 10  1  0  0  0  0
 14 15  2  0  0  0  0
 15 13  1  0  0  0  0
 16 15  1  0  0  0  0
 16 11  1  1  0  0  0
 17 20  1  0  0  0  0
 17 19  1  0  0  0  0
 19 21  1  0  0  0  0
 20 18  1  1  0  0  0
 20 22  1  0  0  0  0
 22  1  1  1  0  0  0
 22 21  1  0  0  0  0
 25 36  1  1  0  0  0
 25 33  1  0  0  0  0
 26 28  1  0  0  0  0
 27 24  1  0  0  0  0
 27 23  1  1  0  0  0
 30 29  1  6  0  0  0
 30 25  1  0  0  0  0
 30 32  1  0  0  0  0
 31 36  1  0  0  0  0
 32 27  1  0  0  0  0
 33 34  1  0  0  0  0
 33 24  1  1  0  0  0
 34 26  1  0  0  0  0
 34 28  1  0  0  0  0
 35 34  1  0  0  0  0
 36 37  1  0  0  0  0
 36 35  1  0  0  0  0
M  END
>  <MODEL>
1

>  <REMARK>
 VINA RESULT:      -9.0      0.000      0.000
  Name = 
  5 active torsions:
  status: ('A' for Active; 'I' for Inactive)
    1  A    between atoms: N_3  and  C_7
    2  A    between atoms: N_3  and  C_10
    3  A    between atoms: C_10  and  N_26
    4  A    between atoms: C_10  and  C_32
    5  A    between atoms: C_22  and  C_37
                            x       y       z     vdW  Elec       q    Type
                         _______ _______ _______ _____ _____    ______ ____

>  <TORSDO>
F 5

$$$$
=
 OpenBabel10232411563D

 37 42  0  0  1  0  0  0  0  0999 V2000
  189.6270  177.4820  140.3060 C   0  0  2  0  0  3  0  0  0  0  0  0
  189.3110  176.2820  142.4460 C   0  0  0  0  0  2  0  0  0  0  0  0
  190.6530  175.5740  142.6970 C   0  0  0  0  0  2  0  0  0  0  0  0
  191.0850  177.3670  144.5220 C   0  0  2  0  0  3  0  0  0  0  0  0
  190.3550  178.5330  142.3420 C   0  0  0  0  0  2  0  0  0  0  0  0
  189.3960  177.5870  141.7570 N   0  0  0  0  0  0  0  0  0  0  0  0
  190.3140  178.5380  143.8750 C   0  0  2  0  0  3  0  0  0  0  0  0
  191.6820  176.3830  143.4970 C   0  0  0  0  0  2  0  0  0  0  0  0
  190.8390  179.7270  144.3400 F   0  0  0  0  0  0  0  0  0  0  0  0
  189.3240  178.1000  147.3900 C   0  0  1  0  0  3  0  0  0  0  0  0
  189.0440  177.5170  146.0020 C   0  0  0  0  0  2  0  0  0  0  0  0
  188.1460  177.8360  148.3040 C   0  0  0  0  0  1  0  0  0  0  0  0
  190.4650  177.4180  147.8730 O   0  0  0  0  0  0  0  0  0  0  0  0
  192.0080  175.8780  147.1060 O   0  0  0  0  0  0  0  0  0  0  0  0
  191.0090  176.6140  146.8980 C   0  0  0  0  0  0  0  0  0  0  0  0
  190.2620  176.6670  145.6160 C   0  0  2  0  0  3  0  0  0  0  0  0
  186.8380  178.4190  137.9330 C   0  0  0  0  0  2  0  0  0  0  0  0
  189.0280  179.3900  138.1240 N   0  0  0  0  0  1  0  0  0  0  0  0
  186.2290  178.6370  139.2460 N   0  0  0  0  0  2  0  0  0  0  0  0
  188.3060  178.1260  138.1320 C   0  0  1  0  0  3  0  0  0  0  0  0
  187.1620  178.1220  140.2450 C   0  0  0  0  0  2  0  0  0  0  0  0
  188.3150  177.4800  139.5040 C   0  0  2  0  0  3  0  0  0  0  0  0
  190.5230  176.3840  139.9390 N   0  0  0  0  0  2  0  0  0  0  0  0
  192.7770  176.4150  138.9800 C   0  0  0  0  0  2  0  0  0  0  0  0
  192.8750  175.3050  136.7280 C   0  0  2  0  0  3  0  0  0  0  0  0
  195.0960  173.6290  138.7470 C   0  0  0  0  0  2  0  0  0  0  0  0
  191.3070  176.8200  138.7930 C   0  0  1  0  0  3  0  0  0  0  0  0
  195.4720  174.9330  139.4440 C   0  0  0  0  0  2  0  0  0  0  0  0
  191.0520  175.7910  135.0890 C   0  0  0  0  0  1  0  0  0  0  0  0
  191.7160  176.2540  136.3730 C   0  0  1  0  0  3  0  0  0  0  0  0
  194.3690  175.1550  134.8810 F   0  0  0  0  0  0  0  0  0  0  0  0
  190.6840  176.2880  137.4950 C   0  0  0  0  0  2  0  0  0  0  0  0
  193.1360  175.1400  138.2100 C   0  0  1  0  0  3  0  0  0  0  0  0
  194.6280  174.9530  138.1880 C   0  0  0  0  0  0  0  0  0  0  0  0
  195.2590  175.2770  136.9780 O   0  0  0  0  0  0  0  0  0  0  0  0
  194.2230  175.7270  136.1330 C   0  0  0  0  0  0  0  0  0  0  0  0
  194.3080  177.1070  136.0190 F   0  0  0  0  0  0  0  0  0  0  0  0
  1 23  1  1  0  0  0
  1  6  1  0  0  0  0
  2  3  1  0  0  0  0
  3  8  1  0  0  0  0
  4  8  1  6  0  0  0
  4 16  1  0  0  0  0
  5  7  1  0  0  0  0
  6  5  1  0  0  0  0
  6  2  1  0  0  0  0
  7  9  1  1  0  0  0
  7  4  1  0  0  0  0
 10 13  1  0  0  0  0
 10 12  1  1  0  0  0
 11 10  1  0  0  0  0
 15 14  2  0  0  0  0
 15 13  1  0  0  0  0
 16 11  1  1  0  0  0
 16 15  1  0  0  0  0
 17 20  1  0  0  0  0
 17 19  1  0  0  0  0
 19 21  1  0  0  0  0
 20 18  1  1  0  0  0
 20 22  1  0  0  0  0
 22 21  1  0  0  0  0
 22  1  1  1  0  0  0
 25 36  1  6  0  0  0
 25 33  1  0  0  0  0
 26 28  1  0  0  0  0
 27 24  1  0  0  0  0
 27 23  1  1  0  0  0
 30 29  1  6  0  0  0
 30 25  1  0  0  0  0
 30 32  1  0  0  0  0
 31 36  1  0  0  0  0
 32 27  1  0  0  0  0
 33 24  1  1  0  0  0
 34 33  1  0  0  0  0
 34 26  1  0  0  0  0
 34 28  1  0  0  0  0
 35 34  1  0  0  0  0
 36 35  1  0  0  0  0
 37 36  1  0  0  0  0
M  END
>  <MODEL>
2

>  <REMARK>
 VINA RESULT:      -8.8      3.633      6.121
  Name = 
  5 active torsions:
  status: ('A' for Active; 'I' for Inactive)
    1  A    between atoms: N_3  and  C_7
    2  A    between atoms: N_3  and  C_10
    3  A    between atoms: C_10  and  N_26
    4  A    between atoms: C_10  and  C_32
    5  A    between atoms: C_22  and  C_37
                            x       y       z     vdW  Elec       q    Type
                         _______ _______ _______ _____ _____    ______ ____

>  <TORSDO>
F 5

$$$$
=
 OpenBabel10232411563D

 37 42  0  0  1  0  0  0  0  0999 V2000
  189.8210  177.3740  143.8360 C   0  0  2  0  0  3  0  0  0  0  0  0
  189.5160  176.1590  141.7030 C   0  0  0  0  0  2  0  0  0  0  0  0
  188.6950  177.1180  140.8240 C   0  0  0  0  0  2  0  0  0  0  0  0
  190.8900  177.5470  139.5070 C   0  0  2  0  0  3  0  0  0  0  0  0
  191.3500  177.8020  142.0310 C   0  0  0  0  0  2  0  0  0  0  0  0
  190.4620  176.8030  142.6380 N   0  0  0  0  0  0  0  0  0  0  0  0
  191.8900  177.3550  140.6670 C   0  0  2  0  0  3  0  0  0  0  0  0
  189.5170  178.0840  139.9610 C   0  0  0  0  0  2  0  0  0  0  0  0
  193.0430  178.0590  140.3810 F   0  0  0  0  0  0  0  0  0  0  0  0
  192.4400  176.0610  136.8140 C   0  0  1  0  0  3  0  0  0  0  0  0
  192.1740  175.7470  138.2890 C   0  0  0  0  0  2  0  0  0  0  0  0
  192.8990  174.8090  136.0960 C   0  0  0  0  0  1  0  0  0  0  0  0
  191.2030  176.4920  136.2810 O   0  0  0  0  0  0  0  0  0  0  0  0
  189.0710  176.9670  137.0360 O   0  0  0  0  0  0  0  0  0  0  0  0
  190.2610  176.6320  137.2740 C   0  0  0  0  0  0  0  0  0  0  0  0
  190.7800  176.2940  138.6220 C   0  0  2  0  0  3  0  0  0  0  0  0
  192.1460  176.1160  146.5380 C   0  0  0  0  0  2  0  0  0  0  0  0
  191.4970  175.0260  144.4960 N   0  0  0  0  0  1  0  0  0  0  0  0
  190.8890  176.3090  147.2610 N   0  0  0  0  0  2  0  0  0  0  0  0
  191.8820  176.3090  145.0640 C   0  0  1  0  0  3  0  0  0  0  0  0
  189.9650  176.9770  146.3490 C   0  0  0  0  0  2  0  0  0  0  0  0
  190.7240  177.2890  145.0780 C   0  0  2  0  0  3  0  0  0  0  0  0
  188.4720  176.8590  144.0740 N   0  0  0  0  0  2  0  0  0  0  0  0
  186.8320  178.4290  143.1560 C   0  0  0  0  0  2  0  0  0  0  0  0
  184.6370  178.3440  144.3760 C   0  0  2  0  0  3  0  0  0  0  0  0
  183.9590  177.6320  141.0820 C   0  0  0  0  0  2  0  0  0  0  0  0
  187.6190  177.9920  144.4000 C   0  0  1  0  0  3  0  0  0  0  0  0
  185.0270  178.6230  140.6310 C   0  0  0  0  0  2  0  0  0  0  0  0
  184.6750  178.2370  146.8720 C   0  0  0  0  0  1  0  0  0  0  0  0
  185.4960  178.5500  145.6360 C   0  0  1  0  0  3  0  0  0  0  0  0
  182.6480  179.6390  144.5540 F   0  0  0  0  0  0  0  0  0  0  0  0
  186.7280  177.6510  145.6030 C   0  0  0  0  0  2  0  0  0  0  0  0
  185.3980  177.8890  143.1490 C   0  0  1  0  0  3  0  0  0  0  0  0
  184.5930  178.5740  142.0800 C   0  0  0  0  0  0  0  0  0  0  0  0
  183.7010  179.5570  142.5320 O   0  0  0  0  0  0  0  0  0  0  0  0
  183.8830  179.6020  143.9300 C   0  0  0  0  0  0  0  0  0  0  0  0
  184.5920  180.7490  144.2500 F   0  0  0  0  0  0  0  0  0  0  0  0
  1 23  1  1  0  0  0
  2  6  1  0  0  0  0
  3  2  1  0  0  0  0
  4  8  1  1  0  0  0
  4  7  1  0  0  0  0
  5  6  1  0  0  0  0
  6  1  1  0  0  0  0
  7  9  1  6  0  0  0
  7  5  1  0  0  0  0
  8  3  1  0  0  0  0
 10 12  1  6  0  0  0
 10 11  1  0  0  0  0
 13 10  1  0  0  0  0
 13 15  1  0  0  0  0
 14 15  2  0  0  0  0
 15 16  1  0  0  0  0
 16 11  1  6  0  0  0
 16  4  1  0  0  0  0
 17 19  1  0  0  0  0
 20 18  1  1  0  0  0
 20 22  1  0  0  0  0
 20 17  1  0  0  0  0
 21 19  1  0  0  0  0
 22  1  1  6  0  0  0
 22 21  1  0  0  0  0
 24 27  1  0  0  0  0
 25 36  1  6  0  0  0
 25 30  1  0  0  0  0
 26 34  1  0  0  0  0
 27 23  1  6  0  0  0
 27 32  1  0  0  0  0
 28 26  1  0  0  0  0
 28 34  1  0  0  0  0
 30 29  1  1  0  0  0
 32 30  1  0  0  0  0
 33 24  1  1  0  0  0
 33 25  1  0  0  0  0
 34 35  1  0  0  0  0
 34 33  1  0  0  0  0
 35 36  1  0  0  0  0
 36 37  1  0  0  0  0
 36 31  1  0  0  0  0
M  END
>  <MODEL>
3

>  <REMARK>
 VINA RESULT:      -8.2      3.637      7.269
  Name = 
  5 active torsions:
  status: ('A' for Active; 'I' for Inactive)
    1  A    between atoms: N_3  and  C_7
    2  A    between atoms: N_3  and  C_10
    3  A    between atoms: C_10  and  N_26
    4  A    between atoms: C_10  and  C_32
    5  A    between atoms: C_22  and  C_37
                            x       y       z     vdW  Elec       q    Type
                         _______ _______ _______ _____ _____    ______ ____

>  <TORSDO>
F 5

$$$$
=
 OpenBabel10232411563D

 37 42  0  0  1  0  0  0  0  0999 V2000
  187.7690  177.9750  141.0710 C   0  0  2  0  0  3  0  0  0  0  0  0
  187.8730  176.6920  143.1840 C   0  0  0  0  0  2  0  0  0  0  0  0
  188.9940  175.6630  142.9590 C   0  0  0  0  0  2  0  0  0  0  0  0
  190.4450  177.1220  144.5390 C   0  0  2  0  0  3  0  0  0  0  0  0
  189.3680  178.6280  142.7450 C   0  0  0  0  0  2  0  0  0  0  0  0
  188.0610  177.9970  142.5150 N   0  0  0  0  0  0  0  0  0  0  0  0
  189.8330  178.4990  144.2000 C   0  0  2  0  0  3  0  0  0  0  0  0
  190.4000  176.1230  143.3660 C   0  0  0  0  0  2  0  0  0  0  0  0
  190.7690  179.4790  144.4660 F   0  0  0  0  0  0  0  0  0  0  0  0
  189.2750  178.1530  147.6110 C   0  0  1  0  0  3  0  0  0  0  0  0
  188.7380  177.4230  146.3760 C   0  0  0  0  0  2  0  0  0  0  0  0
  188.3100  177.9850  148.7650 C   0  0  0  0  0  1  0  0  0  0  0  0
  190.5060  177.5310  147.9230 O   0  0  0  0  0  0  0  0  0  0  0  0
  191.9020  175.9220  147.0260 O   0  0  0  0  0  0  0  0  0  0  0  0
  190.8630  176.6280  146.9470 C   0  0  0  0  0  0  0  0  0  0  0  0
  189.8750  176.5410  145.8440 C   0  0  2  0  0  3  0  0  0  0  0  0
  190.1660  177.9820  138.1490 C   0  0  0  0  0  2  0  0  0  0  0  0
  187.7970  178.3840  138.1400 N   0  0  0  0  0  1  0  0  0  0  0  0
  190.3020  176.6220  138.6710 N   0  0  0  0  0  2  0  0  0  0  0  0
  189.0250  178.6580  138.8710 C   0  0  1  0  0  3  0  0  0  0  0  0
  189.5560  176.5660  139.9260 C   0  0  0  0  0  2  0  0  0  0  0  0
  189.0480  177.9610  140.2170 C   0  0  2  0  0  3  0  0  0  0  0  0
  186.8160  179.0060  140.6560 N   0  0  0  0  0  2  0  0  0  0  0  0
  184.7910  178.1560  141.7400 C   0  0  0  0  0  2  0  0  0  0  0  0
  182.7040  179.2380  140.8530 C   0  0  2  0  0  3  0  0  0  0  0  0
  182.7670  179.8480  144.2350 C   0  0  0  0  0  2  0  0  0  0  0  0
  185.5390  178.3520  140.4130 C   0  0  1  0  0  3  0  0  0  0  0  0
  183.3720  178.4710  144.4890 C   0  0  0  0  0  2  0  0  0  0  0  0
  182.4950  179.5570  138.3830 C   0  0  0  0  0  1  0  0  0  0  0  0
  183.2490  178.8210  139.4750 C   0  0  1  0  0  3  0  0  0  0  0  0
  180.3510  178.8830  140.9130 F   0  0  0  0  0  0  0  0  0  0  0  0
  184.7370  179.1370  139.3650 C   0  0  0  0  0  2  0  0  0  0  0  0
  183.7210  179.2270  141.9740 C   0  0  1  0  0  3  0  0  0  0  0  0
  182.8340  178.8300  143.1210 C   0  0  0  0  0  0  0  0  0  0  0  0
  181.5690  178.3400  142.7650 O   0  0  0  0  0  0  0  0  0  0  0  0
  181.5530  178.3580  141.3540 C   0  0  0  0  0  0  0  0  0  0  0  0
  181.6820  177.0570  140.8910 F   0  0  0  0  0  0  0  0  0  0  0  0
  1 23  1  6  0  0  0
  1  6  1  0  0  0  0
  3  2  1  0  0  0  0
  3  8  1  0  0  0  0
  4  8  1  6  0  0  0
  4 16  1  0  0  0  0
  5  7  1  0  0  0  0
  6  5  1  0  0  0  0
  6  2  1  0  0  0  0
  7  9  1  6  0  0  0
  7  4  1  0  0  0  0
 10 13  1  0  0  0  0
 10 12  1  1  0  0  0
 11 10  1  0  0  0  0
 15 14  2  0  0  0  0
 15 13  1  0  0  0  0
 16 11  1  1  0  0  0
 16 15  1  0  0  0  0
 17 19  1  0  0  0  0
 17 20  1  0  0  0  0
 19 21  1  0  0  0  0
 20 18  1  6  0  0  0
 20 22  1  0  0  0  0
 21 22  1  0  0  0  0
 22  1  1  6  0  0  0
 25 36  1  1  0  0  0
 25 33  1  0  0  0  0
 26 28  1  0  0  0  0
 27 23  1  1  0  0  0
 27 24  1  0  0  0  0
 30 29  1  6  0  0  0
 30 25  1  0  0  0  0
 31 36  1  0  0  0  0
 32 30  1  0  0  0  0
 32 27  1  0  0  0  0
 33 24  1  6  0  0  0
 33 34  1  0  0  0  0
 34 26  1  0  0  0  0
 34 28  1  0  0  0  0
 35 34  1  0  0  0  0
 36 35  1  0  0  0  0
 37 36  1  0  0  0  0
M  END
>  <MODEL>
4

>  <REMARK>
 VINA RESULT:      -8.1      2.869      4.109
  Name = 
  5 active torsions:
  status: ('A' for Active; 'I' for Inactive)
    1  A    between atoms: N_3  and  C_7
    2  A    between atoms: N_3  and  C_10
    3  A    between atoms: C_10  and  N_26
    4  A    between atoms: C_10  and  C_32
    5  A    between atoms: C_22  and  C_37
                            x       y       z     vdW  Elec       q    Type
                         _______ _______ _______ _____ _____    ______ ____

>  <TORSDO>
F 5

$$$$
=
 OpenBabel10232411563D

 37 42  0  0  1  0  0  0  0  0999 V2000
  187.9800  178.0570  140.1390 C   0  0  2  0  0  3  0  0  0  0  0  0
  188.4930  178.8090  142.4390 C   0  0  0  0  0  2  0  0  0  0  0  0
  187.3200  178.2920  143.2880 C   0  0  0  0  0  2  0  0  0  0  0  0
  188.9660  176.5090  144.2060 C   0  0  2  0  0  3  0  0  0  0  0  0
  189.0950  176.5380  141.6310 C   0  0  0  0  0  2  0  0  0  0  0  0
  188.8820  177.9530  141.2990 N   0  0  0  0  0  0  0  0  0  0  0  0
  189.8530  176.3540  142.9520 C   0  0  2  0  0  3  0  0  0  0  0  0
  187.5070  176.8910  143.8840 C   0  0  0  0  0  2  0  0  0  0  0  0
  190.4350  175.1020  142.9710 F   0  0  0  0  0  0  0  0  0  0  0  0
  190.8910  176.3300  147.0570 C   0  0  1  0  0  3  0  0  0  0  0  0
  191.0010  176.9130  145.6450 C   0  0  0  0  0  2  0  0  0  0  0  0
  191.9820  176.9050  147.9360 C   0  0  0  0  0  1  0  0  0  0  0  0
  189.6250  176.7300  147.5430 O   0  0  0  0  0  0  0  0  0  0  0  0
  187.7420  177.8210  146.7620 O   0  0  0  0  0  0  0  0  0  0  0  0
  188.8880  177.3430  146.5550 C   0  0  0  0  0  0  0  0  0  0  0  0
  189.6070  177.4270  145.2600 C   0  0  2  0  0  3  0  0  0  0  0  0
  189.2920  177.5480  136.6310 C   0  0  0  0  0  2  0  0  0  0  0  0
  187.4670  176.4290  137.7210 N   0  0  0  0  0  1  0  0  0  0  0  0
  190.4570  177.2330  137.4570 N   0  0  0  0  0  2  0  0  0  0  0  0
  188.0980  177.7270  137.5380 C   0  0  1  0  0  3  0  0  0  0  0  0
  190.1160  177.5820  138.8340 C   0  0  0  0  0  2  0  0  0  0  0  0
  188.7460  178.2240  138.8160 C   0  0  2  0  0  3  0  0  0  0  0  0
  186.9210  179.0520  140.3150 N   0  0  0  0  0  2  0  0  0  0  0  0
  184.9530  178.1550  141.4650 C   0  0  0  0  0  2  0  0  0  0  0  0
  182.8150  179.2110  140.6710 C   0  0  2  0  0  3  0  0  0  0  0  0
  182.9980  179.7830  144.0560 C   0  0  0  0  0  2  0  0  0  0  0  0
  185.6460  178.3800  140.1130 C   0  0  1  0  0  3  0  0  0  0  0  0
  183.6350  178.4130  144.2700 C   0  0  0  0  0  2  0  0  0  0  0  0
  182.5070  179.5550  138.2150 C   0  0  0  0  0  1  0  0  0  0  0  0
  183.3140  178.8200  139.2690 C   0  0  1  0  0  3  0  0  0  0  0  0
  180.4730  178.8150  140.8170 F   0  0  0  0  0  0  0  0  0  0  0  0
  184.7920  179.1630  139.1060 C   0  0  0  0  0  2  0  0  0  0  0  0
  183.8750  179.2050  141.7530 C   0  0  1  0  0  3  0  0  0  0  0  0
  183.0390  178.7780  142.9280 C   0  0  0  0  0  0  0  0  0  0  0  0
  181.7700  178.2710  142.6130 O   0  0  0  0  0  0  0  0  0  0  0  0
  181.7000  178.3050  141.2050 C   0  0  0  0  0  0  0  0  0  0  0  0
  181.8320  177.0130  140.7210 F   0  0  0  0  0  0  0  0  0  0  0  0
  1 23  1  1  0  0  0
  1  6  1  0  0  0  0
  2  3  1  0  0  0  0
  3  8  1  0  0  0  0
  4  8  1  6  0  0  0
  4 16  1  0  0  0  0
  5  7  1  0  0  0  0
  6  5  1  0  0  0  0
  6  2  1  0  0  0  0
  7  9  1  6  0  0  0
  7  4  1  0  0  0  0
 10 13  1  0  0  0  0
 10 12  1  1  0  0  0
 11 10  1  0  0  0  0
 15 14  2  0  0  0  0
 15 13  1  0  0  0  0
 16 11  1  1  0  0  0
 16 15  1  0  0  0  0
 17 19  1  0  0  0  0
 17 20  1  0  0  0  0
 19 21  1  0  0  0  0
 20 18  1  1  0  0  0
 20 22  1  0  0  0  0
 22 21  1  0  0  0  0
 22  1  1  1  0  0  0
 25 36  1  1  0  0  0
 25 33  1  0  0  0  0
 26 28  1  0  0  0  0
 27 23  1  1  0  0  0
 27 24  1  0  0  0  0
 30 29  1  6  0  0  0
 30 25  1  0  0  0  0
 31 36  1  0  0  0  0
 32 30  1  0  0  0  0
 32 27  1  0  0  0  0
 33 24  1  6  0  0  0
 33 34  1  0  0  0  0
 34 26  1  0  0  0  0
 34 28  1  0  0  0  0
 35 34  1  0  0  0  0
 36 35  1  0  0  0  0
 37 36  1  0  0  0  0
M  END
>  <MODEL>
5

>  <REMARK>
 VINA RESULT:      -7.8      2.570      3.707
  Name = 
  5 active torsions:
  status: ('A' for Active; 'I' for Inactive)
    1  A    between atoms: N_3  and  C_7
    2  A    between atoms: N_3  and  C_10
    3  A    between atoms: C_10  and  N_26
    4  A    between atoms: C_10  and  C_32
    5  A    between atoms: C_22  and  C_37
                            x       y       z     vdW  Elec       q    Type
                         _______ _______ _______ _____ _____    ______ ____

>  <TORSDO>
F 5

$$$$
=
 OpenBabel10232411563D

 37 42  0  0  1  0  0  0  0  0999 V2000
  187.3950  177.4510  138.1800 C   0  0  2  0  0  3  0  0  0  0  0  0
  189.7820  178.0060  137.8400 C   0  0  0  0  0  2  0  0  0  0  0  0
  190.4540  177.6660  139.1810 C   0  0  0  0  0  2  0  0  0  0  0  0
  191.4450  175.5870  137.9850 C   0  0  2  0  0  3  0  0  0  0  0  0
  188.9100  175.7010  137.5310 C   0  0  0  0  0  2  0  0  0  0  0  0
  188.6440  177.1430  137.4600 N   0  0  0  0  0  0  0  0  0  0  0  0
  190.2950  175.3330  136.9860 C   0  0  2  0  0  3  0  0  0  0  0  0
  190.9800  176.2300  139.3070 C   0  0  0  0  0  2  0  0  0  0  0  0
  190.3040  173.9990  136.6290 F   0  0  0  0  0  0  0  0  0  0  0  0
  193.7530  175.2100  135.4560 C   0  0  1  0  0  3  0  0  0  0  0  0
  192.6000  176.1530  135.8120 C   0  0  0  0  0  2  0  0  0  0  0  0
  194.5860  175.8140  134.3460 C   0  0  0  0  0  1  0  0  0  0  0  0
  194.5330  175.0920  136.6290 O   0  0  0  0  0  0  0  0  0  0  0  0
  194.4430  175.7720  138.8370 O   0  0  0  0  0  0  0  0  0  0  0  0
  193.9180  175.7100  137.6940 C   0  0  0  0  0  0  0  0  0  0  0  0
  192.6210  176.3350  137.3360 C   0  0  2  0  0  3  0  0  0  0  0  0
  184.4030  177.2700  135.8770 C   0  0  0  0  0  2  0  0  0  0  0  0
  185.3090  175.5500  137.2890 N   0  0  0  0  0  1  0  0  0  0  0  0
  185.4940  177.5990  134.9590 N   0  0  0  0  0  2  0  0  0  0  0  0
  184.9960  176.9700  137.2330 C   0  0  1  0  0  3  0  0  0  0  0  0
  186.6730  177.8810  135.7750 C   0  0  0  0  0  2  0  0  0  0  0  0
  186.2480  177.8240  137.2250 C   0  0  2  0  0  3  0  0  0  0  0  0
  187.5740  178.4180  139.2640 N   0  0  0  0  0  2  0  0  0  0  0  0
  188.2370  177.4070  141.3950 C   0  0  0  0  0  2  0  0  0  0  0  0
  187.2610  178.6130  143.3720 C   0  0  2  0  0  3  0  0  0  0  0  0
  190.6760  178.6860  143.7610 C   0  0  0  0  0  2  0  0  0  0  0  0
  187.0660  177.8090  140.4850 C   0  0  1  0  0  3  0  0  0  0  0  0
  190.7910  177.2870  143.1640 C   0  0  0  0  0  2  0  0  0  0  0  0
  184.8650  179.3140  143.2650 C   0  0  0  0  0  1  0  0  0  0  0  0
  185.9200  178.4170  142.6430 C   0  0  1  0  0  3  0  0  0  0  0  0
  186.9560  178.2500  145.7040 F   0  0  0  0  0  0  0  0  0  0  0  0
  186.0570  178.7480  141.1610 C   0  0  0  0  0  2  0  0  0  0  0  0
  188.4910  178.4270  142.5080 C   0  0  1  0  0  3  0  0  0  0  0  0
  189.4360  177.8540  143.5280 C   0  0  0  0  0  0  0  0  0  0  0  0
  188.8450  177.4250  144.7250 O   0  0  0  0  0  0  0  0  0  0  0  0
  187.4640  177.6630  144.5580 C   0  0  0  0  0  0  0  0  0  0  0  0
  186.8260  176.4510  144.3430 F   0  0  0  0  0  0  0  0  0  0  0  0
  1 23  1  1  0  0  0
  2  3  1  0  0  0  0
  3  8  1  0  0  0  0
  4  8  1  1  0  0  0
  6  5  1  0  0  0  0
  6  2  1  0  0  0  0
  6  1  1  0  0  0  0
  7  9  1  1  0  0  0
  7  5  1  0  0  0  0
  7  4  1  0  0  0  0
 10 12  1  6  0  0  0
 10 11  1  0  0  0  0
 10 13  1  0  0  0  0
 13 15  1  0  0  0  0
 15 14  2  0  0  0  0
 16 11  1  6  0  0  0
 16 15  1  0  0  0  0
 16  4  1  0  0  0  0
 17 20  1  0  0  0  0
 19 21  1  0  0  0  0
 19 17  1  0  0  0  0
 20 18  1  6  0  0  0
 21 22  1  0  0  0  0
 22 20  1  0  0  0  0
 22  1  1  1  0  0  0
 25 36  1  1  0  0  0
 27 23  1  6  0  0  0
 27 32  1  0  0  0  0
 27 24  1  0  0  0  0
 28 34  1  0  0  0  0
 28 26  1  0  0  0  0
 30 29  1  1  0  0  0
 30 25  1  0  0  0  0
 32 30  1  0  0  0  0
 33 24  1  6  0  0  0
 33 25  1  0  0  0  0
 33 34  1  0  0  0  0
 34 26  1  0  0  0  0
 34 35  1  0  0  0  0
 36 35  1  0  0  0  0
 36 31  1  0  0  0  0
 37 36  1  0  0  0  0
M  END
>  <MODEL>
6

>  <REMARK>
 VINA RESULT:      -7.7      3.537      7.983
  Name = 
  5 active torsions:
  status: ('A' for Active; 'I' for Inactive)
    1  A    between atoms: N_3  and  C_7
    2  A    between atoms: N_3  and  C_10
    3  A    between atoms: C_10  and  N_26
    4  A    between atoms: C_10  and  C_32
    5  A    between atoms: C_22  and  C_37
                            x       y       z     vdW  Elec       q    Type
                         _______ _______ _______ _____ _____    ______ ____

>  <TORSDO>
F 5

$$$$
=
 OpenBabel10232411563D

 37 42  0  0  1  0  0  0  0  0999 V2000
  189.9050  177.0440  138.9810 C   0  0  2  0  0  3  0  0  0  0  0  0
  189.6440  176.2350  141.3040 C   0  0  0  0  0  2  0  0  0  0  0  0
  190.7040  177.0080  142.1060 C   0  0  0  0  0  2  0  0  0  0  0  0
  188.7400  178.4050  143.0680 C   0  0  2  0  0  3  0  0  0  0  0  0
  188.5350  178.3070  140.5000 C   0  0  0  0  0  2  0  0  0  0  0  0
  189.0400  176.9680  140.1720 N   0  0  0  0  0  0  0  0  0  0  0  0
  187.7990  178.3430  141.8450 C   0  0  2  0  0  3  0  0  0  0  0  0
  190.2350  178.3440  142.6980 C   0  0  0  0  0  2  0  0  0  0  0  0
  186.9590  179.4390  141.8750 F   0  0  0  0  0  0  0  0  0  0  0  0
  186.9090  178.2030  145.9800 C   0  0  1  0  0  3  0  0  0  0  0  0
  186.8890  177.5860  144.5780 C   0  0  0  0  0  2  0  0  0  0  0  0
  186.0000  177.4170  146.9000 C   0  0  0  0  0  1  0  0  0  0  0  0
  188.2470  178.0990  146.4270 O   0  0  0  0  0  0  0  0  0  0  0  0
  190.2990  177.4380  145.5950 O   0  0  0  0  0  0  0  0  0  0  0  0
  189.0700  177.6480  145.4210 C   0  0  0  0  0  0  0  0  0  0  0  0
  188.3490  177.3850  144.1520 C   0  0  2  0  0  3  0  0  0  0  0  0
  187.8500  178.2180  136.0340 C   0  0  0  0  0  2  0  0  0  0  0  0
  188.9800  179.5420  137.6910 N   0  0  0  0  0  1  0  0  0  0  0  0
  186.8880  177.4230  136.7980 N   0  0  0  0  0  2  0  0  0  0  0  0
  189.1100  178.3590  136.8540 C   0  0  1  0  0  3  0  0  0  0  0  0
  187.6310  176.7600  137.8680 C   0  0  0  0  0  2  0  0  0  0  0  0
  189.0960  177.0830  137.6740 C   0  0  2  0  0  3  0  0  0  0  0  0
  190.9650  176.0340  138.9680 N   0  0  0  0  0  2  0  0  0  0  0  0
  193.3610  176.0860  138.4660 C   0  0  0  0  0  2  0  0  0  0  0  0
  193.9180  174.8840  136.3310 C   0  0  2  0  0  3  0  0  0  0  0  0
  195.7330  173.3590  138.8210 C   0  0  0  0  0  2  0  0  0  0  0  0
  191.9490  176.4420  137.9770 C   0  0  1  0  0  3  0  0  0  0  0  0
  195.9410  174.7020  139.5140 C   0  0  0  0  0  2  0  0  0  0  0  0
  192.4420  175.2490  134.3480 C   0  0  0  0  0  1  0  0  0  0  0  0
  192.8340  175.7840  135.7130 C   0  0  1  0  0  3  0  0  0  0  0  0
  195.7470  174.6970  134.8190 F   0  0  0  0  0  0  0  0  0  0  0  0
  191.6010  175.8380  136.6100 C   0  0  0  0  0  2  0  0  0  0  0  0
  193.8880  174.7900  137.8420 C   0  0  1  0  0  3  0  0  0  0  0  0
  195.3590  174.6440  138.1190 C   0  0  0  0  0  0  0  0  0  0  0  0
  196.2080  174.9340  137.0410 O   0  0  0  0  0  0  0  0  0  0  0  0
  195.3490  175.3180  135.9900 C   0  0  0  0  0  0  0  0  0  0  0  0
  195.4290  176.6930  135.8290 F   0  0  0  0  0  0  0  0  0  0  0  0
  1 23  1  6  0  0  0
  1  6  1  0  0  0  0
  2  3  1  0  0  0  0
  3  8  1  0  0  0  0
  4  8  1  6  0  0  0
  4 16  1  0  0  0  0
  5  7  1  0  0  0  0
  6  5  1  0  0  0  0
  6  2  1  0  0  0  0
  7  9  1  6  0  0  0
  7  4  1  0  0  0  0
 10 13  1  0  0  0  0
 10 12  1  1  0  0  0
 11 10  1  0  0  0  0
 15 14  2  0  0  0  0
 15 13  1  0  0  0  0
 16 11  1  1  0  0  0
 16 15  1  0  0  0  0
 17 19  1  0  0  0  0
 17 20  1  0  0  0  0
 19 21  1  0  0  0  0
 20 22  1  0  0  0  0
 20 18  1  1  0  0  0
 22 21  1  0  0  0  0
 22  1  1  1  0  0  0
 25 36  1  1  0  0  0
 25 33  1  0  0  0  0
 26 28  1  0  0  0  0
 27 24  1  0  0  0  0
 27 23  1  1  0  0  0
 30 29  1  6  0  0  0
 30 25  1  0  0  0  0
 30 32  1  0  0  0  0
 31 36  1  0  0  0  0
 32 27  1  0  0  0  0
 33 34  1  0  0  0  0
 33 24  1  1  0  0  0
 34 26  1  0  0  0  0
 34 28  1  0  0  0  0
 35 34  1  0  0  0  0
 36 35  1  0  0  0  0
 37 36  1  0  0  0  0
M  END
>  <MODEL>
7

>  <REMARK>
 VINA RESULT:      -7.6      3.764      6.578
  Name = 
  5 active torsions:
  status: ('A' for Active; 'I' for Inactive)
    1  A    between atoms: N_3  and  C_7
    2  A    between atoms: N_3  and  C_10
    3  A    between atoms: C_10  and  N_26
    4  A    between atoms: C_10  and  C_32
    5  A    between atoms: C_22  and  C_37
                            x       y       z     vdW  Elec       q    Type
                         _______ _______ _______ _____ _____    ______ ____

>  <TORSDO>
F 5

$$$$
=
 OpenBabel10232411563D

 37 42  0  0  1  0  0  0  0  0999 V2000
  188.4200  177.6300  138.0890 C   0  0  2  0  0  3  0  0  0  0  0  0
  190.8860  177.5860  138.2740 C   0  0  0  0  0  2  0  0  0  0  0  0
  191.1970  176.2690  139.0040 C   0  0  0  0  0  2  0  0  0  0  0  0
  192.0090  175.3640  136.7120 C   0  0  2  0  0  3  0  0  0  0  0  0
  189.6840  176.4410  136.4250 C   0  0  0  0  0  2  0  0  0  0  0  0
  189.7090  177.5570  137.3800 N   0  0  0  0  0  0  0  0  0  0  0  0
  191.0590  176.1720  135.8020 C   0  0  2  0  0  3  0  0  0  0  0  0
  191.4120  175.0500  138.0990 C   0  0  0  0  0  2  0  0  0  0  0  0
  190.8940  175.4880  134.6140 F   0  0  0  0  0  0  0  0  0  0  0  0
  194.9160  175.5960  134.8790 C   0  0  1  0  0  3  0  0  0  0  0  0
  193.8350  176.5360  135.4210 C   0  0  0  0  0  2  0  0  0  0  0  0
  196.1170  176.4000  134.4300 C   0  0  0  0  0  1  0  0  0  0  0  0
  195.2780  174.7600  135.9610 O   0  0  0  0  0  0  0  0  0  0  0  0
  194.6000  174.3580  138.1340 O   0  0  0  0  0  0  0  0  0  0  0  0
  194.4480  174.9610  137.0400 C   0  0  0  0  0  0  0  0  0  0  0  0
  193.4100  175.9920  136.7910 C   0  0  2  0  0  3  0  0  0  0  0  0
  185.4640  177.2790  135.7580 C   0  0  0  0  0  2  0  0  0  0  0  0
  186.5100  175.5910  137.1110 N   0  0  0  0  0  1  0  0  0  0  0  0
  186.5270  177.7350  134.8610 N   0  0  0  0  0  2  0  0  0  0  0  0
  186.0750  176.9800  137.1060 C   0  0  1  0  0  3  0  0  0  0  0  0
  187.6730  178.0870  135.6960 C   0  0  0  0  0  2  0  0  0  0  0  0
  187.2490  177.9390  137.1400 C   0  0  2  0  0  3  0  0  0  0  0  0
  188.4510  178.5050  139.2620 N   0  0  0  0  0  2  0  0  0  0  0  0
  189.0580  177.4450  141.3850 C   0  0  0  0  0  2  0  0  0  0  0  0
  187.7480  178.3650  143.3230 C   0  0  2  0  0  3  0  0  0  0  0  0
  191.0700  178.8740  144.0500 C   0  0  0  0  0  2  0  0  0  0  0  0
  187.9280  177.7490  140.3890 C   0  0  1  0  0  3  0  0  0  0  0  0
  191.4350  177.5490  143.3880 C   0  0  0  0  0  2  0  0  0  0  0  0
  185.2960  178.7400  143.0220 C   0  0  0  0  0  1  0  0  0  0  0  0
  186.5190  178.0410  142.4560 C   0  0  1  0  0  3  0  0  0  0  0  0
  187.2900  177.8010  145.5890 F   0  0  0  0  0  0  0  0  0  0  0  0
  186.7390  178.4910  141.0160 C   0  0  0  0  0  2  0  0  0  0  0  0
  189.0650  178.4100  142.5750 C   0  0  1  0  0  3  0  0  0  0  0  0
  189.9860  177.9000  143.6480 C   0  0  0  0  0  0  0  0  0  0  0  0
  189.3570  177.3110  144.7550 O   0  0  0  0  0  0  0  0  0  0  0  0
  187.9770  177.3710  144.4670 C   0  0  0  0  0  0  0  0  0  0  0  0
  187.5390  176.1020  144.1210 F   0  0  0  0  0  0  0  0  0  0  0  0
  1 23  1  1  0  0  0
  2  3  1  0  0  0  0
  4 16  1  0  0  0  0
  4  8  1  1  0  0  0
  5  6  1  0  0  0  0
  6  1  1  0  0  0  0
  6  2  1  0  0  0  0
  7  9  1  6  0  0  0
  7  5  1  0  0  0  0
  7  4  1  0  0  0  0
  8  3  1  0  0  0  0
 10 12  1  1  0  0  0
 10 11  1  0  0  0  0
 10 13  1  0  0  0  0
 13 15  1  0  0  0  0
 15 14  2  0  0  0  0
 16 11  1  6  0  0  0
 16 15  1  0  0  0  0
 17 20  1  0  0  0  0
 19 21  1  0  0  0  0
 19 17  1  0  0  0  0
 20 18  1  6  0  0  0
 20 22  1  0  0  0  0
 21 22  1  0  0  0  0
 22  1  1  1  0  0  0
 25 36  1  1  0  0  0
 27 23  1  6  0  0  0
 27 32  1  0  0  0  0
 27 24  1  0  0  0  0
 28 34  1  0  0  0  0
 28 26  1  0  0  0  0
 30 29  1  1  0  0  0
 30 25  1  0  0  0  0
 32 30  1  0  0  0  0
 33 24  1  6  0  0  0
 33 25  1  0  0  0  0
 33 34  1  0  0  0  0
 34 26  1  0  0  0  0
 34 35  1  0  0  0  0
 36 35  1  0  0  0  0
 36 31  1  0  0  0  0
 37 36  1  0  0  0  0
M  END
>  <MODEL>
8

>  <REMARK>
 VINA RESULT:      -7.5      3.657      8.278
  Name = 
  5 active torsions:
  status: ('A' for Active; 'I' for Inactive)
    1  A    between atoms: N_3  and  C_7
    2  A    between atoms: N_3  and  C_10
    3  A    between atoms: C_10  and  N_26
    4  A    between atoms: C_10  and  C_32
    5  A    between atoms: C_22  and  C_37
                            x       y       z     vdW  Elec       q    Type
                         _______ _______ _______ _____ _____    ______ ____

>  <TORSDO>
F 5

$$$$
=
 OpenBabel10232411563D

 37 42  0  0  1  0  0  0  0  0999 V2000
  187.2730  178.0740  139.9340 C   0  0  2  0  0  3  0  0  0  0  0  0
  187.0250  179.0050  142.2130 C   0  0  0  0  0  2  0  0  0  0  0  0
  185.9010  178.1720  142.8520 C   0  0  0  0  0  2  0  0  0  0  0  0
  187.7590  177.0080  144.2400 C   0  0  2  0  0  3  0  0  0  0  0  0
  188.4340  177.0110  141.7520 C   0  0  0  0  0  2  0  0  0  0  0  0
  187.8890  178.2820  141.2560 N   0  0  0  0  0  0  0  0  0  0  0  0
  188.9040  177.1030  143.2090 C   0  0  2  0  0  3  0  0  0  0  0  0
  186.3600  176.9130  143.5990 C   0  0  0  0  0  2  0  0  0  0  0  0
  189.8110  176.0920  143.4580 F   0  0  0  0  0  0  0  0  0  0  0  0
  188.8410  177.4610  147.4790 C   0  0  1  0  0  3  0  0  0  0  0  0
  189.1760  177.9940  146.0820 C   0  0  0  0  0  2  0  0  0  0  0  0
  189.4840  178.3390  148.5310 C   0  0  0  0  0  1  0  0  0  0  0  0
  187.4330  177.5320  147.5920 O   0  0  0  0  0  0  0  0  0  0  0  0
  185.6190  178.0540  146.2590 O   0  0  0  0  0  0  0  0  0  0  0  0
  186.8590  177.8870  146.3930 C   0  0  0  0  0  0  0  0  0  0  0  0
  187.8530  178.1050  145.3130 C   0  0  2  0  0  3  0  0  0  0  0  0
  189.4420  177.5950  136.8760 C   0  0  0  0  0  2  0  0  0  0  0  0
  187.7180  176.1540  137.7260 N   0  0  0  0  0  1  0  0  0  0  0  0
  190.4250  177.6630  137.9580 N   0  0  0  0  0  2  0  0  0  0  0  0
  188.0630  177.5470  137.4870 C   0  0  1  0  0  3  0  0  0  0  0  0
  189.7040  178.0390  139.1720 C   0  0  0  0  0  2  0  0  0  0  0  0
  188.2670  178.3080  138.7840 C   0  0  2  0  0  3  0  0  0  0  0  0
  186.0150  178.8010  139.7600 N   0  0  0  0  0  2  0  0  0  0  0  0
  183.8250  177.8880  140.3690 C   0  0  0  0  0  2  0  0  0  0  0  0
  182.1340  178.1470  138.5280 C   0  0  2  0  0  3  0  0  0  0  0  0
  180.8490  179.7590  141.2790 C   0  0  0  0  0  2  0  0  0  0  0  0
  184.9970  177.8330  139.3770 C   0  0  1  0  0  3  0  0  0  0  0  0
  181.4460  178.6990  142.2000 C   0  0  0  0  0  2  0  0  0  0  0  0
  182.8460  177.6410  136.1870 C   0  0  0  0  0  1  0  0  0  0  0  0
  183.1990  177.4640  137.6520 C   0  0  1  0  0  3  0  0  0  0  0  0
  179.9820  177.3060  137.9570 F   0  0  0  0  0  0  0  0  0  0  0  0
  184.5780  178.0580  137.9180 C   0  0  0  0  0  2  0  0  0  0  0  0
  182.6460  178.7090  139.8380 C   0  0  1  0  0  3  0  0  0  0  0  0
  181.4340  178.4910  140.7010 C   0  0  0  0  0  0  0  0  0  0  0  0
  180.4540  177.6440  140.1640 O   0  0  0  0  0  0  0  0  0  0  0  0
  180.9730  177.2260  138.9200 C   0  0  0  0  0  0  0  0  0  0  0  0
  181.3960  175.9100  139.0330 F   0  0  0  0  0  0  0  0  0  0  0  0
  1 23  1  6  0  0  0
  1  6  1  0  0  0  0
  2  3  1  0  0  0  0
  3  8  1  0  0  0  0
  4  8  1  6  0  0  0
  4 16  1  0  0  0  0
  5  7  1  0  0  0  0
  6  5  1  0  0  0  0
  6  2  1  0  0  0  0
  7  9  1  1  0  0  0
  7  4  1  0  0  0  0
 10 13  1  0  0  0  0
 10 12  1  1  0  0  0
 11 10  1  0  0  0  0
 14 15  2  0  0  0  0
 15 13  1  0  0  0  0
 16 11  1  1  0  0  0
 16 15  1  0  0  0  0
 17 20  1  0  0  0  0
 17 19  1  0  0  0  0
 19 21  1  0  0  0  0
 20 18  1  1  0  0  0
 20 22  1  0  0  0  0
 22 21  1  0  0  0  0
 22  1  1  1  0  0  0
 25 36  1  1  0  0  0
 25 33  1  0  0  0  0
 26 28  1  0  0  0  0
 27 23  1  1  0  0  0
 27 24  1  0  0  0  0
 30 29  1  6  0  0  0
 30 32  1  0  0  0  0
 30 25  1  0  0  0  0
 31 36  1  0  0  0  0
 32 27  1  0  0  0  0
 33 24  1  1  0  0  0
 33 34  1  0  0  0  0
 34 26  1  0  0  0  0
 34 28  1  0  0  0  0
 35 34  1  0  0  0  0
 36 37  1  0  0  0  0
 36 35  1  0  0  0  0
M  END
>  <MODEL>
9

>  <REMARK>
 VINA RESULT:      -7.5      2.195      3.161
  Name = 
  5 active torsions:
  status: ('A' for Active; 'I' for Inactive)
    1  A    between atoms: N_3  and  C_7
    2  A    between atoms: N_3  and  C_10
    3  A    between atoms: C_10  and  N_26
    4  A    between atoms: C_10  and  C_32
    5  A    between atoms: C_22  and  C_37
                            x       y       z     vdW  Elec       q    Type
                         _______ _______ _______ _____ _____    ______ ____

>  <TORSDO>
F 5

$$$$
