=
 OpenBabel10222421503D

 54 59  0  0  1  0  0  0  0  0999 V2000
  183.5990  178.2890  141.7760 C   0  0  0  0  0  0  0  0  0  0  0  0
  184.5440  178.2120  142.8100 C   0  0  0  0  0  3  0  0  0  0  0  0
  181.9430  178.9920  143.4060 C   0  0  0  0  0  3  0  0  0  0  0  0
  182.2880  178.6980  142.0770 C   0  0  0  0  0  0  0  0  0  0  0  0
  184.2080  178.5460  144.1280 C   0  0  0  0  0  0  0  0  0  0  0  0
  182.8980  178.9200  144.4220 C   0  0  0  0  0  3  0  0  0  0  0  0
  185.1900  178.4020  145.2530 C   0  0  0  0  0  2  0  0  0  0  0  0
  190.1630  177.4800  145.8100 N   0  0  0  0  0  0  0  0  0  0  0  0
  187.7310  178.0550  145.6800 C   0  0  0  0  0  0  0  0  0  0  0  0
  187.9810  176.9020  143.0950 C   0  0  0  0  0  3  0  0  0  0  0  0
  189.0770  178.0450  145.0170 C   0  0  2  0  0  3  0  0  0  0  0  0
  189.0600  177.1400  143.8410 C   0  0  1  0  0  3  0  0  0  0  0  0
  186.6780  177.4300  143.5580 C   0  0  0  0  0  3  0  0  0  0  0  0
  187.6140  178.2960  146.9100 O   0  0  0  0  0  0  0  0  0  0  0  0
  190.7980  176.6260  145.0640 C   0  0  0  0  0  0  0  0  0  0  0  0
  186.5390  177.9330  144.8000 C   0  0  2  0  0  3  0  0  0  0  0  0
  190.2230  176.4030  143.8150 O   0  0  0  0  0  0  0  0  0  0  0  0
  192.1620  175.7420  146.8940 C   0  0  0  0  0  1  0  0  0  0  0  0
  191.9350  175.9600  145.5120 O   0  0  0  0  0  0  0  0  0  0  0  0
  183.9230  177.9520  140.4510 O   0  0  0  0  0  0  0  0  0  0  0  0
  184.8690  179.9700  139.7970 O   0  0  0  0  0  0  0  0  0  0  0  0
  184.5020  178.8010  139.4960 C   0  0  0  0  0  0  0  0  0  0  0  0
  184.6630  178.2920  138.1220 C   0  0  0  0  0  3  0  0  0  0  0  0
  185.7150  177.6190  137.6450 C   0  0  0  0  0  3  0  0  0  0  0  0
  188.0270  176.6100  137.7530 C   0  0  2  0  0  3  0  0  0  0  0  0
  190.0650  178.1430  137.8040 O   0  0  0  0  0  0  0  0  0  0  0  0
  187.7220  178.4610  138.7040 N   0  0  0  0  0  2  0  0  0  0  0  0
  186.9390  177.2730  138.4490 C   0  0  1  0  0  3  0  0  0  0  0  0
  188.8700  177.8160  138.0310 C   0  0  0  0  0  0  0  0  0  0  0  0
  186.8020  174.9810  136.0000 O   0  0  0  0  0  1  0  0  0  0  0  0
  187.8410  176.3660  135.8970 P   0  0  2  0  0  0  0  0  0  0  0  0
  189.6190  175.2440  135.6030 S   0  0  0  0  0  0  0  0  0  0  0  0
  189.3710  174.1620  134.5890 O   0  0  0  0  0  0  0  0  0  0  0  0
  190.7030  176.1550  135.0960 O   0  0  0  0  0  0  0  0  0  0  0  0
  191.6030  174.1180  137.0550 C   0  0  0  0  0  1  0  0  0  0  0  0
  190.1370  174.4970  137.1330 C   0  0  0  0  0  2  0  0  0  0  0  0
  181.2410  178.7020  140.9920 C   0  0  2  0  0  3  0  0  0  0  0  0
  181.1190  176.4020  139.6310 C   0  0  0  0  0  0  0  0  0  0  0  0
  181.1850  177.4270  140.2600 C   0  0  0  0  0  0  0  0  0  0  0  0
  181.0190  175.1780  138.8330 C   0  0  0  0  0  2  0  0  0  0  0  0
  184.5340  173.3360  137.1710 O   0  0  0  0  0  0  0  0  0  0  0  0
  181.7930  173.4940  136.1280 C   0  0  2  0  0  3  0  0  0  0  0  0
  183.8450  172.1160  136.1880 P   0  0  2  0  0  0  0  0  0  0  0  0
  183.2580  175.5260  135.7980 C   0  0  0  0  0  1  0  0  0  0  0  0
  181.3510  175.4880  137.3710 C   0  0  2  0  0  3  0  0  0  0  0  0
  183.2780  171.0130  137.0520 O   0  0  0  0  0  1  0  0  0  0  0  0
  185.0380  171.4730  135.1790 O   0  0  0  0  0  0  0  0  0  0  0  0
  183.4860  174.0430  137.8090 C   0  0  0  0  0  2  0  0  0  0  0  0
  182.6150  172.8040  135.2250 O   0  0  0  0  0  0  0  0  0  0  0  0
  180.5540  174.0840  135.5020 C   0  0  0  0  0  2  0  0  0  0  0  0
  180.1370  175.1770  136.4810 C   0  0  0  0  0  2  0  0  0  0  0  0
  182.5000  174.6550  136.8000 C   0  0  1  0  0  0  0  0  0  0  0  0
  180.3640  180.5700  140.1770 C   0  0  0  0  0  1  0  0  0  0  0  0
  181.4910  179.7450  140.0990 O   0  0  0  0  0  0  0  0  0  0  0  0
  1  4  2  0  0  0  0
  1  2  1  0  0  0  0
  2  5  2  0  0  0  0
  3  6  2  0  0  0  0
  4  3  1  0  0  0  0
  5  6  1  0  0  0  0
  5  7  1  0  0  0  0
  9 14  2  0  0  0  0
 10 13  2  0  0  0  0
 11  9  1  1  0  0  0
 11  8  1  0  0  0  0
 12 10  1  1  0  0  0
 12 11  1  0  0  0  0
 13 16  1  0  0  0  0
 15 19  1  0  0  0  0
 15  8  2  0  0  0  0
 16  7  1  6  0  0  0
 16  9  1  0  0  0  0
 17 12  1  0  0  0  0
 17 15  1  0  0  0  0
 19 18  1  0  0  0  0
 20  1  1  0  0  0  0
 22 21  2  0  0  0  0
 22 20  1  0  0  0  0
 23 22  1  0  0  0  0
 24 23  2  0  0  0  0
 25 31  1  6  0  0  0
 25 29  1  0  0  0  0
 25 28  1  0  0  0  0
 26 29  2  0  0  0  0
 28 24  1  6  0  0  0
 28 27  1  0  0  0  0
 29 27  1  0  0  0  0
 31 30  1  1  0  0  0
 32 31  1  0  0  0  0
 32 36  1  0  0  0  0
 33 32  2  0  0  0  0
 34 32  2  0  0  0  0
 35 36  1  0  0  0  0
 37 39  1  6  0  0  0
 37  4  1  0  0  0  0
 38 39  3  0  0  0  0
 40 38  1  0  0  0  0
 41 48  1  0  0  0  0
 42 50  1  6  0  0  0
 42 52  1  0  0  0  0
 43 47  2  6  0  0  0
 43 46  1  0  0  0  0
 43 41  1  0  0  0  0
 45 40  1  1  0  0  0
 49 42  1  0  0  0  0
 49 43  1  0  0  0  0
 50 51  1  0  0  0  0
 51 45  1  0  0  0  0
 52 44  1  6  0  0  0
 52 45  1  0  0  0  0
 52 48  1  0  0  0  0
 54 53  1  0  0  0  0
 54 37  1  0  0  0  0
M  END
>  <MODEL>
1

>  <REMARK>
 VINA RESULT:      -8.6      0.000      0.000
  Name = 
  15 active torsions:
  status: ('A' for Active; 'I' for Inactive)
    1  A    between atoms: C_2  and  C_9
    2  A    between atoms: C_7  and  P_23
    3  A    between atoms: C_9  and  C_22
    4  A    between atoms: C_14  and  O_21
    5  A    between atoms: C_17  and  C_37
    6  A    between atoms: C_17  and  C_51
    7  A    between atoms: C_19  and  C_44
    8  A    between atoms: O_21  and  C_35
    9  A    between atoms: P_23  and  S_27
   10  A    between atoms: C_24  and  C_44
   11  A    between atoms: S_27  and  C_36
   12  A    between atoms: C_32  and  C_35
   13  A    between atoms: O_42  and  C_44
   14  A    between atoms: C_43  and  O_45
   15  A    between atoms: C_46  and  C_47
                            x       y       z     vdW  Elec       q    Type
                         _______ _______ _______ _____ _____    ______ ____

>  <TORSDO>
F 15

$$$$
=
 OpenBabel10222421503D

 54 59  0  0  1  0  0  0  0  0999 V2000
  185.3450  178.4460  139.6910 C   0  0  0  0  0  0  0  0  0  0  0  0
  184.8680  178.1030  138.4160 C   0  0  0  0  0  3  0  0  0  0  0  0
  183.0980  178.1440  140.5600 C   0  0  0  0  0  3  0  0  0  0  0  0
  184.4510  178.4510  140.7770 C   0  0  0  0  0  0  0  0  0  0  0  0
  183.5260  177.7560  138.2110 C   0  0  0  0  0  0  0  0  0  0  0  0
  182.6410  177.7950  139.2880 C   0  0  0  0  0  3  0  0  0  0  0  0
  182.9900  177.4560  136.8430 C   0  0  0  0  0  2  0  0  0  0  0  0
  185.3270  173.4510  134.7480 N   0  0  0  0  0  0  0  0  0  0  0  0
  184.2850  175.5310  135.6700 C   0  0  0  0  0  0  0  0  0  0  0  0
  182.2730  173.7060  136.5020 C   0  0  0  0  0  3  0  0  0  0  0  0
  184.1140  174.2450  134.9150 C   0  0  2  0  0  3  0  0  0  0  0  0
  183.2470  173.3150  135.6810 C   0  0  1  0  0  3  0  0  0  0  0  0
  182.1500  175.1490  136.8090 C   0  0  0  0  0  3  0  0  0  0  0  0
  185.3160  176.2380  135.5240 O   0  0  0  0  0  0  0  0  0  0  0  0
  185.0520  172.2280  135.0940 C   0  0  0  0  0  0  0  0  0  0  0  0
  183.1230  176.0130  136.4610 C   0  0  2  0  0  3  0  0  0  0  0  0
  183.7760  172.0440  135.6210 O   0  0  0  0  0  0  0  0  0  0  0  0
  187.3680  171.4850  134.8250 C   0  0  0  0  0  1  0  0  0  0  0  0
  185.9880  171.2040  134.9850 O   0  0  0  0  0  0  0  0  0  0  0  0
  186.6870  178.7990  139.9080 O   0  0  0  0  0  0  0  0  0  0  0  0
  188.0230  179.0480  138.0250 O   0  0  0  0  0  0  0  0  0  0  0  0
  187.7800  178.4430  139.1050 C   0  0  0  0  0  0  0  0  0  0  0  0
  188.6390  177.3320  139.5540 C   0  0  0  0  0  3  0  0  0  0  0  0
  189.3350  176.5030  138.7700 C   0  0  0  0  0  3  0  0  0  0  0  0
  190.5360  176.0710  136.5910 C   0  0  2  0  0  3  0  0  0  0  0  0
  189.8750  174.0570  135.1720 O   0  0  0  0  0  0  0  0  0  0  0  0
  188.5100  175.5210  136.7180 N   0  0  0  0  0  2  0  0  0  0  0  0
  189.3480  176.5630  137.2670 C   0  0  1  0  0  3  0  0  0  0  0  0
  189.6830  175.0000  135.9840 C   0  0  0  0  0  0  0  0  0  0  0  0
  192.4010  176.7830  138.3910 O   0  0  0  0  0  1  0  0  0  0  0  0
  191.8770  175.3000  137.6600 P   0  0  2  0  0  0  0  0  0  0  0  0
  193.4020  175.2710  136.1810 S   0  0  0  0  0  0  0  0  0  0  0  0
  192.8240  175.6690  134.8520 O   0  0  0  0  0  0  0  0  0  0  0  0
  194.4810  176.2480  136.5620 O   0  0  0  0  0  0  0  0  0  0  0  0
  192.9930  172.6150  135.8850 C   0  0  0  0  0  1  0  0  0  0  0  0
  194.0990  173.6390  136.0460 C   0  0  0  0  0  2  0  0  0  0  0  0
  184.9300  178.9000  142.1340 C   0  0  2  0  0  3  0  0  0  0  0  0
  186.8870  177.3360  143.0720 C   0  0  0  0  0  0  0  0  0  0  0  0
  185.9950  178.0370  142.6680 C   0  0  0  0  0  0  0  0  0  0  0  0
  187.9960  176.4930  143.5260 C   0  0  0  0  0  2  0  0  0  0  0  0
  189.9390  177.7560  147.1500 O   0  0  0  0  0  0  0  0  0  0  0  0
  191.0110  176.3490  144.8060 C   0  0  2  0  0  3  0  0  0  0  0  0
  191.2290  176.6350  147.2530 P   0  0  2  0  0  0  0  0  0  0  0  0
  190.7500  178.8550  144.6120 C   0  0  0  0  0  1  0  0  0  0  0  0
  189.3140  177.2570  143.3870 C   0  0  2  0  0  3  0  0  0  0  0  0
  190.7010  175.2690  147.6260 O   0  0  0  0  0  0  0  0  0  0  0  0
  192.3220  177.1490  148.4330 O   0  0  0  0  0  1  0  0  0  0  0  0
  189.1820  177.4640  145.9910 C   0  0  0  0  0  2  0  0  0  0  0  0
  192.0290  176.5680  145.7450 O   0  0  0  0  0  0  0  0  0  0  0  0
  191.5110  176.1290  143.4000 C   0  0  0  0  0  2  0  0  0  0  0  0
  190.3010  176.4500  142.5280 C   0  0  0  0  0  2  0  0  0  0  0  0
  190.0360  177.5070  144.7130 C   0  0  1  0  0  0  0  0  0  0  0  0
  184.3030  179.7000  144.1060 C   0  0  0  0  0  1  0  0  0  0  0  0
  183.8580  178.9290  143.0270 O   0  0  0  0  0  0  0  0  0  0  0  0
  1 20  1  0  0  0  0
  1  4  1  0  0  0  0
  2  1  2  0  0  0  0
  3  4  2  0  0  0  0
  4 37  1  0  0  0  0
  5  2  1  0  0  0  0
  5  6  2  0  0  0  0
  6  3  1  0  0  0  0
  7  5  1  0  0  0  0
  8 15  2  0  0  0  0
  9 16  1  0  0  0  0
 10 13  2  0  0  0  0
 11  8  1  1  0  0  0
 11  9  1  0  0  0  0
 11 12  1  0  0  0  0
 12 10  1  1  0  0  0
 14  9  2  0  0  0  0
 15 17  1  0  0  0  0
 16 13  1  0  0  0  0
 16  7  1  6  0  0  0
 17 12  1  0  0  0  0
 18 19  1  0  0  0  0
 19 15  1  0  0  0  0
 21 22  2  0  0  0  0
 22 23  1  0  0  0  0
 22 20  1  0  0  0  0
 24 23  2  0  0  0  0
 25 28  1  0  0  0  0
 25 31  1  1  0  0  0
 26 29  2  0  0  0  0
 27 28  1  0  0  0  0
 28 24  1  1  0  0  0
 29 25  1  0  0  0  0
 29 27  1  0  0  0  0
 31 30  1  1  0  0  0
 32 34  2  0  0  0  0
 32 31  1  0  0  0  0
 33 32  2  0  0  0  0
 35 36  1  0  0  0  0
 36 32  1  0  0  0  0
 37 39  1  1  0  0  0
 37 54  1  0  0  0  0
 38 40  1  0  0  0  0
 39 38  3  0  0  0  0
 41 43  1  0  0  0  0
 42 50  1  6  0  0  0
 42 49  1  0  0  0  0
 43 46  2  1  0  0  0
 43 47  1  0  0  0  0
 45 40  1  1  0  0  0
 45 52  1  0  0  0  0
 48 41  1  0  0  0  0
 49 43  1  0  0  0  0
 51 45  1  0  0  0  0
 51 50  1  0  0  0  0
 52 44  1  6  0  0  0
 52 42  1  0  0  0  0
 52 48  1  0  0  0  0
 54 53  1  0  0  0  0
M  END
>  <MODEL>
2

>  <REMARK>
 VINA RESULT:      -8.4      2.774      8.816
  Name = 
  15 active torsions:
  status: ('A' for Active; 'I' for Inactive)
    1  A    between atoms: C_2  and  C_9
    2  A    between atoms: C_7  and  P_23
    3  A    between atoms: C_9  and  C_22
    4  A    between atoms: C_14  and  O_21
    5  A    between atoms: C_17  and  C_37
    6  A    between atoms: C_17  and  C_51
    7  A    between atoms: C_19  and  C_44
    8  A    between atoms: O_21  and  C_35
    9  A    between atoms: P_23  and  S_27
   10  A    between atoms: C_24  and  C_44
   11  A    between atoms: S_27  and  C_36
   12  A    between atoms: C_32  and  C_35
   13  A    between atoms: O_42  and  C_44
   14  A    between atoms: C_43  and  O_45
   15  A    between atoms: C_46  and  C_47
                            x       y       z     vdW  Elec       q    Type
                         _______ _______ _______ _____ _____    ______ ____

>  <TORSDO>
F 15

$$$$
=
 OpenBabel10222421503D

 54 59  0  0  1  0  0  0  0  0999 V2000
  185.8100  178.3140  142.2340 C   0  0  0  0  0  0  0  0  0  0  0  0
  186.4280  178.0260  143.4600 C   0  0  0  0  0  3  0  0  0  0  0  0
  183.7930  178.9120  143.4470 C   0  0  0  0  0  3  0  0  0  0  0  0
  184.4820  178.7770  142.2300 C   0  0  0  0  0  0  0  0  0  0  0  0
  185.7530  178.2030  144.6750 C   0  0  0  0  0  0  0  0  0  0  0  0
  184.4260  178.6320  144.6590 C   0  0  0  0  0  3  0  0  0  0  0  0
  186.3790  177.8340  145.9870 C   0  0  0  0  0  2  0  0  0  0  0  0
  191.0170  176.7890  147.7980 N   0  0  0  0  0  0  0  0  0  0  0  0
  188.6980  177.3840  147.0730 C   0  0  0  0  0  0  0  0  0  0  0  0
  189.7860  176.9130  144.4910 C   0  0  0  0  0  3  0  0  0  0  0  0
  190.1760  177.5370  146.8700 C   0  0  2  0  0  3  0  0  0  0  0  0
  190.5760  176.9540  145.5650 C   0  0  1  0  0  3  0  0  0  0  0  0
  188.3690  177.3120  144.6470 C   0  0  0  0  0  3  0  0  0  0  0  0
  188.2050  177.3110  148.2290 O   0  0  0  0  0  0  0  0  0  0  0  0
  191.9060  176.1470  147.1010 C   0  0  0  0  0  0  0  0  0  0  0  0
  187.8320  177.4890  145.8690 C   0  0  2  0  0  3  0  0  0  0  0  0
  191.7450  176.2440  145.7210 O   0  0  0  0  0  0  0  0  0  0  0  0
  193.4610  175.7590  148.9510 C   0  0  0  0  0  1  0  0  0  0  0  0
  192.9050  175.3870  147.7020 O   0  0  0  0  0  0  0  0  0  0  0  0
  186.4760  178.1370  141.0100 O   0  0  0  0  0  0  0  0  0  0  0  0
  188.2220  179.5960  140.5420 O   0  0  0  0  0  0  0  0  0  0  0  0
  187.8260  178.4170  140.7510 C   0  0  0  0  0  0  0  0  0  0  0  0
  188.7740  177.2880  140.7220 C   0  0  0  0  0  3  0  0  0  0  0  0
  189.3050  176.7290  139.6300 C   0  0  0  0  0  3  0  0  0  0  0  0
  189.8850  176.6710  137.1740 C   0  0  2  0  0  3  0  0  0  0  0  0
  188.5130  175.2110  135.5940 O   0  0  0  0  0  0  0  0  0  0  0  0
  187.8640  176.4400  137.7080 N   0  0  0  0  0  2  0  0  0  0  0  0
  189.0070  177.1620  138.2210 C   0  0  1  0  0  3  0  0  0  0  0  0
  188.7100  175.9390  136.6030 C   0  0  0  0  0  0  0  0  0  0  0  0
  192.3680  176.6440  138.2030 O   0  0  0  0  0  1  0  0  0  0  0  0
  191.2250  175.4510  137.6750 P   0  0  2  0  0  0  0  0  0  0  0  0
  192.0880  175.2070  135.7490 S   0  0  0  0  0  0  0  0  0  0  0  0
  191.6220  173.9100  135.1490 O   0  0  0  0  0  0  0  0  0  0  0  0
  191.6550  176.3430  134.8640 O   0  0  0  0  0  0  0  0  0  0  0  0
  194.4330  176.4850  135.3290 C   0  0  0  0  0  1  0  0  0  0  0  0
  193.8640  175.1880  135.8670 C   0  0  0  0  0  2  0  0  0  0  0  0
  183.7770  179.0070  140.9170 C   0  0  2  0  0  3  0  0  0  0  0  0
  182.8030  176.7550  139.8500 C   0  0  0  0  0  0  0  0  0  0  0  0
  183.2280  177.7660  140.3480 C   0  0  0  0  0  0  0  0  0  0  0  0
  182.3150  175.5310  139.2120 C   0  0  0  0  0  2  0  0  0  0  0  0
  185.2630  174.1800  136.3850 O   0  0  0  0  0  0  0  0  0  0  0  0
  182.3480  173.8250  136.4120 C   0  0  2  0  0  3  0  0  0  0  0  0
  184.4910  172.8030  135.7210 P   0  0  2  0  0  0  0  0  0  0  0  0
  183.2200  176.0420  135.5700 C   0  0  0  0  0  1  0  0  0  0  0  0
  182.0410  175.7960  137.7300 C   0  0  2  0  0  3  0  0  0  0  0  0
  184.4720  171.6810  136.7330 O   0  0  0  0  0  1  0  0  0  0  0  0
  185.3350  172.2990  134.3480 O   0  0  0  0  0  0  0  0  0  0  0  0
  184.4080  174.7470  137.3600 C   0  0  0  0  0  2  0  0  0  0  0  0
  182.8970  173.2210  135.2720 O   0  0  0  0  0  0  0  0  0  0  0  0
  180.8840  174.1650  136.2800 C   0  0  0  0  0  2  0  0  0  0  0  0
  180.6620  175.2370  137.3430 C   0  0  0  0  0  2  0  0  0  0  0  0
  183.0350  175.1260  136.7800 C   0  0  1  0  0  0  0  0  0  0  0  0
  183.8520  180.0260  138.9480 C   0  0  0  0  0  1  0  0  0  0  0  0
  184.6580  179.5910  140.0050 O   0  0  0  0  0  0  0  0  0  0  0  0
  1  2  1  0  0  0  0
  2  5  2  0  0  0  0
  3  6  2  0  0  0  0
  4  1  2  0  0  0  0
  4  3  1  0  0  0  0
  5  7  1  0  0  0  0
  6  5  1  0  0  0  0
  9 14  2  0  0  0  0
 10 13  2  0  0  0  0
 11  9  1  1  0  0  0
 11  8  1  0  0  0  0
 12 10  1  1  0  0  0
 12 17  1  0  0  0  0
 12 11  1  0  0  0  0
 13 16  1  0  0  0  0
 15 19  1  0  0  0  0
 15  8  2  0  0  0  0
 16  7  1  6  0  0  0
 16  9  1  0  0  0  0
 17 15  1  0  0  0  0
 19 18  1  0  0  0  0
 20  1  1  0  0  0  0
 21 22  2  0  0  0  0
 22 20  1  0  0  0  0
 23 22  1  0  0  0  0
 24 23  2  0  0  0  0
 25 31  1  1  0  0  0
 25 28  1  0  0  0  0
 26 29  2  0  0  0  0
 27 28  1  0  0  0  0
 28 24  1  1  0  0  0
 29 25  1  0  0  0  0
 29 27  1  0  0  0  0
 31 30  1  1  0  0  0
 32 36  1  0  0  0  0
 32 31  1  0  0  0  0
 33 32  2  0  0  0  0
 34 32  2  0  0  0  0
 35 36  1  0  0  0  0
 37 39  1  6  0  0  0
 37  4  1  0  0  0  0
 38 39  3  0  0  0  0
 40 38  1  0  0  0  0
 41 48  1  0  0  0  0
 42 50  1  6  0  0  0
 42 52  1  0  0  0  0
 43 47  2  6  0  0  0
 43 41  1  0  0  0  0
 43 46  1  0  0  0  0
 45 40  1  1  0  0  0
 49 43  1  0  0  0  0
 49 42  1  0  0  0  0
 50 51  1  0  0  0  0
 51 45  1  0  0  0  0
 52 44  1  6  0  0  0
 52 48  1  0  0  0  0
 52 45  1  0  0  0  0
 53 54  1  0  0  0  0
 54 37  1  0  0  0  0
M  END
>  <MODEL>
3

>  <REMARK>
 VINA RESULT:      -8.2      1.777      2.517
  Name = 
  15 active torsions:
  status: ('A' for Active; 'I' for Inactive)
    1  A    between atoms: C_2  and  C_9
    2  A    between atoms: C_7  and  P_23
    3  A    between atoms: C_9  and  C_22
    4  A    between atoms: C_14  and  O_21
    5  A    between atoms: C_17  and  C_37
    6  A    between atoms: C_17  and  C_51
    7  A    between atoms: C_19  and  C_44
    8  A    between atoms: O_21  and  C_35
    9  A    between atoms: P_23  and  S_27
   10  A    between atoms: C_24  and  C_44
   11  A    between atoms: S_27  and  C_36
   12  A    between atoms: C_32  and  C_35
   13  A    between atoms: O_42  and  C_44
   14  A    between atoms: C_43  and  O_45
   15  A    between atoms: C_46  and  C_47
                            x       y       z     vdW  Elec       q    Type
                         _______ _______ _______ _____ _____    ______ ____

>  <TORSDO>
F 15

$$$$
=
 OpenBabel10222421503D

 54 59  0  0  1  0  0  0  0  0999 V2000
  185.7300  177.3930  137.1970 C   0  0  0  0  0  0  0  0  0  0  0  0
  185.0730  178.4300  137.8760 C   0  0  0  0  0  3  0  0  0  0  0  0
  183.8430  175.9450  137.6820 C   0  0  0  0  0  3  0  0  0  0  0  0
  185.1000  176.1410  137.0870 C   0  0  0  0  0  0  0  0  0  0  0  0
  183.8000  178.2440  138.4310 C   0  0  0  0  0  0  0  0  0  0  0  0
  183.1970  176.9900  138.3450 C   0  0  0  0  0  3  0  0  0  0  0  0
  183.1180  179.3230  139.2180 C   0  0  0  0  0  2  0  0  0  0  0  0
  185.2760  178.9800  143.8130 N   0  0  0  0  0  0  0  0  0  0  0  0
  184.3860  179.1290  141.4790 C   0  0  0  0  0  0  0  0  0  0  0  0
  181.9280  178.5440  142.7780 C   0  0  0  0  0  3  0  0  0  0  0  0
  184.4140  178.3980  142.7890 C   0  0  2  0  0  3  0  0  0  0  0  0
  183.0820  178.4690  143.4410 C   0  0  1  0  0  3  0  0  0  0  0  0
  181.9730  178.7440  141.3110 C   0  0  0  0  0  3  0  0  0  0  0  0
  185.4290  179.6480  141.0030 O   0  0  0  0  0  0  0  0  0  0  0  0
  184.5860  179.0660  144.9110 C   0  0  0  0  0  0  0  0  0  0  0  0
  183.1250  179.0700  140.6950 C   0  0  2  0  0  3  0  0  0  0  0  0
  183.2440  178.7140  144.7870 O   0  0  0  0  0  0  0  0  0  0  0  0
  185.6090  178.6190  147.0900 C   0  0  0  0  0  1  0  0  0  0  0  0
  185.1480  179.5230  146.1000 O   0  0  0  0  0  0  0  0  0  0  0  0
  187.0080  177.5670  136.6390 O   0  0  0  0  0  0  0  0  0  0  0  0
  187.4220  179.8420  136.4260 O   0  0  0  0  0  0  0  0  0  0  0  0
  187.8250  178.6980  136.7720 C   0  0  0  0  0  0  0  0  0  0  0  0
  189.1800  178.5140  137.3230 C   0  0  0  0  0  3  0  0  0  0  0  0
  189.4840  178.0620  138.5450 C   0  0  0  0  0  3  0  0  0  0  0  0
  188.9710  177.2370  140.8750 C   0  0  2  0  0  3  0  0  0  0  0  0
  188.1650  178.8900  142.6430 O   0  0  0  0  0  0  0  0  0  0  0  0
  187.8370  178.8460  140.1350 N   0  0  0  0  0  2  0  0  0  0  0  0
  188.4690  177.6680  139.5830 C   0  0  1  0  0  3  0  0  0  0  0  0
  188.2990  178.4320  141.4770 C   0  0  0  0  0  0  0  0  0  0  0  0
  191.1960  175.7910  140.4460 O   0  0  0  0  0  1  0  0  0  0  0  0
  190.8280  177.3320  141.1530 P   0  0  2  0  0  0  0  0  0  0  0  0
  190.8290  176.6240  143.1550 S   0  0  0  0  0  0  0  0  0  0  0  0
  189.5340  175.9150  143.4400 O   0  0  0  0  0  0  0  0  0  0  0  0
  191.9690  175.6620  143.3420 O   0  0  0  0  0  0  0  0  0  0  0  0
  189.9490  177.8990  145.3710 C   0  0  0  0  0  1  0  0  0  0  0  0
  191.0070  177.9850  144.2890 C   0  0  0  0  0  2  0  0  0  0  0  0
  185.8310  174.9930  136.4370 C   0  0  2  0  0  3  0  0  0  0  0  0
  188.4360  174.9280  137.0420 C   0  0  0  0  0  0  0  0  0  0  0  0
  187.2580  174.9630  136.7910 C   0  0  0  0  0  0  0  0  0  0  0  0
  189.8750  174.8790  137.3050 C   0  0  0  0  0  2  0  0  0  0  0  0
  193.8750  176.4580  137.1720 O   0  0  0  0  0  0  0  0  0  0  0  0
  192.8270  173.8540  136.3100 C   0  0  2  0  0  3  0  0  0  0  0  0
  194.8090  175.0230  137.2150 P   0  0  2  0  0  0  0  0  0  0  0  0
  192.4960  175.7970  134.7290 C   0  0  0  0  0  1  0  0  0  0  0  0
  190.6370  174.7560  135.9830 C   0  0  2  0  0  3  0  0  0  0  0  0
  194.7480  174.4060  138.5940 O   0  0  0  0  0  1  0  0  0  0  0  0
  196.4140  175.3910  136.8420 O   0  0  0  0  0  0  0  0  0  0  0  0
  192.5050  176.1040  137.2190 C   0  0  0  0  0  2  0  0  0  0  0  0
  194.2030  173.9300  136.0520 O   0  0  0  0  0  0  0  0  0  0  0  0
  192.1000  172.8340  135.4680 C   0  0  0  0  0  2  0  0  0  0  0  0
  190.6460  173.2910  135.5180 C   0  0  0  0  0  2  0  0  0  0  0  0
  192.1080  175.1670  136.0660 C   0  0  1  0  0  0  0  0  0  0  0  0
  185.9730  173.7840  134.5820 C   0  0  0  0  0  1  0  0  0  0  0  0
  185.6930  175.0720  135.0500 O   0  0  0  0  0  0  0  0  0  0  0  0
  1  2  1  0  0  0  0
  2  5  2  0  0  0  0
  3  6  2  0  0  0  0
  4  1  2  0  0  0  0
  4  3  1  0  0  0  0
  5  7  1  0  0  0  0
  6  5  1  0  0  0  0
  8 15  2  0  0  0  0
 11  9  1  6  0  0  0
 11 12  1  0  0  0  0
 11  8  1  0  0  0  0
 12 10  1  6  0  0  0
 12 17  1  0  0  0  0
 13 10  2  0  0  0  0
 14  9  2  0  0  0  0
 15 19  1  0  0  0  0
 16  7  1  6  0  0  0
 16 13  1  0  0  0  0
 16  9  1  0  0  0  0
 17 15  1  0  0  0  0
 19 18  1  0  0  0  0
 20 22  1  0  0  0  0
 20  1  1  0  0  0  0
 21 22  2  0  0  0  0
 22 23  1  0  0  0  0
 23 24  2  0  0  0  0
 25 31  1  6  0  0  0
 25 29  1  0  0  0  0
 27 29  1  0  0  0  0
 28 24  1  6  0  0  0
 28 27  1  0  0  0  0
 28 25  1  0  0  0  0
 29 26  2  0  0  0  0
 31 30  1  6  0  0  0
 31 32  1  0  0  0  0
 32 34  2  0  0  0  0
 32 33  2  0  0  0  0
 32 36  1  0  0  0  0
 36 35  1  0  0  0  0
 37 39  1  6  0  0  0
 37  4  1  0  0  0  0
 38 40  1  0  0  0  0
 39 38  3  0  0  0  0
 41 43  1  0  0  0  0
 41 48  1  0  0  0  0
 42 50  1  6  0  0  0
 43 47  2  6  0  0  0
 43 46  1  0  0  0  0
 45 52  1  0  0  0  0
 45 40  1  1  0  0  0
 49 42  1  0  0  0  0
 49 43  1  0  0  0  0
 50 51  1  0  0  0  0
 51 45  1  0  0  0  0
 52 44  1  6  0  0  0
 52 42  1  0  0  0  0
 52 48  1  0  0  0  0
 53 54  1  0  0  0  0
 54 37  1  0  0  0  0
M  END
>  <MODEL>
4

>  <REMARK>
 VINA RESULT:      -8.0      3.116      7.611
  Name = 
  15 active torsions:
  status: ('A' for Active; 'I' for Inactive)
    1  A    between atoms: C_2  and  C_9
    2  A    between atoms: C_7  and  P_23
    3  A    between atoms: C_9  and  C_22
    4  A    between atoms: C_14  and  O_21
    5  A    between atoms: C_17  and  C_37
    6  A    between atoms: C_17  and  C_51
    7  A    between atoms: C_19  and  C_44
    8  A    between atoms: O_21  and  C_35
    9  A    between atoms: P_23  and  S_27
   10  A    between atoms: C_24  and  C_44
   11  A    between atoms: S_27  and  C_36
   12  A    between atoms: C_32  and  C_35
   13  A    between atoms: O_42  and  C_44
   14  A    between atoms: C_43  and  O_45
   15  A    between atoms: C_46  and  C_47
                            x       y       z     vdW  Elec       q    Type
                         _______ _______ _______ _____ _____    ______ ____

>  <TORSDO>
F 15

$$$$
=
 OpenBabel10222421503D

 54 59  0  0  1  0  0  0  0  0999 V2000
  184.7080  178.3480  141.9950 C   0  0  0  0  0  0  0  0  0  0  0  0
  186.0890  178.5440  141.8410 C   0  0  0  0  0  3  0  0  0  0  0  0
  184.4920  178.3090  139.5770 C   0  0  0  0  0  3  0  0  0  0  0  0
  183.9040  178.2130  140.8490 C   0  0  0  0  0  0  0  0  0  0  0  0
  186.6780  178.5960  140.5710 C   0  0  0  0  0  0  0  0  0  0  0  0
  185.8680  178.4940  139.4410 C   0  0  0  0  0  3  0  0  0  0  0  0
  188.1410  178.8740  140.3910 C   0  0  0  0  0  2  0  0  0  0  0  0
  190.9440  175.1880  138.2840 N   0  0  0  0  0  0  0  0  0  0  0  0
  189.6610  176.9720  139.4800 C   0  0  0  0  0  0  0  0  0  0  0  0
  189.0250  177.7700  136.8280 C   0  0  0  0  0  3  0  0  0  0  0  0
  190.5970  176.6030  138.3670 C   0  0  2  0  0  3  0  0  0  0  0  0
  189.9430  176.8300  137.0540 C   0  0  1  0  0  3  0  0  0  0  0  0
  188.4920  178.5230  137.9870 C   0  0  0  0  0  3  0  0  0  0  0  0
  189.7450  176.4220  140.6090 O   0  0  0  0  0  0  0  0  0  0  0  0
  190.7790  174.8100  137.0510 C   0  0  0  0  0  0  0  0  0  0  0  0
  188.7480  178.1220  139.2470 C   0  0  2  0  0  3  0  0  0  0  0  0
  190.2260  175.7760  136.2140 O   0  0  0  0  0  0  0  0  0  0  0  0
  190.3880  172.9080  135.5610 C   0  0  0  0  0  1  0  0  0  0  0  0
  191.0910  173.5210  136.6280 O   0  0  0  0  0  0  0  0  0  0  0  0
  184.1050  178.2970  143.2630 O   0  0  0  0  0  0  0  0  0  0  0  0
  184.6010  180.1760  144.5360 O   0  0  0  0  0  0  0  0  0  0  0  0
  184.5720  178.9190  144.4300 C   0  0  0  0  0  0  0  0  0  0  0  0
  185.0390  178.0610  145.5340 C   0  0  0  0  0  3  0  0  0  0  0  0
  186.2990  177.6700  145.7550 C   0  0  0  0  0  3  0  0  0  0  0  0
  188.7980  177.8170  145.4280 C   0  0  2  0  0  3  0  0  0  0  0  0
  189.9770  176.0890  143.9680 O   0  0  0  0  0  0  0  0  0  0  0  0
  187.6460  177.0640  143.8390 N   0  0  0  0  0  2  0  0  0  0  0  0
  187.4700  178.0430  144.8870 C   0  0  1  0  0  3  0  0  0  0  0  0
  189.0180  176.8210  144.3320 C   0  0  0  0  0  0  0  0  0  0  0  0
  188.6430  178.4000  148.0480 O   0  0  0  0  0  1  0  0  0  0  0  0
  188.9130  176.9710  147.1040 P   0  0  2  0  0  0  0  0  0  0  0  0
  191.0290  177.0270  147.2790 S   0  0  0  0  0  0  0  0  0  0  0  0
  191.6200  177.6610  146.0510 O   0  0  0  0  0  0  0  0  0  0  0  0
  191.4050  177.8430  148.4850 O   0  0  0  0  0  0  0  0  0  0  0  0
  192.9800  175.4120  148.2240 C   0  0  0  0  0  1  0  0  0  0  0  0
  191.6770  175.3780  147.4520 C   0  0  0  0  0  2  0  0  0  0  0  0
  182.4090  178.0890  140.9990 C   0  0  2  0  0  3  0  0  0  0  0  0
  181.3670  176.2120  139.4030 C   0  0  0  0  0  0  0  0  0  0  0  0
  181.8370  177.0710  140.1040 C   0  0  0  0  0  0  0  0  0  0  0  0
  180.7910  175.1410  138.5860 C   0  0  0  0  0  2  0  0  0  0  0  0
  184.8240  174.6460  137.1730 O   0  0  0  0  0  0  0  0  0  0  0  0
  182.2870  173.6470  136.0810 C   0  0  2  0  0  3  0  0  0  0  0  0
  184.7030  173.1710  136.3110 P   0  0  2  0  0  0  0  0  0  0  0  0
  182.8860  176.0470  135.5640 C   0  0  0  0  0  1  0  0  0  0  0  0
  181.0560  175.4220  137.1060 C   0  0  2  0  0  3  0  0  0  0  0  0
  184.5520  172.0170  137.2750 O   0  0  0  0  0  1  0  0  0  0  0  0
  186.1010  172.9470  135.3910 O   0  0  0  0  0  0  0  0  0  0  0  0
  183.5540  174.9510  137.7200 C   0  0  0  0  0  2  0  0  0  0  0  0
  183.3550  173.2470  135.2640 O   0  0  0  0  0  0  0  0  0  0  0  0
  180.9510  173.6590  135.3800 C   0  0  0  0  0  2  0  0  0  0  0  0
  180.1000  174.5920  136.2340 C   0  0  0  0  0  2  0  0  0  0  0  0
  182.4640  175.0460  136.6390 C   0  0  1  0  0  0  0  0  0  0  0  0
  180.8080  179.4440  141.7230 C   0  0  0  0  0  1  0  0  0  0  0  0
  181.8060  179.3230  140.7500 O   0  0  0  0  0  0  0  0  0  0  0  0
  1 20  1  0  0  0  0
  2  1  1  0  0  0  0
  3  4  1  0  0  0  0
  4 37  1  0  0  0  0
  4  1  2  0  0  0  0
  5  2  2  0  0  0  0
  6  3  2  0  0  0  0
  6  5  1  0  0  0  0
  7  5  1  0  0  0  0
  9 14  2  0  0  0  0
 10 13  2  0  0  0  0
 11  8  1  1  0  0  0
 11  9  1  0  0  0  0
 12 10  1  1  0  0  0
 12 11  1  0  0  0  0
 13 16  1  0  0  0  0
 15  8  2  0  0  0  0
 16  9  1  0  0  0  0
 16  7  1  1  0  0  0
 17 15  1  0  0  0  0
 17 12  1  0  0  0  0
 18 19  1  0  0  0  0
 19 15  1  0  0  0  0
 20 22  1  0  0  0  0
 22 21  2  0  0  0  0
 22 23  1  0  0  0  0
 23 24  2  0  0  0  0
 25 31  1  1  0  0  0
 26 29  2  0  0  0  0
 27 29  1  0  0  0  0
 27 28  1  0  0  0  0
 28 25  1  0  0  0  0
 28 24  1  1  0  0  0
 29 25  1  0  0  0  0
 31 32  1  0  0  0  0
 31 30  1  1  0  0  0
 32 36  1  0  0  0  0
 32 34  2  0  0  0  0
 33 32  2  0  0  0  0
 36 35  1  0  0  0  0
 37 39  1  6  0  0  0
 38 39  3  0  0  0  0
 40 38  1  0  0  0  0
 41 48  1  0  0  0  0
 42 50  1  6  0  0  0
 42 52  1  0  0  0  0
 43 47  2  6  0  0  0
 43 41  1  0  0  0  0
 43 46  1  0  0  0  0
 45 40  1  1  0  0  0
 49 42  1  0  0  0  0
 49 43  1  0  0  0  0
 50 51  1  0  0  0  0
 51 45  1  0  0  0  0
 52 44  1  6  0  0  0
 52 45  1  0  0  0  0
 52 48  1  0  0  0  0
 54 37  1  0  0  0  0
 54 53  1  0  0  0  0
M  END
>  <MODEL>
5

>  <REMARK>
 VINA RESULT:      -7.7      2.816      6.437
  Name = 
  15 active torsions:
  status: ('A' for Active; 'I' for Inactive)
    1  A    between atoms: C_2  and  C_9
    2  A    between atoms: C_7  and  P_23
    3  A    between atoms: C_9  and  C_22
    4  A    between atoms: C_14  and  O_21
    5  A    between atoms: C_17  and  C_37
    6  A    between atoms: C_17  and  C_51
    7  A    between atoms: C_19  and  C_44
    8  A    between atoms: O_21  and  C_35
    9  A    between atoms: P_23  and  S_27
   10  A    between atoms: C_24  and  C_44
   11  A    between atoms: S_27  and  C_36
   12  A    between atoms: C_32  and  C_35
   13  A    between atoms: O_42  and  C_44
   14  A    between atoms: C_43  and  O_45
   15  A    between atoms: C_46  and  C_47
                            x       y       z     vdW  Elec       q    Type
                         _______ _______ _______ _____ _____    ______ ____

>  <TORSDO>
F 15

$$$$
=
 OpenBabel10222421503D

 54 59  0  0  1  0  0  0  0  0999 V2000
  185.7510  176.3030  136.2980 C   0  0  0  0  0  0  0  0  0  0  0  0
  184.3610  176.2440  136.1180 C   0  0  0  0  0  3  0  0  0  0  0  0
  185.4210  178.1110  137.8830 C   0  0  0  0  0  3  0  0  0  0  0  0
  186.2850  177.2380  137.2030 C   0  0  0  0  0  0  0  0  0  0  0  0
  183.4990  177.0880  136.8310 C   0  0  0  0  0  0  0  0  0  0  0  0
  184.0400  178.0330  137.7010 C   0  0  0  0  0  3  0  0  0  0  0  0
  182.0180  177.0820  136.5960 C   0  0  0  0  0  2  0  0  0  0  0  0
  180.0330  181.7150  137.2890 N   0  0  0  0  0  0  0  0  0  0  0  0
  180.9460  179.3910  137.1200 C   0  0  0  0  0  0  0  0  0  0  0  0
  181.0020  180.0160  134.3490 C   0  0  0  0  0  3  0  0  0  0  0  0
  180.0040  180.4330  136.5920 C   0  0  2  0  0  3  0  0  0  0  0  0
  180.4000  180.8290  135.2170 C   0  0  1  0  0  3  0  0  0  0  0  0
  181.4640  178.6940  134.8300 C   0  0  0  0  0  3  0  0  0  0  0  0
  181.1560  179.2710  138.3550 O   0  0  0  0  0  0  0  0  0  0  0  0
  180.1300  182.6520  136.3930 C   0  0  0  0  0  0  0  0  0  0  0  0
  181.4870  178.4080  136.1460 C   0  0  2  0  0  3  0  0  0  0  0  0
  180.2980  182.1970  135.0880 O   0  0  0  0  0  0  0  0  0  0  0  0
  181.2980  184.6700  137.1400 C   0  0  0  0  0  1  0  0  0  0  0  0
  180.1160  184.0010  136.7360 O   0  0  0  0  0  0  0  0  0  0  0  0
  186.6260  175.4640  135.5870 O   0  0  0  0  0  0  0  0  0  0  0  0
  186.2290  173.2170  135.1530 O   0  0  0  0  0  0  0  0  0  0  0  0
  186.8390  174.0980  135.8200 C   0  0  0  0  0  0  0  0  0  0  0  0
  187.7930  173.7140  136.8760 C   0  0  0  0  0  3  0  0  0  0  0  0
  189.1190  173.6090  136.7450 C   0  0  0  0  0  3  0  0  0  0  0  0
  191.2380  174.3370  135.5800 C   0  0  2  0  0  3  0  0  0  0  0  0
  192.7870  172.5760  134.5760 O   0  0  0  0  0  0  0  0  0  0  0  0
  190.2740  172.6080  134.8690 N   0  0  0  0  0  2  0  0  0  0  0  0
  189.8700  173.8610  135.4660 C   0  0  1  0  0  3  0  0  0  0  0  0
  191.6810  173.0610  134.9330 C   0  0  0  0  0  0  0  0  0  0  0  0
  190.9880  175.8160  137.8100 O   0  0  0  0  0  1  0  0  0  0  0  0
  191.9620  174.4710  137.3100 P   0  0  2  0  0  0  0  0  0  0  0  0
  193.6530  175.6480  136.7930 S   0  0  0  0  0  0  0  0  0  0  0  0
  193.5330  176.1050  135.3660 O   0  0  0  0  0  0  0  0  0  0  0  0
  193.7130  176.8520  137.6920 O   0  0  0  0  0  0  0  0  0  0  0  0
  194.8100  173.2870  137.4220 C   0  0  0  0  0  1  0  0  0  0  0  0
  195.1450  174.6950  136.9740 C   0  0  0  0  0  2  0  0  0  0  0  0
  187.7800  177.3710  137.3410 C   0  0  2  0  0  3  0  0  0  0  0  0
  188.4920  178.0570  139.8270 C   0  0  0  0  0  0  0  0  0  0  0  0
  188.1870  177.7630  138.7000 C   0  0  0  0  0  0  0  0  0  0  0  0
  188.8380  178.3830  141.2120 C   0  0  0  0  0  2  0  0  0  0  0  0
  191.5450  176.1470  143.6980 O   0  0  0  0  0  0  0  0  0  0  0  0
  189.0690  177.5710  144.3810 C   0  0  2  0  0  3  0  0  0  0  0  0
  191.2880  176.8790  145.2250 P   0  0  2  0  0  0  0  0  0  0  0  0
  188.8200  175.2690  143.3690 C   0  0  0  0  0  1  0  0  0  0  0  0
  188.2300  177.3410  142.1540 C   0  0  2  0  0  3  0  0  0  0  0  0
  191.8950  178.2630  145.2450 O   0  0  0  0  0  0  0  0  0  0  0  0
  192.0130  175.9360  146.4240 O   0  0  0  0  0  1  0  0  0  0  0  0
  190.7160  176.7890  142.7470 C   0  0  0  0  0  2  0  0  0  0  0  0
  189.6090  176.9660  145.5250 O   0  0  0  0  0  0  0  0  0  0  0  0
  187.5930  177.8650  144.4820 C   0  0  0  0  0  2  0  0  0  0  0  0
  187.1470  177.9930  143.0280 C   0  0  0  0  0  2  0  0  0  0  0  0
  189.2290  176.7230  143.1340 C   0  0  1  0  0  0  0  0  0  0  0  0
  189.2620  177.6400  135.7120 C   0  0  0  0  0  1  0  0  0  0  0  0
  188.2570  178.3060  136.4210 O   0  0  0  0  0  0  0  0  0  0  0  0
  1  4  1  0  0  0  0
  2  1  2  0  0  0  0
  2  5  1  0  0  0  0
  4 37  1  0  0  0  0
  4  3  2  0  0  0  0
  5  6  2  0  0  0  0
  6  3  1  0  0  0  0
  7  5  1  0  0  0  0
  9 14  2  0  0  0  0
 10 13  2  0  0  0  0
 11  9  1  1  0  0  0
 11  8  1  0  0  0  0
 12 10  1  1  0  0  0
 12 11  1  0  0  0  0
 13 16  1  0  0  0  0
 15 19  1  0  0  0  0
 15  8  2  0  0  0  0
 16  7  1  6  0  0  0
 16  9  1  0  0  0  0
 17 12  1  0  0  0  0
 17 15  1  0  0  0  0
 19 18  1  0  0  0  0
 20 22  1  0  0  0  0
 20  1  1  0  0  0  0
 21 22  2  0  0  0  0
 22 23  1  0  0  0  0
 24 23  2  0  0  0  0
 25 31  1  1  0  0  0
 26 29  2  0  0  0  0
 27 29  1  0  0  0  0
 27 28  1  0  0  0  0
 28 25  1  0  0  0  0
 28 24  1  1  0  0  0
 29 25  1  0  0  0  0
 31 30  1  1  0  0  0
 32 36  1  0  0  0  0
 32 31  1  0  0  0  0
 32 34  2  0  0  0  0
 33 32  2  0  0  0  0
 36 35  1  0  0  0  0
 37 39  1  1  0  0  0
 38 40  1  0  0  0  0
 39 38  3  0  0  0  0
 41 43  1  0  0  0  0
 42 50  1  1  0  0  0
 42 49  1  0  0  0  0
 43 46  2  1  0  0  0
 43 49  1  0  0  0  0
 43 47  1  0  0  0  0
 45 40  1  1  0  0  0
 45 51  1  0  0  0  0
 45 52  1  0  0  0  0
 48 52  1  0  0  0  0
 48 41  1  0  0  0  0
 51 50  1  0  0  0  0
 52 44  1  1  0  0  0
 52 42  1  0  0  0  0
 53 54  1  0  0  0  0
 54 37  1  0  0  0  0
M  END
>  <MODEL>
6

>  <REMARK>
 VINA RESULT:      -7.6      3.565      9.576
  Name = 
  15 active torsions:
  status: ('A' for Active; 'I' for Inactive)
    1  A    between atoms: C_2  and  C_9
    2  A    between atoms: C_7  and  P_23
    3  A    between atoms: C_9  and  C_22
    4  A    between atoms: C_14  and  O_21
    5  A    between atoms: C_17  and  C_37
    6  A    between atoms: C_17  and  C_51
    7  A    between atoms: C_19  and  C_44
    8  A    between atoms: O_21  and  C_35
    9  A    between atoms: P_23  and  S_27
   10  A    between atoms: C_24  and  C_44
   11  A    between atoms: S_27  and  C_36
   12  A    between atoms: C_32  and  C_35
   13  A    between atoms: O_42  and  C_44
   14  A    between atoms: C_43  and  O_45
   15  A    between atoms: C_46  and  C_47
                            x       y       z     vdW  Elec       q    Type
                         _______ _______ _______ _____ _____    ______ ____

>  <TORSDO>
F 15

$$$$
=
 OpenBabel10222421503D

 54 59  0  0  1  0  0  0  0  0999 V2000
  188.5070  176.3880  137.3020 C   0  0  0  0  0  0  0  0  0  0  0  0
  189.0030  176.3460  138.6130 C   0  0  0  0  0  3  0  0  0  0  0  0
  188.8670  178.7890  137.2940 C   0  0  0  0  0  3  0  0  0  0  0  0
  188.4530  177.6230  136.6300 C   0  0  0  0  0  0  0  0  0  0  0  0
  189.4550  177.5050  139.2570 C   0  0  0  0  0  0  0  0  0  0  0  0
  189.3680  178.7290  138.5950 C   0  0  0  0  0  3  0  0  0  0  0  0
  189.9230  177.4840  140.6820 C   0  0  0  0  0  2  0  0  0  0  0  0
  187.7620  177.1240  145.2740 N   0  0  0  0  0  0  0  0  0  0  0  0
  188.9480  177.1690  143.0710 C   0  0  0  0  0  0  0  0  0  0  0  0
  186.5460  178.4310  142.2280 C   0  0  0  0  0  3  0  0  0  0  0  0
  187.6830  176.9050  143.8340 C   0  0  2  0  0  3  0  0  0  0  0  0
  186.6350  177.8800  143.4380 C   0  0  1  0  0  3  0  0  0  0  0  0
  187.6490  178.2000  141.2670 C   0  0  0  0  0  3  0  0  0  0  0  0
  190.0710  176.8650  143.5510 O   0  0  0  0  0  0  0  0  0  0  0  0
  186.7450  177.8560  145.6210 C   0  0  0  0  0  0  0  0  0  0  0  0
  188.8100  177.6470  141.6710 C   0  0  2  0  0  3  0  0  0  0  0  0
  185.9660  178.3120  144.5610 O   0  0  0  0  0  0  0  0  0  0  0  0
  187.4960  178.0350  147.9440 C   0  0  0  0  0  1  0  0  0  0  0  0
  186.4970  178.1880  146.9500 O   0  0  0  0  0  0  0  0  0  0  0  0
  188.0470  175.2330  136.6470 O   0  0  0  0  0  0  0  0  0  0  0  0
  188.4090  173.0480  137.3470 O   0  0  0  0  0  0  0  0  0  0  0  0
  188.7100  174.0000  136.5750 C   0  0  0  0  0  0  0  0  0  0  0  0
  189.7810  173.8450  135.5740 C   0  0  0  0  0  3  0  0  0  0  0  0
  191.0890  174.0280  135.7790 C   0  0  0  0  0  3  0  0  0  0  0  0
  193.0600  174.0190  137.3580 C   0  0  2  0  0  3  0  0  0  0  0  0
  194.5180  176.1020  137.5570 O   0  0  0  0  0  0  0  0  0  0  0  0
  192.0510  175.8400  137.0610 N   0  0  0  0  0  2  0  0  0  0  0  0
  191.6950  174.4390  137.0930 C   0  0  1  0  0  3  0  0  0  0  0  0
  193.4500  175.4650  137.3630 C   0  0  0  0  0  0  0  0  0  0  0  0
  193.1730  171.5850  136.2230 O   0  0  0  0  0  1  0  0  0  0  0  0
  193.9630  173.1100  135.9820 P   0  0  2  0  0  0  0  0  0  0  0  0
  195.6960  172.6010  137.1010 S   0  0  0  0  0  0  0  0  0  0  0  0
  195.3460  172.5130  138.5600 O   0  0  0  0  0  0  0  0  0  0  0  0
  196.2130  171.2680  136.6360 O   0  0  0  0  0  0  0  0  0  0  0  0
  198.0870  173.2800  136.0380 C   0  0  0  0  0  1  0  0  0  0  0  0
  196.9570  173.8380  136.8800 C   0  0  0  0  0  2  0  0  0  0  0  0
  187.8410  177.6960  135.2540 C   0  0  2  0  0  3  0  0  0  0  0  0
  185.2380  177.0800  135.2330 C   0  0  0  0  0  0  0  0  0  0  0  0
  186.4060  177.3730  135.2580 C   0  0  0  0  0  0  0  0  0  0  0  0
  183.8280  176.6910  135.1760 C   0  0  0  0  0  2  0  0  0  0  0  0
  182.5260  175.8620  139.1920 O   0  0  0  0  0  0  0  0  0  0  0  0
  181.5730  174.8010  136.6240 C   0  0  2  0  0  3  0  0  0  0  0  0
  180.9020  175.3860  138.9310 P   0  0  2  0  0  0  0  0  0  0  0  0
  183.6720  173.7660  137.5780 C   0  0  0  0  0  1  0  0  0  0  0  0
  183.6820  175.2220  135.5780 C   0  0  2  0  0  3  0  0  0  0  0  0
  180.0640  176.5870  138.5590 O   0  0  0  0  0  0  0  0  0  0  0  0
  180.2890  174.6970  140.3460 O   0  0  0  0  0  1  0  0  0  0  0  0
  183.1060  176.1830  137.9410 C   0  0  0  0  0  2  0  0  0  0  0  0
  180.8560  174.2230  137.6820 O   0  0  0  0  0  0  0  0  0  0  0  0
  181.5540  173.9880  135.3540 C   0  0  0  0  0  2  0  0  0  0  0  0
  182.7680  174.4920  134.5800 C   0  0  0  0  0  2  0  0  0  0  0  0
  183.0400  175.0090  136.9510 C   0  0  1  0  0  0  0  0  0  0  0  0
  189.8280  177.3070  134.3470 C   0  0  0  0  0  1  0  0  0  0  0  0
  188.5150  176.8280  134.3920 O   0  0  0  0  0  0  0  0  0  0  0  0
  1  2  1  0  0  0  0
  2  5  2  0  0  0  0
  3  6  2  0  0  0  0
  4  3  1  0  0  0  0
  4  1  2  0  0  0  0
  5  7  1  0  0  0  0
  6  5  1  0  0  0  0
  8 15  2  0  0  0  0
  9 14  2  0  0  0  0
 11  9  1  6  0  0  0
 11  8  1  0  0  0  0
 12 10  1  1  0  0  0
 12 11  1  0  0  0  0
 12 17  1  0  0  0  0
 13 16  1  0  0  0  0
 13 10  2  0  0  0  0
 15 19  1  0  0  0  0
 16  7  1  6  0  0  0
 16  9  1  0  0  0  0
 17 15  1  0  0  0  0
 19 18  1  0  0  0  0
 20  1  1  0  0  0  0
 22 20  1  0  0  0  0
 22 21  2  0  0  0  0
 23 24  2  0  0  0  0
 23 22  1  0  0  0  0
 25 31  1  6  0  0  0
 25 29  1  0  0  0  0
 27 28  1  0  0  0  0
 27 29  1  0  0  0  0
 28 24  1  6  0  0  0
 28 25  1  0  0  0  0
 29 26  2  0  0  0  0
 31 30  1  1  0  0  0
 31 32  1  0  0  0  0
 32 33  2  0  0  0  0
 34 32  2  0  0  0  0
 35 36  1  0  0  0  0
 36 32  1  0  0  0  0
 37 39  1  1  0  0  0
 37  4  1  0  0  0  0
 38 39  3  0  0  0  0
 40 38  1  0  0  0  0
 42 50  1  6  0  0  0
 42 52  1  0  0  0  0
 42 49  1  0  0  0  0
 43 46  2  6  0  0  0
 43 41  1  0  0  0  0
 43 47  1  0  0  0  0
 45 40  1  6  0  0  0
 45 52  1  0  0  0  0
 48 41  1  0  0  0  0
 49 43  1  0  0  0  0
 51 50  1  0  0  0  0
 51 45  1  0  0  0  0
 52 44  1  1  0  0  0
 52 48  1  0  0  0  0
 53 54  1  0  0  0  0
 54 37  1  0  0  0  0
M  END
>  <MODEL>
7

>  <REMARK>
 VINA RESULT:      -7.4      3.210      5.998
  Name = 
  15 active torsions:
  status: ('A' for Active; 'I' for Inactive)
    1  A    between atoms: C_2  and  C_9
    2  A    between atoms: C_7  and  P_23
    3  A    between atoms: C_9  and  C_22
    4  A    between atoms: C_14  and  O_21
    5  A    between atoms: C_17  and  C_37
    6  A    between atoms: C_17  and  C_51
    7  A    between atoms: C_19  and  C_44
    8  A    between atoms: O_21  and  C_35
    9  A    between atoms: P_23  and  S_27
   10  A    between atoms: C_24  and  C_44
   11  A    between atoms: S_27  and  C_36
   12  A    between atoms: C_32  and  C_35
   13  A    between atoms: O_42  and  C_44
   14  A    between atoms: C_43  and  O_45
   15  A    between atoms: C_46  and  C_47
                            x       y       z     vdW  Elec       q    Type
                         _______ _______ _______ _____ _____    ______ ____

>  <TORSDO>
F 15

$$$$
=
 OpenBabel10222421503D

 54 59  0  0  1  0  0  0  0  0999 V2000
  190.6290  174.5750  137.4090 C   0  0  0  0  0  0  0  0  0  0  0  0
  191.8400  173.8690  137.3420 C   0  0  0  0  0  3  0  0  0  0  0  0
  189.9760  173.5570  135.3040 C   0  0  0  0  0  3  0  0  0  0  0  0
  189.6810  174.4040  136.3850 C   0  0  0  0  0  0  0  0  0  0  0  0
  192.1130  172.9930  136.2840 C   0  0  0  0  0  0  0  0  0  0  0  0
  191.1810  172.8550  135.2570 C   0  0  0  0  0  3  0  0  0  0  0  0
  193.4320  172.2870  136.1650 C   0  0  0  0  0  2  0  0  0  0  0  0
  197.4890  174.3150  138.4700 N   0  0  0  0  0  0  0  0  0  0  0  0
  195.4340  173.2610  137.5060 C   0  0  0  0  0  0  0  0  0  0  0  0
  196.0750  174.9220  135.2920 C   0  0  0  0  0  3  0  0  0  0  0  0
  196.2390  174.5050  137.7420 C   0  0  2  0  0  3  0  0  0  0  0  0
  196.7240  175.0510  136.4490 C   0  0  1  0  0  3  0  0  0  0  0  0
  194.8890  174.0370  135.2480 C   0  0  0  0  0  3  0  0  0  0  0  0
  195.3570  172.3620  138.3840 O   0  0  0  0  0  0  0  0  0  0  0  0
  198.4300  174.9220  137.8100 C   0  0  0  0  0  0  0  0  0  0  0  0
  194.6060  173.2100  136.2730 C   0  0  2  0  0  3  0  0  0  0  0  0
  198.0330  175.4550  136.5870 O   0  0  0  0  0  0  0  0  0  0  0  0
  200.0500  174.6650  139.6280 C   0  0  0  0  0  1  0  0  0  0  0  0
  199.7390  174.9820  138.2820 O   0  0  0  0  0  0  0  0  0  0  0  0
  190.3450  175.4590  138.4630 O   0  0  0  0  0  0  0  0  0  0  0  0
  190.7840  177.5550  137.5640 O   0  0  0  0  0  0  0  0  0  0  0  0
  190.7710  176.7910  138.5680 C   0  0  0  0  0  0  0  0  0  0  0  0
  191.2150  177.2760  139.8880 C   0  0  0  0  0  3  0  0  0  0  0  0
  190.4520  177.4150  140.9770 C   0  0  0  0  0  3  0  0  0  0  0  0
  188.3110  177.2770  142.3080 C   0  0  2  0  0  3  0  0  0  0  0  0
  186.5510  179.1050  142.0480 O   0  0  0  0  0  0  0  0  0  0  0  0
  188.2230  178.1600  140.4010 N   0  0  0  0  0  2  0  0  0  0  0  0
  188.9820  177.1030  141.0320 C   0  0  1  0  0  3  0  0  0  0  0  0
  187.4890  178.3540  141.6700 C   0  0  0  0  0  0  0  0  0  0  0  0
  190.2260  176.5440  144.0460 O   0  0  0  0  0  1  0  0  0  0  0  0
  189.3240  177.9900  143.7230 P   0  0  2  0  0  0  0  0  0  0  0  0
  187.8930  177.6640  145.2580 S   0  0  0  0  0  0  0  0  0  0  0  0
  187.0590  178.9010  145.4410 O   0  0  0  0  0  0  0  0  0  0  0  0
  186.9980  176.5200  144.8670 O   0  0  0  0  0  0  0  0  0  0  0  0
  187.8190  177.6550  147.9600 C   0  0  0  0  0  1  0  0  0  0  0  0
  188.7100  177.2830  146.7920 C   0  0  0  0  0  2  0  0  0  0  0  0
  188.4130  175.2210  136.3990 C   0  0  2  0  0  3  0  0  0  0  0  0
  186.2950  173.8540  137.2940 C   0  0  0  0  0  0  0  0  0  0  0  0
  187.2610  174.4610  136.9080 C   0  0  0  0  0  0  0  0  0  0  0  0
  185.0990  173.1290  137.7270 C   0  0  0  0  0  2  0  0  0  0  0  0
  182.3270  176.2920  138.6350 O   0  0  0  0  0  0  0  0  0  0  0  0
  183.7780  175.6860  136.1550 C   0  0  2  0  0  3  0  0  0  0  0  0
  182.8210  177.5040  137.5300 P   0  0  2  0  0  0  0  0  0  0  0  0
  181.6880  174.3420  136.6110 C   0  0  0  0  0  1  0  0  0  0  0  0
  183.9600  173.3730  136.7340 C   0  0  2  0  0  3  0  0  0  0  0  0
  184.1420  178.0950  137.9650 O   0  0  0  0  0  1  0  0  0  0  0  0
  181.6550  178.7250  137.4850 O   0  0  0  0  0  0  0  0  0  0  0  0
  183.1650  175.1630  138.4660 C   0  0  0  0  0  2  0  0  0  0  0  0
  182.9650  176.8150  135.9750 O   0  0  0  0  0  0  0  0  0  0  0  0
  184.1460  174.9840  134.8700 C   0  0  0  0  0  2  0  0  0  0  0  0
  184.5310  173.5790  135.3210 C   0  0  0  0  0  2  0  0  0  0  0  0
  183.1320  174.6260  137.0260 C   0  0  1  0  0  0  0  0  0  0  0  0
  188.3030  177.0730  135.1830 C   0  0  0  0  0  1  0  0  0  0  0  0
  188.1370  175.6860  135.1120 O   0  0  0  0  0  0  0  0  0  0  0  0
  1 20  1  0  0  0  0
  2  1  1  0  0  0  0
  3  4  1  0  0  0  0
  4 37  1  0  0  0  0
  4  1  2  0  0  0  0
  5  2  2  0  0  0  0
  6  3  2  0  0  0  0
  6  5  1  0  0  0  0
  7  5  1  0  0  0  0
  9 14  2  0  0  0  0
 11  9  1  6  0  0  0
 11  8  1  0  0  0  0
 12 10  1  6  0  0  0
 12 17  1  0  0  0  0
 12 11  1  0  0  0  0
 13 10  2  0  0  0  0
 13 16  1  0  0  0  0
 15 19  1  0  0  0  0
 15  8  2  0  0  0  0
 16  7  1  1  0  0  0
 16  9  1  0  0  0  0
 17 15  1  0  0  0  0
 19 18  1  0  0  0  0
 20 22  1  0  0  0  0
 21 22  2  0  0  0  0
 22 23  1  0  0  0  0
 23 24  2  0  0  0  0
 25 31  1  1  0  0  0
 27 28  1  0  0  0  0
 27 29  1  0  0  0  0
 28 24  1  1  0  0  0
 28 25  1  0  0  0  0
 29 26  2  0  0  0  0
 29 25  1  0  0  0  0
 31 30  1  1  0  0  0
 31 32  1  0  0  0  0
 32 33  2  0  0  0  0
 32 36  1  0  0  0  0
 34 32  2  0  0  0  0
 36 35  1  0  0  0  0
 37 39  1  6  0  0  0
 38 40  1  0  0  0  0
 39 38  3  0  0  0  0
 42 50  1  6  0  0  0
 42 52  1  0  0  0  0
 43 47  2  6  0  0  0
 43 46  1  0  0  0  0
 43 41  1  0  0  0  0
 45 52  1  0  0  0  0
 45 40  1  1  0  0  0
 48 41  1  0  0  0  0
 49 42  1  0  0  0  0
 49 43  1  0  0  0  0
 50 51  1  0  0  0  0
 51 45  1  0  0  0  0
 52 44  1  6  0  0  0
 52 48  1  0  0  0  0
 54 53  1  0  0  0  0
 54 37  1  0  0  0  0
M  END
>  <MODEL>
8

>  <REMARK>
 VINA RESULT:      -7.3      4.135      8.862
  Name = 
  15 active torsions:
  status: ('A' for Active; 'I' for Inactive)
    1  A    between atoms: C_2  and  C_9
    2  A    between atoms: C_7  and  P_23
    3  A    between atoms: C_9  and  C_22
    4  A    between atoms: C_14  and  O_21
    5  A    between atoms: C_17  and  C_37
    6  A    between atoms: C_17  and  C_51
    7  A    between atoms: C_19  and  C_44
    8  A    between atoms: O_21  and  C_35
    9  A    between atoms: P_23  and  S_27
   10  A    between atoms: C_24  and  C_44
   11  A    between atoms: S_27  and  C_36
   12  A    between atoms: C_32  and  C_35
   13  A    between atoms: O_42  and  C_44
   14  A    between atoms: C_43  and  O_45
   15  A    between atoms: C_46  and  C_47
                            x       y       z     vdW  Elec       q    Type
                         _______ _______ _______ _____ _____    ______ ____

>  <TORSDO>
F 15

$$$$
=
 OpenBabel10222421503D

 54 59  0  0  1  0  0  0  0  0999 V2000
  189.3090  175.4070  137.2070 C   0  0  0  0  0  0  0  0  0  0  0  0
  190.1650  174.3090  137.0390 C   0  0  0  0  0  3  0  0  0  0  0  0
  191.1870  176.8780  136.7570 C   0  0  0  0  0  3  0  0  0  0  0  0
  189.8230  176.7060  137.0490 C   0  0  0  0  0  0  0  0  0  0  0  0
  191.5140  174.4830  136.7070 C   0  0  0  0  0  0  0  0  0  0  0  0
  192.0230  175.7750  136.5830 C   0  0  0  0  0  3  0  0  0  0  0  0
  192.4550  173.3200  136.5930 C   0  0  0  0  0  2  0  0  0  0  0  0
  197.2150  174.9230  137.4050 N   0  0  0  0  0  0  0  0  0  0  0  0
  194.8280  174.2070  137.1740 C   0  0  0  0  0  0  0  0  0  0  0  0
  195.5470  174.0020  134.4320 C   0  0  0  0  0  3  0  0  0  0  0  0
  195.9670  175.0370  136.6580 C   0  0  2  0  0  3  0  0  0  0  0  0
  196.3770  174.5620  135.3120 C   0  0  1  0  0  3  0  0  0  0  0  0
  194.1730  173.6720  134.8750 C   0  0  0  0  0  3  0  0  0  0  0  0
  194.6460  174.0520  138.4090 O   0  0  0  0  0  0  0  0  0  0  0  0
  198.1720  174.7150  136.5510 C   0  0  0  0  0  0  0  0  0  0  0  0
  193.8380  173.7190  136.1790 C   0  0  2  0  0  3  0  0  0  0  0  0
  197.7510  174.5420  135.2350 O   0  0  0  0  0  0  0  0  0  0  0  0
  199.8550  174.2870  138.2760 C   0  0  0  0  0  1  0  0  0  0  0  0
  199.5040  174.6260  136.9450 O   0  0  0  0  0  0  0  0  0  0  0  0
  187.9540  175.2450  137.5440 O   0  0  0  0  0  0  0  0  0  0  0  0
  187.0810  173.1090  137.2870 O   0  0  0  0  0  0  0  0  0  0  0  0
  187.0600  174.3300  136.9710 C   0  0  0  0  0  0  0  0  0  0  0  0
  186.0930  174.8330  135.9780 C   0  0  0  0  0  3  0  0  0  0  0  0
  184.7650  174.8920  136.1250 C   0  0  0  0  0  3  0  0  0  0  0  0
  183.2570  175.4330  138.0770 C   0  0  2  0  0  3  0  0  0  0  0  0
  180.7930  174.7810  137.9770 O   0  0  0  0  0  0  0  0  0  0  0  0
  182.8440  173.6910  136.9740 N   0  0  0  0  0  2  0  0  0  0  0  0
  184.0240  174.4350  137.3520 C   0  0  1  0  0  3  0  0  0  0  0  0
  182.0220  174.6640  137.7260 C   0  0  0  0  0  0  0  0  0  0  0  0
  184.8030  177.6050  137.7340 O   0  0  0  0  0  1  0  0  0  0  0  0
  183.1750  177.1600  137.3370 P   0  0  2  0  0  0  0  0  0  0  0  0
  182.3030  178.1220  139.0180 S   0  0  0  0  0  0  0  0  0  0  0  0
  181.1410  178.9640  138.5710 O   0  0  0  0  0  0  0  0  0  0  0  0
  181.8130  177.0810  139.9870 O   0  0  0  0  0  0  0  0  0  0  0  0
  183.8760  178.5790  141.1690 C   0  0  0  0  0  1  0  0  0  0  0  0
  183.5010  179.1640  139.8220 C   0  0  0  0  0  2  0  0  0  0  0  0
  188.9360  177.8970  137.3110 C   0  0  2  0  0  3  0  0  0  0  0  0
  188.6070  178.4170  139.9140 C   0  0  0  0  0  0  0  0  0  0  0  0
  188.7600  178.1620  138.7470 C   0  0  0  0  0  0  0  0  0  0  0  0
  188.4070  178.7680  141.3210 C   0  0  0  0  0  2  0  0  0  0  0  0
  191.5300  176.6680  143.4060 O   0  0  0  0  0  0  0  0  0  0  0  0
  188.8930  177.5670  144.3340 C   0  0  2  0  0  3  0  0  0  0  0  0
  191.2250  177.1270  145.0270 P   0  0  2  0  0  0  0  0  0  0  0  0
  188.9630  175.4200  143.0030 C   0  0  0  0  0  1  0  0  0  0  0  0
  188.0080  177.5200  142.1130 C   0  0  2  0  0  3  0  0  0  0  0  0
  191.6100  178.5740  145.2370 O   0  0  0  0  0  0  0  0  0  0  0  0
  192.1370  176.1540  146.0640 O   0  0  0  0  0  1  0  0  0  0  0  0
  190.5730  177.2960  142.5740 C   0  0  0  0  0  2  0  0  0  0  0  0
  189.5670  176.9010  145.3680 O   0  0  0  0  0  0  0  0  0  0  0  0
  187.3940  177.6040  144.5030 C   0  0  0  0  0  2  0  0  0  0  0  0
  186.8740  177.8610  143.0930 C   0  0  0  0  0  2  0  0  0  0  0  0
  189.1310  176.9390  142.9740 C   0  0  1  0  0  0  0  0  0  0  0  0
  187.8690  178.0410  135.3710 C   0  0  0  0  0  1  0  0  0  0  0  0
  187.6900  177.6960  136.7150 O   0  0  0  0  0  0  0  0  0  0  0  0
  1 20  1  0  0  0  0
  2  1  2  0  0  0  0
  3  4  2  0  0  0  0
  4  1  1  0  0  0  0
  4 37  1  0  0  0  0
  5  2  1  0  0  0  0
  6  5  2  0  0  0  0
  6  3  1  0  0  0  0
  7  5  1  0  0  0  0
  9 14  2  0  0  0  0
 10 13  2  0  0  0  0
 11  9  1  1  0  0  0
 11  8  1  0  0  0  0
 12 10  1  1  0  0  0
 12 11  1  0  0  0  0
 13 16  1  0  0  0  0
 15 19  1  0  0  0  0
 15  8  2  0  0  0  0
 16  7  1  6  0  0  0
 16  9  1  0  0  0  0
 17 12  1  0  0  0  0
 17 15  1  0  0  0  0
 19 18  1  0  0  0  0
 22 21  2  0  0  0  0
 22 20  1  0  0  0  0
 23 24  2  0  0  0  0
 23 22  1  0  0  0  0
 25 31  1  6  0  0  0
 27 28  1  0  0  0  0
 27 29  1  0  0  0  0
 28 24  1  6  0  0  0
 28 25  1  0  0  0  0
 29 26  2  0  0  0  0
 29 25  1  0  0  0  0
 31 30  1  1  0  0  0
 31 32  1  0  0  0  0
 32 36  1  0  0  0  0
 32 34  2  0  0  0  0
 33 32  2  0  0  0  0
 36 35  1  0  0  0  0
 37 39  1  1  0  0  0
 38 40  1  0  0  0  0
 39 38  3  0  0  0  0
 41 43  1  0  0  0  0
 42 50  1  1  0  0  0
 42 49  1  0  0  0  0
 43 46  2  1  0  0  0
 43 49  1  0  0  0  0
 43 47  1  0  0  0  0
 45 40  1  1  0  0  0
 45 52  1  0  0  0  0
 45 51  1  0  0  0  0
 48 52  1  0  0  0  0
 48 41  1  0  0  0  0
 51 50  1  0  0  0  0
 52 44  1  1  0  0  0
 52 42  1  0  0  0  0
 53 54  1  0  0  0  0
 54 37  1  0  0  0  0
M  END
>  <MODEL>
9

>  <REMARK>
 VINA RESULT:      -7.3      3.978      9.838
  Name = 
  15 active torsions:
  status: ('A' for Active; 'I' for Inactive)
    1  A    between atoms: C_2  and  C_9
    2  A    between atoms: C_7  and  P_23
    3  A    between atoms: C_9  and  C_22
    4  A    between atoms: C_14  and  O_21
    5  A    between atoms: C_17  and  C_37
    6  A    between atoms: C_17  and  C_51
    7  A    between atoms: C_19  and  C_44
    8  A    between atoms: O_21  and  C_35
    9  A    between atoms: P_23  and  S_27
   10  A    between atoms: C_24  and  C_44
   11  A    between atoms: S_27  and  C_36
   12  A    between atoms: C_32  and  C_35
   13  A    between atoms: O_42  and  C_44
   14  A    between atoms: C_43  and  O_45
   15  A    between atoms: C_46  and  C_47
                            x       y       z     vdW  Elec       q    Type
                         _______ _______ _______ _____ _____    ______ ____

>  <TORSDO>
F 15

$$$$
