=
 OpenBabel10232409203D

 30 31  0  0  1  0  0  0  0  0999 V2000
  190.6450  177.2100  141.8660 C   0  0  0  0  0  0  0  0  0  0  0  0
  191.6530  176.7730  142.5720 N   0  0  0  0  0  0  0  0  0  0  0  0
  189.2640  177.2940  142.3870 C   0  0  0  0  0  0  0  0  0  0  0  0
  188.5210  176.1690  143.0380 C   0  0  0  0  0  2  0  0  0  0  0  0
  187.1750  178.0080  142.7520 C   0  0  0  0  0  0  0  0  0  0  0  0
  188.4730  178.3400  142.1940 C   0  0  0  0  0  3  0  0  0  0  0  0
  187.1770  176.7780  143.2500 C   0  0  0  0  0  3  0  0  0  0  0  0
  186.0200  178.9640  142.7900 C   0  0  2  0  0  3  0  0  0  0  0  0
  183.3590  178.9650  140.5380 N   0  0  0  0  0  2  0  0  0  0  0  0
  184.4330  178.9390  141.4790 C   0  0  0  0  0  0  0  0  0  0  0  0
  184.5780  178.1680  143.1310 S   0  0  0  0  0  0  0  0  0  0  0  0
  182.3270  179.5870  138.3890 N   0  0  0  0  0  1  0  0  0  0  0  0
  183.4420  179.6210  139.2710 C   0  0  0  0  0  0  0  0  0  0  0  0
  184.4910  180.2280  138.9260 O   0  0  0  0  0  0  0  0  0  0  0  0
  185.6830  179.4320  141.4680 N   0  0  0  0  0  0  0  0  0  0  0  0
  190.8730  177.5400  140.4220 C   0  0  1  0  0  3  0  0  0  0  0  0
  192.2400  177.5460  140.1340 O   0  0  0  0  0  1  0  0  0  0  0  0
  190.1500  176.5380  139.5320 C   0  0  0  0  0  2  0  0  0  0  0  0
  188.9560  176.6710  137.3300 C   0  0  0  0  0  1  0  0  0  0  0  0
  189.0270  177.2070  138.7500 C   0  0  2  0  0  3  0  0  0  0  0  0
  188.8760  179.2560  137.4960 O   0  0  0  0  0  1  0  0  0  0  0  0
  189.2040  178.7200  138.7440 C   0  0  0  0  0  2  0  0  0  0  0  0
  191.8590  175.3310  144.4140 O   0  0  0  0  0  0  0  0  0  0  0  0
  191.6890  176.5000  143.9800 C   0  0  0  0  0  0  0  0  0  0  0  0
  191.3880  177.5980  144.9420 C   0  0  0  0  0  2  0  0  0  0  0  0
  190.2950  177.1740  145.9110 C   0  0  2  0  0  3  0  0  0  0  0  0
  189.2130  178.0550  145.8360 O   0  0  0  0  0  1  0  0  0  0  0  0
  190.8230  177.1390  147.3060 C   0  0  0  0  0  0  0  0  0  0  0  0
  192.0490  176.5390  147.5610 O   0  0  0  0  0  0  0  0  0  0  0  0
  190.1680  177.6490  148.2520 O   0  0  0  0  0  1  0  0  0  0  0  0
  1  3  1  0  0  0  0
  1  2  2  0  0  0  0
  2 24  1  0  0  0  0
  3  4  1  0  0  0  0
  4  7  1  0  0  0  0
  5  7  2  0  0  0  0
  6  3  2  0  0  0  0
  6  5  1  0  0  0  0
  8  5  1  6  0  0  0
  8 11  1  0  0  0  0
  9 10  1  0  0  0  0
 10 11  1  0  0  0  0
 12 13  1  0  0  0  0
 13  9  1  0  0  0  0
 14 13  2  0  0  0  0
 15 10  2  0  0  0  0
 15  8  1  0  0  0  0
 16 17  1  6  0  0  0
 16  1  1  0  0  0  0
 18 16  1  0  0  0  0
 20 19  1  6  0  0  0
 20 18  1  0  0  0  0
 21 22  1  0  0  0  0
 22 20  1  0  0  0  0
 24 23  2  0  0  0  0
 24 25  1  0  0  0  0
 25 26  1  0  0  0  0
 26 27  1  1  0  0  0
 26 28  1  0  0  0  0
 28 29  2  0  0  0  0
 28 30  1  0  0  0  0
M  END
>  <MODEL>
1

>  <REMARK>
 VINA RESULT:      -7.3      0.000      0.000
  Name = 
  10 active torsions:
  status: ('A' for Active; 'I' for Inactive)
    1  A    between atoms: C_2  and  C_25
    2  A    between atoms: C_3  and  C_7
    3  A    between atoms: C_3  and  C_11
    4  A    between atoms: C_4  and  C_8
    5  A    between atoms: C_6  and  C_7
    6  A    between atoms: C_8  and  C_27
    7  A    between atoms: C_11  and  C_30
    8  A    between atoms: N_13  and  C_22
    9  A    between atoms: C_22  and  C_27
   10  A    between atoms: C_24  and  C_30
                            x       y       z     vdW  Elec       q    Type
                         _______ _______ _______ _____ _____    ______ ____

>  <TORSDO>
F 10

$$$$
=
 OpenBabel10232409203D

 30 31  0  0  1  0  0  0  0  0999 V2000
  190.7090  177.2590  142.4200 C   0  0  0  0  0  0  0  0  0  0  0  0
  191.1530  177.2230  141.1920 N   0  0  0  0  0  0  0  0  0  0  0  0
  189.2710  177.3200  142.7620 C   0  0  0  0  0  0  0  0  0  0  0  0
  188.4370  176.1500  143.1830 C   0  0  0  0  0  2  0  0  0  0  0  0
  187.1610  178.0410  142.9270 C   0  0  0  0  0  0  0  0  0  0  0  0
  188.5240  178.4000  142.5850 C   0  0  0  0  0  3  0  0  0  0  0  0
  187.0840  176.7650  143.2830 C   0  0  0  0  0  3  0  0  0  0  0  0
  186.0190  179.0160  142.9200 C   0  0  2  0  0  3  0  0  0  0  0  0
  183.3670  178.9590  140.6590 N   0  0  0  0  0  2  0  0  0  0  0  0
  184.4370  178.9570  141.6050 C   0  0  0  0  0  0  0  0  0  0  0  0
  184.5650  178.2570  143.2890 S   0  0  0  0  0  0  0  0  0  0  0  0
  182.3510  179.5020  138.4810 N   0  0  0  0  0  1  0  0  0  0  0  0
  183.4640  179.5570  139.3660 C   0  0  0  0  0  0  0  0  0  0  0  0
  184.5230  180.1320  138.9980 O   0  0  0  0  0  0  0  0  0  0  0  0
  185.6940  179.4310  141.5770 N   0  0  0  0  0  0  0  0  0  0  0  0
  191.7020  177.3560  143.5380 C   0  0  1  0  0  3  0  0  0  0  0  0
  191.6600  178.6250  144.1180 O   0  0  0  0  0  1  0  0  0  0  0  0
  191.4220  176.2870  144.5860 C   0  0  0  0  0  2  0  0  0  0  0  0
  192.2030  176.1530  146.9660 C   0  0  0  0  0  1  0  0  0  0  0  0
  191.3190  176.8970  145.9790 C   0  0  2  0  0  3  0  0  0  0  0  0
  189.2230  178.0780  146.0630 O   0  0  0  0  0  1  0  0  0  0  0  0
  189.8720  176.9050  146.4550 C   0  0  0  0  0  2  0  0  0  0  0  0
  190.4670  175.9480  139.3430 O   0  0  0  0  0  0  0  0  0  0  0  0
  190.3990  177.0270  139.9890 C   0  0  0  0  0  0  0  0  0  0  0  0
  189.6240  178.1670  139.4200 C   0  0  0  0  0  2  0  0  0  0  0  0
  189.1490  177.8410  138.0130 C   0  0  2  0  0  3  0  0  0  0  0  0
  189.3790  178.9250  137.1620 O   0  0  0  0  0  1  0  0  0  0  0  0
  187.6950  177.5040  138.0220 C   0  0  0  0  0  0  0  0  0  0  0  0
  187.2690  176.2890  137.5020 O   0  0  0  0  0  0  0  0  0  0  0  0
  186.8540  178.3120  138.4960 O   0  0  0  0  0  1  0  0  0  0  0  0
  1  3  1  0  0  0  0
  1 16  1  0  0  0  0
  2  1  2  0  0  0  0
  3  4  1  0  0  0  0
  4  7  1  0  0  0  0
  5  7  2  0  0  0  0
  6  3  2  0  0  0  0
  6  5  1  0  0  0  0
  8  5  1  6  0  0  0
  8 11  1  0  0  0  0
  9 10  1  0  0  0  0
 10 11  1  0  0  0  0
 12 13  1  0  0  0  0
 13  9  1  0  0  0  0
 14 13  2  0  0  0  0
 15 10  2  0  0  0  0
 15  8  1  0  0  0  0
 16 17  1  1  0  0  0
 16 18  1  0  0  0  0
 18 20  1  0  0  0  0
 20 22  1  0  0  0  0
 20 19  1  1  0  0  0
 21 22  1  0  0  0  0
 23 24  2  0  0  0  0
 24  2  1  0  0  0  0
 25 24  1  0  0  0  0
 26 27  1  6  0  0  0
 26 28  1  0  0  0  0
 26 25  1  0  0  0  0
 28 30  1  0  0  0  0
 29 28  2  0  0  0  0
M  END
>  <MODEL>
2

>  <REMARK>
 VINA RESULT:      -7.2      1.274      5.491
  Name = 
  10 active torsions:
  status: ('A' for Active; 'I' for Inactive)
    1  A    between atoms: C_2  and  C_25
    2  A    between atoms: C_3  and  C_7
    3  A    between atoms: C_3  and  C_11
    4  A    between atoms: C_4  and  C_8
    5  A    between atoms: C_6  and  C_7
    6  A    between atoms: C_8  and  C_27
    7  A    between atoms: C_11  and  C_30
    8  A    between atoms: N_13  and  C_22
    9  A    between atoms: C_22  and  C_27
   10  A    between atoms: C_24  and  C_30
                            x       y       z     vdW  Elec       q    Type
                         _______ _______ _______ _____ _____    ______ ____

>  <TORSDO>
F 10

$$$$
=
 OpenBabel10232409203D

 30 31  0  0  1  0  0  0  0  0999 V2000
  186.8040  177.8800  145.3990 C   0  0  0  0  0  0  0  0  0  0  0  0
  187.4030  177.9490  146.5570 N   0  0  0  0  0  0  0  0  0  0  0  0
  187.4740  177.4140  144.1650 C   0  0  0  0  0  0  0  0  0  0  0  0
  187.8170  175.9900  143.8590 C   0  0  0  0  0  2  0  0  0  0  0  0
  188.6470  177.4140  142.2610 C   0  0  0  0  0  0  0  0  0  0  0  0
  187.9840  178.2340  143.2570 C   0  0  0  0  0  3  0  0  0  0  0  0
  188.5580  176.1280  142.5730 C   0  0  0  0  0  3  0  0  0  0  0  0
  189.2950  177.9700  141.0260 C   0  0  2  0  0  3  0  0  0  0  0  0
  189.3070  176.4110  137.9090 N   0  0  0  0  0  2  0  0  0  0  0  0
  189.2690  177.0630  139.1790 C   0  0  0  0  0  0  0  0  0  0  0  0
  188.1510  178.3440  139.8520 S   0  0  0  0  0  0  0  0  0  0  0  0
  190.2230  174.8020  136.2830 N   0  0  0  0  0  1  0  0  0  0  0  0
  190.2660  175.4080  137.5690 C   0  0  0  0  0  0  0  0  0  0  0  0
  191.1490  175.0530  138.3960 O   0  0  0  0  0  0  0  0  0  0  0  0
  190.0030  176.9450  140.2990 N   0  0  0  0  0  0  0  0  0  0  0  0
  185.4040  178.4010  145.2840 C   0  0  1  0  0  3  0  0  0  0  0  0
  185.1250  179.2810  146.3330 O   0  0  0  0  0  1  0  0  0  0  0  0
  185.2080  179.0980  143.9450 C   0  0  0  0  0  2  0  0  0  0  0  0
  184.5720  178.2920  141.6560 C   0  0  0  0  0  1  0  0  0  0  0  0
  184.1440  178.3970  143.1110 C   0  0  2  0  0  3  0  0  0  0  0  0
  182.0680  178.6390  144.3070 O   0  0  0  0  0  1  0  0  0  0  0  0
  182.8090  179.1220  143.2250 C   0  0  0  0  0  2  0  0  0  0  0  0
  188.8090  176.5730  147.8400 O   0  0  0  0  0  0  0  0  0  0  0  0
  188.6870  177.4220  146.9180 C   0  0  0  0  0  0  0  0  0  0  0  0
  189.9110  177.9870  146.2810 C   0  0  0  0  0  2  0  0  0  0  0  0
  190.9090  176.8810  145.9700 C   0  0  2  0  0  3  0  0  0  0  0  0
  191.9420  176.8840  146.9110 O   0  0  0  0  0  1  0  0  0  0  0  0
  191.4720  177.0620  144.6000 C   0  0  0  0  0  0  0  0  0  0  0  0
  191.7840  175.9470  143.8340 O   0  0  0  0  0  0  0  0  0  0  0  0
  191.6670  178.2160  144.1350 O   0  0  0  0  0  1  0  0  0  0  0  0
  1  2  2  0  0  0  0
  2 24  1  0  0  0  0
  3  1  1  0  0  0  0
  4  3  1  0  0  0  0
  5  7  2  0  0  0  0
  5  6  1  0  0  0  0
  6  3  2  0  0  0  0
  7  4  1  0  0  0  0
  8  5  1  1  0  0  0
  9 10  1  0  0  0  0
 10 11  1  0  0  0  0
 10 15  2  0  0  0  0
 11  8  1  0  0  0  0
 12 13  1  0  0  0  0
 13  9  1  0  0  0  0
 13 14  2  0  0  0  0
 15  8  1  0  0  0  0
 16  1  1  0  0  0  0
 16 17  1  1  0  0  0
 18 16  1  0  0  0  0
 20 19  1  6  0  0  0
 20 22  1  0  0  0  0
 20 18  1  0  0  0  0
 22 21  1  0  0  0  0
 24 23  2  0  0  0  0
 25 24  1  0  0  0  0
 26 25  1  0  0  0  0
 26 27  1  1  0  0  0
 28 26  1  0  0  0  0
 29 28  2  0  0  0  0
 30 28  1  0  0  0  0
M  END
>  <MODEL>
3

>  <REMARK>
 VINA RESULT:      -7.2      3.053      5.729
  Name = 
  10 active torsions:
  status: ('A' for Active; 'I' for Inactive)
    1  A    between atoms: C_2  and  C_25
    2  A    between atoms: C_3  and  C_7
    3  A    between atoms: C_3  and  C_11
    4  A    between atoms: C_4  and  C_8
    5  A    between atoms: C_6  and  C_7
    6  A    between atoms: C_8  and  C_27
    7  A    between atoms: C_11  and  C_30
    8  A    between atoms: N_13  and  C_22
    9  A    between atoms: C_22  and  C_27
   10  A    between atoms: C_24  and  C_30
                            x       y       z     vdW  Elec       q    Type
                         _______ _______ _______ _____ _____    ______ ____

>  <TORSDO>
F 10

$$$$
=
 OpenBabel10232409203D

 30 31  0  0  1  0  0  0  0  0999 V2000
  186.6030  178.6210  141.0120 C   0  0  0  0  0  0  0  0  0  0  0  0
  186.8460  178.6050  139.7290 N   0  0  0  0  0  0  0  0  0  0  0  0
  187.5160  178.0360  142.0190 C   0  0  0  0  0  0  0  0  0  0  0  0
  187.0950  177.1460  143.1460 C   0  0  0  0  0  2  0  0  0  0  0  0
  189.3260  177.6750  143.2820 C   0  0  0  0  0  0  0  0  0  0  0  0
  188.7960  178.3640  142.1210 C   0  0  0  0  0  3  0  0  0  0  0  0
  188.3790  176.9630  143.8800 C   0  0  0  0  0  3  0  0  0  0  0  0
  190.7670  177.7360  143.6970 C   0  0  2  0  0  3  0  0  0  0  0  0
  192.1920  175.8160  146.2340 N   0  0  0  0  0  2  0  0  0  0  0  0
  191.6120  176.5750  145.1720 C   0  0  0  0  0  0  0  0  0  0  0  0
  191.5600  176.2910  143.3660 S   0  0  0  0  0  0  0  0  0  0  0  0
  192.7110  175.3790  148.6020 N   0  0  0  0  0  1  0  0  0  0  0  0
  192.1140  176.2020  147.6070 C   0  0  0  0  0  0  0  0  0  0  0  0
  191.5230  177.2610  147.9480 O   0  0  0  0  0  0  0  0  0  0  0  0
  190.8990  177.7140  145.1340 N   0  0  0  0  0  0  0  0  0  0  0  0
  185.2860  179.1560  141.4850 C   0  0  1  0  0  3  0  0  0  0  0  0
  184.5580  179.6730  140.4110 O   0  0  0  0  0  1  0  0  0  0  0  0
  184.4910  178.0610  142.1830 C   0  0  0  0  0  2  0  0  0  0  0  0
  182.3710  179.0140  143.1250 C   0  0  0  0  0  1  0  0  0  0  0  0
  183.7990  178.5940  143.4310 C   0  0  2  0  0  3  0  0  0  0  0  0
  185.3340  179.3430  145.1280 O   0  0  0  0  0  1  0  0  0  0  0  0
  184.5840  179.7570  144.0240 C   0  0  0  0  0  2  0  0  0  0  0  0
  188.9710  179.0890  138.8530 O   0  0  0  0  0  0  0  0  0  0  0  0
  188.0650  178.2400  139.0680 C   0  0  0  0  0  0  0  0  0  0  0  0
  188.2070  176.8650  138.5080 C   0  0  0  0  0  2  0  0  0  0  0  0
  189.5320  176.7220  137.7740 C   0  0  2  0  0  3  0  0  0  0  0  0
  189.3250  176.1750  136.5060 O   0  0  0  0  0  1  0  0  0  0  0  0
  190.4650  175.8570  138.5530 C   0  0  0  0  0  0  0  0  0  0  0  0
  190.9580  174.6910  137.9820 O   0  0  0  0  0  0  0  0  0  0  0  0
  190.8070  176.1740  139.7230 O   0  0  0  0  0  1  0  0  0  0  0  0
  1 16  1  0  0  0  0
  1  3  1  0  0  0  0
  2  1  2  0  0  0  0
  3  6  2  0  0  0  0
  3  4  1  0  0  0  0
  4  7  1  0  0  0  0
  5  7  2  0  0  0  0
  6  5  1  0  0  0  0
  8  5  1  1  0  0  0
  8 15  1  0  0  0  0
  9 13  1  0  0  0  0
 10  9  1  0  0  0  0
 11  8  1  0  0  0  0
 11 10  1  0  0  0  0
 13 14  2  0  0  0  0
 13 12  1  0  0  0  0
 15 10  2  0  0  0  0
 16 17  1  6  0  0  0
 16 18  1  0  0  0  0
 18 20  1  0  0  0  0
 20 19  1  6  0  0  0
 20 22  1  0  0  0  0
 22 21  1  0  0  0  0
 23 24  2  0  0  0  0
 24  2  1  0  0  0  0
 25 24  1  0  0  0  0
 26 27  1  6  0  0  0
 26 25  1  0  0  0  0
 26 28  1  0  0  0  0
 28 30  1  0  0  0  0
 29 28  2  0  0  0  0
M  END
>  <MODEL>
4

>  <REMARK>
 VINA RESULT:      -7.2      2.620      7.860
  Name = 
  10 active torsions:
  status: ('A' for Active; 'I' for Inactive)
    1  A    between atoms: C_2  and  C_25
    2  A    between atoms: C_3  and  C_7
    3  A    between atoms: C_3  and  C_11
    4  A    between atoms: C_4  and  C_8
    5  A    between atoms: C_6  and  C_7
    6  A    between atoms: C_8  and  C_27
    7  A    between atoms: C_11  and  C_30
    8  A    between atoms: N_13  and  C_22
    9  A    between atoms: C_22  and  C_27
   10  A    between atoms: C_24  and  C_30
                            x       y       z     vdW  Elec       q    Type
                         _______ _______ _______ _____ _____    ______ ____

>  <TORSDO>
F 10

$$$$
=
 OpenBabel10232409203D

 30 31  0  0  1  0  0  0  0  0999 V2000
  188.4830  177.6100  145.7020 C   0  0  0  0  0  0  0  0  0  0  0  0
  189.0440  177.1530  144.6140 N   0  0  0  0  0  0  0  0  0  0  0  0
  187.0730  178.0500  145.7650 C   0  0  0  0  0  0  0  0  0  0  0  0
  186.1110  177.6990  146.8570 C   0  0  0  0  0  2  0  0  0  0  0  0
  185.0720  178.8470  145.1620 C   0  0  0  0  0  0  0  0  0  0  0  0
  186.4610  178.6840  144.7750 C   0  0  0  0  0  3  0  0  0  0  0  0
  184.8460  178.3040  146.3510 C   0  0  0  0  0  3  0  0  0  0  0  0
  184.0600  179.5800  144.3300 C   0  0  2  0  0  3  0  0  0  0  0  0
  183.0460  178.6320  141.1330 N   0  0  0  0  0  2  0  0  0  0  0  0
  183.4380  178.9970  142.4570 C   0  0  0  0  0  0  0  0  0  0  0  0
  182.6810  178.6500  144.0850 S   0  0  0  0  0  0  0  0  0  0  0  0
  183.3300  178.5750  138.6860 N   0  0  0  0  0  1  0  0  0  0  0  0
  183.7880  178.9920  139.9670 C   0  0  0  0  0  0  0  0  0  0  0  0
  184.8440  179.6730  140.0590 O   0  0  0  0  0  0  0  0  0  0  0  0
  184.4840  179.6780  142.9540 N   0  0  0  0  0  0  0  0  0  0  0  0
  189.3360  177.8050  146.9190 C   0  0  1  0  0  3  0  0  0  0  0  0
  188.5600  178.2550  147.9890 O   0  0  0  0  0  1  0  0  0  0  0  0
  190.0370  176.5040  147.2850 C   0  0  0  0  0  2  0  0  0  0  0  0
  191.8950  176.2170  145.6240 C   0  0  0  0  0  1  0  0  0  0  0  0
  191.5390  176.6040  147.0510 C   0  0  2  0  0  3  0  0  0  0  0  0
  193.2490  176.4880  148.7410 O   0  0  0  0  0  1  0  0  0  0  0  0
  192.2970  175.7370  148.0470 C   0  0  0  0  0  2  0  0  0  0  0  0
  187.8510  175.6730  143.2350 O   0  0  0  0  0  0  0  0  0  0  0  0
  188.4080  176.7930  143.3800 C   0  0  0  0  0  0  0  0  0  0  0  0
  188.5240  177.7060  142.2080 C   0  0  0  0  0  2  0  0  0  0  0  0
  189.5260  177.1600  141.2030 C   0  0  2  0  0  3  0  0  0  0  0  0
  190.8280  177.4670  141.6030 O   0  0  0  0  0  1  0  0  0  0  0  0
  189.2660  177.7290  139.8490 C   0  0  0  0  0  0  0  0  0  0  0  0
  188.2430  178.6530  139.6780 O   0  0  0  0  0  1  0  0  0  0  0  0
  189.9640  177.3790  138.8610 O   0  0  0  0  0  0  0  0  0  0  0  0
  1  3  1  0  0  0  0
  1 16  1  0  0  0  0
  2  1  2  0  0  0  0
  3  4  1  0  0  0  0
  5  7  2  0  0  0  0
  6  5  1  0  0  0  0
  6  3  2  0  0  0  0
  7  4  1  0  0  0  0
  8  5  1  1  0  0  0
  9 10  1  0  0  0  0
 10 15  2  0  0  0  0
 10 11  1  0  0  0  0
 11  8  1  0  0  0  0
 12 13  1  0  0  0  0
 13 14  2  0  0  0  0
 13  9  1  0  0  0  0
 15  8  1  0  0  0  0
 16 18  1  0  0  0  0
 16 17  1  1  0  0  0
 20 19  1  6  0  0  0
 20 18  1  0  0  0  0
 20 22  1  0  0  0  0
 22 21  1  0  0  0  0
 23 24  2  0  0  0  0
 24  2  1  0  0  0  0
 25 24  1  0  0  0  0
 26 27  1  1  0  0  0
 26 25  1  0  0  0  0
 28 26  1  0  0  0  0
 29 28  1  0  0  0  0
 30 28  2  0  0  0  0
M  END
>  <MODEL>
5

>  <REMARK>
 VINA RESULT:      -7.0      2.138      5.887
  Name = 
  10 active torsions:
  status: ('A' for Active; 'I' for Inactive)
    1  A    between atoms: C_2  and  C_25
    2  A    between atoms: C_3  and  C_7
    3  A    between atoms: C_3  and  C_11
    4  A    between atoms: C_4  and  C_8
    5  A    between atoms: C_6  and  C_7
    6  A    between atoms: C_8  and  C_27
    7  A    between atoms: C_11  and  C_30
    8  A    between atoms: N_13  and  C_22
    9  A    between atoms: C_22  and  C_27
   10  A    between atoms: C_24  and  C_30
                            x       y       z     vdW  Elec       q    Type
                         _______ _______ _______ _____ _____    ______ ____

>  <TORSDO>
F 10

$$$$
=
 OpenBabel10232409203D

 30 31  0  0  1  0  0  0  0  0999 V2000
  187.9660  178.0010  146.1040 C   0  0  0  0  0  0  0  0  0  0  0  0
  186.7840  178.2330  146.6090 N   0  0  0  0  0  0  0  0  0  0  0  0
  188.1820  177.5880  144.7010 C   0  0  0  0  0  0  0  0  0  0  0  0
  187.8430  176.2420  144.1390 C   0  0  0  0  0  2  0  0  0  0  0  0
  188.9430  177.5410  142.5980 C   0  0  0  0  0  0  0  0  0  0  0  0
  188.8460  178.3210  143.8170 C   0  0  0  0  0  3  0  0  0  0  0  0
  188.3700  176.3540  142.7490 C   0  0  0  0  0  3  0  0  0  0  0  0
  189.5700  178.0530  141.3340 C   0  0  2  0  0  3  0  0  0  0  0  0
  189.2590  176.5490  138.2050 N   0  0  0  0  0  2  0  0  0  0  0  0
  189.3540  177.1810  139.4820 C   0  0  0  0  0  0  0  0  0  0  0  0
  188.4020  178.5510  140.2310 S   0  0  0  0  0  0  0  0  0  0  0  0
  189.9250  174.8870  136.5120 N   0  0  0  0  0  1  0  0  0  0  0  0
  190.0980  175.4660  137.8010 C   0  0  0  0  0  0  0  0  0  0  0  0
  190.9890  175.0170  138.5710 O   0  0  0  0  0  0  0  0  0  0  0  0
  190.1360  176.9780  140.5560 N   0  0  0  0  0  0  0  0  0  0  0  0
  189.1550  178.0480  147.0140 C   0  0  1  0  0  3  0  0  0  0  0  0
  188.7700  178.4420  148.2980 O   0  0  0  0  0  1  0  0  0  0  0  0
  189.8360  176.6870  147.0620 C   0  0  0  0  0  2  0  0  0  0  0  0
  191.6520  176.3540  145.3640 C   0  0  0  0  0  1  0  0  0  0  0  0
  191.3280  176.8080  146.7780 C   0  0  2  0  0  3  0  0  0  0  0  0
  193.0660  175.1860  147.1590 O   0  0  0  0  0  1  0  0  0  0  0  0
  192.1350  176.0120  147.7950 C   0  0  0  0  0  2  0  0  0  0  0  0
  184.5220  177.6910  146.2810 O   0  0  0  0  0  0  0  0  0  0  0  0
  185.5350  178.3440  145.9140 C   0  0  0  0  0  0  0  0  0  0  0  0
  185.4700  179.1420  144.6560 C   0  0  0  0  0  2  0  0  0  0  0  0
  184.7790  178.3500  143.5560 C   0  0  2  0  0  3  0  0  0  0  0  0
  185.5560  178.3570  142.3950 O   0  0  0  0  0  1  0  0  0  0  0  0
  183.4340  178.9280  143.2690 C   0  0  0  0  0  0  0  0  0  0  0  0
  182.8070  178.6420  142.0630 O   0  0  0  0  0  0  0  0  0  0  0  0
  182.8640  179.6730  144.1090 O   0  0  0  0  0  1  0  0  0  0  0  0
  1  2  2  0  0  0  0
  1 16  1  0  0  0  0
  3  1  1  0  0  0  0
  4  3  1  0  0  0  0
  5  7  2  0  0  0  0
  5  6  1  0  0  0  0
  6  3  2  0  0  0  0
  7  4  1  0  0  0  0
  8  5  1  1  0  0  0
  9 10  1  0  0  0  0
 10 11  1  0  0  0  0
 10 15  2  0  0  0  0
 11  8  1  0  0  0  0
 12 13  1  0  0  0  0
 13  9  1  0  0  0  0
 13 14  2  0  0  0  0
 15  8  1  0  0  0  0
 16 18  1  0  0  0  0
 16 17  1  1  0  0  0
 20 19  1  6  0  0  0
 20 18  1  0  0  0  0
 20 22  1  0  0  0  0
 21 22  1  0  0  0  0
 24 23  2  0  0  0  0
 24  2  1  0  0  0  0
 25 24  1  0  0  0  0
 26 27  1  6  0  0  0
 26 25  1  0  0  0  0
 28 26  1  0  0  0  0
 28 30  1  0  0  0  0
 29 28  2  0  0  0  0
M  END
>  <MODEL>
6

>  <REMARK>
 VINA RESULT:      -6.9      3.044      7.001
  Name = 
  10 active torsions:
  status: ('A' for Active; 'I' for Inactive)
    1  A    between atoms: C_2  and  C_25
    2  A    between atoms: C_3  and  C_7
    3  A    between atoms: C_3  and  C_11
    4  A    between atoms: C_4  and  C_8
    5  A    between atoms: C_6  and  C_7
    6  A    between atoms: C_8  and  C_27
    7  A    between atoms: C_11  and  C_30
    8  A    between atoms: N_13  and  C_22
    9  A    between atoms: C_22  and  C_27
   10  A    between atoms: C_24  and  C_30
                            x       y       z     vdW  Elec       q    Type
                         _______ _______ _______ _____ _____    ______ ____

>  <TORSDO>
F 10

$$$$
=
 OpenBabel10232409203D

 30 31  0  0  1  0  0  0  0  0999 V2000
  188.8000  177.6430  146.1530 C   0  0  0  0  0  0  0  0  0  0  0  0
  187.5010  177.5090  146.2010 N   0  0  0  0  0  0  0  0  0  0  0  0
  189.5620  177.7180  144.8880 C   0  0  0  0  0  0  0  0  0  0  0  0
  190.5920  178.7550  144.5650 C   0  0  0  0  0  2  0  0  0  0  0  0
  190.1770  177.3960  142.7620 C   0  0  0  0  0  0  0  0  0  0  0  0
  189.3030  176.9580  143.8330 C   0  0  0  0  0  3  0  0  0  0  0  0
  190.9320  178.4130  143.1550 C   0  0  0  0  0  3  0  0  0  0  0  0
  190.2340  176.7350  141.4160 C   0  0  2  0  0  3  0  0  0  0  0  0
  189.4290  178.2860  138.4000 N   0  0  0  0  0  2  0  0  0  0  0  0
  189.7920  177.6650  139.6330 C   0  0  0  0  0  0  0  0  0  0  0  0
  191.4150  177.4310  140.4420 S   0  0  0  0  0  0  0  0  0  0  0  0
  187.8090  179.0300  136.6990 N   0  0  0  0  0  1  0  0  0  0  0  0
  188.0810  178.3840  137.9370 C   0  0  0  0  0  0  0  0  0  0  0  0
  187.1310  177.9040  138.6110 O   0  0  0  0  0  0  0  0  0  0  0  0
  189.0840  177.0780  140.6140 N   0  0  0  0  0  0  0  0  0  0  0  0
  189.5710  177.6080  147.4370 C   0  0  1  0  0  3  0  0  0  0  0  0
  188.7140  177.7910  148.5250 O   0  0  0  0  0  1  0  0  0  0  0  0
  190.3170  176.2870  147.5690 C   0  0  0  0  0  2  0  0  0  0  0  0
  192.1550  175.4650  146.0730 C   0  0  0  0  0  1  0  0  0  0  0  0
  191.7810  176.4410  147.1770 C   0  0  2  0  0  3  0  0  0  0  0  0
  192.8200  174.8970  148.7040 O   0  0  0  0  0  1  0  0  0  0  0  0
  192.6840  176.2520  148.3890 C   0  0  0  0  0  2  0  0  0  0  0  0
  186.4300  176.6900  144.2780 O   0  0  0  0  0  0  0  0  0  0  0  0
  186.5640  177.6160  145.1210 C   0  0  0  0  0  0  0  0  0  0  0  0
  185.8330  178.9000  144.9160 C   0  0  0  0  0  2  0  0  0  0  0  0
  184.7790  178.7450  143.8300 C   0  0  2  0  0  3  0  0  0  0  0  0
  185.0440  179.6170  142.7720 O   0  0  0  0  0  1  0  0  0  0  0  0
  183.4210  179.0210  144.3840 C   0  0  0  0  0  0  0  0  0  0  0  0
  182.3350  179.1190  143.5230 O   0  0  0  0  0  0  0  0  0  0  0  0
  183.2510  179.1650  145.6230 O   0  0  0  0  0  1  0  0  0  0  0  0
  1  2  2  0  0  0  0
  1 16  1  0  0  0  0
  3  1  1  0  0  0  0
  4  3  1  0  0  0  0
  5  7  2  0  0  0  0
  5  6  1  0  0  0  0
  6  3  2  0  0  0  0
  7  4  1  0  0  0  0
  8  5  1  1  0  0  0
  9 10  1  0  0  0  0
 10 11  1  0  0  0  0
 10 15  2  0  0  0  0
 11  8  1  0  0  0  0
 12 13  1  0  0  0  0
 13  9  1  0  0  0  0
 13 14  2  0  0  0  0
 15  8  1  0  0  0  0
 16 18  1  0  0  0  0
 16 17  1  1  0  0  0
 20 19  1  6  0  0  0
 20 18  1  0  0  0  0
 20 22  1  0  0  0  0
 22 21  1  0  0  0  0
 23 24  2  0  0  0  0
 24  2  1  0  0  0  0
 25 24  1  0  0  0  0
 26 27  1  6  0  0  0
 26 28  1  0  0  0  0
 26 25  1  0  0  0  0
 28 30  1  0  0  0  0
 29 28  2  0  0  0  0
M  END
>  <MODEL>
7

>  <REMARK>
 VINA RESULT:      -6.8      3.182      6.794
  Name = 
  10 active torsions:
  status: ('A' for Active; 'I' for Inactive)
    1  A    between atoms: C_2  and  C_25
    2  A    between atoms: C_3  and  C_7
    3  A    between atoms: C_3  and  C_11
    4  A    between atoms: C_4  and  C_8
    5  A    between atoms: C_6  and  C_7
    6  A    between atoms: C_8  and  C_27
    7  A    between atoms: C_11  and  C_30
    8  A    between atoms: N_13  and  C_22
    9  A    between atoms: C_22  and  C_27
   10  A    between atoms: C_24  and  C_30
                            x       y       z     vdW  Elec       q    Type
                         _______ _______ _______ _____ _____    ______ ____

>  <TORSDO>
F 10

$$$$
=
 OpenBabel10232409203D

 30 31  0  0  1  0  0  0  0  0999 V2000
  185.5810  178.8700  141.2230 C   0  0  0  0  0  0  0  0  0  0  0  0
  186.6660  178.6040  140.5470 N   0  0  0  0  0  0  0  0  0  0  0  0
  185.5090  178.8100  142.6990 C   0  0  0  0  0  0  0  0  0  0  0  0
  184.9220  179.8720  143.5750 C   0  0  0  0  0  2  0  0  0  0  0  0
  185.8970  178.2050  144.8170 C   0  0  0  0  0  0  0  0  0  0  0  0
  186.0980  177.8670  143.4210 C   0  0  0  0  0  3  0  0  0  0  0  0
  185.2190  179.3400  144.9350 C   0  0  0  0  0  3  0  0  0  0  0  0
  186.3610  177.3430  145.9540 C   0  0  2  0  0  3  0  0  0  0  0  0
  189.4540  177.6270  147.5370 N   0  0  0  0  0  2  0  0  0  0  0  0
  188.1750  177.5370  146.9090 C   0  0  0  0  0  0  0  0  0  0  0  0
  186.5490  178.2390  147.3640 S   0  0  0  0  0  0  0  0  0  0  0  0
  191.8680  177.1610  147.6970 N   0  0  0  0  0  1  0  0  0  0  0  0
  190.6310  177.0100  147.0120 C   0  0  0  0  0  0  0  0  0  0  0  0
  190.5860  176.3330  145.9500 O   0  0  0  0  0  0  0  0  0  0  0  0
  187.7380  176.9470  145.7830 N   0  0  0  0  0  0  0  0  0  0  0  0
  184.3150  179.1400  140.4680 C   0  0  1  0  0  3  0  0  0  0  0  0
  184.5820  179.8990  139.3260 O   0  0  0  0  0  1  0  0  0  0  0  0
  183.6390  177.8310  140.0850 C   0  0  0  0  0  2  0  0  0  0  0  0
  181.3250  178.2260  139.2000 C   0  0  0  0  0  1  0  0  0  0  0  0
  182.1530  177.8600  140.4220 C   0  0  2  0  0  3  0  0  0  0  0  0
  180.6980  179.5420  141.3440 O   0  0  0  0  0  1  0  0  0  0  0  0
  181.8800  178.8310  141.5640 C   0  0  0  0  0  2  0  0  0  0  0  0
  188.6330  179.3750  141.5720 O   0  0  0  0  0  0  0  0  0  0  0  0
  187.9960  178.4220  141.0510 C   0  0  0  0  0  0  0  0  0  0  0  0
  188.6840  177.1160  140.8360 C   0  0  0  0  0  2  0  0  0  0  0  0
  190.1900  177.2770  140.9790 C   0  0  2  0  0  3  0  0  0  0  0  0
  190.8470  176.6020  139.9480 O   0  0  0  0  0  1  0  0  0  0  0  0
  190.6440  176.7500  142.2980 C   0  0  0  0  0  0  0  0  0  0  0  0
  190.0650  175.5980  142.8140 O   0  0  0  0  0  0  0  0  0  0  0  0
  191.5460  177.3410  142.9480 O   0  0  0  0  0  1  0  0  0  0  0  0
  1  3  1  0  0  0  0
  2 24  1  0  0  0  0
  2  1  2  0  0  0  0
  3  6  2  0  0  0  0
  3  4  1  0  0  0  0
  4  7  1  0  0  0  0
  5  7  2  0  0  0  0
  6  5  1  0  0  0  0
  8  5  1  6  0  0  0
  8 11  1  0  0  0  0
 10 11  1  0  0  0  0
 10  9  1  0  0  0  0
 13  9  1  0  0  0  0
 13 12  1  0  0  0  0
 14 13  2  0  0  0  0
 15  8  1  0  0  0  0
 15 10  2  0  0  0  0
 16 17  1  6  0  0  0
 16  1  1  0  0  0  0
 18 20  1  0  0  0  0
 18 16  1  0  0  0  0
 20 19  1  6  0  0  0
 20 22  1  0  0  0  0
 21 22  1  0  0  0  0
 24 23  2  0  0  0  0
 25 26  1  0  0  0  0
 25 24  1  0  0  0  0
 26 27  1  6  0  0  0
 26 28  1  0  0  0  0
 28 29  2  0  0  0  0
 28 30  1  0  0  0  0
M  END
>  <MODEL>
8

>  <REMARK>
 VINA RESULT:      -6.7      2.731      6.773
  Name = 
  10 active torsions:
  status: ('A' for Active; 'I' for Inactive)
    1  A    between atoms: C_2  and  C_25
    2  A    between atoms: C_3  and  C_7
    3  A    between atoms: C_3  and  C_11
    4  A    between atoms: C_4  and  C_8
    5  A    between atoms: C_6  and  C_7
    6  A    between atoms: C_8  and  C_27
    7  A    between atoms: C_11  and  C_30
    8  A    between atoms: N_13  and  C_22
    9  A    between atoms: C_22  and  C_27
   10  A    between atoms: C_24  and  C_30
                            x       y       z     vdW  Elec       q    Type
                         _______ _______ _______ _____ _____    ______ ____

>  <TORSDO>
F 10

$$$$
=
 OpenBabel10232409203D

 30 31  0  0  1  0  0  0  0  0999 V2000
  188.1100  177.5410  144.1570 C   0  0  0  0  0  0  0  0  0  0  0  0
  188.8690  177.9820  145.1240 N   0  0  0  0  0  0  0  0  0  0  0  0
  188.5960  177.3330  142.7750 C   0  0  0  0  0  0  0  0  0  0  0  0
  189.5650  176.2730  142.3550 C   0  0  0  0  0  2  0  0  0  0  0  0
  189.0680  177.6890  140.6180 C   0  0  0  0  0  0  0  0  0  0  0  0
  188.3370  178.1660  141.7770 C   0  0  0  0  0  3  0  0  0  0  0  0
  189.7690  176.6030  140.9160 C   0  0  0  0  0  3  0  0  0  0  0  0
  188.9820  178.3290  139.2630 C   0  0  2  0  0  3  0  0  0  0  0  0
  188.6820  176.5930  136.2560 N   0  0  0  0  0  2  0  0  0  0  0  0
  188.7700  177.3010  137.4930 C   0  0  0  0  0  0  0  0  0  0  0  0
  187.4840  178.0550  138.5510 S   0  0  0  0  0  0  0  0  0  0  0  0
  189.6390  175.3540  134.3520 N   0  0  0  0  0  1  0  0  0  0  0  0
  189.8190  176.0570  135.5760 C   0  0  0  0  0  0  0  0  0  0  0  0
  190.9790  176.2010  136.0470 O   0  0  0  0  0  0  0  0  0  0  0  0
  189.7940  177.6260  138.3000 N   0  0  0  0  0  0  0  0  0  0  0  0
  186.6500  177.3410  144.4270 C   0  0  1  0  0  3  0  0  0  0  0  0
  186.4520  176.9280  145.7460 O   0  0  0  0  0  1  0  0  0  0  0  0
  185.8820  178.6270  144.1540 C   0  0  0  0  0  2  0  0  0  0  0  0
  184.4900  178.4490  142.0760 C   0  0  0  0  0  1  0  0  0  0  0  0
  184.4980  178.3320  143.5910 C   0  0  2  0  0  3  0  0  0  0  0  0
  183.4530  179.1520  145.5990 O   0  0  0  0  0  1  0  0  0  0  0  0
  183.4590  179.2600  144.2060 C   0  0  0  0  0  2  0  0  0  0  0  0
  190.8290  179.2160  144.7330 O   0  0  0  0  0  0  0  0  0  0  0  0
  190.2940  178.1440  145.1220 C   0  0  0  0  0  0  0  0  0  0  0  0
  191.1600  176.9780  145.4600 C   0  0  0  0  0  2  0  0  0  0  0  0
  190.9430  176.5520  146.9040 C   0  0  2  0  0  3  0  0  0  0  0  0
  190.5760  177.6530  147.6820 O   0  0  0  0  0  1  0  0  0  0  0  0
  192.1840  175.9350  147.4550 C   0  0  0  0  0  0  0  0  0  0  0  0
  192.7390  176.4360  148.6250 O   0  0  0  0  0  1  0  0  0  0  0  0
  192.7330  174.9660  146.8670 O   0  0  0  0  0  0  0  0  0  0  0  0
  1 16  1  0  0  0  0
  1  2  2  0  0  0  0
  3  1  1  0  0  0  0
  4  3  1  0  0  0  0
  5  7  2  0  0  0  0
  5  6  1  0  0  0  0
  6  3  2  0  0  0  0
  7  4  1  0  0  0  0
  8  5  1  1  0  0  0
  9 10  1  0  0  0  0
 10 15  2  0  0  0  0
 10 11  1  0  0  0  0
 11  8  1  0  0  0  0
 12 13  1  0  0  0  0
 13 14  2  0  0  0  0
 13  9  1  0  0  0  0
 15  8  1  0  0  0  0
 16 17  1  1  0  0  0
 18 16  1  0  0  0  0
 20 19  1  6  0  0  0
 20 18  1  0  0  0  0
 20 22  1  0  0  0  0
 22 21  1  0  0  0  0
 23 24  2  0  0  0  0
 24  2  1  0  0  0  0
 24 25  1  0  0  0  0
 25 26  1  0  0  0  0
 26 28  1  0  0  0  0
 26 27  1  1  0  0  0
 28 29  1  0  0  0  0
 30 28  2  0  0  0  0
M  END
>  <MODEL>
9

>  <REMARK>
 VINA RESULT:      -6.7      3.179      5.433
  Name = 
  10 active torsions:
  status: ('A' for Active; 'I' for Inactive)
    1  A    between atoms: C_2  and  C_25
    2  A    between atoms: C_3  and  C_7
    3  A    between atoms: C_3  and  C_11
    4  A    between atoms: C_4  and  C_8
    5  A    between atoms: C_6  and  C_7
    6  A    between atoms: C_8  and  C_27
    7  A    between atoms: C_11  and  C_30
    8  A    between atoms: N_13  and  C_22
    9  A    between atoms: C_22  and  C_27
   10  A    between atoms: C_24  and  C_30
                            x       y       z     vdW  Elec       q    Type
                         _______ _______ _______ _____ _____    ______ ____

>  <TORSDO>
F 10

$$$$
