=
 OpenBabel10232409493D

 45 48  0  0  1  0  0  0  0  0999 V2000
  185.5870  178.6370  139.7480 C   0  0  0  0  0  0  0  0  0  0  0  0
  183.0700  177.6620  137.2750 N   0  0  0  0  0  0  0  0  0  0  0  0
  188.4450  176.6700  137.1170 C   0  0  1  0  0  3  0  0  0  0  0  0
  189.2110  177.5320  139.3750 C   0  0  0  0  0  0  0  0  0  0  0  0
  184.8260  179.3430  140.6830 C   0  0  0  0  0  3  0  0  0  0  0  0
  183.6840  174.0650  136.1430 O   0  0  0  0  0  0  0  0  0  0  0  0
  189.7930  177.9050  140.5150 C   0  0  0  0  0  3  0  0  0  0  0  0
  187.4340  177.3440  137.9240 N   0  0  0  0  0  0  0  0  0  0  0  0
  183.4890  179.4940  140.4790 N   0  0  0  0  0  0  0  0  0  0  0  0
  186.6410  172.3210  137.4310 C   0  0  0  0  0  2  0  0  0  0  0  0
  181.3590  176.7980  135.7160 N   0  0  0  0  0  0  0  0  0  0  0  0
  184.9700  178.1250  138.6510 N   0  0  0  0  0  0  0  0  0  0  0  0
  182.6220  174.8800  136.5470 C   0  0  0  0  0  0  0  0  0  0  0  0
  185.8380  173.0570  136.6630 C   0  0  0  0  0  0  0  0  0  0  0  0
  187.8220  177.7850  139.0730 C   0  0  0  0  0  0  0  0  0  0  0  0
  182.3260  174.9780  137.7700 O   0  0  0  0  0  0  0  0  0  0  0  0
  190.0220  176.6350  138.0600 S   0  0  0  0  0  0  0  0  0  0  0  0
  183.6400  178.2760  138.4330 C   0  0  0  0  0  0  0  0  0  0  0  0
  182.8780  178.9730  139.3800 C   0  0  0  0  0  2  0  0  0  0  0  0
  181.8160  175.5860  135.5320 C   0  0  0  0  0  0  0  0  0  0  0  0
  186.7190  175.2590  136.1080 N   0  0  0  0  0  2  0  0  0  0  0  0
  184.3980  173.2550  137.0740 C   0  0  2  0  0  3  0  0  0  0  0  0
  186.9620  178.4530  139.9590 O   0  0  0  0  0  0  0  0  0  0  0  0
  181.7200  177.6850  136.7850 C   0  0  0  0  0  0  0  0  0  0  0  0
  188.0030  175.2490  136.7970 C   0  0  0  0  0  2  0  0  0  0  0  0
  186.4670  173.9150  135.6040 C   0  0  0  0  0  2  0  0  0  0  0  0
  180.7170  178.9330  137.1250 S   0  0  0  0  0  0  0  0  0  0  0  0
  180.8730  173.6390  134.3460 C   0  0  0  0  0  1  0  0  0  0  0  0
  181.5200  174.9030  134.3520 O   0  0  0  0  0  0  0  0  0  0  0  0
  183.5950  171.1030  136.0140 C   0  0  0  0  0  1  0  0  0  0  0  0
  183.6640  171.9290  137.2890 C   0  0  0  0  0  2  0  0  0  0  0  0
  191.2330  177.6390  140.8250 C   0  0  0  0  0  2  0  0  0  0  0  0
  190.4700  177.8080  143.1600 C   0  0  0  0  0  3  0  0  0  0  0  0
  191.4540  177.5420  142.3010 C   0  0  0  0  0  3  0  0  0  0  0  0
  191.6000  176.5340  144.9410 C   0  0  0  0  0  2  0  0  0  0  0  0
  190.4990  176.2850  147.1750 C   0  0  0  0  0  2  0  0  0  0  0  0
  189.3690  177.5830  145.3640 C   0  0  0  0  0  2  0  0  0  0  0  0
  190.7020  177.7290  144.6320 C   0  0  2  0  0  3  0  0  0  0  0  0
  191.8320  176.4250  146.4460 C   0  0  0  0  0  2  0  0  0  0  0  0
  189.5990  177.4870  146.8750 C   0  0  1  0  0  3  0  0  0  0  0  0
  188.2660  177.3540  147.6150 C   0  0  1  0  0  3  0  0  0  0  0  0
  188.3410  177.9690  148.8670 O   0  0  0  0  0  1  0  0  0  0  0  0
  186.6560  179.0320  147.1610 O   0  0  0  0  0  0  0  0  0  0  0  0
  187.1360  177.9560  146.8330 C   0  0  0  0  0  0  0  0  0  0  0  0
  186.5940  177.2370  145.6470 C   0  0  0  0  0  1  0  0  0  0  0  0
  1 23  1  0  0  0  0
  1  5  1  0  0  0  0
  2 18  2  0  0  0  0
  3 25  1  1  0  0  0
  3  8  1  0  0  0  0
  3 17  1  0  0  0  0
  4  7  2  0  0  0  0
  6 13  1  0  0  0  0
  6 22  1  0  0  0  0
  7 32  1  0  0  0  0
  8 15  2  0  0  0  0
  9  5  2  0  0  0  0
 11 24  1  0  0  0  0
 12  1  2  0  0  0  0
 13 16  2  0  0  0  0
 14 22  1  0  0  0  0
 14 10  2  0  0  0  0
 15  4  1  0  0  0  0
 15 23  1  0  0  0  0
 17  4  1  0  0  0  0
 18 12  1  0  0  0  0
 18 19  1  0  0  0  0
 19  9  1  0  0  0  0
 20 11  2  0  0  0  0
 20 13  1  0  0  0  0
 21 25  1  0  0  0  0
 22 31  1  6  0  0  0
 24 27  2  0  0  0  0
 24  2  1  0  0  0  0
 26 21  1  0  0  0  0
 26 14  1  0  0  0  0
 28 29  1  0  0  0  0
 29 20  1  0  0  0  0
 30 31  1  0  0  0  0
 32 34  1  0  0  0  0
 34 33  2  0  0  0  0
 35 39  1  0  0  0  0
 37 40  1  0  0  0  0
 38 33  1  6  0  0  0
 38 35  1  0  0  0  0
 38 37  1  0  0  0  0
 39 36  1  0  0  0  0
 40 36  1  0  0  0  0
 40 41  1  1  0  0  0
 41 42  1  1  0  0  0
 44 43  2  0  0  0  0
 44 41  1  0  0  0  0
 45 44  1  0  0  0  0
M  END
>  <MODEL>
1

>  <REMARK>
 VINA RESULT:      -9.0      0.000      0.000
  Name = 
  7 active torsions:
  status: ('A' for Active; 'I' for Inactive)
    1  A    between atoms: C_2  and  C_7
    2  A    between atoms: C_2  and  C_14
    3  A    between atoms: C_3  and  C_25
    4  A    between atoms: C_17  and  C_29
    5  A    between atoms: C_17  and  C_45
    6  A    between atoms: O_33  and  C_34
    7  A    between atoms: C_37  and  C_39
                            x       y       z     vdW  Elec       q    Type
                         _______ _______ _______ _____ _____    ______ ____

>  <TORSDO>
F 7

$$$$
=
 OpenBabel10232409493D

 45 48  0  0  1  0  0  0  0  0999 V2000
  185.4280  178.6740  141.0510 C   0  0  0  0  0  0  0  0  0  0  0  0
  182.6930  179.0750  138.6510 N   0  0  0  0  0  0  0  0  0  0  0  0
  188.0000  178.3520  137.5530 C   0  0  1  0  0  3  0  0  0  0  0  0
  188.9700  177.9470  139.8600 C   0  0  0  0  0  0  0  0  0  0  0  0
  184.7670  178.7960  142.2760 C   0  0  0  0  0  3  0  0  0  0  0  0
  183.0880  176.5670  135.7970 O   0  0  0  0  0  0  0  0  0  0  0  0
  189.6520  177.6910  140.9770 C   0  0  0  0  0  3  0  0  0  0  0  0
  187.0800  178.5110  138.6730 N   0  0  0  0  0  0  0  0  0  0  0  0
  183.4250  179.0180  142.2920 N   0  0  0  0  0  0  0  0  0  0  0  0
  186.0720  174.4360  135.7590 C   0  0  0  0  0  2  0  0  0  0  0  0
  180.8360  179.1140  137.0220 N   0  0  0  0  0  0  0  0  0  0  0  0
  184.7090  178.7880  139.9040 N   0  0  0  0  0  0  0  0  0  0  0  0
  182.0900  177.0520  136.6480 C   0  0  0  0  0  0  0  0  0  0  0  0
  185.2390  175.4550  135.5450 C   0  0  0  0  0  0  0  0  0  0  0  0
  187.5710  178.3060  139.8490 C   0  0  0  0  0  0  0  0  0  0  0  0
  181.8940  176.5080  137.7710 O   0  0  0  0  0  0  0  0  0  0  0  0
  189.6430  177.8550  138.2080 S   0  0  0  0  0  0  0  0  0  0  0  0
  183.3720  179.0180  139.9070 C   0  0  0  0  0  0  0  0  0  0  0  0
  182.7110  179.1260  141.1380 C   0  0  0  0  0  2  0  0  0  0  0  0
  181.2330  178.1700  136.2080 C   0  0  0  0  0  0  0  0  0  0  0  0
  186.1510  177.6390  136.1170 N   0  0  0  0  0  2  0  0  0  0  0  0
  183.8430  175.4020  136.1210 C   0  0  2  0  0  3  0  0  0  0  0  0
  186.8070  178.4200  141.0210 O   0  0  0  0  0  0  0  0  0  0  0  0
  181.3100  179.3330  138.3580 C   0  0  0  0  0  0  0  0  0  0  0  0
  187.4840  177.2900  136.5930 C   0  0  0  0  0  2  0  0  0  0  0  0
  185.8140  176.7390  135.0220 C   0  0  0  0  0  2  0  0  0  0  0  0
  180.3820  180.2230  139.3700 S   0  0  0  0  0  0  0  0  0  0  0  0
  179.9820  179.1970  134.3460 C   0  0  0  0  0  1  0  0  0  0  0  0
  180.8230  178.1820  134.8740 O   0  0  0  0  0  0  0  0  0  0  0  0
  182.8770  173.1800  136.8490 C   0  0  0  0  0  1  0  0  0  0  0  0
  183.0810  174.1450  135.6910 C   0  0  0  0  0  2  0  0  0  0  0  0
  191.1010  177.3170  140.9840 C   0  0  0  0  0  2  0  0  0  0  0  0
  190.7870  177.1200  143.4180 C   0  0  0  0  0  3  0  0  0  0  0  0
  191.6210  177.2170  142.3830 C   0  0  0  0  0  3  0  0  0  0  0  0
  191.8530  175.6360  145.0720 C   0  0  0  0  0  2  0  0  0  0  0  0
  191.2630  175.8570  147.4950 C   0  0  0  0  0  2  0  0  0  0  0  0
  190.1980  177.3610  145.8100 C   0  0  0  0  0  2  0  0  0  0  0  0
  191.3110  177.0390  144.8130 C   0  0  2  0  0  3  0  0  0  0  0  0
  192.3750  175.5290  146.5030 C   0  0  0  0  0  2  0  0  0  0  0  0
  190.7240  177.2670  147.2440 C   0  0  1  0  0  3  0  0  0  0  0  0
  189.6170  177.6030  148.2460 C   0  0  1  0  0  3  0  0  0  0  0  0
  189.6130  178.9710  148.5270 O   0  0  0  0  0  1  0  0  0  0  0  0
  187.9620  176.0160  147.6470 O   0  0  0  0  0  0  0  0  0  0  0  0
  188.2660  177.1970  147.7360 C   0  0  0  0  0  0  0  0  0  0  0  0
  187.2850  178.2430  147.3340 C   0  0  0  0  0  1  0  0  0  0  0  0
  1  5  1  0  0  0  0
  2 18  2  0  0  0  0
  3 25  1  6  0  0  0
  3 17  1  0  0  0  0
  3  8  1  0  0  0  0
  4  7  2  0  0  0  0
  5  9  2  0  0  0  0
  6 22  1  0  0  0  0
  6 13  1  0  0  0  0
  7 32  1  0  0  0  0
  8 15  2  0  0  0  0
 11 24  1  0  0  0  0
 12 18  1  0  0  0  0
 12  1  2  0  0  0  0
 13 16  2  0  0  0  0
 14 10  2  0  0  0  0
 14 22  1  0  0  0  0
 15  4  1  0  0  0  0
 15 23  1  0  0  0  0
 17  4  1  0  0  0  0
 18 19  1  0  0  0  0
 19  9  1  0  0  0  0
 20 13  1  0  0  0  0
 20 11  2  0  0  0  0
 21 25  1  0  0  0  0
 22 31  1  6  0  0  0
 23  1  1  0  0  0  0
 24  2  1  0  0  0  0
 24 27  2  0  0  0  0
 26 14  1  0  0  0  0
 26 21  1  0  0  0  0
 28 29  1  0  0  0  0
 29 20  1  0  0  0  0
 31 30  1  0  0  0  0
 32 34  1  0  0  0  0
 34 33  2  0  0  0  0
 35 39  1  0  0  0  0
 37 40  1  0  0  0  0
 38 33  1  6  0  0  0
 38 35  1  0  0  0  0
 38 37  1  0  0  0  0
 39 36  1  0  0  0  0
 40 36  1  0  0  0  0
 40 41  1  1  0  0  0
 41 42  1  6  0  0  0
 43 44  2  0  0  0  0
 44 41  1  0  0  0  0
 45 44  1  0  0  0  0
M  END
>  <MODEL>
2

>  <REMARK>
 VINA RESULT:      -7.9      1.646      2.096
  Name = 
  7 active torsions:
  status: ('A' for Active; 'I' for Inactive)
    1  A    between atoms: C_2  and  C_7
    2  A    between atoms: C_2  and  C_14
    3  A    between atoms: C_3  and  C_25
    4  A    between atoms: C_17  and  C_29
    5  A    between atoms: C_17  and  C_45
    6  A    between atoms: O_33  and  C_34
    7  A    between atoms: C_37  and  C_39
                            x       y       z     vdW  Elec       q    Type
                         _______ _______ _______ _____ _____    ______ ____

>  <TORSDO>
F 7

$$$$
=
 OpenBabel10232409493D

 45 48  0  0  1  0  0  0  0  0999 V2000
  186.4060  173.1810  136.2800 C   0  0  0  0  0  0  0  0  0  0  0  0
  189.9030  174.0110  135.5870 N   0  0  0  0  0  0  0  0  0  0  0  0
  185.7470  177.4850  136.3340 C   0  0  1  0  0  3  0  0  0  0  0  0
  183.8580  175.9230  136.9790 C   0  0  0  0  0  0  0  0  0  0  0  0
  186.4230  171.7840  136.2590 C   0  0  0  0  0  3  0  0  0  0  0  0
  191.0240  176.8980  137.8230 O   0  0  0  0  0  0  0  0  0  0  0  0
  182.7590  175.2680  137.3570 C   0  0  0  0  0  3  0  0  0  0  0  0
  186.0400  176.0580  136.2590 N   0  0  0  0  0  0  0  0  0  0  0  0
  187.5910  171.1340  136.0060 N   0  0  0  0  0  0  0  0  0  0  0  0
  188.5350  178.4640  140.0140 C   0  0  0  0  0  2  0  0  0  0  0  0
  192.2930  174.5910  135.3490 N   0  0  0  0  0  0  0  0  0  0  0  0
  187.5610  173.8550  136.0410 N   0  0  0  0  0  0  0  0  0  0  0  0
  191.4870  175.6500  137.3970 C   0  0  0  0  0  0  0  0  0  0  0  0
  189.3050  178.1940  138.9600 C   0  0  0  0  0  0  0  0  0  0  0  0
  185.0800  175.2610  136.5860 C   0  0  0  0  0  0  0  0  0  0  0  0
  191.1820  174.6060  138.0380 O   0  0  0  0  0  0  0  0  0  0  0  0
  184.0240  177.7010  136.9320 S   0  0  0  0  0  0  0  0  0  0  0  0
  188.7290  173.2180  135.7800 C   0  0  0  0  0  0  0  0  0  0  0  0
  188.7450  171.8170  135.7720 C   0  0  0  0  0  2  0  0  0  0  0  0
  192.3750  175.5620  136.2210 C   0  0  0  0  0  0  0  0  0  0  0  0
  188.0910  177.9520  136.8620 N   0  0  0  0  0  2  0  0  0  0  0  0
  190.2830  177.0450  139.0320 C   0  0  2  0  0  3  0  0  0  0  0  0
  185.2130  173.8630  136.5650 O   0  0  0  0  0  0  0  0  0  0  0  0
  191.2460  173.6130  135.2680 C   0  0  0  0  0  0  0  0  0  0  0  0
  186.7140  178.1730  137.2880 C   0  0  0  0  0  2  0  0  0  0  0  0
  188.9500  178.8290  137.6460 C   0  0  0  0  0  2  0  0  0  0  0  0
  191.5470  172.2240  134.4550 S   0  0  0  0  0  0  0  0  0  0  0  0
  194.6960  176.2480  135.7400 C   0  0  0  0  0  1  0  0  0  0  0  0
  193.3490  176.5510  136.0720 O   0  0  0  0  0  0  0  0  0  0  0  0
  190.6070  176.6520  141.5100 C   0  0  0  0  0  1  0  0  0  0  0  0
  191.2370  177.1630  140.2240 C   0  0  0  0  0  2  0  0  0  0  0  0
  181.4950  175.9590  137.7650 C   0  0  0  0  0  2  0  0  0  0  0  0
  182.2830  177.2380  139.7160 C   0  0  0  0  0  3  0  0  0  0  0  0
  181.5050  176.2720  139.2280 C   0  0  0  0  0  3  0  0  0  0  0  0
  181.1550  178.4780  141.5230 C   0  0  0  0  0  2  0  0  0  0  0  0
  182.5080  179.4370  143.3980 C   0  0  0  0  0  2  0  0  0  0  0  0
  183.6370  178.1700  141.5660 C   0  0  0  0  0  2  0  0  0  0  0  0
  182.3030  177.5320  141.1790 C   0  0  2  0  0  3  0  0  0  0  0  0
  181.1720  178.8070  143.0140 C   0  0  0  0  0  2  0  0  0  0  0  0
  183.6610  178.4880  143.0630 C   0  0  1  0  0  3  0  0  0  0  0  0
  185.0000  179.1140  143.4590 C   0  0  1  0  0  3  0  0  0  0  0  0
  184.7940  180.3300  144.1150 O   0  0  0  0  0  1  0  0  0  0  0  0
  185.5510  178.1230  145.5400 O   0  0  0  0  0  0  0  0  0  0  0  0
  185.7970  178.2030  144.3450 C   0  0  0  0  0  0  0  0  0  0  0  0
  186.8990  177.3870  143.7630 C   0  0  0  0  0  1  0  0  0  0  0  0
  1 23  1  0  0  0  0
  2 18  2  0  0  0  0
  3 17  1  0  0  0  0
  3 25  1  1  0  0  0
  4  7  2  0  0  0  0
  5  1  1  0  0  0  0
  6 22  1  0  0  0  0
  7 32  1  0  0  0  0
  8  3  1  0  0  0  0
  8 15  2  0  0  0  0
  9  5  2  0  0  0  0
 11 20  2  0  0  0  0
 12  1  2  0  0  0  0
 13  6  1  0  0  0  0
 13 16  2  0  0  0  0
 14 22  1  0  0  0  0
 14 10  2  0  0  0  0
 15  4  1  0  0  0  0
 17  4  1  0  0  0  0
 18 12  1  0  0  0  0
 19 18  1  0  0  0  0
 19  9  1  0  0  0  0
 20 13  1  0  0  0  0
 21 25  1  0  0  0  0
 21 26  1  0  0  0  0
 22 31  1  1  0  0  0
 23 15  1  0  0  0  0
 24 11  1  0  0  0  0
 24  2  1  0  0  0  0
 26 14  1  0  0  0  0
 27 24  2  0  0  0  0
 28 29  1  0  0  0  0
 29 20  1  0  0  0  0
 31 30  1  0  0  0  0
 32 34  1  0  0  0  0
 34 33  2  0  0  0  0
 35 39  1  0  0  0  0
 37 40  1  0  0  0  0
 38 33  1  6  0  0  0
 38 35  1  0  0  0  0
 38 37  1  0  0  0  0
 39 36  1  0  0  0  0
 40 36  1  0  0  0  0
 40 41  1  6  0  0  0
 41 42  1  1  0  0  0
 41 44  1  0  0  0  0
 44 43  2  0  0  0  0
 45 44  1  0  0  0  0
M  END
>  <MODEL>
3

>  <REMARK>
 VINA RESULT:      -7.5      3.232      8.285
  Name = 
  7 active torsions:
  status: ('A' for Active; 'I' for Inactive)
    1  A    between atoms: C_2  and  C_7
    2  A    between atoms: C_2  and  C_14
    3  A    between atoms: C_3  and  C_25
    4  A    between atoms: C_17  and  C_29
    5  A    between atoms: C_17  and  C_45
    6  A    between atoms: O_33  and  C_34
    7  A    between atoms: C_37  and  C_39
                            x       y       z     vdW  Elec       q    Type
                         _______ _______ _______ _____ _____    ______ ____

>  <TORSDO>
F 7

$$$$
=
 OpenBabel10232409493D

 45 48  0  0  1  0  0  0  0  0999 V2000
  186.0320  178.3180  142.3310 C   0  0  0  0  0  0  0  0  0  0  0  0
  182.7630  178.6440  140.7160 N   0  0  0  0  0  0  0  0  0  0  0  0
  187.6640  178.4710  138.2970 C   0  0  1  0  0  3  0  0  0  0  0  0
  189.2050  177.9920  140.2520 C   0  0  0  0  0  0  0  0  0  0  0  0
  185.6920  178.2950  143.6860 C   0  0  0  0  0  3  0  0  0  0  0  0
  182.6010  176.3880  137.6380 O   0  0  0  0  0  0  0  0  0  0  0  0
  190.1600  177.7190  141.1420 C   0  0  0  0  0  3  0  0  0  0  0  0
  187.0440  178.4690  139.6180 N   0  0  0  0  0  0  0  0  0  0  0  0
  184.3850  178.3960  144.0490 N   0  0  0  0  0  0  0  0  0  0  0  0
  185.6190  174.5370  136.6830 C   0  0  0  0  0  2  0  0  0  0  0  0
  180.5590  178.6330  139.5990 N   0  0  0  0  0  0  0  0  0  0  0  0
  185.0430  178.4490  141.4090 N   0  0  0  0  0  0  0  0  0  0  0  0
  181.8180  176.7210  138.7470 C   0  0  0  0  0  0  0  0  0  0  0  0
  184.6920  175.4900  136.7710 C   0  0  0  0  0  0  0  0  0  0  0  0
  187.8260  178.2260  140.6140 C   0  0  0  0  0  0  0  0  0  0  0  0
  181.9460  176.0850  139.8300 O   0  0  0  0  0  0  0  0  0  0  0  0
  189.4480  178.0760  138.4840 S   0  0  0  0  0  0  0  0  0  0  0  0
  183.7380  178.5580  141.7590 C   0  0  0  0  0  0  0  0  0  0  0  0
  183.4000  178.5210  143.1180 C   0  0  0  0  0  2  0  0  0  0  0  0
  180.8040  177.7880  138.6320 C   0  0  0  0  0  0  0  0  0  0  0  0
  185.5670  177.7010  137.2970 N   0  0  0  0  0  2  0  0  0  0  0  0
  183.4910  175.2740  137.6620 C   0  0  2  0  0  3  0  0  0  0  0  0
  187.3740  178.1900  141.9430 O   0  0  0  0  0  0  0  0  0  0  0  0
  181.3370  178.7990  140.7940 C   0  0  0  0  0  0  0  0  0  0  0  0
  186.9980  177.4380  137.4000 C   0  0  0  0  0  2  0  0  0  0  0  0
  185.0290  176.8530  136.2410 C   0  0  0  0  0  2  0  0  0  0  0  0
  180.6330  179.5300  142.0780 S   0  0  0  0  0  0  0  0  0  0  0  0
  180.3930  178.7730  136.4070 C   0  0  0  0  0  1  0  0  0  0  0  0
  180.0730  177.8580  137.4440 O   0  0  0  0  0  0  0  0  0  0  0  0
  181.8040  174.1740  136.1310 C   0  0  0  0  0  1  0  0  0  0  0  0
  182.7330  173.9880  137.3200 C   0  0  0  0  0  2  0  0  0  0  0  0
  191.5870  177.4750  140.7610 C   0  0  0  0  0  2  0  0  0  0  0  0
  192.7350  176.7330  138.7130 C   0  0  0  0  0  3  0  0  0  0  0  0
  191.6760  176.6470  139.5180 C   0  0  0  0  0  3  0  0  0  0  0  0
  191.9210  174.6860  137.6080 C   0  0  0  0  0  2  0  0  0  0  0  0
  193.4450  173.4140  136.0830 C   0  0  0  0  0  2  0  0  0  0  0  0
  194.2530  175.4950  137.2010 C   0  0  0  0  0  2  0  0  0  0  0  0
  192.8090  175.9200  137.4640 C   0  0  2  0  0  3  0  0  0  0  0  0
  192.0010  173.8310  136.3460 C   0  0  0  0  0  2  0  0  0  0  0  0
  194.3360  174.6480  135.9290 C   0  0  1  0  0  3  0  0  0  0  0  0
  195.7830  174.2320  135.6530 C   0  0  1  0  0  3  0  0  0  0  0  0
  195.8660  173.5280  134.4490 O   0  0  0  0  0  1  0  0  0  0  0  0
  197.5490  175.5900  136.4600 O   0  0  0  0  0  0  0  0  0  0  0  0
  196.7000  175.4180  135.5980 C   0  0  0  0  0  0  0  0  0  0  0  0
  196.5760  176.3950  134.4800 C   0  0  0  0  0  1  0  0  0  0  0  0
  1  5  1  0  0  0  0
  2 24  1  0  0  0  0
  2 18  2  0  0  0  0
  3 25  1  6  0  0  0
  3 17  1  0  0  0  0
  3  8  1  0  0  0  0
  4 15  1  0  0  0  0
  4  7  2  0  0  0  0
  5  9  2  0  0  0  0
  6 22  1  0  0  0  0
  6 13  1  0  0  0  0
  8 15  2  0  0  0  0
 10 14  2  0  0  0  0
 11 24  1  0  0  0  0
 12 18  1  0  0  0  0
 12  1  2  0  0  0  0
 13 16  2  0  0  0  0
 14 22  1  0  0  0  0
 15 23  1  0  0  0  0
 17  4  1  0  0  0  0
 18 19  1  0  0  0  0
 19  9  1  0  0  0  0
 20 13  1  0  0  0  0
 20 11  2  0  0  0  0
 21 25  1  0  0  0  0
 22 31  1  6  0  0  0
 23  1  1  0  0  0  0
 24 27  2  0  0  0  0
 26 14  1  0  0  0  0
 26 21  1  0  0  0  0
 28 29  1  0  0  0  0
 29 20  1  0  0  0  0
 30 31  1  0  0  0  0
 32  7  1  0  0  0  0
 33 34  2  0  0  0  0
 34 32  1  0  0  0  0
 36 39  1  0  0  0  0
 37 38  1  0  0  0  0
 38 35  1  0  0  0  0
 38 33  1  1  0  0  0
 39 35  1  0  0  0  0
 40 41  1  1  0  0  0
 40 36  1  0  0  0  0
 40 37  1  0  0  0  0
 41 42  1  6  0  0  0
 44 41  1  0  0  0  0
 44 43  2  0  0  0  0
 45 44  1  0  0  0  0
M  END
>  <MODEL>
4

>  <REMARK>
 VINA RESULT:      -7.4      4.156      6.906
  Name = 
  7 active torsions:
  status: ('A' for Active; 'I' for Inactive)
    1  A    between atoms: C_2  and  C_7
    2  A    between atoms: C_2  and  C_14
    3  A    between atoms: C_3  and  C_25
    4  A    between atoms: C_17  and  C_29
    5  A    between atoms: C_17  and  C_45
    6  A    between atoms: O_33  and  C_34
    7  A    between atoms: C_37  and  C_39
                            x       y       z     vdW  Elec       q    Type
                         _______ _______ _______ _____ _____    ______ ____

>  <TORSDO>
F 7

$$$$
=
 OpenBabel10232409493D

 45 48  0  0  1  0  0  0  0  0999 V2000
  182.9290  176.9400  139.8610 C   0  0  0  0  0  0  0  0  0  0  0  0
  184.7050  176.9720  136.6590 N   0  0  0  0  0  0  0  0  0  0  0  0
  186.1040  179.5690  141.2630 C   0  0  1  0  0  3  0  0  0  0  0  0
  184.3820  178.7010  142.9080 C   0  0  0  0  0  0  0  0  0  0  0  0
  181.8170  176.1450  139.5740 C   0  0  0  0  0  3  0  0  0  0  0  0
  188.4610  176.6100  137.2510 O   0  0  0  0  0  0  0  0  0  0  0  0
  183.5830  178.3410  143.9140 C   0  0  0  0  0  3  0  0  0  0  0  0
  185.0560  178.7200  140.7070 N   0  0  0  0  0  0  0  0  0  0  0  0
  181.6630  175.6360  138.3220 N   0  0  0  0  0  0  0  0  0  0  0  0
  189.6740  176.5320  140.7120 C   0  0  0  0  0  2  0  0  0  0  0  0
  186.0350  176.8200  134.5830 N   0  0  0  0  0  0  0  0  0  0  0  0
  183.8290  177.1890  138.8730 N   0  0  0  0  0  0  0  0  0  0  0  0
  187.4670  176.0870  136.4200 C   0  0  0  0  0  0  0  0  0  0  0  0
  189.3000  176.9690  139.5090 C   0  0  0  0  0  0  0  0  0  0  0  0
  184.1780  178.2780  141.5420 C   0  0  0  0  0  0  0  0  0  0  0  0
  186.8020  175.0770  136.7840 O   0  0  0  0  0  0  0  0  0  0  0  0
  185.8400  179.7180  143.0750 S   0  0  0  0  0  0  0  0  0  0  0  0
  183.6820  176.6940  137.6200 C   0  0  0  0  0  0  0  0  0  0  0  0
  182.5720  175.8870  137.3400 C   0  0  0  0  0  2  0  0  0  0  0  0
  187.2320  176.6890  135.0930 C   0  0  0  0  0  0  0  0  0  0  0  0
  187.6690  178.7780  139.5570 N   0  0  0  0  0  2  0  0  0  0  0  0
  188.8190  175.9760  138.4770 C   0  0  2  0  0  3  0  0  0  0  0  0
  183.1120  177.4500  141.1550 O   0  0  0  0  0  0  0  0  0  0  0  0
  184.7940  176.6100  135.2720 C   0  0  0  0  0  0  0  0  0  0  0  0
  187.4740  178.9640  140.9890 C   0  0  0  0  0  2  0  0  0  0  0  0
  189.0700  178.4420  139.3340 C   0  0  0  0  0  2  0  0  0  0  0  0
  183.4480  176.3470  134.3780 S   0  0  0  0  0  0  0  0  0  0  0  0
  189.4110  177.8370  134.9510 C   0  0  0  0  0  1  0  0  0  0  0  0
  188.3480  177.1010  134.3640 O   0  0  0  0  0  0  0  0  0  0  0  0
  191.0340  175.3620  137.4200 C   0  0  0  0  0  1  0  0  0  0  0  0
  189.8380  174.8640  138.2170 C   0  0  0  0  0  2  0  0  0  0  0  0
  183.7980  178.7810  145.3280 C   0  0  0  0  0  2  0  0  0  0  0  0
  186.0600  178.6520  146.2930 C   0  0  0  0  0  3  0  0  0  0  0  0
  184.9310  178.0300  145.9550 C   0  0  0  0  0  3  0  0  0  0  0  0
  187.4760  178.4370  148.2990 C   0  0  0  0  0  2  0  0  0  0  0  0
  189.8880  177.8180  148.0500 C   0  0  0  0  0  2  0  0  0  0  0  0
  188.4400  178.0300  146.0270 C   0  0  0  0  0  2  0  0  0  0  0  0
  187.1930  177.8940  146.9010 C   0  0  2  0  0  3  0  0  0  0  0  0
  188.6470  177.6860  148.9280 C   0  0  0  0  0  2  0  0  0  0  0  0
  189.6120  177.2660  146.6500 C   0  0  1  0  0  3  0  0  0  0  0  0
  190.8600  177.3860  145.7720 C   0  0  1  0  0  3  0  0  0  0  0  0
  191.8040  176.4220  146.1340 O   0  0  0  0  0  1  0  0  0  0  0  0
  190.2110  176.1470  143.8600 O   0  0  0  0  0  0  0  0  0  0  0  0
  190.5300  177.2350  144.3160 C   0  0  0  0  0  0  0  0  0  0  0  0
  190.5910  178.4220  143.4190 C   0  0  0  0  0  1  0  0  0  0  0  0
  1 23  1  0  0  0  0
  2 18  2  0  0  0  0
  3 25  1  1  0  0  0
  3 17  1  0  0  0  0
  4 17  1  0  0  0  0
  4  7  2  0  0  0  0
  5  1  1  0  0  0  0
  6 22  1  0  0  0  0
  7 32  1  0  0  0  0
  8  3  1  0  0  0  0
  8 15  2  0  0  0  0
  9  5  2  0  0  0  0
 11 20  2  0  0  0  0
 11 24  1  0  0  0  0
 12  1  2  0  0  0  0
 13 16  2  0  0  0  0
 13  6  1  0  0  0  0
 14 10  2  0  0  0  0
 15  4  1  0  0  0  0
 18 12  1  0  0  0  0
 19 18  1  0  0  0  0
 19  9  1  0  0  0  0
 20 13  1  0  0  0  0
 21 25  1  0  0  0  0
 22 31  1  6  0  0  0
 22 14  1  0  0  0  0
 23 15  1  0  0  0  0
 24  2  1  0  0  0  0
 26 14  1  0  0  0  0
 26 21  1  0  0  0  0
 27 24  2  0  0  0  0
 29 28  1  0  0  0  0
 29 20  1  0  0  0  0
 30 31  1  0  0  0  0
 32 34  1  0  0  0  0
 34 33  2  0  0  0  0
 35 39  1  0  0  0  0
 36 39  1  0  0  0  0
 37 40  1  0  0  0  0
 37 38  1  0  0  0  0
 38 33  1  6  0  0  0
 38 35  1  0  0  0  0
 40 41  1  6  0  0  0
 40 36  1  0  0  0  0
 41 42  1  1  0  0  0
 43 44  2  0  0  0  0
 44 41  1  0  0  0  0
 45 44  1  0  0  0  0
M  END
>  <MODEL>
5

>  <REMARK>
 VINA RESULT:      -7.3      2.922      5.311
  Name = 
  7 active torsions:
  status: ('A' for Active; 'I' for Inactive)
    1  A    between atoms: C_2  and  C_7
    2  A    between atoms: C_2  and  C_14
    3  A    between atoms: C_3  and  C_25
    4  A    between atoms: C_17  and  C_29
    5  A    between atoms: C_17  and  C_45
    6  A    between atoms: O_33  and  C_34
    7  A    between atoms: C_37  and  C_39
                            x       y       z     vdW  Elec       q    Type
                         _______ _______ _______ _____ _____    ______ ____

>  <TORSDO>
F 7

$$$$
=
 OpenBabel10232409493D

 45 48  0  0  1  0  0  0  0  0999 V2000
  188.1020  177.6430  141.5870 C   0  0  0  0  0  0  0  0  0  0  0  0
  184.5930  178.6780  141.7150 N   0  0  0  0  0  0  0  0  0  0  0  0
  187.8500  178.5060  137.3270 C   0  0  1  0  0  3  0  0  0  0  0  0
  189.9490  177.4390  138.2650 C   0  0  0  0  0  0  0  0  0  0  0  0
  188.3750  177.3580  142.9280 C   0  0  0  0  0  3  0  0  0  0  0  0
  182.6900  177.1910  138.7560 O   0  0  0  0  0  0  0  0  0  0  0  0
  191.1180  176.8710  138.5670 C   0  0  0  0  0  3  0  0  0  0  0  0
  187.8670  178.2790  138.7670 N   0  0  0  0  0  0  0  0  0  0  0  0
  187.3970  177.5200  143.8580 N   0  0  0  0  0  0  0  0  0  0  0  0
  184.5780  175.2770  136.2620 C   0  0  0  0  0  2  0  0  0  0  0  0
  182.1690  179.1570  141.7420 N   0  0  0  0  0  0  0  0  0  0  0  0
  186.8610  178.0830  141.2500 N   0  0  0  0  0  0  0  0  0  0  0  0
  182.5370  177.3550  140.1350 C   0  0  0  0  0  0  0  0  0  0  0  0
  183.9860  176.2830  136.9050 C   0  0  0  0  0  0  0  0  0  0  0  0
  188.9340  177.7370  139.2480 C   0  0  0  0  0  0  0  0  0  0  0  0
  182.9870  176.4840  140.9320 O   0  0  0  0  0  0  0  0  0  0  0  0
  189.4260  177.8850  136.6160 S   0  0  0  0  0  0  0  0  0  0  0  0
  185.8810  178.2560  142.1710 C   0  0  0  0  0  0  0  0  0  0  0  0
  186.1550  177.9550  143.5110 C   0  0  0  0  0  2  0  0  0  0  0  0
  181.8050  178.5250  140.6560 C   0  0  0  0  0  0  0  0  0  0  0  0
  185.4210  178.2120  137.2950 N   0  0  0  0  0  2  0  0  0  0  0  0
  183.2640  176.0080  138.2040 C   0  0  2  0  0  3  0  0  0  0  0  0
  189.0950  177.4570  140.6140 O   0  0  0  0  0  0  0  0  0  0  0  0
  183.3980  178.9670  142.4580 C   0  0  0  0  0  0  0  0  0  0  0  0
  186.6750  177.7770  136.6910 C   0  0  0  0  0  2  0  0  0  0  0  0
  184.3270  177.6840  136.4890 C   0  0  0  0  0  2  0  0  0  0  0  0
  183.4700  179.4690  144.0150 S   0  0  0  0  0  0  0  0  0  0  0  0
  180.5870  180.1960  139.3090 C   0  0  0  0  0  1  0  0  0  0  0  0
  180.6670  178.9370  139.9600 O   0  0  0  0  0  0  0  0  0  0  0  0
  180.9650  175.4280  137.3230 C   0  0  0  0  0  1  0  0  0  0  0  0
  182.1950  174.9220  138.0590 C   0  0  0  0  0  2  0  0  0  0  0  0
  192.1670  176.5620  137.5450 C   0  0  0  0  0  2  0  0  0  0  0  0
  194.1090  175.0710  137.2860 C   0  0  0  0  0  3  0  0  0  0  0  0
  193.1410  175.5530  138.0650 C   0  0  0  0  0  3  0  0  0  0  0  0
  196.4650  174.3470  137.2730 C   0  0  0  0  0  2  0  0  0  0  0  0
  197.0100  171.9060  137.3450 C   0  0  0  0  0  2  0  0  0  0  0  0
  194.6270  172.6530  137.3680 C   0  0  0  0  0  2  0  0  0  0  0  0
  195.0650  174.0500  137.8050 C   0  0  2  0  0  3  0  0  0  0  0  0
  197.4540  173.3000  137.7780 C   0  0  0  0  0  2  0  0  0  0  0  0
  195.6110  171.6000  137.8840 C   0  0  1  0  0  3  0  0  0  0  0  0
  195.1690  170.1970  137.4610 C   0  0  1  0  0  3  0  0  0  0  0  0
  195.9080  169.7670  136.3560 O   0  0  0  0  0  1  0  0  0  0  0  0
  194.6750  169.3210  139.6060 O   0  0  0  0  0  0  0  0  0  0  0  0
  195.3250  169.2060  138.5770 C   0  0  0  0  0  0  0  0  0  0  0  0
  196.2790  168.0720  138.4280 C   0  0  0  0  0  1  0  0  0  0  0  0
  1  5  1  0  0  0  0
  2 18  2  0  0  0  0
  2 24  1  0  0  0  0
  3 25  1  6  0  0  0
  3  8  1  0  0  0  0
  4  7  2  0  0  0  0
  4 15  1  0  0  0  0
  5  9  2  0  0  0  0
  6 13  1  0  0  0  0
  8 15  2  0  0  0  0
 10 14  2  0  0  0  0
 11 24  1  0  0  0  0
 12  1  2  0  0  0  0
 12 18  1  0  0  0  0
 13 20  1  0  0  0  0
 13 16  2  0  0  0  0
 14 22  1  0  0  0  0
 15 23  1  0  0  0  0
 17  3  1  0  0  0  0
 17  4  1  0  0  0  0
 18 19  1  0  0  0  0
 19  9  1  0  0  0  0
 20 11  2  0  0  0  0
 22 31  1  6  0  0  0
 22  6  1  0  0  0  0
 23  1  1  0  0  0  0
 24 27  2  0  0  0  0
 25 21  1  0  0  0  0
 26 14  1  0  0  0  0
 26 21  1  0  0  0  0
 28 29  1  0  0  0  0
 29 20  1  0  0  0  0
 30 31  1  0  0  0  0
 32 34  1  0  0  0  0
 32  7  1  0  0  0  0
 33 34  2  0  0  0  0
 35 39  1  0  0  0  0
 35 38  1  0  0  0  0
 36 39  1  0  0  0  0
 36 40  1  0  0  0  0
 37 38  1  0  0  0  0
 37 40  1  0  0  0  0
 38 33  1  6  0  0  0
 40 41  1  6  0  0  0
 41 42  1  6  0  0  0
 41 44  1  0  0  0  0
 44 43  2  0  0  0  0
 45 44  1  0  0  0  0
M  END
>  <MODEL>
6

>  <REMARK>
 VINA RESULT:      -6.8      5.210      7.547
  Name = 
  7 active torsions:
  status: ('A' for Active; 'I' for Inactive)
    1  A    between atoms: C_2  and  C_7
    2  A    between atoms: C_2  and  C_14
    3  A    between atoms: C_3  and  C_25
    4  A    between atoms: C_17  and  C_29
    5  A    between atoms: C_17  and  C_45
    6  A    between atoms: O_33  and  C_34
    7  A    between atoms: C_37  and  C_39
                            x       y       z     vdW  Elec       q    Type
                         _______ _______ _______ _____ _____    ______ ____

>  <TORSDO>
F 7

$$$$
=
 OpenBabel10232409493D

 45 48  0  0  1  0  0  0  0  0999 V2000
  188.9320  177.0720  141.7240 C   0  0  0  0  0  0  0  0  0  0  0  0
  185.8670  178.6440  142.9610 N   0  0  0  0  0  0  0  0  0  0  0  0
  187.8570  178.7910  137.8710 C   0  0  1  0  0  3  0  0  0  0  0  0
  189.8370  177.2160  138.0280 C   0  0  0  0  0  0  0  0  0  0  0  0
  189.4510  176.4840  142.8800 C   0  0  0  0  0  3  0  0  0  0  0  0
  183.0330  178.1210  140.4540 O   0  0  0  0  0  0  0  0  0  0  0  0
  190.8930  176.4090  137.9110 C   0  0  0  0  0  3  0  0  0  0  0  0
  188.1700  178.2840  139.2020 N   0  0  0  0  0  0  0  0  0  0  0  0
  188.7840  176.6230  144.0580 N   0  0  0  0  0  0  0  0  0  0  0  0
  183.8050  176.4450  137.2850 C   0  0  0  0  0  2  0  0  0  0  0  0
  183.6840  179.5160  143.7230 N   0  0  0  0  0  0  0  0  0  0  0  0
  187.7730  177.7750  141.8090 N   0  0  0  0  0  0  0  0  0  0  0  0
  183.2550  178.0320  141.8310 C   0  0  0  0  0  0  0  0  0  0  0  0
  183.6180  177.3900  138.2070 C   0  0  0  0  0  0  0  0  0  0  0  0
  189.1780  177.4830  139.2850 C   0  0  0  0  0  0  0  0  0  0  0  0
  183.6840  176.9570  142.3370 O   0  0  0  0  0  0  0  0  0  0  0  0
  189.0430  178.0630  136.6710 S   0  0  0  0  0  0  0  0  0  0  0  0
  187.1030  177.9270  142.9780 C   0  0  0  0  0  0  0  0  0  0  0  0
  187.6200  177.3250  144.1330 C   0  0  0  0  0  2  0  0  0  0  0  0
  182.9410  179.1840  142.6990 C   0  0  0  0  0  0  0  0  0  0  0  0
  185.4870  178.9290  138.4640 N   0  0  0  0  0  2  0  0  0  0  0  0
  183.1870  176.9910  139.5990 C   0  0  2  0  0  3  0  0  0  0  0  0
  189.5980  176.9150  140.4990 O   0  0  0  0  0  0  0  0  0  0  0  0
  184.9780  178.9810  144.0380 C   0  0  0  0  0  0  0  0  0  0  0  0
  186.4340  178.4140  137.4830 C   0  0  0  0  0  2  0  0  0  0  0  0
  184.1450  178.7660  137.9230 C   0  0  0  0  0  2  0  0  0  0  0  0
  185.5290  179.1450  145.5710 S   0  0  0  0  0  0  0  0  0  0  0  0
  180.4910  179.3350  142.4520 C   0  0  0  0  0  1  0  0  0  0  0  0
  181.7870  179.9130  142.4110 O   0  0  0  0  0  0  0  0  0  0  0  0
  180.6630  177.0140  139.4200 C   0  0  0  0  0  1  0  0  0  0  0  0
  181.9050  176.1540  139.5960 C   0  0  0  0  0  2  0  0  0  0  0  0
  191.5720  176.1340  136.6070 C   0  0  0  0  0  2  0  0  0  0  0  0
  193.2340  174.4060  136.0460 C   0  0  0  0  0  3  0  0  0  0  0  0
  192.8750  175.4300  136.8200 C   0  0  0  0  0  3  0  0  0  0  0  0
  194.2810  172.4600  137.1380 C   0  0  0  0  0  2  0  0  0  0  0  0
  196.5870  172.6660  138.0890 C   0  0  0  0  0  2  0  0  0  0  0  0
  195.5190  174.6270  136.9710 C   0  0  0  0  0  2  0  0  0  0  0  0
  194.5270  173.6960  136.2760 C   0  0  2  0  0  3  0  0  0  0  0  0
  195.5970  171.7320  137.4000 C   0  0  0  0  0  2  0  0  0  0  0  0
  196.8430  173.9020  137.2230 C   0  0  1  0  0  3  0  0  0  0  0  0
  197.8460  174.8350  137.9070 C   0  0  1  0  0  3  0  0  0  0  0  0
  197.4880  175.0400  139.2420 O   0  0  0  0  0  1  0  0  0  0  0  0
  199.9460  174.2660  138.8450 O   0  0  0  0  0  0  0  0  0  0  0  0
  199.2420  174.2890  137.8460 C   0  0  0  0  0  0  0  0  0  0  0  0
  199.7750  173.7710  136.5550 C   0  0  0  0  0  1  0  0  0  0  0  0
  1 12  2  0  0  0  0
  1  5  1  0  0  0  0
  2 18  2  0  0  0  0
  2 24  1  0  0  0  0
  3 25  1  6  0  0  0
  3  8  1  0  0  0  0
  4 15  1  0  0  0  0
  5  9  2  0  0  0  0
  6 13  1  0  0  0  0
  7  4  2  0  0  0  0
  8 15  2  0  0  0  0
  9 19  1  0  0  0  0
 10 14  2  0  0  0  0
 11 24  1  0  0  0  0
 12 18  1  0  0  0  0
 13 16  2  0  0  0  0
 13 20  1  0  0  0  0
 14 22  1  0  0  0  0
 15 23  1  0  0  0  0
 17  3  1  0  0  0  0
 17  4  1  0  0  0  0
 18 19  1  0  0  0  0
 20 11  2  0  0  0  0
 22 31  1  6  0  0  0
 22  6  1  0  0  0  0
 23  1  1  0  0  0  0
 24 27  2  0  0  0  0
 25 21  1  0  0  0  0
 26 14  1  0  0  0  0
 26 21  1  0  0  0  0
 29 28  1  0  0  0  0
 29 20  1  0  0  0  0
 30 31  1  0  0  0  0
 32 34  1  0  0  0  0
 32  7  1  0  0  0  0
 33 34  2  0  0  0  0
 35 39  1  0  0  0  0
 37 40  1  0  0  0  0
 38 33  1  1  0  0  0
 38 37  1  0  0  0  0
 38 35  1  0  0  0  0
 39 36  1  0  0  0  0
 40 41  1  1  0  0  0
 40 36  1  0  0  0  0
 41 42  1  1  0  0  0
 44 41  1  0  0  0  0
 44 43  2  0  0  0  0
 45 44  1  0  0  0  0
M  END
>  <MODEL>
7

>  <REMARK>
 VINA RESULT:      -6.2      5.346      8.279
  Name = 
  7 active torsions:
  status: ('A' for Active; 'I' for Inactive)
    1  A    between atoms: C_2  and  C_7
    2  A    between atoms: C_2  and  C_14
    3  A    between atoms: C_3  and  C_25
    4  A    between atoms: C_17  and  C_29
    5  A    between atoms: C_17  and  C_45
    6  A    between atoms: O_33  and  C_34
    7  A    between atoms: C_37  and  C_39
                            x       y       z     vdW  Elec       q    Type
                         _______ _______ _______ _____ _____    ______ ____

>  <TORSDO>
F 7

$$$$
