=
 OpenBabel10232410033D

 28 30  0  0  1  0  0  0  0  0999 V2000
  190.1840  176.8610  143.8740 C   0  0  2  0  0  3  0  0  0  0  0  0
  187.8320  177.5360  143.0400 C   0  0  0  0  0  0  0  0  0  0  0  0
  186.0690  177.9180  144.6910 C   0  0  0  0  0  0  0  0  0  0  0  0
  185.5910  178.3040  142.2010 C   0  0  0  0  0  2  0  0  0  0  0  0
  183.4870  178.9560  142.2930 C   0  0  0  0  0  2  0  0  0  0  0  0
  182.9880  179.3300  143.6850 C   0  0  0  0  0  2  0  0  0  0  0  0
  188.2870  177.2640  145.4090 C   0  0  0  0  0  3  0  0  0  0  0  0
  184.1450  179.5370  144.6530 C   0  0  0  0  0  2  0  0  0  0  0  0
  184.2910  177.8120  142.3440 O   0  0  0  0  0  0  0  0  0  0  0  0
  186.4900  177.8750  143.3360 C   0  0  0  0  0  0  0  0  0  0  0  0
  188.7300  177.2200  144.0870 C   0  0  0  0  0  0  0  0  0  0  0  0
  184.6540  178.1820  145.1170 C   0  0  0  0  0  2  0  0  0  0  0  0
  188.2910  177.5070  141.6120 C   0  0  0  0  0  1  0  0  0  0  0  0
  186.9700  177.6020  145.7060 C   0  0  0  0  0  3  0  0  0  0  0  0
  192.5050  175.3600  146.4750 C   0  0  0  0  0  3  0  0  0  0  0  0
  191.2420  177.1310  147.5350 C   0  0  0  0  0  3  0  0  0  0  0  0
  190.8880  176.6280  145.1860 C   0  0  0  0  0  0  0  0  0  0  0  0
  190.5850  177.3840  146.3270 C   0  0  0  0  0  3  0  0  0  0  0  0
  192.2070  176.1190  147.6160 C   0  0  0  0  0  0  0  0  0  0  0  0
  191.8470  175.6120  145.2690 C   0  0  0  0  0  3  0  0  0  0  0  0
  192.8400  174.7170  149.4240 O   0  0  0  0  0  0  0  0  0  0  0  0
  192.8960  175.8570  148.8900 C   0  0  0  0  0  0  0  0  0  0  0  0
  193.6170  176.8660  149.5180 O   0  0  0  0  0  1  0  0  0  0  0  0
  190.8940  177.8000  142.9840 N   0  0  0  0  0  0  0  0  0  0  0  0
  190.8880  179.9480  143.9820 O   0  0  0  0  0  1  0  0  0  0  0  0
  191.6390  178.7840  143.7800 C   0  0  0  0  0  2  0  0  0  0  0  0
  191.8250  177.6140  140.8870 C   0  0  0  0  0  1  0  0  0  0  0  0
  191.8390  177.0740  142.2360 N   0  0  0  0  0  2  0  0  0  0  0  0
  1 24  1  1  0  0  0
  1 11  1  0  0  0  0
  1 17  1  0  0  0  0
  2 10  2  0  0  0  0
  2 11  1  0  0  0  0
  3 12  1  0  0  0  0
  3 14  2  0  0  0  0
  4  9  1  0  0  0  0
  4 10  1  0  0  0  0
  5  9  1  0  0  0  0
  5  6  1  0  0  0  0
  6  8  1  0  0  0  0
  7 14  1  0  0  0  0
  8 12  1  0  0  0  0
 10  3  1  0  0  0  0
 11  7  2  0  0  0  0
 13  2  1  0  0  0  0
 15 19  1  0  0  0  0
 16 19  2  0  0  0  0
 17 20  1  0  0  0  0
 17 18  2  0  0  0  0
 18 16  1  0  0  0  0
 19 22  1  0  0  0  0
 20 15  2  0  0  0  0
 22 21  2  0  0  0  0
 22 23  1  0  0  0  0
 24 26  1  0  0  0  0
 26 25  1  0  0  0  0
 27 28  1  0  0  0  0
 28 24  1  0  0  0  0
M  END
>  <MODEL>
1

>  <REMARK>
 VINA RESULT:      -8.2      0.000      0.000
  Name = 
  6 active torsions:
  status: ('A' for Active; 'I' for Inactive)
    1  A    between atoms: C_5  and  N_10
    2  A    between atoms: C_5  and  C_15
    3  A    between atoms: C_5  and  C_21
    4  A    between atoms: N_10  and  C_16
    5  A    between atoms: N_10  and  N_17
    6  A    between atoms: C_18  and  C_26
                            x       y       z     vdW  Elec       q    Type
                         _______ _______ _______ _____ _____    ______ ____

>  <TORSDO>
F 6

$$$$
=
 OpenBabel10232410033D

 28 30  0  0  1  0  0  0  0  0999 V2000
  190.2870  177.6670  139.7930 C   0  0  2  0  0  3  0  0  0  0  0  0
  192.2630  176.3130  138.8220 C   0  0  0  0  0  0  0  0  0  0  0  0
  191.7790  174.4690  137.2900 C   0  0  0  0  0  0  0  0  0  0  0  0
  194.2120  175.0930  137.8080 C   0  0  0  0  0  2  0  0  0  0  0  0
  195.2780  173.6200  136.5620 C   0  0  0  0  0  2  0  0  0  0  0  0
  194.4150  172.9050  135.5280 C   0  0  0  0  0  2  0  0  0  0  0  0
  189.9700  175.7620  138.2480 C   0  0  0  0  0  3  0  0  0  0  0  0
  193.0890  173.6250  135.3170 C   0  0  0  0  0  2  0  0  0  0  0  0
  194.5950  173.7500  137.7760 O   0  0  0  0  0  0  0  0  0  0  0  0
  192.7240  175.2580  137.9990 C   0  0  0  0  0  0  0  0  0  0  0  0
  190.8750  176.5570  138.9510 C   0  0  0  0  0  0  0  0  0  0  0  0
  192.1470  173.2770  136.4570 C   0  0  0  0  0  2  0  0  0  0  0  0
  193.2540  177.1630  139.5610 C   0  0  0  0  0  1  0  0  0  0  0  0
  190.4170  174.7270  137.4330 C   0  0  0  0  0  3  0  0  0  0  0  0
  191.2610  178.0740  143.4400 C   0  0  0  0  0  3  0  0  0  0  0  0
  190.1610  175.9330  143.1950 C   0  0  0  0  0  3  0  0  0  0  0  0
  190.4430  177.3780  141.2650 C   0  0  0  0  0  0  0  0  0  0  0  0
  189.9850  176.1800  141.8310 C   0  0  0  0  0  3  0  0  0  0  0  0
  190.7990  176.8790  144.0090 C   0  0  0  0  0  0  0  0  0  0  0  0
  191.0860  178.3200  142.0750 C   0  0  0  0  0  3  0  0  0  0  0  0
  192.0170  176.0270  145.8590 O   0  0  0  0  0  0  0  0  0  0  0  0
  190.9820  176.6140  145.4440 C   0  0  0  0  0  0  0  0  0  0  0  0
  190.0130  177.0100  146.3590 O   0  0  0  0  0  1  0  0  0  0  0  0
  188.9080  178.0270  139.4090 N   0  0  0  0  0  0  0  0  0  0  0  0
  186.7980  178.6700  140.2690 O   0  0  0  0  0  1  0  0  0  0  0  0
  188.1190  178.3510  140.6030 C   0  0  0  0  0  2  0  0  0  0  0  0
  188.5320  178.8180  137.2800 C   0  0  0  0  0  1  0  0  0  0  0  0
  188.9580  179.1900  138.6180 N   0  0  0  0  0  2  0  0  0  0  0  0
  1 24  1  1  0  0  0
  1 17  1  0  0  0  0
  2 11  1  0  0  0  0
  2 13  1  0  0  0  0
  3 14  2  0  0  0  0
  3 10  1  0  0  0  0
  4 10  1  0  0  0  0
  5  9  1  0  0  0  0
  6  5  1  0  0  0  0
  7 11  2  0  0  0  0
  8  6  1  0  0  0  0
  8 12  1  0  0  0  0
  9  4  1  0  0  0  0
 10  2  2  0  0  0  0
 11  1  1  0  0  0  0
 12  3  1  0  0  0  0
 14  7  1  0  0  0  0
 15 19  1  0  0  0  0
 16 19  2  0  0  0  0
 17 18  2  0  0  0  0
 17 20  1  0  0  0  0
 18 16  1  0  0  0  0
 19 22  1  0  0  0  0
 20 15  2  0  0  0  0
 22 21  2  0  0  0  0
 22 23  1  0  0  0  0
 24 26  1  0  0  0  0
 25 26  1  0  0  0  0
 27 28  1  0  0  0  0
 28 24  1  0  0  0  0
M  END
>  <MODEL>
2

>  <REMARK>
 VINA RESULT:      -7.5      4.283      7.944
  Name = 
  6 active torsions:
  status: ('A' for Active; 'I' for Inactive)
    1  A    between atoms: C_5  and  N_10
    2  A    between atoms: C_5  and  C_15
    3  A    between atoms: C_5  and  C_21
    4  A    between atoms: N_10  and  C_16
    5  A    between atoms: N_10  and  N_17
    6  A    between atoms: C_18  and  C_26
                            x       y       z     vdW  Elec       q    Type
                         _______ _______ _______ _____ _____    ______ ____

>  <TORSDO>
F 6

$$$$
=
 OpenBabel10232410033D

 28 30  0  0  1  0  0  0  0  0999 V2000
  188.9510  177.2640  139.8030 C   0  0  2  0  0  3  0  0  0  0  0  0
  187.8660  177.5950  142.1260 C   0  0  0  0  0  0  0  0  0  0  0  0
  189.1560  176.9970  144.1170 C   0  0  0  0  0  0  0  0  0  0  0  0
  186.8260  178.0390  144.3700 C   0  0  0  0  0  2  0  0  0  0  0  0
  186.6550  178.1090  146.5670 C   0  0  0  0  0  2  0  0  0  0  0  0
  187.9610  177.8870  147.3230 C   0  0  0  0  0  2  0  0  0  0  0  0
  190.1090  176.6910  141.9120 C   0  0  0  0  0  3  0  0  0  0  0  0
  189.1670  178.0390  146.4050 C   0  0  0  0  0  2  0  0  0  0  0  0
  186.5540  177.2340  145.4800 O   0  0  0  0  0  0  0  0  0  0  0  0
  187.9590  177.4940  143.5350 C   0  0  0  0  0  0  0  0  0  0  0  0
  188.9490  177.1810  141.3130 C   0  0  0  0  0  0  0  0  0  0  0  0
  189.3340  176.7680  145.5880 C   0  0  0  0  0  2  0  0  0  0  0  0
  186.6140  178.1360  141.5030 C   0  0  0  0  0  1  0  0  0  0  0  0
  190.2070  176.5940  143.2960 C   0  0  0  0  0  3  0  0  0  0  0  0
  191.4200  175.2260  137.7640 C   0  0  0  0  0  3  0  0  0  0  0  0
  192.6770  176.8130  139.0900 C   0  0  0  0  0  3  0  0  0  0  0  0
  190.2540  176.7670  139.2290 C   0  0  0  0  0  0  0  0  0  0  0  0
  191.4850  177.3080  139.6260 C   0  0  0  0  0  3  0  0  0  0  0  0
  192.6520  175.7700  138.1550 C   0  0  0  0  0  0  0  0  0  0  0  0
  190.2290  175.7210  138.3010 C   0  0  0  0  0  3  0  0  0  0  0  0
  194.3590  174.1320  137.9570 O   0  0  0  0  0  1  0  0  0  0  0  0
  193.9100  175.2520  137.5940 C   0  0  0  0  0  0  0  0  0  0  0  0
  194.6180  175.9950  136.6550 O   0  0  0  0  0  0  0  0  0  0  0  0
  188.5500  178.5880  139.2890 N   0  0  0  0  0  0  0  0  0  0  0  0
  188.8280  180.0220  137.4240 O   0  0  0  0  0  1  0  0  0  0  0  0
  189.3890  178.9600  138.1430 C   0  0  0  0  0  2  0  0  0  0  0  0
  187.1670  177.3690  137.9090 C   0  0  0  0  0  1  0  0  0  0  0  0
  187.2260  178.5000  138.8200 N   0  0  0  0  0  2  0  0  0  0  0  0
  1 24  1  1  0  0  0
  1 11  1  0  0  0  0
  2 10  1  0  0  0  0
  3 12  1  0  0  0  0
  4  9  1  0  0  0  0
  5  6  1  0  0  0  0
  7 14  2  0  0  0  0
  8  6  1  0  0  0  0
  9  5  1  0  0  0  0
 10  3  2  0  0  0  0
 10  4  1  0  0  0  0
 11  7  1  0  0  0  0
 11  2  2  0  0  0  0
 12  8  1  0  0  0  0
 13  2  1  0  0  0  0
 14  3  1  0  0  0  0
 15 19  2  0  0  0  0
 15 20  1  0  0  0  0
 16 18  2  0  0  0  0
 17 18  1  0  0  0  0
 17  1  1  0  0  0  0
 19 16  1  0  0  0  0
 20 17  2  0  0  0  0
 22 21  1  0  0  0  0
 22 19  1  0  0  0  0
 23 22  2  0  0  0  0
 25 26  1  0  0  0  0
 26 24  1  0  0  0  0
 27 28  1  0  0  0  0
 28 24  1  0  0  0  0
M  END
>  <MODEL>
3

>  <REMARK>
 VINA RESULT:      -7.2      3.793      6.532
  Name = 
  6 active torsions:
  status: ('A' for Active; 'I' for Inactive)
    1  A    between atoms: C_5  and  N_10
    2  A    between atoms: C_5  and  C_15
    3  A    between atoms: C_5  and  C_21
    4  A    between atoms: N_10  and  C_16
    5  A    between atoms: N_10  and  N_17
    6  A    between atoms: C_18  and  C_26
                            x       y       z     vdW  Elec       q    Type
                         _______ _______ _______ _____ _____    ______ ____

>  <TORSDO>
F 6

$$$$
=
 OpenBabel10232410033D

 28 30  0  0  1  0  0  0  0  0999 V2000
  190.1400  177.6310  143.0040 C   0  0  2  0  0  3  0  0  0  0  0  0
  187.7780  178.0450  143.9700 C   0  0  0  0  0  0  0  0  0  0  0  0
  185.9940  178.7370  142.4460 C   0  0  0  0  0  0  0  0  0  0  0  0
  185.4700  178.3250  144.9230 C   0  0  0  0  0  2  0  0  0  0  0  0
  183.3080  178.7540  144.9510 C   0  0  0  0  0  2  0  0  0  0  0  0
  182.6470  178.8280  143.5790 C   0  0  0  0  0  2  0  0  0  0  0  0
  188.2320  178.3540  141.6050 C   0  0  0  0  0  3  0  0  0  0  0  0
  183.5340  178.2200  142.5010 C   0  0  0  0  0  2  0  0  0  0  0  0
  184.5570  179.3830  144.9360 O   0  0  0  0  0  0  0  0  0  0  0  0
  186.4280  178.4140  143.7590 C   0  0  0  0  0  0  0  0  0  0  0  0
  188.6850  178.0250  142.8820 C   0  0  0  0  0  0  0  0  0  0  0  0
  184.6120  179.2220  142.1200 C   0  0  0  0  0  2  0  0  0  0  0  0
  188.2410  177.6830  145.3500 C   0  0  0  0  0  1  0  0  0  0  0  0
  186.9050  178.7120  141.3920 C   0  0  0  0  0  3  0  0  0  0  0  0
  192.6500  177.4070  140.1650 C   0  0  0  0  0  3  0  0  0  0  0  0
  190.5570  176.4760  139.3860 C   0  0  0  0  0  3  0  0  0  0  0  0
  190.7380  177.3230  141.6540 C   0  0  0  0  0  0  0  0  0  0  0  0
  189.9800  176.7320  140.6330 C   0  0  0  0  0  3  0  0  0  0  0  0
  191.8960  176.8100  139.1440 C   0  0  0  0  0  0  0  0  0  0  0  0
  192.0730  177.6630  141.4110 C   0  0  0  0  0  3  0  0  0  0  0  0
  191.7920  176.1090  136.8790 O   0  0  0  0  0  0  0  0  0  0  0  0
  192.4990  176.5380  137.8300 C   0  0  0  0  0  0  0  0  0  0  0  0
  193.8570  176.7520  137.6240 O   0  0  0  0  0  1  0  0  0  0  0  0
  190.3790  176.5760  144.0070 N   0  0  0  0  0  0  0  0  0  0  0  0
  191.6890  174.6230  143.7200 O   0  0  0  0  0  1  0  0  0  0  0  0
  190.5060  175.2710  143.3460 C   0  0  0  0  0  2  0  0  0  0  0  0
  191.3610  176.8180  146.0750 C   0  0  0  0  0  1  0  0  0  0  0  0
  191.6070  176.8370  144.6420 N   0  0  0  0  0  2  0  0  0  0  0  0
  1 24  1  1  0  0  0
  2 13  1  0  0  0  0
  3 10  2  0  0  0  0
  4  9  1  0  0  0  0
  6  5  1  0  0  0  0
  7 11  1  0  0  0  0
  8  6  1  0  0  0  0
  9  5  1  0  0  0  0
 10  2  1  0  0  0  0
 10  4  1  0  0  0  0
 11  1  1  0  0  0  0
 11  2  2  0  0  0  0
 12  3  1  0  0  0  0
 12  8  1  0  0  0  0
 14  7  2  0  0  0  0
 14  3  1  0  0  0  0
 15 20  1  0  0  0  0
 16 18  2  0  0  0  0
 17  1  1  0  0  0  0
 18 17  1  0  0  0  0
 19 16  1  0  0  0  0
 19 15  2  0  0  0  0
 20 17  2  0  0  0  0
 21 22  2  0  0  0  0
 22 19  1  0  0  0  0
 23 22  1  0  0  0  0
 24 28  1  0  0  0  0
 26 25  1  0  0  0  0
 26 24  1  0  0  0  0
 28 27  1  0  0  0  0
M  END
>  <MODEL>
4

>  <REMARK>
 VINA RESULT:      -7.1      2.766      5.524
  Name = 
  6 active torsions:
  status: ('A' for Active; 'I' for Inactive)
    1  A    between atoms: C_5  and  N_10
    2  A    between atoms: C_5  and  C_15
    3  A    between atoms: C_5  and  C_21
    4  A    between atoms: N_10  and  C_16
    5  A    between atoms: N_10  and  N_17
    6  A    between atoms: C_18  and  C_26
                            x       y       z     vdW  Elec       q    Type
                         _______ _______ _______ _____ _____    ______ ____

>  <TORSDO>
F 6

$$$$
=
 OpenBabel10232410033D

 28 30  0  0  1  0  0  0  0  0999 V2000
  189.2830  177.9550  141.4770 C   0  0  2  0  0  3  0  0  0  0  0  0
  191.2140  177.1760  139.9450 C   0  0  0  0  0  0  0  0  0  0  0  0
  190.6620  176.0330  137.8550 C   0  0  0  0  0  0  0  0  0  0  0  0
  193.1110  176.5370  138.4260 C   0  0  0  0  0  2  0  0  0  0  0  0
  194.1170  175.7050  136.6500 C   0  0  0  0  0  2  0  0  0  0  0  0
  193.1960  175.3940  135.4740 C   0  0  0  0  0  2  0  0  0  0  0  0
  188.8980  176.7690  139.3410 C   0  0  0  0  0  3  0  0  0  0  0  0
  191.8420  176.0710  135.6340 C   0  0  0  0  0  2  0  0  0  0  0  0
  193.5230  175.3280  137.8590 O   0  0  0  0  0  0  0  0  0  0  0  0
  191.6380  176.5390  138.7540 C   0  0  0  0  0  0  0  0  0  0  0  0
  189.8330  177.2810  140.2400 C   0  0  0  0  0  0  0  0  0  0  0  0
  190.9960  175.2670  136.6080 C   0  0  0  0  0  2  0  0  0  0  0  0
  192.2360  177.7310  140.8920 C   0  0  0  0  0  1  0  0  0  0  0  0
  189.3090  176.1460  138.1670 C   0  0  0  0  0  3  0  0  0  0  0  0
  191.0530  177.9560  144.8350 C   0  0  0  0  0  3  0  0  0  0  0  0
  190.8680  175.6620  144.0890 C   0  0  0  0  0  3  0  0  0  0  0  0
  189.9700  177.4570  142.7230 C   0  0  0  0  0  0  0  0  0  0  0  0
  190.2120  176.0920  142.9320 C   0  0  0  0  0  3  0  0  0  0  0  0
  191.2920  176.5910  145.0480 C   0  0  0  0  0  0  0  0  0  0  0  0
  190.3980  178.3860  143.6770 C   0  0  0  0  0  3  0  0  0  0  0  0
  192.5920  175.0320  146.2760 O   0  0  0  0  0  0  0  0  0  0  0  0
  191.9820  176.1340  146.2650 C   0  0  0  0  0  0  0  0  0  0  0  0
  191.9660  176.9140  147.4150 O   0  0  0  0  0  1  0  0  0  0  0  0
  187.8100  177.9130  141.5610 N   0  0  0  0  0  0  0  0  0  0  0  0
  186.8970  176.8610  143.4770 O   0  0  0  0  0  1  0  0  0  0  0  0
  187.3790  178.0680  142.9560 C   0  0  0  0  0  2  0  0  0  0  0  0
  185.8630  178.7880  140.7000 C   0  0  0  0  0  1  0  0  0  0  0  0
  187.2920  179.0070  140.8450 N   0  0  0  0  0  2  0  0  0  0  0  0
  1 24  1  1  0  0  0
  1 17  1  0  0  0  0
  2 11  1  0  0  0  0
  2 13  1  0  0  0  0
  3 14  2  0  0  0  0
  3 10  1  0  0  0  0
  4 10  1  0  0  0  0
  5  9  1  0  0  0  0
  6  8  1  0  0  0  0
  6  5  1  0  0  0  0
  7 11  2  0  0  0  0
  8 12  1  0  0  0  0
  9  4  1  0  0  0  0
 10  2  2  0  0  0  0
 11  1  1  0  0  0  0
 12  3  1  0  0  0  0
 14  7  1  0  0  0  0
 15 19  1  0  0  0  0
 16 19  2  0  0  0  0
 17 18  2  0  0  0  0
 17 20  1  0  0  0  0
 18 16  1  0  0  0  0
 19 22  1  0  0  0  0
 20 15  2  0  0  0  0
 22 21  2  0  0  0  0
 22 23  1  0  0  0  0
 24 26  1  0  0  0  0
 26 25  1  0  0  0  0
 27 28  1  0  0  0  0
 28 24  1  0  0  0  0
M  END
>  <MODEL>
5

>  <REMARK>
 VINA RESULT:      -7.1      3.320      6.806
  Name = 
  6 active torsions:
  status: ('A' for Active; 'I' for Inactive)
    1  A    between atoms: C_5  and  N_10
    2  A    between atoms: C_5  and  C_15
    3  A    between atoms: C_5  and  C_21
    4  A    between atoms: N_10  and  C_16
    5  A    between atoms: N_10  and  N_17
    6  A    between atoms: C_18  and  C_26
                            x       y       z     vdW  Elec       q    Type
                         _______ _______ _______ _____ _____    ______ ____

>  <TORSDO>
F 6

$$$$
=
 OpenBabel10232410033D

 28 30  0  0  1  0  0  0  0  0999 V2000
  189.7630  177.6630  140.2400 C   0  0  2  0  0  3  0  0  0  0  0  0
  187.6800  178.2420  141.6570 C   0  0  0  0  0  0  0  0  0  0  0  0
  187.4500  177.2270  143.8710 C   0  0  0  0  0  0  0  0  0  0  0  0
  185.7020  178.9160  143.0530 C   0  0  0  0  0  2  0  0  0  0  0  0
  184.3540  178.9740  144.7960 C   0  0  0  0  0  2  0  0  0  0  0  0
  184.9170  178.3470  146.0680 C   0  0  0  0  0  2  0  0  0  0  0  0
  189.3690  176.7090  142.4870 C   0  0  0  0  0  3  0  0  0  0  0  0
  186.4250  178.1530  145.9720 C   0  0  0  0  0  2  0  0  0  0  0  0
  184.6760  178.2010  143.6760 O   0  0  0  0  0  0  0  0  0  0  0  0
  186.9410  178.0780  142.8530 C   0  0  0  0  0  0  0  0  0  0  0  0
  188.8970  177.5430  141.4740 C   0  0  0  0  0  0  0  0  0  0  0  0
  186.7150  176.9140  145.1400 C   0  0  0  0  0  2  0  0  0  0  0  0
  187.1600  179.1530  140.5850 C   0  0  0  0  0  1  0  0  0  0  0  0
  188.6500  176.5480  143.6680 C   0  0  0  0  0  3  0  0  0  0  0  0
  188.1900  178.7440  136.9590 C   0  0  0  0  0  3  0  0  0  0  0  0
  187.3330  176.5490  137.5100 C   0  0  0  0  0  3  0  0  0  0  0  0
  188.9300  177.6330  138.9830 C   0  0  0  0  0  0  0  0  0  0  0  0
  188.1080  176.5400  138.6740 C   0  0  0  0  0  3  0  0  0  0  0  0
  187.3700  177.6500  136.6450 C   0  0  0  0  0  0  0  0  0  0  0  0
  188.9630  178.7350  138.1220 C   0  0  0  0  0  3  0  0  0  0  0  0
  186.8430  178.4200  134.4620 O   0  0  0  0  0  0  0  0  0  0  0  0
  186.5530  177.6550  135.4210 C   0  0  0  0  0  0  0  0  0  0  0  0
  185.4510  176.8150  135.3100 O   0  0  0  0  0  1  0  0  0  0  0  0
  190.8910  176.7120  140.2210 N   0  0  0  0  0  0  0  0  0  0  0  0
  191.2100  175.1380  138.4800 O   0  0  0  0  0  1  0  0  0  0  0  0
  191.3360  176.4850  138.8400 C   0  0  0  0  0  2  0  0  0  0  0  0
  193.0700  177.4100  139.9690 C   0  0  0  0  0  1  0  0  0  0  0  0
  191.9710  177.2910  140.9130 N   0  0  0  0  0  2  0  0  0  0  0  0
  1 24  1  6  0  0  0
  1 11  1  0  0  0  0
  2 10  1  0  0  0  0
  3 12  1  0  0  0  0
  4  9  1  0  0  0  0
  5  6  1  0  0  0  0
  7 14  2  0  0  0  0
  8  6  1  0  0  0  0
  9  5  1  0  0  0  0
 10  4  1  0  0  0  0
 10  3  2  0  0  0  0
 11  2  2  0  0  0  0
 11  7  1  0  0  0  0
 12  8  1  0  0  0  0
 13  2  1  0  0  0  0
 14  3  1  0  0  0  0
 15 20  1  0  0  0  0
 16 18  2  0  0  0  0
 17  1  1  0  0  0  0
 18 17  1  0  0  0  0
 19 15  2  0  0  0  0
 19 16  1  0  0  0  0
 20 17  2  0  0  0  0
 21 22  2  0  0  0  0
 22 19  1  0  0  0  0
 23 22  1  0  0  0  0
 24 28  1  0  0  0  0
 25 26  1  0  0  0  0
 26 24  1  0  0  0  0
 27 28  1  0  0  0  0
M  END
>  <MODEL>
6

>  <REMARK>
 VINA RESULT:      -7.0      4.081      7.342
  Name = 
  6 active torsions:
  status: ('A' for Active; 'I' for Inactive)
    1  A    between atoms: C_5  and  N_10
    2  A    between atoms: C_5  and  C_15
    3  A    between atoms: C_5  and  C_21
    4  A    between atoms: N_10  and  C_16
    5  A    between atoms: N_10  and  N_17
    6  A    between atoms: C_18  and  C_26
                            x       y       z     vdW  Elec       q    Type
                         _______ _______ _______ _____ _____    ______ ____

>  <TORSDO>
F 6

$$$$
=
 OpenBabel10232410033D

 28 30  0  0  1  0  0  0  0  0999 V2000
  183.5070  178.7030  139.1890 C   0  0  2  0  0  3  0  0  0  0  0  0
  184.8560  176.9960  137.7930 C   0  0  0  0  0  0  0  0  0  0  0  0
  184.0370  174.6950  137.6470 C   0  0  0  0  0  0  0  0  0  0  0  0
  186.1280  175.3920  136.3350 C   0  0  0  0  0  2  0  0  0  0  0  0
  186.6230  173.4930  135.3320 C   0  0  0  0  0  2  0  0  0  0  0  0
  185.5210  172.4390  135.3660 C   0  0  0  0  0  2  0  0  0  0  0  0
  182.8290  176.3360  138.9550 C   0  0  0  0  0  3  0  0  0  0  0  0
  184.1800  173.0490  135.7520 C   0  0  0  0  0  2  0  0  0  0  0  0
  186.7220  174.1490  136.5640 O   0  0  0  0  0  0  0  0  0  0  0  0
  185.0070  175.6760  137.3060 C   0  0  0  0  0  0  0  0  0  0  0  0
  183.7620  177.3210  138.6310 C   0  0  0  0  0  0  0  0  0  0  0  0
  184.1400  173.2500  137.2580 C   0  0  0  0  0  2  0  0  0  0  0  0
  185.8650  178.0420  137.4230 C   0  0  0  0  0  1  0  0  0  0  0  0
  182.9690  175.0390  138.4740 C   0  0  0  0  0  3  0  0  0  0  0  0
  185.4430  178.8270  142.4520 C   0  0  0  0  0  3  0  0  0  0  0  0
  183.0830  178.7890  142.9850 C   0  0  0  0  0  3  0  0  0  0  0  0
  183.8030  178.7610  140.6660 C   0  0  0  0  0  0  0  0  0  0  0  0
  182.7760  178.7550  141.6210 C   0  0  0  0  0  3  0  0  0  0  0  0
  184.4180  178.8270  143.4080 C   0  0  0  0  0  0  0  0  0  0  0  0
  185.1360  178.7920  141.0890 C   0  0  0  0  0  3  0  0  0  0  0  0
  185.9190  178.6910  145.2420 O   0  0  0  0  0  0  0  0  0  0  0  0
  184.7350  178.8640  144.8450 C   0  0  0  0  0  0  0  0  0  0  0  0
  183.7310  179.0890  145.7790 O   0  0  0  0  0  1  0  0  0  0  0  0
  182.1800  179.2420  138.8340 N   0  0  0  0  0  0  0  0  0  0  0  0
  183.5190  181.1960  138.8440 O   0  0  0  0  0  1  0  0  0  0  0  0
  182.2060  180.7100  138.8650 C   0  0  0  0  0  2  0  0  0  0  0  0
  180.6680  179.5570  137.1270 C   0  0  0  0  0  1  0  0  0  0  0  0
  181.8850  178.8620  137.5120 N   0  0  0  0  0  2  0  0  0  0  0  0
  1 24  1  1  0  0  0
  1 17  1  0  0  0  0
  2 11  1  0  0  0  0
  3 14  2  0  0  0  0
  4  9  1  0  0  0  0
  4 10  1  0  0  0  0
  5  6  1  0  0  0  0
  5  9  1  0  0  0  0
  6  8  1  0  0  0  0
  8 12  1  0  0  0  0
 10  3  1  0  0  0  0
 10  2  2  0  0  0  0
 11  7  2  0  0  0  0
 11  1  1  0  0  0  0
 12  3  1  0  0  0  0
 13  2  1  0  0  0  0
 14  7  1  0  0  0  0
 15 19  1  0  0  0  0
 16 19  2  0  0  0  0
 17 20  1  0  0  0  0
 17 18  2  0  0  0  0
 18 16  1  0  0  0  0
 19 22  1  0  0  0  0
 20 15  2  0  0  0  0
 22 21  2  0  0  0  0
 22 23  1  0  0  0  0
 24 26  1  0  0  0  0
 25 26  1  0  0  0  0
 27 28  1  0  0  0  0
 28 24  1  0  0  0  0
M  END
>  <MODEL>
7

>  <REMARK>
 VINA RESULT:      -6.9      6.025      9.048
  Name = 
  6 active torsions:
  status: ('A' for Active; 'I' for Inactive)
    1  A    between atoms: C_5  and  N_10
    2  A    between atoms: C_5  and  C_15
    3  A    between atoms: C_5  and  C_21
    4  A    between atoms: N_10  and  C_16
    5  A    between atoms: N_10  and  N_17
    6  A    between atoms: C_18  and  C_26
                            x       y       z     vdW  Elec       q    Type
                         _______ _______ _______ _____ _____    ______ ____

>  <TORSDO>
F 6

$$$$
=
 OpenBabel10232410033D

 28 30  0  0  1  0  0  0  0  0999 V2000
  188.5540  177.3800  138.0000 C   0  0  2  0  0  3  0  0  0  0  0  0
  188.6060  177.6260  140.5730 C   0  0  0  0  0  0  0  0  0  0  0  0
  190.7110  177.2090  141.7470 C   0  0  0  0  0  0  0  0  0  0  0  0
  188.6500  177.9880  143.0590 C   0  0  0  0  0  2  0  0  0  0  0  0
  189.4820  178.0760  145.0990 C   0  0  0  0  0  2  0  0  0  0  0  0
  191.0040  178.0140  145.1770 C   0  0  0  0  0  2  0  0  0  0  0  0
  190.5940  176.9750  139.3400 C   0  0  0  0  0  3  0  0  0  0  0  0
  191.6420  178.2840  143.8210 C   0  0  0  0  0  2  0  0  0  0  0  0
  188.9960  177.1770  144.1430 O   0  0  0  0  0  0  0  0  0  0  0  0
  189.3350  177.5590  141.7840 C   0  0  0  0  0  0  0  0  0  0  0  0
  189.2430  177.3220  139.3450 C   0  0  0  0  0  0  0  0  0  0  0  0
  191.5580  177.0260  142.9720 C   0  0  0  0  0  2  0  0  0  0  0  0
  187.1570  178.0130  140.6000 C   0  0  0  0  0  1  0  0  0  0  0  0
  191.3160  176.9130  140.5270 C   0  0  0  0  0  3  0  0  0  0  0  0
  186.4350  174.4440  136.8610 C   0  0  0  0  0  3  0  0  0  0  0  0
  188.7440  173.7230  136.9090 C   0  0  0  0  0  3  0  0  0  0  0  0
  188.1720  176.0010  137.5220 C   0  0  0  0  0  0  0  0  0  0  0  0
  189.1320  174.9970  137.3350 C   0  0  0  0  0  3  0  0  0  0  0  0
  187.3940  173.4390  136.6680 C   0  0  0  0  0  0  0  0  0  0  0  0
  186.8230  175.7160  137.2880 C   0  0  0  0  0  3  0  0  0  0  0  0
  187.8570  171.2050  136.0150 O   0  0  0  0  0  1  0  0  0  0  0  0
  186.9910  172.0970  136.2190 C   0  0  0  0  0  0  0  0  0  0  0  0
  185.6480  171.7990  136.0150 O   0  0  0  0  0  0  0  0  0  0  0  0
  189.2970  178.1650  136.9950 N   0  0  0  0  0  0  0  0  0  0  0  0
  190.1260  177.2880  134.9570 O   0  0  0  0  0  1  0  0  0  0  0  0
  188.9740  177.6900  135.6440 C   0  0  0  0  0  2  0  0  0  0  0  0
  187.4850  179.5400  136.6390 C   0  0  0  0  0  1  0  0  0  0  0  0
  188.8710  179.5030  137.0750 N   0  0  0  0  0  2  0  0  0  0  0  0
  1 24  1  6  0  0  0
  1 11  1  0  0  0  0
  2 13  1  0  0  0  0
  2 10  1  0  0  0  0
  3 10  2  0  0  0  0
  3 12  1  0  0  0  0
  4  9  1  0  0  0  0
  5  6  1  0  0  0  0
  7 11  1  0  0  0  0
  7 14  2  0  0  0  0
  8  6  1  0  0  0  0
  9  5  1  0  0  0  0
 10  4  1  0  0  0  0
 11  2  2  0  0  0  0
 12  8  1  0  0  0  0
 14  3  1  0  0  0  0
 15 20  1  0  0  0  0
 16 18  2  0  0  0  0
 17  1  1  0  0  0  0
 18 17  1  0  0  0  0
 19 15  2  0  0  0  0
 19 16  1  0  0  0  0
 20 17  2  0  0  0  0
 21 22  1  0  0  0  0
 22 19  1  0  0  0  0
 23 22  2  0  0  0  0
 24 28  1  0  0  0  0
 25 26  1  0  0  0  0
 26 24  1  0  0  0  0
 27 28  1  0  0  0  0
M  END
>  <MODEL>
8

>  <REMARK>
 VINA RESULT:      -6.8      4.993      8.655
  Name = 
  6 active torsions:
  status: ('A' for Active; 'I' for Inactive)
    1  A    between atoms: C_5  and  N_10
    2  A    between atoms: C_5  and  C_15
    3  A    between atoms: C_5  and  C_21
    4  A    between atoms: N_10  and  C_16
    5  A    between atoms: N_10  and  N_17
    6  A    between atoms: C_18  and  C_26
                            x       y       z     vdW  Elec       q    Type
                         _______ _______ _______ _____ _____    ______ ____

>  <TORSDO>
F 6

$$$$
=
 OpenBabel10232410033D

 28 30  0  0  1  0  0  0  0  0999 V2000
  189.7210  176.7260  141.9550 C   0  0  2  0  0  3  0  0  0  0  0  0
  187.5040  177.3270  143.1400 C   0  0  0  0  0  0  0  0  0  0  0  0
  185.8820  178.7200  141.9530 C   0  0  0  0  0  0  0  0  0  0  0  0
  185.3120  177.7950  144.2760 C   0  0  0  0  0  2  0  0  0  0  0  0
  183.2830  178.6130  144.5470 C   0  0  0  0  0  2  0  0  0  0  0  0
  182.6350  179.1640  143.2800 C   0  0  0  0  0  2  0  0  0  0  0  0
  187.9850  178.1400  140.9040 C   0  0  0  0  0  3  0  0  0  0  0  0
  183.3680  178.6930  142.0310 C   0  0  0  0  0  2  0  0  0  0  0  0
  184.6340  178.9700  144.6110 O   0  0  0  0  0  0  0  0  0  0  0  0
  186.2550  177.9920  143.1140 C   0  0  0  0  0  0  0  0  0  0  0  0
  188.3760  177.4120  142.0280 C   0  0  0  0  0  0  0  0  0  0  0  0
  184.6240  179.5300  141.8460 C   0  0  0  0  0  2  0  0  0  0  0  0
  187.8990  176.5410  144.3550 C   0  0  0  0  0  1  0  0  0  0  0  0
  186.7570  178.7910  140.8700 C   0  0  0  0  0  3  0  0  0  0  0  0
  191.5960  175.4050  144.9800 C   0  0  0  0  0  3  0  0  0  0  0  0
  190.9900  177.7050  145.4230 C   0  0  0  0  0  3  0  0  0  0  0  0
  190.3850  176.6780  143.3090 C   0  0  0  0  0  0  0  0  0  0  0  0
  190.3840  177.7870  144.1670 C   0  0  0  0  0  3  0  0  0  0  0  0
  191.6020  176.5140  145.8370 C   0  0  0  0  0  0  0  0  0  0  0  0
  190.9890  175.4870  143.7240 C   0  0  0  0  0  3  0  0  0  0  0  0
  191.9770  177.2870  148.0490 O   0  0  0  0  0  1  0  0  0  0  0  0
  192.2390  176.4330  147.1610 C   0  0  0  0  0  0  0  0  0  0  0  0
  193.1400  175.4130  147.4440 O   0  0  0  0  0  0  0  0  0  0  0  0
  190.5950  177.2610  140.8920 N   0  0  0  0  0  0  0  0  0  0  0  0
  192.9530  177.1320  140.7200 O   0  0  0  0  0  1  0  0  0  0  0  0
  191.8890  177.6640  141.4570 C   0  0  0  0  0  2  0  0  0  0  0  0
  190.4100  176.7040  138.6660 C   0  0  0  0  0  1  0  0  0  0  0  0
  190.8500  176.2310  139.9680 N   0  0  0  0  0  2  0  0  0  0  0  0
  1 24  1  6  0  0  0
  1 11  1  0  0  0  0
  1 17  1  0  0  0  0
  2 13  1  0  0  0  0
  3 10  2  0  0  0  0
  4  9  1  0  0  0  0
  5  9  1  0  0  0  0
  6  5  1  0  0  0  0
  7 11  1  0  0  0  0
  8  6  1  0  0  0  0
 10  2  1  0  0  0  0
 10  4  1  0  0  0  0
 11  2  2  0  0  0  0
 12  3  1  0  0  0  0
 12  8  1  0  0  0  0
 14  7  2  0  0  0  0
 14  3  1  0  0  0  0
 15 19  1  0  0  0  0
 16 19  2  0  0  0  0
 17 20  1  0  0  0  0
 17 18  2  0  0  0  0
 18 16  1  0  0  0  0
 19 22  1  0  0  0  0
 20 15  2  0  0  0  0
 22 23  2  0  0  0  0
 22 21  1  0  0  0  0
 24 26  1  0  0  0  0
 25 26  1  0  0  0  0
 27 28  1  0  0  0  0
 28 24  1  0  0  0  0
M  END
>  <MODEL>
9

>  <REMARK>
 VINA RESULT:      -6.7      1.661      2.678
  Name = 
  6 active torsions:
  status: ('A' for Active; 'I' for Inactive)
    1  A    between atoms: C_5  and  N_10
    2  A    between atoms: C_5  and  C_15
    3  A    between atoms: C_5  and  C_21
    4  A    between atoms: N_10  and  C_16
    5  A    between atoms: N_10  and  N_17
    6  A    between atoms: C_18  and  C_26
                            x       y       z     vdW  Elec       q    Type
                         _______ _______ _______ _____ _____    ______ ____

>  <TORSDO>
F 6

$$$$
