=
 OpenBabel10232408383D

 28 31  0  0  1  0  0  0  0  0999 V2000
  189.3000  177.1910  139.9070 C   0  0  0  0  0  0  0  0  0  0  0  0
  187.8710  178.5570  141.2090 O   0  0  0  0  0  1  0  0  0  0  0  0
  188.9900  177.7350  141.0940 C   0  0  0  0  0  0  0  0  0  0  0  0
  187.1200  176.8020  135.7170 C   0  0  0  0  0  2  0  0  0  0  0  0
  186.8900  176.2650  137.1330 C   0  0  0  0  0  2  0  0  0  0  0  0
  188.4020  177.4410  138.7260 C   0  0  0  0  0  3  0  0  0  0  0  0
  188.0080  178.9630  136.7330 C   0  0  0  0  0  2  0  0  0  0  0  0
  188.1740  176.1500  137.9430 C   0  0  0  0  0  2  0  0  0  0  0  0
  188.9540  178.5770  137.8630 C   0  0  0  0  0  2  0  0  0  0  0  0
  188.1260  177.9500  135.6030 C   0  0  0  0  0  2  0  0  0  0  0  0
  189.5720  176.1760  142.9670 C   0  0  0  0  0  2  0  0  0  0  0  0
  189.6630  177.7180  144.8630 N   0  0  0  0  0  0  0  0  0  0  0  0
  187.5720  177.4100  143.7920 C   0  0  0  0  0  3  0  0  0  0  0  0
  187.4680  177.6440  145.0950 C   0  0  0  0  0  0  0  0  0  0  0  0
  189.0430  177.4460  143.5870 C   0  0  2  0  0  0  0  0  0  0  0  0
  188.7370  177.8320  145.7240 N   0  0  0  0  0  0  0  0  0  0  0  0
  189.8610  177.5250  142.3050 C   0  0  2  0  0  3  0  0  0  0  0  0
  186.1710  177.7440  145.8240 C   0  0  0  0  0  2  0  0  0  0  0  0
  184.0270  178.8490  145.1780 C   0  0  0  0  0  1  0  0  0  0  0  0
  185.4850  179.0700  145.5350 C   0  0  0  0  0  2  0  0  0  0  0  0
  190.4790  176.3850  139.7750 N   0  0  0  0  0  2  0  0  0  0  0  0
  191.6720  176.8880  139.2390 N   0  0  0  0  0  2  0  0  0  0  0  0
  193.3810  175.2190  135.7940 N   0  0  0  0  0  0  0  0  0  0  0  0
  193.5770  175.8290  138.0950 C   0  0  0  0  0  3  0  0  0  0  0  0
  192.1050  175.6880  135.7500 C   0  0  0  0  0  3  0  0  0  0  0  0
  191.5240  176.2460  136.8910 C   0  0  0  0  0  3  0  0  0  0  0  0
  194.1220  175.2780  136.9340 C   0  0  0  0  0  3  0  0  0  0  0  0
  192.2650  176.3180  138.0720 C   0  0  0  0  0  0  0  0  0  0  0  0
  1  3  2  0  0  0  0
  3  2  1  0  0  0  0
  4  5  1  0  0  0  0
  5  8  1  0  0  0  0
  6  1  1  0  0  0  0
  7  9  1  0  0  0  0
  8  6  1  0  0  0  0
  9  6  1  0  0  0  0
 10  4  1  0  0  0  0
 10  7  1  0  0  0  0
 12 16  2  0  0  0  0
 13 14  2  0  0  0  0
 14 16  1  0  0  0  0
 14 18  1  0  0  0  0
 15 11  1  1  0  0  0
 15 13  1  0  0  0  0
 15 12  1  0  0  0  0
 17  3  1  6  0  0  0
 17 11  1  0  0  0  0
 17 15  1  0  0  0  0
 19 20  1  0  0  0  0
 20 18  1  0  0  0  0
 21  1  1  0  0  0  0
 22 21  1  0  0  0  0
 23 27  1  0  0  0  0
 25 23  2  0  0  0  0
 25 26  1  0  0  0  0
 26 28  2  0  0  0  0
 27 24  2  0  0  0  0
 28 24  1  0  0  0  0
 28 22  1  0  0  0  0
M  END
>  <MODEL>
1

>  <REMARK>
 VINA RESULT:      -7.4      0.000      0.000
  Name = 
  7 active torsions:
  status: ('A' for Active; 'I' for Inactive)
    1  A    between atoms: N_2  and  N_15
    2  A    between atoms: N_2  and  C_25
    3  A    between atoms: C_7  and  C_25
    4  A    between atoms: C_13  and  C_14
    5  A    between atoms: C_13  and  C_27
    6  A    between atoms: N_15  and  C_19
    7  A    between atoms: C_22  and  C_28
                            x       y       z     vdW  Elec       q    Type
                         _______ _______ _______ _____ _____    ______ ____

>  <TORSDO>
F 7

$$$$
=
 OpenBabel10232408383D

 28 31  0  0  1  0  0  0  0  0999 V2000
  185.1770  178.7870  141.7750 C   0  0  0  0  0  0  0  0  0  0  0  0
  182.8390  178.4150  141.7870 O   0  0  0  0  0  1  0  0  0  0  0  0
  183.9980  178.8310  141.1350 C   0  0  0  0  0  0  0  0  0  0  0  0
  185.4000  178.7570  146.5080 C   0  0  0  0  0  2  0  0  0  0  0  0
  184.2900  178.8590  145.4580 C   0  0  0  0  0  2  0  0  0  0  0  0
  185.2210  178.3320  143.2080 C   0  0  0  0  0  3  0  0  0  0  0  0
  186.6590  177.1790  144.9530 C   0  0  0  0  0  2  0  0  0  0  0  0
  184.7690  179.4530  144.1410 C   0  0  0  0  0  2  0  0  0  0  0  0
  186.6050  177.7830  143.5560 C   0  0  0  0  0  2  0  0  0  0  0  0
  186.7620  178.2930  145.9840 C   0  0  0  0  0  2  0  0  0  0  0  0
  182.4960  179.0340  139.1400 C   0  0  0  0  0  2  0  0  0  0  0  0
  183.9480  178.1920  137.3610 N   0  0  0  0  0  2  0  0  0  0  0  0
  183.3040  176.6790  139.0660 C   0  0  0  0  0  2  0  0  0  0  0  0
  183.4600  176.1020  137.8800 C   0  0  0  0  0  0  0  0  0  0  0  0
  183.6200  178.0990  138.7640 C   0  0  2  0  0  0  0  0  0  0  0  0
  183.8530  177.0280  136.8650 N   0  0  0  0  0  0  0  0  0  0  0  0
  183.9020  179.2690  139.6970 C   0  0  2  0  0  3  0  0  0  0  0  0
  183.2880  174.6410  137.6340 C   0  0  0  0  0  2  0  0  0  0  0  0
  185.0440  172.8720  137.7570 C   0  0  0  0  0  1  0  0  0  0  0  0
  184.5190  174.0540  136.9630 C   0  0  0  0  0  2  0  0  0  0  0  0
  186.3790  179.1680  141.0890 N   0  0  0  0  0  2  0  0  0  0  0  0
  186.8510  178.4730  139.9670 N   0  0  0  0  0  2  0  0  0  0  0  0
  190.8300  177.1940  139.6570 N   0  0  0  0  0  0  0  0  0  0  0  0
  188.9440  177.7230  141.0230 C   0  0  0  0  0  3  0  0  0  0  0  0
  190.1330  177.4940  138.5290 C   0  0  0  0  0  3  0  0  0  0  0  0
  188.8060  177.9210  138.6180 C   0  0  0  0  0  3  0  0  0  0  0  0
  190.2680  177.2990  140.8920 C   0  0  0  0  0  3  0  0  0  0  0  0
  188.2060  178.0380  139.8750 C   0  0  0  0  0  0  0  0  0  0  0  0
  1  6  1  0  0  0  0
  3  1  2  0  0  0  0
  3  2  1  0  0  0  0
  5  4  1  0  0  0  0
  6  9  1  0  0  0  0
  6  8  1  0  0  0  0
  7 10  1  0  0  0  0
  8  5  1  0  0  0  0
  9  7  1  0  0  0  0
 10  4  1  0  0  0  0
 11 17  1  0  0  0  0
 12 15  1  0  0  0  0
 14 13  1  0  0  0  0
 15 13  1  1  0  0  0
 15 11  1  0  0  0  0
 15 17  1  0  0  0  0
 16 12  1  0  0  0  0
 16 14  2  0  0  0  0
 17  3  1  1  0  0  0
 18 14  1  0  0  0  0
 20 18  1  0  0  0  0
 20 19  1  0  0  0  0
 21  1  1  0  0  0  0
 22 21  1  0  0  0  0
 23 27  1  0  0  0  0
 25 26  1  0  0  0  0
 25 23  2  0  0  0  0
 26 28  2  0  0  0  0
 27 24  2  0  0  0  0
 28 22  1  0  0  0  0
 28 24  1  0  0  0  0
M  END
>  <MODEL>
2

>  <REMARK>
 VINA RESULT:      -7.3      3.606      7.421
  Name = 
  7 active torsions:
  status: ('A' for Active; 'I' for Inactive)
    1  A    between atoms: N_2  and  N_15
    2  A    between atoms: N_2  and  C_25
    3  A    between atoms: C_7  and  C_25
    4  A    between atoms: C_13  and  C_14
    5  A    between atoms: C_13  and  C_27
    6  A    between atoms: N_15  and  C_19
    7  A    between atoms: C_22  and  C_28
                            x       y       z     vdW  Elec       q    Type
                         _______ _______ _______ _____ _____    ______ ____

>  <TORSDO>
F 7

$$$$
=
 OpenBabel10232408383D

 28 31  0  0  1  0  0  0  0  0999 V2000
  185.8290  178.4030  141.9040 C   0  0  0  0  0  0  0  0  0  0  0  0
  186.3660  177.2260  143.8870 O   0  0  0  0  0  1  0  0  0  0  0  0
  186.7580  177.8840  142.7230 C   0  0  0  0  0  0  0  0  0  0  0  0
  181.1070  178.8030  141.9090 C   0  0  0  0  0  2  0  0  0  0  0  0
  182.1410  177.9550  141.1610 C   0  0  0  0  0  2  0  0  0  0  0  0
  184.3730  178.2230  142.2350 C   0  0  0  0  0  3  0  0  0  0  0  0
  182.5900  178.6960  143.9780 C   0  0  0  0  0  2  0  0  0  0  0  0
  183.4990  178.6320  141.0500 C   0  0  0  0  0  2  0  0  0  0  0  0
  184.0200  178.9640  143.5250 C   0  0  0  0  0  2  0  0  0  0  0  0
  181.6290  179.5350  143.1490 C   0  0  0  0  0  2  0  0  0  0  0  0
  188.9630  176.7080  142.5600 C   0  0  0  0  0  2  0  0  0  0  0  0
  190.4200  178.2520  143.7760 N   0  0  0  0  0  2  0  0  0  0  0  0
  188.6930  177.1760  144.9910 C   0  0  0  0  0  2  0  0  0  0  0  0
  189.7830  177.4060  145.7140 C   0  0  0  0  0  0  0  0  0  0  0  0
  189.0780  177.7270  143.6660 C   0  0  2  0  0  0  0  0  0  0  0  0
  190.8120  178.0590  144.9680 N   0  0  0  0  0  0  0  0  0  0  0  0
  188.2290  178.0450  142.4430 C   0  0  2  0  0  3  0  0  0  0  0  0
  189.9130  177.0620  147.1600 C   0  0  0  0  0  2  0  0  0  0  0  0
  188.2560  178.1530  148.6770 C   0  0  0  0  0  1  0  0  0  0  0  0
  188.5460  176.9380  147.8130 C   0  0  0  0  0  2  0  0  0  0  0  0
  186.2320  179.1240  140.7310 N   0  0  0  0  0  2  0  0  0  0  0  0
  186.1450  178.5690  139.4460 N   0  0  0  0  0  2  0  0  0  0  0  0
  189.5080  177.0840  137.4330 N   0  0  0  0  0  0  0  0  0  0  0  0
  188.5870  178.4350  139.1750 C   0  0  0  0  0  3  0  0  0  0  0  0
  188.2640  176.7180  137.0220 C   0  0  0  0  0  3  0  0  0  0  0  0
  187.1360  177.2050  137.6840 C   0  0  0  0  0  3  0  0  0  0  0  0
  189.6910  177.9260  138.4870 C   0  0  0  0  0  3  0  0  0  0  0  0
  187.2980  178.0710  138.7690 C   0  0  0  0  0  0  0  0  0  0  0  0
  1  6  1  0  0  0  0
  1  3  2  0  0  0  0
  3  2  1  0  0  0  0
  4 10  1  0  0  0  0
  5  4  1  0  0  0  0
  6  9  1  0  0  0  0
  8  5  1  0  0  0  0
  8  6  1  0  0  0  0
  9  7  1  0  0  0  0
 10  7  1  0  0  0  0
 12 16  1  0  0  0  0
 13 14  1  0  0  0  0
 14 18  1  0  0  0  0
 15 11  1  6  0  0  0
 15 12  1  0  0  0  0
 15 13  1  0  0  0  0
 16 14  2  0  0  0  0
 17 11  1  0  0  0  0
 17  3  1  1  0  0  0
 17 15  1  0  0  0  0
 18 20  1  0  0  0  0
 20 19  1  0  0  0  0
 21  1  1  0  0  0  0
 22 21  1  0  0  0  0
 23 27  1  0  0  0  0
 25 23  2  0  0  0  0
 25 26  1  0  0  0  0
 26 28  2  0  0  0  0
 27 24  2  0  0  0  0
 28 24  1  0  0  0  0
 28 22  1  0  0  0  0
M  END
>  <MODEL>
3

>  <REMARK>
 VINA RESULT:      -7.2      2.759      5.204
  Name = 
  7 active torsions:
  status: ('A' for Active; 'I' for Inactive)
    1  A    between atoms: N_2  and  N_15
    2  A    between atoms: N_2  and  C_25
    3  A    between atoms: C_7  and  C_25
    4  A    between atoms: C_13  and  C_14
    5  A    between atoms: C_13  and  C_27
    6  A    between atoms: N_15  and  C_19
    7  A    between atoms: C_22  and  C_28
                            x       y       z     vdW  Elec       q    Type
                         _______ _______ _______ _____ _____    ______ ____

>  <TORSDO>
F 7

$$$$
=
 OpenBabel10232408383D

 28 31  0  0  1  0  0  0  0  0999 V2000
  189.5130  177.9100  141.4530 C   0  0  0  0  0  0  0  0  0  0  0  0
  191.1740  177.4670  139.8260 O   0  0  0  0  0  1  0  0  0  0  0  0
  189.8680  177.8160  140.1620 C   0  0  0  0  0  0  0  0  0  0  0  0
  191.6970  175.9480  145.1730 C   0  0  0  0  0  2  0  0  0  0  0  0
  191.6090  175.6630  143.6710 C   0  0  0  0  0  2  0  0  0  0  0  0
  190.5230  177.5880  142.5200 C   0  0  0  0  0  3  0  0  0  0  0  0
  191.5950  178.4410  144.6570 C   0  0  0  0  0  2  0  0  0  0  0  0
  190.3180  176.1680  143.0430 C   0  0  0  0  0  2  0  0  0  0  0  0
  190.4930  178.6450  143.6250 C   0  0  0  0  0  2  0  0  0  0  0  0
  191.1950  177.3260  145.6130 C   0  0  0  0  0  2  0  0  0  0  0  0
  188.1810  176.8790  138.5660 C   0  0  0  0  0  2  0  0  0  0  0  0
  188.8100  178.0070  136.4880 N   0  0  0  0  0  2  0  0  0  0  0  0
  190.3710  176.5000  137.4410 C   0  0  0  0  0  2  0  0  0  0  0  0
  190.4130  176.5350  136.1130 C   0  0  0  0  0  0  0  0  0  0  0  0
  189.2940  177.4790  137.7420 C   0  0  2  0  0  0  0  0  0  0  0  0
  189.4690  177.4510  135.5570 N   0  0  0  0  0  0  0  0  0  0  0  0
  188.8980  178.1380  139.0560 C   0  0  2  0  0  3  0  0  0  0  0  0
  191.3670  175.7400  135.2880 C   0  0  0  0  0  2  0  0  0  0  0  0
  193.7720  176.1120  135.8460 C   0  0  0  0  0  1  0  0  0  0  0  0
  192.5440  175.2640  136.1250 C   0  0  0  0  0  2  0  0  0  0  0  0
  188.1830  178.3180  141.8020 N   0  0  0  0  0  2  0  0  0  0  0  0
  187.2750  177.4510  142.4270 N   0  0  0  0  0  2  0  0  0  0  0  0
  185.5100  178.4080  146.1060 N   0  0  0  0  0  0  0  0  0  0  0  0
  187.2890  177.3830  144.8860 C   0  0  0  0  0  3  0  0  0  0  0  0
  184.9030  178.7940  144.9510 C   0  0  0  0  0  3  0  0  0  0  0  0
  185.4810  178.4820  143.7180 C   0  0  0  0  0  3  0  0  0  0  0  0
  186.6800  177.7150  146.0990 C   0  0  0  0  0  3  0  0  0  0  0  0
  186.6830  177.7710  143.6850 C   0  0  0  0  0  0  0  0  0  0  0  0
  1 21  1  0  0  0  0
  1  6  1  0  0  0  0
  2  3  1  0  0  0  0
  3  1  2  0  0  0  0
  4 10  1  0  0  0  0
  5  4  1  0  0  0  0
  6  8  1  0  0  0  0
  6  9  1  0  0  0  0
  7 10  1  0  0  0  0
  8  5  1  0  0  0  0
  9  7  1  0  0  0  0
 11 17  1  0  0  0  0
 12 15  1  0  0  0  0
 14 13  1  0  0  0  0
 15 13  1  6  0  0  0
 15 11  1  0  0  0  0
 15 17  1  0  0  0  0
 16 14  2  0  0  0  0
 16 12  1  0  0  0  0
 17  3  1  1  0  0  0
 18 14  1  0  0  0  0
 18 20  1  0  0  0  0
 19 20  1  0  0  0  0
 21 22  1  0  0  0  0
 22 28  1  0  0  0  0
 24 27  2  0  0  0  0
 25 23  2  0  0  0  0
 26 25  1  0  0  0  0
 27 23  1  0  0  0  0
 28 26  2  0  0  0  0
 28 24  1  0  0  0  0
M  END
>  <MODEL>
4

>  <REMARK>
 VINA RESULT:      -7.2      2.205      8.633
  Name = 
  7 active torsions:
  status: ('A' for Active; 'I' for Inactive)
    1  A    between atoms: N_2  and  N_15
    2  A    between atoms: N_2  and  C_25
    3  A    between atoms: C_7  and  C_25
    4  A    between atoms: C_13  and  C_14
    5  A    between atoms: C_13  and  C_27
    6  A    between atoms: N_15  and  C_19
    7  A    between atoms: C_22  and  C_28
                            x       y       z     vdW  Elec       q    Type
                         _______ _______ _______ _____ _____    ______ ____

>  <TORSDO>
F 7

$$$$
=
 OpenBabel10232408383D

 28 31  0  0  1  0  0  0  0  0999 V2000
  188.3640  177.7340  141.5360 C   0  0  0  0  0  0  0  0  0  0  0  0
  188.1920  178.7860  139.4220 O   0  0  0  0  0  1  0  0  0  0  0  0
  188.8810  177.9740  140.3200 C   0  0  0  0  0  0  0  0  0  0  0  0
  184.0870  178.5410  143.4110 C   0  0  0  0  0  2  0  0  0  0  0  0
  185.5400  178.7030  143.8690 C   0  0  0  0  0  2  0  0  0  0  0  0
  187.0660  178.3880  141.9260 C   0  0  0  0  0  3  0  0  0  0  0  0
  184.8140  179.1630  141.0500 C   0  0  0  0  0  2  0  0  0  0  0  0
  186.4930  177.7360  143.1820 C   0  0  0  0  0  2  0  0  0  0  0  0
  186.0890  178.3860  140.7490 C   0  0  0  0  0  2  0  0  0  0  0  0
  183.8910  178.3120  141.9100 C   0  0  0  0  0  2  0  0  0  0  0  0
  190.5200  177.7320  138.4410 C   0  0  0  0  0  2  0  0  0  0  0  0
  190.9250  175.3200  138.4670 N   0  0  0  0  0  2  0  0  0  0  0  0
  188.7420  176.0660  137.9260 C   0  0  0  0  0  2  0  0  0  0  0  0
  189.0880  174.9470  137.2990 C   0  0  0  0  0  0  0  0  0  0  0  0
  189.9580  176.3620  138.7270 C   0  0  2  0  0  0  0  0  0  0  0  0
  190.4050  174.5100  137.6400 N   0  0  0  0  0  0  0  0  0  0  0  0
  190.1710  177.3360  139.8770 C   0  0  2  0  0  3  0  0  0  0  0  0
  188.1910  174.1990  136.3720 C   0  0  0  0  0  2  0  0  0  0  0  0
  186.3150  172.8720  137.3470 C   0  0  0  0  0  1  0  0  0  0  0  0
  187.7850  172.8610  136.9690 C   0  0  0  0  0  2  0  0  0  0  0  0
  189.0470  176.8590  142.4440 N   0  0  0  0  0  2  0  0  0  0  0  0
  190.2100  177.2460  143.1230 N   0  0  0  0  0  2  0  0  0  0  0  0
  190.5330  176.8440  147.2830 N   0  0  0  0  0  0  0  0  0  0  0  0
  191.5270  176.6610  145.1180 C   0  0  0  0  0  3  0  0  0  0  0  0
  189.3630  177.2760  146.7400 C   0  0  0  0  0  3  0  0  0  0  0  0
  189.2430  177.4150  145.3550 C   0  0  0  0  0  3  0  0  0  0  0  0
  191.6070  176.5360  146.5070 C   0  0  0  0  0  3  0  0  0  0  0  0
  190.3320  177.1050  144.5380 C   0  0  0  0  0  0  0  0  0  0  0  0
  1  6  1  0  0  0  0
  1 21  1  0  0  0  0
  2  3  1  0  0  0  0
  3  1  2  0  0  0  0
  4  5  1  0  0  0  0
  6  8  1  0  0  0  0
  7 10  1  0  0  0  0
  8  5  1  0  0  0  0
  9  7  1  0  0  0  0
  9  6  1  0  0  0  0
 10  4  1  0  0  0  0
 11 15  1  0  0  0  0
 11 17  1  0  0  0  0
 12 15  1  0  0  0  0
 14 16  2  0  0  0  0
 14 13  1  0  0  0  0
 15 13  1  6  0  0  0
 15 17  1  0  0  0  0
 16 12  1  0  0  0  0
 17  3  1  6  0  0  0
 18 20  1  0  0  0  0
 18 14  1  0  0  0  0
 20 19  1  0  0  0  0
 21 22  1  0  0  0  0
 22 28  1  0  0  0  0
 24 27  1  0  0  0  0
 25 23  1  0  0  0  0
 26 25  2  0  0  0  0
 27 23  2  0  0  0  0
 28 24  2  0  0  0  0
 28 26  1  0  0  0  0
M  END
>  <MODEL>
5

>  <REMARK>
 VINA RESULT:      -7.1      2.389      7.262
  Name = 
  7 active torsions:
  status: ('A' for Active; 'I' for Inactive)
    1  A    between atoms: N_2  and  N_15
    2  A    between atoms: N_2  and  C_25
    3  A    between atoms: C_7  and  C_25
    4  A    between atoms: C_13  and  C_14
    5  A    between atoms: C_13  and  C_27
    6  A    between atoms: N_15  and  C_19
    7  A    between atoms: C_22  and  C_28
                            x       y       z     vdW  Elec       q    Type
                         _______ _______ _______ _____ _____    ______ ____

>  <TORSDO>
F 7

$$$$
=
 OpenBabel10232408383D

 28 31  0  0  1  0  0  0  0  0999 V2000
  187.3940  177.8600  142.5050 C   0  0  0  0  0  0  0  0  0  0  0  0
  186.7410  179.0520  140.5670 O   0  0  0  0  0  1  0  0  0  0  0  0
  187.5940  178.1590  141.2120 C   0  0  0  0  0  0  0  0  0  0  0  0
  184.0160  178.8330  145.6830 C   0  0  0  0  0  2  0  0  0  0  0  0
  185.5210  179.0900  145.5610 C   0  0  0  0  0  2  0  0  0  0  0  0
  186.2770  178.5350  143.2530 C   0  0  0  0  0  3  0  0  0  0  0  0
  183.8110  179.1290  143.1600 C   0  0  0  0  0  2  0  0  0  0  0  0
  186.2350  178.0560  144.7020 C   0  0  0  0  0  2  0  0  0  0  0  0
  184.9480  178.3450  142.5190 C   0  0  0  0  0  2  0  0  0  0  0  0
  183.3170  178.3880  144.3950 C   0  0  0  0  0  2  0  0  0  0  0  0
  189.2670  178.4640  139.3730 C   0  0  0  0  0  2  0  0  0  0  0  0
  188.9840  176.3840  138.1180 N   0  0  0  0  0  2  0  0  0  0  0  0
  187.1530  177.8860  138.1910 C   0  0  0  0  0  2  0  0  0  0  0  0
  187.2310  177.2050  137.0540 C   0  0  0  0  0  0  0  0  0  0  0  0
  188.3240  177.3680  138.9450 C   0  0  2  0  0  0  0  0  0  0  0  0
  188.3380  176.3010  137.0280 N   0  0  0  0  0  0  0  0  0  0  0  0
  188.6920  177.5040  140.4160 C   0  0  2  0  0  3  0  0  0  0  0  0
  186.2520  177.3320  135.9360 C   0  0  0  0  0  2  0  0  0  0  0  0
  185.0110  175.4450  134.8730 C   0  0  0  0  0  1  0  0  0  0  0  0
  186.3510  176.1470  134.9890 C   0  0  0  0  0  2  0  0  0  0  0  0
  188.2410  176.9030  143.1580 N   0  0  0  0  0  2  0  0  0  0  0  0
  189.5660  177.1960  143.5110 N   0  0  0  0  0  2  0  0  0  0  0  0
  191.0130  176.5870  147.3970 N   0  0  0  0  0  0  0  0  0  0  0  0
  189.2170  177.2000  145.9470 C   0  0  0  0  0  3  0  0  0  0  0  0
  191.8370  176.3800  146.3350 C   0  0  0  0  0  3  0  0  0  0  0  0
  191.3670  176.5780  145.0350 C   0  0  0  0  0  3  0  0  0  0  0  0
  189.7240  176.9900  147.2310 C   0  0  0  0  0  3  0  0  0  0  0  0
  190.0470  176.9930  144.8390 C   0  0  0  0  0  0  0  0  0  0  0  0
  1 21  1  0  0  0  0
  1  6  1  0  0  0  0
  2  3  1  0  0  0  0
  3  1  2  0  0  0  0
  5  4  1  0  0  0  0
  6  8  1  0  0  0  0
  7 10  1  0  0  0  0
  8  5  1  0  0  0  0
  9  7  1  0  0  0  0
  9  6  1  0  0  0  0
 10  4  1  0  0  0  0
 11 17  1  0  0  0  0
 12 15  1  0  0  0  0
 14 13  1  0  0  0  0
 15 13  1  6  0  0  0
 15 11  1  0  0  0  0
 15 17  1  0  0  0  0
 16 14  2  0  0  0  0
 16 12  1  0  0  0  0
 17  3  1  1  0  0  0
 18 14  1  0  0  0  0
 19 20  1  0  0  0  0
 20 18  1  0  0  0  0
 21 22  1  0  0  0  0
 22 28  1  0  0  0  0
 24 27  2  0  0  0  0
 25 23  2  0  0  0  0
 26 25  1  0  0  0  0
 27 23  1  0  0  0  0
 28 26  2  0  0  0  0
 28 24  1  0  0  0  0
M  END
>  <MODEL>
6

>  <REMARK>
 VINA RESULT:      -6.9      2.726      7.822
  Name = 
  7 active torsions:
  status: ('A' for Active; 'I' for Inactive)
    1  A    between atoms: N_2  and  N_15
    2  A    between atoms: N_2  and  C_25
    3  A    between atoms: C_7  and  C_25
    4  A    between atoms: C_13  and  C_14
    5  A    between atoms: C_13  and  C_27
    6  A    between atoms: N_15  and  C_19
    7  A    between atoms: C_22  and  C_28
                            x       y       z     vdW  Elec       q    Type
                         _______ _______ _______ _____ _____    ______ ____

>  <TORSDO>
F 7

$$$$
=
 OpenBabel10232408383D

 28 31  0  0  1  0  0  0  0  0999 V2000
  190.3610  177.1450  140.8670 C   0  0  0  0  0  0  0  0  0  0  0  0
  192.4800  177.1980  139.8110 O   0  0  0  0  0  1  0  0  0  0  0  0
  191.0900  177.1360  139.7390 C   0  0  0  0  0  0  0  0  0  0  0  0
  191.4630  176.4250  145.4200 C   0  0  0  0  0  2  0  0  0  0  0  0
  191.7220  175.7000  144.0950 C   0  0  0  0  0  2  0  0  0  0  0  0
  191.0640  177.1730  142.1970 C   0  0  0  0  0  3  0  0  0  0  0  0
  191.6400  178.6450  144.1830 C   0  0  0  0  0  2  0  0  0  0  0  0
  190.6520  175.9730  143.0470 C   0  0  0  0  0  2  0  0  0  0  0  0
  190.8330  178.5130  142.8970 C   0  0  0  0  0  2  0  0  0  0  0  0
  190.9550  177.8640  145.2950 C   0  0  0  0  0  2  0  0  0  0  0  0
  189.9060  175.7240  138.0420 C   0  0  0  0  0  2  0  0  0  0  0  0
  191.0270  176.4140  135.9800 N   0  0  0  0  0  2  0  0  0  0  0  0
  192.3230  175.2980  137.6200 C   0  0  0  0  0  2  0  0  0  0  0  0
  192.7110  175.0420  136.3750 C   0  0  0  0  0  0  0  0  0  0  0  0
  191.1800  176.2220  137.4040 C   0  0  2  0  0  0  0  0  0  0  0  0
  191.9220  175.7260  135.4010 N   0  0  0  0  0  0  0  0  0  0  0  0
  190.4350  177.1190  138.3830 C   0  0  2  0  0  3  0  0  0  0  0  0
  193.8700  174.1700  136.0260 C   0  0  0  0  0  2  0  0  0  0  0  0
  192.5450  172.1110  135.5340 C   0  0  0  0  0  1  0  0  0  0  0  0
  193.6050  172.7280  136.4290 C   0  0  0  0  0  2  0  0  0  0  0  0
  188.9290  177.1310  140.7940 N   0  0  0  0  0  2  0  0  0  0  0  0
  188.1600  178.2900  140.9660 N   0  0  0  0  0  2  0  0  0  0  0  0
  185.1060  178.4610  143.8320 N   0  0  0  0  0  0  0  0  0  0  0  0
  185.9370  179.0690  141.6760 C   0  0  0  0  0  3  0  0  0  0  0  0
  186.2420  177.7630  144.1030 C   0  0  0  0  0  3  0  0  0  0  0  0
  187.2670  177.6980  143.1560 C   0  0  0  0  0  3  0  0  0  0  0  0
  184.9350  179.1100  142.6490 C   0  0  0  0  0  3  0  0  0  0  0  0
  187.1140  178.3560  141.9340 C   0  0  0  0  0  0  0  0  0  0  0  0
  1  6  1  0  0  0  0
  3  2  1  0  0  0  0
  3  1  2  0  0  0  0
  5  4  1  0  0  0  0
  6  9  1  0  0  0  0
  6  8  1  0  0  0  0
  7 10  1  0  0  0  0
  8  5  1  0  0  0  0
  9  7  1  0  0  0  0
 10  4  1  0  0  0  0
 11 17  1  0  0  0  0
 12 15  1  0  0  0  0
 14 13  1  0  0  0  0
 15 13  1  1  0  0  0
 15 11  1  0  0  0  0
 15 17  1  0  0  0  0
 16 12  1  0  0  0  0
 16 14  2  0  0  0  0
 17  3  1  1  0  0  0
 18 14  1  0  0  0  0
 18 20  1  0  0  0  0
 19 20  1  0  0  0  0
 21  1  1  0  0  0  0
 21 22  1  0  0  0  0
 22 28  1  0  0  0  0
 23 25  1  0  0  0  0
 24 28  2  0  0  0  0
 24 27  1  0  0  0  0
 26 25  2  0  0  0  0
 27 23  2  0  0  0  0
 28 26  1  0  0  0  0
M  END
>  <MODEL>
7

>  <REMARK>
 VINA RESULT:      -6.9      2.491      8.647
  Name = 
  7 active torsions:
  status: ('A' for Active; 'I' for Inactive)
    1  A    between atoms: N_2  and  N_15
    2  A    between atoms: N_2  and  C_25
    3  A    between atoms: C_7  and  C_25
    4  A    between atoms: C_13  and  C_14
    5  A    between atoms: C_13  and  C_27
    6  A    between atoms: N_15  and  C_19
    7  A    between atoms: C_22  and  C_28
                            x       y       z     vdW  Elec       q    Type
                         _______ _______ _______ _____ _____    ______ ____

>  <TORSDO>
F 7

$$$$
=
 OpenBabel10232408383D

 28 31  0  0  1  0  0  0  0  0999 V2000
  186.1760  178.5070  141.2020 C   0  0  0  0  0  0  0  0  0  0  0  0
  186.6800  177.0450  142.9940 O   0  0  0  0  0  1  0  0  0  0  0  0
  185.9210  178.0780  142.4480 C   0  0  0  0  0  0  0  0  0  0  0  0
  190.4270  177.7430  139.2520 C   0  0  0  0  0  2  0  0  0  0  0  0
  189.7540  177.4200  140.5900 C   0  0  0  0  0  2  0  0  0  0  0  0
  187.3140  177.8960  140.4310 C   0  0  0  0  0  3  0  0  0  0  0  0
  188.1810  177.4050  138.0970 C   0  0  0  0  0  2  0  0  0  0  0  0
  188.6540  178.4060  140.9570 C   0  0  0  0  0  2  0  0  0  0  0  0
  187.1300  178.1260  138.9300 C   0  0  0  0  0  2  0  0  0  0  0  0
  189.4840  178.1900  138.1310 C   0  0  0  0  0  2  0  0  0  0  0  0
  185.1630  180.0070  143.8540 C   0  0  0  0  0  2  0  0  0  0  0  0
  184.1130  178.8470  145.7340 N   0  0  0  0  0  0  0  0  0  0  0  0
  186.4460  178.5660  145.4280 C   0  0  0  0  0  3  0  0  0  0  0  0
  186.0730  178.5350  146.7030 C   0  0  0  0  0  0  0  0  0  0  0  0
  185.1510  178.7800  144.7310 C   0  0  2  0  0  0  0  0  0  0  0  0
  184.6630  178.7020  146.8680 N   0  0  0  0  0  0  0  0  0  0  0  0
  184.7880  178.6490  143.2590 C   0  0  2  0  0  3  0  0  0  0  0  0
  187.0100  178.3100  147.8410 C   0  0  0  0  0  2  0  0  0  0  0  0
  189.4400  177.7430  147.9070 C   0  0  0  0  0  1  0  0  0  0  0  0
  188.0620  177.2720  147.4810 C   0  0  0  0  0  2  0  0  0  0  0  0
  185.3640  179.5360  140.6200 N   0  0  0  0  0  2  0  0  0  0  0  0
  184.5210  179.2940  139.5270 N   0  0  0  0  0  2  0  0  0  0  0  0
  180.3680  179.7720  139.8290 N   0  0  0  0  0  0  0  0  0  0  0  0
  182.4420  180.4180  138.8390 C   0  0  0  0  0  3  0  0  0  0  0  0
  180.9930  178.8410  140.6000 C   0  0  0  0  0  3  0  0  0  0  0  0
  182.3770  178.6720  140.5080 C   0  0  0  0  0  3  0  0  0  0  0  0
  181.0580  180.5570  138.9590 C   0  0  0  0  0  3  0  0  0  0  0  0
  183.1070  179.4660  139.6220 C   0  0  0  0  0  0  0  0  0  0  0  0
  1  3  2  0  0  0  0
  3  2  1  0  0  0  0
  4  5  1  0  0  0  0
  5  8  1  0  0  0  0
  6  8  1  0  0  0  0
  6  1  1  0  0  0  0
  7 10  1  0  0  0  0
  7  9  1  0  0  0  0
  9  6  1  0  0  0  0
 10  4  1  0  0  0  0
 12 16  2  0  0  0  0
 13 14  2  0  0  0  0
 14 16  1  0  0  0  0
 14 18  1  0  0  0  0
 15 11  1  6  0  0  0
 15 13  1  0  0  0  0
 15 12  1  0  0  0  0
 17  3  1  6  0  0  0
 17 11  1  0  0  0  0
 17 15  1  0  0  0  0
 20 18  1  0  0  0  0
 20 19  1  0  0  0  0
 21  1  1  0  0  0  0
 22 28  1  0  0  0  0
 22 21  1  0  0  0  0
 23 25  1  0  0  0  0
 24 27  1  0  0  0  0
 24 28  2  0  0  0  0
 26 25  2  0  0  0  0
 27 23  2  0  0  0  0
 28 26  1  0  0  0  0
M  END
>  <MODEL>
8

>  <REMARK>
 VINA RESULT:      -6.8      4.090      6.859
  Name = 
  7 active torsions:
  status: ('A' for Active; 'I' for Inactive)
    1  A    between atoms: N_2  and  N_15
    2  A    between atoms: N_2  and  C_25
    3  A    between atoms: C_7  and  C_25
    4  A    between atoms: C_13  and  C_14
    5  A    between atoms: C_13  and  C_27
    6  A    between atoms: N_15  and  C_19
    7  A    between atoms: C_22  and  C_28
                            x       y       z     vdW  Elec       q    Type
                         _______ _______ _______ _____ _____    ______ ____

>  <TORSDO>
F 7

$$$$
=
 OpenBabel10232408383D

 28 31  0  0  1  0  0  0  0  0999 V2000
  188.5030  177.9310  141.7480 C   0  0  0  0  0  0  0  0  0  0  0  0
  190.4430  177.5090  140.4590 O   0  0  0  0  0  1  0  0  0  0  0  0
  189.1550  178.0260  140.5780 C   0  0  0  0  0  0  0  0  0  0  0  0
  191.3760  176.8740  145.3650 C   0  0  0  0  0  2  0  0  0  0  0  0
  190.0530  177.6250  145.1920 C   0  0  0  0  0  2  0  0  0  0  0  0
  189.1600  177.2230  142.9020 C   0  0  0  0  0  3  0  0  0  0  0  0
  190.6460  175.2640  143.5300 C   0  0  0  0  0  2  0  0  0  0  0  0
  189.8830  178.2220  143.8030 C   0  0  0  0  0  2  0  0  0  0  0  0
  190.0690  176.1020  142.3960 C   0  0  0  0  0  2  0  0  0  0  0  0
  191.8050  176.0120  144.1750 C   0  0  0  0  0  2  0  0  0  0  0  0
  187.4970  177.8580  138.7080 C   0  0  0  0  0  2  0  0  0  0  0  0
  188.7970  178.7460  136.8350 N   0  0  0  0  0  2  0  0  0  0  0  0
  189.5330  176.7240  137.8290 C   0  0  0  0  0  2  0  0  0  0  0  0
  189.7800  176.7930  136.5260 C   0  0  0  0  0  0  0  0  0  0  0  0
  188.8610  178.0250  138.0860 C   0  0  2  0  0  0  0  0  0  0  0  0
  189.3340  178.0190  135.9440 N   0  0  0  0  0  0  0  0  0  0  0  0
  188.5470  178.7330  139.3960 C   0  0  2  0  0  3  0  0  0  0  0  0
  190.4840  175.7280  135.7540 C   0  0  0  0  0  2  0  0  0  0  0  0
  191.6320  173.7490  136.7540 C   0  0  0  0  0  1  0  0  0  0  0  0
  191.7180  175.2430  136.4990 C   0  0  0  0  0  2  0  0  0  0  0  0
  187.1960  178.5060  141.8880 N   0  0  0  0  0  2  0  0  0  0  0  0
  186.1190  177.7910  142.4270 N   0  0  0  0  0  2  0  0  0  0  0  0
  184.3240  178.9080  146.0470 N   0  0  0  0  0  0  0  0  0  0  0  0
  186.1940  177.9870  144.8790 C   0  0  0  0  0  3  0  0  0  0  0  0
  183.6500  179.0900  144.8800 C   0  0  0  0  0  3  0  0  0  0  0  0
  184.2370  178.7230  143.6670 C   0  0  0  0  0  3  0  0  0  0  0  0
  185.5730  178.3680  146.0710 C   0  0  0  0  0  3  0  0  0  0  0  0
  185.5180  178.1660  143.6660 C   0  0  0  0  0  0  0  0  0  0  0  0
  1 21  1  0  0  0  0
  1  6  1  0  0  0  0
  2  3  1  0  0  0  0
  3  1  2  0  0  0  0
  5  4  1  0  0  0  0
  6  8  1  0  0  0  0
  7 10  1  0  0  0  0
  8  5  1  0  0  0  0
  9  6  1  0  0  0  0
  9  7  1  0  0  0  0
 10  4  1  0  0  0  0
 11 17  1  0  0  0  0
 12 15  1  0  0  0  0
 14 13  1  0  0  0  0
 15 13  1  1  0  0  0
 15 11  1  0  0  0  0
 15 17  1  0  0  0  0
 16 14  2  0  0  0  0
 16 12  1  0  0  0  0
 17  3  1  1  0  0  0
 18 20  1  0  0  0  0
 18 14  1  0  0  0  0
 20 19  1  0  0  0  0
 21 22  1  0  0  0  0
 22 28  1  0  0  0  0
 23 27  1  0  0  0  0
 24 27  2  0  0  0  0
 25 23  2  0  0  0  0
 26 25  1  0  0  0  0
 28 26  2  0  0  0  0
 28 24  1  0  0  0  0
M  END
>  <MODEL>
9

>  <REMARK>
 VINA RESULT:      -6.8      2.346      8.650
  Name = 
  7 active torsions:
  status: ('A' for Active; 'I' for Inactive)
    1  A    between atoms: N_2  and  N_15
    2  A    between atoms: N_2  and  C_25
    3  A    between atoms: C_7  and  C_25
    4  A    between atoms: C_13  and  C_14
    5  A    between atoms: C_13  and  C_27
    6  A    between atoms: N_15  and  C_19
    7  A    between atoms: C_22  and  C_28
                            x       y       z     vdW  Elec       q    Type
                         _______ _______ _______ _____ _____    ______ ____

>  <TORSDO>
F 7

$$$$
