=
 OpenBabel10232409383D

 35 37  0  0  1  0  0  0  0  0999 V2000
  190.0790  177.3520  144.6110 C   0  0  1  0  0  3  0  0  0  0  0  0
  187.6140  176.9790  144.5420 C   0  0  0  0  0  3  0  0  0  0  0  0
  186.3250  177.2210  144.7740 C   0  0  0  0  0  3  0  0  0  0  0  0
  185.8080  178.2240  145.7260 C   0  0  0  0  0  0  0  0  0  0  0  0
  187.8200  177.8980  148.9000 C   0  0  0  0  0  1  0  0  0  0  0  0
  188.7160  177.7750  145.1700 C   0  0  1  0  0  3  0  0  0  0  0  0
  187.6590  177.9850  147.4250 C   0  0  0  0  0  0  0  0  0  0  0  0
  188.6920  177.6280  146.6600 C   0  0  0  0  0  3  0  0  0  0  0  0
  186.3840  178.5170  146.9000 C   0  0  0  0  0  3  0  0  0  0  0  0
  183.4850  179.2630  145.2300 N   0  0  0  0  0  0  0  0  0  0  0  0
  184.5220  178.7990  145.4510 C   0  0  0  0  0  0  0  0  0  0  0  0
  190.3290  179.1050  143.0000 O   0  0  0  0  0  0  0  0  0  0  0  0
  190.4130  176.9330  142.1440 N   0  0  0  0  0  2  0  0  0  0  0  0
  190.2810  177.8640  143.2190 C   0  0  0  0  0  0  0  0  0  0  0  0
  190.6310  176.2410  139.9290 O   0  0  0  0  0  0  0  0  0  0  0  0
  190.6140  177.3660  140.7710 C   0  0  1  0  0  3  0  0  0  0  0  0
  189.4400  176.9910  139.9550 C   0  0  1  0  0  3  0  0  0  0  0  0
  189.3790  177.8670  138.7180 C   0  0  0  0  0  2  0  0  0  0  0  0
  188.3320  177.3970  137.8230 N   0  0  0  0  0  2  0  0  0  0  0  0
  184.3230  178.3840  138.2850 N   0  0  0  0  0  0  0  0  0  0  0  0
  184.8950  179.5750  140.1500 O   0  0  0  0  0  0  0  0  0  0  0  0
  185.2450  178.8480  139.1820 C   0  0  0  0  0  0  0  0  0  0  0  0
  184.7080  177.6100  137.2680 N   0  0  0  0  0  0  0  0  0  0  0  0
  186.9550  177.7420  137.9900 C   0  0  0  0  0  0  0  0  0  0  0  0
  186.0090  177.2720  137.0880 C   0  0  0  0  0  3  0  0  0  0  0  0
  186.5520  178.5230  139.0260 N   0  0  0  0  0  0  0  0  0  0  0  0
  182.1790  177.5410  139.0790 C   0  0  0  0  0  1  0  0  0  0  0  0
  182.9090  178.7020  138.4300 C   0  0  0  0  0  2  0  0  0  0  0  0
  191.1100  177.8250  145.4270 O   0  0  0  0  0  0  0  0  0  0  0  0
  192.1110  176.9190  145.2810 N   0  0  0  0  0  2  0  0  0  0  0  0
  192.3630  174.4630  145.2890 C   0  0  0  0  0  1  0  0  0  0  0  0
  191.7260  175.6780  145.9530 C   0  0  1  0  0  3  0  0  0  0  0  0
  191.5010  176.9060  148.0090 F   0  0  0  0  0  0  0  0  0  0  0  0
  191.9980  175.7390  147.4560 C   0  0  2  0  0  3  0  0  0  0  0  0
  193.3690  175.6540  147.6950 O   0  0  0  0  0  1  0  0  0  0  0  0
  1 14  1  6  0  0  0
  1 29  1  0  0  0  0
  2  3  2  0  0  0  0
  2  6  1  0  0  0  0
  3  4  1  0  0  0  0
  4  9  2  0  0  0  0
  6  1  1  6  0  0  0
  6  8  1  0  0  0  0
  7  5  1  0  0  0  0
  8  7  2  0  0  0  0
  9  7  1  0  0  0  0
 10 11  3  0  0  0  0
 11  4  1  0  0  0  0
 12 14  2  0  0  0  0
 13 14  1  0  0  0  0
 15 17  1  0  0  0  0
 15 16  1  0  0  0  0
 16 13  1  1  0  0  0
 17 18  1  6  0  0  0
 17 16  1  0  0  0  0
 19 24  1  0  0  0  0
 19 18  1  0  0  0  0
 20 28  1  0  0  0  0
 20 22  1  0  0  0  0
 22 21  2  0  0  0  0
 23 20  1  0  0  0  0
 24 26  2  0  0  0  0
 25 23  2  0  0  0  0
 25 24  1  0  0  0  0
 26 22  1  0  0  0  0
 28 27  1  0  0  0  0
 30 29  1  0  0  0  0
 30 32  1  0  0  0  0
 32 31  1  6  0  0  0
 32 34  1  0  0  0  0
 34 35  1  6  0  0  0
 34 33  1  0  0  0  0
M  END
>  <MODEL>
1

>  <REMARK>
 VINA RESULT:      -8.5      0.000      0.000
  Name = 
  11 active torsions:
  status: ('A' for Active; 'I' for Inactive)
    1  A    between atoms: C_1  and  N_4
    2  A    between atoms: C_1  and  C_22
    3  A    between atoms: N_7  and  C_32
    4  A    between atoms: N_11  and  C_16
    5  A    between atoms: C_12  and  C_25
    6  A    between atoms: C_20  and  C_24
    7  A    between atoms: C_23  and  C_26
    8  A    between atoms: C_24  and  O_30
    9  A    between atoms: C_24  and  C_34
   10  A    between atoms: C_26  and  N_31
   11  A    between atoms: O_30  and  N_31
                            x       y       z     vdW  Elec       q    Type
                         _______ _______ _______ _____ _____    ______ ____

>  <TORSDO>
F 11

$$$$
=
 OpenBabel10232409383D

 35 37  0  0  1  0  0  0  0  0999 V2000
  187.6530  177.9580  143.7560 C   0  0  1  0  0  3  0  0  0  0  0  0
  189.9720  177.9710  144.6730 C   0  0  0  0  0  3  0  0  0  0  0  0
  190.9920  177.6030  145.4460 C   0  0  0  0  0  3  0  0  0  0  0  0
  190.8860  176.7380  146.6370 C   0  0  0  0  0  0  0  0  0  0  0  0
  187.9120  177.9300  148.6270 C   0  0  0  0  0  1  0  0  0  0  0  0
  188.5770  177.4660  144.8750 C   0  0  1  0  0  3  0  0  0  0  0  0
  188.6110  177.5440  147.3730 C   0  0  0  0  0  0  0  0  0  0  0  0
  188.0510  177.8880  146.2130 C   0  0  0  0  0  3  0  0  0  0  0  0
  189.8540  176.7540  147.4910 C   0  0  0  0  0  3  0  0  0  0  0  0
  192.9590  175.3170  147.2770 N   0  0  0  0  0  0  0  0  0  0  0  0
  192.0340  175.9510  146.9910 C   0  0  0  0  0  0  0  0  0  0  0  0
  188.4010  176.1670  142.3540 O   0  0  0  0  0  0  0  0  0  0  0  0
  187.9990  178.1950  141.2670 N   0  0  0  0  0  2  0  0  0  0  0  0
  188.0400  177.3730  142.4330 C   0  0  0  0  0  0  0  0  0  0  0  0
  188.7120  178.7630  139.1210 O   0  0  0  0  0  0  0  0  0  0  0  0
  188.3590  177.6860  139.9530 C   0  0  1  0  0  3  0  0  0  0  0  0
  189.7710  178.0120  139.6640 C   0  0  1  0  0  3  0  0  0  0  0  0
  190.3050  177.0670  138.6040 C   0  0  0  0  0  2  0  0  0  0  0  0
  191.6420  176.6200  138.9600 N   0  0  0  0  0  2  0  0  0  0  0  0
  194.4840  175.4670  136.1560 N   0  0  0  0  0  0  0  0  0  0  0  0
  192.9410  175.8700  134.5180 O   0  0  0  0  0  0  0  0  0  0  0  0
  193.2390  175.8560  135.7420 C   0  0  0  0  0  0  0  0  0  0  0  0
  194.7840  175.4520  137.4560 N   0  0  0  0  0  0  0  0  0  0  0  0
  192.6140  176.2250  137.9870 C   0  0  0  0  0  0  0  0  0  0  0  0
  193.8800  175.8250  138.3970 C   0  0  0  0  0  3  0  0  0  0  0  0
  192.3160  176.2310  136.6620 N   0  0  0  0  0  0  0  0  0  0  0  0
  196.7630  175.8550  135.3880 C   0  0  0  0  0  1  0  0  0  0  0  0
  195.4950  175.0450  135.1960 C   0  0  0  0  0  2  0  0  0  0  0  0
  186.3250  177.6210  144.0350 O   0  0  0  0  0  0  0  0  0  0  0  0
  185.6170  178.7440  143.7500 N   0  0  0  0  0  2  0  0  0  0  0  0
  183.2310  178.9810  144.3360 C   0  0  0  0  0  1  0  0  0  0  0  0
  184.2520  178.3630  143.3890 C   0  0  1  0  0  3  0  0  0  0  0  0
  183.8150  177.4930  141.1890 F   0  0  0  0  0  0  0  0  0  0  0  0
  183.9490  178.6610  141.9210 C   0  0  2  0  0  3  0  0  0  0  0  0
  184.9680  179.4410  141.3730 O   0  0  0  0  0  1  0  0  0  0  0  0
  1 14  1  6  0  0  0
  1 29  1  0  0  0  0
  2  6  1  0  0  0  0
  2  3  2  0  0  0  0
  3  4  1  0  0  0  0
  4 11  1  0  0  0  0
  4  9  2  0  0  0  0
  6  1  1  6  0  0  0
  6  8  1  0  0  0  0
  7  9  1  0  0  0  0
  7  5  1  0  0  0  0
  8  7  2  0  0  0  0
 11 10  3  0  0  0  0
 12 14  2  0  0  0  0
 13 14  1  0  0  0  0
 15 17  1  0  0  0  0
 15 16  1  0  0  0  0
 16 13  1  1  0  0  0
 17 18  1  6  0  0  0
 17 16  1  0  0  0  0
 18 19  1  0  0  0  0
 20 23  1  0  0  0  0
 21 22  2  0  0  0  0
 22 20  1  0  0  0  0
 22 26  1  0  0  0  0
 23 25  2  0  0  0  0
 24 25  1  0  0  0  0
 24 19  1  0  0  0  0
 26 24  2  0  0  0  0
 28 27  1  0  0  0  0
 28 20  1  0  0  0  0
 30 29  1  0  0  0  0
 32 30  1  0  0  0  0
 32 31  1  1  0  0  0
 34 33  1  6  0  0  0
 34 32  1  0  0  0  0
 35 34  1  0  0  0  0
M  END
>  <MODEL>
2

>  <REMARK>
 VINA RESULT:      -8.1      3.946      7.314
  Name = 
  11 active torsions:
  status: ('A' for Active; 'I' for Inactive)
    1  A    between atoms: C_1  and  N_4
    2  A    between atoms: C_1  and  C_22
    3  A    between atoms: N_7  and  C_32
    4  A    between atoms: N_11  and  C_16
    5  A    between atoms: C_12  and  C_25
    6  A    between atoms: C_20  and  C_24
    7  A    between atoms: C_23  and  C_26
    8  A    between atoms: C_24  and  O_30
    9  A    between atoms: C_24  and  C_34
   10  A    between atoms: C_26  and  N_31
   11  A    between atoms: O_30  and  N_31
                            x       y       z     vdW  Elec       q    Type
                         _______ _______ _______ _____ _____    ______ ____

>  <TORSDO>
F 11

$$$$
=
 OpenBabel10232409383D

 35 37  0  0  1  0  0  0  0  0999 V2000
  187.8880  177.6190  143.7730 C   0  0  1  0  0  3  0  0  0  0  0  0
  190.1940  177.7030  144.7190 C   0  0  0  0  0  3  0  0  0  0  0  0
  191.1940  177.4200  145.5530 C   0  0  0  0  0  3  0  0  0  0  0  0
  191.0490  176.7300  146.8490 C   0  0  0  0  0  0  0  0  0  0  0  0
  188.0800  178.2550  148.6060 C   0  0  0  0  0  1  0  0  0  0  0  0
  188.7840  177.2650  144.9650 C   0  0  1  0  0  3  0  0  0  0  0  0
  188.7860  177.6840  147.4280 C   0  0  0  0  0  0  0  0  0  0  0  0
  188.2500  177.8790  146.2230 C   0  0  0  0  0  3  0  0  0  0  0  0
  190.0060  176.8880  147.6750 C   0  0  0  0  0  3  0  0  0  0  0  0
  193.0750  175.3620  147.7120 N   0  0  0  0  0  0  0  0  0  0  0  0
  192.1710  175.9730  147.3270 C   0  0  0  0  0  0  0  0  0  0  0  0
  188.5850  175.6970  142.5280 O   0  0  0  0  0  0  0  0  0  0  0  0
  188.5160  177.7000  141.3290 N   0  0  0  0  0  2  0  0  0  0  0  0
  188.3470  176.9350  142.5230 C   0  0  0  0  0  0  0  0  0  0  0  0
  189.5700  178.0740  139.2850 O   0  0  0  0  0  0  0  0  0  0  0  0
  188.9550  177.0940  140.0830 C   0  0  1  0  0  3  0  0  0  0  0  0
  190.4260  177.1940  139.9730 C   0  0  1  0  0  3  0  0  0  0  0  0
  190.9370  176.1420  139.0080 C   0  0  0  0  0  2  0  0  0  0  0  0
  191.8480  176.7440  138.0470 N   0  0  0  0  0  2  0  0  0  0  0  0
  195.3480  174.9100  136.7600 N   0  0  0  0  0  0  0  0  0  0  0  0
  194.8690  173.1610  138.1510 O   0  0  0  0  0  0  0  0  0  0  0  0
  194.5540  174.2880  137.6840 C   0  0  0  0  0  0  0  0  0  0  0  0
  195.0040  176.1070  136.2770 N   0  0  0  0  0  0  0  0  0  0  0  0
  193.0500  176.1050  137.6100 C   0  0  0  0  0  0  0  0  0  0  0  0
  193.8660  176.7310  136.6750 C   0  0  0  0  0  3  0  0  0  0  0  0
  193.4120  174.8910  138.1000 N   0  0  0  0  0  0  0  0  0  0  0  0
  197.3450  175.2630  135.4110 C   0  0  0  0  0  1  0  0  0  0  0  0
  196.5870  174.2980  136.3010 C   0  0  0  0  0  2  0  0  0  0  0  0
  186.5630  177.2590  144.0330 O   0  0  0  0  0  0  0  0  0  0  0  0
  185.8230  178.2870  143.5450 N   0  0  0  0  0  2  0  0  0  0  0  0
  184.8260  179.0150  145.6830 C   0  0  0  0  0  1  0  0  0  0  0  0
  184.5840  178.3850  144.3170 C   0  0  1  0  0  3  0  0  0  0  0  0
  182.2270  178.7600  144.0170 F   0  0  0  0  0  0  0  0  0  0  0  0
  183.4800  179.0910  143.5300 C   0  0  2  0  0  3  0  0  0  0  0  0
  183.5640  178.7480  142.1810 O   0  0  0  0  0  1  0  0  0  0  0  0
  1 14  1  6  0  0  0
  1 29  1  0  0  0  0
  2  6  1  0  0  0  0
  2  3  2  0  0  0  0
  3  4  1  0  0  0  0
  4 11  1  0  0  0  0
  4  9  2  0  0  0  0
  6  1  1  6  0  0  0
  6  8  1  0  0  0  0
  7  9  1  0  0  0  0
  7  5  1  0  0  0  0
  8  7  2  0  0  0  0
 11 10  3  0  0  0  0
 13 14  1  0  0  0  0
 14 12  2  0  0  0  0
 15 17  1  0  0  0  0
 15 16  1  0  0  0  0
 16 13  1  1  0  0  0
 17 18  1  6  0  0  0
 17 16  1  0  0  0  0
 19 18  1  0  0  0  0
 20 22  1  0  0  0  0
 22 26  1  0  0  0  0
 22 21  2  0  0  0  0
 23 25  2  0  0  0  0
 23 20  1  0  0  0  0
 24 19  1  0  0  0  0
 24 26  2  0  0  0  0
 25 24  1  0  0  0  0
 27 28  1  0  0  0  0
 28 20  1  0  0  0  0
 30 29  1  0  0  0  0
 30 32  1  0  0  0  0
 32 31  1  1  0  0  0
 34 35  1  6  0  0  0
 34 33  1  0  0  0  0
 34 32  1  0  0  0  0
M  END
>  <MODEL>
3

>  <REMARK>
 VINA RESULT:      -8.1      4.127      7.544
  Name = 
  11 active torsions:
  status: ('A' for Active; 'I' for Inactive)
    1  A    between atoms: C_1  and  N_4
    2  A    between atoms: C_1  and  C_22
    3  A    between atoms: N_7  and  C_32
    4  A    between atoms: N_11  and  C_16
    5  A    between atoms: C_12  and  C_25
    6  A    between atoms: C_20  and  C_24
    7  A    between atoms: C_23  and  C_26
    8  A    between atoms: C_24  and  O_30
    9  A    between atoms: C_24  and  C_34
   10  A    between atoms: C_26  and  N_31
   11  A    between atoms: O_30  and  N_31
                            x       y       z     vdW  Elec       q    Type
                         _______ _______ _______ _____ _____    ______ ____

>  <TORSDO>
F 11

$$$$
=
 OpenBabel10232409383D

 35 37  0  0  1  0  0  0  0  0999 V2000
  188.0250  177.7570  143.5170 C   0  0  1  0  0  3  0  0  0  0  0  0
  190.2480  177.8350  144.6440 C   0  0  0  0  0  3  0  0  0  0  0  0
  191.1900  177.5240  145.5330 C   0  0  0  0  0  3  0  0  0  0  0  0
  190.9670  176.7480  146.7690 C   0  0  0  0  0  0  0  0  0  0  0  0
  187.8290  178.0850  148.3800 C   0  0  0  0  0  1  0  0  0  0  0  0
  188.8370  177.3480  144.7510 C   0  0  1  0  0  3  0  0  0  0  0  0
  188.6390  177.6080  147.2280 C   0  0  0  0  0  0  0  0  0  0  0  0
  188.1910  177.8660  145.9990 C   0  0  0  0  0  3  0  0  0  0  0  0
  189.8590  176.8270  147.5200 C   0  0  0  0  0  3  0  0  0  0  0  0
  192.9590  175.3760  147.7010 N   0  0  0  0  0  0  0  0  0  0  0  0
  192.0700  175.9890  147.2840 C   0  0  0  0  0  0  0  0  0  0  0  0
  189.1210  176.0780  142.2080 O   0  0  0  0  0  0  0  0  0  0  0  0
  188.7220  178.1040  141.1160 N   0  0  0  0  0  2  0  0  0  0  0  0
  188.6530  177.2490  142.2570 C   0  0  0  0  0  0  0  0  0  0  0  0
  188.3540  176.9700  139.1130 O   0  0  0  0  0  0  0  0  0  0  0  0
  189.3160  177.6690  139.8630 C   0  0  1  0  0  3  0  0  0  0  0  0
  188.6060  178.3000  138.7300 C   0  0  1  0  0  3  0  0  0  0  0  0
  189.5020  178.3040  137.5060 C   0  0  0  0  0  2  0  0  0  0  0  0
  189.5490  176.9750  136.9170 N   0  0  0  0  0  2  0  0  0  0  0  0
  192.8790  174.4990  137.1410 N   0  0  0  0  0  0  0  0  0  0  0  0
  193.9560  176.1550  138.2910 O   0  0  0  0  0  0  0  0  0  0  0  0
  192.9190  175.7450  137.7020 C   0  0  0  0  0  0  0  0  0  0  0  0
  191.7750  174.0800  136.5160 N   0  0  0  0  0  0  0  0  0  0  0  0
  190.7000  176.1300  136.9990 C   0  0  0  0  0  0  0  0  0  0  0  0
  190.6710  174.8640  136.4280 C   0  0  0  0  0  3  0  0  0  0  0  0
  191.8300  176.5490  137.6260 N   0  0  0  0  0  0  0  0  0  0  0  0
  194.7510  173.6190  135.8540 C   0  0  0  0  0  1  0  0  0  0  0  0
  194.0350  173.6150  137.1920 C   0  0  0  0  0  2  0  0  0  0  0  0
  186.7190  177.2670  143.6070 O   0  0  0  0  0  0  0  0  0  0  0  0
  185.9340  178.3020  143.2130 N   0  0  0  0  0  2  0  0  0  0  0  0
  185.1360  179.2470  145.3500 C   0  0  0  0  0  1  0  0  0  0  0  0
  184.7950  178.4060  144.1260 C   0  0  1  0  0  3  0  0  0  0  0  0
  182.3910  178.4250  144.0310 F   0  0  0  0  0  0  0  0  0  0  0  0
  183.5360  178.8920  143.4090 C   0  0  2  0  0  3  0  0  0  0  0  0
  183.5520  178.4700  142.0790 O   0  0  0  0  0  1  0  0  0  0  0  0
  1 14  1  6  0  0  0
  1 29  1  0  0  0  0
  2  6  1  0  0  0  0
  2  3  2  0  0  0  0
  3  4  1  0  0  0  0
  4 11  1  0  0  0  0
  4  9  2  0  0  0  0
  6  1  1  6  0  0  0
  6  8  1  0  0  0  0
  7  9  1  0  0  0  0
  7  5  1  0  0  0  0
  8  7  2  0  0  0  0
 11 10  3  0  0  0  0
 12 14  2  0  0  0  0
 13 14  1  0  0  0  0
 15 16  1  0  0  0  0
 16 13  1  1  0  0  0
 17 18  1  6  0  0  0
 17 15  1  0  0  0  0
 17 16  1  0  0  0  0
 19 24  1  0  0  0  0
 19 18  1  0  0  0  0
 20 28  1  0  0  0  0
 20 22  1  0  0  0  0
 22 21  2  0  0  0  0
 23 20  1  0  0  0  0
 24 26  2  0  0  0  0
 25 23  2  0  0  0  0
 25 24  1  0  0  0  0
 26 22  1  0  0  0  0
 27 28  1  0  0  0  0
 30 29  1  0  0  0  0
 30 32  1  0  0  0  0
 32 31  1  1  0  0  0
 34 35  1  6  0  0  0
 34 33  1  0  0  0  0
 34 32  1  0  0  0  0
M  END
>  <MODEL>
4

>  <REMARK>
 VINA RESULT:      -7.9      3.413      6.704
  Name = 
  11 active torsions:
  status: ('A' for Active; 'I' for Inactive)
    1  A    between atoms: C_1  and  N_4
    2  A    between atoms: C_1  and  C_22
    3  A    between atoms: N_7  and  C_32
    4  A    between atoms: N_11  and  C_16
    5  A    between atoms: C_12  and  C_25
    6  A    between atoms: C_20  and  C_24
    7  A    between atoms: C_23  and  C_26
    8  A    between atoms: C_24  and  O_30
    9  A    between atoms: C_24  and  C_34
   10  A    between atoms: C_26  and  N_31
   11  A    between atoms: O_30  and  N_31
                            x       y       z     vdW  Elec       q    Type
                         _______ _______ _______ _____ _____    ______ ____

>  <TORSDO>
F 11

$$$$
=
 OpenBabel10232409383D

 35 37  0  0  1  0  0  0  0  0999 V2000
  187.8700  177.7890  143.7300 C   0  0  1  0  0  3  0  0  0  0  0  0
  190.1430  177.8410  144.7550 C   0  0  0  0  0  3  0  0  0  0  0  0
  191.1200  177.5170  145.6000 C   0  0  0  0  0  3  0  0  0  0  0  0
  190.9450  176.7410  146.8430 C   0  0  0  0  0  0  0  0  0  0  0  0
  187.9000  178.1080  148.5980 C   0  0  0  0  0  1  0  0  0  0  0  0
  188.7320  177.3680  144.9250 C   0  0  1  0  0  3  0  0  0  0  0  0
  188.6500  177.6250  147.4090 C   0  0  0  0  0  0  0  0  0  0  0  0
  188.1500  177.8910  146.2020 C   0  0  0  0  0  3  0  0  0  0  0  0
  189.8740  176.8310  147.6430 C   0  0  0  0  0  3  0  0  0  0  0  0
  192.9640  175.3460  147.6800 N   0  0  0  0  0  0  0  0  0  0  0  0
  192.0630  175.9680  147.3060 C   0  0  0  0  0  0  0  0  0  0  0  0
  188.6680  176.0120  142.3380 O   0  0  0  0  0  0  0  0  0  0  0  0
  188.6400  178.1290  141.3510 N   0  0  0  0  0  2  0  0  0  0  0  0
  188.4120  177.2420  142.4470 C   0  0  0  0  0  0  0  0  0  0  0  0
  188.0980  177.1880  139.2880 O   0  0  0  0  0  0  0  0  0  0  0  0
  189.1620  177.6600  140.0770 C   0  0  1  0  0  3  0  0  0  0  0  0
  188.5920  178.4680  138.9790 C   0  0  1  0  0  3  0  0  0  0  0  0
  189.4880  178.3750  137.7590 C   0  0  0  0  0  2  0  0  0  0  0  0
  188.7530  177.8060  136.6400 N   0  0  0  0  0  2  0  0  0  0  0  0
  188.9360  173.7880  135.5960 N   0  0  0  0  0  0  0  0  0  0  0  0
  190.4130  173.4740  137.3120 O   0  0  0  0  0  0  0  0  0  0  0  0
  189.6750  174.2510  136.6500 C   0  0  0  0  0  0  0  0  0  0  0  0
  188.1630  174.6250  134.9000 N   0  0  0  0  0  0  0  0  0  0  0  0
  188.8220  176.4210  136.2890 C   0  0  0  0  0  0  0  0  0  0  0  0
  188.0790  175.9420  135.2170 C   0  0  0  0  0  3  0  0  0  0  0  0
  189.6110  175.5640  136.9860 N   0  0  0  0  0  0  0  0  0  0  0  0
  187.9190  171.5990  135.9260 C   0  0  0  0  0  1  0  0  0  0  0  0
  188.9920  172.3880  135.1990 C   0  0  0  0  0  2  0  0  0  0  0  0
  186.5550  177.3460  143.8970 O   0  0  0  0  0  0  0  0  0  0  0  0
  185.7880  178.4370  143.6420 N   0  0  0  0  0  2  0  0  0  0  0  0
  184.6970  178.7990  145.8280 C   0  0  0  0  0  1  0  0  0  0  0  0
  184.5360  178.3200  144.3900 C   0  0  1  0  0  3  0  0  0  0  0  0
  182.1650  178.7110  144.2660 F   0  0  0  0  0  0  0  0  0  0  0  0
  183.3780  179.0070  143.6670 C   0  0  2  0  0  3  0  0  0  0  0  0
  183.3480  178.6090  142.3300 O   0  0  0  0  0  1  0  0  0  0  0  0
  1 14  1  6  0  0  0
  1 29  1  0  0  0  0
  2  6  1  0  0  0  0
  2  3  2  0  0  0  0
  3  4  1  0  0  0  0
  4 11  1  0  0  0  0
  4  9  2  0  0  0  0
  6  1  1  6  0  0  0
  6  8  1  0  0  0  0
  7  9  1  0  0  0  0
  7  5  1  0  0  0  0
  8  7  2  0  0  0  0
 11 10  3  0  0  0  0
 12 14  2  0  0  0  0
 13 14  1  0  0  0  0
 15 16  1  0  0  0  0
 16 13  1  1  0  0  0
 17 18  1  6  0  0  0
 17 15  1  0  0  0  0
 17 16  1  0  0  0  0
 19 18  1  0  0  0  0
 20 22  1  0  0  0  0
 22 26  1  0  0  0  0
 22 21  2  0  0  0  0
 23 25  2  0  0  0  0
 23 20  1  0  0  0  0
 24 19  1  0  0  0  0
 24 26  2  0  0  0  0
 25 24  1  0  0  0  0
 28 20  1  0  0  0  0
 28 27  1  0  0  0  0
 30 29  1  0  0  0  0
 30 32  1  0  0  0  0
 32 31  1  1  0  0  0
 34 35  1  6  0  0  0
 34 33  1  0  0  0  0
 34 32  1  0  0  0  0
M  END
>  <MODEL>
5

>  <REMARK>
 VINA RESULT:      -7.9      3.304      5.992
  Name = 
  11 active torsions:
  status: ('A' for Active; 'I' for Inactive)
    1  A    between atoms: C_1  and  N_4
    2  A    between atoms: C_1  and  C_22
    3  A    between atoms: N_7  and  C_32
    4  A    between atoms: N_11  and  C_16
    5  A    between atoms: C_12  and  C_25
    6  A    between atoms: C_20  and  C_24
    7  A    between atoms: C_23  and  C_26
    8  A    between atoms: C_24  and  O_30
    9  A    between atoms: C_24  and  C_34
   10  A    between atoms: C_26  and  N_31
   11  A    between atoms: O_30  and  N_31
                            x       y       z     vdW  Elec       q    Type
                         _______ _______ _______ _____ _____    ______ ____

>  <TORSDO>
F 11

$$$$
=
 OpenBabel10232409383D

 35 37  0  0  1  0  0  0  0  0999 V2000
  189.6290  177.6720  143.8690 C   0  0  1  0  0  3  0  0  0  0  0  0
  187.1900  177.1720  144.0180 C   0  0  0  0  0  3  0  0  0  0  0  0
  185.9200  177.3330  144.3860 C   0  0  0  0  0  3  0  0  0  0  0  0
  185.4520  178.2590  145.4360 C   0  0  0  0  0  0  0  0  0  0  0  0
  187.7810  177.8850  148.3790 C   0  0  0  0  0  1  0  0  0  0  0  0
  188.3090  177.9940  144.5780 C   0  0  1  0  0  3  0  0  0  0  0  0
  187.4720  178.0360  146.9330 C   0  0  0  0  0  0  0  0  0  0  0  0
  188.4400  177.7720  146.0540 C   0  0  0  0  0  3  0  0  0  0  0  0
  186.1260  178.5240  146.5630 C   0  0  0  0  0  3  0  0  0  0  0  0
  183.0430  179.1940  145.2240 N   0  0  0  0  0  0  0  0  0  0  0  0
  184.1180  178.7760  145.3180 C   0  0  0  0  0  0  0  0  0  0  0  0
  188.9700  178.8440  141.8880 O   0  0  0  0  0  0  0  0  0  0  0  0
  189.9730  176.7640  141.5390 N   0  0  0  0  0  2  0  0  0  0  0  0
  189.4980  177.8120  142.3840 C   0  0  0  0  0  0  0  0  0  0  0  0
  190.7340  177.8540  139.6250 O   0  0  0  0  0  0  0  0  0  0  0  0
  189.8780  176.8410  140.0900 C   0  0  1  0  0  3  0  0  0  0  0  0
  191.1920  176.5300  139.4890 C   0  0  1  0  0  3  0  0  0  0  0  0
  191.0020  176.0830  138.0530 C   0  0  0  0  0  2  0  0  0  0  0  0
  191.7890  174.8860  137.7930 N   0  0  0  0  0  2  0  0  0  0  0  0
  195.4990  174.9570  135.9230 N   0  0  0  0  0  0  0  0  0  0  0  0
  195.2870  177.2240  135.7270 O   0  0  0  0  0  0  0  0  0  0  0  0
  194.8100  176.1230  136.1120 C   0  0  0  0  0  0  0  0  0  0  0  0
  194.9780  173.7970  136.3320 N   0  0  0  0  0  0  0  0  0  0  0  0
  193.0650  174.9210  137.1490 C   0  0  0  0  0  0  0  0  0  0  0  0
  193.7700  173.7410  136.9480 C   0  0  0  0  0  3  0  0  0  0  0  0
  193.6000  176.0950  136.7230 N   0  0  0  0  0  0  0  0  0  0  0  0
  197.2460  173.5220  135.0170 C   0  0  0  0  0  1  0  0  0  0  0  0
  196.7950  174.9500  135.2580 C   0  0  0  0  0  2  0  0  0  0  0  0
  190.6450  178.5190  144.3210 O   0  0  0  0  0  0  0  0  0  0  0  0
  191.7620  177.7470  144.3210 N   0  0  0  0  0  2  0  0  0  0  0  0
  191.9170  175.2930  144.1010 C   0  0  0  0  0  1  0  0  0  0  0  0
  191.4520  176.4660  144.9550 C   0  0  1  0  0  3  0  0  0  0  0  0
  192.3630  175.1110  146.7220 F   0  0  0  0  0  0  0  0  0  0  0  0
  191.9820  176.3990  146.3870 C   0  0  2  0  0  3  0  0  0  0  0  0
  191.0050  176.8440  147.2780 O   0  0  0  0  0  1  0  0  0  0  0  0
  1 14  1  6  0  0  0
  1 29  1  0  0  0  0
  2  3  2  0  0  0  0
  2  6  1  0  0  0  0
  3  4  1  0  0  0  0
  4  9  2  0  0  0  0
  6  1  1  6  0  0  0
  6  8  1  0  0  0  0
  7  5  1  0  0  0  0
  8  7  2  0  0  0  0
  9  7  1  0  0  0  0
 10 11  3  0  0  0  0
 11  4  1  0  0  0  0
 12 14  2  0  0  0  0
 13 14  1  0  0  0  0
 15 16  1  0  0  0  0
 16 13  1  1  0  0  0
 17 18  1  6  0  0  0
 17 15  1  0  0  0  0
 17 16  1  0  0  0  0
 19 18  1  0  0  0  0
 20 22  1  0  0  0  0
 20 23  1  0  0  0  0
 21 22  2  0  0  0  0
 22 26  1  0  0  0  0
 23 25  2  0  0  0  0
 24 19  1  0  0  0  0
 25 24  1  0  0  0  0
 26 24  2  0  0  0  0
 27 28  1  0  0  0  0
 28 20  1  0  0  0  0
 29 30  1  0  0  0  0
 30 32  1  0  0  0  0
 32 31  1  6  0  0  0
 32 34  1  0  0  0  0
 34 33  1  1  0  0  0
 34 35  1  0  0  0  0
M  END
>  <MODEL>
6

>  <REMARK>
 VINA RESULT:      -7.4      3.843      5.913
  Name = 
  11 active torsions:
  status: ('A' for Active; 'I' for Inactive)
    1  A    between atoms: C_1  and  N_4
    2  A    between atoms: C_1  and  C_22
    3  A    between atoms: N_7  and  C_32
    4  A    between atoms: N_11  and  C_16
    5  A    between atoms: C_12  and  C_25
    6  A    between atoms: C_20  and  C_24
    7  A    between atoms: C_23  and  C_26
    8  A    between atoms: C_24  and  O_30
    9  A    between atoms: C_24  and  C_34
   10  A    between atoms: C_26  and  N_31
   11  A    between atoms: O_30  and  N_31
                            x       y       z     vdW  Elec       q    Type
                         _______ _______ _______ _____ _____    ______ ____

>  <TORSDO>
F 11

$$$$
=
 OpenBabel10232409383D

 35 37  0  0  1  0  0  0  0  0999 V2000
  189.9740  177.4100  144.4130 C   0  0  1  0  0  3  0  0  0  0  0  0
  187.5180  176.9770  144.4240 C   0  0  0  0  0  3  0  0  0  0  0  0
  186.2320  177.1900  144.6950 C   0  0  0  0  0  3  0  0  0  0  0  0
  185.7200  178.1870  145.6550 C   0  0  0  0  0  0  0  0  0  0  0  0
  187.8370  177.9340  148.7670 C   0  0  0  0  0  1  0  0  0  0  0  0
  188.6200  177.8040  145.0110 C   0  0  1  0  0  3  0  0  0  0  0  0
  187.6290  178.0060  147.2970 C   0  0  0  0  0  0  0  0  0  0  0  0
  188.6460  177.6680  146.5030 C   0  0  0  0  0  3  0  0  0  0  0  0
  186.3250  178.5030  146.8090 C   0  0  0  0  0  3  0  0  0  0  0  0
  183.3570  179.1640  145.2260 N   0  0  0  0  0  0  0  0  0  0  0  0
  184.4120  178.7280  145.4180 C   0  0  0  0  0  0  0  0  0  0  0  0
  189.8540  179.0650  142.6870 O   0  0  0  0  0  0  0  0  0  0  0  0
  190.4860  176.9280  141.9880 N   0  0  0  0  0  2  0  0  0  0  0  0
  190.0960  177.8660  142.9920 C   0  0  0  0  0  0  0  0  0  0  0  0
  190.4830  176.1660  139.7860 O   0  0  0  0  0  0  0  0  0  0  0  0
  190.6260  177.3080  140.5930 C   0  0  1  0  0  3  0  0  0  0  0  0
  189.3680  177.0210  139.8700 C   0  0  1  0  0  3  0  0  0  0  0  0
  189.2960  177.8690  138.6150 C   0  0  0  0  0  2  0  0  0  0  0  0
  187.9380  178.3510  138.4150 N   0  0  0  0  0  2  0  0  0  0  0  0
  184.9280  176.0470  136.7130 N   0  0  0  0  0  0  0  0  0  0  0  0
  186.4470  174.3580  136.4630 O   0  0  0  0  0  0  0  0  0  0  0  0
  186.1860  175.5290  136.8480 C   0  0  0  0  0  0  0  0  0  0  0  0
  184.6670  177.2920  137.1210 N   0  0  0  0  0  0  0  0  0  0  0  0
  186.9080  177.5500  137.8290 C   0  0  0  0  0  0  0  0  0  0  0  0
  185.6280  178.0690  137.6820 C   0  0  0  0  0  3  0  0  0  0  0  0
  187.1650  176.2860  137.4040 N   0  0  0  0  0  0  0  0  0  0  0  0
  182.5300  175.6170  136.7550 C   0  0  0  0  0  1  0  0  0  0  0  0
  183.8570  175.2680  136.1070 C   0  0  0  0  0  2  0  0  0  0  0  0
  191.0180  177.9600  145.1620 O   0  0  0  0  0  0  0  0  0  0  0  0
  192.0460  177.0850  145.0180 N   0  0  0  0  0  2  0  0  0  0  0  0
  192.3590  174.6360  145.0010 C   0  0  0  0  0  1  0  0  0  0  0  0
  191.6920  175.8280  145.6770 C   0  0  1  0  0  3  0  0  0  0  0  0
  193.2490  175.4610  147.4740 F   0  0  0  0  0  0  0  0  0  0  0  0
  191.9630  175.8810  147.1800 C   0  0  2  0  0  3  0  0  0  0  0  0
  191.0440  175.0800  147.8580 O   0  0  0  0  0  1  0  0  0  0  0  0
  1 14  1  6  0  0  0
  1 29  1  0  0  0  0
  2  3  2  0  0  0  0
  2  6  1  0  0  0  0
  3  4  1  0  0  0  0
  4  9  2  0  0  0  0
  6  1  1  6  0  0  0
  6  8  1  0  0  0  0
  7  5  1  0  0  0  0
  8  7  2  0  0  0  0
  9  7  1  0  0  0  0
 10 11  3  0  0  0  0
 11  4  1  0  0  0  0
 12 14  2  0  0  0  0
 13 14  1  0  0  0  0
 15 17  1  0  0  0  0
 15 16  1  0  0  0  0
 16 13  1  1  0  0  0
 17 18  1  6  0  0  0
 17 16  1  0  0  0  0
 19 18  1  0  0  0  0
 20 22  1  0  0  0  0
 20 23  1  0  0  0  0
 21 22  2  0  0  0  0
 22 26  1  0  0  0  0
 23 25  2  0  0  0  0
 24 19  1  0  0  0  0
 25 24  1  0  0  0  0
 26 24  2  0  0  0  0
 28 20  1  0  0  0  0
 28 27  1  0  0  0  0
 30 29  1  0  0  0  0
 30 32  1  0  0  0  0
 32 31  1  6  0  0  0
 32 34  1  0  0  0  0
 34 33  1  6  0  0  0
 34 35  1  0  0  0  0
M  END
>  <MODEL>
7

>  <REMARK>
 VINA RESULT:      -7.3      1.472      1.847
  Name = 
  11 active torsions:
  status: ('A' for Active; 'I' for Inactive)
    1  A    between atoms: C_1  and  N_4
    2  A    between atoms: C_1  and  C_22
    3  A    between atoms: N_7  and  C_32
    4  A    between atoms: N_11  and  C_16
    5  A    between atoms: C_12  and  C_25
    6  A    between atoms: C_20  and  C_24
    7  A    between atoms: C_23  and  C_26
    8  A    between atoms: C_24  and  O_30
    9  A    between atoms: C_24  and  C_34
   10  A    between atoms: C_26  and  N_31
   11  A    between atoms: O_30  and  N_31
                            x       y       z     vdW  Elec       q    Type
                         _______ _______ _______ _____ _____    ______ ____

>  <TORSDO>
F 11

$$$$
=
 OpenBabel10232409383D

 35 37  0  0  1  0  0  0  0  0999 V2000
  189.7640  177.8840  141.0350 C   0  0  1  0  0  3  0  0  0  0  0  0
  190.7440  178.4730  143.2520 C   0  0  0  0  0  3  0  0  0  0  0  0
  191.0480  178.3300  144.5410 C   0  0  0  0  0  3  0  0  0  0  0  0
  190.4590  177.3230  145.4450 C   0  0  0  0  0  0  0  0  0  0  0  0
  186.7400  177.2910  144.8160 C   0  0  0  0  0  1  0  0  0  0  0  0
  189.8120  177.5500  142.5300 C   0  0  1  0  0  3  0  0  0  0  0  0
  188.1650  177.3030  144.3930 C   0  0  0  0  0  0  0  0  0  0  0  0
  188.4390  177.6130  143.1250 C   0  0  0  0  0  3  0  0  0  0  0  0
  189.1840  176.9150  145.3910 C   0  0  0  0  0  3  0  0  0  0  0  0
  191.8970  176.5200  147.4470 N   0  0  0  0  0  0  0  0  0  0  0  0
  191.2560  176.8790  146.5530 C   0  0  0  0  0  0  0  0  0  0  0  0
  192.1240  177.5870  140.7580 O   0  0  0  0  0  0  0  0  0  0  0  0
  190.7860  176.5790  139.1310 N   0  0  0  0  0  2  0  0  0  0  0  0
  190.9660  177.3520  140.3180 C   0  0  0  0  0  0  0  0  0  0  0  0
  191.6540  174.6820  138.0930 O   0  0  0  0  0  0  0  0  0  0  0  0
  191.9110  176.0310  138.3910 C   0  0  1  0  0  3  0  0  0  0  0  0
  191.4620  175.6050  137.0480 C   0  0  1  0  0  3  0  0  0  0  0  0
  192.6520  175.5470  136.1090 C   0  0  0  0  0  2  0  0  0  0  0  0
  193.3040  174.2510  136.2070 N   0  0  0  0  0  2  0  0  0  0  0  0
  197.4090  173.7920  136.6620 N   0  0  0  0  0  0  0  0  0  0  0  0
  197.6080  176.0680  136.5940 O   0  0  0  0  0  0  0  0  0  0  0  0
  196.8730  175.0460  136.5550 C   0  0  0  0  0  0  0  0  0  0  0  0
  196.6180  172.7180  136.6140 N   0  0  0  0  0  0  0  0  0  0  0  0
  194.7180  174.1030  136.3640 C   0  0  0  0  0  0  0  0  0  0  0  0
  195.2740  172.8340  136.4690 C   0  0  0  0  0  3  0  0  0  0  0  0
  195.5320  175.1900  136.4070 N   0  0  0  0  0  0  0  0  0  0  0  0
  199.1560  172.1290  137.0000 C   0  0  0  0  0  1  0  0  0  0  0  0
  198.8450  173.6010  136.8080 C   0  0  0  0  0  2  0  0  0  0  0  0
  188.6100  177.3530  140.4520 O   0  0  0  0  0  0  0  0  0  0  0  0
  188.0330  178.4020  139.8110 N   0  0  0  0  0  2  0  0  0  0  0  0
  186.0820  178.0450  138.3420 C   0  0  0  0  0  1  0  0  0  0  0  0
  187.5960  177.9640  138.4860 C   0  0  1  0  0  3  0  0  0  0  0  0
  189.3680  179.4740  137.8790 F   0  0  0  0  0  0  0  0  0  0  0  0
  188.3350  178.7050  137.3720 C   0  0  2  0  0  3  0  0  0  0  0  0
  187.4450  179.5200  136.6710 O   0  0  0  0  0  1  0  0  0  0  0  0
  1 14  1  6  0  0  0
  2  3  2  0  0  0  0
  3  4  1  0  0  0  0
  4 11  1  0  0  0  0
  6  1  1  6  0  0  0
  6  8  1  0  0  0  0
  6  2  1  0  0  0  0
  7  5  1  0  0  0  0
  7  9  1  0  0  0  0
  8  7  2  0  0  0  0
  9  4  2  0  0  0  0
 11 10  3  0  0  0  0
 13 14  1  0  0  0  0
 14 12  2  0  0  0  0
 15 16  1  0  0  0  0
 16 13  1  1  0  0  0
 17 18  1  6  0  0  0
 17 15  1  0  0  0  0
 17 16  1  0  0  0  0
 18 19  1  0  0  0  0
 19 24  1  0  0  0  0
 20 28  1  0  0  0  0
 22 21  2  0  0  0  0
 22 20  1  0  0  0  0
 23 20  1  0  0  0  0
 24 26  2  0  0  0  0
 24 25  1  0  0  0  0
 25 23  2  0  0  0  0
 26 22  1  0  0  0  0
 28 27  1  0  0  0  0
 29  1  1  0  0  0  0
 30 29  1  0  0  0  0
 32 31  1  1  0  0  0
 32 30  1  0  0  0  0
 34 35  1  1  0  0  0
 34 33  1  0  0  0  0
 34 32  1  0  0  0  0
M  END
>  <MODEL>
8

>  <REMARK>
 VINA RESULT:      -7.2      5.185      8.693
  Name = 
  11 active torsions:
  status: ('A' for Active; 'I' for Inactive)
    1  A    between atoms: C_1  and  N_4
    2  A    between atoms: C_1  and  C_22
    3  A    between atoms: N_7  and  C_32
    4  A    between atoms: N_11  and  C_16
    5  A    between atoms: C_12  and  C_25
    6  A    between atoms: C_20  and  C_24
    7  A    between atoms: C_23  and  C_26
    8  A    between atoms: C_24  and  O_30
    9  A    between atoms: C_24  and  C_34
   10  A    between atoms: C_26  and  N_31
   11  A    between atoms: O_30  and  N_31
                            x       y       z     vdW  Elec       q    Type
                         _______ _______ _______ _____ _____    ______ ____

>  <TORSDO>
F 11

$$$$
=
 OpenBabel10232409383D

 35 37  0  0  1  0  0  0  0  0999 V2000
  187.9180  178.5860  141.0650 C   0  0  1  0  0  3  0  0  0  0  0  0
  189.6380  178.8110  142.8580 C   0  0  0  0  0  3  0  0  0  0  0  0
  190.3570  178.4660  143.9250 C   0  0  0  0  0  3  0  0  0  0  0  0
  190.0500  177.3380  144.8260 C   0  0  0  0  0  0  0  0  0  0  0  0
  186.3490  177.4490  145.5420 C   0  0  0  0  0  1  0  0  0  0  0  0
  188.4550  178.0230  142.3850 C   0  0  1  0  0  3  0  0  0  0  0  0
  187.5380  177.5090  144.6530 C   0  0  0  0  0  0  0  0  0  0  0  0
  187.3790  178.0090  143.4270 C   0  0  0  0  0  3  0  0  0  0  0  0
  188.8110  176.9580  145.1650 C   0  0  0  0  0  3  0  0  0  0  0  0
  192.0350  176.2160  146.0610 N   0  0  0  0  0  0  0  0  0  0  0  0
  191.1490  176.7170  145.5100 C   0  0  0  0  0  0  0  0  0  0  0  0
  188.9770  179.1510  138.9940 O   0  0  0  0  0  0  0  0  0  0  0  0
  189.6230  177.1110  139.9300 N   0  0  0  0  0  2  0  0  0  0  0  0
  188.8610  178.3180  139.9340 C   0  0  0  0  0  0  0  0  0  0  0  0
  190.8560  175.4210  138.9030 O   0  0  0  0  0  0  0  0  0  0  0  0
  190.5580  176.7940  138.8630 C   0  0  1  0  0  3  0  0  0  0  0  0
  189.9340  175.8370  137.9240 C   0  0  1  0  0  3  0  0  0  0  0  0
  190.6350  175.9110  136.5810 C   0  0  0  0  0  2  0  0  0  0  0  0
  191.6250  174.8510  136.4740 N   0  0  0  0  0  2  0  0  0  0  0  0
  195.6270  175.5470  135.6010 N   0  0  0  0  0  0  0  0  0  0  0  0
  195.1440  177.7770  135.4600 O   0  0  0  0  0  0  0  0  0  0  0  0
  194.7520  176.5970  135.6630 C   0  0  0  0  0  0  0  0  0  0  0  0
  195.1960  174.3010  135.8130 N   0  0  0  0  0  0  0  0  0  0  0  0
  193.0000  175.1000  136.1730 C   0  0  0  0  0  0  0  0  0  0  0  0
  193.8970  174.0410  136.1020 C   0  0  0  0  0  3  0  0  0  0  0  0
  193.4470  176.3630  135.9490 N   0  0  0  0  0  0  0  0  0  0  0  0
  197.9030  174.9000  136.1790 C   0  0  0  0  0  1  0  0  0  0  0  0
  197.0330  175.7600  135.2830 C   0  0  0  0  0  2  0  0  0  0  0  0
  186.6730  178.0270  140.7660 O   0  0  0  0  0  0  0  0  0  0  0  0
  185.8550  179.0910  140.5640 N   0  0  0  0  0  2  0  0  0  0  0  0
  183.9300  178.5630  142.0170 C   0  0  0  0  0  1  0  0  0  0  0  0
  184.4660  178.6320  140.5920 C   0  0  1  0  0  3  0  0  0  0  0  0
  182.9190  178.6610  138.7500 F   0  0  0  0  0  0  0  0  0  0  0  0
  183.5760  179.4630  139.6670 C   0  0  2  0  0  3  0  0  0  0  0  0
  184.3440  180.4120  138.9930 O   0  0  0  0  0  1  0  0  0  0  0  0
  1 14  1  6  0  0  0
  2  3  2  0  0  0  0
  3  4  1  0  0  0  0
  4  9  2  0  0  0  0
  4 11  1  0  0  0  0
  6  1  1  6  0  0  0
  6  2  1  0  0  0  0
  6  8  1  0  0  0  0
  7  9  1  0  0  0  0
  7  5  1  0  0  0  0
  8  7  2  0  0  0  0
 11 10  3  0  0  0  0
 12 14  2  0  0  0  0
 13 14  1  0  0  0  0
 16 15  1  0  0  0  0
 16 13  1  1  0  0  0
 17 18  1  6  0  0  0
 17 16  1  0  0  0  0
 17 15  1  0  0  0  0
 19 18  1  0  0  0  0
 20 22  1  0  0  0  0
 20 23  1  0  0  0  0
 21 22  2  0  0  0  0
 22 26  1  0  0  0  0
 23 25  2  0  0  0  0
 24 19  1  0  0  0  0
 25 24  1  0  0  0  0
 26 24  2  0  0  0  0
 28 20  1  0  0  0  0
 28 27  1  0  0  0  0
 29  1  1  0  0  0  0
 30 32  1  0  0  0  0
 30 29  1  0  0  0  0
 32 31  1  1  0  0  0
 34 33  1  6  0  0  0
 34 32  1  0  0  0  0
 35 34  1  0  0  0  0
M  END
>  <MODEL>
9

>  <REMARK>
 VINA RESULT:      -7.2      4.552      8.071
  Name = 
  11 active torsions:
  status: ('A' for Active; 'I' for Inactive)
    1  A    between atoms: C_1  and  N_4
    2  A    between atoms: C_1  and  C_22
    3  A    between atoms: N_7  and  C_32
    4  A    between atoms: N_11  and  C_16
    5  A    between atoms: C_12  and  C_25
    6  A    between atoms: C_20  and  C_24
    7  A    between atoms: C_23  and  C_26
    8  A    between atoms: C_24  and  O_30
    9  A    between atoms: C_24  and  C_34
   10  A    between atoms: C_26  and  N_31
   11  A    between atoms: O_30  and  N_31
                            x       y       z     vdW  Elec       q    Type
                         _______ _______ _______ _____ _____    ______ ____

>  <TORSDO>
F 11

$$$$
