=
 OpenBabel10232412283D

 55 59  0  0  1  0  0  0  0  0999 V2000
  188.8050  177.5380  134.8530 F   0  0  0  0  0  0  0  0  0  0  0  0
  188.7040  178.5750  136.9610 C   0  0  0  0  0  0  0  0  0  0  0  0
  186.2790  176.8750  136.3080 C   0  0  0  0  0  0  0  0  0  0  0  0
  186.9820  176.3990  137.4270 O   0  0  0  0  0  0  0  0  0  0  0  0
  191.7630  174.6120  136.8760 C   0  0  0  0  0  2  0  0  0  0  0  0
  189.7490  176.0830  138.2240 C   0  0  1  0  0  0  0  0  0  0  0  0
  186.1120  178.2490  134.3460 O   0  0  0  0  0  1  0  0  0  0  0  0
  191.0610  176.7850  137.8390 C   0  0  0  0  0  2  0  0  0  0  0  0
  188.3800  177.1930  138.0260 P   0  0  1  0  0  4  0  0  0  0  0  0
  185.2880  176.1890  135.8200 N   0  0  0  0  0  0  0  0  0  0  0  0
  186.6370  178.1970  135.6400 C   0  0  2  0  0  3  0  0  0  0  0  0
  189.3040  176.9420  140.2610 C   0  0  2  0  0  3  0  0  0  0  0  0
  189.5700  174.8160  137.3790 C   0  0  0  0  0  2  0  0  0  0  0  0
  192.2290  175.8010  137.7040 C   0  0  2  0  0  3  0  0  0  0  0  0
  188.1410  178.5110  135.5860 C   0  0  2  0  0  3  0  0  0  0  0  0
  188.2140  177.6080  139.6410 O   0  0  0  0  0  0  0  0  0  0  0  0
  190.6880  173.9710  137.5160 O   0  0  0  0  0  0  0  0  0  0  0  0
  189.7260  175.7680  139.5830 O   0  0  0  0  0  0  0  0  0  0  0  0
  189.3710  179.5280  137.3380 O   0  0  0  0  0  0  0  0  0  0  0  0
  186.5200  177.5720  144.4800 C   0  0  0  0  0  2  0  0  0  0  0  0
  189.0580  176.6110  141.7410 C   0  0  1  0  0  3  0  0  0  0  0  0
  191.3140  178.1540  144.2010 C   0  0  0  0  0  2  0  0  0  0  0  0
  191.0390  177.9160  142.7030 C   0  0  0  0  0  2  0  0  0  0  0  0
  186.7720  177.7370  141.6510 C   0  0  0  0  0  2  0  0  0  0  0  0
  190.4070  176.5380  142.4790 C   0  0  0  0  0  2  0  0  0  0  0  0
  187.8760  177.4840  143.8460 C   0  0  0  0  0  0  0  0  0  0  0  0
  188.9240  177.8040  144.5480 C   0  0  0  0  0  0  0  0  0  0  0  0
  186.0370  178.8960  142.3220 C   0  0  0  0  0  2  0  0  0  0  0  0
  184.3090  177.8950  143.6460 O   0  0  0  0  0  1  0  0  0  0  0  0
  190.0800  178.1040  145.0730 C   0  0  0  0  0  3  0  0  0  0  0  0
  187.9870  177.4080  142.4050 N   0  0  0  0  0  0  0  0  0  0  0  0
  185.5560  178.5220  143.7420 C   0  0  1  0  0  0  0  0  0  0  0  0
  185.5320  179.5120  146.0900 C   0  0  0  0  0  1  0  0  0  0  0  0
  185.4180  179.7860  144.5940 C   0  0  0  0  0  2  0  0  0  0  0  0
  184.7650  174.9820  136.3350 N   0  0  0  0  0  2  0  0  0  0  0  0
  183.4470  174.7780  136.8720 C   0  0  0  0  0  0  0  0  0  0  0  0
  182.6190  175.7220  136.9560 O   0  0  0  0  0  0  0  0  0  0  0  0
  183.0640  173.4800  137.3240 N   0  0  0  0  0  0  0  0  0  0  0  0
  182.6470  172.5260  136.5370 C   0  0  0  0  0  3  0  0  0  0  0  0
  182.4330  172.7090  135.0660 C   0  0  0  0  0  2  0  0  0  0  0  0
  183.6270  172.3020  134.3460 N   0  0  0  0  0  2  0  0  0  0  0  0
  183.9010  170.9190  134.6990 C   0  0  0  0  0  2  0  0  0  0  0  0
  185.3980  170.6490  134.6620 C   0  0  0  0  0  2  0  0  0  0  0  0
  186.9200  172.4810  134.6920 O   0  0  0  0  0  1  0  0  0  0  0  0
  186.1440  171.6660  135.5110 C   0  0  0  0  0  2  0  0  0  0  0  0
  193.4180  176.4620  137.0120 C   0  0  0  0  0  2  0  0  0  0  0  0
  194.7250  175.7220  137.3050 C   0  0  2  0  0  3  0  0  0  0  0  0
  195.4790  175.5230  135.9890 C   0  0  2  0  0  3  0  0  0  0  0  0
  196.1340  176.6980  135.5870 O   0  0  0  0  0  1  0  0  0  0  0  0
  194.5890  174.9670  134.8750 C   0  0  0  0  0  2  0  0  0  0  0  0
  194.8610  173.4970  134.5950 C   0  0  0  0  0  1  0  0  0  0  0  0
  194.4760  174.4650  137.9300 O   0  0  0  0  0  0  0  0  0  0  0  0
  196.2980  174.6130  139.6230 C   0  0  0  0  0  1  0  0  0  0  0  0
  195.4050  173.8120  138.7450 C   0  0  0  0  0  0  0  0  0  0  0  0
  195.5240  172.5560  138.7220 O   0  0  0  0  0  0  0  0  0  0  0  0
  2 19  2  0  0  0  0
  3  4  1  0  0  0  0
  4  9  1  0  0  0  0
  5 17  1  0  0  0  0
  5 14  1  0  0  0  0
  6 13  1  6  0  0  0
  6 18  1  0  0  0  0
  8  6  1  0  0  0  0
  9  2  1  6  0  0  0
  9  6  1  0  0  0  0
  9 16  1  0  0  0  0
 10  3  2  0  0  0  0
 10 35  1  0  0  0  0
 11  7  1  6  0  0  0
 11  3  1  0  0  0  0
 12 18  1  6  0  0  0
 12 21  1  0  0  0  0
 13 17  1  0  0  0  0
 14 46  1  6  0  0  0
 14  8  1  0  0  0  0
 15  1  1  6  0  0  0
 15 11  1  0  0  0  0
 15  2  1  0  0  0  0
 16 12  1  0  0  0  0
 21 31  1  0  0  0  0
 21 25  1  1  0  0  0
 22 30  1  0  0  0  0
 23 22  1  0  0  0  0
 24 28  1  0  0  0  0
 24 31  1  0  0  0  0
 25 23  1  0  0  0  0
 26 20  1  0  0  0  0
 26 27  2  0  0  0  0
 27 30  2  0  0  0  0
 28 32  1  0  0  0  0
 31 26  1  0  0  0  0
 32 29  1  6  0  0  0
 32 20  1  0  0  0  0
 32 34  1  0  0  0  0
 34 33  1  0  0  0  0
 35 36  1  0  0  0  0
 36 37  2  0  0  0  0
 36 38  1  0  0  0  0
 39 38  2  0  0  0  0
 40 39  1  0  0  0  0
 41 42  1  0  0  0  0
 41 40  1  0  0  0  0
 43 42  1  0  0  0  0
 43 45  1  0  0  0  0
 44 45  1  0  0  0  0
 47 46  1  6  0  0  0
 47 52  1  0  0  0  0
 48 49  1  6  0  0  0
 48 47  1  0  0  0  0
 50 48  1  0  0  0  0
 51 50  1  0  0  0  0
 52 54  1  0  0  0  0
 54 53  1  0  0  0  0
 55 54  2  0  0  0  0
M  END
>  <MODEL>
1

>  <REMARK>
 VINA RESULT:      -6.7      0.000      0.000
  Name = 
  15 active torsions:
  status: ('A' for Active; 'I' for Inactive)
    1  A    between atoms: N_1  and  C_10
    2  A    between atoms: N_3  and  N_29
    3  A    between atoms: C_4  and  C_38
    4  A    between atoms: C_4  and  C_50
    5  A    between atoms: C_6  and  C_25
    6  A    between atoms: C_6  and  C_42
    7  A    between atoms: O_11  and  C_41
    8  A    between atoms: O_11  and  C_50
    9  A    between atoms: C_12  and  C_55
   10  A    between atoms: C_15  and  C_33
   11  A    between atoms: C_21  and  C_22
   12  A    between atoms: C_21  and  C_50
   13  A    between atoms: C_24  and  C_49
   14  A    between atoms: N_40  and  C_42
   15  A    between atoms: N_40  and  C_49
                            x       y       z     vdW  Elec       q    Type
                         _______ _______ _______ _____ _____    ______ ____

>  <TORSDO>
F 15

$$$$
=
 OpenBabel10232412283D

 55 59  0  0  1  0  0  0  0  0999 V2000
  188.9160  177.3790  134.7730 F   0  0  0  0  0  0  0  0  0  0  0  0
  188.9070  178.4760  136.8520 C   0  0  0  0  0  0  0  0  0  0  0  0
  186.4400  176.7900  136.3390 C   0  0  0  0  0  0  0  0  0  0  0  0
  187.1780  176.3370  137.4440 O   0  0  0  0  0  0  0  0  0  0  0  0
  191.9130  174.4730  136.7680 C   0  0  0  0  0  2  0  0  0  0  0  0
  189.9690  176.0070  138.1470 C   0  0  1  0  0  0  0  0  0  0  0  0
  186.2160  178.1090  134.3460 O   0  0  0  0  0  1  0  0  0  0  0  0
  191.2730  176.6810  137.6940 C   0  0  0  0  0  2  0  0  0  0  0  0
  188.6060  177.1290  137.9680 P   0  0  1  0  0  4  0  0  0  0  0  0
  185.4220  176.1030  135.9080 N   0  0  0  0  0  0  0  0  0  0  0  0
  186.7880  178.0870  135.6210 C   0  0  2  0  0  3  0  0  0  0  0  0
  189.6110  176.9290  140.1740 C   0  0  2  0  0  3  0  0  0  0  0  0
  189.7430  174.7200  137.3460 C   0  0  0  0  0  2  0  0  0  0  0  0
  192.4240  175.6790  137.5440 C   0  0  2  0  0  3  0  0  0  0  0  0
  188.2920  178.3800  135.5020 C   0  0  2  0  0  3  0  0  0  0  0  0
  188.5060  177.5920  139.5760 O   0  0  0  0  0  0  0  0  0  0  0  0
  190.8550  173.8640  137.4660 O   0  0  0  0  0  0  0  0  0  0  0  0
  189.9930  175.7310  139.5150 O   0  0  0  0  0  0  0  0  0  0  0  0
  189.5990  179.4300  137.1770 O   0  0  0  0  0  0  0  0  0  0  0  0
  186.9030  177.5910  144.4380 C   0  0  0  0  0  2  0  0  0  0  0  0
  189.4160  176.6430  141.6700 C   0  0  1  0  0  3  0  0  0  0  0  0
  191.6570  178.3810  144.0130 C   0  0  0  0  0  2  0  0  0  0  0  0
  191.3570  178.0740  142.5320 C   0  0  0  0  0  2  0  0  0  0  0  0
  187.0790  177.6600  141.5990 C   0  0  0  0  0  2  0  0  0  0  0  0
  190.7850  176.6600  142.3760 C   0  0  0  0  0  2  0  0  0  0  0  0
  188.2460  177.5410  143.7720 C   0  0  0  0  0  0  0  0  0  0  0  0
  189.2950  177.9350  144.4350 C   0  0  0  0  0  0  0  0  0  0  0  0
  186.3070  178.8090  142.2460 C   0  0  0  0  0  2  0  0  0  0  0  0
  184.6600  177.7800  143.6500 O   0  0  0  0  0  1  0  0  0  0  0  0
  190.4480  178.3070  144.9180 C   0  0  0  0  0  3  0  0  0  0  0  0
  188.3250  177.4150  142.3320 N   0  0  0  0  0  0  0  0  0  0  0  0
  185.8780  178.4670  143.6900 C   0  0  1  0  0  0  0  0  0  0  0  0
  185.5320  179.5020  145.9930 C   0  0  0  0  0  1  0  0  0  0  0  0
  185.7020  179.7540  144.4990 C   0  0  0  0  0  2  0  0  0  0  0  0
  184.9040  174.9180  136.4770 N   0  0  0  0  0  2  0  0  0  0  0  0
  183.5190  174.6120  136.7090 C   0  0  0  0  0  0  0  0  0  0  0  0
  182.6100  175.4370  136.4350 O   0  0  0  0  0  0  0  0  0  0  0  0
  183.1610  173.3480  137.2660 N   0  0  0  0  0  0  0  0  0  0  0  0
  183.7660  172.2270  136.9820 C   0  0  0  0  0  3  0  0  0  0  0  0
  184.8570  172.1170  135.9630 C   0  0  0  0  0  2  0  0  0  0  0  0
  184.5130  171.0970  134.9890 N   0  0  0  0  0  2  0  0  0  0  0  0
  183.9040  169.9920  135.7090 C   0  0  0  0  0  2  0  0  0  0  0  0
  182.7030  169.4580  134.9420 C   0  0  0  0  0  2  0  0  0  0  0  0
  180.4810  170.0770  134.3470 O   0  0  0  0  0  1  0  0  0  0  0  0
  181.7530  170.5900  134.5850 C   0  0  0  0  0  2  0  0  0  0  0  0
  193.5950  176.3050  136.7900 C   0  0  0  0  0  2  0  0  0  0  0  0
  194.6770  175.2720  136.4700 C   0  0  2  0  0  3  0  0  0  0  0  0
  195.7680  175.3600  137.5380 C   0  0  2  0  0  3  0  0  0  0  0  0
  197.0000  174.8870  137.0570 O   0  0  0  0  0  1  0  0  0  0  0  0
  195.3740  174.6670  138.8450 C   0  0  0  0  0  2  0  0  0  0  0  0
  196.4750  174.7380  139.8930 C   0  0  0  0  0  1  0  0  0  0  0  0
  195.2310  175.4910  135.1740 O   0  0  0  0  0  0  0  0  0  0  0  0
  195.5840  177.8990  134.6420 C   0  0  0  0  0  1  0  0  0  0  0  0
  196.1160  176.5310  134.8800 C   0  0  0  0  0  0  0  0  0  0  0  0
  197.3570  176.3230  134.7760 O   0  0  0  0  0  0  0  0  0  0  0  0
  2 19  2  0  0  0  0
  3  4  1  0  0  0  0
  4  9  1  0  0  0  0
  5 17  1  0  0  0  0
  5 14  1  0  0  0  0
  6 13  1  6  0  0  0
  6 18  1  0  0  0  0
  8  6  1  0  0  0  0
  9  2  1  6  0  0  0
  9  6  1  0  0  0  0
  9 16  1  0  0  0  0
 10  3  2  0  0  0  0
 10 35  1  0  0  0  0
 11  7  1  6  0  0  0
 11  3  1  0  0  0  0
 12 18  1  6  0  0  0
 12 21  1  0  0  0  0
 13 17  1  0  0  0  0
 14 46  1  6  0  0  0
 14  8  1  0  0  0  0
 15  1  1  6  0  0  0
 15 11  1  0  0  0  0
 15  2  1  0  0  0  0
 16 12  1  0  0  0  0
 21 31  1  0  0  0  0
 21 25  1  1  0  0  0
 22 30  1  0  0  0  0
 23 22  1  0  0  0  0
 24 28  1  0  0  0  0
 24 31  1  0  0  0  0
 25 23  1  0  0  0  0
 26 27  2  0  0  0  0
 26 20  1  0  0  0  0
 27 30  2  0  0  0  0
 28 32  1  0  0  0  0
 31 26  1  0  0  0  0
 32 29  1  6  0  0  0
 32 20  1  0  0  0  0
 32 34  1  0  0  0  0
 34 33  1  0  0  0  0
 35 36  1  0  0  0  0
 36 38  1  0  0  0  0
 37 36  2  0  0  0  0
 39 38  2  0  0  0  0
 40 39  1  0  0  0  0
 41 42  1  0  0  0  0
 41 40  1  0  0  0  0
 43 42  1  0  0  0  0
 44 45  1  0  0  0  0
 45 43  1  0  0  0  0
 47 46  1  1  0  0  0
 47 48  1  0  0  0  0
 48 49  1  6  0  0  0
 48 50  1  0  0  0  0
 50 51  1  0  0  0  0
 52 47  1  0  0  0  0
 53 54  1  0  0  0  0
 54 52  1  0  0  0  0
 55 54  2  0  0  0  0
M  END
>  <MODEL>
2

>  <REMARK>
 VINA RESULT:      -5.3      1.261      2.148
  Name = 
  15 active torsions:
  status: ('A' for Active; 'I' for Inactive)
    1  A    between atoms: N_1  and  C_10
    2  A    between atoms: N_3  and  N_29
    3  A    between atoms: C_4  and  C_38
    4  A    between atoms: C_4  and  C_50
    5  A    between atoms: C_6  and  C_25
    6  A    between atoms: C_6  and  C_42
    7  A    between atoms: O_11  and  C_41
    8  A    between atoms: O_11  and  C_50
    9  A    between atoms: C_12  and  C_55
   10  A    between atoms: C_15  and  C_33
   11  A    between atoms: C_21  and  C_22
   12  A    between atoms: C_21  and  C_50
   13  A    between atoms: C_24  and  C_49
   14  A    between atoms: N_40  and  C_42
   15  A    between atoms: N_40  and  C_49
                            x       y       z     vdW  Elec       q    Type
                         _______ _______ _______ _____ _____    ______ ____

>  <TORSDO>
F 15

$$$$
=
 OpenBabel10232412283D

 55 59  0  0  1  0  0  0  0  0999 V2000
  188.1610  173.7890  134.6790 F   0  0  0  0  0  0  0  0  0  0  0  0
  187.8220  174.0250  136.9940 C   0  0  0  0  0  0  0  0  0  0  0  0
  190.6600  174.6090  136.0990 C   0  0  0  0  0  0  0  0  0  0  0  0
  190.0360  175.7310  136.6680 O   0  0  0  0  0  0  0  0  0  0  0  0
  185.9800  177.8560  134.3480 C   0  0  0  0  0  2  0  0  0  0  0  0
  187.4120  176.9570  136.6230 C   0  0  1  0  0  0  0  0  0  0  0  0
  190.5850  172.4060  135.1480 O   0  0  0  0  0  1  0  0  0  0  0  0
  185.9890  176.4310  136.3750 C   0  0  0  0  0  2  0  0  0  0  0  0
  188.4350  175.6660  137.2810 P   0  0  1  0  0  4  0  0  0  0  0  0
  191.8340  174.7240  135.5500 N   0  0  0  0  0  0  0  0  0  0  0  0
  190.0030  173.2350  136.1110 C   0  0  2  0  0  3  0  0  0  0  0  0
  187.4570  177.2350  138.8610 C   0  0  2  0  0  3  0  0  0  0  0  0
  187.9910  177.5220  135.3210 C   0  0  0  0  0  2  0  0  0  0  0  0
  185.1480  177.4020  135.5390 C   0  0  2  0  0  3  0  0  0  0  0  0
  188.4790  173.2420  135.9130 C   0  0  2  0  0  3  0  0  0  0  0  0
  188.3650  176.1430  138.8860 O   0  0  0  0  0  0  0  0  0  0  0  0
  187.1410  178.5120  134.7930 O   0  0  0  0  0  0  0  0  0  0  0  0
  187.4220  177.9300  137.6230 O   0  0  0  0  0  0  0  0  0  0  0  0
  186.8950  173.5680  137.6460 O   0  0  0  0  0  0  0  0  0  0  0  0
  189.8250  178.4860  143.1940 C   0  0  0  0  0  2  0  0  0  0  0  0
  187.6780  178.2410  140.0000 C   0  0  1  0  0  3  0  0  0  0  0  0
  185.0320  178.5020  142.5410 C   0  0  0  0  0  2  0  0  0  0  0  0
  185.4320  177.8970  141.1800 C   0  0  0  0  0  2  0  0  0  0  0  0
  189.7070  176.9290  140.8160 C   0  0  0  0  0  2  0  0  0  0  0  0
  186.3280  178.8650  140.3990 C   0  0  0  0  0  2  0  0  0  0  0  0
  188.5490  178.4200  142.4090 C   0  0  0  0  0  0  0  0  0  0  0  0
  187.4210  178.6510  143.0150 C   0  0  0  0  0  0  0  0  0  0  0  0
  190.1660  176.1910  142.0720 C   0  0  0  0  0  2  0  0  0  0  0  0
  191.9760  177.4840  142.9630 O   0  0  0  0  0  1  0  0  0  0  0  0
  186.2010  178.8240  143.4440 C   0  0  0  0  0  3  0  0  0  0  0  0
  188.5370  177.7600  141.1200 N   0  0  0  0  0  0  0  0  0  0  0  0
  190.6290  177.1710  143.1730 C   0  0  1  0  0  0  0  0  0  0  0  0
  191.6170  176.8530  145.5000 C   0  0  0  0  0  1  0  0  0  0  0  0
  190.4740  176.5190  144.5490 C   0  0  0  0  0  2  0  0  0  0  0  0
  192.6290  175.8900  135.4980 N   0  0  0  0  0  2  0  0  0  0  0  0
  193.8610  176.1200  136.2020 C   0  0  0  0  0  0  0  0  0  0  0  0
  194.3390  175.2610  136.9880 O   0  0  0  0  0  0  0  0  0  0  0  0
  194.5610  177.3490  136.0130 N   0  0  0  0  0  0  0  0  0  0  0  0
  195.6990  177.4520  135.3830 C   0  0  0  0  0  3  0  0  0  0  0  0
  196.4560  176.2730  134.8560 C   0  0  0  0  0  2  0  0  0  0  0  0
  197.4430  175.8510  135.8340 N   0  0  0  0  0  2  0  0  0  0  0  0
  197.4820  174.3980  135.8180 C   0  0  0  0  0  2  0  0  0  0  0  0
  197.7760  173.8600  137.2100 C   0  0  0  0  0  2  0  0  0  0  0  0
  199.3480  174.9640  138.6180 O   0  0  0  0  0  1  0  0  0  0  0  0
  198.0280  175.0040  138.1810 C   0  0  0  0  0  2  0  0  0  0  0  0
  183.8760  176.7240  135.0370 C   0  0  0  0  0  2  0  0  0  0  0  0
  183.1660  175.9560  136.1530 C   0  0  2  0  0  3  0  0  0  0  0  0
  182.8370  174.5500  135.6470 C   0  0  2  0  0  3  0  0  0  0  0  0
  181.4510  174.3380  135.5770 O   0  0  0  0  0  1  0  0  0  0  0  0
  183.5320  173.4520  136.4570 C   0  0  0  0  0  2  0  0  0  0  0  0
  182.7110  172.1740  136.5230 C   0  0  0  0  0  1  0  0  0  0  0  0
  181.9770  176.6260  136.5650 O   0  0  0  0  0  0  0  0  0  0  0  0
  182.6320  178.2650  138.3240 C   0  0  0  0  0  1  0  0  0  0  0  0
  181.9580  177.9410  137.0390 C   0  0  0  0  0  0  0  0  0  0  0  0
  181.3470  178.8510  136.4140 O   0  0  0  0  0  0  0  0  0  0  0  0
  2  9  1  0  0  0  0
  2 19  2  0  0  0  0
  3 11  1  0  0  0  0
  3  4  1  0  0  0  0
  5 17  1  0  0  0  0
  5 14  1  0  0  0  0
  6 13  1  6  0  0  0
  6  9  1  0  0  0  0
  6 18  1  0  0  0  0
  8  6  1  0  0  0  0
  9  4  1  6  0  0  0
  9 16  1  0  0  0  0
 10  3  2  0  0  0  0
 11  7  1  6  0  0  0
 12 18  1  6  0  0  0
 12 16  1  0  0  0  0
 12 21  1  0  0  0  0
 14 46  1  6  0  0  0
 14  8  1  0  0  0  0
 15  1  1  6  0  0  0
 15 11  1  0  0  0  0
 15  2  1  0  0  0  0
 17 13  1  0  0  0  0
 21 25  1  1  0  0  0
 21 31  1  0  0  0  0
 22 30  1  0  0  0  0
 23 22  1  0  0  0  0
 24 31  1  0  0  0  0
 24 28  1  0  0  0  0
 25 23  1  0  0  0  0
 26 27  2  0  0  0  0
 26 20  1  0  0  0  0
 27 30  2  0  0  0  0
 28 32  1  0  0  0  0
 31 26  1  0  0  0  0
 32 29  1  6  0  0  0
 32 20  1  0  0  0  0
 32 34  1  0  0  0  0
 34 33  1  0  0  0  0
 35 10  1  0  0  0  0
 35 36  1  0  0  0  0
 36 37  2  0  0  0  0
 38 36  1  0  0  0  0
 39 38  2  0  0  0  0
 40 39  1  0  0  0  0
 40 41  1  0  0  0  0
 42 41  1  0  0  0  0
 42 43  1  0  0  0  0
 43 45  1  0  0  0  0
 45 44  1  0  0  0  0
 47 46  1  6  0  0  0
 47 52  1  0  0  0  0
 48 49  1  1  0  0  0
 48 47  1  0  0  0  0
 48 50  1  0  0  0  0
 50 51  1  0  0  0  0
 52 54  1  0  0  0  0
 54 53  1  0  0  0  0
 55 54  2  0  0  0  0
M  END
>  <MODEL>
3

>  <REMARK>
 VINA RESULT:      -5.2      3.150      8.877
  Name = 
  15 active torsions:
  status: ('A' for Active; 'I' for Inactive)
    1  A    between atoms: N_1  and  C_10
    2  A    between atoms: N_3  and  N_29
    3  A    between atoms: C_4  and  C_38
    4  A    between atoms: C_4  and  C_50
    5  A    between atoms: C_6  and  C_25
    6  A    between atoms: C_6  and  C_42
    7  A    between atoms: O_11  and  C_41
    8  A    between atoms: O_11  and  C_50
    9  A    between atoms: C_12  and  C_55
   10  A    between atoms: C_15  and  C_33
   11  A    between atoms: C_21  and  C_22
   12  A    between atoms: C_21  and  C_50
   13  A    between atoms: C_24  and  C_49
   14  A    between atoms: N_40  and  C_42
   15  A    between atoms: N_40  and  C_49
                            x       y       z     vdW  Elec       q    Type
                         _______ _______ _______ _____ _____    ______ ____

>  <TORSDO>
F 15

$$$$
=
 OpenBabel10232412283D

 55 59  0  0  1  0  0  0  0  0999 V2000
  186.1000  176.3510  137.2950 F   0  0  0  0  0  0  0  0  0  0  0  0
  187.9510  176.7550  135.9030 C   0  0  0  0  0  0  0  0  0  0  0  0
  188.4820  177.2860  138.8400 C   0  0  0  0  0  0  0  0  0  0  0  0
  189.2890  176.2590  138.3270 O   0  0  0  0  0  0  0  0  0  0  0  0
  187.1440  171.8820  136.7170 C   0  0  0  0  0  2  0  0  0  0  0  0
  188.9880  174.0250  136.5070 C   0  0  1  0  0  0  0  0  0  0  0  0
  186.5930  178.7620  138.6940 O   0  0  0  0  0  1  0  0  0  0  0  0
  188.0490  173.7240  135.3290 C   0  0  0  0  0  2  0  0  0  0  0  0
  189.2080  175.7760  136.6830 P   0  0  1  0  0  4  0  0  0  0  0  0
  188.4950  177.5530  140.1140 N   0  0  0  0  0  0  0  0  0  0  0  0
  187.5820  178.1230  137.9400 C   0  0  2  0  0  3  0  0  0  0  0  0
  190.9270  174.5460  135.4800 C   0  0  2  0  0  3  0  0  0  0  0  0
  188.4280  173.4000  137.7900 C   0  0  0  0  0  2  0  0  0  0  0  0
  187.5880  172.2620  135.3110 C   0  0  2  0  0  3  0  0  0  0  0  0
  186.9160  177.3520  136.7890 C   0  0  2  0  0  3  0  0  0  0  0  0
  190.7040  175.8730  135.9330 O   0  0  0  0  0  0  0  0  0  0  0  0
  188.2180  172.0190  137.6140 O   0  0  0  0  0  0  0  0  0  0  0  0
  190.2770  173.5520  136.2590 O   0  0  0  0  0  0  0  0  0  0  0  0
  187.9300  176.9190  134.6910 O   0  0  0  0  0  0  0  0  0  0  0  0
  194.5790  170.9960  135.3520 C   0  0  0  0  0  2  0  0  0  0  0  0
  192.4140  174.1880  135.3430 C   0  0  1  0  0  3  0  0  0  0  0  0
  194.5780  174.8810  138.2350 C   0  0  0  0  0  2  0  0  0  0  0  0
  193.1740  175.0670  137.6240 C   0  0  0  0  0  2  0  0  0  0  0  0
  191.8360  171.7150  135.1090 C   0  0  0  0  0  2  0  0  0  0  0  0
  193.2620  175.2250  136.1020 C   0  0  0  0  0  2  0  0  0  0  0  0
  194.1090  172.3290  135.8550 C   0  0  0  0  0  0  0  0  0  0  0  0
  194.7930  172.9300  136.7850 C   0  0  0  0  0  0  0  0  0  0  0  0
  192.1170  170.3990  135.8310 C   0  0  0  0  0  2  0  0  0  0  0  0
  193.4990  169.1220  134.3460 O   0  0  0  0  0  1  0  0  0  0  0  0
  195.3220  173.6690  137.7210 C   0  0  0  0  0  3  0  0  0  0  0  0
  192.7530  172.7560  135.5870 N   0  0  0  0  0  0  0  0  0  0  0  0
  193.5380  169.8720  135.5270 C   0  0  1  0  0  0  0  0  0  0  0  0
  195.5370  168.9110  136.7800 C   0  0  0  0  0  1  0  0  0  0  0  0
  194.0180  168.9790  136.6730 C   0  0  0  0  0  2  0  0  0  0  0  0
  189.3060  176.9390  141.0940 N   0  0  0  0  0  2  0  0  0  0  0  0
  190.6970  177.1990  141.3430 C   0  0  0  0  0  0  0  0  0  0  0  0
  191.3460  178.0230  140.6470 O   0  0  0  0  0  0  0  0  0  0  0  0
  191.3650  176.5110  142.4000 N   0  0  0  0  0  0  0  0  0  0  0  0
  191.2000  176.7800  143.6660 C   0  0  0  0  0  3  0  0  0  0  0  0
  190.3530  177.9120  144.1620 C   0  0  0  0  0  2  0  0  0  0  0  0
  189.4470  177.4290  145.1890 N   0  0  0  0  0  2  0  0  0  0  0  0
  188.1060  177.8530  144.8230 C   0  0  0  0  0  2  0  0  0  0  0  0
  187.0830  177.2560  145.7790 C   0  0  0  0  0  2  0  0  0  0  0  0
  187.6750  178.1030  147.9240 O   0  0  0  0  0  1  0  0  0  0  0  0
  186.7550  178.2400  146.8900 C   0  0  0  0  0  2  0  0  0  0  0  0
  186.4200  172.0730  134.3460 C   0  0  0  0  0  2  0  0  0  0  0  0
  185.1090  171.8130  135.0900 C   0  0  2  0  0  3  0  0  0  0  0  0
  184.4970  170.5140  134.5640 C   0  0  2  0  0  3  0  0  0  0  0  0
  183.1550  170.3810  134.9560 O   0  0  0  0  0  1  0  0  0  0  0  0
  185.3170  169.2780  134.9430 C   0  0  0  0  0  2  0  0  0  0  0  0
  184.4420  168.0640  135.2170 C   0  0  0  0  0  1  0  0  0  0  0  0
  184.1970  172.8970  134.9200 O   0  0  0  0  0  0  0  0  0  0  0  0
  184.0690  173.7870  137.2430 C   0  0  0  0  0  1  0  0  0  0  0  0
  184.1450  174.0010  135.7740 C   0  0  0  0  0  0  0  0  0  0  0  0
  184.1250  175.1790  135.3190 O   0  0  0  0  0  0  0  0  0  0  0  0
  2 15  1  0  0  0  0
  3 10  2  0  0  0  0
  4  3  1  0  0  0  0
  5 17  1  0  0  0  0
  6  8  1  6  0  0  0
  6  9  1  0  0  0  0
  6 13  1  0  0  0  0
  9  2  1  6  0  0  0
  9  4  1  0  0  0  0
 10 35  1  0  0  0  0
 11  7  1  1  0  0  0
 11  3  1  0  0  0  0
 12 16  1  1  0  0  0
 12 18  1  0  0  0  0
 14 46  1  6  0  0  0
 14  8  1  0  0  0  0
 14  5  1  0  0  0  0
 15  1  1  1  0  0  0
 15 11  1  0  0  0  0
 16  9  1  0  0  0  0
 17 13  1  0  0  0  0
 18  6  1  0  0  0  0
 19  2  2  0  0  0  0
 20 32  1  0  0  0  0
 20 26  1  0  0  0  0
 21 12  1  0  0  0  0
 21 31  1  0  0  0  0
 21 25  1  1  0  0  0
 23 22  1  0  0  0  0
 24 31  1  0  0  0  0
 24 28  1  0  0  0  0
 25 23  1  0  0  0  0
 26 27  2  0  0  0  0
 27 30  2  0  0  0  0
 30 22  1  0  0  0  0
 31 26  1  0  0  0  0
 32 29  1  6  0  0  0
 32 28  1  0  0  0  0
 32 34  1  0  0  0  0
 34 33  1  0  0  0  0
 35 36  1  0  0  0  0
 36 38  1  0  0  0  0
 37 36  2  0  0  0  0
 38 39  2  0  0  0  0
 39 40  1  0  0  0  0
 40 41  1  0  0  0  0
 42 41  1  0  0  0  0
 42 43  1  0  0  0  0
 43 45  1  0  0  0  0
 45 44  1  0  0  0  0
 47 46  1  6  0  0  0
 48 50  1  0  0  0  0
 48 49  1  1  0  0  0
 48 47  1  0  0  0  0
 50 51  1  0  0  0  0
 52 47  1  0  0  0  0
 52 54  1  0  0  0  0
 54 53  1  0  0  0  0
 55 54  2  0  0  0  0
M  END
>  <MODEL>
4

>  <REMARK>
 VINA RESULT:      -5.1      3.030      9.812
  Name = 
  15 active torsions:
  status: ('A' for Active; 'I' for Inactive)
    1  A    between atoms: N_1  and  C_10
    2  A    between atoms: N_3  and  N_29
    3  A    between atoms: C_4  and  C_38
    4  A    between atoms: C_4  and  C_50
    5  A    between atoms: C_6  and  C_25
    6  A    between atoms: C_6  and  C_42
    7  A    between atoms: O_11  and  C_41
    8  A    between atoms: O_11  and  C_50
    9  A    between atoms: C_12  and  C_55
   10  A    between atoms: C_15  and  C_33
   11  A    between atoms: C_21  and  C_22
   12  A    between atoms: C_21  and  C_50
   13  A    between atoms: C_24  and  C_49
   14  A    between atoms: N_40  and  C_42
   15  A    between atoms: N_40  and  C_49
                            x       y       z     vdW  Elec       q    Type
                         _______ _______ _______ _____ _____    ______ ____

>  <TORSDO>
F 15

$$$$
=
 OpenBabel10232412283D

 55 59  0  0  1  0  0  0  0  0999 V2000
  188.5530  173.7820  134.7010 F   0  0  0  0  0  0  0  0  0  0  0  0
  188.2000  174.0160  137.0130 C   0  0  0  0  0  0  0  0  0  0  0  0
  191.0180  174.6960  136.1240 C   0  0  0  0  0  0  0  0  0  0  0  0
  190.3520  175.7980  136.6870 O   0  0  0  0  0  0  0  0  0  0  0  0
  186.2300  177.7670  134.3460 C   0  0  0  0  0  2  0  0  0  0  0  0
  187.6860  176.9290  136.6290 C   0  0  1  0  0  0  0  0  0  0  0  0
  191.0240  172.4880  135.1830 O   0  0  0  0  0  1  0  0  0  0  0  0
  186.2840  176.3520  136.3800 C   0  0  0  0  0  2  0  0  0  0  0  0
  188.7530  175.6780  137.2960 P   0  0  1  0  0  4  0  0  0  0  0  0
  192.1890  174.8510  135.5780 N   0  0  0  0  0  0  0  0  0  0  0  0
  190.4100  173.3000  136.1400 C   0  0  2  0  0  3  0  0  0  0  0  0
  187.7150  177.2170  138.8660 C   0  0  2  0  0  3  0  0  0  0  0  0
  188.2490  177.5090  135.3270 C   0  0  0  0  0  2  0  0  0  0  0  0
  185.4110  177.2890  135.5370 C   0  0  2  0  0  3  0  0  0  0  0  0
  188.8870  173.2520  135.9380 C   0  0  2  0  0  3  0  0  0  0  0  0
  188.6610  176.1590  138.8980 O   0  0  0  0  0  0  0  0  0  0  0  0
  187.3660  178.4660  134.7920 O   0  0  0  0  0  0  0  0  0  0  0  0
  187.6590  177.9060  137.6250 O   0  0  0  0  0  0  0  0  0  0  0  0
  187.2870  173.5280  137.6650 O   0  0  0  0  0  0  0  0  0  0  0  0
  189.9480  178.5250  143.2540 C   0  0  0  0  0  2  0  0  0  0  0  0
  187.8970  178.2360  140.0010 C   0  0  1  0  0  3  0  0  0  0  0  0
  185.1760  178.5030  142.4620 C   0  0  0  0  0  2  0  0  0  0  0  0
  185.6190  177.8880  141.1190 C   0  0  0  0  0  2  0  0  0  0  0  0
  189.9090  176.9450  140.8880 C   0  0  0  0  0  2  0  0  0  0  0  0
  186.5320  178.8550  140.3550 C   0  0  0  0  0  2  0  0  0  0  0  0
  188.6960  178.4420  142.4320 C   0  0  0  0  0  0  0  0  0  0  0  0
  187.5490  178.6720  143.0040 C   0  0  0  0  0  0  0  0  0  0  0  0
  190.3370  176.2220  142.1630 C   0  0  0  0  0  2  0  0  0  0  0  0
  192.1120  177.5350  143.0940 O   0  0  0  0  0  1  0  0  0  0  0  0
  186.3160  178.8410  143.3950 C   0  0  0  0  0  3  0  0  0  0  0  0
  188.7260  177.7710  141.1510 N   0  0  0  0  0  0  0  0  0  0  0  0
  190.7620  177.2150  143.2680 C   0  0  1  0  0  0  0  0  0  0  0  0
  190.0980  177.5640  145.7040 C   0  0  0  0  0  1  0  0  0  0  0  0
  190.5710  176.5740  144.6450 C   0  0  0  0  0  2  0  0  0  0  0  0
  192.9420  176.0440  135.5240 N   0  0  0  0  0  2  0  0  0  0  0  0
  194.1730  176.3140  136.2160 C   0  0  0  0  0  0  0  0  0  0  0  0
  194.6890  175.4680  136.9910 O   0  0  0  0  0  0  0  0  0  0  0  0
  194.8270  177.5680  136.0250 N   0  0  0  0  0  0  0  0  0  0  0  0
  195.9520  177.7140  135.3800 C   0  0  0  0  0  3  0  0  0  0  0  0
  196.7420  176.5650  134.8350 C   0  0  0  0  0  2  0  0  0  0  0  0
  197.5680  175.9990  135.8860 N   0  0  0  0  0  2  0  0  0  0  0  0
  198.4420  175.0130  135.2730 C   0  0  0  0  0  2  0  0  0  0  0  0
  198.8000  173.9260  136.2770 C   0  0  0  0  0  2  0  0  0  0  0  0
  199.7350  174.0370  138.4640 O   0  0  0  0  0  1  0  0  0  0  0  0
  198.6460  174.4430  137.6980 C   0  0  0  0  0  2  0  0  0  0  0  0
  184.1650  176.5640  135.0340 C   0  0  0  0  0  2  0  0  0  0  0  0
  183.1180  176.4070  136.1380 C   0  0  2  0  0  3  0  0  0  0  0  0
  183.0280  177.7190  136.9170 C   0  0  2  0  0  3  0  0  0  0  0  0
  183.5190  177.5770  138.2250 O   0  0  0  0  0  1  0  0  0  0  0  0
  181.6180  178.3160  136.9100 C   0  0  0  0  0  2  0  0  0  0  0  0
  181.5670  179.6900  137.5630 C   0  0  0  0  0  1  0  0  0  0  0  0
  183.4500  175.3310  137.0130 O   0  0  0  0  0  0  0  0  0  0  0  0
  181.3110  174.0590  137.1320 C   0  0  0  0  0  1  0  0  0  0  0  0
  182.7910  174.0980  137.0030 C   0  0  0  0  0  0  0  0  0  0  0  0
  183.4340  173.0150  136.9230 O   0  0  0  0  0  0  0  0  0  0  0  0
  2  9  1  0  0  0  0
  2 19  2  0  0  0  0
  3 11  1  0  0  0  0
  3  4  1  0  0  0  0
  5 17  1  0  0  0  0
  5 14  1  0  0  0  0
  6 13  1  6  0  0  0
  6  9  1  0  0  0  0
  6 18  1  0  0  0  0
  8  6  1  0  0  0  0
  9  4  1  6  0  0  0
  9 16  1  0  0  0  0
 10  3  2  0  0  0  0
 11  7  1  6  0  0  0
 12 18  1  6  0  0  0
 12 16  1  0  0  0  0
 12 21  1  0  0  0  0
 14 46  1  6  0  0  0
 14  8  1  0  0  0  0
 15  1  1  6  0  0  0
 15 11  1  0  0  0  0
 15  2  1  0  0  0  0
 17 13  1  0  0  0  0
 20 32  1  0  0  0  0
 21 25  1  1  0  0  0
 21 31  1  0  0  0  0
 22 30  1  0  0  0  0
 23 22  1  0  0  0  0
 24 31  1  0  0  0  0
 24 28  1  0  0  0  0
 25 23  1  0  0  0  0
 26 27  2  0  0  0  0
 26 20  1  0  0  0  0
 27 30  2  0  0  0  0
 28 32  1  0  0  0  0
 31 26  1  0  0  0  0
 32 29  1  6  0  0  0
 32 34  1  0  0  0  0
 34 33  1  0  0  0  0
 35 10  1  0  0  0  0
 35 36  1  0  0  0  0
 36 37  2  0  0  0  0
 38 36  1  0  0  0  0
 39 38  2  0  0  0  0
 40 39  1  0  0  0  0
 40 41  1  0  0  0  0
 42 41  1  0  0  0  0
 42 43  1  0  0  0  0
 43 45  1  0  0  0  0
 45 44  1  0  0  0  0
 47 46  1  6  0  0  0
 47 48  1  0  0  0  0
 47 52  1  0  0  0  0
 48 49  1  1  0  0  0
 50 48  1  0  0  0  0
 50 51  1  0  0  0  0
 54 52  1  0  0  0  0
 54 53  1  0  0  0  0
 55 54  2  0  0  0  0
M  END
>  <MODEL>
5

>  <REMARK>
 VINA RESULT:      -5.1      3.286      8.900
  Name = 
  15 active torsions:
  status: ('A' for Active; 'I' for Inactive)
    1  A    between atoms: N_1  and  C_10
    2  A    between atoms: N_3  and  N_29
    3  A    between atoms: C_4  and  C_38
    4  A    between atoms: C_4  and  C_50
    5  A    between atoms: C_6  and  C_25
    6  A    between atoms: C_6  and  C_42
    7  A    between atoms: O_11  and  C_41
    8  A    between atoms: O_11  and  C_50
    9  A    between atoms: C_12  and  C_55
   10  A    between atoms: C_15  and  C_33
   11  A    between atoms: C_21  and  C_22
   12  A    between atoms: C_21  and  C_50
   13  A    between atoms: C_24  and  C_49
   14  A    between atoms: N_40  and  C_42
   15  A    between atoms: N_40  and  C_49
                            x       y       z     vdW  Elec       q    Type
                         _______ _______ _______ _____ _____    ______ ____

>  <TORSDO>
F 15

$$$$
=
 OpenBabel10232412283D

 55 59  0  0  1  0  0  0  0  0999 V2000
  181.3870  176.6490  137.7260 F   0  0  0  0  0  0  0  0  0  0  0  0
  183.0090  177.8960  136.5690 C   0  0  0  0  0  0  0  0  0  0  0  0
  182.9460  178.4280  139.5530 C   0  0  0  0  0  0  0  0  0  0  0  0
  184.1700  177.8830  139.1320 O   0  0  0  0  0  0  0  0  0  0  0  0
  184.3300  173.1140  137.2400 C   0  0  0  0  0  2  0  0  0  0  0  0
  185.0650  175.8510  137.2710 C   0  0  1  0  0  0  0  0  0  0  0  0
  180.6300  178.9470  139.1940 O   0  0  0  0  0  1  0  0  0  0  0  0
  184.4800  175.2450  135.9860 C   0  0  0  0  0  2  0  0  0  0  0  0
  184.4790  177.5120  137.4860 P   0  0  1  0  0  4  0  0  0  0  0  0
  182.7090  178.5970  140.8210 N   0  0  0  0  0  0  0  0  0  0  0  0
  181.8700  178.8460  138.5590 C   0  0  2  0  0  3  0  0  0  0  0  0
  186.6770  177.2200  136.4880 C   0  0  2  0  0  3  0  0  0  0  0  0
  184.7030  174.9700  138.4720 C   0  0  0  0  0  2  0  0  0  0  0  0
  184.7070  173.7320  135.9010 C   0  0  2  0  0  3  0  0  0  0  0  0
  181.7320  177.9330  137.3300 C   0  0  2  0  0  3  0  0  0  0  0  0
  185.8520  178.2900  136.9210 O   0  0  0  0  0  0  0  0  0  0  0  0
  185.1370  173.6470  138.2610 O   0  0  0  0  0  0  0  0  0  0  0  0
  186.4490  175.9980  137.1750 O   0  0  0  0  0  0  0  0  0  0  0  0
  183.0460  178.1070  135.3650 O   0  0  0  0  0  0  0  0  0  0  0  0
  191.5090  175.6740  136.0210 C   0  0  0  0  0  2  0  0  0  0  0  0
  188.1770  177.5490  136.5260 C   0  0  1  0  0  3  0  0  0  0  0  0
  189.7010  178.0310  139.8390 C   0  0  0  0  0  2  0  0  0  0  0  0
  188.3830  177.8380  139.0620 C   0  0  0  0  0  2  0  0  0  0  0  0
  188.7390  175.2840  135.4990 C   0  0  0  0  0  2  0  0  0  0  0  0
  188.4580  178.5180  137.6900 C   0  0  0  0  0  2  0  0  0  0  0  0
  190.4870  176.4600  136.7880 C   0  0  0  0  0  0  0  0  0  0  0  0
  190.8030  176.9340  137.9590 C   0  0  0  0  0  0  0  0  0  0  0  0
  189.5320  174.0280  135.8560 C   0  0  0  0  0  2  0  0  0  0  0  0
  191.3930  173.9810  134.3460 O   0  0  0  0  0  1  0  0  0  0  0  0
  190.9180  177.4620  139.1460 C   0  0  0  0  0  3  0  0  0  0  0  0
  189.0920  176.3770  136.4110 N   0  0  0  0  0  0  0  0  0  0  0  0
  191.0520  174.2420  135.6770 C   0  0  1  0  0  0  0  0  0  0  0  0
  193.2900  173.6680  136.7530 C   0  0  0  0  0  1  0  0  0  0  0  0
  191.8230  173.2850  136.5900 C   0  0  0  0  0  2  0  0  0  0  0  0
  183.5990  178.3370  141.8860 N   0  0  0  0  0  2  0  0  0  0  0  0
  183.4090  178.6840  143.2680 C   0  0  0  0  0  0  0  0  0  0  0  0
  182.3870  179.3080  143.6530 O   0  0  0  0  0  0  0  0  0  0  0  0
  184.3980  178.3160  144.2290 N   0  0  0  0  0  0  0  0  0  0  0  0
  185.6630  178.1560  143.9510 C   0  0  0  0  0  3  0  0  0  0  0  0
  186.2170  178.2500  142.5630 C   0  0  0  0  0  2  0  0  0  0  0  0
  187.5700  177.7210  142.5410 N   0  0  0  0  0  2  0  0  0  0  0  0
  188.2910  178.3200  143.6510 C   0  0  0  0  0  2  0  0  0  0  0  0
  189.1330  177.2710  144.3640 C   0  0  0  0  0  2  0  0  0  0  0  0
  188.6880  177.8290  146.6360 O   0  0  0  0  0  1  0  0  0  0  0  0
  189.6860  177.8260  145.6670 C   0  0  0  0  0  2  0  0  0  0  0  0
  183.8470  173.1140  134.8010 C   0  0  0  0  0  2  0  0  0  0  0  0
  184.1880  171.6400  134.5780 C   0  0  2  0  0  3  0  0  0  0  0  0
  182.9050  170.8170  134.7010 C   0  0  2  0  0  3  0  0  0  0  0  0
  181.7620  171.6120  134.5210 O   0  0  0  0  0  1  0  0  0  0  0  0
  182.8340  170.0230  136.0090 C   0  0  0  0  0  2  0  0  0  0  0  0
  182.8700  168.5200  135.7760 C   0  0  0  0  0  1  0  0  0  0  0  0
  185.1610  171.1870  135.5180 O   0  0  0  0  0  0  0  0  0  0  0  0
  187.5300  171.5460  134.8360 C   0  0  0  0  0  1  0  0  0  0  0  0
  186.3930  170.6410  135.1490 C   0  0  0  0  0  0  0  0  0  0  0  0
  186.5470  169.3930  135.0430 O   0  0  0  0  0  0  0  0  0  0  0  0
  2 15  1  0  0  0  0
  3 10  2  0  0  0  0
  4  3  1  0  0  0  0
  5 17  1  0  0  0  0
  6  8  1  6  0  0  0
  6  9  1  0  0  0  0
  6 13  1  0  0  0  0
  9  2  1  6  0  0  0
  9  4  1  0  0  0  0
 10 35  1  0  0  0  0
 11  7  1  1  0  0  0
 11  3  1  0  0  0  0
 12 21  1  0  0  0  0
 12 16  1  1  0  0  0
 12 18  1  0  0  0  0
 14 46  1  6  0  0  0
 14  8  1  0  0  0  0
 14  5  1  0  0  0  0
 15  1  1  1  0  0  0
 15 11  1  0  0  0  0
 16  9  1  0  0  0  0
 17 13  1  0  0  0  0
 18  6  1  0  0  0  0
 19  2  2  0  0  0  0
 20 26  1  0  0  0  0
 21 25  1  1  0  0  0
 23 22  1  0  0  0  0
 24 28  1  0  0  0  0
 24 31  1  0  0  0  0
 25 23  1  0  0  0  0
 26 27  2  0  0  0  0
 27 30  2  0  0  0  0
 30 22  1  0  0  0  0
 31 21  1  0  0  0  0
 31 26  1  0  0  0  0
 32 29  1  6  0  0  0
 32 28  1  0  0  0  0
 32 20  1  0  0  0  0
 32 34  1  0  0  0  0
 34 33  1  0  0  0  0
 35 36  1  0  0  0  0
 36 37  2  0  0  0  0
 36 38  1  0  0  0  0
 39 38  2  0  0  0  0
 40 39  1  0  0  0  0
 41 40  1  0  0  0  0
 41 42  1  0  0  0  0
 42 43  1  0  0  0  0
 43 45  1  0  0  0  0
 45 44  1  0  0  0  0
 47 48  1  0  0  0  0
 47 46  1  1  0  0  0
 47 52  1  0  0  0  0
 48 49  1  1  0  0  0
 48 50  1  0  0  0  0
 51 50  1  0  0  0  0
 53 54  1  0  0  0  0
 54 52  1  0  0  0  0
 55 54  2  0  0  0  0
M  END
>  <MODEL>
6

>  <REMARK>
 VINA RESULT:      -4.4      3.026      8.896
  Name = 
  15 active torsions:
  status: ('A' for Active; 'I' for Inactive)
    1  A    between atoms: N_1  and  C_10
    2  A    between atoms: N_3  and  N_29
    3  A    between atoms: C_4  and  C_38
    4  A    between atoms: C_4  and  C_50
    5  A    between atoms: C_6  and  C_25
    6  A    between atoms: C_6  and  C_42
    7  A    between atoms: O_11  and  C_41
    8  A    between atoms: O_11  and  C_50
    9  A    between atoms: C_12  and  C_55
   10  A    between atoms: C_15  and  C_33
   11  A    between atoms: C_21  and  C_22
   12  A    between atoms: C_21  and  C_50
   13  A    between atoms: C_24  and  C_49
   14  A    between atoms: N_40  and  C_42
   15  A    between atoms: N_40  and  C_49
                            x       y       z     vdW  Elec       q    Type
                         _______ _______ _______ _____ _____    ______ ____

>  <TORSDO>
F 15

$$$$
=
 OpenBabel10232412283D

 55 59  0  0  1  0  0  0  0  0999 V2000
  189.5680  178.4140  138.9740 F   0  0  0  0  0  0  0  0  0  0  0  0
  188.7730  176.2130  138.7490 C   0  0  0  0  0  0  0  0  0  0  0  0
  186.6360  178.2200  139.5240 C   0  0  0  0  0  0  0  0  0  0  0  0
  186.3850  177.6230  138.2780 O   0  0  0  0  0  0  0  0  0  0  0  0
  189.5800  178.4600  134.3480 C   0  0  0  0  0  2  0  0  0  0  0  0
  187.9190  176.8190  135.9560 C   0  0  1  0  0  0  0  0  0  0  0  0
  188.0890  178.7320  141.3660 O   0  0  0  0  0  1  0  0  0  0  0  0
  189.3830  176.4120  135.7300 C   0  0  0  0  0  2  0  0  0  0  0  0
  187.4260  176.4320  137.6150 P   0  0  1  0  0  4  0  0  0  0  0  0
  185.8840  179.1940  139.9450 N   0  0  0  0  0  0  0  0  0  0  0  0
  187.7740  177.7510  140.4220 C   0  0  2  0  0  3  0  0  0  0  0  0
  186.8340  174.8440  135.8710 C   0  0  2  0  0  3  0  0  0  0  0  0
  187.7420  178.3120  135.6530 C   0  0  0  0  0  2  0  0  0  0  0  0
  189.9520  176.9860  134.4260 C   0  0  2  0  0  3  0  0  0  0  0  0
  189.0560  177.3370  139.6820 C   0  0  2  0  0  3  0  0  0  0  0  0
  186.6030  175.0150  137.2620 O   0  0  0  0  0  0  0  0  0  0  0  0
  188.1810  178.6050  134.3480 O   0  0  0  0  0  0  0  0  0  0  0  0
  187.0570  176.0570  135.1680 O   0  0  0  0  0  0  0  0  0  0  0  0
  189.4450  175.1910  138.7520 O   0  0  0  0  0  0  0  0  0  0  0  0
  181.9910  173.2740  135.6930 C   0  0  0  0  0  2  0  0  0  0  0  0
  185.7330  174.0420  135.1620 C   0  0  1  0  0  3  0  0  0  0  0  0
  185.8610  170.3800  135.4740 C   0  0  0  0  0  2  0  0  0  0  0  0
  186.6000  171.7060  135.7480 C   0  0  0  0  0  2  0  0  0  0  0  0
  183.9520  175.1000  136.6490 C   0  0  0  0  0  2  0  0  0  0  0  0
  186.3220  172.7210  134.6330 C   0  0  0  0  0  2  0  0  0  0  0  0
  183.4480  172.9420  135.5600 C   0  0  0  0  0  0  0  0  0  0  0  0
  183.8050  171.6940  135.4650 C   0  0  0  0  0  0  0  0  0  0  0  0
  182.8990  174.6630  137.6650 C   0  0  0  0  0  2  0  0  0  0  0  0
  180.7790  175.0980  136.6360 O   0  0  0  0  0  1  0  0  0  0  0  0
  184.3590  170.5150  135.3850 C   0  0  0  0  0  3  0  0  0  0  0  0
  184.4410  173.9380  135.9000 N   0  0  0  0  0  0  0  0  0  0  0  0
  181.6540  174.0610  136.9750 C   0  0  1  0  0  0  0  0  0  0  0  0
  180.4040  171.8560  137.2300 C   0  0  0  0  0  1  0  0  0  0  0  0
  180.9450  173.0970  137.9300 C   0  0  0  0  0  2  0  0  0  0  0  0
  184.7480  179.7220  139.2940 N   0  0  0  0  0  2  0  0  0  0  0  0
  183.5220  179.0280  139.0070 C   0  0  0  0  0  0  0  0  0  0  0  0
  183.3700  177.8150  139.3060 O   0  0  0  0  0  0  0  0  0  0  0  0
  182.4520  179.7220  138.3660 N   0  0  0  0  0  0  0  0  0  0  0  0
  181.3970  180.1720  138.9880 C   0  0  0  0  0  3  0  0  0  0  0  0
  181.1380  179.9330  140.4440 C   0  0  0  0  0  2  0  0  0  0  0  0
  180.2770  178.7750  140.6020 N   0  0  0  0  0  2  0  0  0  0  0  0
  180.4600  178.2760  141.9550 C   0  0  0  0  0  2  0  0  0  0  0  0
  181.8150  178.7040  142.4990 C   0  0  0  0  0  2  0  0  0  0  0  0
  183.0450  178.7860  144.5370 O   0  0  0  0  0  1  0  0  0  0  0  0
  181.7580  178.8550  144.0110 C   0  0  0  0  0  2  0  0  0  0  0  0
  191.4710  176.8460  134.3890 C   0  0  0  0  0  2  0  0  0  0  0  0
  191.9460  175.6250  135.1780 C   0  0  2  0  0  3  0  0  0  0  0  0
  193.3820  175.8700  135.6430 C   0  0  2  0  0  3  0  0  0  0  0  0
  194.3160  175.4260  134.6920 O   0  0  0  0  0  1  0  0  0  0  0  0
  193.6660  175.2780  137.0260 C   0  0  0  0  0  2  0  0  0  0  0  0
  192.4030  174.7850  137.7150 C   0  0  0  0  0  1  0  0  0  0  0  0
  191.8760  174.4400  134.3860 O   0  0  0  0  0  0  0  0  0  0  0  0
  192.5910  172.0670  134.6410 C   0  0  0  0  0  1  0  0  0  0  0  0
  191.6340  173.1710  134.9180 C   0  0  0  0  0  0  0  0  0  0  0  0
  190.5980  172.9360  135.6000 O   0  0  0  0  0  0  0  0  0  0  0  0
  2 19  2  0  0  0  0
  2 15  1  0  0  0  0
  3 10  2  0  0  0  0
  3 11  1  0  0  0  0
  4  3  1  0  0  0  0
  5 14  1  0  0  0  0
  6 13  1  6  0  0  0
  6  9  1  0  0  0  0
  8  6  1  0  0  0  0
  9 16  1  6  0  0  0
  9  4  1  0  0  0  0
  9  2  1  0  0  0  0
 11  7  1  1  0  0  0
 12 18  1  6  0  0  0
 12 16  1  0  0  0  0
 14 46  1  1  0  0  0
 14  8  1  0  0  0  0
 15  1  1  6  0  0  0
 15 11  1  0  0  0  0
 17  5  1  0  0  0  0
 17 13  1  0  0  0  0
 18  6  1  0  0  0  0
 20 32  1  0  0  0  0
 21 25  1  1  0  0  0
 21 12  1  0  0  0  0
 21 31  1  0  0  0  0
 22 23  1  0  0  0  0
 24 28  1  0  0  0  0
 25 23  1  0  0  0  0
 26 20  1  0  0  0  0
 26 31  1  0  0  0  0
 27 26  2  0  0  0  0
 30 27  2  0  0  0  0
 30 22  1  0  0  0  0
 31 24  1  0  0  0  0
 32 29  1  6  0  0  0
 32 28  1  0  0  0  0
 32 34  1  0  0  0  0
 33 34  1  0  0  0  0
 35 10  1  0  0  0  0
 36 35  1  0  0  0  0
 36 37  2  0  0  0  0
 38 39  2  0  0  0  0
 38 36  1  0  0  0  0
 39 40  1  0  0  0  0
 40 41  1  0  0  0  0
 41 42  1  0  0  0  0
 42 43  1  0  0  0  0
 43 45  1  0  0  0  0
 45 44  1  0  0  0  0
 47 46  1  6  0  0  0
 47 48  1  0  0  0  0
 48 49  1  6  0  0  0
 48 50  1  0  0  0  0
 50 51  1  0  0  0  0
 52 54  1  0  0  0  0
 52 47  1  0  0  0  0
 53 54  1  0  0  0  0
 54 55  2  0  0  0  0
M  END
>  <MODEL>
7

>  <REMARK>
 VINA RESULT:      -4.0      2.785      7.409
  Name = 
  15 active torsions:
  status: ('A' for Active; 'I' for Inactive)
    1  A    between atoms: N_1  and  C_10
    2  A    between atoms: N_3  and  N_29
    3  A    between atoms: C_4  and  C_38
    4  A    between atoms: C_4  and  C_50
    5  A    between atoms: C_6  and  C_25
    6  A    between atoms: C_6  and  C_42
    7  A    between atoms: O_11  and  C_41
    8  A    between atoms: O_11  and  C_50
    9  A    between atoms: C_12  and  C_55
   10  A    between atoms: C_15  and  C_33
   11  A    between atoms: C_21  and  C_22
   12  A    between atoms: C_21  and  C_50
   13  A    between atoms: C_24  and  C_49
   14  A    between atoms: N_40  and  C_42
   15  A    between atoms: N_40  and  C_49
                            x       y       z     vdW  Elec       q    Type
                         _______ _______ _______ _____ _____    ______ ____

>  <TORSDO>
F 15

$$$$
