=
 OpenBabel10232411533D

 31 35  0  0  1  0  0  0  0  0999 V2000
  187.2860  176.5770  143.3320 O   0  0  0  0  0  1  0  0  0  0  0  0
  188.1030  177.5820  143.8600 C   0  0  2  0  0  3  0  0  0  0  0  0
  188.3830  177.4980  148.3900 C   0  0  0  0  0  3  0  0  0  0  0  0
  189.5870  177.2210  143.7230 C   0  0  1  0  0  3  0  0  0  0  0  0
  188.9360  177.1250  145.9950 C   0  0  0  0  0  0  0  0  0  0  0  0
  188.9860  176.7990  147.4340 C   0  0  0  0  0  3  0  0  0  0  0  0
  190.0150  176.6710  145.0770 C   0  0  2  0  0  3  0  0  0  0  0  0
  186.5990  178.0850  145.9430 C   0  0  0  0  0  0  0  0  0  0  0  0
  187.6430  178.7620  148.1140 C   0  0  0  0  0  2  0  0  0  0  0  0
  191.2820  177.2670  145.4650 N   0  0  0  0  0  1  0  0  0  0  0  0
  187.8970  177.6560  145.3370 C   0  0  0  0  0  0  0  0  0  0  0  0
  186.4890  178.5310  147.1970 C   0  0  0  0  0  3  0  0  0  0  0  0
  185.3920  178.0070  145.1780 N   0  0  0  0  0  2  0  0  0  0  0  0
  185.1800  180.3020  144.7950 O   0  0  0  0  0  0  0  0  0  0  0  0
  184.7770  179.1340  144.5410 C   0  0  0  0  0  0  0  0  0  0  0  0
  183.6610  178.3520  140.2300 C   0  0  0  0  0  2  0  0  0  0  0  0
  183.6600  178.9320  143.6080 C   0  0  0  0  0  0  0  0  0  0  0  0
  184.7870  178.5430  141.1190 C   0  0  0  0  0  2  0  0  0  0  0  0
  181.2260  178.7650  143.0980 C   0  0  0  0  0  3  0  0  0  0  0  0
  182.7460  178.5200  141.3900 C   0  0  0  0  0  0  0  0  0  0  0  0
  183.8410  178.7050  142.2560 C   0  0  0  0  0  0  0  0  0  0  0  0
  181.4520  178.5410  141.7590 N   0  0  0  0  0  0  0  0  0  0  0  0
  182.3010  178.9600  144.0260 C   0  0  0  0  0  3  0  0  0  0  0  0
  189.9310  176.3010  142.5400 C   0  0  2  0  0  3  0  0  0  0  0  0
  190.5060  175.1110  142.9990 O   0  0  0  0  0  1  0  0  0  0  0  0
  191.4330  178.1420  142.1140 O   0  0  0  0  0  1  0  0  0  0  0  0
  190.8770  176.9920  141.5460 C   0  0  2  0  0  3  0  0  0  0  0  0
  191.1150  177.5370  138.9600 C   0  0  0  0  0  2  0  0  0  0  0  0
  188.9150  178.0650  140.1690 C   0  0  0  0  0  1  0  0  0  0  0  0
  190.2460  177.3430  140.1870 C   0  0  0  0  0  0  0  0  0  0  0  0
  190.3350  176.2440  139.1470 C   0  0  0  0  0  2  0  0  0  0  0  0
  2  1  1  1  0  0  0
  2 11  1  0  0  0  0
  4 24  1  6  0  0  0
  4  2  1  0  0  0  0
  4  7  1  0  0  0  0
  5  6  1  0  0  0  0
  6  3  2  0  0  0  0
  7 10  1  1  0  0  0
  7  5  1  0  0  0  0
  8 12  2  0  0  0  0
  9  3  1  0  0  0  0
 11  8  1  0  0  0  0
 11  5  2  0  0  0  0
 12  9  1  0  0  0  0
 13  8  1  0  0  0  0
 15 14  2  0  0  0  0
 15 13  1  0  0  0  0
 16 18  1  0  0  0  0
 16 20  1  0  0  0  0
 17 23  1  0  0  0  0
 17 15  1  0  0  0  0
 18 21  1  0  0  0  0
 19 23  2  0  0  0  0
 20 22  2  0  0  0  0
 20 21  1  0  0  0  0
 21 17  2  0  0  0  0
 22 19  1  0  0  0  0
 24 25  1  1  0  0  0
 27 26  1  1  0  0  0
 27 24  1  0  0  0  0
 28 31  1  0  0  0  0
 28 30  1  0  0  0  0
 29 30  1  0  0  0  0
 30 27  1  0  0  0  0
 31 30  1  0  0  0  0
M  END
>  <MODEL>
1

>  <REMARK>
 VINA RESULT:      -9.5      0.000      0.000
  Name = 
  5 active torsions:
  status: ('A' for Active; 'I' for Inactive)
    1  A    between atoms: C_3  and  C_20
    2  A    between atoms: C_4  and  C_12
    3  A    between atoms: C_4  and  C_22
    4  A    between atoms: N_15  and  C_21
    5  A    between atoms: C_22  and  C_25
                            x       y       z     vdW  Elec       q    Type
                         _______ _______ _______ _____ _____    ______ ____

>  <TORSDO>
F 5

$$$$
=
 OpenBabel10232411533D

 31 35  0  0  1  0  0  0  0  0999 V2000
  188.8810  178.6530  141.8670 O   0  0  0  0  0  1  0  0  0  0  0  0
  188.7910  177.5720  140.9840 C   0  0  2  0  0  3  0  0  0  0  0  0
  187.3330  178.7290  136.8440 C   0  0  0  0  0  3  0  0  0  0  0  0
  190.1700  177.1890  140.4340 C   0  0  1  0  0  3  0  0  0  0  0  0
  188.8570  178.1650  138.7250 C   0  0  0  0  0  0  0  0  0  0  0  0
  188.5190  178.8060  137.4390 C   0  0  0  0  0  3  0  0  0  0  0  0
  190.2690  177.8310  139.0570 C   0  0  2  0  0  3  0  0  0  0  0  0
  186.5860  178.3640  139.8150 C   0  0  0  0  0  0  0  0  0  0  0  0
  186.2180  177.9010  137.3830 C   0  0  0  0  0  2  0  0  0  0  0  0
  190.7890  176.8630  138.1060 N   0  0  0  0  0  1  0  0  0  0  0  0
  188.0340  177.9940  139.7680 C   0  0  0  0  0  0  0  0  0  0  0  0
  185.7970  178.3650  138.7370 C   0  0  0  0  0  3  0  0  0  0  0  0
  185.9890  178.7600  141.0530 N   0  0  0  0  0  2  0  0  0  0  0  0
  184.0770  177.4320  140.8550 O   0  0  0  0  0  0  0  0  0  0  0  0
  184.7820  178.1900  141.5750 C   0  0  0  0  0  0  0  0  0  0  0  0
  186.0630  178.3260  145.9100 C   0  0  0  0  0  2  0  0  0  0  0  0
  184.3520  178.5060  142.9440 C   0  0  0  0  0  0  0  0  0  0  0  0
  186.5240  178.0070  144.5750 C   0  0  0  0  0  2  0  0  0  0  0  0
  182.6420  179.2660  144.5910 C   0  0  0  0  0  3  0  0  0  0  0  0
  184.7370  178.6840  145.3420 C   0  0  0  0  0  0  0  0  0  0  0  0
  185.1830  178.3760  144.0420 C   0  0  0  0  0  0  0  0  0  0  0  0
  183.5030  179.1220  145.6550 N   0  0  0  0  0  0  0  0  0  0  0  0
  183.0420  178.9680  143.2460 C   0  0  0  0  0  3  0  0  0  0  0  0
  191.3560  177.5070  141.3580 C   0  0  2  0  0  3  0  0  0  0  0  0
  192.5640  177.3590  140.6680 O   0  0  0  0  0  1  0  0  0  0  0  0
  190.3840  175.6130  142.4950 O   0  0  0  0  0  1  0  0  0  0  0  0
  191.3530  176.6150  142.6080 C   0  0  2  0  0  3  0  0  0  0  0  0
  190.0800  176.9500  144.9120 C   0  0  0  0  0  2  0  0  0  0  0  0
  191.6090  178.8090  144.0270 C   0  0  0  0  0  1  0  0  0  0  0  0
  191.1660  177.3640  143.9390 C   0  0  0  0  0  0  0  0  0  0  0  0
  191.5270  176.5600  145.1720 C   0  0  0  0  0  2  0  0  0  0  0  0
  2  1  1  1  0  0  0
  3  9  1  0  0  0  0
  3  6  2  0  0  0  0
  4  2  1  0  0  0  0
  4 24  1  1  0  0  0
  5  7  1  0  0  0  0
  5 11  2  0  0  0  0
  6  5  1  0  0  0  0
  7 10  1  6  0  0  0
  7  4  1  0  0  0  0
  8 13  1  0  0  0  0
  9 12  1  0  0  0  0
 11  8  1  0  0  0  0
 11  2  1  0  0  0  0
 12  8  2  0  0  0  0
 13 15  1  0  0  0  0
 14 15  2  0  0  0  0
 15 17  1  0  0  0  0
 17 23  2  0  0  0  0
 17 21  1  0  0  0  0
 18 16  1  0  0  0  0
 19 22  2  0  0  0  0
 20 22  1  0  0  0  0
 20 16  1  0  0  0  0
 21 18  1  0  0  0  0
 21 20  2  0  0  0  0
 23 19  1  0  0  0  0
 24 25  1  6  0  0  0
 24 27  1  0  0  0  0
 27 26  1  6  0  0  0
 27 30  1  0  0  0  0
 28 31  1  0  0  0  0
 30 29  1  0  0  0  0
 30 28  1  0  0  0  0
 30 31  1  0  0  0  0
M  END
>  <MODEL>
2

>  <REMARK>
 VINA RESULT:      -8.9      2.407      5.600
  Name = 
  5 active torsions:
  status: ('A' for Active; 'I' for Inactive)
    1  A    between atoms: C_3  and  C_20
    2  A    between atoms: C_4  and  C_12
    3  A    between atoms: C_4  and  C_22
    4  A    between atoms: N_15  and  C_21
    5  A    between atoms: C_22  and  C_25
                            x       y       z     vdW  Elec       q    Type
                         _______ _______ _______ _____ _____    ______ ____

>  <TORSDO>
F 5

$$$$
=
 OpenBabel10232411533D

 31 35  0  0  1  0  0  0  0  0999 V2000
  188.3590  178.6710  141.8360 O   0  0  0  0  0  1  0  0  0  0  0  0
  188.4500  177.5760  140.9700 C   0  0  2  0  0  3  0  0  0  0  0  0
  187.8990  178.6700  136.5990 C   0  0  0  0  0  3  0  0  0  0  0  0
  189.9110  177.1810  140.7270 C   0  0  1  0  0  3  0  0  0  0  0  0
  188.9920  178.1320  138.7660 C   0  0  0  0  0  0  0  0  0  0  0  0
  188.9340  178.7540  137.4280 C   0  0  0  0  0  3  0  0  0  0  0  0
  190.3000  177.8000  139.3910 C   0  0  2  0  0  3  0  0  0  0  0  0
  186.5440  178.3530  139.3520 C   0  0  0  0  0  0  0  0  0  0  0  0
  186.6910  177.8530  136.9050 C   0  0  0  0  0  2  0  0  0  0  0  0
  191.0030  176.8170  138.5850 N   0  0  0  0  0  1  0  0  0  0  0  0
  187.9680  177.9800  139.6160 C   0  0  0  0  0  0  0  0  0  0  0  0
  185.9980  178.3390  138.1330 C   0  0  0  0  0  3  0  0  0  0  0  0
  185.7030  178.7700  140.4310 N   0  0  0  0  0  2  0  0  0  0  0  0
  183.9160  177.3500  139.9310 O   0  0  0  0  0  0  0  0  0  0  0  0
  184.4390  178.1670  140.7380 C   0  0  0  0  0  0  0  0  0  0  0  0
  184.8920  178.7050  145.2040 C   0  0  0  0  0  2  0  0  0  0  0  0
  183.7390  178.5170  141.9810 C   0  0  0  0  0  0  0  0  0  0  0  0
  185.6170  178.3580  143.9990 C   0  0  0  0  0  2  0  0  0  0  0  0
  181.6930  179.1840  143.2390 C   0  0  0  0  0  3  0  0  0  0  0  0
  183.6630  178.8820  144.3870 C   0  0  0  0  0  0  0  0  0  0  0  0
  184.3660  178.5450  143.2140 C   0  0  0  0  0  0  0  0  0  0  0  0
  182.3560  179.2010  144.4450 N   0  0  0  0  0  0  0  0  0  0  0  0
  182.3570  178.8500  142.0130 C   0  0  0  0  0  3  0  0  0  0  0  0
  190.8800  177.5110  141.8740 C   0  0  2  0  0  3  0  0  0  0  0  0
  192.1770  177.6860  141.3810 O   0  0  0  0  0  1  0  0  0  0  0  0
  189.8970  175.4540  142.6690 O   0  0  0  0  0  1  0  0  0  0  0  0
  190.8700  176.4180  142.9520 C   0  0  2  0  0  3  0  0  0  0  0  0
  190.0750  178.2910  144.6550 C   0  0  0  0  0  2  0  0  0  0  0  0
  191.6070  176.4030  145.4720 C   0  0  0  0  0  1  0  0  0  0  0  0
  190.6860  176.9280  144.3920 C   0  0  0  0  0  0  0  0  0  0  0  0
  189.2430  177.0320  144.8450 C   0  0  0  0  0  2  0  0  0  0  0  0
  2  1  1  1  0  0  0
  3  9  1  0  0  0  0
  3  6  2  0  0  0  0
  4  2  1  0  0  0  0
  4 24  1  1  0  0  0
  5  7  1  0  0  0  0
  5 11  2  0  0  0  0
  6  5  1  0  0  0  0
  7 10  1  6  0  0  0
  7  4  1  0  0  0  0
  8 11  1  0  0  0  0
  8 13  1  0  0  0  0
  9 12  1  0  0  0  0
 11  2  1  0  0  0  0
 12  8  2  0  0  0  0
 13 15  1  0  0  0  0
 14 15  2  0  0  0  0
 15 17  1  0  0  0  0
 17 23  2  0  0  0  0
 17 21  1  0  0  0  0
 18 16  1  0  0  0  0
 19 22  2  0  0  0  0
 20 22  1  0  0  0  0
 20 16  1  0  0  0  0
 21 18  1  0  0  0  0
 21 20  2  0  0  0  0
 23 19  1  0  0  0  0
 24 25  1  6  0  0  0
 24 27  1  0  0  0  0
 27 26  1  6  0  0  0
 27 30  1  0  0  0  0
 28 31  1  0  0  0  0
 30 28  1  0  0  0  0
 30 31  1  0  0  0  0
 30 29  1  0  0  0  0
M  END
>  <MODEL>
3

>  <REMARK>
 VINA RESULT:      -8.8      2.423      5.615
  Name = 
  5 active torsions:
  status: ('A' for Active; 'I' for Inactive)
    1  A    between atoms: C_3  and  C_20
    2  A    between atoms: C_4  and  C_12
    3  A    between atoms: C_4  and  C_22
    4  A    between atoms: N_15  and  C_21
    5  A    between atoms: C_22  and  C_25
                            x       y       z     vdW  Elec       q    Type
                         _______ _______ _______ _____ _____    ______ ____

>  <TORSDO>
F 5

$$$$
=
 OpenBabel10232411533D

 31 35  0  0  1  0  0  0  0  0999 V2000
  188.1710  178.7910  144.4950 O   0  0  0  0  0  1  0  0  0  0  0  0
  188.0590  177.6440  145.2870 C   0  0  2  0  0  3  0  0  0  0  0  0
  191.6730  176.9050  147.9330 C   0  0  0  0  0  3  0  0  0  0  0  0
  187.1680  177.8980  146.5080 C   0  0  1  0  0  3  0  0  0  0  0  0
  189.4200  177.6460  147.1860 C   0  0  0  0  0  0  0  0  0  0  0  0
  190.6200  177.7090  148.0440 C   0  0  0  0  0  3  0  0  0  0  0  0
  188.1130  178.1620  147.6730 C   0  0  2  0  0  3  0  0  0  0  0  0
  190.5620  176.9100  145.0550 C   0  0  0  0  0  0  0  0  0  0  0  0
  191.7200  175.7760  146.9610 C   0  0  0  0  0  2  0  0  0  0  0  0
  187.6780  177.4040  148.8330 N   0  0  0  0  0  1  0  0  0  0  0  0
  189.3900  177.3280  145.8850 C   0  0  0  0  0  0  0  0  0  0  0  0
  191.6170  176.2610  145.5540 C   0  0  0  0  0  3  0  0  0  0  0  0
  190.5970  177.2220  143.6590 N   0  0  0  0  0  2  0  0  0  0  0  0
  190.1070  175.0680  142.9000 O   0  0  0  0  0  0  0  0  0  0  0  0
  190.2640  176.2890  142.6240 C   0  0  0  0  0  0  0  0  0  0  0  0
  187.5610  178.4140  139.6870 C   0  0  0  0  0  2  0  0  0  0  0  0
  190.1270  176.7490  141.2350 C   0  0  0  0  0  0  0  0  0  0  0  0
  187.6610  177.9780  141.0640 C   0  0  0  0  0  2  0  0  0  0  0  0
  190.9810  176.9910  138.9060 C   0  0  0  0  0  3  0  0  0  0  0  0
  188.9090  177.8400  139.4310 C   0  0  0  0  0  0  0  0  0  0  0  0
  189.0080  177.4160  140.7710 C   0  0  0  0  0  0  0  0  0  0  0  0
  189.8490  177.6530  138.4870 N   0  0  0  0  0  0  0  0  0  0  0  0
  191.1370  176.5380  140.2570 C   0  0  0  0  0  3  0  0  0  0  0  0
  186.0910  178.9790  146.3210 C   0  0  2  0  0  3  0  0  0  0  0  0
  185.9840  179.7650  147.4730 O   0  0  0  0  0  1  0  0  0  0  0  0
  184.7990  176.9660  145.9970 O   0  0  0  0  0  1  0  0  0  0  0  0
  184.7270  178.3620  145.9770 C   0  0  2  0  0  3  0  0  0  0  0  0
  184.8560  179.8290  143.7700 C   0  0  0  0  0  2  0  0  0  0  0  0
  182.6190  178.7880  144.4700 C   0  0  0  0  0  1  0  0  0  0  0  0
  184.1230  178.8280  144.6410 C   0  0  0  0  0  0  0  0  0  0  0  0
  184.8690  178.3520  143.4100 C   0  0  0  0  0  2  0  0  0  0  0  0
  2  1  1  6  0  0  0
  2 11  1  0  0  0  0
  2  4  1  0  0  0  0
  3  6  2  0  0  0  0
  4 24  1  6  0  0  0
  4  7  1  0  0  0  0
  5  7  1  0  0  0  0
  5  6  1  0  0  0  0
  7 10  1  1  0  0  0
  8 12  2  0  0  0  0
  8 11  1  0  0  0  0
  9  3  1  0  0  0  0
 11  5  2  0  0  0  0
 12  9  1  0  0  0  0
 13  8  1  0  0  0  0
 15 14  2  0  0  0  0
 15 13  1  0  0  0  0
 16 18  1  0  0  0  0
 17 15  1  0  0  0  0
 19 23  1  0  0  0  0
 20 16  1  0  0  0  0
 20 21  2  0  0  0  0
 21 18  1  0  0  0  0
 21 17  1  0  0  0  0
 22 19  2  0  0  0  0
 22 20  1  0  0  0  0
 23 17  2  0  0  0  0
 24 25  1  1  0  0  0
 27 26  1  6  0  0  0
 27 24  1  0  0  0  0
 28 30  1  0  0  0  0
 29 30  1  0  0  0  0
 30 27  1  0  0  0  0
 31 28  1  0  0  0  0
 31 30  1  0  0  0  0
M  END
>  <MODEL>
4

>  <REMARK>
 VINA RESULT:      -8.2      2.409      6.189
  Name = 
  5 active torsions:
  status: ('A' for Active; 'I' for Inactive)
    1  A    between atoms: C_3  and  C_20
    2  A    between atoms: C_4  and  C_12
    3  A    between atoms: C_4  and  C_22
    4  A    between atoms: N_15  and  C_21
    5  A    between atoms: C_22  and  C_25
                            x       y       z     vdW  Elec       q    Type
                         _______ _______ _______ _____ _____    ______ ____

>  <TORSDO>
F 5

$$$$
=
 OpenBabel10232411533D

 31 35  0  0  1  0  0  0  0  0999 V2000
  187.4780  176.5650  142.3910 O   0  0  0  0  0  1  0  0  0  0  0  0
  188.0000  177.6800  143.0550 C   0  0  2  0  0  3  0  0  0  0  0  0
  186.5840  178.0590  147.3510 C   0  0  0  0  0  3  0  0  0  0  0  0
  189.4420  177.4290  143.5110 C   0  0  1  0  0  3  0  0  0  0  0  0
  187.9990  177.5020  145.3840 C   0  0  0  0  0  0  0  0  0  0  0  0
  187.5260  177.3220  146.7710 C   0  0  0  0  0  3  0  0  0  0  0  0
  189.3590  177.0510  144.9840 C   0  0  2  0  0  3  0  0  0  0  0  0
  185.8110  178.2570  144.3710 C   0  0  0  0  0  0  0  0  0  0  0  0
  185.9490  179.2250  146.6740 C   0  0  0  0  0  2  0  0  0  0  0  0
  190.3680  177.7830  145.7310 N   0  0  0  0  0  1  0  0  0  0  0  0
  187.2580  177.8800  144.3350 C   0  0  0  0  0  0  0  0  0  0  0  0
  185.2260  178.8120  145.4360 C   0  0  0  0  0  3  0  0  0  0  0  0
  184.9790  178.0070  143.2350 N   0  0  0  0  0  2  0  0  0  0  0  0
  185.5090  179.9720  142.0880 O   0  0  0  0  0  0  0  0  0  0  0  0
  184.9390  178.8470  142.0740 C   0  0  0  0  0  0  0  0  0  0  0  0
  185.3160  177.9210  137.6640 C   0  0  0  0  0  2  0  0  0  0  0  0
  184.2140  178.4080  140.8740 C   0  0  0  0  0  0  0  0  0  0  0  0
  186.0640  178.3530  138.8260 C   0  0  0  0  0  2  0  0  0  0  0  0
  182.1360  177.6820  139.7030 C   0  0  0  0  0  3  0  0  0  0  0  0
  184.0940  177.8420  138.5080 C   0  0  0  0  0  0  0  0  0  0  0  0
  184.8210  178.2610  139.6400 C   0  0  0  0  0  0  0  0  0  0  0  0
  182.7810  177.5480  138.4950 N   0  0  0  0  0  0  0  0  0  0  0  0
  182.8250  178.1040  140.8880 C   0  0  0  0  0  3  0  0  0  0  0  0
  190.2370  176.4310  142.6540 C   0  0  2  0  0  3  0  0  0  0  0  0
  190.6070  175.3200  143.4190 O   0  0  0  0  0  1  0  0  0  0  0  0
  191.6920  178.3560  142.5810 O   0  0  0  0  0  1  0  0  0  0  0  0
  191.4840  177.0840  142.0390 C   0  0  2  0  0  3  0  0  0  0  0  0
  190.4580  176.4020  139.6890 C   0  0  0  0  0  2  0  0  0  0  0  0
  192.7720  177.5040  139.7900 C   0  0  0  0  0  1  0  0  0  0  0  0
  191.4770  177.1740  140.5030 C   0  0  0  0  0  0  0  0  0  0  0  0
  190.2800  177.8950  139.9170 C   0  0  0  0  0  2  0  0  0  0  0  0
  2  1  1  1  0  0  0
  2  4  1  0  0  0  0
  2 11  1  0  0  0  0
  4 24  1  6  0  0  0
  4  7  1  0  0  0  0
  5  6  1  0  0  0  0
  6  3  2  0  0  0  0
  7  5  1  0  0  0  0
  7 10  1  1  0  0  0
  8 12  2  0  0  0  0
  9  3  1  0  0  0  0
 11  8  1  0  0  0  0
 11  5  2  0  0  0  0
 12  9  1  0  0  0  0
 13  8  1  0  0  0  0
 15 14  2  0  0  0  0
 15 13  1  0  0  0  0
 16 20  1  0  0  0  0
 16 18  1  0  0  0  0
 17 23  1  0  0  0  0
 17 15  1  0  0  0  0
 18 21  1  0  0  0  0
 19 23  2  0  0  0  0
 20 21  1  0  0  0  0
 21 17  2  0  0  0  0
 22 20  2  0  0  0  0
 22 19  1  0  0  0  0
 24 25  1  1  0  0  0
 27 26  1  1  0  0  0
 27 24  1  0  0  0  0
 28 31  1  0  0  0  0
 28 30  1  0  0  0  0
 29 30  1  0  0  0  0
 30 27  1  0  0  0  0
 31 30  1  0  0  0  0
M  END
>  <MODEL>
5

>  <REMARK>
 VINA RESULT:      -8.2      1.528      2.194
  Name = 
  5 active torsions:
  status: ('A' for Active; 'I' for Inactive)
    1  A    between atoms: C_3  and  C_20
    2  A    between atoms: C_4  and  C_12
    3  A    between atoms: C_4  and  C_22
    4  A    between atoms: N_15  and  C_21
    5  A    between atoms: C_22  and  C_25
                            x       y       z     vdW  Elec       q    Type
                         _______ _______ _______ _____ _____    ______ ____

>  <TORSDO>
F 5

$$$$
=
 OpenBabel10232411533D

 31 35  0  0  1  0  0  0  0  0999 V2000
  187.6810  176.7400  143.0500 O   0  0  0  0  0  1  0  0  0  0  0  0
  187.5310  177.9930  143.6520 C   0  0  2  0  0  3  0  0  0  0  0  0
  183.3100  178.8160  145.1060 C   0  0  0  0  0  3  0  0  0  0  0  0
  188.0660  177.9860  145.0890 C   0  0  1  0  0  3  0  0  0  0  0  0
  185.7070  178.1540  145.1030 C   0  0  0  0  0  0  0  0  0  0  0  0
  184.3230  178.1210  145.6150 C   0  0  0  0  0  3  0  0  0  0  0  0
  186.8510  177.8170  145.9910 C   0  0  2  0  0  3  0  0  0  0  0  0
  185.1600  178.4880  142.6580 C   0  0  0  0  0  0  0  0  0  0  0  0
  183.4860  179.7880  143.9900 C   0  0  0  0  0  2  0  0  0  0  0  0
  186.9270  178.7640  147.0900 N   0  0  0  0  0  1  0  0  0  0  0  0
  186.0770  178.2860  143.8220 C   0  0  0  0  0  0  0  0  0  0  0  0
  183.9850  179.1170  142.7540 C   0  0  0  0  0  3  0  0  0  0  0  0
  185.5170  177.9800  141.3700 N   0  0  0  0  0  2  0  0  0  0  0  0
  184.7990  179.8380  140.1500 O   0  0  0  0  0  0  0  0  0  0  0  0
  185.4080  178.7340  140.1560 C   0  0  0  0  0  0  0  0  0  0  0  0
  189.2580  177.6790  138.0310 C   0  0  0  0  0  2  0  0  0  0  0  0
  185.9870  178.2100  138.9110 C   0  0  0  0  0  0  0  0  0  0  0  0
  188.7240  178.1950  139.2740 C   0  0  0  0  0  2  0  0  0  0  0  0
  185.7750  177.3200  136.5920 C   0  0  0  0  0  3  0  0  0  0  0  0
  187.8700  177.5560  137.5120 C   0  0  0  0  0  0  0  0  0  0  0  0
  187.3490  178.0570  138.7210 C   0  0  0  0  0  0  0  0  0  0  0  0
  187.1370  177.1830  136.4470 N   0  0  0  0  0  0  0  0  0  0  0  0
  185.1880  177.8240  137.8000 C   0  0  0  0  0  3  0  0  0  0  0  0
  189.1930  176.9770  145.3630 C   0  0  2  0  0  3  0  0  0  0  0  0
  189.2200  176.6340  146.7200 O   0  0  0  0  0  1  0  0  0  0  0  0
  190.4790  178.9000  144.6730 O   0  0  0  0  0  1  0  0  0  0  0  0
  190.5610  177.5280  144.9340 C   0  0  2  0  0  3  0  0  0  0  0  0
  191.8740  175.4660  143.9030 C   0  0  0  0  0  2  0  0  0  0  0  0
  191.6900  177.6470  142.5660 C   0  0  0  0  0  1  0  0  0  0  0  0
  191.2000  176.8130  143.7310 C   0  0  0  0  0  0  0  0  0  0  0  0
  190.4830  175.5510  143.2930 C   0  0  0  0  0  2  0  0  0  0  0  0
  2  1  1  1  0  0  0
  2 11  1  0  0  0  0
  2  4  1  0  0  0  0
  3  6  2  0  0  0  0
  4 24  1  6  0  0  0
  4  7  1  0  0  0  0
  5  6  1  0  0  0  0
  5  7  1  0  0  0  0
  7 10  1  1  0  0  0
  8 12  2  0  0  0  0
  8 11  1  0  0  0  0
  9  3  1  0  0  0  0
 11  5  2  0  0  0  0
 12  9  1  0  0  0  0
 13  8  1  0  0  0  0
 14 15  2  0  0  0  0
 15 13  1  0  0  0  0
 16 18  1  0  0  0  0
 17 15  1  0  0  0  0
 19 23  1  0  0  0  0
 20 16  1  0  0  0  0
 20 21  2  0  0  0  0
 21 17  1  0  0  0  0
 21 18  1  0  0  0  0
 22 19  2  0  0  0  0
 22 20  1  0  0  0  0
 23 17  2  0  0  0  0
 24 25  1  1  0  0  0
 27 26  1  6  0  0  0
 27 24  1  0  0  0  0
 29 30  1  0  0  0  0
 30 28  1  0  0  0  0
 30 27  1  0  0  0  0
 31 30  1  0  0  0  0
 31 28  1  0  0  0  0
M  END
>  <MODEL>
6

>  <REMARK>
 VINA RESULT:      -8.0      2.600      4.765
  Name = 
  5 active torsions:
  status: ('A' for Active; 'I' for Inactive)
    1  A    between atoms: C_3  and  C_20
    2  A    between atoms: C_4  and  C_12
    3  A    between atoms: C_4  and  C_22
    4  A    between atoms: N_15  and  C_21
    5  A    between atoms: C_22  and  C_25
                            x       y       z     vdW  Elec       q    Type
                         _______ _______ _______ _____ _____    ______ ____

>  <TORSDO>
F 5

$$$$
=
 OpenBabel10232411533D

 31 35  0  0  1  0  0  0  0  0999 V2000
  186.2740  179.1410  141.6610 O   0  0  0  0  0  1  0  0  0  0  0  0
  185.5660  178.1510  142.3500 C   0  0  2  0  0  3  0  0  0  0  0  0
  185.6830  178.6430  146.8610 C   0  0  0  0  0  3  0  0  0  0  0  0
  184.0580  178.4240  142.3200 C   0  0  1  0  0  3  0  0  0  0  0  0
  184.9010  178.7630  144.5040 C   0  0  0  0  0  0  0  0  0  0  0  0
  184.9590  179.2200  145.9070 C   0  0  0  0  0  3  0  0  0  0  0  0
  183.7200  179.0760  143.6540 C   0  0  2  0  0  3  0  0  0  0  0  0
  187.2750  177.9190  144.3200 C   0  0  0  0  0  0  0  0  0  0  0  0
  186.4670  177.3980  146.6300 C   0  0  0  0  0  2  0  0  0  0  0  0
  182.5280  178.4580  144.2090 N   0  0  0  0  0  1  0  0  0  0  0  0
  185.9060  178.2250  143.8020 C   0  0  0  0  0  0  0  0  0  0  0  0
  187.5210  177.5980  145.5930 C   0  0  0  0  0  3  0  0  0  0  0  0
  188.4030  177.9840  143.4420 N   0  0  0  0  0  2  0  0  0  0  0  0
  188.4790  175.7020  142.9490 O   0  0  0  0  0  0  0  0  0  0  0  0
  188.9040  176.8630  142.7020 C   0  0  0  0  0  0  0  0  0  0  0  0
  189.6350  177.4340  138.2770 C   0  0  0  0  0  2  0  0  0  0  0  0
  189.9320  177.0630  141.6720 C   0  0  0  0  0  0  0  0  0  0  0  0
  188.5930  177.2420  139.2640 C   0  0  0  0  0  2  0  0  0  0  0  0
  192.3060  177.3200  140.9560 C   0  0  0  0  0  3  0  0  0  0  0  0
  190.6450  177.3830  139.3660 C   0  0  0  0  0  0  0  0  0  0  0  0
  189.6340  177.1970  140.3280 C   0  0  0  0  0  0  0  0  0  0  0  0
  191.9640  177.4500  139.6290 N   0  0  0  0  0  0  0  0  0  0  0  0
  191.3190  177.1290  141.9780 C   0  0  0  0  0  3  0  0  0  0  0  0
  183.5580  179.2110  141.0970 C   0  0  2  0  0  3  0  0  0  0  0  0
  182.1640  179.1400  141.0090 O   0  0  0  0  0  1  0  0  0  0  0  0
  184.6340  179.7600  139.0070 O   0  0  0  0  0  1  0  0  0  0  0  0
  184.1930  178.6940  139.7970 C   0  0  2  0  0  3  0  0  0  0  0  0
  182.3990  178.3390  137.8750 C   0  0  0  0  0  2  0  0  0  0  0  0
  182.8380  176.4580  139.5630 C   0  0  0  0  0  1  0  0  0  0  0  0
  183.2930  177.7700  138.9590 C   0  0  0  0  0  0  0  0  0  0  0  0
  183.6990  177.6410  137.5050 C   0  0  0  0  0  2  0  0  0  0  0  0
  2  1  1  6  0  0  0
  2 11  1  0  0  0  0
  4 24  1  6  0  0  0
  4  2  1  0  0  0  0
  4  7  1  0  0  0  0
  5  6  1  0  0  0  0
  6  3  2  0  0  0  0
  7 10  1  1  0  0  0
  7  5  1  0  0  0  0
  8 12  2  0  0  0  0
  9  3  1  0  0  0  0
 11  8  1  0  0  0  0
 11  5  2  0  0  0  0
 12  9  1  0  0  0  0
 13  8  1  0  0  0  0
 15 14  2  0  0  0  0
 15 13  1  0  0  0  0
 16 18  1  0  0  0  0
 16 20  1  0  0  0  0
 17 23  1  0  0  0  0
 17 15  1  0  0  0  0
 18 21  1  0  0  0  0
 19 23  2  0  0  0  0
 20 22  2  0  0  0  0
 20 21  1  0  0  0  0
 21 17  2  0  0  0  0
 22 19  1  0  0  0  0
 24 25  1  6  0  0  0
 27 26  1  6  0  0  0
 27 24  1  0  0  0  0
 28 30  1  0  0  0  0
 30 29  1  0  0  0  0
 30 27  1  0  0  0  0
 31 28  1  0  0  0  0
 31 30  1  0  0  0  0
M  END
>  <MODEL>
7

>  <REMARK>
 VINA RESULT:      -8.0      2.338      6.586
  Name = 
  5 active torsions:
  status: ('A' for Active; 'I' for Inactive)
    1  A    between atoms: C_3  and  C_20
    2  A    between atoms: C_4  and  C_12
    3  A    between atoms: C_4  and  C_22
    4  A    between atoms: N_15  and  C_21
    5  A    between atoms: C_22  and  C_25
                            x       y       z     vdW  Elec       q    Type
                         _______ _______ _______ _____ _____    ______ ____

>  <TORSDO>
F 5

$$$$
=
 OpenBabel10232411533D

 31 35  0  0  1  0  0  0  0  0999 V2000
  192.0340  177.1970  140.2820 O   0  0  0  0  0  1  0  0  0  0  0  0
  191.1320  176.4040  139.5640 C   0  0  2  0  0  3  0  0  0  0  0  0
  187.8160  178.7790  137.5720 C   0  0  0  0  0  3  0  0  0  0  0  0
  191.7120  175.9980  138.2040 C   0  0  1  0  0  3  0  0  0  0  0  0
  189.9510  177.5490  137.9050 C   0  0  0  0  0  0  0  0  0  0  0  0
  189.0820  178.5410  137.2420 C   0  0  0  0  0  3  0  0  0  0  0  0
  191.1100  176.9570  137.1850 C   0  0  2  0  0  3  0  0  0  0  0  0
  188.9920  177.7570  140.2340 C   0  0  0  0  0  0  0  0  0  0  0  0
  187.0990  177.9940  138.6150 C   0  0  0  0  0  2  0  0  0  0  0  0
  190.6500  176.2100  136.0270 N   0  0  0  0  0  1  0  0  0  0  0  0
  189.9370  177.2240  139.2040 C   0  0  0  0  0  0  0  0  0  0  0  0
  187.7450  178.1420  139.9520 C   0  0  0  0  0  3  0  0  0  0  0  0
  189.4180  177.8930  141.5930 N   0  0  0  0  0  2  0  0  0  0  0  0
  187.9900  176.2690  142.4760 O   0  0  0  0  0  0  0  0  0  0  0  0
  188.9580  177.0560  142.6610 C   0  0  0  0  0  0  0  0  0  0  0  0
  188.2480  177.6950  147.0810 C   0  0  0  0  0  2  0  0  0  0  0  0
  189.5990  177.1300  143.9810 C   0  0  0  0  0  0  0  0  0  0  0  0
  187.5800  177.6250  145.7980 C   0  0  0  0  0  2  0  0  0  0  0  0
  191.6060  177.0500  145.4580 C   0  0  0  0  0  3  0  0  0  0  0  0
  189.5420  177.4380  146.3960 C   0  0  0  0  0  0  0  0  0  0  0  0
  188.8940  177.3680  145.1470 C   0  0  0  0  0  0  0  0  0  0  0  0
  190.8650  177.2880  146.5930 N   0  0  0  0  0  0  0  0  0  0  0  0
  191.0000  176.9680  144.1610 C   0  0  0  0  0  3  0  0  0  0  0  0
  193.2450  175.9060  138.1460 C   0  0  2  0  0  3  0  0  0  0  0  0
  193.7850  177.0910  137.6340 O   0  0  0  0  0  1  0  0  0  0  0  0
  192.8000  173.6510  137.4080 O   0  0  0  0  0  1  0  0  0  0  0  0
  193.7060  174.7110  137.2990 C   0  0  2  0  0  3  0  0  0  0  0  0
  195.6520  174.2020  139.0290 C   0  0  0  0  0  2  0  0  0  0  0  0
  196.1780  174.2920  136.5200 C   0  0  0  0  0  1  0  0  0  0  0  0
  195.1270  174.2080  137.6060 C   0  0  0  0  0  0  0  0  0  0  0  0
  195.1820  172.9070  138.3830 C   0  0  0  0  0  2  0  0  0  0  0  0
  2  1  1  6  0  0  0
  3  9  1  0  0  0  0
  4 24  1  1  0  0  0
  4  2  1  0  0  0  0
  5 11  2  0  0  0  0
  6  3  2  0  0  0  0
  6  5  1  0  0  0  0
  7 10  1  6  0  0  0
  7  5  1  0  0  0  0
  7  4  1  0  0  0  0
  8 13  1  0  0  0  0
  9 12  1  0  0  0  0
 11  2  1  0  0  0  0
 11  8  1  0  0  0  0
 12  8  2  0  0  0  0
 13 15  1  0  0  0  0
 14 15  2  0  0  0  0
 15 17  1  0  0  0  0
 17 23  2  0  0  0  0
 17 21  1  0  0  0  0
 18 16  1  0  0  0  0
 19 22  2  0  0  0  0
 20 22  1  0  0  0  0
 20 16  1  0  0  0  0
 21 18  1  0  0  0  0
 21 20  2  0  0  0  0
 23 19  1  0  0  0  0
 24 25  1  6  0  0  0
 27 26  1  1  0  0  0
 27 30  1  0  0  0  0
 27 24  1  0  0  0  0
 29 30  1  0  0  0  0
 30 31  1  0  0  0  0
 30 28  1  0  0  0  0
 31 28  1  0  0  0  0
M  END
>  <MODEL>
8

>  <REMARK>
 VINA RESULT:      -8.0      3.544      7.505
  Name = 
  5 active torsions:
  status: ('A' for Active; 'I' for Inactive)
    1  A    between atoms: C_3  and  C_20
    2  A    between atoms: C_4  and  C_12
    3  A    between atoms: C_4  and  C_22
    4  A    between atoms: N_15  and  C_21
    5  A    between atoms: C_22  and  C_25
                            x       y       z     vdW  Elec       q    Type
                         _______ _______ _______ _____ _____    ______ ____

>  <TORSDO>
F 5

$$$$
=
 OpenBabel10232411533D

 31 35  0  0  1  0  0  0  0  0999 V2000
  187.4650  177.1230  141.8760 O   0  0  0  0  0  1  0  0  0  0  0  0
  188.1280  178.1390  141.1810 C   0  0  2  0  0  3  0  0  0  0  0  0
  191.8640  176.7240  139.0250 C   0  0  0  0  0  3  0  0  0  0  0  0
  187.4300  178.4480  139.8510 C   0  0  1  0  0  3  0  0  0  0  0  0
  189.5050  177.3840  139.4510 C   0  0  0  0  0  0  0  0  0  0  0  0
  190.5690  176.6610  138.7280 C   0  0  0  0  0  3  0  0  0  0  0  0
  188.2170  177.7060  138.7790 C   0  0  2  0  0  3  0  0  0  0  0  0
  190.5480  177.3210  141.7510 C   0  0  0  0  0  0  0  0  0  0  0  0
  192.3980  177.6160  140.0920 C   0  0  0  0  0  2  0  0  0  0  0  0
  188.4510  178.5890  137.6490 N   0  0  0  0  0  1  0  0  0  0  0  0
  189.4750  177.6500  140.7630 C   0  0  0  0  0  0  0  0  0  0  0  0
  191.8440  177.2610  141.4310 C   0  0  0  0  0  3  0  0  0  0  0  0
  190.2050  177.0300  143.1090 N   0  0  0  0  0  2  0  0  0  0  0  0
  190.4470  179.2110  143.9110 O   0  0  0  0  0  0  0  0  0  0  0  0
  190.0710  178.0270  144.1300 C   0  0  0  0  0  0  0  0  0  0  0  0
  186.3060  177.8530  146.6280 C   0  0  0  0  0  2  0  0  0  0  0  0
  189.5170  177.6660  145.4420 C   0  0  0  0  0  0  0  0  0  0  0  0
  186.8150  178.2160  145.3220 C   0  0  0  0  0  2  0  0  0  0  0  0
  189.7600  176.8060  147.7690 C   0  0  0  0  0  3  0  0  0  0  0  0
  187.6820  177.4540  147.0280 C   0  0  0  0  0  0  0  0  0  0  0  0
  188.1780  177.8060  145.7580 C   0  0  0  0  0  0  0  0  0  0  0  0
  188.4200  176.9610  148.0400 N   0  0  0  0  0  0  0  0  0  0  0  0
  190.3210  177.1470  146.4940 C   0  0  0  0  0  3  0  0  0  0  0  0
  185.9190  178.1680  139.8230 C   0  0  2  0  0  3  0  0  0  0  0  0
  185.4490  178.1630  138.5050 O   0  0  0  0  0  1  0  0  0  0  0  0
  185.9990  179.8950  141.5070 O   0  0  0  0  0  1  0  0  0  0  0  0
  185.1390  179.1970  140.6540 C   0  0  2  0  0  3  0  0  0  0  0  0
  182.5380  178.7940  140.9870 C   0  0  0  0  0  2  0  0  0  0  0  0
  184.1390  178.4300  142.9570 C   0  0  0  0  0  1  0  0  0  0  0  0
  183.9660  178.6200  141.4650 C   0  0  0  0  0  0  0  0  0  0  0  0
  183.2480  177.4620  140.8020 C   0  0  0  0  0  2  0  0  0  0  0  0
  2  1  1  6  0  0  0
  3  9  1  0  0  0  0
  4 24  1  1  0  0  0
  4  2  1  0  0  0  0
  5 11  2  0  0  0  0
  6  3  2  0  0  0  0
  6  5  1  0  0  0  0
  7 10  1  6  0  0  0
  7  5  1  0  0  0  0
  7  4  1  0  0  0  0
  8 13  1  0  0  0  0
  9 12  1  0  0  0  0
 11  2  1  0  0  0  0
 11  8  1  0  0  0  0
 12  8  2  0  0  0  0
 13 15  1  0  0  0  0
 14 15  2  0  0  0  0
 15 17  1  0  0  0  0
 16 20  1  0  0  0  0
 17 21  2  0  0  0  0
 17 23  1  0  0  0  0
 18 21  1  0  0  0  0
 18 16  1  0  0  0  0
 19 22  1  0  0  0  0
 20 22  2  0  0  0  0
 21 20  1  0  0  0  0
 23 19  2  0  0  0  0
 24 25  1  6  0  0  0
 24 27  1  0  0  0  0
 27 30  1  0  0  0  0
 27 26  1  1  0  0  0
 28 30  1  0  0  0  0
 30 29  1  0  0  0  0
 31 28  1  0  0  0  0
 31 30  1  0  0  0  0
M  END
>  <MODEL>
9

>  <REMARK>
 VINA RESULT:      -8.0      2.313      6.924
  Name = 
  5 active torsions:
  status: ('A' for Active; 'I' for Inactive)
    1  A    between atoms: C_3  and  C_20
    2  A    between atoms: C_4  and  C_12
    3  A    between atoms: C_4  and  C_22
    4  A    between atoms: N_15  and  C_21
    5  A    between atoms: C_22  and  C_25
                            x       y       z     vdW  Elec       q    Type
                         _______ _______ _______ _____ _____    ______ ____

>  <TORSDO>
F 5

$$$$
