=
 OpenBabel10232408153D

 32 33  0  0  1  0  0  0  0  0999 V2000
  188.6440  177.4550  145.3140 C   0  0  0  0  0  0  0  0  0  0  0  0
  192.0000  176.0400  145.8780 O   0  0  0  0  0  0  0  0  0  0  0  0
  190.7300  179.3960  143.6020 C   0  0  0  0  0  1  0  0  0  0  0  0
  186.3890  178.1410  143.7590 C   0  0  0  0  0  0  0  0  0  0  0  0
  188.8100  177.8630  143.9670 C   0  0  0  0  0  0  0  0  0  0  0  0
  188.7500  177.2170  148.3770 C   0  0  0  0  0  1  0  0  0  0  0  0
  191.1210  177.0210  143.9630 N   0  0  0  0  0  2  0  0  0  0  0  0
  189.8650  176.8880  147.4430 C   0  0  0  0  0  3  0  0  0  0  0  0
  190.1990  177.9910  143.3800 C   0  0  2  0  0  3  0  0  0  0  0  0
  187.6840  178.2210  143.1880 C   0  0  0  0  0  0  0  0  0  0  0  0
  186.2410  177.7370  145.0860 C   0  0  0  0  0  3  0  0  0  0  0  0
  187.3520  177.3930  145.8500 C   0  0  0  0  0  3  0  0  0  0  0  0
  189.8310  177.0080  146.1050 C   0  0  0  0  0  0  0  0  0  0  0  0
  191.0450  176.6650  145.3430 C   0  0  0  0  0  0  0  0  0  0  0  0
  185.1680  178.4730  143.0020 C   0  0  0  0  0  0  0  0  0  0  0  0
  184.8200  177.6770  141.9910 C   0  0  0  0  0  3  0  0  0  0  0  0
  183.6040  177.9190  141.1530 C   0  0  0  0  0  2  0  0  0  0  0  0
  182.6930  176.1830  139.7920 O   0  0  0  0  0  1  0  0  0  0  0  0
  183.6900  177.1600  139.8390 C   0  0  1  0  0  3  0  0  0  0  0  0
  183.5140  178.1330  138.6870 C   0  0  0  0  0  2  0  0  0  0  0  0
  185.9230  178.7760  138.3010 N   0  0  0  0  0  1  0  0  0  0  0  0
  184.6060  179.1470  138.6870 C   0  0  0  0  0  0  0  0  0  0  0  0
  184.3580  180.3390  139.0070 O   0  0  0  0  0  0  0  0  0  0  0  0
  184.3650  179.5850  143.3150 O   0  0  0  0  0  0  0  0  0  0  0  0
  182.0760  179.8400  143.6320 O   0  0  0  0  0  0  0  0  0  0  0  0
  183.2110  179.5760  144.1110 C   0  0  0  0  0  0  0  0  0  0  0  0
  183.3210  179.2490  145.4560 O   0  0  0  0  0  1  0  0  0  0  0  0
  186.8380  179.4540  141.3200 F   0  0  0  0  0  0  0  0  0  0  0  0
  187.8940  178.6790  141.7660 C   0  0  2  0  0  3  0  0  0  0  0  0
  188.1420  177.5060  140.8340 C   0  0  0  0  0  2  0  0  0  0  0  0
  188.9680  177.9020  139.7830 O   0  0  0  0  0  0  0  0  0  0  0  0
  190.0420  177.0130  139.8300 C   0  0  0  0  0  1  0  0  0  0  0  0
  1 12  1  0  0  0  0
  1 13  1  0  0  0  0
  4 11  1  0  0  0  0
  5  1  2  0  0  0  0
  7 14  1  0  0  0  0
  8  6  1  0  0  0  0
  9  3  1  1  0  0  0
  9  7  1  0  0  0  0
  9  5  1  0  0  0  0
 10  4  2  0  0  0  0
 10  5  1  0  0  0  0
 11 12  2  0  0  0  0
 13  8  2  0  0  0  0
 14  2  2  0  0  0  0
 14 13  1  0  0  0  0
 15 24  1  0  0  0  0
 15  4  1  0  0  0  0
 16 15  2  0  0  0  0
 17 16  1  0  0  0  0
 19 18  1  1  0  0  0
 19 17  1  0  0  0  0
 20 19  1  0  0  0  0
 21 22  1  0  0  0  0
 22 20  1  0  0  0  0
 22 23  2  0  0  0  0
 24 26  1  0  0  0  0
 25 26  2  0  0  0  0
 26 27  1  0  0  0  0
 29 28  1  6  0  0  0
 29 10  1  0  0  0  0
 30 29  1  0  0  0  0
 31 32  1  0  0  0  0
 31 30  1  0  0  0  0
M  END
>  <MODEL>
1

>  <REMARK>
 VINA RESULT:      -7.6      0.000      0.000
  Name = 
  10 active torsions:
  status: ('A' for Active; 'I' for Inactive)
    1  A    between atoms: C_1  and  C_11
    2  A    between atoms: C_1  and  O_30
    3  A    between atoms: C_3  and  C_5
    4  A    between atoms: C_3  and  C_8
    5  A    between atoms: O_4  and  C_24
    6  A    between atoms: C_5  and  C_25
    7  A    between atoms: C_12  and  C_25
    8  A    between atoms: C_20  and  C_29
    9  A    between atoms: C_24  and  C_29
   10  A    between atoms: C_26  and  O_30
                            x       y       z     vdW  Elec       q    Type
                         _______ _______ _______ _____ _____    ______ ____

>  <TORSDO>
F 10

$$$$
=
 OpenBabel10232408153D

 32 33  0  0  1  0  0  0  0  0999 V2000
  188.7370  177.5470  145.4690 C   0  0  0  0  0  0  0  0  0  0  0  0
  192.0420  176.1350  146.2850 O   0  0  0  0  0  0  0  0  0  0  0  0
  190.9370  179.4220  143.8290 C   0  0  0  0  0  1  0  0  0  0  0  0
  186.5870  178.1920  143.7560 C   0  0  0  0  0  0  0  0  0  0  0  0
  188.9880  177.9110  144.1220 C   0  0  0  0  0  0  0  0  0  0  0  0
  188.6510  177.4060  148.5380 C   0  0  0  0  0  1  0  0  0  0  0  0
  191.2900  177.0580  144.2880 N   0  0  0  0  0  2  0  0  0  0  0  0
  189.8190  177.0420  147.6860 C   0  0  0  0  0  3  0  0  0  0  0  0
  190.4120  178.0130  143.6190 C   0  0  2  0  0  3  0  0  0  0  0  0
  187.9150  178.2490  143.2640 C   0  0  0  0  0  0  0  0  0  0  0  0
  186.3550  177.8320  145.0840 C   0  0  0  0  0  3  0  0  0  0  0  0
  187.4140  177.5080  145.9250 C   0  0  0  0  0  3  0  0  0  0  0  0
  189.8700  177.1190  146.3450 C   0  0  0  0  0  0  0  0  0  0  0  0
  191.1260  176.7460  145.6710 C   0  0  0  0  0  0  0  0  0  0  0  0
  185.4170  178.5060  142.9150 C   0  0  0  0  0  0  0  0  0  0  0  0
  185.2190  177.7760  141.8160 C   0  0  0  0  0  3  0  0  0  0  0  0
  184.0690  178.0070  140.8880 C   0  0  0  0  0  2  0  0  0  0  0  0
  185.6600  178.6460  139.2290 O   0  0  0  0  0  1  0  0  0  0  0  0
  184.4380  179.0050  139.8030 C   0  0  1  0  0  3  0  0  0  0  0  0
  183.3520  179.0150  138.7420 C   0  0  0  0  0  2  0  0  0  0  0  0
  181.1250  180.1630  139.0400 N   0  0  0  0  0  1  0  0  0  0  0  0
  182.5300  180.2530  138.8450 C   0  0  0  0  0  0  0  0  0  0  0  0
  183.0840  181.3820  138.7820 O   0  0  0  0  0  0  0  0  0  0  0  0
  184.5110  179.5330  143.2340 O   0  0  0  0  0  0  0  0  0  0  0  0
  182.2010  179.4070  143.4650 O   0  0  0  0  0  0  0  0  0  0  0  0
  183.3420  179.3990  143.9980 C   0  0  0  0  0  0  0  0  0  0  0  0
  183.4480  179.2340  145.3720 O   0  0  0  0  0  1  0  0  0  0  0  0
  187.2670  179.5420  141.3580 F   0  0  0  0  0  0  0  0  0  0  0  0
  188.2160  178.6600  141.8440 C   0  0  2  0  0  3  0  0  0  0  0  0
  188.3570  177.4530  140.9320 C   0  0  0  0  0  2  0  0  0  0  0  0
  189.5750  177.5110  140.2560 O   0  0  0  0  0  0  0  0  0  0  0  0
  189.2880  178.2110  139.0840 C   0  0  0  0  0  1  0  0  0  0  0  0
  1 12  1  0  0  0  0
  1 13  1  0  0  0  0
  4 11  1  0  0  0  0
  5  1  2  0  0  0  0
  7 14  1  0  0  0  0
  8  6  1  0  0  0  0
  9  3  1  1  0  0  0
  9  5  1  0  0  0  0
  9  7  1  0  0  0  0
 10  4  2  0  0  0  0
 10  5  1  0  0  0  0
 11 12  2  0  0  0  0
 13  8  2  0  0  0  0
 14  2  2  0  0  0  0
 14 13  1  0  0  0  0
 15 24  1  0  0  0  0
 15  4  1  0  0  0  0
 16 15  2  0  0  0  0
 17 16  1  0  0  0  0
 19 18  1  6  0  0  0
 19 17  1  0  0  0  0
 20 22  1  0  0  0  0
 20 19  1  0  0  0  0
 22 21  1  0  0  0  0
 23 22  2  0  0  0  0
 24 26  1  0  0  0  0
 25 26  2  0  0  0  0
 26 27  1  0  0  0  0
 29 28  1  6  0  0  0
 29 10  1  0  0  0  0
 30 29  1  0  0  0  0
 31 30  1  0  0  0  0
 32 31  1  0  0  0  0
M  END
>  <MODEL>
2

>  <REMARK>
 VINA RESULT:      -7.6      1.289      1.363
  Name = 
  10 active torsions:
  status: ('A' for Active; 'I' for Inactive)
    1  A    between atoms: C_1  and  C_11
    2  A    between atoms: C_1  and  O_30
    3  A    between atoms: C_3  and  C_5
    4  A    between atoms: C_3  and  C_8
    5  A    between atoms: O_4  and  C_24
    6  A    between atoms: C_5  and  C_25
    7  A    between atoms: C_12  and  C_25
    8  A    between atoms: C_20  and  C_29
    9  A    between atoms: C_24  and  C_29
   10  A    between atoms: C_26  and  O_30
                            x       y       z     vdW  Elec       q    Type
                         _______ _______ _______ _____ _____    ______ ____

>  <TORSDO>
F 10

$$$$
=
 OpenBabel10232408153D

 32 33  0  0  1  0  0  0  0  0999 V2000
  190.3860  176.8370  138.4300 C   0  0  0  0  0  0  0  0  0  0  0  0
  189.7170  176.1940  134.8630 O   0  0  0  0  0  0  0  0  0  0  0  0
  189.0150  179.6320  137.2600 C   0  0  0  0  0  1  0  0  0  0  0  0
  189.6650  177.3530  141.1110 C   0  0  0  0  0  0  0  0  0  0  0  0
  189.2490  177.6340  138.7180 C   0  0  0  0  0  0  0  0  0  0  0  0
  193.0960  175.7860  137.4330 C   0  0  0  0  0  1  0  0  0  0  0  0
  188.4720  177.4230  136.3930 N   0  0  0  0  0  2  0  0  0  0  0  0
  191.8910  176.0170  136.5860 C   0  0  0  0  0  3  0  0  0  0  0  0
  188.4560  178.2590  137.5900 C   0  0  2  0  0  3  0  0  0  0  0  0
  188.8920  177.9060  140.0610 C   0  0  0  0  0  0  0  0  0  0  0  0
  190.7820  176.5710  140.8120 C   0  0  0  0  0  3  0  0  0  0  0  0
  191.1320  176.3120  139.4910 C   0  0  0  0  0  3  0  0  0  0  0  0
  190.7100  176.4940  137.0120 C   0  0  0  0  0  0  0  0  0  0  0  0
  189.6370  176.6880  136.0200 C   0  0  0  0  0  0  0  0  0  0  0  0
  189.3420  177.5720  142.5330 C   0  0  0  0  0  0  0  0  0  0  0  0
  188.4170  176.7910  143.0940 C   0  0  0  0  0  3  0  0  0  0  0  0
  188.0060  176.9250  144.5260 C   0  0  0  0  0  2  0  0  0  0  0  0
  186.0080  177.7710  143.5330 O   0  0  0  0  0  1  0  0  0  0  0  0
  186.8200  177.8660  144.6660 C   0  0  1  0  0  3  0  0  0  0  0  0
  186.0260  177.4880  145.9030 C   0  0  0  0  0  2  0  0  0  0  0  0
  185.8180  179.5930  147.2790 N   0  0  0  0  0  1  0  0  0  0  0  0
  185.2320  178.6510  146.3900 C   0  0  0  0  0  0  0  0  0  0  0  0
  184.0470  178.8120  145.9970 O   0  0  0  0  0  0  0  0  0  0  0  0
  189.9740  178.5600  143.3080 O   0  0  0  0  0  0  0  0  0  0  0  0
  191.9470  179.4590  144.1470 O   0  0  0  0  0  0  0  0  0  0  0  0
  191.2240  178.4490  143.9330 C   0  0  0  0  0  0  0  0  0  0  0  0
  191.6670  177.1990  144.3410 O   0  0  0  0  0  1  0  0  0  0  0  0
  187.7530  179.3410  141.6000 F   0  0  0  0  0  0  0  0  0  0  0  0
  187.6940  178.7810  140.3360 C   0  0  2  0  0  3  0  0  0  0  0  0
  186.3930  178.0230  140.1340 C   0  0  0  0  0  2  0  0  0  0  0  0
  185.4600  178.8440  139.5030 O   0  0  0  0  0  0  0  0  0  0  0  0
  184.4950  179.0880  140.4810 C   0  0  0  0  0  1  0  0  0  0  0  0
  1  5  2  0  0  0  0
  1 12  1  0  0  0  0
  2 14  2  0  0  0  0
  4 15  1  0  0  0  0
  5 10  1  0  0  0  0
  7  9  1  0  0  0  0
  8 13  2  0  0  0  0
  8  6  1  0  0  0  0
  9  3  1  6  0  0  0
  9  5  1  0  0  0  0
 10 29  1  0  0  0  0
 10  4  2  0  0  0  0
 11  4  1  0  0  0  0
 12 11  2  0  0  0  0
 13  1  1  0  0  0  0
 14  7  1  0  0  0  0
 14 13  1  0  0  0  0
 15 16  2  0  0  0  0
 15 24  1  0  0  0  0
 16 17  1  0  0  0  0
 17 19  1  0  0  0  0
 19 18  1  6  0  0  0
 19 20  1  0  0  0  0
 20 22  1  0  0  0  0
 22 21  1  0  0  0  0
 23 22  2  0  0  0  0
 24 26  1  0  0  0  0
 26 25  2  0  0  0  0
 26 27  1  0  0  0  0
 29 28  1  1  0  0  0
 30 29  1  0  0  0  0
 31 30  1  0  0  0  0
 31 32  1  0  0  0  0
M  END
>  <MODEL>
3

>  <REMARK>
 VINA RESULT:      -7.0      2.731      7.105
  Name = 
  10 active torsions:
  status: ('A' for Active; 'I' for Inactive)
    1  A    between atoms: C_1  and  C_11
    2  A    between atoms: C_1  and  O_30
    3  A    between atoms: C_3  and  C_5
    4  A    between atoms: C_3  and  C_8
    5  A    between atoms: O_4  and  C_24
    6  A    between atoms: C_5  and  C_25
    7  A    between atoms: C_12  and  C_25
    8  A    between atoms: C_20  and  C_29
    9  A    between atoms: C_24  and  C_29
   10  A    between atoms: C_26  and  O_30
                            x       y       z     vdW  Elec       q    Type
                         _______ _______ _______ _____ _____    ______ ____

>  <TORSDO>
F 10

$$$$
=
 OpenBabel10232408153D

 32 33  0  0  1  0  0  0  0  0999 V2000
  187.1440  178.0140  145.2400 C   0  0  0  0  0  0  0  0  0  0  0  0
  189.6220  176.3930  147.4350 O   0  0  0  0  0  0  0  0  0  0  0  0
  190.0940  178.5510  143.8040 C   0  0  0  0  0  1  0  0  0  0  0  0
  185.6800  178.3440  142.8480 C   0  0  0  0  0  0  0  0  0  0  0  0
  187.7550  177.7370  143.9910 C   0  0  0  0  0  0  0  0  0  0  0  0
  186.4200  179.1530  148.0010 C   0  0  0  0  0  1  0  0  0  0  0  0
  189.6000  176.5610  145.1160 N   0  0  0  0  0  2  0  0  0  0  0  0
  187.5610  178.2370  147.7130 C   0  0  0  0  0  3  0  0  0  0  0  0
  189.2100  177.3230  143.9340 C   0  0  2  0  0  3  0  0  0  0  0  0
  187.0290  177.9150  142.7890 C   0  0  0  0  0  0  0  0  0  0  0  0
  185.0920  178.6130  144.0850 C   0  0  0  0  0  3  0  0  0  0  0  0
  185.8120  178.4430  145.2630 C   0  0  0  0  0  3  0  0  0  0  0  0
  187.8950  177.7510  146.5060 C   0  0  0  0  0  0  0  0  0  0  0  0
  189.0800  176.8800  146.4060 C   0  0  0  0  0  0  0  0  0  0  0  0
  184.8530  178.5280  141.6410 C   0  0  0  0  0  0  0  0  0  0  0  0
  183.8380  177.6870  141.4410 C   0  0  0  0  0  3  0  0  0  0  0  0
  182.9360  177.7760  140.2510 C   0  0  0  0  0  2  0  0  0  0  0  0
  181.6290  175.8020  139.9510 O   0  0  0  0  0  1  0  0  0  0  0  0
  182.8140  176.4290  139.5590 C   0  0  1  0  0  3  0  0  0  0  0  0
  182.8140  176.6370  138.0550 C   0  0  0  0  0  2  0  0  0  0  0  0
  183.3960  175.3830  135.9440 N   0  0  0  0  0  1  0  0  0  0  0  0
  183.4180  175.4640  137.3640 C   0  0  0  0  0  0  0  0  0  0  0  0
  183.9690  174.5520  138.0360 O   0  0  0  0  0  0  0  0  0  0  0  0
  185.0940  179.5540  140.7090 O   0  0  0  0  0  0  0  0  0  0  0  0
  185.5860  178.6360  138.6310 O   0  0  0  0  0  0  0  0  0  0  0  0
  184.9330  179.4650  139.3190 C   0  0  0  0  0  0  0  0  0  0  0  0
  184.0180  180.2970  138.6910 O   0  0  0  0  0  1  0  0  0  0  0  0
  188.5630  176.5500  141.5600 F   0  0  0  0  0  0  0  0  0  0  0  0
  187.7150  177.6400  141.4730 C   0  0  2  0  0  3  0  0  0  0  0  0
  188.4520  178.8660  140.9620 C   0  0  0  0  0  2  0  0  0  0  0  0
  188.4420  178.8780  139.5680 O   0  0  0  0  0  0  0  0  0  0  0  0
  189.5630  178.1320  139.2060 C   0  0  0  0  0  1  0  0  0  0  0  0
  1 12  1  0  0  0  0
  1 13  1  0  0  0  0
  4 11  1  0  0  0  0
  5  1  2  0  0  0  0
  7 14  1  0  0  0  0
  8  6  1  0  0  0  0
  9  3  1  1  0  0  0
  9  5  1  0  0  0  0
  9  7  1  0  0  0  0
 10  4  2  0  0  0  0
 10  5  1  0  0  0  0
 11 12  2  0  0  0  0
 13  8  2  0  0  0  0
 14 13  1  0  0  0  0
 14  2  2  0  0  0  0
 15  4  1  0  0  0  0
 16 15  2  0  0  0  0
 17 16  1  0  0  0  0
 19 18  1  1  0  0  0
 19 17  1  0  0  0  0
 20 19  1  0  0  0  0
 21 22  1  0  0  0  0
 22 23  2  0  0  0  0
 22 20  1  0  0  0  0
 24 15  1  0  0  0  0
 25 26  2  0  0  0  0
 26 24  1  0  0  0  0
 27 26  1  0  0  0  0
 29 28  1  1  0  0  0
 29 10  1  0  0  0  0
 30 29  1  0  0  0  0
 31 30  1  0  0  0  0
 32 31  1  0  0  0  0
M  END
>  <MODEL>
4

>  <REMARK>
 VINA RESULT:      -6.7      2.033      2.936
  Name = 
  10 active torsions:
  status: ('A' for Active; 'I' for Inactive)
    1  A    between atoms: C_1  and  C_11
    2  A    between atoms: C_1  and  O_30
    3  A    between atoms: C_3  and  C_5
    4  A    between atoms: C_3  and  C_8
    5  A    between atoms: O_4  and  C_24
    6  A    between atoms: C_5  and  C_25
    7  A    between atoms: C_12  and  C_25
    8  A    between atoms: C_20  and  C_29
    9  A    between atoms: C_24  and  C_29
   10  A    between atoms: C_26  and  O_30
                            x       y       z     vdW  Elec       q    Type
                         _______ _______ _______ _____ _____    ______ ____

>  <TORSDO>
F 10

$$$$
=
 OpenBabel10232408153D

 32 33  0  0  1  0  0  0  0  0999 V2000
  187.4540  177.8820  144.4030 C   0  0  0  0  0  0  0  0  0  0  0  0
  189.5120  176.3850  147.0690 O   0  0  0  0  0  0  0  0  0  0  0  0
  190.5020  179.1460  143.9940 C   0  0  0  0  0  1  0  0  0  0  0  0
  186.6750  178.3330  141.7270 C   0  0  0  0  0  0  0  0  0  0  0  0
  188.4320  177.9200  143.3770 C   0  0  0  0  0  0  0  0  0  0  0  0
  185.7680  178.4220  146.9150 C   0  0  0  0  0  1  0  0  0  0  0  0
  190.0980  176.9160  144.8830 N   0  0  0  0  0  2  0  0  0  0  0  0
  187.1120  177.7750  146.8950 C   0  0  0  0  0  3  0  0  0  0  0  0
  189.8990  177.7790  143.7220 C   0  0  2  0  0  3  0  0  0  0  0  0
  188.0470  178.1600  142.0360 C   0  0  0  0  0  0  0  0  0  0  0  0
  185.7240  178.2940  142.7470 C   0  0  0  0  0  3  0  0  0  0  0  0
  186.1080  178.0650  144.0640 C   0  0  0  0  0  3  0  0  0  0  0  0
  187.8620  177.5540  145.8030 C   0  0  0  0  0  0  0  0  0  0  0  0
  189.1850  176.9290  145.9800 C   0  0  0  0  0  0  0  0  0  0  0  0
  186.1960  178.5620  140.3510 C   0  0  0  0  0  0  0  0  0  0  0  0
  186.5980  177.7200  139.3980 C   0  0  0  0  0  3  0  0  0  0  0  0
  186.1780  177.8570  137.9680 C   0  0  0  0  0  2  0  0  0  0  0  0
  188.0810  179.1460  137.3270 O   0  0  0  0  0  1  0  0  0  0  0  0
  187.3880  177.9640  137.0550 C   0  0  1  0  0  3  0  0  0  0  0  0
  188.2950  176.7690  137.2840 C   0  0  0  0  0  2  0  0  0  0  0  0
  188.3860  176.0710  134.8610 N   0  0  0  0  0  1  0  0  0  0  0  0
  189.0670  176.4520  136.0490 C   0  0  0  0  0  0  0  0  0  0  0  0
  190.3220  176.5440  136.0520 O   0  0  0  0  0  0  0  0  0  0  0  0
  185.3350  179.6230  140.0170 O   0  0  0  0  0  0  0  0  0  0  0  0
  183.4340  180.2840  138.8550 O   0  0  0  0  0  0  0  0  0  0  0  0
  183.9750  179.5150  139.6930 C   0  0  0  0  0  0  0  0  0  0  0  0
  183.2130  178.5260  140.2980 O   0  0  0  0  0  1  0  0  0  0  0  0
  188.8280  179.1910  140.0230 F   0  0  0  0  0  0  0  0  0  0  0  0
  189.1130  178.2220  140.9700 C   0  0  2  0  0  3  0  0  0  0  0  0
  189.3290  176.8680  140.3170 C   0  0  0  0  0  2  0  0  0  0  0  0
  190.5490  176.3330  140.7280 O   0  0  0  0  0  0  0  0  0  0  0  0
  191.4920  177.2890  140.3520 C   0  0  0  0  0  1  0  0  0  0  0  0
  1 13  1  0  0  0  0
  4 10  2  0  0  0  0
  4 11  1  0  0  0  0
  5  9  1  0  0  0  0
  5  1  2  0  0  0  0
  7 14  1  0  0  0  0
  8  6  1  0  0  0  0
  9  3  1  1  0  0  0
  9  7  1  0  0  0  0
 10  5  1  0  0  0  0
 11 12  2  0  0  0  0
 12  1  1  0  0  0  0
 13 14  1  0  0  0  0
 13  8  2  0  0  0  0
 14  2  2  0  0  0  0
 15  4  1  0  0  0  0
 16 15  2  0  0  0  0
 17 16  1  0  0  0  0
 19 20  1  0  0  0  0
 19 18  1  1  0  0  0
 19 17  1  0  0  0  0
 21 22  1  0  0  0  0
 22 23  2  0  0  0  0
 22 20  1  0  0  0  0
 24 15  1  0  0  0  0
 25 26  2  0  0  0  0
 26 24  1  0  0  0  0
 26 27  1  0  0  0  0
 29 28  1  6  0  0  0
 29 10  1  0  0  0  0
 30 31  1  0  0  0  0
 30 29  1  0  0  0  0
 32 31  1  0  0  0  0
M  END
>  <MODEL>
5

>  <REMARK>
 VINA RESULT:      -6.7      2.181      3.567
  Name = 
  10 active torsions:
  status: ('A' for Active; 'I' for Inactive)
    1  A    between atoms: C_1  and  C_11
    2  A    between atoms: C_1  and  O_30
    3  A    between atoms: C_3  and  C_5
    4  A    between atoms: C_3  and  C_8
    5  A    between atoms: O_4  and  C_24
    6  A    between atoms: C_5  and  C_25
    7  A    between atoms: C_12  and  C_25
    8  A    between atoms: C_20  and  C_29
    9  A    between atoms: C_24  and  C_29
   10  A    between atoms: C_26  and  O_30
                            x       y       z     vdW  Elec       q    Type
                         _______ _______ _______ _____ _____    ______ ____

>  <TORSDO>
F 10

$$$$
=
 OpenBabel10232408153D

 32 33  0  0  1  0  0  0  0  0999 V2000
  186.8000  178.2560  143.3490 C   0  0  0  0  0  0  0  0  0  0  0  0
  186.1960  177.2950  146.8550 O   0  0  0  0  0  0  0  0  0  0  0  0
  189.7650  178.4190  144.8420 C   0  0  0  0  0  1  0  0  0  0  0  0
  187.8810  177.9300  140.7610 C   0  0  0  0  0  0  0  0  0  0  0  0
  188.0770  177.6640  143.1830 C   0  0  0  0  0  0  0  0  0  0  0  0
  184.4540  180.0790  144.1350 C   0  0  0  0  0  1  0  0  0  0  0  0
  188.0320  176.8440  145.5030 N   0  0  0  0  0  2  0  0  0  0  0  0
  185.1560  179.1300  145.0450 C   0  0  0  0  0  3  0  0  0  0  0  0
  188.8880  177.2620  144.3970 C   0  0  2  0  0  3  0  0  0  0  0  0
  188.6290  177.5110  141.8890 C   0  0  0  0  0  0  0  0  0  0  0  0
  186.6250  178.5110  140.9390 C   0  0  0  0  0  3  0  0  0  0  0  0
  186.0900  178.6650  142.2130 C   0  0  0  0  0  3  0  0  0  0  0  0
  186.1940  178.3440  144.7130 C   0  0  0  0  0  0  0  0  0  0  0  0
  186.7840  177.4880  145.7570 C   0  0  0  0  0  0  0  0  0  0  0  0
  188.3790  177.7810  139.3810 C   0  0  0  0  0  0  0  0  0  0  0  0
  189.2170  176.7770  139.1210 C   0  0  0  0  0  3  0  0  0  0  0  0
  189.7870  176.5310  137.7600 C   0  0  0  0  0  2  0  0  0  0  0  0
  190.3280  174.2070  137.7120 O   0  0  0  0  0  1  0  0  0  0  0  0
  190.8870  175.4830  137.8120 C   0  0  1  0  0  3  0  0  0  0  0  0
  191.8540  175.7150  136.6650 C   0  0  0  0  0  2  0  0  0  0  0  0
  193.8930  174.6890  137.7410 N   0  0  0  0  0  1  0  0  0  0  0  0
  193.2510  175.8220  137.1710 C   0  0  0  0  0  0  0  0  0  0  0  0
  193.8730  176.9120  137.0740 O   0  0  0  0  0  0  0  0  0  0  0  0
  187.9970  178.6490  138.3420 O   0  0  0  0  0  0  0  0  0  0  0  0
  185.8450  178.0830  137.6690 O   0  0  0  0  0  1  0  0  0  0  0  0
  187.0270  178.3920  137.3630 C   0  0  0  0  0  0  0  0  0  0  0  0
  187.3740  178.5010  136.0230 O   0  0  0  0  0  0  0  0  0  0  0  0
  190.1500  175.7870  142.5500 F   0  0  0  0  0  0  0  0  0  0  0  0
  190.0030  176.9040  141.7470 C   0  0  2  0  0  3  0  0  0  0  0  0
  191.0940  177.9240  142.0240 C   0  0  0  0  0  2  0  0  0  0  0  0
  192.3460  177.3370  141.8490 O   0  0  0  0  0  0  0  0  0  0  0  0
  192.5820  177.4230  140.4770 C   0  0  0  0  0  1  0  0  0  0  0  0
  1 13  1  0  0  0  0
  4 11  2  0  0  0  0
  4 10  1  0  0  0  0
  5  1  1  0  0  0  0
  5  9  1  0  0  0  0
  6  8  1  0  0  0  0
  7 14  1  0  0  0  0
  9  3  1  1  0  0  0
  9  7  1  0  0  0  0
 10  5  2  0  0  0  0
 11 12  1  0  0  0  0
 12  1  2  0  0  0  0
 13  8  2  0  0  0  0
 13 14  1  0  0  0  0
 14  2  2  0  0  0  0
 15  4  1  0  0  0  0
 16 15  2  0  0  0  0
 17 19  1  0  0  0  0
 17 16  1  0  0  0  0
 19 18  1  6  0  0  0
 20 22  1  0  0  0  0
 20 19  1  0  0  0  0
 22 21  1  0  0  0  0
 23 22  2  0  0  0  0
 24 15  1  0  0  0  0
 26 25  1  0  0  0  0
 26 24  1  0  0  0  0
 27 26  2  0  0  0  0
 29 10  1  0  0  0  0
 29 30  1  0  0  0  0
 29 28  1  1  0  0  0
 31 30  1  0  0  0  0
 32 31  1  0  0  0  0
M  END
>  <MODEL>
6

>  <REMARK>
 VINA RESULT:      -6.6      3.083      5.957
  Name = 
  10 active torsions:
  status: ('A' for Active; 'I' for Inactive)
    1  A    between atoms: C_1  and  C_11
    2  A    between atoms: C_1  and  O_30
    3  A    between atoms: C_3  and  C_5
    4  A    between atoms: C_3  and  C_8
    5  A    between atoms: O_4  and  C_24
    6  A    between atoms: C_5  and  C_25
    7  A    between atoms: C_12  and  C_25
    8  A    between atoms: C_20  and  C_29
    9  A    between atoms: C_24  and  C_29
   10  A    between atoms: C_26  and  O_30
                            x       y       z     vdW  Elec       q    Type
                         _______ _______ _______ _____ _____    ______ ____

>  <TORSDO>
F 10

$$$$
=
 OpenBabel10232408153D

 32 33  0  0  1  0  0  0  0  0999 V2000
  187.2110  177.9560  145.2250 C   0  0  0  0  0  0  0  0  0  0  0  0
  189.7250  176.5130  147.5010 O   0  0  0  0  0  0  0  0  0  0  0  0
  190.1570  178.6090  143.8300 C   0  0  0  0  0  1  0  0  0  0  0  0
  185.7780  178.1590  142.8010 C   0  0  0  0  0  0  0  0  0  0  0  0
  187.8580  177.6830  143.9940 C   0  0  0  0  0  0  0  0  0  0  0  0
  186.3790  179.1210  147.9450 C   0  0  0  0  0  1  0  0  0  0  0  0
  189.7380  176.6270  145.1790 N   0  0  0  0  0  2  0  0  0  0  0  0
  187.5700  178.2570  147.6990 C   0  0  0  0  0  3  0  0  0  0  0  0
  189.3330  177.3420  143.9720 C   0  0  2  0  0  3  0  0  0  0  0  0
  187.1470  177.7970  142.7750 C   0  0  0  0  0  0  0  0  0  0  0  0
  185.1540  178.4250  144.0200 C   0  0  0  0  0  3  0  0  0  0  0  0
  185.8590  178.3190  145.2140 C   0  0  0  0  0  3  0  0  0  0  0  0
  187.9500  177.7610  146.5100 C   0  0  0  0  0  0  0  0  0  0  0  0
  189.1780  176.9490  146.4520 C   0  0  0  0  0  0  0  0  0  0  0  0
  184.9660  178.2730  141.5750 C   0  0  0  0  0  0  0  0  0  0  0  0
  185.5240  178.8340  140.5020 C   0  0  0  0  0  3  0  0  0  0  0  0
  184.7950  179.0050  139.2070 C   0  0  0  0  0  2  0  0  0  0  0  0
  184.0180  177.5380  137.4930 O   0  0  0  0  0  1  0  0  0  0  0  0
  185.1480  177.8920  138.2330 C   0  0  1  0  0  3  0  0  0  0  0  0
  186.2460  178.3730  137.3010 C   0  0  0  0  0  2  0  0  0  0  0  0
  187.1160  176.0100  137.4620 N   0  0  0  0  0  1  0  0  0  0  0  0
  186.9840  177.2160  136.7210 C   0  0  0  0  0  0  0  0  0  0  0  0
  187.4740  177.2990  135.5640 O   0  0  0  0  0  0  0  0  0  0  0  0
  183.6400  177.8100  141.5010 O   0  0  0  0  0  0  0  0  0  0  0  0
  181.9330  179.1050  140.6010 O   0  0  0  0  0  0  0  0  0  0  0  0
  182.4820  178.5910  141.6120 C   0  0  0  0  0  0  0  0  0  0  0  0
  181.9160  178.7880  142.8640 O   0  0  0  0  0  1  0  0  0  0  0  0
  188.7250  176.4440  141.5890 F   0  0  0  0  0  0  0  0  0  0  0  0
  187.8700  177.5270  141.4790 C   0  0  2  0  0  3  0  0  0  0  0  0
  188.6110  178.7590  140.9870 C   0  0  0  0  0  2  0  0  0  0  0  0
  188.6190  178.7820  139.5930 O   0  0  0  0  0  0  0  0  0  0  0  0
  189.7270  178.0120  139.2400 C   0  0  0  0  0  1  0  0  0  0  0  0
  1 13  1  0  0  0  0
  4 11  1  0  0  0  0
  5  1  2  0  0  0  0
  7 14  1  0  0  0  0
  8  6  1  0  0  0  0
  9  3  1  1  0  0  0
  9  5  1  0  0  0  0
  9  7  1  0  0  0  0
 10  4  2  0  0  0  0
 10  5  1  0  0  0  0
 11 12  2  0  0  0  0
 12  1  1  0  0  0  0
 13  8  2  0  0  0  0
 14 13  1  0  0  0  0
 14  2  2  0  0  0  0
 15  4  1  0  0  0  0
 16 15  2  0  0  0  0
 17 16  1  0  0  0  0
 19 18  1  6  0  0  0
 19 17  1  0  0  0  0
 20 19  1  0  0  0  0
 22 20  1  0  0  0  0
 22 21  1  0  0  0  0
 23 22  2  0  0  0  0
 24 15  1  0  0  0  0
 24 26  1  0  0  0  0
 25 26  2  0  0  0  0
 26 27  1  0  0  0  0
 29 28  1  1  0  0  0
 29 10  1  0  0  0  0
 30 29  1  0  0  0  0
 31 30  1  0  0  0  0
 32 31  1  0  0  0  0
M  END
>  <MODEL>
7

>  <REMARK>
 VINA RESULT:      -6.6      2.022      2.455
  Name = 
  10 active torsions:
  status: ('A' for Active; 'I' for Inactive)
    1  A    between atoms: C_1  and  C_11
    2  A    between atoms: C_1  and  O_30
    3  A    between atoms: C_3  and  C_5
    4  A    between atoms: C_3  and  C_8
    5  A    between atoms: O_4  and  C_24
    6  A    between atoms: C_5  and  C_25
    7  A    between atoms: C_12  and  C_25
    8  A    between atoms: C_20  and  C_29
    9  A    between atoms: C_24  and  C_29
   10  A    between atoms: C_26  and  O_30
                            x       y       z     vdW  Elec       q    Type
                         _______ _______ _______ _____ _____    ______ ____

>  <TORSDO>
F 10

$$$$
=
 OpenBabel10232408153D

 32 33  0  0  1  0  0  0  0  0999 V2000
  183.4480  178.8240  141.3410 C   0  0  0  0  0  0  0  0  0  0  0  0
  182.2920  180.2760  138.1570 O   0  0  0  0  0  0  0  0  0  0  0  0
  185.6060  177.7670  139.0430 C   0  0  0  0  0  1  0  0  0  0  0  0
  185.2460  178.4890  143.4920 C   0  0  0  0  0  0  0  0  0  0  0  0
  184.8450  178.9050  141.1160 C   0  0  0  0  0  0  0  0  0  0  0  0
  180.4770  178.0370  141.3000 C   0  0  0  0  0  1  0  0  0  0  0  0
  184.4630  179.9120  138.9040 N   0  0  0  0  0  2  0  0  0  0  0  0
  181.1970  178.7610  140.2130 C   0  0  0  0  0  3  0  0  0  0  0  0
  185.3760  179.1100  139.7130 C   0  0  2  0  0  3  0  0  0  0  0  0
  185.7500  178.7240  142.1890 C   0  0  0  0  0  0  0  0  0  0  0  0
  183.8680  178.4110  143.6980 C   0  0  0  0  0  3  0  0  0  0  0  0
  182.9830  178.5830  142.6390 C   0  0  0  0  0  3  0  0  0  0  0  0
  182.5000  179.0900  140.2160 C   0  0  0  0  0  0  0  0  0  0  0  0
  183.0480  179.7800  139.0350 C   0  0  0  0  0  0  0  0  0  0  0  0
  186.1260  178.3150  144.6630 C   0  0  0  0  0  0  0  0  0  0  0  0
  186.8560  177.2020  144.7400 C   0  0  0  0  0  3  0  0  0  0  0  0
  187.7800  176.9180  145.8820 C   0  0  0  0  0  2  0  0  0  0  0  0
  189.3580  178.4130  144.8980 O   0  0  0  0  0  1  0  0  0  0  0  0
  189.2270  177.1500  145.4800 C   0  0  1  0  0  3  0  0  0  0  0  0
  190.1090  177.0560  146.7120 C   0  0  0  0  0  2  0  0  0  0  0  0
  191.7420  176.1570  145.0110 N   0  0  0  0  0  1  0  0  0  0  0  0
  191.4590  176.5380  146.3510 C   0  0  0  0  0  0  0  0  0  0  0  0
  192.3570  176.4570  147.2300 O   0  0  0  0  0  0  0  0  0  0  0  0
  186.2230  179.2770  145.6840 O   0  0  0  0  0  0  0  0  0  0  0  0
  185.9840  179.9250  147.9040 O   0  0  0  0  0  1  0  0  0  0  0  0
  185.5870  179.2270  146.9320 C   0  0  0  0  0  0  0  0  0  0  0  0
  184.4830  178.4030  147.0960 O   0  0  0  0  0  0  0  0  0  0  0  0
  187.5230  179.6850  140.9010 F   0  0  0  0  0  0  0  0  0  0  0  0
  187.2320  178.7870  141.9140 C   0  0  2  0  0  3  0  0  0  0  0  0
  187.8010  177.4130  141.6050 C   0  0  0  0  0  2  0  0  0  0  0  0
  189.1890  177.4340  141.7390 O   0  0  0  0  0  0  0  0  0  0  0  0
  189.6640  177.0400  140.4880 C   0  0  0  0  0  1  0  0  0  0  0  0
  1 12  1  0  0  0  0
  2 14  2  0  0  0  0
  4 11  1  0  0  0  0
  4 15  1  0  0  0  0
  5  1  2  0  0  0  0
  5 10  1  0  0  0  0
  7 14  1  0  0  0  0
  7  9  1  0  0  0  0
  8 13  2  0  0  0  0
  8  6  1  0  0  0  0
  9  3  1  6  0  0  0
  9  5  1  0  0  0  0
 10  4  2  0  0  0  0
 12 11  2  0  0  0  0
 13  1  1  0  0  0  0
 14 13  1  0  0  0  0
 15 16  2  0  0  0  0
 15 24  1  0  0  0  0
 16 17  1  0  0  0  0
 19 18  1  1  0  0  0
 19 17  1  0  0  0  0
 19 20  1  0  0  0  0
 21 22  1  0  0  0  0
 22 20  1  0  0  0  0
 22 23  2  0  0  0  0
 24 26  1  0  0  0  0
 26 27  2  0  0  0  0
 26 25  1  0  0  0  0
 29 28  1  6  0  0  0
 29 10  1  0  0  0  0
 30 31  1  0  0  0  0
 30 29  1  0  0  0  0
 32 31  1  0  0  0  0
M  END
>  <MODEL>
8

>  <REMARK>
 VINA RESULT:      -6.5      1.926      7.126
  Name = 
  10 active torsions:
  status: ('A' for Active; 'I' for Inactive)
    1  A    between atoms: C_1  and  C_11
    2  A    between atoms: C_1  and  O_30
    3  A    between atoms: C_3  and  C_5
    4  A    between atoms: C_3  and  C_8
    5  A    between atoms: O_4  and  C_24
    6  A    between atoms: C_5  and  C_25
    7  A    between atoms: C_12  and  C_25
    8  A    between atoms: C_20  and  C_29
    9  A    between atoms: C_24  and  C_29
   10  A    between atoms: C_26  and  O_30
                            x       y       z     vdW  Elec       q    Type
                         _______ _______ _______ _____ _____    ______ ____

>  <TORSDO>
F 10

$$$$
=
 OpenBabel10232408153D

 32 33  0  0  1  0  0  0  0  0999 V2000
  187.8260  177.9520  145.2240 C   0  0  0  0  0  0  0  0  0  0  0  0
  187.8630  178.6710  148.8390 O   0  0  0  0  0  0  0  0  0  0  0  0
  184.6770  177.6110  146.2340 C   0  0  0  0  0  1  0  0  0  0  0  0
  187.1350  178.4390  142.5300 C   0  0  0  0  0  0  0  0  0  0  0  0
  186.5680  178.5240  144.9070 C   0  0  0  0  0  0  0  0  0  0  0  0
  190.0890  176.1330  146.2320 C   0  0  0  0  0  1  0  0  0  0  0  0
  186.2360  179.1750  147.2560 N   0  0  0  0  0  2  0  0  0  0  0  0
  189.2250  176.9970  147.0870 C   0  0  0  0  0  3  0  0  0  0  0  0
  185.5700  178.8170  146.0080 C   0  0  2  0  0  3  0  0  0  0  0  0
  186.2120  178.7570  143.5570 C   0  0  0  0  0  0  0  0  0  0  0  0
  188.3690  177.8770  142.8570 C   0  0  0  0  0  3  0  0  0  0  0  0
  188.7110  177.6440  144.1850 C   0  0  0  0  0  3  0  0  0  0  0  0
  188.2220  177.7800  146.6550 C   0  0  0  0  0  0  0  0  0  0  0  0
  187.4530  178.5430  147.6530 C   0  0  0  0  0  0  0  0  0  0  0  0
  186.8450  178.6760  141.1040 C   0  0  0  0  0  0  0  0  0  0  0  0
  187.5870  178.0390  140.1970 C   0  0  0  0  0  3  0  0  0  0  0  0
  187.3850  178.2050  138.7250 C   0  0  0  0  0  2  0  0  0  0  0  0
  188.8970  179.6100  137.5260 O   0  0  0  0  0  1  0  0  0  0  0  0
  188.7180  178.3090  138.0010 C   0  0  1  0  0  3  0  0  0  0  0  0
  189.8380  177.9520  138.9620 C   0  0  0  0  0  2  0  0  0  0  0  0
  191.0330  176.6640  137.1520 N   0  0  0  0  0  1  0  0  0  0  0  0
  190.5650  176.7400  138.4920 C   0  0  0  0  0  0  0  0  0  0  0  0
  190.7860  175.7900  139.2880 O   0  0  0  0  0  0  0  0  0  0  0  0
  185.8180  179.5360  140.6740 O   0  0  0  0  0  0  0  0  0  0  0  0
  184.2290  178.0310  139.8900 O   0  0  0  0  0  1  0  0  0  0  0  0
  184.7300  179.1870  139.8610 C   0  0  0  0  0  0  0  0  0  0  0  0
  184.1820  180.1430  139.0190 O   0  0  0  0  0  0  0  0  0  0  0  0
  184.5260  180.3550  144.1310 F   0  0  0  0  0  0  0  0  0  0  0  0
  184.8550  179.3400  143.2490 C   0  0  2  0  0  3  0  0  0  0  0  0
  183.7800  178.2670  143.2260 C   0  0  0  0  0  2  0  0  0  0  0  0
  182.5990  178.7910  142.7010 O   0  0  0  0  0  0  0  0  0  0  0  0
  181.7100  178.7900  143.7760 C   0  0  0  0  0  1  0  0  0  0  0  0
  1 13  1  0  0  0  0
  4 11  2  0  0  0  0
  4 10  1  0  0  0  0
  5  1  1  0  0  0  0
  5  9  1  0  0  0  0
  6  8  1  0  0  0  0
  7 14  1  0  0  0  0
  9  3  1  1  0  0  0
  9  7  1  0  0  0  0
 10  5  2  0  0  0  0
 11 12  1  0  0  0  0
 12  1  2  0  0  0  0
 13  8  2  0  0  0  0
 13 14  1  0  0  0  0
 14  2  2  0  0  0  0
 15  4  1  0  0  0  0
 16 15  2  0  0  0  0
 17 16  1  0  0  0  0
 19 18  1  1  0  0  0
 19 17  1  0  0  0  0
 19 20  1  0  0  0  0
 21 22  1  0  0  0  0
 22 20  1  0  0  0  0
 22 23  2  0  0  0  0
 24 15  1  0  0  0  0
 26 25  1  0  0  0  0
 26 24  1  0  0  0  0
 27 26  2  0  0  0  0
 29 10  1  0  0  0  0
 29 28  1  1  0  0  0
 30 29  1  0  0  0  0
 31 30  1  0  0  0  0
 31 32  1  0  0  0  0
M  END
>  <MODEL>
9

>  <REMARK>
 VINA RESULT:      -6.5      2.449      4.968
  Name = 
  10 active torsions:
  status: ('A' for Active; 'I' for Inactive)
    1  A    between atoms: C_1  and  C_11
    2  A    between atoms: C_1  and  O_30
    3  A    between atoms: C_3  and  C_5
    4  A    between atoms: C_3  and  C_8
    5  A    between atoms: O_4  and  C_24
    6  A    between atoms: C_5  and  C_25
    7  A    between atoms: C_12  and  C_25
    8  A    between atoms: C_20  and  C_29
    9  A    between atoms: C_24  and  C_29
   10  A    between atoms: C_26  and  O_30
                            x       y       z     vdW  Elec       q    Type
                         _______ _______ _______ _____ _____    ______ ____

>  <TORSDO>
F 10

$$$$
