=
 OpenBabel10232409123D

 57 62  0  0  1  0  0  0  0  0999 V2000
  190.6870  176.1130  138.0470 N   0  0  0  0  0  0  0  0  0  0  0  0
  191.9470  173.9880  136.3930 C   0  0  0  0  0  0  0  0  0  0  0  0
  190.7260  173.5080  136.6690 C   0  0  0  0  0  3  0  0  0  0  0  0
  191.7160  176.3690  137.0940 C   0  0  0  0  0  3  0  0  0  0  0  0
  187.9960  173.4350  136.6270 Cl  0  0  0  0  0  0  0  0  0  0  0  0
  189.5030  174.2540  137.0130 C   0  0  0  0  0  0  0  0  0  0  0  0
  192.2740  175.4240  136.3520 C   0  0  0  0  0  3  0  0  0  0  0  0
  189.4710  175.4420  137.6330 C   0  0  0  0  0  0  0  0  0  0  0  0
  191.8740  177.8120  141.2590 C   0  0  0  0  0  2  0  0  0  0  0  0
  191.8990  177.1160  139.9220 C   0  0  0  0  0  0  0  0  0  0  0  0
  190.6590  177.3130  143.4300 N   0  0  0  0  0  2  0  0  0  0  0  0
  189.5200  177.2250  141.3620 N   0  0  0  0  0  0  0  0  0  0  0  0
  189.4540  177.3490  139.9060 C   0  0  0  0  0  2  0  0  0  0  0  0
  190.7390  176.8580  139.2810 C   0  0  0  0  0  0  0  0  0  0  0  0
  193.2260  176.7810  139.3250 C   0  0  0  0  0  1  0  0  0  0  0  0
  190.6240  177.4530  142.0130 C   0  0  0  0  0  0  0  0  0  0  0  0
  189.5760  176.7510  144.1140 N   0  0  0  0  0  2  0  0  0  0  0  0
  189.8750  177.3060  147.7910 C   0  0  0  0  0  3  0  0  0  0  0  0
  191.8180  176.4460  146.1000 Cl  0  0  0  0  0  0  0  0  0  0  0  0
  189.2080  177.0960  145.4570 C   0  0  0  0  0  0  0  0  0  0  0  0
  187.6080  177.8300  147.1360 C   0  0  0  0  0  3  0  0  0  0  0  0
  187.9030  177.5250  145.8020 C   0  0  0  0  0  0  0  0  0  0  0  0
  190.1840  176.9800  146.4690 C   0  0  0  0  0  0  0  0  0  0  0  0
  188.5910  177.7300  148.1260 C   0  0  0  0  0  3  0  0  0  0  0  0
  186.7870  177.5700  144.8220 C   0  0  0  0  0  2  0  0  0  0  0  0
  185.7220  178.5380  145.2910 C   0  0  0  0  0  1  0  0  0  0  0  0
  194.3450  173.4920  135.8180 N   0  0  0  0  0  2  0  0  0  0  0  0
  193.0070  173.0340  136.0060 C   0  0  0  0  0  0  0  0  0  0  0  0
  192.7390  171.8120  135.8400 O   0  0  0  0  0  0  0  0  0  0  0  0
  195.3730  172.6120  135.4460 N   0  0  0  0  0  2  0  0  0  0  0  0
  197.6820  171.9170  136.0830 C   0  0  0  0  0  1  0  0  0  0  0  0
  196.6600  173.9870  136.9150 C   0  0  0  0  0  2  0  0  0  0  0  0
  196.1800  173.7140  138.2550 N   0  0  0  0  0  0  0  0  0  0  0  0
  196.0320  174.4820  139.4780 C   0  0  0  0  0  1  0  0  0  0  0  0
  195.9090  172.3250  137.8420 C   0  0  0  0  0  0  0  0  0  0  0  0
  196.4090  172.6530  136.4710 C   0  0  1  0  0  0  0  0  0  0  0  0
  195.4590  171.2970  138.4120 O   0  0  0  0  0  0  0  0  0  0  0  0
  188.2090  176.0080  137.8710 O   0  0  0  0  0  0  0  0  0  0  0  0
  185.8760  177.3330  135.4470 N   0  0  0  0  0  2  0  0  0  0  0  0
  185.5380  177.2590  136.8220 C   0  0  2  0  0  0  0  0  0  0  0  0
  187.5780  176.9580  137.0250 C   0  0  2  0  0  3  0  0  0  0  0  0
  186.5970  178.1050  138.0230 S   0  0  0  0  0  0  0  0  0  0  0  0
  186.4870  176.3390  136.2880 N   0  0  2  0  0  0  0  0  0  0  0  0
  184.3220  176.5480  137.1890 N   0  0  0  0  0  2  0  0  0  0  0  0
  183.2010  177.4670  137.0490 C   0  0  2  0  0  3  0  0  0  0  0  0
  182.3760  177.4730  138.3280 C   0  0  0  0  0  2  0  0  0  0  0  0
  182.9620  178.4170  139.3310 C   0  0  0  0  0  0  0  0  0  0  0  0
  183.4920  177.9090  140.4090 N   0  0  0  0  0  0  0  0  0  0  0  0
  185.3370  178.7080  141.6590 C   0  0  0  0  0  2  0  0  0  0  0  0
  184.0250  178.6070  141.5410 C   0  0  0  0  0  0  0  0  0  0  0  0
  183.1980  178.8180  142.7670 C   0  0  0  0  0  1  0  0  0  0  0  0
  181.8380  180.5910  138.8080 O   0  0  0  0  0  0  0  0  0  0  0  0
  183.0080  179.8600  138.9910 C   0  0  0  0  0  0  0  0  0  0  0  0
  184.1170  180.4550  138.9350 O   0  0  0  0  0  1  0  0  0  0  0  0
  182.4010  177.0790  135.9720 O   0  0  0  0  0  0  0  0  0  0  0  0
  181.0580  175.1610  135.5370 C   0  0  0  0  0  1  0  0  0  0  0  0
  181.4370  176.2340  136.5350 C   0  0  0  0  0  2  0  0  0  0  0  0
  1 14  1  0  0  0  0
  2  3  2  0  0  0  0
  3  6  1  0  0  0  0
  4  1  1  0  0  0  0
  5  6  1  0  0  0  0
  6  8  2  0  0  0  0
  7  2  1  0  0  0  0
  7  4  2  0  0  0  0
  8 38  1  0  0  0  0
  8  1  1  0  0  0  0
  9 16  1  0  0  0  0
 10  9  1  0  0  0  0
 11 17  1  0  0  0  0
 12 16  2  0  0  0  0
 13 12  1  0  0  0  0
 14 13  1  0  0  0  0
 14 10  2  0  0  0  0
 15 10  1  0  0  0  0
 16 11  1  0  0  0  0
 17 20  1  0  0  0  0
 18 24  1  0  0  0  0
 19 23  1  0  0  0  0
 20 22  2  0  0  0  0
 20 23  1  0  0  0  0
 21 24  2  0  0  0  0
 22 21  1  0  0  0  0
 23 18  2  0  0  0  0
 25 26  1  0  0  0  0
 25 22  1  0  0  0  0
 27 28  1  0  0  0  0
 28  2  1  0  0  0  0
 29 28  2  0  0  0  0
 30 27  1  0  0  0  0
 30 36  1  0  0  0  0
 32 33  1  0  0  0  0
 33 34  1  0  0  0  0
 35 33  1  0  0  0  0
 35 37  2  0  0  0  0
 36 31  1  6  0  0  0
 36 32  1  0  0  0  0
 36 35  1  0  0  0  0
 39 40  1  0  0  0  0
 40 44  1  1  0  0  0
 40 42  1  0  0  0  0
 41 38  1  1  0  0  0
 41 42  1  0  0  0  0
 43 39  1  6  0  0  0
 43 40  1  0  0  0  0
 43 41  1  0  0  0  0
 45 44  1  0  0  0  0
 45 46  1  1  0  0  0
 46 47  1  0  0  0  0
 47 48  2  0  0  0  0
 48 50  1  0  0  0  0
 50 49  2  0  0  0  0
 50 51  1  0  0  0  0
 52 53  2  0  0  0  0
 53 47  1  0  0  0  0
 54 53  1  0  0  0  0
 55 57  1  0  0  0  0
 55 45  1  0  0  0  0
 56 57  1  0  0  0  0
M  END
>  <MODEL>
1

>  <REMARK>
 VINA RESULT:      -8.6      0.000      0.000
  Name = 
  17 active torsions:
  status: ('A' for Active; 'I' for Inactive)
    1  A    between atoms: N_2  and  N_30
    2  A    between atoms: C_7  and  N_32
    3  A    between atoms: CA_8  and  C_27
    4  A    between atoms: CA_8  and  C_29
    5  A    between atoms: C_9  and  C_45
    6  A    between atoms: N_10  and  C_40
    7  A    between atoms: C_11  and  C_23
    8  A    between atoms: C_12  and  O_14
    9  A    between atoms: C_12  and  N_19
   10  A    between atoms: C_12  and  C_27
   11  A    between atoms: N_13  and  C_26
   12  A    between atoms: N_13  and  N_28
   13  A    between atoms: O_14  and  C_53
   14  A    between atoms: N_19  and  C_24
   15  A    between atoms: C_25  and  O_50
   16  A    between atoms: N_30  and  C_46
   17  A    between atoms: O_50  and  C_56
                            x       y       z     vdW  Elec       q    Type
                         _______ _______ _______ _____ _____    ______ ____

>  <TORSDO>
F 17

$$$$
=
 OpenBabel10232409123D

 57 62  0  0  1  0  0  0  0  0999 V2000
  189.5740  176.0750  137.1080 N   0  0  0  0  0  0  0  0  0  0  0  0
  191.4190  174.4160  135.4710 C   0  0  0  0  0  0  0  0  0  0  0  0
  190.5520  173.5320  135.9860 C   0  0  0  0  0  3  0  0  0  0  0  0
  190.2860  176.5780  135.9800 C   0  0  0  0  0  3  0  0  0  0  0  0
  188.1210  172.3590  136.3980 Cl  0  0  0  0  0  0  0  0  0  0  0  0
  189.1750  173.7630  136.4560 C   0  0  0  0  0  0  0  0  0  0  0  0
  191.1040  175.8380  135.2460 C   0  0  0  0  0  3  0  0  0  0  0  0
  188.7150  174.9170  136.9620 C   0  0  0  0  0  0  0  0  0  0  0  0
  190.1390  177.8980  140.4200 C   0  0  0  0  0  2  0  0  0  0  0  0
  190.3840  177.0350  139.2090 C   0  0  0  0  0  0  0  0  0  0  0  0
  188.2460  177.9900  142.1070 N   0  0  0  0  0  0  0  0  0  0  0  0
  187.7940  177.8700  139.7910 N   0  0  0  0  0  0  0  0  0  0  0  0
  188.2000  177.8010  138.3880 C   0  0  0  0  0  2  0  0  0  0  0  0
  189.4430  176.9550  138.2430 C   0  0  0  0  0  0  0  0  0  0  0  0
  191.6970  176.3330  139.0950 C   0  0  0  0  0  1  0  0  0  0  0  0
  188.6730  177.9350  140.7480 C   0  0  0  0  0  0  0  0  0  0  0  0
  186.9030  177.7840  142.4370 N   0  0  0  0  0  0  0  0  0  0  0  0
  186.6090  177.7930  146.1560 C   0  0  0  0  0  3  0  0  0  0  0  0
  188.6750  176.8350  144.6780 Cl  0  0  0  0  0  0  0  0  0  0  0  0
  186.3530  178.0100  143.7430 C   0  0  0  0  0  0  0  0  0  0  0  0
  184.6030  178.7870  145.2440 C   0  0  0  0  0  3  0  0  0  0  0  0
  185.0860  178.6110  143.9410 C   0  0  0  0  0  0  0  0  0  0  0  0
  187.1000  177.5930  144.8640 C   0  0  0  0  0  0  0  0  0  0  0  0
  185.3640  178.3870  146.3480 C   0  0  0  0  0  3  0  0  0  0  0  0
  184.1870  178.9790  142.8170 C   0  0  0  0  0  2  0  0  0  0  0  0
  182.7430  178.9350  143.2700 C   0  0  0  0  0  1  0  0  0  0  0  0
  193.9040  174.7080  135.2180 N   0  0  0  0  0  2  0  0  0  0  0  0
  192.7320  173.9250  135.0040 C   0  0  0  0  0  0  0  0  0  0  0  0
  192.8260  172.8130  134.4150 O   0  0  0  0  0  0  0  0  0  0  0  0
  195.1650  174.2710  134.7830 N   0  0  0  0  0  2  0  0  0  0  0  0
  195.5190  174.4520  137.2450 C   0  0  0  0  0  1  0  0  0  0  0  0
  197.2710  173.6540  135.7230 C   0  0  0  0  0  2  0  0  0  0  0  0
  198.1670  174.7690  135.4860 N   0  0  0  0  0  0  0  0  0  0  0  0
  199.5870  174.9200  135.2310 C   0  0  0  0  0  1  0  0  0  0  0  0
  197.0150  175.6810  135.6160 C   0  0  0  0  0  0  0  0  0  0  0  0
  196.1280  174.5000  135.8530 C   0  0  1  0  0  0  0  0  0  0  0  0
  196.8560  176.9290  135.5640 O   0  0  0  0  0  0  0  0  0  0  0  0
  187.3670  174.9540  137.3500 O   0  0  0  0  0  0  0  0  0  0  0  0
  184.2060  174.5280  135.6470 N   0  0  0  0  0  2  0  0  0  0  0  0
  184.2690  175.1100  136.9390 C   0  0  2  0  0  0  0  0  0  0  0  0
  186.2840  175.2460  136.4800 C   0  0  2  0  0  3  0  0  0  0  0  0
  185.2890  176.5860  137.1770 S   0  0  0  0  0  0  0  0  0  0  0  0
  185.2830  174.1920  136.5390 N   0  0  2  0  0  0  0  0  0  0  0  0
  183.4610  174.5160  137.9940 N   0  0  0  0  0  2  0  0  0  0  0  0
  182.0590  174.7540  137.6790 C   0  0  2  0  0  3  0  0  0  0  0  0
  181.4050  175.5420  138.8060 C   0  0  0  0  0  2  0  0  0  0  0  0
  181.5620  177.0130  138.5830 C   0  0  0  0  0  0  0  0  0  0  0  0
  182.0960  177.7200  139.5400 N   0  0  0  0  0  0  0  0  0  0  0  0
  181.1870  179.8990  139.7230 C   0  0  0  0  0  2  0  0  0  0  0  0
  182.2630  179.1430  139.5960 C   0  0  0  0  0  0  0  0  0  0  0  0
  183.5090  179.7860  139.0830 C   0  0  0  0  0  1  0  0  0  0  0  0
  182.1930  177.9780  136.3620 O   0  0  0  0  0  0  0  0  0  0  0  0
  181.2080  177.5620  137.2510 C   0  0  0  0  0  0  0  0  0  0  0  0
  180.0030  177.5880  136.8860 O   0  0  0  0  0  1  0  0  0  0  0  0
  181.3970  173.5360  137.5080 O   0  0  0  0  0  0  0  0  0  0  0  0
  180.3200  173.6910  135.3910 C   0  0  0  0  0  1  0  0  0  0  0  0
  180.1890  173.8750  136.8870 C   0  0  0  0  0  2  0  0  0  0  0  0
  1 14  1  0  0  0  0
  2  3  2  0  0  0  0
  3  6  1  0  0  0  0
  4  1  1  0  0  0  0
  5  6  1  0  0  0  0
  6  8  2  0  0  0  0
  7  2  1  0  0  0  0
  7  4  2  0  0  0  0
  8  1  1  0  0  0  0
  8 38  1  0  0  0  0
  9 16  1  0  0  0  0
 10  9  1  0  0  0  0
 11 17  2  0  0  0  0
 12 16  2  0  0  0  0
 13 12  1  0  0  0  0
 14 13  1  0  0  0  0
 14 10  2  0  0  0  0
 15 10  1  0  0  0  0
 16 11  1  0  0  0  0
 17 20  1  0  0  0  0
 18 24  1  0  0  0  0
 19 23  1  0  0  0  0
 20 22  2  0  0  0  0
 20 23  1  0  0  0  0
 21 24  2  0  0  0  0
 22 21  1  0  0  0  0
 23 18  2  0  0  0  0
 25 26  1  0  0  0  0
 25 22  1  0  0  0  0
 28 27  1  0  0  0  0
 28  2  1  0  0  0  0
 29 28  2  0  0  0  0
 30 27  1  0  0  0  0
 30 36  1  0  0  0  0
 32 36  1  0  0  0  0
 33 35  1  0  0  0  0
 33 32  1  0  0  0  0
 34 33  1  0  0  0  0
 35 36  1  0  0  0  0
 36 31  1  1  0  0  0
 37 35  2  0  0  0  0
 39 40  1  0  0  0  0
 40 42  1  0  0  0  0
 40 44  1  1  0  0  0
 41 43  1  0  0  0  0
 41 42  1  0  0  0  0
 41 38  1  1  0  0  0
 43 39  1  6  0  0  0
 43 40  1  0  0  0  0
 45 44  1  0  0  0  0
 45 46  1  1  0  0  0
 47 46  1  0  0  0  0
 47 48  2  0  0  0  0
 48 50  1  0  0  0  0
 50 49  2  0  0  0  0
 51 50  1  0  0  0  0
 52 53  2  0  0  0  0
 53 47  1  0  0  0  0
 54 53  1  0  0  0  0
 55 45  1  0  0  0  0
 56 57  1  0  0  0  0
 57 55  1  0  0  0  0
M  END
>  <MODEL>
2

>  <REMARK>
 VINA RESULT:      -8.2      2.097      2.939
  Name = 
  17 active torsions:
  status: ('A' for Active; 'I' for Inactive)
    1  A    between atoms: N_2  and  N_30
    2  A    between atoms: C_7  and  N_32
    3  A    between atoms: CA_8  and  C_27
    4  A    between atoms: CA_8  and  C_29
    5  A    between atoms: C_9  and  C_45
    6  A    between atoms: N_10  and  C_40
    7  A    between atoms: C_11  and  C_23
    8  A    between atoms: C_12  and  O_14
    9  A    between atoms: C_12  and  N_19
   10  A    between atoms: C_12  and  C_27
   11  A    between atoms: N_13  and  C_26
   12  A    between atoms: N_13  and  N_28
   13  A    between atoms: O_14  and  C_53
   14  A    between atoms: N_19  and  C_24
   15  A    between atoms: C_25  and  O_50
   16  A    between atoms: N_30  and  C_46
   17  A    between atoms: O_50  and  C_56
                            x       y       z     vdW  Elec       q    Type
                         _______ _______ _______ _____ _____    ______ ____

>  <TORSDO>
F 17

$$$$
=
 OpenBabel10232409123D

 57 62  0  0  1  0  0  0  0  0999 V2000
  190.3740  176.4740  138.3180 N   0  0  0  0  0  0  0  0  0  0  0  0
  192.0740  174.6790  136.6670 C   0  0  0  0  0  0  0  0  0  0  0  0
  190.9430  173.9840  136.8480 C   0  0  0  0  0  3  0  0  0  0  0  0
  191.3930  176.9490  137.4400 C   0  0  0  0  0  3  0  0  0  0  0  0
  188.2740  173.4430  136.6350 Cl  0  0  0  0  0  0  0  0  0  0  0  0
  189.5910  174.4900  137.1440 C   0  0  0  0  0  0  0  0  0  0  0  0
  192.1470  176.1510  136.7000 C   0  0  0  0  0  3  0  0  0  0  0  0
  189.3180  175.6240  137.8050 C   0  0  0  0  0  0  0  0  0  0  0  0
  191.0030  177.9280  141.7970 C   0  0  0  0  0  2  0  0  0  0  0  0
  191.2500  177.2930  140.4520 C   0  0  0  0  0  0  0  0  0  0  0  0
  189.3430  177.4330  143.6510 N   0  0  0  0  0  2  0  0  0  0  0  0
  188.6430  177.5270  141.3970 N   0  0  0  0  0  0  0  0  0  0  0  0
  188.8800  177.7200  139.9660 C   0  0  0  0  0  2  0  0  0  0  0  0
  190.2280  177.1570  139.5790 C   0  0  0  0  0  0  0  0  0  0  0  0
  192.6430  176.8800  140.1100 C   0  0  0  0  0  1  0  0  0  0  0  0
  189.6050  177.6370  142.2650 C   0  0  0  0  0  0  0  0  0  0  0  0
  188.1090  176.9290  144.0720 N   0  0  0  0  0  2  0  0  0  0  0  0
  185.1740  178.7900  145.4270 C   0  0  0  0  0  3  0  0  0  0  0  0
  185.5750  178.0100  142.8580 Cl  0  0  0  0  0  0  0  0  0  0  0  0
  187.2530  177.5880  145.0150 C   0  0  0  0  0  0  0  0  0  0  0  0
  186.7140  178.3930  147.2470 C   0  0  0  0  0  3  0  0  0  0  0  0
  187.5900  177.7230  146.3840 C   0  0  0  0  0  0  0  0  0  0  0  0
  186.0420  178.1400  144.5480 C   0  0  0  0  0  0  0  0  0  0  0  0
  185.5070  178.9180  146.7740 C   0  0  0  0  0  3  0  0  0  0  0  0
  188.8920  177.2700  146.9400 C   0  0  0  0  0  2  0  0  0  0  0  0
  189.1890  178.0000  148.2310 C   0  0  0  0  0  1  0  0  0  0  0  0
  194.5750  174.5810  136.4180 N   0  0  0  0  0  2  0  0  0  0  0  0
  193.3040  173.9420  136.3100 C   0  0  0  0  0  0  0  0  0  0  0  0
  193.2410  172.7470  135.9100 O   0  0  0  0  0  0  0  0  0  0  0  0
  195.7610  173.9090  136.0830 N   0  0  0  0  0  2  0  0  0  0  0  0
  195.7710  174.0730  138.5710 C   0  0  0  0  0  1  0  0  0  0  0  0
  196.8430  172.2180  137.3760 C   0  0  0  0  0  2  0  0  0  0  0  0
  198.2610  172.5090  137.3240 N   0  0  0  0  0  0  0  0  0  0  0  0
  199.4810  171.7230  137.3320 C   0  0  0  0  0  1  0  0  0  0  0  0
  197.9320  173.9460  137.2620 C   0  0  0  0  0  0  0  0  0  0  0  0
  196.4790  173.5970  137.3130 C   0  0  1  0  0  0  0  0  0  0  0  0
  198.6000  175.0120  137.2050 O   0  0  0  0  0  0  0  0  0  0  0  0
  187.9660  175.9520  137.9850 O   0  0  0  0  0  0  0  0  0  0  0  0
  185.1590  176.3320  135.7370 N   0  0  0  0  0  2  0  0  0  0  0  0
  185.0810  176.7650  137.0850 C   0  0  2  0  0  0  0  0  0  0  0  0
  187.1370  176.5370  136.9910 C   0  0  2  0  0  3  0  0  0  0  0  0
  186.2870  177.9780  137.6780 S   0  0  0  0  0  0  0  0  0  0  0  0
  185.9700  175.7040  136.7460 N   0  0  2  0  0  0  0  0  0  0  0  0
  183.9950  176.2490  137.9050 N   0  0  0  0  0  2  0  0  0  0  0  0
  182.7590  176.8910  137.4760 C   0  0  2  0  0  3  0  0  0  0  0  0
  181.8230  177.0530  138.6650 C   0  0  0  0  0  2  0  0  0  0  0  0
  181.8390  178.4640  139.1610 C   0  0  0  0  0  0  0  0  0  0  0  0
  181.0020  179.3090  138.6260 N   0  0  0  0  0  0  0  0  0  0  0  0
  181.8430  181.5110  138.4020 C   0  0  0  0  0  2  0  0  0  0  0  0
  180.8950  180.7170  138.8690 C   0  0  0  0  0  0  0  0  0  0  0  0
  180.0280  181.2400  139.9670 C   0  0  0  0  0  1  0  0  0  0  0  0
  184.0210  179.2520  140.1010 O   0  0  0  0  0  0  0  0  0  0  0  0
  182.7230  178.7930  140.3060 C   0  0  0  0  0  0  0  0  0  0  0  0
  182.2760  178.7270  141.4820 O   0  0  0  0  0  1  0  0  0  0  0  0
  182.1420  176.1180  136.4900 O   0  0  0  0  0  0  0  0  0  0  0  0
  181.9970  178.0370  135.0880 C   0  0  0  0  0  1  0  0  0  0  0  0
  181.2370  176.9900  135.8730 C   0  0  0  0  0  2  0  0  0  0  0  0
  1 14  1  0  0  0  0
  2  7  1  0  0  0  0
  2  3  2  0  0  0  0
  3  6  1  0  0  0  0
  4  1  1  0  0  0  0
  5  6  1  0  0  0  0
  6  8  2  0  0  0  0
  7  4  2  0  0  0  0
  8 38  1  0  0  0  0
  8  1  1  0  0  0  0
  9 16  1  0  0  0  0
 10  9  1  0  0  0  0
 11 17  1  0  0  0  0
 12 16  2  0  0  0  0
 13 12  1  0  0  0  0
 14 13  1  0  0  0  0
 14 10  2  0  0  0  0
 15 10  1  0  0  0  0
 16 11  1  0  0  0  0
 17 20  1  0  0  0  0
 18 24  1  0  0  0  0
 19 23  1  0  0  0  0
 20 22  2  0  0  0  0
 22 25  1  0  0  0  0
 22 21  1  0  0  0  0
 23 20  1  0  0  0  0
 23 18  2  0  0  0  0
 24 21  2  0  0  0  0
 25 26  1  0  0  0  0
 28 27  1  0  0  0  0
 28  2  1  0  0  0  0
 29 28  2  0  0  0  0
 30 27  1  0  0  0  0
 30 36  1  0  0  0  0
 33 34  1  0  0  0  0
 33 32  1  0  0  0  0
 35 36  1  0  0  0  0
 35 33  1  0  0  0  0
 36 32  1  0  0  0  0
 36 31  1  1  0  0  0
 37 35  2  0  0  0  0
 39 40  1  0  0  0  0
 40 42  1  0  0  0  0
 40 44  1  1  0  0  0
 41 42  1  0  0  0  0
 41 38  1  1  0  0  0
 43 39  1  6  0  0  0
 43 41  1  0  0  0  0
 43 40  1  0  0  0  0
 45 44  1  0  0  0  0
 45 46  1  1  0  0  0
 46 47  1  0  0  0  0
 47 53  1  0  0  0  0
 48 50  1  0  0  0  0
 48 47  2  0  0  0  0
 49 50  2  0  0  0  0
 50 51  1  0  0  0  0
 52 53  2  0  0  0  0
 53 54  1  0  0  0  0
 55 45  1  0  0  0  0
 56 57  1  0  0  0  0
 57 55  1  0  0  0  0
M  END
>  <MODEL>
3

>  <REMARK>
 VINA RESULT:      -8.1      1.771      2.593
  Name = 
  17 active torsions:
  status: ('A' for Active; 'I' for Inactive)
    1  A    between atoms: N_2  and  N_30
    2  A    between atoms: C_7  and  N_32
    3  A    between atoms: CA_8  and  C_27
    4  A    between atoms: CA_8  and  C_29
    5  A    between atoms: C_9  and  C_45
    6  A    between atoms: N_10  and  C_40
    7  A    between atoms: C_11  and  C_23
    8  A    between atoms: C_12  and  O_14
    9  A    between atoms: C_12  and  N_19
   10  A    between atoms: C_12  and  C_27
   11  A    between atoms: N_13  and  C_26
   12  A    between atoms: N_13  and  N_28
   13  A    between atoms: O_14  and  C_53
   14  A    between atoms: N_19  and  C_24
   15  A    between atoms: C_25  and  O_50
   16  A    between atoms: N_30  and  C_46
   17  A    between atoms: O_50  and  C_56
                            x       y       z     vdW  Elec       q    Type
                         _______ _______ _______ _____ _____    ______ ____

>  <TORSDO>
F 17

$$$$
=
 OpenBabel10232409123D

 57 62  0  0  1  0  0  0  0  0999 V2000
  191.0170  176.4910  138.6160 N   0  0  0  0  0  0  0  0  0  0  0  0
  192.8000  174.6210  137.1450 C   0  0  0  0  0  0  0  0  0  0  0  0
  191.6210  173.9850  137.1880 C   0  0  0  0  0  3  0  0  0  0  0  0
  192.1520  176.9180  137.8660 C   0  0  0  0  0  3  0  0  0  0  0  0
  188.9700  173.5880  136.6660 Cl  0  0  0  0  0  0  0  0  0  0  0  0
  190.2720  174.5590  137.3350 C   0  0  0  0  0  0  0  0  0  0  0  0
  192.9440  176.0870  137.2060 C   0  0  0  0  0  3  0  0  0  0  0  0
  189.9850  175.7020  137.9760 C   0  0  0  0  0  0  0  0  0  0  0  0
  191.3670  177.9890  142.1160 C   0  0  0  0  0  2  0  0  0  0  0  0
  191.7240  177.3610  140.7930 C   0  0  0  0  0  0  0  0  0  0  0  0
  189.6260  177.4210  143.8720 N   0  0  0  0  0  2  0  0  0  0  0  0
  189.0570  177.4720  141.5790 N   0  0  0  0  0  0  0  0  0  0  0  0
  189.3690  177.6700  140.1640 C   0  0  0  0  0  2  0  0  0  0  0  0
  190.7630  177.1720  139.8620 C   0  0  0  0  0  0  0  0  0  0  0  0
  193.1530  177.0140  140.5370 C   0  0  0  0  0  1  0  0  0  0  0  0
  189.9590  177.6330  142.5020 C   0  0  0  0  0  0  0  0  0  0  0  0
  188.3950  176.8600  144.2230 N   0  0  0  0  0  2  0  0  0  0  0  0
  185.2880  178.6660  145.2240 C   0  0  0  0  0  3  0  0  0  0  0  0
  185.9860  177.8680  142.7240 Cl  0  0  0  0  0  0  0  0  0  0  0  0
  187.4250  177.5100  145.0580 C   0  0  0  0  0  0  0  0  0  0  0  0
  186.6270  178.3260  147.2070 C   0  0  0  0  0  3  0  0  0  0  0  0
  187.6070  177.6670  146.4540 C   0  0  0  0  0  0  0  0  0  0  0  0
  186.2610  178.0280  144.4530 C   0  0  0  0  0  0  0  0  0  0  0  0
  185.4680  178.8160  146.5970 C   0  0  0  0  0  3  0  0  0  0  0  0
  188.8500  177.2500  147.1540 C   0  0  0  0  0  2  0  0  0  0  0  0
  188.9980  178.0160  148.4510 C   0  0  0  0  0  1  0  0  0  0  0  0
  195.1520  173.9920  137.7760 N   0  0  0  0  0  2  0  0  0  0  0  0
  194.0230  173.8230  136.9200 C   0  0  0  0  0  0  0  0  0  0  0  0
  194.0780  172.9890  135.9750 O   0  0  0  0  0  0  0  0  0  0  0  0
  196.3290  173.2520  137.5860 N   0  0  0  0  0  2  0  0  0  0  0  0
  197.4430  174.7750  139.2170 C   0  0  0  0  0  1  0  0  0  0  0  0
  198.7070  173.4660  137.5710 C   0  0  0  0  0  2  0  0  0  0  0  0
  199.0300  174.3600  136.4760 N   0  0  0  0  0  0  0  0  0  0  0  0
  200.1300  174.4950  135.5400 C   0  0  0  0  0  1  0  0  0  0  0  0
  197.7620  175.0710  136.7250 C   0  0  0  0  0  0  0  0  0  0  0  0
  197.4690  174.1230  137.8440 C   0  0  1  0  0  0  0  0  0  0  0  0
  197.1840  176.0670  136.2150 O   0  0  0  0  0  0  0  0  0  0  0  0
  188.6390  176.0990  138.0050 O   0  0  0  0  0  0  0  0  0  0  0  0
  186.6350  177.2950  135.2430 N   0  0  0  0  0  2  0  0  0  0  0  0
  186.0610  177.0730  136.5210 C   0  0  2  0  0  0  0  0  0  0  0  0
  188.0490  177.0220  137.1010 C   0  0  2  0  0  3  0  0  0  0  0  0
  186.7490  177.9540  137.9460 S   0  0  0  0  0  0  0  0  0  0  0  0
  187.2120  176.3260  136.1360 N   0  0  2  0  0  0  0  0  0  0  0  0
  184.9100  176.1860  136.6080 N   0  0  0  0  0  2  0  0  0  0  0  0
  183.9790  176.7480  137.5780 C   0  0  2  0  0  3  0  0  0  0  0  0
  183.1620  175.6320  138.2130 C   0  0  0  0  0  2  0  0  0  0  0  0
  183.0790  174.4510  137.2990 C   0  0  0  0  0  0  0  0  0  0  0  0
  183.9190  173.4720  137.4900 N   0  0  0  0  0  0  0  0  0  0  0  0
  183.3410  171.2370  136.9600 C   0  0  0  0  0  2  0  0  0  0  0  0
  184.0920  172.2920  136.6950 C   0  0  0  0  0  0  0  0  0  0  0  0
  185.3460  172.0740  135.9140 C   0  0  0  0  0  1  0  0  0  0  0  0
  182.1590  174.9090  135.0170 O   0  0  0  0  0  0  0  0  0  0  0  0
  181.9790  174.4120  136.3040 C   0  0  0  0  0  0  0  0  0  0  0  0
  180.8880  173.8580  136.6000 O   0  0  0  0  0  1  0  0  0  0  0  0
  183.1270  177.6570  136.9470 O   0  0  0  0  0  0  0  0  0  0  0  0
  181.8350  179.4420  137.8480 C   0  0  0  0  0  1  0  0  0  0  0  0
  182.1620  177.9660  137.9130 C   0  0  0  0  0  2  0  0  0  0  0  0
  1 14  1  0  0  0  0
  2  3  2  0  0  0  0
  2  7  1  0  0  0  0
  3  6  1  0  0  0  0
  4  1  1  0  0  0  0
  5  6  1  0  0  0  0
  6  8  2  0  0  0  0
  7  4  2  0  0  0  0
  8 38  1  0  0  0  0
  8  1  1  0  0  0  0
  9 16  1  0  0  0  0
 10  9  1  0  0  0  0
 11 17  1  0  0  0  0
 12 16  2  0  0  0  0
 13 12  1  0  0  0  0
 14 13  1  0  0  0  0
 14 10  2  0  0  0  0
 15 10  1  0  0  0  0
 16 11  1  0  0  0  0
 17 20  1  0  0  0  0
 18 24  1  0  0  0  0
 19 23  1  0  0  0  0
 20 22  2  0  0  0  0
 22 25  1  0  0  0  0
 22 21  1  0  0  0  0
 23 20  1  0  0  0  0
 23 18  2  0  0  0  0
 24 21  2  0  0  0  0
 25 26  1  0  0  0  0
 28  2  1  0  0  0  0
 28 27  1  0  0  0  0
 29 28  2  0  0  0  0
 30 27  1  0  0  0  0
 30 36  1  0  0  0  0
 32 36  1  0  0  0  0
 33 35  1  0  0  0  0
 33 32  1  0  0  0  0
 34 33  1  0  0  0  0
 35 36  1  0  0  0  0
 36 31  1  1  0  0  0
 37 35  2  0  0  0  0
 39 40  1  0  0  0  0
 40 44  1  1  0  0  0
 40 42  1  0  0  0  0
 41 42  1  0  0  0  0
 41 38  1  1  0  0  0
 43 39  1  6  0  0  0
 43 40  1  0  0  0  0
 43 41  1  0  0  0  0
 44 45  1  0  0  0  0
 45 46  1  6  0  0  0
 47 48  2  0  0  0  0
 47 46  1  0  0  0  0
 50 49  2  0  0  0  0
 50 48  1  0  0  0  0
 51 50  1  0  0  0  0
 52 53  2  0  0  0  0
 53 54  1  0  0  0  0
 53 47  1  0  0  0  0
 55 45  1  0  0  0  0
 55 57  1  0  0  0  0
 56 57  1  0  0  0  0
M  END
>  <MODEL>
4

>  <REMARK>
 VINA RESULT:      -7.9      2.123      3.672
  Name = 
  17 active torsions:
  status: ('A' for Active; 'I' for Inactive)
    1  A    between atoms: N_2  and  N_30
    2  A    between atoms: C_7  and  N_32
    3  A    between atoms: CA_8  and  C_27
    4  A    between atoms: CA_8  and  C_29
    5  A    between atoms: C_9  and  C_45
    6  A    between atoms: N_10  and  C_40
    7  A    between atoms: C_11  and  C_23
    8  A    between atoms: C_12  and  O_14
    9  A    between atoms: C_12  and  N_19
   10  A    between atoms: C_12  and  C_27
   11  A    between atoms: N_13  and  C_26
   12  A    between atoms: N_13  and  N_28
   13  A    between atoms: O_14  and  C_53
   14  A    between atoms: N_19  and  C_24
   15  A    between atoms: C_25  and  O_50
   16  A    between atoms: N_30  and  C_46
   17  A    between atoms: O_50  and  C_56
                            x       y       z     vdW  Elec       q    Type
                         _______ _______ _______ _____ _____    ______ ____

>  <TORSDO>
F 17

$$$$
=
 OpenBabel10232409123D

 57 62  0  0  1  0  0  0  0  0999 V2000
  189.7120  176.0600  137.2700 N   0  0  0  0  0  0  0  0  0  0  0  0
  191.6340  174.3220  135.8130 C   0  0  0  0  0  0  0  0  0  0  0  0
  190.6880  173.4760  136.2430 C   0  0  0  0  0  3  0  0  0  0  0  0
  190.5470  176.5300  136.2140 C   0  0  0  0  0  3  0  0  0  0  0  0
  188.1830  172.4040  136.4230 Cl  0  0  0  0  0  0  0  0  0  0  0  0
  189.2830  173.7640  136.5810 C   0  0  0  0  0  0  0  0  0  0  0  0
  191.4000  175.7550  135.5600 C   0  0  0  0  0  3  0  0  0  0  0  0
  188.8250  174.9370  137.0420 C   0  0  0  0  0  0  0  0  0  0  0  0
  190.1290  177.9860  140.5450 C   0  0  0  0  0  2  0  0  0  0  0  0
  190.4430  177.1230  139.3500 C   0  0  0  0  0  0  0  0  0  0  0  0
  188.2360  177.9570  142.2340 N   0  0  0  0  0  0  0  0  0  0  0  0
  187.7940  177.7550  139.9220 N   0  0  0  0  0  0  0  0  0  0  0  0
  188.2030  177.6930  138.5190 C   0  0  0  0  0  2  0  0  0  0  0  0
  189.5110  176.9480  138.3880 C   0  0  0  0  0  0  0  0  0  0  0  0
  191.8090  176.5280  139.2470 C   0  0  0  0  0  1  0  0  0  0  0  0
  188.6650  177.9100  140.8760 C   0  0  0  0  0  0  0  0  0  0  0  0
  186.9150  177.6480  142.5710 N   0  0  0  0  0  0  0  0  0  0  0  0
  184.4710  178.8390  145.1250 C   0  0  0  0  0  3  0  0  0  0  0  0
  184.2410  179.0250  142.4260 Cl  0  0  0  0  0  0  0  0  0  0  0  0
  186.3310  177.9110  143.8550 C   0  0  0  0  0  0  0  0  0  0  0  0
  186.3530  177.8650  146.2870 C   0  0  0  0  0  3  0  0  0  0  0  0
  186.9730  177.5630  145.0680 C   0  0  0  0  0  0  0  0  0  0  0  0
  185.0810  178.5630  143.9000 C   0  0  0  0  0  0  0  0  0  0  0  0
  185.1030  178.4930  146.3170 C   0  0  0  0  0  3  0  0  0  0  0  0
  188.3370  176.9760  145.1160 C   0  0  0  0  0  2  0  0  0  0  0  0
  189.3380  178.0210  145.5600 C   0  0  0  0  0  1  0  0  0  0  0  0
  194.0740  174.0070  136.3360 N   0  0  0  0  0  2  0  0  0  0  0  0
  192.9640  173.7770  135.4710 C   0  0  0  0  0  0  0  0  0  0  0  0
  193.1280  173.1040  134.4160 O   0  0  0  0  0  0  0  0  0  0  0  0
  195.3500  173.5060  136.0380 N   0  0  0  0  0  2  0  0  0  0  0  0
  195.3630  173.7730  138.5170 C   0  0  0  0  0  1  0  0  0  0  0  0
  197.0730  172.4750  137.3300 C   0  0  0  0  0  2  0  0  0  0  0  0
  198.2410  173.3240  137.2050 N   0  0  0  0  0  0  0  0  0  0  0  0
  199.6760  173.1140  137.1810 C   0  0  0  0  0  1  0  0  0  0  0  0
  197.3440  174.4910  137.1150 C   0  0  0  0  0  0  0  0  0  0  0  0
  196.1680  173.5750  137.2420 C   0  0  1  0  0  0  0  0  0  0  0  0
  197.5060  175.7340  136.9970 O   0  0  0  0  0  0  0  0  0  0  0  0
  187.4490  175.0300  137.3020 O   0  0  0  0  0  0  0  0  0  0  0  0
  184.7270  174.9470  134.9220 N   0  0  0  0  0  2  0  0  0  0  0  0
  184.4780  175.0000  136.3170 C   0  0  2  0  0  0  0  0  0  0  0  0
  186.4830  175.5140  136.3790 C   0  0  2  0  0  3  0  0  0  0  0  0
  185.1670  176.3760  137.2710 S   0  0  0  0  0  0  0  0  0  0  0  0
  185.6910  174.4160  135.8490 N   0  0  2  0  0  0  0  0  0  0  0  0
  183.6310  173.9680  136.8990 N   0  0  0  0  0  2  0  0  0  0  0  0
  182.3160  174.0600  136.2780 C   0  0  2  0  0  3  0  0  0  0  0  0
  181.2490  174.2120  137.3520 C   0  0  0  0  0  2  0  0  0  0  0  0
  181.2530  175.6000  137.9100 C   0  0  0  0  0  0  0  0  0  0  0  0
  181.0220  176.5870  137.0890 N   0  0  0  0  0  0  0  0  0  0  0  0
  179.9820  178.7140  137.1380 C   0  0  0  0  0  2  0  0  0  0  0  0
  181.0650  177.9920  137.3670 C   0  0  0  0  0  0  0  0  0  0  0  0
  182.3700  178.7100  137.4720 C   0  0  0  0  0  1  0  0  0  0  0  0
  180.3410  175.5350  140.2400 O   0  0  0  0  0  1  0  0  0  0  0  0
  181.4080  175.7660  139.3760 C   0  0  0  0  0  0  0  0  0  0  0  0
  182.5360  176.0500  139.8580 O   0  0  0  0  0  0  0  0  0  0  0  0
  182.0670  172.9120  135.5230 O   0  0  0  0  0  0  0  0  0  0  0  0
  180.9870  170.8000  135.7190 C   0  0  0  0  0  1  0  0  0  0  0  0
  181.1010  172.2110  136.2540 C   0  0  0  0  0  2  0  0  0  0  0  0
  1 14  1  0  0  0  0
  2  3  2  0  0  0  0
  3  6  1  0  0  0  0
  4  1  1  0  0  0  0
  5  6  1  0  0  0  0
  6  8  2  0  0  0  0
  7  2  1  0  0  0  0
  7  4  2  0  0  0  0
  8  1  1  0  0  0  0
  8 38  1  0  0  0  0
  9 16  1  0  0  0  0
 10  9  1  0  0  0  0
 11 17  2  0  0  0  0
 12 16  2  0  0  0  0
 13 12  1  0  0  0  0
 14 13  1  0  0  0  0
 14 10  2  0  0  0  0
 15 10  1  0  0  0  0
 16 11  1  0  0  0  0
 17 20  1  0  0  0  0
 18 24  1  0  0  0  0
 19 23  1  0  0  0  0
 20 23  1  0  0  0  0
 20 22  2  0  0  0  0
 21 24  2  0  0  0  0
 22 25  1  0  0  0  0
 22 21  1  0  0  0  0
 23 18  2  0  0  0  0
 25 26  1  0  0  0  0
 28  2  1  0  0  0  0
 28 27  1  0  0  0  0
 29 28  2  0  0  0  0
 30 27  1  0  0  0  0
 30 36  1  0  0  0  0
 33 32  1  0  0  0  0
 34 33  1  0  0  0  0
 35 33  1  0  0  0  0
 35 36  1  0  0  0  0
 36 32  1  0  0  0  0
 36 31  1  1  0  0  0
 37 35  2  0  0  0  0
 39 40  1  0  0  0  0
 40 44  1  1  0  0  0
 40 42  1  0  0  0  0
 41 42  1  0  0  0  0
 41 38  1  1  0  0  0
 43 39  1  6  0  0  0
 43 40  1  0  0  0  0
 43 41  1  0  0  0  0
 45 44  1  0  0  0  0
 45 46  1  1  0  0  0
 46 47  1  0  0  0  0
 47 53  1  0  0  0  0
 48 50  1  0  0  0  0
 48 47  2  0  0  0  0
 49 50  2  0  0  0  0
 50 51  1  0  0  0  0
 53 54  2  0  0  0  0
 53 52  1  0  0  0  0
 55 57  1  0  0  0  0
 55 45  1  0  0  0  0
 56 57  1  0  0  0  0
M  END
>  <MODEL>
5

>  <REMARK>
 VINA RESULT:      -7.8      2.422      3.399
  Name = 
  17 active torsions:
  status: ('A' for Active; 'I' for Inactive)
    1  A    between atoms: N_2  and  N_30
    2  A    between atoms: C_7  and  N_32
    3  A    between atoms: CA_8  and  C_27
    4  A    between atoms: CA_8  and  C_29
    5  A    between atoms: C_9  and  C_45
    6  A    between atoms: N_10  and  C_40
    7  A    between atoms: C_11  and  C_23
    8  A    between atoms: C_12  and  O_14
    9  A    between atoms: C_12  and  N_19
   10  A    between atoms: C_12  and  C_27
   11  A    between atoms: N_13  and  C_26
   12  A    between atoms: N_13  and  N_28
   13  A    between atoms: O_14  and  C_53
   14  A    between atoms: N_19  and  C_24
   15  A    between atoms: C_25  and  O_50
   16  A    between atoms: N_30  and  C_46
   17  A    between atoms: O_50  and  C_56
                            x       y       z     vdW  Elec       q    Type
                         _______ _______ _______ _____ _____    ______ ____

>  <TORSDO>
F 17

$$$$
=
 OpenBabel10232409123D

 57 62  0  0  1  0  0  0  0  0999 V2000
  191.3220  176.1150  138.1400 N   0  0  0  0  0  0  0  0  0  0  0  0
  192.8390  174.1440  136.5110 C   0  0  0  0  0  0  0  0  0  0  0  0
  191.6410  173.5700  136.6890 C   0  0  0  0  0  3  0  0  0  0  0  0
  192.3890  176.4770  137.2660 C   0  0  0  0  0  3  0  0  0  0  0  0
  188.9330  173.3040  136.4610 Cl  0  0  0  0  0  0  0  0  0  0  0  0
  190.3470  174.2140  136.9730 C   0  0  0  0  0  0  0  0  0  0  0  0
  193.0620  175.6010  136.5350 C   0  0  0  0  0  3  0  0  0  0  0  0
  190.1880  175.3740  137.6250 C   0  0  0  0  0  0  0  0  0  0  0  0
  192.1770  177.8250  141.4500 C   0  0  0  0  0  2  0  0  0  0  0  0
  192.3350  177.1830  140.0950 C   0  0  0  0  0  0  0  0  0  0  0  0
  190.9410  177.1180  143.5500 N   0  0  0  0  0  2  0  0  0  0  0  0
  189.9040  176.9730  141.4320 N   0  0  0  0  0  0  0  0  0  0  0  0
  189.8820  177.1390  139.9790 C   0  0  0  0  0  2  0  0  0  0  0  0
  191.2390  176.8190  139.3960 C   0  0  0  0  0  0  0  0  0  0  0  0
  193.7150  177.0210  139.5470 C   0  0  0  0  0  1  0  0  0  0  0  0
  190.9470  177.3010  142.1360 C   0  0  0  0  0  0  0  0  0  0  0  0
  189.9030  176.4140  144.1680 N   0  0  0  0  0  2  0  0  0  0  0  0
  188.8820  177.4980  147.5880 C   0  0  0  0  0  3  0  0  0  0  0  0
  191.2660  176.4270  146.8530 Cl  0  0  0  0  0  0  0  0  0  0  0  0
  189.0910  176.9450  145.2250 C   0  0  0  0  0  0  0  0  0  0  0  0
  187.0250  177.8950  146.0920 C   0  0  0  0  0  3  0  0  0  0  0  0
  187.7680  177.4030  145.0110 C   0  0  0  0  0  0  0  0  0  0  0  0
  189.6320  176.9880  146.5270 C   0  0  0  0  0  0  0  0  0  0  0  0
  187.5820  177.9500  147.3740 C   0  0  0  0  0  3  0  0  0  0  0  0
  187.0820  177.2930  143.6970 C   0  0  0  0  0  2  0  0  0  0  0  0
  185.8040  178.1040  143.7080 C   0  0  0  0  0  1  0  0  0  0  0  0
  193.7780  171.9150  135.8200 N   0  0  0  0  0  2  0  0  0  0  0  0
  193.9890  173.2830  136.1670 C   0  0  0  0  0  0  0  0  0  0  0  0
  195.1620  173.7480  136.1750 O   0  0  0  0  0  0  0  0  0  0  0  0
  194.8500  171.0710  135.4930 N   0  0  0  0  0  2  0  0  0  0  0  0
  193.5230  169.2880  136.6250 C   0  0  0  0  0  1  0  0  0  0  0  0
  195.9150  169.0350  136.1430 C   0  0  0  0  0  2  0  0  0  0  0  0
  196.6280  169.3220  137.3710 N   0  0  0  0  0  0  0  0  0  0  0  0
  197.8560  168.8550  137.9890 C   0  0  0  0  0  1  0  0  0  0  0  0
  195.5710  170.2880  137.7230 C   0  0  0  0  0  0  0  0  0  0  0  0
  194.8720  169.9640  136.4410 C   0  0  1  0  0  0  0  0  0  0  0  0
  195.3500  171.0510  138.6990 O   0  0  0  0  0  0  0  0  0  0  0  0
  188.8750  175.8400  137.7940 O   0  0  0  0  0  0  0  0  0  0  0  0
  186.5850  177.1630  135.3270 N   0  0  0  0  0  2  0  0  0  0  0  0
  186.2020  177.0350  136.6870 C   0  0  2  0  0  0  0  0  0  0  0  0
  188.2420  176.7950  136.9540 C   0  0  2  0  0  3  0  0  0  0  0  0
  187.1890  177.8780  137.9500 S   0  0  0  0  0  0  0  0  0  0  0  0
  187.2000  176.1640  136.1600 N   0  0  2  0  0  0  0  0  0  0  0  0
  184.9980  176.2740  136.9880 N   0  0  0  0  0  2  0  0  0  0  0  0
  183.8980  177.2150  137.1500 C   0  0  2  0  0  3  0  0  0  0  0  0
  183.3130  177.0860  138.5490 C   0  0  0  0  0  2  0  0  0  0  0  0
  182.7820  178.4020  139.0240 C   0  0  0  0  0  0  0  0  0  0  0  0
  181.6110  178.7780  138.5910 N   0  0  0  0  0  0  0  0  0  0  0  0
  181.1800  181.0330  138.0100 C   0  0  0  0  0  2  0  0  0  0  0  0
  180.9430  180.0230  138.8290 C   0  0  0  0  0  0  0  0  0  0  0  0
  180.3660  180.3370  140.1710 C   0  0  0  0  0  1  0  0  0  0  0  0
  183.3520  178.9400  141.4010 O   0  0  0  0  0  1  0  0  0  0  0  0
  183.5640  179.1470  140.0410 C   0  0  0  0  0  0  0  0  0  0  0  0
  184.4830  179.9260  139.6760 O   0  0  0  0  0  0  0  0  0  0  0  0
  182.9080  176.9560  136.1980 O   0  0  0  0  0  0  0  0  0  0  0  0
  182.4890  175.1250  134.7360 C   0  0  0  0  0  1  0  0  0  0  0  0
  182.8260  175.5600  136.1460 C   0  0  0  0  0  2  0  0  0  0  0  0
  1 14  1  0  0  0  0
  2  7  1  0  0  0  0
  2  3  2  0  0  0  0
  3  6  1  0  0  0  0
  4  1  1  0  0  0  0
  5  6  1  0  0  0  0
  6  8  2  0  0  0  0
  7  4  2  0  0  0  0
  8 38  1  0  0  0  0
  8  1  1  0  0  0  0
  9 16  1  0  0  0  0
 10  9  1  0  0  0  0
 11 17  1  0  0  0  0
 12 16  2  0  0  0  0
 13 12  1  0  0  0  0
 14 13  1  0  0  0  0
 14 10  2  0  0  0  0
 15 10  1  0  0  0  0
 16 11  1  0  0  0  0
 17 20  1  0  0  0  0
 20 23  1  0  0  0  0
 21 24  2  0  0  0  0
 22 20  2  0  0  0  0
 22 21  1  0  0  0  0
 23 19  1  0  0  0  0
 23 18  2  0  0  0  0
 24 18  1  0  0  0  0
 25 26  1  0  0  0  0
 25 22  1  0  0  0  0
 27 28  1  0  0  0  0
 28 29  2  0  0  0  0
 28  2  1  0  0  0  0
 30 27  1  0  0  0  0
 30 36  1  0  0  0  0
 32 36  1  0  0  0  0
 32 33  1  0  0  0  0
 33 35  1  0  0  0  0
 33 34  1  0  0  0  0
 35 37  2  0  0  0  0
 36 31  1  1  0  0  0
 36 35  1  0  0  0  0
 39 40  1  0  0  0  0
 40 44  1  1  0  0  0
 40 42  1  0  0  0  0
 41 38  1  1  0  0  0
 41 42  1  0  0  0  0
 43 39  1  6  0  0  0
 43 40  1  0  0  0  0
 43 41  1  0  0  0  0
 44 45  1  0  0  0  0
 45 46  1  1  0  0  0
 46 47  1  0  0  0  0
 47 53  1  0  0  0  0
 48 50  1  0  0  0  0
 48 47  2  0  0  0  0
 49 50  2  0  0  0  0
 50 51  1  0  0  0  0
 53 52  1  0  0  0  0
 54 53  2  0  0  0  0
 55 45  1  0  0  0  0
 56 57  1  0  0  0  0
 57 55  1  0  0  0  0
M  END
>  <MODEL>
6

>  <REMARK>
 VINA RESULT:      -7.7      1.606      2.138
  Name = 
  17 active torsions:
  status: ('A' for Active; 'I' for Inactive)
    1  A    between atoms: N_2  and  N_30
    2  A    between atoms: C_7  and  N_32
    3  A    between atoms: CA_8  and  C_27
    4  A    between atoms: CA_8  and  C_29
    5  A    between atoms: C_9  and  C_45
    6  A    between atoms: N_10  and  C_40
    7  A    between atoms: C_11  and  C_23
    8  A    between atoms: C_12  and  O_14
    9  A    between atoms: C_12  and  N_19
   10  A    between atoms: C_12  and  C_27
   11  A    between atoms: N_13  and  C_26
   12  A    between atoms: N_13  and  N_28
   13  A    between atoms: O_14  and  C_53
   14  A    between atoms: N_19  and  C_24
   15  A    between atoms: C_25  and  O_50
   16  A    between atoms: N_30  and  C_46
   17  A    between atoms: O_50  and  C_56
                            x       y       z     vdW  Elec       q    Type
                         _______ _______ _______ _____ _____    ______ ____

>  <TORSDO>
F 17

$$$$
=
 OpenBabel10232409123D

 57 62  0  0  1  0  0  0  0  0999 V2000
  190.6700  176.2850  138.1290 N   0  0  0  0  0  0  0  0  0  0  0  0
  192.1110  174.2740  136.4810 C   0  0  0  0  0  0  0  0  0  0  0  0
  190.9290  173.6980  136.7410 C   0  0  0  0  0  3  0  0  0  0  0  0
  191.6850  176.6260  137.1880 C   0  0  0  0  0  3  0  0  0  0  0  0
  188.2150  173.4100  136.6680 Cl  0  0  0  0  0  0  0  0  0  0  0  0
  189.6470  174.3430  137.0740 C   0  0  0  0  0  0  0  0  0  0  0  0
  192.3240  175.7320  136.4490 C   0  0  0  0  0  3  0  0  0  0  0  0
  189.5150  175.5220  137.6990 C   0  0  0  0  0  0  0  0  0  0  0  0
  191.6660  177.9750  141.4100 C   0  0  0  0  0  2  0  0  0  0  0  0
  191.7690  177.2840  140.0740 C   0  0  0  0  0  0  0  0  0  0  0  0
  190.3280  177.4670  143.5050 N   0  0  0  0  0  2  0  0  0  0  0  0
  189.3110  177.3840  141.3740 N   0  0  0  0  0  0  0  0  0  0  0  0
  189.3290  177.5120  139.9170 C   0  0  0  0  0  2  0  0  0  0  0  0
  190.6490  177.0260  139.3660 C   0  0  0  0  0  0  0  0  0  0  0  0
  193.1290  176.9530  139.5540 C   0  0  0  0  0  1  0  0  0  0  0  0
  190.3740  177.6110  142.0880 C   0  0  0  0  0  0  0  0  0  0  0  0
  189.2090  176.9010  144.1230 N   0  0  0  0  0  2  0  0  0  0  0  0
  186.9920  177.9000  146.9520 C   0  0  0  0  0  3  0  0  0  0  0  0
  186.3080  177.6800  144.3340 Cl  0  0  0  0  0  0  0  0  0  0  0  0
  188.7890  177.2080  145.4600 C   0  0  0  0  0  0  0  0  0  0  0  0
  189.2010  177.4860  147.8420 C   0  0  0  0  0  3  0  0  0  0  0  0
  189.6740  177.1580  146.5660 C   0  0  0  0  0  0  0  0  0  0  0  0
  187.4490  177.5940  145.6690 C   0  0  0  0  0  0  0  0  0  0  0  0
  187.8640  177.8480  148.0380 C   0  0  0  0  0  3  0  0  0  0  0  0
  191.1250  176.8690  146.4210 C   0  0  0  0  0  2  0  0  0  0  0  0
  191.5600  175.8610  147.4630 C   0  0  0  0  0  1  0  0  0  0  0  0
  194.5680  173.9460  136.0540 N   0  0  0  0  0  2  0  0  0  0  0  0
  193.2480  173.4090  136.1020 C   0  0  0  0  0  0  0  0  0  0  0  0
  193.0610  172.1930  135.8200 O   0  0  0  0  0  0  0  0  0  0  0  0
  195.6670  173.1510  135.6940 N   0  0  0  0  0  2  0  0  0  0  0  0
  196.2140  173.1580  138.1270 C   0  0  0  0  0  1  0  0  0  0  0  0
  197.8510  172.5100  136.4180 C   0  0  0  0  0  2  0  0  0  0  0  0
  198.7080  173.6570  136.1960 N   0  0  0  0  0  0  0  0  0  0  0  0
  200.1020  173.8540  135.8430 C   0  0  0  0  0  1  0  0  0  0  0  0
  197.5580  174.5330  136.4830 C   0  0  0  0  0  0  0  0  0  0  0  0
  196.7090  173.3210  136.6990 C   0  0  1  0  0  0  0  0  0  0  0  0
  197.3770  175.7780  136.5370 O   0  0  0  0  0  0  0  0  0  0  0  0
  188.2090  175.9850  137.9240 O   0  0  0  0  0  0  0  0  0  0  0  0
  186.6700  177.6630  135.1150 N   0  0  0  0  0  2  0  0  0  0  0  0
  185.9100  176.8330  135.9780 C   0  0  2  0  0  0  0  0  0  0  0  0
  187.5820  177.0230  137.1850 C   0  0  2  0  0  3  0  0  0  0  0  0
  185.8730  177.2210  137.7460 S   0  0  0  0  0  0  0  0  0  0  0  0
  187.3050  176.5860  135.8260 N   0  0  2  0  0  0  0  0  0  0  0  0
  185.1520  175.7420  135.3830 N   0  0  0  0  0  2  0  0  0  0  0  0
  183.7720  175.8490  135.8370 C   0  0  2  0  0  3  0  0  0  0  0  0
  183.2910  177.2850  135.6860 C   0  0  0  0  0  2  0  0  0  0  0  0
  182.1530  177.5620  136.6170 C   0  0  0  0  0  0  0  0  0  0  0  0
  182.3680  178.3650  137.6210 N   0  0  0  0  0  0  0  0  0  0  0  0
  180.6160  179.6950  138.4980 C   0  0  0  0  0  2  0  0  0  0  0  0
  181.4700  178.7040  138.6860 C   0  0  0  0  0  0  0  0  0  0  0  0
  181.7630  178.2940  140.0920 C   0  0  0  0  0  1  0  0  0  0  0  0
  180.3300  175.8770  136.9420 O   0  0  0  0  0  1  0  0  0  0  0  0
  180.8210  176.9990  136.2810 C   0  0  0  0  0  0  0  0  0  0  0  0
  180.0910  177.5810  135.4380 O   0  0  0  0  0  0  0  0  0  0  0  0
  183.6810  175.4570  137.1740 O   0  0  0  0  0  0  0  0  0  0  0  0
  184.6520  173.3540  137.7220 C   0  0  0  0  0  1  0  0  0  0  0  0
  183.4640  174.0750  137.1230 C   0  0  0  0  0  2  0  0  0  0  0  0
  1 14  1  0  0  0  0
  2  3  2  0  0  0  0
  3  6  1  0  0  0  0
  4  1  1  0  0  0  0
  5  6  1  0  0  0  0
  6  8  2  0  0  0  0
  7  2  1  0  0  0  0
  7  4  2  0  0  0  0
  8 38  1  0  0  0  0
  8  1  1  0  0  0  0
  9 16  1  0  0  0  0
 10  9  1  0  0  0  0
 11 17  1  0  0  0  0
 12 16  2  0  0  0  0
 13 12  1  0  0  0  0
 14 13  1  0  0  0  0
 14 10  2  0  0  0  0
 15 10  1  0  0  0  0
 16 11  1  0  0  0  0
 17 20  1  0  0  0  0
 18 24  1  0  0  0  0
 19 23  1  0  0  0  0
 20 23  1  0  0  0  0
 20 22  2  0  0  0  0
 21 24  2  0  0  0  0
 22 21  1  0  0  0  0
 23 18  2  0  0  0  0
 25 22  1  0  0  0  0
 25 26  1  0  0  0  0
 27 28  1  0  0  0  0
 28  2  1  0  0  0  0
 29 28  2  0  0  0  0
 30 27  1  0  0  0  0
 30 36  1  0  0  0  0
 32 36  1  0  0  0  0
 33 32  1  0  0  0  0
 33 35  1  0  0  0  0
 34 33  1  0  0  0  0
 35 37  2  0  0  0  0
 35 36  1  0  0  0  0
 36 31  1  1  0  0  0
 39 40  1  0  0  0  0
 40 44  1  6  0  0  0
 40 42  1  0  0  0  0
 41 42  1  0  0  0  0
 41 38  1  1  0  0  0
 43 39  1  6  0  0  0
 43 40  1  0  0  0  0
 43 41  1  0  0  0  0
 44 45  1  0  0  0  0
 45 46  1  1  0  0  0
 45 55  1  0  0  0  0
 46 47  1  0  0  0  0
 47 48  2  0  0  0  0
 48 50  1  0  0  0  0
 49 50  2  0  0  0  0
 50 51  1  0  0  0  0
 53 47  1  0  0  0  0
 53 52  1  0  0  0  0
 54 53  2  0  0  0  0
 57 55  1  0  0  0  0
 57 56  1  0  0  0  0
M  END
>  <MODEL>
7

>  <REMARK>
 VINA RESULT:      -6.9      1.843      2.772
  Name = 
  17 active torsions:
  status: ('A' for Active; 'I' for Inactive)
    1  A    between atoms: N_2  and  N_30
    2  A    between atoms: C_7  and  N_32
    3  A    between atoms: CA_8  and  C_27
    4  A    between atoms: CA_8  and  C_29
    5  A    between atoms: C_9  and  C_45
    6  A    between atoms: N_10  and  C_40
    7  A    between atoms: C_11  and  C_23
    8  A    between atoms: C_12  and  O_14
    9  A    between atoms: C_12  and  N_19
   10  A    between atoms: C_12  and  C_27
   11  A    between atoms: N_13  and  C_26
   12  A    between atoms: N_13  and  N_28
   13  A    between atoms: O_14  and  C_53
   14  A    between atoms: N_19  and  C_24
   15  A    between atoms: C_25  and  O_50
   16  A    between atoms: N_30  and  C_46
   17  A    between atoms: O_50  and  C_56
                            x       y       z     vdW  Elec       q    Type
                         _______ _______ _______ _____ _____    ______ ____

>  <TORSDO>
F 17

$$$$
=
 OpenBabel10232409123D

 57 62  0  0  1  0  0  0  0  0999 V2000
  189.4360  176.1900  137.4470 N   0  0  0  0  0  0  0  0  0  0  0  0
  188.2180  178.0580  139.4120 C   0  0  0  0  0  0  0  0  0  0  0  0
  189.2750  177.5480  140.0580 C   0  0  0  0  0  3  0  0  0  0  0  0
  188.6630  177.3270  137.0710 C   0  0  0  0  0  3  0  0  0  0  0  0
  191.9190  177.0520  140.5330 Cl  0  0  0  0  0  0  0  0  0  0  0  0
  190.5060  176.9700  139.4910 C   0  0  0  0  0  0  0  0  0  0  0  0
  188.1250  178.1630  137.9450 C   0  0  0  0  0  3  0  0  0  0  0  0
  190.5950  176.3560  138.3020 C   0  0  0  0  0  0  0  0  0  0  0  0
  188.7070  173.7360  134.6080 C   0  0  0  0  0  2  0  0  0  0  0  0
  188.9830  175.0220  135.3440 C   0  0  0  0  0  0  0  0  0  0  0  0
  187.0670  171.8430  135.0150 N   0  0  0  0  0  2  0  0  0  0  0  0
  188.3530  172.7290  136.7880 N   0  0  0  0  0  0  0  0  0  0  0  0
  189.3510  173.6430  137.3430 C   0  0  0  0  0  2  0  0  0  0  0  0
  189.2590  174.9910  136.6660 C   0  0  0  0  0  0  0  0  0  0  0  0
  188.9920  176.2950  134.5640 C   0  0  0  0  0  1  0  0  0  0  0  0
  188.0520  172.7400  135.5230 C   0  0  0  0  0  0  0  0  0  0  0  0
  186.2830  171.0840  135.8890 N   0  0  0  0  0  2  0  0  0  0  0  0
  182.6650  170.3140  135.4030 C   0  0  0  0  0  3  0  0  0  0  0  0
  184.7820  168.9330  134.4100 Cl  0  0  0  0  0  0  0  0  0  0  0  0
  184.8570  171.1990  135.9930 C   0  0  0  0  0  0  0  0  0  0  0  0
  182.8310  172.3050  136.7640 C   0  0  0  0  0  3  0  0  0  0  0  0
  184.2290  172.2430  136.7170 C   0  0  0  0  0  0  0  0  0  0  0  0
  184.0580  170.2460  135.3290 C   0  0  0  0  0  0  0  0  0  0  0  0
  182.0510  171.3410  136.1170 C   0  0  0  0  0  3  0  0  0  0  0  0
  184.9900  173.3500  137.3540 C   0  0  0  0  0  2  0  0  0  0  0  0
  184.9860  174.5670  136.4550 C   0  0  0  0  0  1  0  0  0  0  0  0
  185.8320  178.8250  139.6290 N   0  0  0  0  0  2  0  0  0  0  0  0
  187.1220  178.6470  140.2100 C   0  0  0  0  0  0  0  0  0  0  0  0
  187.3170  178.9930  141.4070 O   0  0  0  0  0  0  0  0  0  0  0  0
  184.7720  179.3840  140.3590 N   0  0  0  0  0  2  0  0  0  0  0  0
  182.9250  180.2750  138.9390 C   0  0  0  0  0  1  0  0  0  0  0  0
  183.6500  177.9330  138.8300 C   0  0  0  0  0  2  0  0  0  0  0  0
  182.7090  177.1610  139.6170 N   0  0  0  0  0  0  0  0  0  0  0  0
  182.1630  175.8170  139.5520 C   0  0  0  0  0  1  0  0  0  0  0  0
  182.5450  178.3250  140.5060 C   0  0  0  0  0  0  0  0  0  0  0  0
  183.5250  179.0820  139.6680 C   0  0  1  0  0  0  0  0  0  0  0  0
  181.8560  178.5740  141.5300 O   0  0  0  0  0  0  0  0  0  0  0  0
  191.8570  175.8750  137.9220 O   0  0  0  0  0  0  0  0  0  0  0  0
  194.6520  177.0030  135.9230 N   0  0  0  0  0  2  0  0  0  0  0  0
  194.4280  175.6220  136.1540 C   0  0  2  0  0  0  0  0  0  0  0  0
  192.5740  176.3070  136.7740 C   0  0  2  0  0  3  0  0  0  0  0  0
  192.8390  174.9070  135.6600 S   0  0  0  0  0  0  0  0  0  0  0  0
  193.9640  176.5710  137.1100 N   0  0  2  0  0  0  0  0  0  0  0  0
  195.5140  174.8410  136.7270 N   0  0  0  0  0  2  0  0  0  0  0  0
  196.4610  174.5340  135.6640 C   0  0  2  0  0  3  0  0  0  0  0  0
  196.0930  173.2090  135.0120 C   0  0  0  0  0  2  0  0  0  0  0  0
  196.5490  172.0600  135.8560 C   0  0  0  0  0  0  0  0  0  0  0  0
  197.7470  171.5900  135.6500 N   0  0  0  0  0  0  0  0  0  0  0  0
  197.9430  169.2450  135.9150 C   0  0  0  0  0  2  0  0  0  0  0  0
  198.3630  170.4500  136.2610 C   0  0  0  0  0  0  0  0  0  0  0  0
  199.1110  170.5830  137.5470 C   0  0  0  0  0  1  0  0  0  0  0  0
  194.5730  170.7670  136.6860 O   0  0  0  0  0  0  0  0  0  0  0  0
  195.6580  171.5980  136.9480 C   0  0  0  0  0  0  0  0  0  0  0  0
  195.9220  171.9010  138.1420 O   0  0  0  0  0  1  0  0  0  0  0  0
  197.7540  174.4620  136.1870 O   0  0  0  0  0  0  0  0  0  0  0  0
  199.9760  174.5420  135.3350 C   0  0  0  0  0  1  0  0  0  0  0  0
  198.5620  175.0690  135.2190 C   0  0  0  0  0  2  0  0  0  0  0  0
  1  8  1  0  0  0  0
  2  3  2  0  0  0  0
  2 28  1  0  0  0  0
  4  1  1  0  0  0  0
  4  7  2  0  0  0  0
  6  3  1  0  0  0  0
  6  5  1  0  0  0  0
  7  2  1  0  0  0  0
  8  6  2  0  0  0  0
  9 10  1  0  0  0  0
  9 16  1  0  0  0  0
 10 14  2  0  0  0  0
 11 16  1  0  0  0  0
 11 17  1  0  0  0  0
 12 13  1  0  0  0  0
 14 13  1  0  0  0  0
 14  1  1  0  0  0  0
 15 10  1  0  0  0  0
 16 12  2  0  0  0  0
 17 20  1  0  0  0  0
 18 24  1  0  0  0  0
 19 23  1  0  0  0  0
 20 22  2  0  0  0  0
 22 21  1  0  0  0  0
 22 25  1  0  0  0  0
 23 18  2  0  0  0  0
 23 20  1  0  0  0  0
 24 21  2  0  0  0  0
 26 25  1  0  0  0  0
 27 28  1  0  0  0  0
 27 30  1  0  0  0  0
 28 29  2  0  0  0  0
 32 33  1  0  0  0  0
 32 36  1  0  0  0  0
 33 35  1  0  0  0  0
 34 33  1  0  0  0  0
 35 37  2  0  0  0  0
 36 31  1  6  0  0  0
 36 30  1  0  0  0  0
 36 35  1  0  0  0  0
 38  8  1  0  0  0  0
 39 40  1  0  0  0  0
 40 44  1  1  0  0  0
 40 43  1  0  0  0  0
 41 43  1  0  0  0  0
 41 38  1  1  0  0  0
 42 40  1  0  0  0  0
 42 41  1  0  0  0  0
 43 39  1  6  0  0  0
 45 46  1  1  0  0  0
 45 55  1  0  0  0  0
 45 44  1  0  0  0  0
 46 47  1  0  0  0  0
 47 53  1  0  0  0  0
 48 47  2  0  0  0  0
 48 50  1  0  0  0  0
 49 50  2  0  0  0  0
 50 51  1  0  0  0  0
 52 53  2  0  0  0  0
 53 54  1  0  0  0  0
 57 56  1  0  0  0  0
 57 55  1  0  0  0  0
M  END
>  <MODEL>
8

>  <REMARK>
 VINA RESULT:      -6.6      3.732     11.959
  Name = 
  17 active torsions:
  status: ('A' for Active; 'I' for Inactive)
    1  A    between atoms: N_2  and  N_30
    2  A    between atoms: C_7  and  N_32
    3  A    between atoms: CA_8  and  C_27
    4  A    between atoms: CA_8  and  C_29
    5  A    between atoms: C_9  and  C_45
    6  A    between atoms: N_10  and  C_40
    7  A    between atoms: C_11  and  C_23
    8  A    between atoms: C_12  and  O_14
    9  A    between atoms: C_12  and  N_19
   10  A    between atoms: C_12  and  C_27
   11  A    between atoms: N_13  and  C_26
   12  A    between atoms: N_13  and  N_28
   13  A    between atoms: O_14  and  C_53
   14  A    between atoms: N_19  and  C_24
   15  A    between atoms: C_25  and  O_50
   16  A    between atoms: N_30  and  C_46
   17  A    between atoms: O_50  and  C_56
                            x       y       z     vdW  Elec       q    Type
                         _______ _______ _______ _____ _____    ______ ____

>  <TORSDO>
F 17

$$$$
=
 OpenBabel10232409123D

 57 62  0  0  1  0  0  0  0  0999 V2000
  191.1830  176.5830  138.8530 N   0  0  0  0  0  0  0  0  0  0  0  0
  193.1860  174.7370  137.6610 C   0  0  0  0  0  0  0  0  0  0  0  0
  192.0230  174.0830  137.5370 C   0  0  0  0  0  3  0  0  0  0  0  0
  192.4070  177.0260  138.2720 C   0  0  0  0  0  3  0  0  0  0  0  0
  189.4810  173.6440  136.6410 Cl  0  0  0  0  0  0  0  0  0  0  0  0
  190.6590  174.6370  137.4860 C   0  0  0  0  0  0  0  0  0  0  0  0
  193.2980  176.2050  137.7350 C   0  0  0  0  0  3  0  0  0  0  0  0
  190.2650  175.7760  138.0730 C   0  0  0  0  0  0  0  0  0  0  0  0
  190.9470  177.9830  142.4020 C   0  0  0  0  0  2  0  0  0  0  0  0
  191.5070  177.3470  141.1550 C   0  0  0  0  0  0  0  0  0  0  0  0
  188.8450  177.5460  143.7540 N   0  0  0  0  0  2  0  0  0  0  0  0
  188.7560  177.6880  141.3970 N   0  0  0  0  0  0  0  0  0  0  0  0
  189.3640  177.8810  140.0810 C   0  0  0  0  0  2  0  0  0  0  0  0
  190.7420  177.2630  140.0450 C   0  0  0  0  0  0  0  0  0  0  0  0
  192.9240  176.8760  141.1780 C   0  0  0  0  0  1  0  0  0  0  0  0
  189.4640  177.7490  142.4870 C   0  0  0  0  0  0  0  0  0  0  0  0
  187.5240  177.0940  143.8320 N   0  0  0  0  0  2  0  0  0  0  0  0
  185.7730  178.3870  146.8620 C   0  0  0  0  0  3  0  0  0  0  0  0
  188.2070  177.1870  146.7630 Cl  0  0  0  0  0  0  0  0  0  0  0  0
  186.5120  177.7090  144.6410 C   0  0  0  0  0  0  0  0  0  0  0  0
  184.3490  178.7820  144.9490 C   0  0  0  0  0  3  0  0  0  0  0  0
  185.3020  178.2070  144.0980 C   0  0  0  0  0  0  0  0  0  0  0  0
  186.7280  177.7950  146.0320 C   0  0  0  0  0  0  0  0  0  0  0  0
  184.5860  178.8790  146.3240 C   0  0  0  0  0  3  0  0  0  0  0  0
  184.9450  178.0590  142.6630 C   0  0  0  0  0  2  0  0  0  0  0  0
  185.5820  179.1660  141.8520 C   0  0  0  0  0  1  0  0  0  0  0  0
  195.0700  173.6860  136.3680 N   0  0  0  0  0  2  0  0  0  0  0  0
  194.4410  173.9580  137.6190 C   0  0  0  0  0  0  0  0  0  0  0  0
  194.9640  173.5290  138.6840 O   0  0  0  0  0  0  0  0  0  0  0  0
  196.2590  172.9450  136.2940 N   0  0  0  0  0  2  0  0  0  0  0  0
  198.3500  172.7940  134.9420 C   0  0  0  0  0  1  0  0  0  0  0  0
  196.5140  174.3110  134.3520 C   0  0  0  0  0  2  0  0  0  0  0  0
  196.8850  175.6300  134.8270 N   0  0  0  0  0  0  0  0  0  0  0  0
  196.6520  176.9930  134.3850 C   0  0  0  0  0  1  0  0  0  0  0  0
  197.6000  174.9910  135.9470 C   0  0  0  0  0  0  0  0  0  0  0  0
  197.1900  173.6520  135.4230 C   0  0  1  0  0  0  0  0  0  0  0  0
  198.2800  175.4060  136.9230 O   0  0  0  0  0  0  0  0  0  0  0  0
  188.9230  176.1530  137.9070 O   0  0  0  0  0  0  0  0  0  0  0  0
  187.8350  177.8200  134.8890 N   0  0  0  0  0  2  0  0  0  0  0  0
  186.9150  177.1180  135.7090 C   0  0  2  0  0  0  0  0  0  0  0  0
  188.4780  177.2060  137.0650 C   0  0  2  0  0  3  0  0  0  0  0  0
  186.7550  177.6030  137.4460 S   0  0  0  0  0  0  0  0  0  0  0  0
  188.2860  176.7260  135.7060 N   0  0  2  0  0  0  0  0  0  0  0  0
  186.1080  176.0760  135.0910 N   0  0  0  0  0  2  0  0  0  0  0  0
  185.2500  175.5000  136.1180 C   0  0  2  0  0  3  0  0  0  0  0  0
  184.5450  176.6110  136.8820 C   0  0  0  0  0  2  0  0  0  0  0  0
  183.1440  176.2130  137.2240 C   0  0  0  0  0  0  0  0  0  0  0  0
  182.5710  175.3040  136.4840 N   0  0  0  0  0  0  0  0  0  0  0  0
  180.2600  175.5850  136.0500 C   0  0  0  0  0  2  0  0  0  0  0  0
  181.2200  174.8320  136.5580 C   0  0  0  0  0  0  0  0  0  0  0  0
  180.8310  173.7820  137.5460 C   0  0  0  0  0  1  0  0  0  0  0  0
  182.5980  176.1210  139.6650 O   0  0  0  0  0  1  0  0  0  0  0  0
  182.5310  176.7890  138.4460 C   0  0  0  0  0  0  0  0  0  0  0  0
  182.0020  177.9300  138.4020 O   0  0  0  0  0  0  0  0  0  0  0  0
  186.0140  174.7310  136.9980 O   0  0  0  0  0  0  0  0  0  0  0  0
  184.8660  172.7780  137.7280 C   0  0  0  0  0  1  0  0  0  0  0  0
  185.7250  173.4060  136.6520 C   0  0  0  0  0  2  0  0  0  0  0  0
  1 14  1  0  0  0  0
  2  7  1  0  0  0  0
  3  2  2  0  0  0  0
  4  1  1  0  0  0  0
  5  6  1  0  0  0  0
  6  3  1  0  0  0  0
  6  8  2  0  0  0  0
  7  4  2  0  0  0  0
  8  1  1  0  0  0  0
  9 16  1  0  0  0  0
 10 15  1  0  0  0  0
 10  9  1  0  0  0  0
 11 17  1  0  0  0  0
 12 16  2  0  0  0  0
 13 12  1  0  0  0  0
 14 13  1  0  0  0  0
 14 10  2  0  0  0  0
 16 11  1  0  0  0  0
 17 20  1  0  0  0  0
 20 23  1  0  0  0  0
 21 24  2  0  0  0  0
 22 20  2  0  0  0  0
 22 21  1  0  0  0  0
 23 19  1  0  0  0  0
 23 18  2  0  0  0  0
 24 18  1  0  0  0  0
 25 22  1  0  0  0  0
 26 25  1  0  0  0  0
 27 28  1  0  0  0  0
 28  2  1  0  0  0  0
 28 29  2  0  0  0  0
 30 27  1  0  0  0  0
 32 33  1  0  0  0  0
 32 36  1  0  0  0  0
 33 35  1  0  0  0  0
 34 33  1  0  0  0  0
 35 37  2  0  0  0  0
 36 31  1  6  0  0  0
 36 35  1  0  0  0  0
 36 30  1  0  0  0  0
 38  8  1  0  0  0  0
 39 40  1  0  0  0  0
 40 44  1  6  0  0  0
 40 42  1  0  0  0  0
 41 42  1  0  0  0  0
 41 38  1  1  0  0  0
 43 39  1  6  0  0  0
 43 40  1  0  0  0  0
 43 41  1  0  0  0  0
 44 45  1  0  0  0  0
 45 46  1  1  0  0  0
 45 55  1  0  0  0  0
 46 47  1  0  0  0  0
 47 53  1  0  0  0  0
 48 50  1  0  0  0  0
 48 47  2  0  0  0  0
 49 50  2  0  0  0  0
 50 51  1  0  0  0  0
 53 52  1  0  0  0  0
 54 53  2  0  0  0  0
 57 55  1  0  0  0  0
 57 56  1  0  0  0  0
M  END
>  <MODEL>
9

>  <REMARK>
 VINA RESULT:      -6.3      2.028      3.349
  Name = 
  17 active torsions:
  status: ('A' for Active; 'I' for Inactive)
    1  A    between atoms: N_2  and  N_30
    2  A    between atoms: C_7  and  N_32
    3  A    between atoms: CA_8  and  C_27
    4  A    between atoms: CA_8  and  C_29
    5  A    between atoms: C_9  and  C_45
    6  A    between atoms: N_10  and  C_40
    7  A    between atoms: C_11  and  C_23
    8  A    between atoms: C_12  and  O_14
    9  A    between atoms: C_12  and  N_19
   10  A    between atoms: C_12  and  C_27
   11  A    between atoms: N_13  and  C_26
   12  A    between atoms: N_13  and  N_28
   13  A    between atoms: O_14  and  C_53
   14  A    between atoms: N_19  and  C_24
   15  A    between atoms: C_25  and  O_50
   16  A    between atoms: N_30  and  C_46
   17  A    between atoms: O_50  and  C_56
                            x       y       z     vdW  Elec       q    Type
                         _______ _______ _______ _____ _____    ______ ____

>  <TORSDO>
F 17

$$$$
