=
 OpenBabel10232410093D

 62 66  0  0  1  0  0  0  0  0999 V2000
  193.8250  175.2010  136.2140 C   0  0  0  0  0  0  0  0  0  0  0  0
  193.4270  176.2070  137.5050 S   0  0  0  0  0  0  0  0  0  0  0  0
  191.7640  176.1670  137.2320 C   0  0  0  0  0  0  0  0  0  0  0  0
  189.3680  176.4240  137.6050 N   0  0  0  0  0  0  0  0  0  0  0  0
  190.1280  175.3030  135.5450 C   0  0  0  0  0  2  0  0  0  0  0  0
  192.6360  174.1660  134.3750 F   0  0  0  0  0  0  0  0  0  0  0  0
  192.6580  174.8800  135.5220 C   0  0  0  0  0  0  0  0  0  0  0  0
  191.5080  175.4100  136.1070 C   0  0  0  0  0  0  0  0  0  0  0  0
  190.6940  176.9800  137.8950 C   0  0  1  0  0  3  0  0  0  0  0  0
  189.0790  175.6880  136.5630 C   0  0  0  0  0  0  0  0  0  0  0  0
  195.2240  174.8860  135.8120 C   0  0  0  0  0  2  0  0  0  0  0  0
  196.9820  176.3540  135.8640 N   0  0  0  0  0  1  0  0  0  0  0  0
  196.1960  175.5370  136.6860 N   0  0  0  0  0  0  0  0  0  0  0  0
  197.0820  174.5140  137.2490 C   0  0  0  0  0  3  0  0  0  0  0  0
  198.4250  174.8830  137.0820 O   0  0  0  0  0  0  0  0  0  0  0  0
  199.1660  173.7980  137.5660 C   0  0  0  0  0  1  0  0  0  0  0  0
  196.8570  173.2900  136.6050 O   0  0  0  0  0  0  0  0  0  0  0  0
  196.3610  172.4460  137.6040 C   0  0  0  0  0  1  0  0  0  0  0  0
  190.8960  177.0490  139.4000 C   0  0  0  0  0  2  0  0  0  0  0  0
  189.3050  176.9330  140.2390 S   0  0  0  0  0  0  0  0  0  0  0  0
  190.4330  176.2150  142.4420 F   0  0  0  0  0  0  0  0  0  0  0  0
  189.6710  177.1430  141.7950 C   0  0  2  0  0  3  0  0  0  0  0  0
  189.0690  178.2860  142.5440 C   0  0  0  0  0  2  0  0  0  0  0  0
  189.6600  178.3920  143.9140 C   0  0  0  0  0  0  0  0  0  0  0  0
  189.0970  177.6600  145.0180 N   0  0  0  0  0  0  0  0  0  0  0  0
  190.6950  179.0980  144.0790 O   0  0  0  0  0  0  0  0  0  0  0  0
  189.9300  177.3890  146.1900 C   0  0  1  0  0  3  0  0  0  0  0  0
  189.1150  176.7540  147.2990 C   0  0  0  0  0  1  0  0  0  0  0  0
  191.1340  176.5130  145.8500 C   0  0  0  0  0  2  0  0  0  0  0  0
  192.0540  176.3560  147.0480 C   0  0  0  0  0  2  0  0  0  0  0  0
  191.9250  175.0770  147.5800 O   0  0  0  0  0  1  0  0  0  0  0  0
  187.7290  177.1400  144.9120 C   0  0  0  0  0  2  0  0  0  0  0  0
  184.7100  178.3830  145.1710 C   0  0  1  0  0  3  0  0  0  0  0  0
  185.4180  177.2070  145.8190 C   0  0  0  0  0  2  0  0  0  0  0  0
  186.8370  179.1540  146.1050 C   0  0  0  0  0  2  0  0  0  0  0  0
  186.8510  177.6330  146.0580 C   0  0  2  0  0  3  0  0  0  0  0  0
  185.5040  179.6180  145.5470 C   0  0  0  0  0  2  0  0  0  0  0  0
  184.7190  178.2340  143.7220 N   0  0  0  0  0  2  0  0  0  0  0  0
  183.5910  178.5520  142.8980 C   0  0  0  0  0  0  0  0  0  0  0  0
  182.5000  178.9080  143.4130 O   0  0  0  0  0  0  0  0  0  0  0  0
  183.7270  178.4950  141.4170 C   0  0  0  0  0  2  0  0  0  0  0  0
  185.1130  178.9530  140.9890 C   0  0  0  0  0  2  0  0  0  0  0  0
  185.0530  179.5660  139.6660 N   0  0  0  0  0  1  0  0  0  0  0  0
  187.7750  175.2320  136.3670 O   0  0  0  0  0  0  0  0  0  0  0  0
  185.2630  173.6430  135.1080 C   0  0  1  0  0  3  0  0  0  0  0  0
  187.4670  174.1210  135.5350 C   0  0  1  0  0  3  0  0  0  0  0  0
  187.0690  172.9750  136.3720 C   0  0  0  0  0  0  0  0  0  0  0  0
  186.3650  174.4480  134.7140 O   0  0  0  0  0  0  0  0  0  0  0  0
  187.8990  172.2780  137.1430 C   0  0  0  0  0  2  0  0  0  0  0  0
  185.6750  172.6170  136.1490 C   0  0  0  0  0  2  0  0  0  0  0  0
  184.0890  174.5030  135.5980 C   0  0  1  0  0  3  0  0  0  0  0  0
  180.5190  172.1480  136.0630 C   0  0  0  0  0  3  0  0  0  0  0  0
  180.5890  173.1320  135.0690 C   0  0  0  0  0  3  0  0  0  0  0  0
  181.6020  171.9370  136.9210 C   0  0  0  0  0  3  0  0  0  0  0  0
  182.7560  172.7110  136.7880 C   0  0  0  0  0  3  0  0  0  0  0  0
  182.8300  173.7060  135.8000 C   0  0  0  0  0  0  0  0  0  0  0  0
  181.7440  173.9070  134.9370 C   0  0  0  0  0  3  0  0  0  0  0  0
  184.4490  175.1710  136.7740 O   0  0  0  0  0  0  0  0  0  0  0  0
  184.3190  176.5270  136.4660 C   0  0  0  0  0  2  0  0  0  0  0  0
  182.1740  177.3460  136.8810 C   0  0  0  0  0  1  0  0  0  0  0  0
  183.3380  176.2400  138.5680 C   0  0  0  0  0  1  0  0  0  0  0  0
  183.4910  177.1780  137.4700 N   0  0  0  0  0  0  0  0  0  0  0  0
  1  2  1  0  0  0  0
  3  2  1  0  0  0  0
  3  9  1  0  0  0  0
  4  9  1  0  0  0  0
  5  8  1  0  0  0  0
  5 10  1  0  0  0  0
  6  7  1  0  0  0  0
  7  8  1  0  0  0  0
  7  1  2  0  0  0  0
  8  3  2  0  0  0  0
  9 19  1  1  0  0  0
 10  4  2  0  0  0  0
 11  1  1  0  0  0  0
 11 13  1  0  0  0  0
 12 13  1  0  0  0  0
 13 14  1  0  0  0  0
 15 14  1  0  0  0  0
 15 16  1  0  0  0  0
 17 14  1  0  0  0  0
 17 18  1  0  0  0  0
 19 20  1  0  0  0  0
 20 22  1  0  0  0  0
 22 21  1  1  0  0  0
 22 23  1  0  0  0  0
 23 24  1  0  0  0  0
 24 26  2  0  0  0  0
 24 25  1  0  0  0  0
 25 27  1  0  0  0  0
 27 28  1  1  0  0  0
 29 27  1  0  0  0  0
 29 30  1  0  0  0  0
 30 31  1  0  0  0  0
 32 25  1  0  0  0  0
 33 38  1  6  0  0  0
 33 37  1  0  0  0  0
 33 34  1  0  0  0  0
 34 36  1  0  0  0  0
 36 32  1  6  0  0  0
 36 35  1  0  0  0  0
 37 35  1  0  0  0  0
 39 40  2  0  0  0  0
 39 38  1  0  0  0  0
 41 39  1  0  0  0  0
 42 41  1  0  0  0  0
 43 42  1  0  0  0  0
 44 10  1  0  0  0  0
 45 51  1  1  0  0  0
 45 50  1  0  0  0  0
 46 44  1  1  0  0  0
 46 47  1  0  0  0  0
 47 49  2  0  0  0  0
 48 45  1  0  0  0  0
 48 46  1  0  0  0  0
 50 47  1  0  0  0  0
 51 56  1  0  0  0  0
 51 58  1  1  0  0  0
 52 54  1  0  0  0  0
 53 52  2  0  0  0  0
 55 54  2  0  0  0  0
 56 55  1  0  0  0  0
 57 53  1  0  0  0  0
 57 56  2  0  0  0  0
 59 58  1  0  0  0  0
 59 62  1  0  0  0  0
 60 62  1  0  0  0  0
 62 61  1  0  0  0  0
M  END
>  <MODEL>
1

>  <REMARK>
 VINA RESULT:      -6.6      0.000      0.000
  Name = 
  24 active torsions:
  status: ('A' for Active; 'I' for Inactive)
    1  A    between atoms: C_1  and  C_24
    2  A    between atoms: C_2  and  N_8
    3  A    between atoms: C_3  and  C_11
    4  A    between atoms: O_6  and  C_10
    5  A    between atoms: C_7  and  C_57
    6  A    between atoms: C_10  and  O_20
    7  A    between atoms: C_10  and  N_59
    8  A    between atoms: C_11  and  C_55
    9  A    between atoms: N_12  and  C_19
   10  A    between atoms: N_12  and  C_61
   11  A    between atoms: C_16  and  C_44
   12  A    between atoms: C_19  and  C_35
   13  A    between atoms: C_24  and  N_59
   14  A    between atoms: C_25  and  C_47
   15  A    between atoms: O_27  and  C_28
   16  A    between atoms: O_27  and  C_47
   17  A    between atoms: C_28  and  N_42
   18  A    between atoms: C_30  and  O_48
   19  A    between atoms: C_36  and  C_47
   20  A    between atoms: C_37  and  S_45
   21  A    between atoms: C_37  and  C_58
   22  A    between atoms: C_44  and  C_49
   23  A    between atoms: O_48  and  C_60
   24  A    between atoms: C_57  and  C_61
                            x       y       z     vdW  Elec       q    Type
                         _______ _______ _______ _____ _____    ______ ____

>  <TORSDO>
F 24

$$$$
=
 OpenBabel10232410093D

 62 66  0  0  1  0  0  0  0  0999 V2000
  193.9390  175.5030  136.5460 C   0  0  0  0  0  0  0  0  0  0  0  0
  193.3370  176.3770  137.8550 S   0  0  0  0  0  0  0  0  0  0  0  0
  191.7200  176.0030  137.5640 C   0  0  0  0  0  0  0  0  0  0  0  0
  189.3200  175.7550  137.9190 N   0  0  0  0  0  0  0  0  0  0  0  0
  190.3040  174.8610  135.8430 C   0  0  0  0  0  2  0  0  0  0  0  0
  192.9970  174.2890  134.6740 F   0  0  0  0  0  0  0  0  0  0  0  0
  192.8670  174.9650  135.8360 C   0  0  0  0  0  0  0  0  0  0  0  0
  191.6300  175.2350  136.4200 C   0  0  0  0  0  0  0  0  0  0  0  0
  190.5020  176.5640  138.2330 C   0  0  1  0  0  3  0  0  0  0  0  0
  189.1930  174.9990  136.8590 C   0  0  0  0  0  0  0  0  0  0  0  0
  195.3760  175.4910  136.1520 C   0  0  0  0  0  2  0  0  0  0  0  0
  197.5510  175.1390  136.7790 N   0  0  0  0  0  1  0  0  0  0  0  0
  196.2350  175.0720  137.2550 N   0  0  0  0  0  0  0  0  0  0  0  0
  195.9590  173.6650  137.5580 C   0  0  0  0  0  3  0  0  0  0  0  0
  195.6600  173.5070  138.9200 O   0  0  0  0  0  0  0  0  0  0  0  0
  196.2910  174.5810  139.5600 C   0  0  0  0  0  1  0  0  0  0  0  0
  197.0780  172.8850  137.2390 O   0  0  0  0  0  0  0  0  0  0  0  0
  196.6500  171.5630  137.3930 C   0  0  0  0  0  1  0  0  0  0  0  0
  190.6770  176.6390  139.7420 C   0  0  0  0  0  2  0  0  0  0  0  0
  189.0750  176.8650  140.5350 S   0  0  0  0  0  0  0  0  0  0  0  0
  190.0100  176.1000  142.8120 F   0  0  0  0  0  0  0  0  0  0  0  0
  189.4420  177.1060  142.0870 C   0  0  2  0  0  3  0  0  0  0  0  0
  189.0420  178.3850  142.7480 C   0  0  0  0  0  2  0  0  0  0  0  0
  189.6810  178.5080  144.0940 C   0  0  0  0  0  0  0  0  0  0  0  0
  189.1770  177.7640  145.2190 N   0  0  0  0  0  0  0  0  0  0  0  0
  190.7030  179.2400  144.2200 O   0  0  0  0  0  0  0  0  0  0  0  0
  190.0610  177.5160  146.3600 C   0  0  1  0  0  3  0  0  0  0  0  0
  189.4310  176.5340  147.3280 C   0  0  0  0  0  1  0  0  0  0  0  0
  191.4370  177.0210  145.9240 C   0  0  0  0  0  2  0  0  0  0  0  0
  191.9710  175.9710  146.8830 C   0  0  0  0  0  2  0  0  0  0  0  0
  192.4760  174.8900  146.1680 O   0  0  0  0  0  1  0  0  0  0  0  0
  187.8200  177.2100  145.1640 C   0  0  0  0  0  2  0  0  0  0  0  0
  184.7640  178.3050  145.5960 C   0  0  1  0  0  3  0  0  0  0  0  0
  185.5620  177.1620  146.1960 C   0  0  0  0  0  2  0  0  0  0  0  0
  186.8990  179.1730  146.4170 C   0  0  0  0  0  2  0  0  0  0  0  0
  186.9840  177.6560  146.3600 C   0  0  2  0  0  3  0  0  0  0  0  0
  185.5170  179.5740  145.9360 C   0  0  0  0  0  2  0  0  0  0  0  0
  184.7010  178.1620  144.1480 N   0  0  0  0  0  2  0  0  0  0  0  0
  183.5490  178.5260  143.3770 C   0  0  0  0  0  0  0  0  0  0  0  0
  182.4970  178.9220  143.9430 O   0  0  0  0  0  0  0  0  0  0  0  0
  183.6140  178.4710  141.8920 C   0  0  0  0  0  2  0  0  0  0  0  0
  182.3320  179.0180  141.2800 C   0  0  0  0  0  2  0  0  0  0  0  0
  181.6490  177.9710  140.5270 N   0  0  0  0  0  1  0  0  0  0  0  0
  188.0120  174.2910  136.6400 O   0  0  0  0  0  0  0  0  0  0  0  0
  185.4460  173.2020  135.0110 C   0  0  1  0  0  3  0  0  0  0  0  0
  187.6330  173.8050  135.3590 C   0  0  1  0  0  3  0  0  0  0  0  0
  187.5450  172.3340  135.3970 C   0  0  0  0  0  0  0  0  0  0  0  0
  186.3500  174.2980  135.0360 O   0  0  0  0  0  0  0  0  0  0  0  0
  188.5900  171.5160  135.4940 C   0  0  0  0  0  2  0  0  0  0  0  0
  186.1780  171.8810  135.1810 C   0  0  0  0  0  2  0  0  0  0  0  0
  184.3350  173.3690  136.0570 C   0  0  1  0  0  3  0  0  0  0  0  0
  183.1990  177.5000  136.4430 C   0  0  0  0  0  3  0  0  0  0  0  0
  184.2720  176.9930  137.1850 C   0  0  0  0  0  3  0  0  0  0  0  0
  182.4790  176.6640  135.5850 C   0  0  0  0  0  3  0  0  0  0  0  0
  182.8300  175.3170  135.4710 C   0  0  0  0  0  3  0  0  0  0  0  0
  183.9000  174.7990  136.2190 C   0  0  0  0  0  0  0  0  0  0  0  0
  184.6230  175.6460  137.0700 C   0  0  0  0  0  3  0  0  0  0  0  0
  183.2470  172.5530  135.7290 O   0  0  0  0  0  0  0  0  0  0  0  0
  182.9510  171.8640  136.9080 C   0  0  0  0  0  2  0  0  0  0  0  0
  180.7650  172.4810  137.4420 C   0  0  0  0  0  1  0  0  0  0  0  0
  181.1900  171.3060  135.4760 C   0  0  0  0  0  1  0  0  0  0  0  0
  181.5680  171.4120  136.8740 N   0  0  0  0  0  0  0  0  0  0  0  0
  1  2  1  0  0  0  0
  3  2  1  0  0  0  0
  3  9  1  0  0  0  0
  4  9  1  0  0  0  0
  5  8  1  0  0  0  0
  5 10  1  0  0  0  0
  6  7  1  0  0  0  0
  7  8  1  0  0  0  0
  7  1  2  0  0  0  0
  8  3  2  0  0  0  0
  9 19  1  1  0  0  0
 10  4  2  0  0  0  0
 11  1  1  0  0  0  0
 11 13  1  0  0  0  0
 12 13  1  0  0  0  0
 13 14  1  0  0  0  0
 14 15  1  0  0  0  0
 15 16  1  0  0  0  0
 17 18  1  0  0  0  0
 17 14  1  0  0  0  0
 19 20  1  0  0  0  0
 20 22  1  0  0  0  0
 22 23  1  0  0  0  0
 22 21  1  1  0  0  0
 23 24  1  0  0  0  0
 24 26  2  0  0  0  0
 24 25  1  0  0  0  0
 25 27  1  0  0  0  0
 27 28  1  1  0  0  0
 29 27  1  0  0  0  0
 29 30  1  0  0  0  0
 31 30  1  0  0  0  0
 32 25  1  0  0  0  0
 33 38  1  6  0  0  0
 33 37  1  0  0  0  0
 33 34  1  0  0  0  0
 34 36  1  0  0  0  0
 36 32  1  6  0  0  0
 36 35  1  0  0  0  0
 37 35  1  0  0  0  0
 39 40  2  0  0  0  0
 39 38  1  0  0  0  0
 41 39  1  0  0  0  0
 42 41  1  0  0  0  0
 43 42  1  0  0  0  0
 44 10  1  0  0  0  0
 45 48  1  0  0  0  0
 45 50  1  0  0  0  0
 45 51  1  1  0  0  0
 46 47  1  0  0  0  0
 46 44  1  1  0  0  0
 47 49  2  0  0  0  0
 48 46  1  0  0  0  0
 50 47  1  0  0  0  0
 51 58  1  6  0  0  0
 51 56  1  0  0  0  0
 52 53  1  0  0  0  0
 54 52  2  0  0  0  0
 55 54  1  0  0  0  0
 55 56  2  0  0  0  0
 56 57  1  0  0  0  0
 57 53  2  0  0  0  0
 58 59  1  0  0  0  0
 61 62  1  0  0  0  0
 62 59  1  0  0  0  0
 62 60  1  0  0  0  0
M  END
>  <MODEL>
2

>  <REMARK>
 VINA RESULT:      -6.3      1.344      2.309
  Name = 
  24 active torsions:
  status: ('A' for Active; 'I' for Inactive)
    1  A    between atoms: C_1  and  C_24
    2  A    between atoms: C_2  and  N_8
    3  A    between atoms: C_3  and  C_11
    4  A    between atoms: O_6  and  C_10
    5  A    between atoms: C_7  and  C_57
    6  A    between atoms: C_10  and  O_20
    7  A    between atoms: C_10  and  N_59
    8  A    between atoms: C_11  and  C_55
    9  A    between atoms: N_12  and  C_19
   10  A    between atoms: N_12  and  C_61
   11  A    between atoms: C_16  and  C_44
   12  A    between atoms: C_19  and  C_35
   13  A    between atoms: C_24  and  N_59
   14  A    between atoms: C_25  and  C_47
   15  A    between atoms: O_27  and  C_28
   16  A    between atoms: O_27  and  C_47
   17  A    between atoms: C_28  and  N_42
   18  A    between atoms: C_30  and  O_48
   19  A    between atoms: C_36  and  C_47
   20  A    between atoms: C_37  and  S_45
   21  A    between atoms: C_37  and  C_58
   22  A    between atoms: C_44  and  C_49
   23  A    between atoms: O_48  and  C_60
   24  A    between atoms: C_57  and  C_61
                            x       y       z     vdW  Elec       q    Type
                         _______ _______ _______ _____ _____    ______ ____

>  <TORSDO>
F 24

$$$$
=
 OpenBabel10232410093D

 62 66  0  0  1  0  0  0  0  0999 V2000
  189.6190  177.7330  142.2830 C   0  0  0  0  0  0  0  0  0  0  0  0
  188.5910  178.0240  140.9810 S   0  0  0  0  0  0  0  0  0  0  0  0
  189.7100  177.5940  139.7960 C   0  0  0  0  0  0  0  0  0  0  0  0
  190.6340  176.9700  137.6270 N   0  0  0  0  0  0  0  0  0  0  0  0
  192.1270  176.9700  139.5900 C   0  0  0  0  0  2  0  0  0  0  0  0
  191.9510  177.1470  142.5710 F   0  0  0  0  0  0  0  0  0  0  0  0
  190.8690  177.3580  141.7910 C   0  0  0  0  0  0  0  0  0  0  0  0
  190.9080  177.2670  140.4000 C   0  0  0  0  0  0  0  0  0  0  0  0
  189.5940  177.7470  138.3100 C   0  0  1  0  0  3  0  0  0  0  0  0
  191.7760  176.6210  138.1610 C   0  0  0  0  0  0  0  0  0  0  0  0
  189.2590  178.0200  143.7000 C   0  0  0  0  0  2  0  0  0  0  0  0
  188.2750  175.9540  143.6030 N   0  0  0  0  0  1  0  0  0  0  0  0
  189.0060  176.7950  144.4520 N   0  0  0  0  0  0  0  0  0  0  0  0
  188.1400  177.1140  145.5910 C   0  0  0  0  0  3  0  0  0  0  0  0
  187.4440  178.3090  145.3590 O   0  0  0  0  0  0  0  0  0  0  0  0
  186.0960  177.9960  145.5740 C   0  0  0  0  0  1  0  0  0  0  0  0
  188.9160  177.2510  146.7490 O   0  0  0  0  0  0  0  0  0  0  0  0
  190.2290  177.0130  146.3300 C   0  0  0  0  0  1  0  0  0  0  0  0
  188.2270  177.3120  137.8080 C   0  0  0  0  0  2  0  0  0  0  0  0
  188.3640  175.7410  136.9350 S   0  0  0  0  0  0  0  0  0  0  0  0
  186.0790  174.9560  137.8340 F   0  0  0  0  0  0  0  0  0  0  0  0
  186.8340  175.2710  136.7420 C   0  0  2  0  0  3  0  0  0  0  0  0
  186.2960  175.0640  135.3640 C   0  0  0  0  0  2  0  0  0  0  0  0
  186.2720  173.6100  135.0160 C   0  0  0  0  0  0  0  0  0  0  0  0
  185.1130  172.8040  135.3010 N   0  0  0  0  0  0  0  0  0  0  0  0
  187.2670  173.1070  134.4220 O   0  0  0  0  0  0  0  0  0  0  0  0
  184.9080  171.5640  134.5520 C   0  0  1  0  0  3  0  0  0  0  0  0
  185.6000  170.3990  135.2340 C   0  0  0  0  0  1  0  0  0  0  0  0
  183.4280  171.2530  134.3460 C   0  0  0  0  0  2  0  0  0  0  0  0
  183.0710  169.8860  134.9040 C   0  0  0  0  0  2  0  0  0  0  0  0
  181.8740  169.4450  134.3480 O   0  0  0  0  0  1  0  0  0  0  0  0
  184.1300  173.2810  136.2800 C   0  0  0  0  0  2  0  0  0  0  0  0
  181.7810  175.5560  136.4740 C   0  0  1  0  0  3  0  0  0  0  0  0
  182.5610  174.9500  135.3210 C   0  0  0  0  0  2  0  0  0  0  0  0
  181.6550  173.1160  136.6240 C   0  0  0  0  0  2  0  0  0  0  0  0
  182.7580  173.4840  135.6440 C   0  0  2  0  0  3  0  0  0  0  0  0
  181.0520  174.4090  137.1440 C   0  0  0  0  0  2  0  0  0  0  0  0
  182.6970  176.1610  137.4320 N   0  0  0  0  0  2  0  0  0  0  0  0
  183.6720  177.1440  137.0650 C   0  0  0  0  0  0  0  0  0  0  0  0
  183.8280  177.4760  135.8600 O   0  0  0  0  0  0  0  0  0  0  0  0
  184.4810  177.8060  138.1240 C   0  0  0  0  0  2  0  0  0  0  0  0
  183.7100  177.8500  139.4360 C   0  0  0  0  0  2  0  0  0  0  0  0
  182.7540  178.9530  139.4190 N   0  0  0  0  0  1  0  0  0  0  0  0
  192.7100  175.9050  137.4130 O   0  0  0  0  0  0  0  0  0  0  0  0
  193.4370  173.0350  136.1270 C   0  0  1  0  0  3  0  0  0  0  0  0
  192.3410  175.0390  136.3480 C   0  0  1  0  0  3  0  0  0  0  0  0
  193.3170  175.1620  135.2510 C   0  0  0  0  0  0  0  0  0  0  0  0
  192.3810  173.7020  136.8020 O   0  0  0  0  0  0  0  0  0  0  0  0
  193.4360  176.2250  134.4600 C   0  0  0  0  0  2  0  0  0  0  0  0
  194.0510  173.9190  135.0550 C   0  0  0  0  0  2  0  0  0  0  0  0
  194.4980  172.5250  137.1130 C   0  0  1  0  0  3  0  0  0  0  0  0
  195.2620  168.3100  136.7170 C   0  0  0  0  0  3  0  0  0  0  0  0
  195.8020  169.0250  137.7920 C   0  0  0  0  0  3  0  0  0  0  0  0
  194.4850  168.9640  135.7560 C   0  0  0  0  0  3  0  0  0  0  0  0
  194.2500  170.3350  135.8680 C   0  0  0  0  0  3  0  0  0  0  0  0
  194.7970  171.0620  136.9390 C   0  0  0  0  0  0  0  0  0  0  0  0
  195.5670  170.3970  137.9040 C   0  0  0  0  0  3  0  0  0  0  0  0
  195.6640  173.2880  136.9910 O   0  0  0  0  0  0  0  0  0  0  0  0
  196.1530  173.3990  138.2950 C   0  0  0  0  0  2  0  0  0  0  0  0
  197.0210  174.9540  139.8030 C   0  0  0  0  0  1  0  0  0  0  0  0
  198.3470  174.1700  138.0570 C   0  0  0  0  0  1  0  0  0  0  0  0
  196.9970  174.5800  138.4000 N   0  0  0  0  0  0  0  0  0  0  0  0
  1 11  1  0  0  0  0
  2  1  1  0  0  0  0
  3  8  2  0  0  0  0
  3  2  1  0  0  0  0
  4 10  2  0  0  0  0
  4  9  1  0  0  0  0
  5  8  1  0  0  0  0
  7  1  2  0  0  0  0
  7  6  1  0  0  0  0
  8  7  1  0  0  0  0
  9 19  1  6  0  0  0
  9  3  1  0  0  0  0
 10  5  1  0  0  0  0
 11 13  1  0  0  0  0
 12 13  1  0  0  0  0
 13 14  1  0  0  0  0
 14 17  1  0  0  0  0
 15 16  1  0  0  0  0
 15 14  1  0  0  0  0
 18 17  1  0  0  0  0
 20 19  1  0  0  0  0
 22 20  1  0  0  0  0
 22 21  1  1  0  0  0
 23 22  1  0  0  0  0
 24 25  1  0  0  0  0
 24 23  1  0  0  0  0
 25 32  1  0  0  0  0
 26 24  2  0  0  0  0
 27 28  1  1  0  0  0
 27 25  1  0  0  0  0
 29 27  1  0  0  0  0
 29 30  1  0  0  0  0
 31 30  1  0  0  0  0
 33 37  1  0  0  0  0
 33 38  1  1  0  0  0
 34 36  1  0  0  0  0
 34 33  1  0  0  0  0
 35 37  1  0  0  0  0
 36 32  1  1  0  0  0
 36 35  1  0  0  0  0
 39 38  1  0  0  0  0
 39 41  1  0  0  0  0
 40 39  2  0  0  0  0
 41 42  1  0  0  0  0
 43 42  1  0  0  0  0
 44 10  1  0  0  0  0
 45 48  1  0  0  0  0
 45 51  1  1  0  0  0
 46 48  1  0  0  0  0
 46 44  1  1  0  0  0
 47 46  1  0  0  0  0
 49 47  2  0  0  0  0
 50 47  1  0  0  0  0
 50 45  1  0  0  0  0
 51 58  1  6  0  0  0
 52 53  1  0  0  0  0
 53 57  2  0  0  0  0
 54 55  1  0  0  0  0
 54 52  2  0  0  0  0
 55 56  2  0  0  0  0
 56 51  1  0  0  0  0
 56 57  1  0  0  0  0
 58 59  1  0  0  0  0
 59 62  1  0  0  0  0
 61 62  1  0  0  0  0
 62 60  1  0  0  0  0
M  END
>  <MODEL>
3

>  <REMARK>
 VINA RESULT:      -5.3      2.562     10.458
  Name = 
  24 active torsions:
  status: ('A' for Active; 'I' for Inactive)
    1  A    between atoms: C_1  and  C_24
    2  A    between atoms: C_2  and  N_8
    3  A    between atoms: C_3  and  C_11
    4  A    between atoms: O_6  and  C_10
    5  A    between atoms: C_7  and  C_57
    6  A    between atoms: C_10  and  O_20
    7  A    between atoms: C_10  and  N_59
    8  A    between atoms: C_11  and  C_55
    9  A    between atoms: N_12  and  C_19
   10  A    between atoms: N_12  and  C_61
   11  A    between atoms: C_16  and  C_44
   12  A    between atoms: C_19  and  C_35
   13  A    between atoms: C_24  and  N_59
   14  A    between atoms: C_25  and  C_47
   15  A    between atoms: O_27  and  C_28
   16  A    between atoms: O_27  and  C_47
   17  A    between atoms: C_28  and  N_42
   18  A    between atoms: C_30  and  O_48
   19  A    between atoms: C_36  and  C_47
   20  A    between atoms: C_37  and  S_45
   21  A    between atoms: C_37  and  C_58
   22  A    between atoms: C_44  and  C_49
   23  A    between atoms: O_48  and  C_60
   24  A    between atoms: C_57  and  C_61
                            x       y       z     vdW  Elec       q    Type
                         _______ _______ _______ _____ _____    ______ ____

>  <TORSDO>
F 24

$$$$
=
 OpenBabel10232410093D

 62 66  0  0  1  0  0  0  0  0999 V2000
  189.9830  177.9130  142.0660 C   0  0  0  0  0  0  0  0  0  0  0  0
  188.8030  178.3890  140.9610 S   0  0  0  0  0  0  0  0  0  0  0  0
  189.5780  177.7410  139.6120 C   0  0  0  0  0  0  0  0  0  0  0  0
  189.9450  176.9330  137.3410 N   0  0  0  0  0  0  0  0  0  0  0  0
  191.7510  176.6570  138.9970 C   0  0  0  0  0  2  0  0  0  0  0  0
  192.1730  176.8870  141.9490 F   0  0  0  0  0  0  0  0  0  0  0  0
  191.0240  177.2990  141.3720 C   0  0  0  0  0  0  0  0  0  0  0  0
  190.7840  177.1920  140.0020 C   0  0  0  0  0  0  0  0  0  0  0  0
  189.2180  177.9020  138.1670 C   0  0  1  0  0  3  0  0  0  0  0  0
  191.0790  176.3720  137.6720 C   0  0  0  0  0  0  0  0  0  0  0  0
  189.9550  178.2750  143.5110 C   0  0  0  0  0  2  0  0  0  0  0  0
  188.2030  176.9090  144.0670 N   0  0  0  0  0  1  0  0  0  0  0  0
  189.5560  177.1460  144.3440 N   0  0  0  0  0  0  0  0  0  0  0  0
  189.6430  177.5450  145.7520 C   0  0  0  0  0  3  0  0  0  0  0  0
  190.9520  177.3760  146.2280 O   0  0  0  0  0  0  0  0  0  0  0  0
  191.5180  176.3950  145.4050 C   0  0  0  0  0  1  0  0  0  0  0  0
  188.7700  176.7620  146.5180 O   0  0  0  0  0  0  0  0  0  0  0  0
  188.2660  177.6340  147.4890 C   0  0  0  0  0  1  0  0  0  0  0  0
  187.7230  177.7380  137.9420 C   0  0  0  0  0  2  0  0  0  0  0  0
  187.3940  176.1630  137.1310 S   0  0  0  0  0  0  0  0  0  0  0  0
  185.0000  176.0870  138.0840 F   0  0  0  0  0  0  0  0  0  0  0  0
  185.7900  176.1370  136.9730 C   0  0  2  0  0  3  0  0  0  0  0  0
  185.1860  176.0420  135.6090 C   0  0  0  0  0  2  0  0  0  0  0  0
  185.1660  174.6240  135.1350 C   0  0  0  0  0  0  0  0  0  0  0  0
  184.1040  173.7320  135.5240 N   0  0  0  0  0  0  0  0  0  0  0  0
  186.0710  174.2310  134.3460 O   0  0  0  0  0  0  0  0  0  0  0  0
  183.8330  172.5510  134.7030 C   0  0  1  0  0  3  0  0  0  0  0  0
  184.6120  171.3520  135.2060 C   0  0  0  0  0  1  0  0  0  0  0  0
  182.3430  172.2250  134.6400 C   0  0  0  0  0  2  0  0  0  0  0  0
  182.1100  170.7240  134.6190 C   0  0  0  0  0  2  0  0  0  0  0  0
  181.0980  170.3900  135.5140 O   0  0  0  0  0  1  0  0  0  0  0  0
  183.2760  174.0670  136.6870 C   0  0  0  0  0  2  0  0  0  0  0  0
  181.2590  176.4170  137.7530 C   0  0  1  0  0  3  0  0  0  0  0  0
  181.8880  176.1070  136.4070 C   0  0  0  0  0  2  0  0  0  0  0  0
  180.8230  174.0740  137.1940 C   0  0  0  0  0  2  0  0  0  0  0  0
  181.9090  174.5990  136.2670 C   0  0  2  0  0  3  0  0  0  0  0  0
  180.4250  175.2080  138.1220 C   0  0  0  0  0  2  0  0  0  0  0  0
  182.2980  176.6020  138.7570 N   0  0  0  0  0  2  0  0  0  0  0  0
  182.2660  177.6540  139.7290 C   0  0  0  0  0  0  0  0  0  0  0  0
  181.3550  178.5230  139.7050 O   0  0  0  0  0  0  0  0  0  0  0  0
  183.2980  177.6950  140.8000 C   0  0  0  0  0  2  0  0  0  0  0  0
  183.9900  179.0510  140.8240 C   0  0  0  0  0  2  0  0  0  0  0  0
  184.9910  179.1210  139.7650 N   0  0  0  0  0  1  0  0  0  0  0  0
  191.7040  175.4820  136.7980 O   0  0  0  0  0  0  0  0  0  0  0  0
  192.7630  172.6200  135.7480 C   0  0  1  0  0  3  0  0  0  0  0  0
  191.2920  174.1290  136.6550 C   0  0  1  0  0  3  0  0  0  0  0  0
  190.8980  173.8800  135.2570 C   0  0  0  0  0  0  0  0  0  0  0  0
  192.3820  173.2790  136.9470 O   0  0  0  0  0  0  0  0  0  0  0  0
  189.8010  174.3650  134.6830 C   0  0  0  0  0  2  0  0  0  0  0  0
  191.7940  172.9250  134.6190 C   0  0  0  0  0  2  0  0  0  0  0  0
  194.2080  172.9610  135.3570 C   0  0  1  0  0  3  0  0  0  0  0  0
  196.6190  174.2440  138.6820 C   0  0  0  0  0  3  0  0  0  0  0  0
  195.6500  173.2500  138.8580 C   0  0  0  0  0  3  0  0  0  0  0  0
  196.7970  174.8390  137.4300 C   0  0  0  0  0  3  0  0  0  0  0  0
  196.0050  174.4410  136.3510 C   0  0  0  0  0  3  0  0  0  0  0  0
  195.0240  173.4500  136.5220 C   0  0  0  0  0  0  0  0  0  0  0  0
  194.8570  172.8520  137.7790 C   0  0  0  0  0  3  0  0  0  0  0  0
  194.8130  171.8510  134.7580 O   0  0  0  0  0  0  0  0  0  0  0  0
  196.0680  172.3080  134.3490 C   0  0  0  0  0  2  0  0  0  0  0  0
  198.1680  171.6370  135.1140 C   0  0  0  0  0  1  0  0  0  0  0  0
  196.4010  170.1200  135.0990 C   0  0  0  0  0  1  0  0  0  0  0  0
  197.0130  171.2010  134.3480 N   0  0  0  0  0  0  0  0  0  0  0  0
  1 11  1  0  0  0  0
  2  1  1  0  0  0  0
  3  8  2  0  0  0  0
  3  2  1  0  0  0  0
  4 10  2  0  0  0  0
  4  9  1  0  0  0  0
  5  8  1  0  0  0  0
  7  6  1  0  0  0  0
  7  1  2  0  0  0  0
  8  7  1  0  0  0  0
  9 19  1  1  0  0  0
  9  3  1  0  0  0  0
 10  5  1  0  0  0  0
 11 13  1  0  0  0  0
 12 13  1  0  0  0  0
 13 14  1  0  0  0  0
 14 15  1  0  0  0  0
 14 17  1  0  0  0  0
 16 15  1  0  0  0  0
 17 18  1  0  0  0  0
 20 19  1  0  0  0  0
 22 20  1  0  0  0  0
 22 21  1  1  0  0  0
 23 22  1  0  0  0  0
 24 25  1  0  0  0  0
 24 23  1  0  0  0  0
 25 32  1  0  0  0  0
 26 24  2  0  0  0  0
 27 28  1  1  0  0  0
 27 25  1  0  0  0  0
 29 27  1  0  0  0  0
 30 29  1  0  0  0  0
 30 31  1  0  0  0  0
 33 37  1  0  0  0  0
 33 38  1  1  0  0  0
 34 33  1  0  0  0  0
 35 37  1  0  0  0  0
 36 34  1  0  0  0  0
 36 32  1  1  0  0  0
 36 35  1  0  0  0  0
 38 39  1  0  0  0  0
 39 41  1  0  0  0  0
 40 39  2  0  0  0  0
 41 42  1  0  0  0  0
 43 42  1  0  0  0  0
 44 10  1  0  0  0  0
 45 51  1  6  0  0  0
 45 48  1  0  0  0  0
 46 44  1  6  0  0  0
 46 48  1  0  0  0  0
 47 46  1  0  0  0  0
 49 47  2  0  0  0  0
 50 47  1  0  0  0  0
 50 45  1  0  0  0  0
 51 58  1  1  0  0  0
 51 56  1  0  0  0  0
 52 53  1  0  0  0  0
 54 52  2  0  0  0  0
 55 56  2  0  0  0  0
 55 54  1  0  0  0  0
 56 57  1  0  0  0  0
 57 53  2  0  0  0  0
 59 58  1  0  0  0  0
 62 59  1  0  0  0  0
 62 61  1  0  0  0  0
 62 60  1  0  0  0  0
M  END
>  <MODEL>
4

>  <REMARK>
 VINA RESULT:      -5.1      2.641     10.178
  Name = 
  24 active torsions:
  status: ('A' for Active; 'I' for Inactive)
    1  A    between atoms: C_1  and  C_24
    2  A    between atoms: C_2  and  N_8
    3  A    between atoms: C_3  and  C_11
    4  A    between atoms: O_6  and  C_10
    5  A    between atoms: C_7  and  C_57
    6  A    between atoms: C_10  and  O_20
    7  A    between atoms: C_10  and  N_59
    8  A    between atoms: C_11  and  C_55
    9  A    between atoms: N_12  and  C_19
   10  A    between atoms: N_12  and  C_61
   11  A    between atoms: C_16  and  C_44
   12  A    between atoms: C_19  and  C_35
   13  A    between atoms: C_24  and  N_59
   14  A    between atoms: C_25  and  C_47
   15  A    between atoms: O_27  and  C_28
   16  A    between atoms: O_27  and  C_47
   17  A    between atoms: C_28  and  N_42
   18  A    between atoms: C_30  and  O_48
   19  A    between atoms: C_36  and  C_47
   20  A    between atoms: C_37  and  S_45
   21  A    between atoms: C_37  and  C_58
   22  A    between atoms: C_44  and  C_49
   23  A    between atoms: O_48  and  C_60
   24  A    between atoms: C_57  and  C_61
                            x       y       z     vdW  Elec       q    Type
                         _______ _______ _______ _____ _____    ______ ____

>  <TORSDO>
F 24

$$$$
=
 OpenBabel10232410093D

 62 66  0  0  1  0  0  0  0  0999 V2000
  191.7330  175.5020  137.2160 C   0  0  0  0  0  0  0  0  0  0  0  0
  191.5040  177.0780  137.7680 S   0  0  0  0  0  0  0  0  0  0  0  0
  189.8890  177.1780  137.2980 C   0  0  0  0  0  0  0  0  0  0  0  0
  187.5930  177.9810  137.1230 N   0  0  0  0  0  0  0  0  0  0  0  0
  188.1870  175.8550  136.0230 C   0  0  0  0  0  2  0  0  0  0  0  0
  190.4360  173.8850  135.9640 F   0  0  0  0  0  0  0  0  0  0  0  0
  190.5590  175.0700  136.6010 C   0  0  0  0  0  0  0  0  0  0  0  0
  189.5270  176.0050  136.6650 C   0  0  0  0  0  0  0  0  0  0  0  0
  188.9930  178.3790  137.3020 C   0  0  1  0  0  3  0  0  0  0  0  0
  187.2000  176.8740  136.5460 C   0  0  0  0  0  0  0  0  0  0  0  0
  193.0470  174.8010  137.2420 C   0  0  0  0  0  2  0  0  0  0  0  0
  194.0110  176.4520  135.9800 N   0  0  0  0  0  1  0  0  0  0  0  0
  194.1620  175.7400  137.1770 N   0  0  0  0  0  0  0  0  0  0  0  0
  195.4120  174.9810  137.0720 C   0  0  0  0  0  3  0  0  0  0  0  0
  196.0360  174.8890  138.3250 O   0  0  0  0  0  0  0  0  0  0  0  0
  196.1330  173.5170  138.5870 C   0  0  0  0  0  1  0  0  0  0  0  0
  196.2750  175.6180  136.1720 O   0  0  0  0  0  0  0  0  0  0  0  0
  196.8270  174.5820  135.4110 C   0  0  0  0  0  1  0  0  0  0  0  0
  189.1320  179.1750  138.5900 C   0  0  0  0  0  2  0  0  0  0  0  0
  188.3240  178.3000  139.9430 S   0  0  0  0  0  0  0  0  0  0  0  0
  190.5130  177.0900  140.5670 F   0  0  0  0  0  0  0  0  0  0  0  0
  189.5310  177.9530  140.9550 C   0  0  2  0  0  3  0  0  0  0  0  0
  189.4950  178.4840  142.3510 C   0  0  0  0  0  2  0  0  0  0  0  0
  190.5640  177.8530  143.1860 C   0  0  0  0  0  0  0  0  0  0  0  0
  190.2880  177.4180  144.5300 N   0  0  0  0  0  0  0  0  0  0  0  0
  191.7030  177.6600  142.6750 O   0  0  0  0  0  0  0  0  0  0  0  0
  191.1500  176.4050  145.1400 C   0  0  1  0  0  3  0  0  0  0  0  0
  191.9710  175.6880  144.0860 C   0  0  0  0  0  1  0  0  0  0  0  0
  192.0630  176.9950  146.2110 C   0  0  0  0  0  2  0  0  0  0  0  0
  192.3240  175.9940  147.3230 C   0  0  0  0  0  2  0  0  0  0  0  0
  192.1800  176.6120  148.5610 O   0  0  0  0  0  1  0  0  0  0  0  0
  189.1110  177.9460  145.2280 C   0  0  0  0  0  2  0  0  0  0  0  0
  186.7290  177.1390  147.3270 C   0  0  1  0  0  3  0  0  0  0  0  0
  187.9670  176.4210  146.8200 C   0  0  0  0  0  2  0  0  0  0  0  0
  188.6680  178.6080  147.6020 C   0  0  0  0  0  2  0  0  0  0  0  0
  189.0540  177.4660  146.6750 C   0  0  2  0  0  3  0  0  0  0  0  0
  187.2180  178.4040  148.0020 C   0  0  0  0  0  2  0  0  0  0  0  0
  185.8690  177.4990  146.2080 N   0  0  0  0  0  2  0  0  0  0  0  0
  185.3410  178.8180  146.0220 C   0  0  0  0  0  0  0  0  0  0  0  0
  185.5440  179.7180  146.8790 O   0  0  0  0  0  0  0  0  0  0  0  0
  184.5770  179.1350  144.7850 C   0  0  0  0  0  2  0  0  0  0  0  0
  185.4720  179.0130  143.5590 C   0  0  0  0  0  2  0  0  0  0  0  0
  184.9150  178.0380  142.6280 N   0  0  0  0  0  1  0  0  0  0  0  0
  185.8390  176.6050  136.4010 O   0  0  0  0  0  0  0  0  0  0  0  0
  184.1100  174.0060  137.2240 C   0  0  1  0  0  3  0  0  0  0  0  0
  185.0400  176.0910  137.4580 C   0  0  1  0  0  3  0  0  0  0  0  0
  183.6140  176.2530  137.1220 C   0  0  0  0  0  0  0  0  0  0  0  0
  185.2880  174.7070  137.5970 O   0  0  0  0  0  0  0  0  0  0  0  0
  182.9730  177.4180  137.0880 C   0  0  0  0  0  2  0  0  0  0  0  0
  182.9600  174.9610  136.9590 C   0  0  0  0  0  2  0  0  0  0  0  0
  184.3650  173.0840  136.0220 C   0  0  1  0  0  3  0  0  0  0  0  0
  188.4470  171.7660  135.6900 C   0  0  0  0  0  3  0  0  0  0  0  0
  187.7950  171.7320  136.9280 C   0  0  0  0  0  3  0  0  0  0  0  0
  187.7820  172.2450  134.5580 C   0  0  0  0  0  3  0  0  0  0  0  0
  186.4640  172.6930  134.6630 C   0  0  0  0  0  3  0  0  0  0  0  0
  185.8060  172.6700  135.9030 C   0  0  0  0  0  0  0  0  0  0  0  0
  186.4760  172.1800  137.0330 C   0  0  0  0  0  3  0  0  0  0  0  0
  183.5300  171.9650  136.0970 O   0  0  0  0  0  0  0  0  0  0  0  0
  182.6570  172.1000  135.0150 C   0  0  0  0  0  2  0  0  0  0  0  0
  181.4160  170.1240  134.9950 C   0  0  0  0  0  1  0  0  0  0  0  0
  181.2480  171.5800  136.8050 C   0  0  0  0  0  1  0  0  0  0  0  0
  181.3630  171.5290  135.3590 N   0  0  0  0  0  0  0  0  0  0  0  0
  1 11  1  0  0  0  0
  1  2  1  0  0  0  0
  3  9  1  0  0  0  0
  3  2  1  0  0  0  0
  4  9  1  0  0  0  0
  5 10  1  0  0  0  0
  5  8  1  0  0  0  0
  6  7  1  0  0  0  0
  7  8  1  0  0  0  0
  7  1  2  0  0  0  0
  8  3  2  0  0  0  0
  9 19  1  1  0  0  0
 10  4  2  0  0  0  0
 12 13  1  0  0  0  0
 13 11  1  0  0  0  0
 14 13  1  0  0  0  0
 14 15  1  0  0  0  0
 15 16  1  0  0  0  0
 17 14  1  0  0  0  0
 18 17  1  0  0  0  0
 19 20  1  0  0  0  0
 20 22  1  0  0  0  0
 22 21  1  1  0  0  0
 22 23  1  0  0  0  0
 23 24  1  0  0  0  0
 24 25  1  0  0  0  0
 25 27  1  0  0  0  0
 25 32  1  0  0  0  0
 26 24  2  0  0  0  0
 27 28  1  6  0  0  0
 27 29  1  0  0  0  0
 29 30  1  0  0  0  0
 30 31  1  0  0  0  0
 33 38  1  6  0  0  0
 33 37  1  0  0  0  0
 34 33  1  0  0  0  0
 35 37  1  0  0  0  0
 36 32  1  6  0  0  0
 36 34  1  0  0  0  0
 36 35  1  0  0  0  0
 39 38  1  0  0  0  0
 39 40  2  0  0  0  0
 41 39  1  0  0  0  0
 42 41  1  0  0  0  0
 43 42  1  0  0  0  0
 44 10  1  0  0  0  0
 45 51  1  6  0  0  0
 45 48  1  0  0  0  0
 46 44  1  6  0  0  0
 46 48  1  0  0  0  0
 47 46  1  0  0  0  0
 49 47  2  0  0  0  0
 50 47  1  0  0  0  0
 50 45  1  0  0  0  0
 51 58  1  1  0  0  0
 52 53  1  0  0  0  0
 53 57  2  0  0  0  0
 54 55  1  0  0  0  0
 54 52  2  0  0  0  0
 55 56  2  0  0  0  0
 56 51  1  0  0  0  0
 56 57  1  0  0  0  0
 59 62  1  0  0  0  0
 59 58  1  0  0  0  0
 60 62  1  0  0  0  0
 62 61  1  0  0  0  0
M  END
>  <MODEL>
5

>  <REMARK>
 VINA RESULT:      -4.9      1.964      3.563
  Name = 
  24 active torsions:
  status: ('A' for Active; 'I' for Inactive)
    1  A    between atoms: C_1  and  C_24
    2  A    between atoms: C_2  and  N_8
    3  A    between atoms: C_3  and  C_11
    4  A    between atoms: O_6  and  C_10
    5  A    between atoms: C_7  and  C_57
    6  A    between atoms: C_10  and  O_20
    7  A    between atoms: C_10  and  N_59
    8  A    between atoms: C_11  and  C_55
    9  A    between atoms: N_12  and  C_19
   10  A    between atoms: N_12  and  C_61
   11  A    between atoms: C_16  and  C_44
   12  A    between atoms: C_19  and  C_35
   13  A    between atoms: C_24  and  N_59
   14  A    between atoms: C_25  and  C_47
   15  A    between atoms: O_27  and  C_28
   16  A    between atoms: O_27  and  C_47
   17  A    between atoms: C_28  and  N_42
   18  A    between atoms: C_30  and  O_48
   19  A    between atoms: C_36  and  C_47
   20  A    between atoms: C_37  and  S_45
   21  A    between atoms: C_37  and  C_58
   22  A    between atoms: C_44  and  C_49
   23  A    between atoms: O_48  and  C_60
   24  A    between atoms: C_57  and  C_61
                            x       y       z     vdW  Elec       q    Type
                         _______ _______ _______ _____ _____    ______ ____

>  <TORSDO>
F 24

$$$$
=
 OpenBabel10232410093D

 62 66  0  0  1  0  0  0  0  0999 V2000
  192.9530  176.2880  136.5270 C   0  0  0  0  0  0  0  0  0  0  0  0
  191.3520  176.3330  136.0030 S   0  0  0  0  0  0  0  0  0  0  0  0
  190.6830  176.4540  137.5450 C   0  0  0  0  0  0  0  0  0  0  0  0
  189.0550  176.8410  139.3190 N   0  0  0  0  0  0  0  0  0  0  0  0
  191.3930  176.3690  139.9450 C   0  0  0  0  0  2  0  0  0  0  0  0
  194.0890  176.1790  138.6630 F   0  0  0  0  0  0  0  0  0  0  0  0
  192.9670  176.3030  137.9210 C   0  0  0  0  0  0  0  0  0  0  0  0
  191.6950  176.4120  138.4830 C   0  0  0  0  0  0  0  0  0  0  0  0
  189.2400  176.3750  137.9400 C   0  0  1  0  0  3  0  0  0  0  0  0
  189.9860  176.8380  140.2380 C   0  0  0  0  0  0  0  0  0  0  0  0
  194.1140  176.0810  135.6170 C   0  0  0  0  0  2  0  0  0  0  0  0
  196.0750  177.2310  135.9030 N   0  0  0  0  0  1  0  0  0  0  0  0
  195.3790  176.0980  136.3440 N   0  0  0  0  0  0  0  0  0  0  0  0
  196.1670  174.9270  135.9450 C   0  0  0  0  0  3  0  0  0  0  0  0
  197.3960  175.3260  135.4010 O   0  0  0  0  0  0  0  0  0  0  0  0
  198.3660  174.8120  136.2710 C   0  0  0  0  0  1  0  0  0  0  0  0
  195.4590  174.1870  134.9900 O   0  0  0  0  0  0  0  0  0  0  0  0
  196.2990  173.1150  134.6720 C   0  0  0  0  0  1  0  0  0  0  0  0
  188.3600  177.1930  137.0080 C   0  0  0  0  0  2  0  0  0  0  0  0
  188.4840  176.5540  135.3280 S   0  0  0  0  0  0  0  0  0  0  0  0
  187.6850  174.2200  136.0760 F   0  0  0  0  0  0  0  0  0  0  0  0
  187.4470  175.3200  135.3050 C   0  0  2  0  0  3  0  0  0  0  0  0
  186.3000  175.3400  134.3470 C   0  0  0  0  0  2  0  0  0  0  0  0
  185.3350  176.4270  134.6990 C   0  0  0  0  0  0  0  0  0  0  0  0
  184.1430  176.1370  135.4540 N   0  0  0  0  0  0  0  0  0  0  0  0
  185.6050  177.6150  134.3650 O   0  0  0  0  0  0  0  0  0  0  0  0
  183.4860  177.2210  136.1860 C   0  0  1  0  0  3  0  0  0  0  0  0
  182.0660  177.4220  135.6930 C   0  0  0  0  0  1  0  0  0  0  0  0
  183.4940  176.9830  137.6940 C   0  0  0  0  0  2  0  0  0  0  0  0
  183.1710  178.2600  138.4520 C   0  0  0  0  0  2  0  0  0  0  0  0
  184.2710  179.1110  138.4350 O   0  0  0  0  0  1  0  0  0  0  0  0
  183.6610  174.7540  135.5310 C   0  0  0  0  0  2  0  0  0  0  0  0
  181.3900  172.4130  135.8350 C   0  0  1  0  0  3  0  0  0  0  0  0
  182.0310  173.3850  136.8100 C   0  0  0  0  0  2  0  0  0  0  0  0
  181.2330  174.6770  134.9190 C   0  0  0  0  0  2  0  0  0  0  0  0
  182.2330  174.6870  136.0650 C   0  0  2  0  0  3  0  0  0  0  0  0
  180.7140  173.2580  134.7750 C   0  0  0  0  0  2  0  0  0  0  0  0
  182.4140  171.5900  135.2060 N   0  0  0  0  0  2  0  0  0  0  0  0
  183.3370  170.7870  135.9520 C   0  0  0  0  0  0  0  0  0  0  0  0
  183.3470  170.8210  137.2110 O   0  0  0  0  0  0  0  0  0  0  0  0
  184.2660  169.8770  135.2300 C   0  0  0  0  0  2  0  0  0  0  0  0
  185.4680  170.6470  134.7040 C   0  0  0  0  0  2  0  0  0  0  0  0
  185.5840  171.9280  135.3930 N   0  0  0  0  0  1  0  0  0  0  0  0
  189.6960  177.2760  141.5300 O   0  0  0  0  0  0  0  0  0  0  0  0
  189.2300  176.7800  144.6860 C   0  0  1  0  0  3  0  0  0  0  0  0
  190.3490  176.7580  142.6820 C   0  0  1  0  0  3  0  0  0  0  0  0
  190.8720  177.8710  143.4940 C   0  0  0  0  0  0  0  0  0  0  0  0
  189.4090  176.0610  143.4740 O   0  0  0  0  0  0  0  0  0  0  0  0
  191.9010  178.6390  143.1500 C   0  0  0  0  0  2  0  0  0  0  0  0
  190.2020  177.9420  144.7860 C   0  0  0  0  0  2  0  0  0  0  0  0
  187.7760  177.2460  144.8500 C   0  0  1  0  0  3  0  0  0  0  0  0
  186.9830  178.5650  148.8680 C   0  0  0  0  0  3  0  0  0  0  0  0
  188.0190  177.6580  148.6160 C   0  0  0  0  0  3  0  0  0  0  0  0
  186.1890  179.0340  147.8180 C   0  0  0  0  0  3  0  0  0  0  0  0
  186.4280  178.5940  146.5140 C   0  0  0  0  0  3  0  0  0  0  0  0
  187.4600  177.6780  146.2550 C   0  0  0  0  0  0  0  0  0  0  0  0
  188.2590  177.2190  147.3120 C   0  0  0  0  0  3  0  0  0  0  0  0
  187.5010  178.2720  143.9410 O   0  0  0  0  0  0  0  0  0  0  0  0
  186.4370  177.7910  143.1740 C   0  0  0  0  0  2  0  0  0  0  0  0
  185.3370  178.7820  141.3700 C   0  0  0  0  0  1  0  0  0  0  0  0
  184.2880  178.6680  143.4460 C   0  0  0  0  0  1  0  0  0  0  0  0
  185.5670  178.8960  142.8000 N   0  0  0  0  0  0  0  0  0  0  0  0
  1  7  2  0  0  0  0
  2  1  1  0  0  0  0
  2  3  1  0  0  0  0
  3  9  1  0  0  0  0
  3  8  2  0  0  0  0
  4 10  2  0  0  0  0
  5 10  1  0  0  0  0
  7  8  1  0  0  0  0
  7  6  1  0  0  0  0
  8  5  1  0  0  0  0
  9 19  1  6  0  0  0
  9  4  1  0  0  0  0
 10 44  1  0  0  0  0
 11 13  1  0  0  0  0
 11  1  1  0  0  0  0
 12 13  1  0  0  0  0
 14 13  1  0  0  0  0
 15 14  1  0  0  0  0
 15 16  1  0  0  0  0
 17 14  1  0  0  0  0
 18 17  1  0  0  0  0
 20 19  1  0  0  0  0
 22 20  1  0  0  0  0
 22 21  1  6  0  0  0
 23 24  1  0  0  0  0
 23 22  1  0  0  0  0
 24 25  1  0  0  0  0
 25 32  1  0  0  0  0
 25 27  1  0  0  0  0
 26 24  2  0  0  0  0
 27 28  1  6  0  0  0
 27 29  1  0  0  0  0
 29 30  1  0  0  0  0
 31 30  1  0  0  0  0
 33 38  1  6  0  0  0
 33 34  1  0  0  0  0
 35 36  1  0  0  0  0
 36 32  1  6  0  0  0
 36 34  1  0  0  0  0
 37 35  1  0  0  0  0
 37 33  1  0  0  0  0
 38 39  1  0  0  0  0
 39 40  2  0  0  0  0
 41 39  1  0  0  0  0
 42 41  1  0  0  0  0
 42 43  1  0  0  0  0
 45 50  1  0  0  0  0
 45 51  1  6  0  0  0
 46 44  1  6  0  0  0
 46 48  1  0  0  0  0
 46 47  1  0  0  0  0
 47 50  1  0  0  0  0
 48 45  1  0  0  0  0
 49 47  2  0  0  0  0
 51 58  1  6  0  0  0
 51 56  1  0  0  0  0
 53 52  1  0  0  0  0
 54 52  2  0  0  0  0
 55 54  1  0  0  0  0
 56 55  2  0  0  0  0
 56 57  1  0  0  0  0
 57 53  2  0  0  0  0
 59 58  1  0  0  0  0
 60 62  1  0  0  0  0
 62 59  1  0  0  0  0
 62 61  1  0  0  0  0
M  END
>  <MODEL>
6

>  <REMARK>
 VINA RESULT:      -4.6      2.431      9.035
  Name = 
  24 active torsions:
  status: ('A' for Active; 'I' for Inactive)
    1  A    between atoms: C_1  and  C_24
    2  A    between atoms: C_2  and  N_8
    3  A    between atoms: C_3  and  C_11
    4  A    between atoms: O_6  and  C_10
    5  A    between atoms: C_7  and  C_57
    6  A    between atoms: C_10  and  O_20
    7  A    between atoms: C_10  and  N_59
    8  A    between atoms: C_11  and  C_55
    9  A    between atoms: N_12  and  C_19
   10  A    between atoms: N_12  and  C_61
   11  A    between atoms: C_16  and  C_44
   12  A    between atoms: C_19  and  C_35
   13  A    between atoms: C_24  and  N_59
   14  A    between atoms: C_25  and  C_47
   15  A    between atoms: O_27  and  C_28
   16  A    between atoms: O_27  and  C_47
   17  A    between atoms: C_28  and  N_42
   18  A    between atoms: C_30  and  O_48
   19  A    between atoms: C_36  and  C_47
   20  A    between atoms: C_37  and  S_45
   21  A    between atoms: C_37  and  C_58
   22  A    between atoms: C_44  and  C_49
   23  A    between atoms: O_48  and  C_60
   24  A    between atoms: C_57  and  C_61
                            x       y       z     vdW  Elec       q    Type
                         _______ _______ _______ _____ _____    ______ ____

>  <TORSDO>
F 24

$$$$
=
 OpenBabel10232410093D

 62 66  0  0  1  0  0  0  0  0999 V2000
  189.9250  177.9660  142.2840 C   0  0  0  0  0  0  0  0  0  0  0  0
  191.3140  177.3090  141.5920 S   0  0  0  0  0  0  0  0  0  0  0  0
  190.6770  177.1920  140.0370 C   0  0  0  0  0  0  0  0  0  0  0  0
  190.5600  176.9160  137.6160 N   0  0  0  0  0  0  0  0  0  0  0  0
  188.5000  177.5030  138.8370 C   0  0  0  0  0  2  0  0  0  0  0  0
  187.6620  178.4260  141.5560 F   0  0  0  0  0  0  0  0  0  0  0  0
  188.9310  178.0370  141.3090 C   0  0  0  0  0  0  0  0  0  0  0  0
  189.3630  177.6170  140.0510 C   0  0  0  0  0  0  0  0  0  0  0  0
  191.2740  176.5240  138.8360 C   0  0  1  0  0  3  0  0  0  0  0  0
  189.3230  177.3410  137.5800 C   0  0  0  0  0  0  0  0  0  0  0  0
  189.7780  178.2380  143.7410 C   0  0  0  0  0  2  0  0  0  0  0  0
  189.7280  175.9530  143.5900 N   0  0  0  0  0  1  0  0  0  0  0  0
  189.7050  177.0040  144.5160 N   0  0  0  0  0  0  0  0  0  0  0  0
  188.4060  176.9500  145.1940 C   0  0  0  0  0  3  0  0  0  0  0  0
  187.3840  176.6780  144.2730 O   0  0  0  0  0  0  0  0  0  0  0  0
  186.3980  177.6410  144.5250 C   0  0  0  0  0  1  0  0  0  0  0  0
  188.1490  178.1780  145.8180 O   0  0  0  0  0  0  0  0  0  0  0  0
  188.7450  178.0710  147.0790 C   0  0  0  0  0  1  0  0  0  0  0  0
  192.7500  176.8570  138.6870 C   0  0  0  0  0  2  0  0  0  0  0  0
  193.3650  176.2330  137.1120 S   0  0  0  0  0  0  0  0  0  0  0  0
  193.8480  173.9160  138.1330 F   0  0  0  0  0  0  0  0  0  0  0  0
  193.1440  174.6390  137.2150 C   0  0  2  0  0  3  0  0  0  0  0  0
  192.2650  173.9520  136.2210 C   0  0  0  0  0  2  0  0  0  0  0  0
  192.7870  172.5870  135.9060 C   0  0  0  0  0  0  0  0  0  0  0  0
  194.1650  172.2510  136.1500 N   0  0  0  0  0  0  0  0  0  0  0  0
  191.9860  171.7140  135.4660 O   0  0  0  0  0  0  0  0  0  0  0  0
  194.5370  170.8430  136.2990 C   0  0  1  0  0  3  0  0  0  0  0  0
  195.1600  170.3100  135.0240 C   0  0  0  0  0  1  0  0  0  0  0  0
  195.4770  170.6180  137.4810 C   0  0  0  0  0  2  0  0  0  0  0  0
  195.3190  169.2190  138.0500 C   0  0  0  0  0  2  0  0  0  0  0  0
  196.5460  168.5630  138.0420 O   0  0  0  0  0  1  0  0  0  0  0  0
  195.1480  173.3260  136.3170 C   0  0  0  0  0  2  0  0  0  0  0  0
  197.8690  174.9670  135.5230 C   0  0  1  0  0  3  0  0  0  0  0  0
  197.4170  173.5310  135.3290 C   0  0  0  0  0  2  0  0  0  0  0  0
  195.6500  174.9660  134.4910 C   0  0  0  0  0  2  0  0  0  0  0  0
  195.9340  173.5730  135.0320 C   0  0  2  0  0  3  0  0  0  0  0  0
  196.8560  175.8330  134.8030 C   0  0  0  0  0  2  0  0  0  0  0  0
  197.8620  175.3050  136.9400 N   0  0  0  0  0  2  0  0  0  0  0  0
  198.6260  174.5870  137.9170 C   0  0  0  0  0  0  0  0  0  0  0  0
  199.2890  173.5670  137.5910 O   0  0  0  0  0  0  0  0  0  0  0  0
  198.6650  175.0760  139.3210 C   0  0  0  0  0  2  0  0  0  0  0  0
  197.2570  175.1720  139.8930 C   0  0  0  0  0  2  0  0  0  0  0  0
  196.5020  173.9670  139.5690 N   0  0  0  0  0  1  0  0  0  0  0  0
  188.7280  177.6620  136.3600 O   0  0  0  0  0  0  0  0  0  0  0  0
  185.9170  176.3540  135.4610 C   0  0  1  0  0  3  0  0  0  0  0  0
  188.1890  176.6790  135.4860 C   0  0  1  0  0  3  0  0  0  0  0  0
  187.8860  175.4550  136.2490 C   0  0  0  0  0  0  0  0  0  0  0  0
  186.9730  177.1540  134.9480 O   0  0  0  0  0  0  0  0  0  0  0  0
  188.8010  174.6310  136.7510 C   0  0  0  0  0  2  0  0  0  0  0  0
  186.4540  175.1880  136.2730 C   0  0  0  0  0  2  0  0  0  0  0  0
  184.9220  177.1950  136.2740 C   0  0  1  0  0  3  0  0  0  0  0  0
  180.8700  176.0160  135.4380 C   0  0  0  0  0  3  0  0  0  0  0  0
  181.4930  176.9970  134.6580 C   0  0  0  0  0  3  0  0  0  0  0  0
  181.5550  175.4260  136.5040 C   0  0  0  0  0  3  0  0  0  0  0  0
  182.8630  175.8190  136.7930 C   0  0  0  0  0  3  0  0  0  0  0  0
  183.4920  176.8090  136.0200 C   0  0  0  0  0  0  0  0  0  0  0  0
  182.8020  177.3900  134.9470 C   0  0  0  0  0  3  0  0  0  0  0  0
  185.2270  177.1050  137.6370 O   0  0  0  0  0  0  0  0  0  0  0  0
  185.1960  178.4250  138.0950 C   0  0  0  0  0  2  0  0  0  0  0  0
  183.7160  177.2090  139.4280 C   0  0  0  0  0  1  0  0  0  0  0  0
  184.9040  178.9910  140.3440 C   0  0  0  0  0  1  0  0  0  0  0  0
  184.2030  178.5500  139.1520 N   0  0  0  0  0  0  0  0  0  0  0  0
  1 11  1  0  0  0  0
  2  1  1  0  0  0  0
  3  8  2  0  0  0  0
  3  2  1  0  0  0  0
  4  9  1  0  0  0  0
  5  8  1  0  0  0  0
  7  6  1  0  0  0  0
  7  1  2  0  0  0  0
  8  7  1  0  0  0  0
  9 19  1  6  0  0  0
  9  3  1  0  0  0  0
 10  4  2  0  0  0  0
 10  5  1  0  0  0  0
 11 13  1  0  0  0  0
 12 13  1  0  0  0  0
 13 14  1  0  0  0  0
 14 17  1  0  0  0  0
 15 16  1  0  0  0  0
 15 14  1  0  0  0  0
 17 18  1  0  0  0  0
 20 22  1  0  0  0  0
 20 19  1  0  0  0  0
 22 21  1  6  0  0  0
 23 22  1  0  0  0  0
 24 25  1  0  0  0  0
 24 23  1  0  0  0  0
 25 27  1  0  0  0  0
 25 32  1  0  0  0  0
 26 24  2  0  0  0  0
 27 28  1  6  0  0  0
 27 29  1  0  0  0  0
 29 30  1  0  0  0  0
 31 30  1  0  0  0  0
 33 38  1  1  0  0  0
 34 33  1  0  0  0  0
 35 37  1  0  0  0  0
 35 36  1  0  0  0  0
 36 34  1  0  0  0  0
 36 32  1  1  0  0  0
 37 33  1  0  0  0  0
 38 39  1  0  0  0  0
 39 41  1  0  0  0  0
 40 39  2  0  0  0  0
 41 42  1  0  0  0  0
 43 42  1  0  0  0  0
 44 10  1  0  0  0  0
 45 50  1  0  0  0  0
 45 51  1  1  0  0  0
 46 47  1  0  0  0  0
 46 44  1  1  0  0  0
 47 50  1  0  0  0  0
 47 49  2  0  0  0  0
 48 45  1  0  0  0  0
 48 46  1  0  0  0  0
 51 58  1  1  0  0  0
 52 54  1  0  0  0  0
 53 57  1  0  0  0  0
 53 52  2  0  0  0  0
 54 55  2  0  0  0  0
 56 51  1  0  0  0  0
 56 55  1  0  0  0  0
 57 56  2  0  0  0  0
 58 59  1  0  0  0  0
 59 62  1  0  0  0  0
 62 60  1  0  0  0  0
 62 61  1  0  0  0  0
M  END
>  <MODEL>
7

>  <REMARK>
 VINA RESULT:      -4.6      2.350      9.723
  Name = 
  24 active torsions:
  status: ('A' for Active; 'I' for Inactive)
    1  A    between atoms: C_1  and  C_24
    2  A    between atoms: C_2  and  N_8
    3  A    between atoms: C_3  and  C_11
    4  A    between atoms: O_6  and  C_10
    5  A    between atoms: C_7  and  C_57
    6  A    between atoms: C_10  and  O_20
    7  A    between atoms: C_10  and  N_59
    8  A    between atoms: C_11  and  C_55
    9  A    between atoms: N_12  and  C_19
   10  A    between atoms: N_12  and  C_61
   11  A    between atoms: C_16  and  C_44
   12  A    between atoms: C_19  and  C_35
   13  A    between atoms: C_24  and  N_59
   14  A    between atoms: C_25  and  C_47
   15  A    between atoms: O_27  and  C_28
   16  A    between atoms: O_27  and  C_47
   17  A    between atoms: C_28  and  N_42
   18  A    between atoms: C_30  and  O_48
   19  A    between atoms: C_36  and  C_47
   20  A    between atoms: C_37  and  S_45
   21  A    between atoms: C_37  and  C_58
   22  A    between atoms: C_44  and  C_49
   23  A    between atoms: O_48  and  C_60
   24  A    between atoms: C_57  and  C_61
                            x       y       z     vdW  Elec       q    Type
                         _______ _______ _______ _____ _____    ______ ____

>  <TORSDO>
F 24

$$$$
=
 OpenBabel10232410093D

 62 66  0  0  1  0  0  0  0  0999 V2000
  186.3230  176.8230  135.9620 C   0  0  0  0  0  0  0  0  0  0  0  0
  186.8960  177.7520  137.2470 S   0  0  0  0  0  0  0  0  0  0  0  0
  188.2090  176.7530  137.5910 C   0  0  0  0  0  0  0  0  0  0  0  0
  190.3280  175.9830  138.5200 N   0  0  0  0  0  0  0  0  0  0  0  0
  189.1570  174.5400  136.9000 C   0  0  0  0  0  2  0  0  0  0  0  0
  186.8780  174.6870  134.9670 F   0  0  0  0  0  0  0  0  0  0  0  0
  187.1230  175.6890  135.8390 C   0  0  0  0  0  0  0  0  0  0  0  0
  188.1860  175.6640  136.7420 C   0  0  0  0  0  0  0  0  0  0  0  0
  189.1480  176.8220  138.7560 C   0  0  1  0  0  3  0  0  0  0  0  0
  190.3610  174.9530  137.7150 C   0  0  0  0  0  0  0  0  0  0  0  0
  185.0580  177.1170  135.2310 C   0  0  0  0  0  2  0  0  0  0  0  0
  183.5360  175.5180  134.6210 N   0  0  0  0  0  1  0  0  0  0  0  0
  183.9530  176.2930  135.7110 N   0  0  0  0  0  0  0  0  0  0  0  0
  182.8340  177.1690  136.0700 C   0  0  0  0  0  3  0  0  0  0  0  0
  182.5440  178.0490  135.0170 O   0  0  0  0  0  0  0  0  0  0  0  0
  181.2230  177.7600  134.6520 C   0  0  0  0  0  1  0  0  0  0  0  0
  183.1640  177.9100  137.2120 O   0  0  0  0  0  0  0  0  0  0  0  0
  181.9380  178.1920  137.8220 C   0  0  0  0  0  1  0  0  0  0  0  0
  189.5920  178.2500  139.0320 C   0  0  0  0  0  2  0  0  0  0  0  0
  188.3320  179.1090  139.9930 S   0  0  0  0  0  0  0  0  0  0  0  0
  186.9430  176.9520  140.2400 F   0  0  0  0  0  0  0  0  0  0  0  0
  187.6460  177.9400  140.8660 C   0  0  2  0  0  3  0  0  0  0  0  0
  187.6820  178.0180  142.3570 C   0  0  0  0  0  2  0  0  0  0  0  0
  186.3480  178.4180  142.9000 C   0  0  0  0  0  0  0  0  0  0  0  0
  186.0540  178.2840  144.3030 N   0  0  0  0  0  0  0  0  0  0  0  0
  185.4960  178.9230  142.1150 O   0  0  0  0  0  0  0  0  0  0  0  0
  184.9830  179.0950  144.8850 C   0  0  1  0  0  3  0  0  0  0  0  0
  184.9290  180.4650  144.2370 C   0  0  0  0  0  1  0  0  0  0  0  0
  183.6230  178.4090  144.7850 C   0  0  0  0  0  2  0  0  0  0  0  0
  182.9110  178.7870  143.4970 C   0  0  0  0  0  2  0  0  0  0  0  0
  181.6530  179.3060  143.7870 O   0  0  0  0  0  1  0  0  0  0  0  0
  186.8790  177.3960  145.1280 C   0  0  0  0  0  2  0  0  0  0  0  0
  189.7620  177.5260  146.6780 C   0  0  1  0  0  3  0  0  0  0  0  0
  188.8370  178.5800  146.0950 C   0  0  0  0  0  2  0  0  0  0  0  0
  187.5010  177.1640  147.5430 C   0  0  0  0  0  2  0  0  0  0  0  0
  187.4200  178.1170  146.3600 C   0  0  2  0  0  3  0  0  0  0  0  0
  188.9610  176.7940  147.7350 C   0  0  0  0  0  2  0  0  0  0  0  0
  190.1570  176.5820  145.6410 N   0  0  0  0  0  2  0  0  0  0  0  0
  191.1350  176.8870  144.6400 C   0  0  0  0  0  0  0  0  0  0  0  0
  191.6470  178.0340  144.5700 O   0  0  0  0  0  0  0  0  0  0  0  0
  191.5750  175.8230  143.6980 C   0  0  0  0  0  2  0  0  0  0  0  0
  191.2470  176.2100  142.2630 C   0  0  0  0  0  2  0  0  0  0  0  0
  191.2840  177.6610  142.1140 N   0  0  0  0  0  1  0  0  0  0  0  0
  191.5300  174.2020  137.5850 O   0  0  0  0  0  0  0  0  0  0  0  0
  194.1480  172.9090  136.2090 C   0  0  1  0  0  3  0  0  0  0  0  0
  192.0130  173.7440  136.3290 C   0  0  1  0  0  3  0  0  0  0  0  0
  192.8820  174.7730  135.7310 C   0  0  0  0  0  0  0  0  0  0  0  0
  192.8010  172.5890  136.5290 O   0  0  0  0  0  0  0  0  0  0  0  0
  192.4530  175.9330  135.2400 C   0  0  0  0  0  2  0  0  0  0  0  0
  194.2580  174.3060  135.6240 C   0  0  0  0  0  2  0  0  0  0  0  0
  195.0690  172.7330  137.4250 C   0  0  1  0  0  3  0  0  0  0  0  0
  197.0130  168.8960  137.3430 C   0  0  0  0  0  3  0  0  0  0  0  0
  195.8520  169.0810  138.1020 C   0  0  0  0  0  3  0  0  0  0  0  0
  197.5580  169.9620  136.6210 C   0  0  0  0  0  3  0  0  0  0  0  0
  196.9430  171.2140  136.6590 C   0  0  0  0  0  3  0  0  0  0  0  0
  195.7820  171.4100  137.4260 C   0  0  0  0  0  0  0  0  0  0  0  0
  195.2360  170.3340  138.1400 C   0  0  0  0  0  3  0  0  0  0  0  0
  195.9820  173.7910  137.4850 O   0  0  0  0  0  0  0  0  0  0  0  0
  196.2980  173.9100  138.8410 C   0  0  0  0  0  2  0  0  0  0  0  0
  197.3150  175.2380  140.4680 C   0  0  0  0  0  1  0  0  0  0  0  0
  198.5040  174.6290  138.5600 C   0  0  0  0  0  1  0  0  0  0  0  0
  197.1950  175.0400  139.0340 N   0  0  0  0  0  0  0  0  0  0  0  0
  1  2  1  0  0  0  0
  2  3  1  0  0  0  0
  3  9  1  0  0  0  0
  4  9  1  0  0  0  0
  5 10  1  0  0  0  0
  6  7  1  0  0  0  0
  7  1  2  0  0  0  0
  7  8  1  0  0  0  0
  8  5  1  0  0  0  0
  8  3  2  0  0  0  0
  9 19  1  6  0  0  0
 10  4  2  0  0  0  0
 11 13  1  0  0  0  0
 11  1  1  0  0  0  0
 12 13  1  0  0  0  0
 13 14  1  0  0  0  0
 14 17  1  0  0  0  0
 15 14  1  0  0  0  0
 16 15  1  0  0  0  0
 17 18  1  0  0  0  0
 19 20  1  0  0  0  0
 20 22  1  0  0  0  0
 22 21  1  6  0  0  0
 22 23  1  0  0  0  0
 23 24  1  0  0  0  0
 24 25  1  0  0  0  0
 25 27  1  0  0  0  0
 25 32  1  0  0  0  0
 26 24  2  0  0  0  0
 27 28  1  6  0  0  0
 29 27  1  0  0  0  0
 30 31  1  0  0  0  0
 30 29  1  0  0  0  0
 33 38  1  6  0  0  0
 33 37  1  0  0  0  0
 34 36  1  0  0  0  0
 34 33  1  0  0  0  0
 35 37  1  0  0  0  0
 36 32  1  6  0  0  0
 36 35  1  0  0  0  0
 39 38  1  0  0  0  0
 40 39  2  0  0  0  0
 41 39  1  0  0  0  0
 42 41  1  0  0  0  0
 43 42  1  0  0  0  0
 44 10  1  0  0  0  0
 45 48  1  0  0  0  0
 45 51  1  1  0  0  0
 46 48  1  0  0  0  0
 46 44  1  1  0  0  0
 47 46  1  0  0  0  0
 49 47  2  0  0  0  0
 50 47  1  0  0  0  0
 50 45  1  0  0  0  0
 51 56  1  0  0  0  0
 51 58  1  6  0  0  0
 52 53  1  0  0  0  0
 53 57  2  0  0  0  0
 54 55  1  0  0  0  0
 54 52  2  0  0  0  0
 55 56  2  0  0  0  0
 56 57  1  0  0  0  0
 58 59  1  0  0  0  0
 59 62  1  0  0  0  0
 61 62  1  0  0  0  0
 62 60  1  0  0  0  0
M  END
>  <MODEL>
8

>  <REMARK>
 VINA RESULT:      -4.4      2.786      9.510
  Name = 
  24 active torsions:
  status: ('A' for Active; 'I' for Inactive)
    1  A    between atoms: C_1  and  C_24
    2  A    between atoms: C_2  and  N_8
    3  A    between atoms: C_3  and  C_11
    4  A    between atoms: O_6  and  C_10
    5  A    between atoms: C_7  and  C_57
    6  A    between atoms: C_10  and  O_20
    7  A    between atoms: C_10  and  N_59
    8  A    between atoms: C_11  and  C_55
    9  A    between atoms: N_12  and  C_19
   10  A    between atoms: N_12  and  C_61
   11  A    between atoms: C_16  and  C_44
   12  A    between atoms: C_19  and  C_35
   13  A    between atoms: C_24  and  N_59
   14  A    between atoms: C_25  and  C_47
   15  A    between atoms: O_27  and  C_28
   16  A    between atoms: O_27  and  C_47
   17  A    between atoms: C_28  and  N_42
   18  A    between atoms: C_30  and  O_48
   19  A    between atoms: C_36  and  C_47
   20  A    between atoms: C_37  and  S_45
   21  A    between atoms: C_37  and  C_58
   22  A    between atoms: C_44  and  C_49
   23  A    between atoms: O_48  and  C_60
   24  A    between atoms: C_57  and  C_61
                            x       y       z     vdW  Elec       q    Type
                         _______ _______ _______ _____ _____    ______ ____

>  <TORSDO>
F 24

$$$$
=
 OpenBabel10232410093D

 62 66  0  0  1  0  0  0  0  0999 V2000
  190.7780  177.7770  144.1050 C   0  0  0  0  0  0  0  0  0  0  0  0
  189.2620  178.4640  143.8440 S   0  0  0  0  0  0  0  0  0  0  0  0
  189.2170  178.1280  142.1930 C   0  0  0  0  0  0  0  0  0  0  0  0
  188.3520  177.8270  139.9330 N   0  0  0  0  0  0  0  0  0  0  0  0
  190.7000  177.2260  140.3880 C   0  0  0  0  0  2  0  0  0  0  0  0
  192.5250  176.8250  142.7240 F   0  0  0  0  0  0  0  0  0  0  0  0
  191.2850  177.3380  142.8830 C   0  0  0  0  0  0  0  0  0  0  0  0
  190.4000  177.5220  141.8210 C   0  0  0  0  0  0  0  0  0  0  0  0
  188.2160  178.5900  141.1780 C   0  0  1  0  0  3  0  0  0  0  0  0
  189.4450  177.2220  139.5440 C   0  0  0  0  0  0  0  0  0  0  0  0
  191.4920  177.8230  145.4110 C   0  0  0  0  0  2  0  0  0  0  0  0
  191.4210  175.5910  144.9000 N   0  0  0  0  0  1  0  0  0  0  0  0
  191.9600  176.5020  145.8180 N   0  0  0  0  0  0  0  0  0  0  0  0
  191.3870  176.1820  147.1280 C   0  0  0  0  0  3  0  0  0  0  0  0
  190.0040  176.4150  147.1280 O   0  0  0  0  0  0  0  0  0  0  0  0
  189.8440  177.6700  147.7290 C   0  0  0  0  0  1  0  0  0  0  0  0
  191.9880  176.9770  148.1120 O   0  0  0  0  0  0  0  0  0  0  0  0
  192.7970  176.0980  148.8390 C   0  0  0  0  0  1  0  0  0  0  0  0
  186.7930  178.4600  141.6970 C   0  0  0  0  0  2  0  0  0  0  0  0
  185.7710  177.6080  140.4820 S   0  0  0  0  0  0  0  0  0  0  0  0
  184.1600  179.6120  140.3180 F   0  0  0  0  0  0  0  0  0  0  0  0
  185.0500  178.8030  139.6750 C   0  0  2  0  0  3  0  0  0  0  0  0
  185.2690  178.9340  138.2040 C   0  0  0  0  0  2  0  0  0  0  0  0
  184.7540  177.7310  137.4810 C   0  0  0  0  0  0  0  0  0  0  0  0
  183.4900  177.1420  137.8390 N   0  0  0  0  0  0  0  0  0  0  0  0
  185.4230  177.2660  136.5150 O   0  0  0  0  0  0  0  0  0  0  0  0
  182.7900  176.3110  136.8580 C   0  0  1  0  0  3  0  0  0  0  0  0
  182.4600  177.1070  135.6110 C   0  0  0  0  0  1  0  0  0  0  0  0
  183.5860  175.0610  136.4920 C   0  0  0  0  0  2  0  0  0  0  0  0
  183.1320  173.8630  137.3080 C   0  0  0  0  0  2  0  0  0  0  0  0
  181.7720  173.9650  137.5840 O   0  0  0  0  0  1  0  0  0  0  0  0
  182.9000  177.4470  139.1470 C   0  0  0  0  0  2  0  0  0  0  0  0
  180.5340  178.3240  141.2350 C   0  0  1  0  0  3  0  0  0  0  0  0
  181.1070  178.9510  139.9770 C   0  0  0  0  0  2  0  0  0  0  0  0
  180.5450  176.6510  139.4480 C   0  0  0  0  0  2  0  0  0  0  0  0
  181.4250  177.8170  139.0250 C   0  0  2  0  0  3  0  0  0  0  0  0
  179.9950  176.9680  140.8270 C   0  0  0  0  0  2  0  0  0  0  0  0
  181.5870  178.1400  142.2240 N   0  0  0  0  0  2  0  0  0  0  0  0
  181.8720  179.0990  143.2490 C   0  0  0  0  0  0  0  0  0  0  0  0
  181.2570  180.1970  143.2890 O   0  0  0  0  0  0  0  0  0  0  0  0
  182.8770  178.7760  144.2970 C   0  0  0  0  0  2  0  0  0  0  0  0
  184.1210  179.6360  144.1280 C   0  0  0  0  0  2  0  0  0  0  0  0
  185.0640  179.3710  145.2100 N   0  0  0  0  0  1  0  0  0  0  0  0
  189.4770  176.5460  138.3250 O   0  0  0  0  0  0  0  0  0  0  0  0
  188.7710  175.6850  135.2950 C   0  0  1  0  0  3  0  0  0  0  0  0
  188.4890  176.7290  137.3190 C   0  0  1  0  0  3  0  0  0  0  0  0
  188.9590  177.7280  136.3430 C   0  0  0  0  0  0  0  0  0  0  0  0
  188.3030  175.5130  136.6250 O   0  0  0  0  0  0  0  0  0  0  0  0
  189.0730  179.0300  136.5890 C   0  0  0  0  0  2  0  0  0  0  0  0
  189.1580  177.1300  135.0300 C   0  0  0  0  0  2  0  0  0  0  0  0
  189.9270  174.7250  134.9800 C   0  0  1  0  0  3  0  0  0  0  0  0
  193.8160  176.2250  136.0470 C   0  0  0  0  0  3  0  0  0  0  0  0
  192.9370  175.7780  137.0400 C   0  0  0  0  0  3  0  0  0  0  0  0
  193.4290  176.2030  134.7040 C   0  0  0  0  0  3  0  0  0  0  0  0
  192.1610  175.7360  134.3530 C   0  0  0  0  0  3  0  0  0  0  0  0
  191.2700  175.2940  135.3450 C   0  0  0  0  0  0  0  0  0  0  0  0
  191.6680  175.3110  136.6890 C   0  0  0  0  0  3  0  0  0  0  0  0
  189.7150  173.5010  135.6210 O   0  0  0  0  0  0  0  0  0  0  0  0
  188.6070  172.9470  134.9730 C   0  0  0  0  0  2  0  0  0  0  0  0
  186.4550  172.5130  135.7640 C   0  0  0  0  0  1  0  0  0  0  0  0
  187.9550  170.7570  135.4630 C   0  0  0  0  0  1  0  0  0  0  0  0
  187.8500  172.1330  135.9120 N   0  0  0  0  0  0  0  0  0  0  0  0
  1 11  1  0  0  0  0
  2  1  1  0  0  0  0
  3  2  1  0  0  0  0
  4  9  1  0  0  0  0
  5  8  1  0  0  0  0
  6  7  1  0  0  0  0
  7  1  2  0  0  0  0
  8  3  2  0  0  0  0
  8  7  1  0  0  0  0
  9 19  1  1  0  0  0
  9  3  1  0  0  0  0
 10  4  2  0  0  0  0
 10  5  1  0  0  0  0
 11 13  1  0  0  0  0
 12 13  1  0  0  0  0
 13 14  1  0  0  0  0
 14 15  1  0  0  0  0
 14 17  1  0  0  0  0
 15 16  1  0  0  0  0
 17 18  1  0  0  0  0
 20 19  1  0  0  0  0
 22 21  1  6  0  0  0
 22 20  1  0  0  0  0
 23 22  1  0  0  0  0
 24 25  1  0  0  0  0
 24 23  1  0  0  0  0
 25 32  1  0  0  0  0
 26 24  2  0  0  0  0
 27 28  1  6  0  0  0
 27 25  1  0  0  0  0
 29 27  1  0  0  0  0
 29 30  1  0  0  0  0
 30 31  1  0  0  0  0
 33 38  1  1  0  0  0
 34 33  1  0  0  0  0
 35 37  1  0  0  0  0
 36 32  1  1  0  0  0
 36 35  1  0  0  0  0
 36 34  1  0  0  0  0
 37 33  1  0  0  0  0
 38 39  1  0  0  0  0
 39 40  2  0  0  0  0
 39 41  1  0  0  0  0
 42 41  1  0  0  0  0
 42 43  1  0  0  0  0
 44 10  1  0  0  0  0
 45 51  1  1  0  0  0
 45 48  1  0  0  0  0
 46 44  1  1  0  0  0
 47 49  2  0  0  0  0
 47 46  1  0  0  0  0
 48 46  1  0  0  0  0
 50 45  1  0  0  0  0
 50 47  1  0  0  0  0
 51 56  1  0  0  0  0
 51 58  1  1  0  0  0
 52 53  1  0  0  0  0
 54 52  2  0  0  0  0
 55 54  1  0  0  0  0
 55 56  2  0  0  0  0
 56 57  1  0  0  0  0
 57 53  2  0  0  0  0
 59 58  1  0  0  0  0
 59 62  1  0  0  0  0
 60 62  1  0  0  0  0
 61 62  1  0  0  0  0
M  END
>  <MODEL>
9

>  <REMARK>
 VINA RESULT:      -4.4      3.482      8.496
  Name = 
  24 active torsions:
  status: ('A' for Active; 'I' for Inactive)
    1  A    between atoms: C_1  and  C_24
    2  A    between atoms: C_2  and  N_8
    3  A    between atoms: C_3  and  C_11
    4  A    between atoms: O_6  and  C_10
    5  A    between atoms: C_7  and  C_57
    6  A    between atoms: C_10  and  O_20
    7  A    between atoms: C_10  and  N_59
    8  A    between atoms: C_11  and  C_55
    9  A    between atoms: N_12  and  C_19
   10  A    between atoms: N_12  and  C_61
   11  A    between atoms: C_16  and  C_44
   12  A    between atoms: C_19  and  C_35
   13  A    between atoms: C_24  and  N_59
   14  A    between atoms: C_25  and  C_47
   15  A    between atoms: O_27  and  C_28
   16  A    between atoms: O_27  and  C_47
   17  A    between atoms: C_28  and  N_42
   18  A    between atoms: C_30  and  O_48
   19  A    between atoms: C_36  and  C_47
   20  A    between atoms: C_37  and  S_45
   21  A    between atoms: C_37  and  C_58
   22  A    between atoms: C_44  and  C_49
   23  A    between atoms: O_48  and  C_60
   24  A    between atoms: C_57  and  C_61
                            x       y       z     vdW  Elec       q    Type
                         _______ _______ _______ _____ _____    ______ ____

>  <TORSDO>
F 24

$$$$
