=
 OpenBabel10232409073D

 28 30  0  0  1  0  0  0  0  0999 V2000
  190.8210  177.0320  140.7690 C   0  0  0  0  0  0  0  0  0  0  0  0
  188.7340  176.2950  141.7860 O   0  0  0  0  0  0  0  0  0  0  0  0
  188.1820  176.8520  142.9550 C   0  0  1  0  0  3  0  0  0  0  0  0
  189.2510  177.8720  145.0690 C   0  0  0  0  0  1  0  0  0  0  0  0
  190.5320  176.7450  143.2480 C   0  0  1  0  0  3  0  0  0  0  0  0
  191.8920  177.6660  140.9730 O   0  0  0  0  0  0  0  0  0  0  0  0
  191.3270  175.6660  143.6350 O   0  0  0  0  0  1  0  0  0  0  0  0
  190.0660  176.5490  141.8920 N   0  0  0  0  0  0  0  0  0  0  0  0
  189.2620  176.7500  144.0400 C   0  0  2  0  0  3  0  0  0  0  0  0
  190.8340  175.6490  138.7440 N   0  0  0  0  0  0  0  0  0  0  0  0
  189.1590  177.3230  137.3980 N   0  0  0  0  0  0  0  0  0  0  0  0
  190.3710  176.7610  139.3810 C   0  0  0  0  0  0  0  0  0  0  0  0
  188.9630  178.7960  139.2810 N   0  0  0  0  0  1  0  0  0  0  0  0
  190.4850  175.3560  137.4650 C   0  0  0  0  0  3  0  0  0  0  0  0
  189.5040  177.6250  138.6770 C   0  0  0  0  0  0  0  0  0  0  0  0
  189.6290  176.2120  136.7770 C   0  0  0  0  0  3  0  0  0  0  0  0
  187.7100  178.2890  142.6830 C   0  0  0  0  0  2  0  0  0  0  0  0
  186.1160  179.5430  141.4030 O   0  0  0  0  0  1  0  0  0  0  0  0
  186.2820  178.3660  142.1390 C   0  0  2  0  0  3  0  0  0  0  0  0
  185.6180  179.0920  144.4820 C   0  0  0  0  0  2  0  0  0  0  0  0
  183.2780  179.0320  145.2000 N   0  0  0  0  0  2  0  0  0  0  0  0
  184.6520  178.7770  145.6170 C   0  0  0  0  0  2  0  0  0  0  0  0
  181.6610  179.0030  143.5310 O   0  0  0  0  0  0  0  0  0  0  0  0
  182.8730  178.8580  143.8400 C   0  0  0  0  0  0  0  0  0  0  0  0
  183.8630  178.5840  142.8300 N   0  0  0  0  0  0  0  0  0  0  0  0
  185.2350  178.2490  143.2630 C   0  0  1  0  0  3  0  0  0  0  0  0
  183.1330  177.4890  140.7660 C   0  0  0  0  0  1  0  0  0  0  0  0
  183.5250  178.7990  141.4230 C   0  0  0  0  0  2  0  0  0  0  0  0
  1  6  2  0  0  0  0
  1  8  1  0  0  0  0
  2  8  1  0  0  0  0
  2  3  1  0  0  0  0
  3 17  1  6  0  0  0
  3  9  1  0  0  0  0
  5  7  1  1  0  0  0
  5  9  1  0  0  0  0
  8  5  1  0  0  0  0
  9  4  1  1  0  0  0
 10 12  1  0  0  0  0
 11 15  1  0  0  0  0
 12  1  1  0  0  0  0
 14 10  2  0  0  0  0
 15 13  1  0  0  0  0
 15 12  2  0  0  0  0
 16 11  2  0  0  0  0
 16 14  1  0  0  0  0
 19 18  1  1  0  0  0
 19 17  1  0  0  0  0
 20 22  1  0  0  0  0
 21 22  1  0  0  0  0
 23 24  2  0  0  0  0
 24 21  1  0  0  0  0
 25 26  1  0  0  0  0
 25 24  1  0  0  0  0
 26 19  1  6  0  0  0
 26 20  1  0  0  0  0
 27 28  1  0  0  0  0
 28 25  1  0  0  0  0
M  END
>  <MODEL>
1

>  <REMARK>
 VINA RESULT:      -8.1      0.000      0.000
  Name = 
  5 active torsions:
  status: ('A' for Active; 'I' for Inactive)
    1  A    between atoms: C_1  and  C_13
    2  A    between atoms: C_1  and  C_28
    3  A    between atoms: C_3  and  C_11
    4  A    between atoms: N_21  and  C_23
    5  A    between atoms: C_25  and  C_28
                            x       y       z     vdW  Elec       q    Type
                         _______ _______ _______ _____ _____    ______ ____

>  <TORSDO>
F 5

$$$$
=
 OpenBabel10232409073D

 28 30  0  0  1  0  0  0  0  0999 V2000
  189.3590  178.0340  143.9490 C   0  0  0  0  0  0  0  0  0  0  0  0
  187.1780  176.9660  144.1310 O   0  0  0  0  0  0  0  0  0  0  0  0
  186.1270  177.4420  144.9380 C   0  0  1  0  0  3  0  0  0  0  0  0
  186.0950  178.6770  147.2030 C   0  0  0  0  0  1  0  0  0  0  0  0
  188.1510  177.7530  146.1330 C   0  0  1  0  0  3  0  0  0  0  0  0
  190.1510  178.8490  144.4980 O   0  0  0  0  0  0  0  0  0  0  0  0
  188.8790  176.8370  146.8930 O   0  0  0  0  0  1  0  0  0  0  0  0
  188.3010  177.4500  144.7260 N   0  0  0  0  0  0  0  0  0  0  0  0
  186.6850  177.5530  146.3620 C   0  0  2  0  0  3  0  0  0  0  0  0
  188.8590  178.3370  141.5670 N   0  0  0  0  0  0  0  0  0  0  0  0
  190.4990  176.3020  140.8000 N   0  0  0  0  0  0  0  0  0  0  0  0
  189.5490  177.6600  142.5260 C   0  0  0  0  0  0  0  0  0  0  0  0
  191.1670  175.8620  143.0620 N   0  0  0  0  0  1  0  0  0  0  0  0
  188.9650  178.0270  140.2490 C   0  0  0  0  0  3  0  0  0  0  0  0
  190.3970  176.6040  142.1210 C   0  0  0  0  0  0  0  0  0  0  0  0
  189.8030  176.9870  139.8580 C   0  0  0  0  0  3  0  0  0  0  0  0
  185.5920  178.7690  144.3780 C   0  0  0  0  0  2  0  0  0  0  0  0
  185.5290  179.8590  142.2420 O   0  0  0  0  0  1  0  0  0  0  0  0
  185.1730  178.6820  142.9080 C   0  0  2  0  0  3  0  0  0  0  0  0
  182.8110  179.3990  143.5100 C   0  0  0  0  0  2  0  0  0  0  0  0
  180.9080  178.7570  142.1100 N   0  0  0  0  0  2  0  0  0  0  0  0
  181.3620  178.9300  143.4850 C   0  0  0  0  0  2  0  0  0  0  0  0
  181.3710  178.1340  139.9190 O   0  0  0  0  0  0  0  0  0  0  0  0
  181.8130  178.3580  141.0770 C   0  0  0  0  0  0  0  0  0  0  0  0
  183.2240  178.2820  141.3540 N   0  0  0  0  0  0  0  0  0  0  0  0
  183.6700  178.3790  142.7590 C   0  0  1  0  0  3  0  0  0  0  0  0
  184.0070  179.5180  139.3910 C   0  0  0  0  0  1  0  0  0  0  0  0
  184.1710  178.2700  140.2390 C   0  0  0  0  0  2  0  0  0  0  0  0
  1  6  2  0  0  0  0
  1  8  1  0  0  0  0
  2  8  1  0  0  0  0
  2  3  1  0  0  0  0
  3 17  1  6  0  0  0
  3  9  1  0  0  0  0
  5  9  1  0  0  0  0
  5  7  1  1  0  0  0
  8  5  1  0  0  0  0
  9  4  1  6  0  0  0
 10 12  1  0  0  0  0
 11 15  1  0  0  0  0
 12  1  1  0  0  0  0
 14 10  2  0  0  0  0
 15 12  2  0  0  0  0
 15 13  1  0  0  0  0
 16 14  1  0  0  0  0
 16 11  2  0  0  0  0
 19 18  1  6  0  0  0
 19 17  1  0  0  0  0
 21 22  1  0  0  0  0
 22 20  1  0  0  0  0
 23 24  2  0  0  0  0
 24 25  1  0  0  0  0
 24 21  1  0  0  0  0
 25 26  1  0  0  0  0
 26 19  1  6  0  0  0
 26 20  1  0  0  0  0
 27 28  1  0  0  0  0
 28 25  1  0  0  0  0
M  END
>  <MODEL>
2

>  <REMARK>
 VINA RESULT:      -7.9      2.234      3.385
  Name = 
  5 active torsions:
  status: ('A' for Active; 'I' for Inactive)
    1  A    between atoms: C_1  and  C_13
    2  A    between atoms: C_1  and  C_28
    3  A    between atoms: C_3  and  C_11
    4  A    between atoms: N_21  and  C_23
    5  A    between atoms: C_25  and  C_28
                            x       y       z     vdW  Elec       q    Type
                         _______ _______ _______ _____ _____    ______ ____

>  <TORSDO>
F 5

$$$$
=
 OpenBabel10232409073D

 28 30  0  0  1  0  0  0  0  0999 V2000
  188.5350  178.4190  138.9500 C   0  0  0  0  0  0  0  0  0  0  0  0
  188.6570  176.6630  140.6330 O   0  0  0  0  0  0  0  0  0  0  0  0
  189.5170  176.6920  141.7480 C   0  0  1  0  0  3  0  0  0  0  0  0
  191.8800  177.6660  142.0960 C   0  0  0  0  0  1  0  0  0  0  0  0
  190.7040  177.5790  139.8960 C   0  0  1  0  0  3  0  0  0  0  0  0
  189.1400  179.4090  138.4560 O   0  0  0  0  0  0  0  0  0  0  0  0
  191.3710  176.9080  138.8710 O   0  0  0  0  0  1  0  0  0  0  0  0
  189.2740  177.4530  139.7150 N   0  0  0  0  0  0  0  0  0  0  0  0
  190.9370  176.8760  141.1980 C   0  0  2  0  0  3  0  0  0  0  0  0
  186.1940  178.7880  139.5820 N   0  0  0  0  0  0  0  0  0  0  0  0
  185.2320  177.3550  137.4750 N   0  0  0  0  0  0  0  0  0  0  0  0
  187.0820  178.2400  138.7070 C   0  0  0  0  0  0  0  0  0  0  0  0
  187.4390  176.9100  136.6480 N   0  0  0  0  0  1  0  0  0  0  0  0
  184.8520  178.6400  139.4340 C   0  0  0  0  0  3  0  0  0  0  0  0
  186.5760  177.4970  137.6170 C   0  0  0  0  0  0  0  0  0  0  0  0
  184.3610  177.9070  138.3580 C   0  0  0  0  0  3  0  0  0  0  0  0
  189.0820  177.7970  142.7220 C   0  0  0  0  0  2  0  0  0  0  0  0
  187.8020  175.9780  143.6220 O   0  0  0  0  0  1  0  0  0  0  0  0
  188.2410  177.2780  143.8920 C   0  0  2  0  0  3  0  0  0  0  0  0
  185.9130  178.0400  143.2160 C   0  0  0  0  0  2  0  0  0  0  0  0
  184.4060  179.0720  144.8470 N   0  0  0  0  0  2  0  0  0  0  0  0
  184.8760  179.1270  143.4680 C   0  0  0  0  0  2  0  0  0  0  0  0
  184.8540  178.6820  147.0940 O   0  0  0  0  0  0  0  0  0  0  0  0
  185.2650  178.6350  145.9040 C   0  0  0  0  0  0  0  0  0  0  0  0
  186.5600  178.0890  145.5920 N   0  0  0  0  0  0  0  0  0  0  0  0
  187.0630  178.2190  144.2090 C   0  0  1  0  0  3  0  0  0  0  0  0
  188.1750  178.1710  147.4300 C   0  0  0  0  0  1  0  0  0  0  0  0
  187.2590  177.2910  146.6000 C   0  0  0  0  0  2  0  0  0  0  0  0
  1  8  1  0  0  0  0
  2  3  1  0  0  0  0
  3 17  1  1  0  0  0
  5  7  1  6  0  0  0
  5  9  1  0  0  0  0
  6  1  2  0  0  0  0
  8  5  1  0  0  0  0
  8  2  1  0  0  0  0
  9  3  1  0  0  0  0
  9  4  1  1  0  0  0
 11 15  2  0  0  0  0
 11 16  1  0  0  0  0
 12  1  1  0  0  0  0
 12 10  2  0  0  0  0
 13 15  1  0  0  0  0
 14 10  1  0  0  0  0
 15 12  1  0  0  0  0
 16 14  2  0  0  0  0
 17 19  1  0  0  0  0
 19 18  1  6  0  0  0
 20 22  1  0  0  0  0
 20 26  1  0  0  0  0
 21 24  1  0  0  0  0
 22 21  1  0  0  0  0
 24 23  2  0  0  0  0
 25 24  1  0  0  0  0
 25 28  1  0  0  0  0
 26 19  1  6  0  0  0
 26 25  1  0  0  0  0
 28 27  1  0  0  0  0
M  END
>  <MODEL>
3

>  <REMARK>
 VINA RESULT:      -7.8      2.332      4.096
  Name = 
  5 active torsions:
  status: ('A' for Active; 'I' for Inactive)
    1  A    between atoms: C_1  and  C_13
    2  A    between atoms: C_1  and  C_28
    3  A    between atoms: C_3  and  C_11
    4  A    between atoms: N_21  and  C_23
    5  A    between atoms: C_25  and  C_28
                            x       y       z     vdW  Elec       q    Type
                         _______ _______ _______ _____ _____    ______ ____

>  <TORSDO>
F 5

$$$$
=
 OpenBabel10232409073D

 28 30  0  0  1  0  0  0  0  0999 V2000
  187.4140  177.3830  146.0730 C   0  0  0  0  0  0  0  0  0  0  0  0
  189.2190  178.3650  144.7670 O   0  0  0  0  0  0  0  0  0  0  0  0
  190.4220  177.7030  144.4530 C   0  0  1  0  0  3  0  0  0  0  0  0
  191.8300  175.9580  145.7260 C   0  0  0  0  0  1  0  0  0  0  0  0
  189.8380  177.1220  146.6760 C   0  0  1  0  0  3  0  0  0  0  0  0
  187.1190  176.4630  146.8850 O   0  0  0  0  0  0  0  0  0  0  0  0
  190.0480  177.8310  147.8590 O   0  0  0  0  0  1  0  0  0  0  0  0
  188.7900  177.7570  145.9050 N   0  0  0  0  0  0  0  0  0  0  0  0
  191.0340  177.2540  145.7850 C   0  0  2  0  0  3  0  0  0  0  0  0
  186.1310  177.7850  144.0210 N   0  0  0  0  0  0  0  0  0  0  0  0
  184.5970  179.7210  145.1710 N   0  0  0  0  0  0  0  0  0  0  0  0
  186.3410  178.0910  145.3320 C   0  0  0  0  0  0  0  0  0  0  0  0
  185.6890  179.4600  147.2910 N   0  0  0  0  0  1  0  0  0  0  0  0
  185.1850  178.4140  143.2780 C   0  0  0  0  0  3  0  0  0  0  0  0
  185.5430  179.0970  145.9210 C   0  0  0  0  0  0  0  0  0  0  0  0
  184.4010  179.4040  143.8660 C   0  0  0  0  0  3  0  0  0  0  0  0
  190.1480  176.5490  143.4760 C   0  0  0  0  0  2  0  0  0  0  0  0
  191.6430  177.8320  142.1060 O   0  0  0  0  0  1  0  0  0  0  0  0
  190.7000  176.8000  142.0700 C   0  0  2  0  0  3  0  0  0  0  0  0
  188.7500  178.3160  141.4750 C   0  0  0  0  0  2  0  0  0  0  0  0
  187.9830  178.5260  139.1590 N   0  0  0  0  0  2  0  0  0  0  0  0
  187.5460  178.4310  140.5470 C   0  0  0  0  0  2  0  0  0  0  0  0
  189.4790  177.9090  137.4900 O   0  0  0  0  0  0  0  0  0  0  0  0
  189.1780  177.8790  138.7130 C   0  0  0  0  0  0  0  0  0  0  0  0
  190.0550  177.2590  139.6730 N   0  0  0  0  0  0  0  0  0  0  0  0
  189.5740  177.0960  141.0600 C   0  0  1  0  0  3  0  0  0  0  0  0
  191.4810  175.7420  138.3850 C   0  0  0  0  0  1  0  0  0  0  0  0
  191.4340  176.9600  139.2900 C   0  0  0  0  0  2  0  0  0  0  0  0
  1  6  2  0  0  0  0
  2  8  1  0  0  0  0
  3 17  1  6  0  0  0
  3  2  1  0  0  0  0
  3  9  1  0  0  0  0
  5  7  1  1  0  0  0
  8  1  1  0  0  0  0
  8  5  1  0  0  0  0
  9  4  1  6  0  0  0
  9  5  1  0  0  0  0
 10 12  1  0  0  0  0
 11 15  1  0  0  0  0
 12 15  2  0  0  0  0
 12  1  1  0  0  0  0
 14 16  1  0  0  0  0
 14 10  2  0  0  0  0
 15 13  1  0  0  0  0
 16 11  2  0  0  0  0
 19 18  1  1  0  0  0
 19 17  1  0  0  0  0
 21 22  1  0  0  0  0
 22 20  1  0  0  0  0
 23 24  2  0  0  0  0
 24 21  1  0  0  0  0
 24 25  1  0  0  0  0
 25 26  1  0  0  0  0
 26 20  1  0  0  0  0
 26 19  1  1  0  0  0
 27 28  1  0  0  0  0
 28 25  1  0  0  0  0
M  END
>  <MODEL>
4

>  <REMARK>
 VINA RESULT:      -7.8      2.463      6.710
  Name = 
  5 active torsions:
  status: ('A' for Active; 'I' for Inactive)
    1  A    between atoms: C_1  and  C_13
    2  A    between atoms: C_1  and  C_28
    3  A    between atoms: C_3  and  C_11
    4  A    between atoms: N_21  and  C_23
    5  A    between atoms: C_25  and  C_28
                            x       y       z     vdW  Elec       q    Type
                         _______ _______ _______ _____ _____    ______ ____

>  <TORSDO>
F 5

$$$$
=
 OpenBabel10232409073D

 28 30  0  0  1  0  0  0  0  0999 V2000
  189.9410  176.5310  143.5900 C   0  0  0  0  0  0  0  0  0  0  0  0
  188.8920  178.5320  142.6800 O   0  0  0  0  0  0  0  0  0  0  0  0
  188.2310  178.5850  141.4370 C   0  0  1  0  0  3  0  0  0  0  0  0
  188.6270  177.3580  139.2030 C   0  0  0  0  0  1  0  0  0  0  0  0
  190.1440  177.2070  141.1790 C   0  0  1  0  0  3  0  0  0  0  0  0
  190.3920  175.3890  143.3020 O   0  0  0  0  0  0  0  0  0  0  0  0
  191.4730  177.5700  140.9620 O   0  0  0  0  0  1  0  0  0  0  0  0
  189.7720  177.5040  142.5470 N   0  0  0  0  0  0  0  0  0  0  0  0
  189.2370  178.0970  140.3870 C   0  0  2  0  0  3  0  0  0  0  0  0
  188.3510  177.2190  145.3270 N   0  0  0  0  0  0  0  0  0  0  0  0
  190.2470  177.2290  147.2820 N   0  0  0  0  0  0  0  0  0  0  0  0
  189.6270  176.8720  145.0000 C   0  0  0  0  0  0  0  0  0  0  0  0
  191.9570  176.5110  145.7600 N   0  0  0  0  0  1  0  0  0  0  0  0
  188.0020  177.5680  146.5920 C   0  0  0  0  0  3  0  0  0  0  0  0
  190.6060  176.8810  146.0190 C   0  0  0  0  0  0  0  0  0  0  0  0
  188.9710  177.5740  147.5910 C   0  0  0  0  0  3  0  0  0  0  0  0
  186.9390  177.7560  141.4910 C   0  0  0  0  0  2  0  0  0  0  0  0
  186.0000  179.9590  141.3610 O   0  0  0  0  0  1  0  0  0  0  0  0
  185.6700  178.6110  141.5280 C   0  0  2  0  0  3  0  0  0  0  0  0
  185.4230  179.1970  143.9880 C   0  0  0  0  0  2  0  0  0  0  0  0
  183.2680  178.9550  145.1260 N   0  0  0  0  0  2  0  0  0  0  0  0
  184.7090  178.7740  145.2660 C   0  0  0  0  0  2  0  0  0  0  0  0
  181.3680  178.8860  143.7890 O   0  0  0  0  0  0  0  0  0  0  0  0
  182.6240  178.8090  143.8580 C   0  0  0  0  0  0  0  0  0  0  0  0
  183.4180  178.6410  142.6690 N   0  0  0  0  0  0  0  0  0  0  0  0
  184.8640  178.3800  142.8200 C   0  0  1  0  0  3  0  0  0  0  0  0
  182.3850  177.5830  140.7180 C   0  0  0  0  0  1  0  0  0  0  0  0
  182.8080  178.8900  141.3620 C   0  0  0  0  0  2  0  0  0  0  0  0
  1 12  1  0  0  0  0
  3 17  1  1  0  0  0
  3  2  1  0  0  0  0
  5  7  1  1  0  0  0
  5  8  1  0  0  0  0
  6  1  2  0  0  0  0
  8  2  1  0  0  0  0
  8  1  1  0  0  0  0
  9  4  1  6  0  0  0
  9  5  1  0  0  0  0
  9  3  1  0  0  0  0
 10 14  1  0  0  0  0
 11 16  1  0  0  0  0
 12 10  2  0  0  0  0
 12 15  1  0  0  0  0
 13 15  1  0  0  0  0
 14 16  2  0  0  0  0
 15 11  2  0  0  0  0
 17 19  1  0  0  0  0
 19 18  1  1  0  0  0
 20 22  1  0  0  0  0
 21 22  1  0  0  0  0
 23 24  2  0  0  0  0
 24 21  1  0  0  0  0
 25 26  1  0  0  0  0
 25 24  1  0  0  0  0
 26 19  1  6  0  0  0
 26 20  1  0  0  0  0
 27 28  1  0  0  0  0
 28 25  1  0  0  0  0
M  END
>  <MODEL>
5

>  <REMARK>
 VINA RESULT:      -7.7      1.914      4.683
  Name = 
  5 active torsions:
  status: ('A' for Active; 'I' for Inactive)
    1  A    between atoms: C_1  and  C_13
    2  A    between atoms: C_1  and  C_28
    3  A    between atoms: C_3  and  C_11
    4  A    between atoms: N_21  and  C_23
    5  A    between atoms: C_25  and  C_28
                            x       y       z     vdW  Elec       q    Type
                         _______ _______ _______ _____ _____    ______ ____

>  <TORSDO>
F 5

$$$$
=
 OpenBabel10232409073D

 28 30  0  0  1  0  0  0  0  0999 V2000
  188.2970  178.3940  138.0940 C   0  0  0  0  0  0  0  0  0  0  0  0
  188.8950  176.5660  139.5870 O   0  0  0  0  0  0  0  0  0  0  0  0
  190.0750  176.5220  140.3540 C   0  0  1  0  0  3  0  0  0  0  0  0
  192.4580  177.4120  139.9300 C   0  0  0  0  0  1  0  0  0  0  0  0
  190.6210  177.4530  138.2420 C   0  0  1  0  0  3  0  0  0  0  0  0
  188.7460  179.3870  137.4580 O   0  0  0  0  0  0  0  0  0  0  0  0
  190.8840  176.8080  137.0340 O   0  0  0  0  0  1  0  0  0  0  0  0
  189.2060  177.3760  138.5410 N   0  0  0  0  0  0  0  0  0  0  0  0
  191.2410  176.6890  139.3710 C   0  0  2  0  0  3  0  0  0  0  0  0
  186.3250  178.7320  139.5130 N   0  0  0  0  0  0  0  0  0  0  0  0
  184.6400  177.5540  137.7260 N   0  0  0  0  0  0  0  0  0  0  0  0
  186.8390  178.2680  138.3400 C   0  0  0  0  0  0  0  0  0  0  0  0
  186.4170  177.1650  136.1620 N   0  0  0  0  0  1  0  0  0  0  0  0
  185.0050  178.6230  139.8130 C   0  0  0  0  0  3  0  0  0  0  0  0
  185.9600  177.6570  137.4180 C   0  0  0  0  0  0  0  0  0  0  0  0
  184.1450  178.0210  138.9000 C   0  0  0  0  0  3  0  0  0  0  0  0
  190.0310  177.5960  141.4520 C   0  0  0  0  0  2  0  0  0  0  0  0
  190.4070  175.6540  142.8090 O   0  0  0  0  0  1  0  0  0  0  0  0
  190.3420  177.0510  142.8480 C   0  0  2  0  0  3  0  0  0  0  0  0
  188.0710  176.6620  143.9180 C   0  0  0  0  0  2  0  0  0  0  0  0
  187.5780  177.5100  146.1620 N   0  0  0  0  0  2  0  0  0  0  0  0
  187.0330  177.3140  144.8240 C   0  0  0  0  0  2  0  0  0  0  0  0
  189.3930  178.0110  147.5250 O   0  0  0  0  0  0  0  0  0  0  0  0
  188.9710  177.7610  146.3640 C   0  0  0  0  0  0  0  0  0  0  0  0
  189.8830  177.6610  145.2540 N   0  0  0  0  0  0  0  0  0  0  0  0
  189.3220  177.5420  143.8930 C   0  0  1  0  0  3  0  0  0  0  0  0
  191.6060  176.1810  146.1660 C   0  0  0  0  0  1  0  0  0  0  0  0
  191.3150  177.5210  145.5170 C   0  0  0  0  0  2  0  0  0  0  0  0
  1 12  1  0  0  0  0
  1  8  1  0  0  0  0
  2  3  1  0  0  0  0
  3 17  1  1  0  0  0
  5  7  1  6  0  0  0
  5  8  1  0  0  0  0
  5  9  1  0  0  0  0
  6  1  2  0  0  0  0
  8  2  1  0  0  0  0
  9  4  1  1  0  0  0
  9  3  1  0  0  0  0
 10 14  1  0  0  0  0
 11 16  1  0  0  0  0
 12 10  2  0  0  0  0
 13 15  1  0  0  0  0
 15 11  2  0  0  0  0
 15 12  1  0  0  0  0
 16 14  2  0  0  0  0
 17 19  1  0  0  0  0
 19 18  1  6  0  0  0
 20 22  1  0  0  0  0
 21 24  1  0  0  0  0
 22 21  1  0  0  0  0
 24 23  2  0  0  0  0
 25 28  1  0  0  0  0
 25 24  1  0  0  0  0
 26 19  1  6  0  0  0
 26 20  1  0  0  0  0
 26 25  1  0  0  0  0
 28 27  1  0  0  0  0
M  END
>  <MODEL>
6

>  <REMARK>
 VINA RESULT:      -7.6      2.978      5.522
  Name = 
  5 active torsions:
  status: ('A' for Active; 'I' for Inactive)
    1  A    between atoms: C_1  and  C_13
    2  A    between atoms: C_1  and  C_28
    3  A    between atoms: C_3  and  C_11
    4  A    between atoms: N_21  and  C_23
    5  A    between atoms: C_25  and  C_28
                            x       y       z     vdW  Elec       q    Type
                         _______ _______ _______ _____ _____    ______ ____

>  <TORSDO>
F 5

$$$$
=
 OpenBabel10232409073D

 28 30  0  0  1  0  0  0  0  0999 V2000
  186.3910  177.6460  138.5160 C   0  0  0  0  0  0  0  0  0  0  0  0
  187.3880  178.7770  140.4290 O   0  0  0  0  0  0  0  0  0  0  0  0
  186.8840  178.7080  141.7420 C   0  0  1  0  0  3  0  0  0  0  0  0
  184.4890  178.4990  142.6770 C   0  0  0  0  0  1  0  0  0  0  0  0
  185.0330  178.8330  140.2640 C   0  0  1  0  0  3  0  0  0  0  0  0
  185.3420  177.0950  138.0840 O   0  0  0  0  0  0  0  0  0  0  0  0
  184.4620  179.9510  139.6560 O   0  0  0  0  0  1  0  0  0  0  0  0
  186.3060  178.5340  139.6420 N   0  0  0  0  0  0  0  0  0  0  0  0
  185.4210  179.1640  141.6720 C   0  0  2  0  0  3  0  0  0  0  0  0
  188.3710  176.2560  138.1100 N   0  0  0  0  0  0  0  0  0  0  0  0
  189.4730  178.0520  136.3840 N   0  0  0  0  0  0  0  0  0  0  0  0
  187.6890  177.4040  137.8390 C   0  0  0  0  0  0  0  0  0  0  0  0
  187.6080  179.5450  136.5960 N   0  0  0  0  0  1  0  0  0  0  0  0
  189.5770  175.9860  137.5470 C   0  0  0  0  0  3  0  0  0  0  0  0
  188.2680  178.3310  136.9440 C   0  0  0  0  0  0  0  0  0  0  0  0
  190.1400  176.9030  136.6650 C   0  0  0  0  0  3  0  0  0  0  0  0
  187.0650  177.2890  142.3030 C   0  0  0  0  0  2  0  0  0  0  0  0
  188.6720  175.8000  143.2800 O   0  0  0  0  0  1  0  0  0  0  0  0
  188.2950  177.1450  143.2020 C   0  0  2  0  0  3  0  0  0  0  0  0
  186.7380  177.2570  145.2070 C   0  0  0  0  0  2  0  0  0  0  0  0
  187.5820  177.8810  147.4200 N   0  0  0  0  0  2  0  0  0  0  0  0
  186.4710  178.0370  146.4880 C   0  0  0  0  0  2  0  0  0  0  0  0
  189.8680  177.6570  147.7810 O   0  0  0  0  0  0  0  0  0  0  0  0
  188.9210  177.7020  146.9500 C   0  0  0  0  0  0  0  0  0  0  0  0
  189.1650  177.5110  145.5440 N   0  0  0  0  0  0  0  0  0  0  0  0
  188.0540  177.7480  144.5990 C   0  0  1  0  0  3  0  0  0  0  0  0
  191.3630  178.0320  144.6000 C   0  0  0  0  0  1  0  0  0  0  0  0
  190.4420  176.9410  145.1120 C   0  0  0  0  0  2  0  0  0  0  0  0
  1  8  1  0  0  0  0
  2  3  1  0  0  0  0
  3 17  1  6  0  0  0
  5  7  1  6  0  0  0
  5  9  1  0  0  0  0
  6  1  2  0  0  0  0
  8  5  1  0  0  0  0
  8  2  1  0  0  0  0
  9  3  1  0  0  0  0
  9  4  1  1  0  0  0
 11 16  2  0  0  0  0
 11 15  1  0  0  0  0
 12 10  1  0  0  0  0
 12  1  1  0  0  0  0
 13 15  1  0  0  0  0
 14 10  2  0  0  0  0
 15 12  2  0  0  0  0
 16 14  1  0  0  0  0
 17 19  1  0  0  0  0
 19 18  1  1  0  0  0
 20 22  1  0  0  0  0
 22 21  1  0  0  0  0
 24 21  1  0  0  0  0
 24 23  2  0  0  0  0
 25 24  1  0  0  0  0
 26 19  1  6  0  0  0
 26 20  1  0  0  0  0
 26 25  1  0  0  0  0
 27 28  1  0  0  0  0
 28 25  1  0  0  0  0
M  END
>  <MODEL>
7

>  <REMARK>
 VINA RESULT:      -7.5      2.552      5.096
  Name = 
  5 active torsions:
  status: ('A' for Active; 'I' for Inactive)
    1  A    between atoms: C_1  and  C_13
    2  A    between atoms: C_1  and  C_28
    3  A    between atoms: C_3  and  C_11
    4  A    between atoms: N_21  and  C_23
    5  A    between atoms: C_25  and  C_28
                            x       y       z     vdW  Elec       q    Type
                         _______ _______ _______ _____ _____    ______ ____

>  <TORSDO>
F 5

$$$$
=
 OpenBabel10232409073D

 28 30  0  0  1  0  0  0  0  0999 V2000
  188.5910  178.4040  139.2180 C   0  0  0  0  0  0  0  0  0  0  0  0
  188.6280  176.6130  140.8670 O   0  0  0  0  0  0  0  0  0  0  0  0
  189.3610  176.6560  142.0680 C   0  0  1  0  0  3  0  0  0  0  0  0
  191.6150  177.7430  142.6920 C   0  0  0  0  0  1  0  0  0  0  0  0
  190.6890  177.6540  140.3770 C   0  0  1  0  0  3  0  0  0  0  0  0
  189.1910  179.4380  138.8140 O   0  0  0  0  0  0  0  0  0  0  0  0
  191.4990  177.0480  139.4160 O   0  0  0  0  0  1  0  0  0  0  0  0
  189.2960  177.4580  140.0370 N   0  0  0  0  0  0  0  0  0  0  0  0
  190.8190  176.9300  141.6810 C   0  0  2  0  0  3  0  0  0  0  0  0
  186.1800  178.7200  139.5410 N   0  0  0  0  0  0  0  0  0  0  0  0
  185.5270  177.1300  137.4280 N   0  0  0  0  0  0  0  0  0  0  0  0
  187.1840  178.1560  138.8140 C   0  0  0  0  0  0  0  0  0  0  0  0
  187.8320  176.7230  136.9000 N   0  0  0  0  0  1  0  0  0  0  0  0
  184.8720  178.5120  139.2430 C   0  0  0  0  0  3  0  0  0  0  0  0
  186.8390  177.3320  137.7200 C   0  0  0  0  0  0  0  0  0  0  0  0
  184.5380  177.6990  138.1630 C   0  0  0  0  0  3  0  0  0  0  0  0
  188.7620  177.7100  143.0130 C   0  0  0  0  0  2  0  0  0  0  0  0
  186.5250  176.9090  143.3430 O   0  0  0  0  0  1  0  0  0  0  0  0
  187.7410  177.1330  143.9970 C   0  0  2  0  0  3  0  0  0  0  0  0
  186.0990  178.1130  145.6700 C   0  0  0  0  0  2  0  0  0  0  0  0
  186.8490  178.8520  147.8810 N   0  0  0  0  0  2  0  0  0  0  0  0
  185.9700  179.1690  146.7610 C   0  0  0  0  0  2  0  0  0  0  0  0
  188.8660  177.9930  148.6540 O   0  0  0  0  0  0  0  0  0  0  0  0
  188.0920  178.1740  147.6770 C   0  0  0  0  0  0  0  0  0  0  0  0
  188.4130  177.6480  146.3750 N   0  0  0  0  0  0  0  0  0  0  0  0
  187.5630  178.0370  145.2310 C   0  0  1  0  0  3  0  0  0  0  0  0
  190.8200  177.2890  146.1070 C   0  0  0  0  0  1  0  0  0  0  0  0
  189.4600  176.6330  146.2540 C   0  0  0  0  0  2  0  0  0  0  0  0
  1  8  1  0  0  0  0
  2  3  1  0  0  0  0
  3 17  1  1  0  0  0
  5  7  1  6  0  0  0
  5  9  1  0  0  0  0
  6  1  2  0  0  0  0
  8  5  1  0  0  0  0
  8  2  1  0  0  0  0
  9  3  1  0  0  0  0
  9  4  1  1  0  0  0
 11 15  2  0  0  0  0
 11 16  1  0  0  0  0
 12  1  1  0  0  0  0
 12 10  2  0  0  0  0
 13 15  1  0  0  0  0
 14 10  1  0  0  0  0
 15 12  1  0  0  0  0
 16 14  2  0  0  0  0
 17 19  1  0  0  0  0
 19 18  1  6  0  0  0
 20 22  1  0  0  0  0
 22 21  1  0  0  0  0
 24 21  1  0  0  0  0
 24 23  2  0  0  0  0
 25 24  1  0  0  0  0
 26 19  1  6  0  0  0
 26 20  1  0  0  0  0
 26 25  1  0  0  0  0
 27 28  1  0  0  0  0
 28 25  1  0  0  0  0
M  END
>  <MODEL>
8

>  <REMARK>
 VINA RESULT:      -7.3      2.647      4.603
  Name = 
  5 active torsions:
  status: ('A' for Active; 'I' for Inactive)
    1  A    between atoms: C_1  and  C_13
    2  A    between atoms: C_1  and  C_28
    3  A    between atoms: C_3  and  C_11
    4  A    between atoms: N_21  and  C_23
    5  A    between atoms: C_25  and  C_28
                            x       y       z     vdW  Elec       q    Type
                         _______ _______ _______ _____ _____    ______ ____

>  <TORSDO>
F 5

$$$$
=
 OpenBabel10232409073D

 28 30  0  0  1  0  0  0  0  0999 V2000
  185.2670  177.5490  137.8530 C   0  0  0  0  0  0  0  0  0  0  0  0
  184.7550  179.2930  139.4720 O   0  0  0  0  0  0  0  0  0  0  0  0
  183.8050  179.1630  140.5040 C   0  0  1  0  0  3  0  0  0  0  0  0
  181.5720  177.8820  140.6620 C   0  0  0  0  0  1  0  0  0  0  0  0
  182.9260  178.0990  138.5770 C   0  0  1  0  0  3  0  0  0  0  0  0
  184.8480  176.4790  137.3320 O   0  0  0  0  0  0  0  0  0  0  0  0
  182.2740  178.6580  137.4780 O   0  0  0  0  0  1  0  0  0  0  0  0
  184.3370  178.4150  138.5220 N   0  0  0  0  0  0  0  0  0  0  0  0
  182.4810  178.7800  139.8330 C   0  0  2  0  0  3  0  0  0  0  0  0
  187.4410  178.0500  138.8730 N   0  0  0  0  0  0  0  0  0  0  0  0
  188.6340  178.5350  136.4730 N   0  0  0  0  0  0  0  0  0  0  0  0
  186.7000  177.9190  137.7380 C   0  0  0  0  0  0  0  0  0  0  0  0
  186.6220  178.0390  135.2650 N   0  0  0  0  0  1  0  0  0  0  0  0
  188.7490  178.4140  138.8410 C   0  0  0  0  0  3  0  0  0  0  0  0
  187.3250  178.1740  136.4970 C   0  0  0  0  0  0  0  0  0  0  0  0
  189.3580  178.6620  137.6140 C   0  0  0  0  0  3  0  0  0  0  0  0
  184.2920  178.1410  141.5430 C   0  0  0  0  0  2  0  0  0  0  0  0
  185.6080  179.9850  142.3320 O   0  0  0  0  0  1  0  0  0  0  0  0
  185.0200  178.7790  142.7280 C   0  0  2  0  0  3  0  0  0  0  0  0
  187.3460  177.7760  142.5230 C   0  0  0  0  0  2  0  0  0  0  0  0
  188.5130  176.8990  144.4890 N   0  0  0  0  0  2  0  0  0  0  0  0
  188.2390  176.6720  143.0750 C   0  0  0  0  0  2  0  0  0  0  0  0
  187.7880  177.6430  146.5680 O   0  0  0  0  0  0  0  0  0  0  0  0
  187.5550  177.5410  145.3340 C   0  0  0  0  0  0  0  0  0  0  0  0
  186.3690  178.1190  144.7580 N   0  0  0  0  0  0  0  0  0  0  0  0
  186.0560  177.8200  143.3460 C   0  0  1  0  0  3  0  0  0  0  0  0
  184.5140  178.4130  146.3280 C   0  0  0  0  0  1  0  0  0  0  0  0
  185.6060  179.1000  145.5300 C   0  0  0  0  0  2  0  0  0  0  0  0
  1  8  1  0  0  0  0
  2  3  1  0  0  0  0
  3 17  1  1  0  0  0
  5  7  1  6  0  0  0
  5  9  1  0  0  0  0
  6  1  2  0  0  0  0
  8  5  1  0  0  0  0
  8  2  1  0  0  0  0
  9  3  1  0  0  0  0
  9  4  1  1  0  0  0
 11 15  2  0  0  0  0
 11 16  1  0  0  0  0
 12  1  1  0  0  0  0
 12 10  2  0  0  0  0
 13 15  1  0  0  0  0
 14 10  1  0  0  0  0
 15 12  1  0  0  0  0
 16 14  2  0  0  0  0
 17 19  1  0  0  0  0
 19 18  1  6  0  0  0
 20 22  1  0  0  0  0
 20 26  1  0  0  0  0
 21 24  1  0  0  0  0
 22 21  1  0  0  0  0
 24 23  2  0  0  0  0
 25 24  1  0  0  0  0
 25 28  1  0  0  0  0
 26 19  1  6  0  0  0
 26 25  1  0  0  0  0
 28 27  1  0  0  0  0
M  END
>  <MODEL>
9

>  <REMARK>
 VINA RESULT:      -7.3      2.851      5.609
  Name = 
  5 active torsions:
  status: ('A' for Active; 'I' for Inactive)
    1  A    between atoms: C_1  and  C_13
    2  A    between atoms: C_1  and  C_28
    3  A    between atoms: C_3  and  C_11
    4  A    between atoms: N_21  and  C_23
    5  A    between atoms: C_25  and  C_28
                            x       y       z     vdW  Elec       q    Type
                         _______ _______ _______ _____ _____    ______ ____

>  <TORSDO>
F 5

$$$$
