=
 OpenBabel10232410343D

 50 53  0  0  1  0  0  0  0  0999 V2000
  187.2450  177.0660  137.6150 C   0  0  1  0  0  3  0  0  0  0  0  0
  187.9120  179.3020  136.9990 O   0  0  0  0  0  1  0  0  0  0  0  0
  188.2510  177.9810  137.3120 C   0  0  1  0  0  0  0  0  0  0  0  0
  188.0110  177.6940  138.7530 N   0  0  0  0  0  0  0  0  0  0  0  0
  187.8360  178.3980  142.4160 C   0  0  0  0  0  3  0  0  0  0  0  0
  189.5670  177.2120  140.5710 C   0  0  0  0  0  3  0  0  0  0  0  0
  188.3900  177.8190  140.1200 C   0  0  0  0  0  0  0  0  0  0  0  0
  189.0310  177.8070  142.8630 C   0  0  0  0  0  0  0  0  0  0  0  0
  189.8920  177.2180  141.9310 C   0  0  0  0  0  3  0  0  0  0  0  0
  187.5160  178.4240  141.0430 C   0  0  0  0  0  0  0  0  0  0  0  0
  186.2450  178.9120  140.5860 N   0  0  0  0  0  0  0  0  0  0  0  0
  184.1870  179.1640  142.0010 O   0  0  0  0  0  0  0  0  0  0  0  0
  185.2060  179.0370  141.3150 C   0  0  0  0  0  0  0  0  0  0  0  0
  189.3360  177.7400  144.2260 O   0  0  0  0  0  0  0  0  0  0  0  0
  190.6210  177.3300  144.6730 C   0  0  0  0  0  2  0  0  0  0  0  0
  191.8440  175.4970  147.7460 O   0  0  0  0  0  0  0  0  0  0  0  0
  190.5920  177.0550  146.0980 N   0  0  0  0  0  0  0  0  0  0  0  0
  190.0400  177.3160  147.3640 N   0  0  0  0  0  0  0  0  0  0  0  0
  191.0640  176.3440  147.2300 C   0  0  0  0  0  0  0  0  0  0  0  0
  189.1860  178.1230  148.1730 C   0  0  0  0  0  3  0  0  0  0  0  0
  187.8720  178.1630  147.9280 C   0  0  0  0  0  3  0  0  0  0  0  0
  187.3000  177.5200  146.6920 C   0  0  0  0  0  2  0  0  0  0  0  0
  185.8710  178.0040  146.4200 C   0  0  0  0  0  3  0  0  0  0  0  0
  185.6930  179.2710  146.9770 O   0  0  0  0  0  1  0  0  0  0  0  0
  185.6010  178.0510  145.0440 O   0  0  0  0  0  1  0  0  0  0  0  0
  185.8410  177.6650  137.4980 C   0  0  2  0  0  3  0  0  0  0  0  0
  184.9580  177.0750  138.3980 O   0  0  0  0  0  1  0  0  0  0  0  0
  185.3070  177.5010  136.0810 C   0  0  0  0  0  2  0  0  0  0  0  0
  183.9790  176.7320  136.0260 C   0  0  1  0  0  3  0  0  0  0  0  0
  183.0430  177.3570  135.0960 N   0  0  0  0  0  1  0  0  0  0  0  0
  183.7010  174.9290  134.4320 O   0  0  0  0  0  1  0  0  0  0  0  0
  184.1940  175.2500  135.7020 C   0  0  2  0  0  3  0  0  0  0  0  0
  183.5690  174.3380  136.7670 C   0  0  2  0  0  3  0  0  0  0  0  0
  184.2820  172.1400  137.3490 O   0  0  0  0  0  0  0  0  0  0  0  0
  185.8460  173.7820  137.6430 O   0  0  0  0  0  1  0  0  0  0  0  0
  184.5830  173.3590  137.2610 C   0  0  0  0  0  0  0  0  0  0  0  0
  181.3750  174.0470  137.0400 C   0  0  0  0  0  1  0  0  0  0  0  0
  182.4580  173.6560  136.2420 O   0  0  0  0  0  0  0  0  0  0  0  0
  189.6120  177.4910  136.8120 C   0  0  0  0  0  2  0  0  0  0  0  0
  189.7150  177.2620  134.9950 S   0  0  0  0  0  0  0  0  0  0  0  0
  191.1860  173.4610  135.4350 C   0  0  0  0  0  0  0  0  0  0  0  0
  187.7850  172.6050  135.2020 O   0  0  0  0  0  0  0  0  0  0  0  0
  190.0410  172.7300  135.4030 N   0  0  0  0  0  0  0  0  0  0  0  0
  192.4360  172.7980  135.6130 N   0  0  0  0  0  1  0  0  0  0  0  0
  191.1350  174.8600  135.3000 C   0  0  2  0  0  3  0  0  0  0  0  0
  189.8810  175.4800  135.1460 C   0  0  0  0  0  0  0  0  0  0  0  0
  188.7230  174.7030  135.1240 C   0  0  0  0  0  3  0  0  0  0  0  0
  188.8210  173.3150  135.2470 C   0  0  0  0  0  0  0  0  0  0  0  0
  192.9370  175.8430  136.5570 N   0  0  0  0  0  1  0  0  0  0  0  0
  192.4020  175.6600  135.2180 C   0  0  0  0  0  2  0  0  0  0  0  0
  1 26  1  1  0  0  0
  1  4  1  0  0  0  0
  3  2  1  6  0  0  0
  3  1  1  0  0  0  0
  3  4  1  0  0  0  0
  4  7  1  0  0  0  0
  5  8  1  0  0  0  0
  6  9  1  0  0  0  0
  7  6  2  0  0  0  0
  7 10  1  0  0  0  0
  8 14  1  0  0  0  0
  9  8  2  0  0  0  0
 10  5  2  0  0  0  0
 11 10  1  0  0  0  0
 11 13  2  0  0  0  0
 13 12  2  0  0  0  0
 14 15  1  0  0  0  0
 15 17  1  0  0  0  0
 17 19  1  0  0  0  0
 17 18  1  0  0  0  0
 18 20  1  0  0  0  0
 19 18  1  0  0  0  0
 19 16  2  0  0  0  0
 21 20  2  0  0  0  0
 22 21  1  0  0  0  0
 23 22  1  0  0  0  0
 23 24  1  0  0  0  0
 25 23  1  0  0  0  0
 26 27  1  1  0  0  0
 28 26  1  0  0  0  0
 29 30  1  6  0  0  0
 29 28  1  0  0  0  0
 32 31  1  6  0  0  0
 32 29  1  0  0  0  0
 32 33  1  0  0  0  0
 33 38  1  6  0  0  0
 33 36  1  0  0  0  0
 36 34  2  0  0  0  0
 36 35  1  0  0  0  0
 38 37  1  0  0  0  0
 39  3  1  0  0  0  0
 40 46  1  0  0  0  0
 40 39  1  0  0  0  0
 41 44  1  0  0  0  0
 42 48  2  0  0  0  0
 43 41  2  0  0  0  0
 45 50  1  6  0  0  0
 45 41  1  0  0  0  0
 46 45  1  0  0  0  0
 47 46  2  0  0  0  0
 47 48  1  0  0  0  0
 48 43  1  0  0  0  0
 50 49  1  0  0  0  0
M  END
>  <MODEL>
1

>  <REMARK>
 VINA RESULT:      -6.7      0.000      0.000
  Name = 
  19 active torsions:
  status: ('A' for Active; 'I' for Inactive)
    1  A    between atoms: C_1  and  C_2
    2  A    between atoms: C_1  and  C_14
    3  A    between atoms: C_2  and  C_31
    4  A    between atoms: C_3  and  C_22
    5  A    between atoms: S_4  and  C_36
    6  A    between atoms: S_4  and  C_40
    7  A    between atoms: C_5  and  C_14
    8  A    between atoms: O_6  and  C_15
    9  A    between atoms: O_6  and  C_34
   10  A    between atoms: N_7  and  C_50
   11  A    between atoms: C_15  and  N_42
   12  A    between atoms: C_16  and  C_31
   13  A    between atoms: C_16  and  O_32
   14  A    between atoms: C_16  and  C_41
   15  A    between atoms: C_22  and  C_37
   16  A    between atoms: C_25  and  C_33
   17  A    between atoms: C_28  and  N_49
   18  A    between atoms: C_29  and  N_43
   19  A    between atoms: C_40  and  C_48
                            x       y       z     vdW  Elec       q    Type
                         _______ _______ _______ _____ _____    ______ ____

>  <TORSDO>
F 19

$$$$
=
 OpenBabel10232410343D

 50 53  0  0  1  0  0  0  0  0999 V2000
  184.0400  178.6000  138.6130 C   0  0  1  0  0  3  0  0  0  0  0  0
  183.4420  176.2700  138.7990 O   0  0  0  0  0  1  0  0  0  0  0  0
  183.1160  177.6200  138.9670 C   0  0  1  0  0  0  0  0  0  0  0  0
  183.9090  178.2300  140.0690 N   0  0  0  0  0  0  0  0  0  0  0  0
  185.6990  178.9270  143.2710 C   0  0  0  0  0  3  0  0  0  0  0  0
  183.0900  178.5470  142.3460 C   0  0  0  0  0  3  0  0  0  0  0  0
  184.1630  178.4090  141.4590 C   0  0  0  0  0  0  0  0  0  0  0  0
  184.6200  179.0420  144.1650 C   0  0  0  0  0  0  0  0  0  0  0  0
  183.3180  178.8480  143.6930 C   0  0  0  0  0  3  0  0  0  0  0  0
  185.4810  178.5930  141.9180 C   0  0  0  0  0  0  0  0  0  0  0  0
  186.5580  178.5940  140.9690 N   0  0  0  0  0  0  0  0  0  0  0  0
  188.9720  178.1600  141.5050 O   0  0  0  0  0  0  0  0  0  0  0  0
  187.7810  178.3710  141.2530 C   0  0  0  0  0  0  0  0  0  0  0  0
  184.8260  179.4130  145.4980 O   0  0  0  0  0  0  0  0  0  0  0  0
  184.9630  178.4350  146.5200 C   0  0  0  0  0  2  0  0  0  0  0  0
  188.0670  177.8680  148.6040 O   0  0  0  0  0  0  0  0  0  0  0  0
  186.3570  178.0580  146.6670 N   0  0  0  0  0  0  0  0  0  0  0  0
  187.5560  177.6220  146.0760 N   0  0  0  0  0  0  0  0  0  0  0  0
  187.5080  177.8640  147.4730 C   0  0  0  0  0  0  0  0  0  0  0  0
  188.2320  177.1320  144.9200 C   0  0  0  0  0  3  0  0  0  0  0  0
  189.5660  177.0410  144.9100 C   0  0  0  0  0  3  0  0  0  0  0  0
  190.3850  177.6280  146.0300 C   0  0  0  0  0  2  0  0  0  0  0  0
  191.1450  176.5390  146.7960 C   0  0  0  0  0  3  0  0  0  0  0  0
  192.0630  175.9220  145.9450 O   0  0  0  0  0  1  0  0  0  0  0  0
  191.8160  177.0710  147.9080 O   0  0  0  0  0  1  0  0  0  0  0  0
  185.3220  178.0190  138.0090 C   0  0  2  0  0  3  0  0  0  0  0  0
  186.3380  178.9700  137.9570 O   0  0  0  0  0  1  0  0  0  0  0  0
  185.0570  177.4810  136.6090 C   0  0  0  0  0  2  0  0  0  0  0  0
  186.1190  176.4730  136.1440 C   0  0  1  0  0  3  0  0  0  0  0  0
  187.1270  177.1160  135.3050 N   0  0  0  0  0  1  0  0  0  0  0  0
  188.1340  175.9560  137.3840 O   0  0  0  0  0  1  0  0  0  0  0  0
  186.7540  175.7310  137.3230 C   0  0  2  0  0  3  0  0  0  0  0  0
  186.4580  174.2260  137.2750 C   0  0  2  0  0  3  0  0  0  0  0  0
  187.3820  173.5450  135.1870 O   0  0  0  0  0  0  0  0  0  0  0  0
  188.5320  172.8460  137.0360 O   0  0  0  0  0  1  0  0  0  0  0  0
  187.4820  173.5280  136.4410 C   0  0  0  0  0  0  0  0  0  0  0  0
  184.6530  172.9370  137.5150 C   0  0  0  0  0  1  0  0  0  0  0  0
  185.1740  173.9920  136.7540 O   0  0  0  0  0  0  0  0  0  0  0  0
  181.6240  177.9560  139.0300 C   0  0  0  0  0  2  0  0  0  0  0  0
  181.2580  179.7380  139.2720 S   0  0  0  0  0  0  0  0  0  0  0  0
  180.7060  181.4370  135.5820 C   0  0  0  0  0  0  0  0  0  0  0  0
  180.7070  178.0820  134.5380 O   0  0  0  0  0  0  0  0  0  0  0  0
  180.6580  180.3350  134.7890 N   0  0  0  0  0  0  0  0  0  0  0  0
  180.5880  182.7310  134.9930 N   0  0  0  0  0  1  0  0  0  0  0  0
  180.8760  181.3010  136.9710 C   0  0  2  0  0  3  0  0  0  0  0  0
  181.0080  180.0080  137.5130 C   0  0  0  0  0  0  0  0  0  0  0  0
  180.9620  178.8980  136.6720 C   0  0  0  0  0  3  0  0  0  0  0  0
  180.7770  179.0790  135.3000 C   0  0  0  0  0  0  0  0  0  0  0  0
  182.1650  182.9660  138.1370 N   0  0  0  0  0  1  0  0  0  0  0  0
  180.8140  182.5050  137.8640 C   0  0  0  0  0  2  0  0  0  0  0  0
  1 26  1  6  0  0  0
  1  3  1  0  0  0  0
  1  4  1  0  0  0  0
  3  2  1  6  0  0  0
  3 39  1  0  0  0  0
  3  4  1  0  0  0  0
  4  7  1  0  0  0  0
  5  8  1  0  0  0  0
  6  9  1  0  0  0  0
  7 10  1  0  0  0  0
  7  6  2  0  0  0  0
  8 14  1  0  0  0  0
  9  8  2  0  0  0  0
 10  5  2  0  0  0  0
 11 13  2  0  0  0  0
 11 10  1  0  0  0  0
 13 12  2  0  0  0  0
 14 15  1  0  0  0  0
 15 17  1  0  0  0  0
 17 19  1  0  0  0  0
 18 17  1  0  0  0  0
 18 19  1  0  0  0  0
 19 16  2  0  0  0  0
 20 18  1  0  0  0  0
 21 20  2  0  0  0  0
 21 22  1  0  0  0  0
 22 23  1  0  0  0  0
 23 25  1  0  0  0  0
 24 23  1  0  0  0  0
 26 27  1  6  0  0  0
 28 26  1  0  0  0  0
 29 30  1  1  0  0  0
 29 28  1  0  0  0  0
 29 32  1  0  0  0  0
 32 31  1  6  0  0  0
 33 36  1  6  0  0  0
 33 32  1  0  0  0  0
 34 36  2  0  0  0  0
 36 35  1  0  0  0  0
 38 33  1  0  0  0  0
 38 37  1  0  0  0  0
 39 40  1  0  0  0  0
 41 45  1  0  0  0  0
 42 48  2  0  0  0  0
 43 48  1  0  0  0  0
 43 41  2  0  0  0  0
 44 41  1  0  0  0  0
 45 46  1  0  0  0  0
 45 50  1  1  0  0  0
 46 40  1  0  0  0  0
 47 46  2  0  0  0  0
 48 47  1  0  0  0  0
 50 49  1  0  0  0  0
M  END
>  <MODEL>
2

>  <REMARK>
 VINA RESULT:      -6.7      3.277      6.767
  Name = 
  19 active torsions:
  status: ('A' for Active; 'I' for Inactive)
    1  A    between atoms: C_1  and  C_2
    2  A    between atoms: C_1  and  C_14
    3  A    between atoms: C_2  and  C_31
    4  A    between atoms: C_3  and  C_22
    5  A    between atoms: S_4  and  C_36
    6  A    between atoms: S_4  and  C_40
    7  A    between atoms: C_5  and  C_14
    8  A    between atoms: O_6  and  C_15
    9  A    between atoms: O_6  and  C_34
   10  A    between atoms: N_7  and  C_50
   11  A    between atoms: C_15  and  N_42
   12  A    between atoms: C_16  and  C_31
   13  A    between atoms: C_16  and  O_32
   14  A    between atoms: C_16  and  C_41
   15  A    between atoms: C_22  and  C_37
   16  A    between atoms: C_25  and  C_33
   17  A    between atoms: C_28  and  N_49
   18  A    between atoms: C_29  and  N_43
   19  A    between atoms: C_40  and  C_48
                            x       y       z     vdW  Elec       q    Type
                         _______ _______ _______ _____ _____    ______ ____

>  <TORSDO>
F 19

$$$$
=
 OpenBabel10232410343D

 50 53  0  0  1  0  0  0  0  0999 V2000
  189.3420  176.7710  138.0610 C   0  0  1  0  0  3  0  0  0  0  0  0
  189.0900  179.1480  138.3900 O   0  0  0  0  0  1  0  0  0  0  0  0
  188.8860  177.8370  138.8340 C   0  0  1  0  0  0  0  0  0  0  0  0
  187.8800  177.1360  137.9900 N   0  0  0  0  0  0  0  0  0  0  0  0
  184.2040  177.6310  137.5620 C   0  0  0  0  0  3  0  0  0  0  0  0
  186.2330  175.9480  136.6360 C   0  0  0  0  0  3  0  0  0  0  0  0
  186.5280  176.9160  137.6020 C   0  0  0  0  0  0  0  0  0  0  0  0
  183.9070  176.6420  136.6080 C   0  0  0  0  0  0  0  0  0  0  0  0
  184.9290  175.8030  136.1520 C   0  0  0  0  0  3  0  0  0  0  0  0
  185.5100  177.7640  138.0780 C   0  0  0  0  0  0  0  0  0  0  0  0
  185.8550  178.8450  138.9570 N   0  0  0  0  0  0  0  0  0  0  0  0
  184.7840  179.3150  141.1780 O   0  0  0  0  0  0  0  0  0  0  0  0
  185.3040  179.0740  140.0840 C   0  0  0  0  0  0  0  0  0  0  0  0
  182.6250  176.5320  136.0600 O   0  0  0  0  0  0  0  0  0  0  0  0
  181.4730  176.9040  136.8060 C   0  0  0  0  0  2  0  0  0  0  0  0
  180.4570  175.5090  140.1710 O   0  0  0  0  0  0  0  0  0  0  0  0
  181.0630  175.8120  137.6710 N   0  0  0  0  0  0  0  0  0  0  0  0
  180.7520  174.4500  137.8260 N   0  0  0  0  0  0  0  0  0  0  0  0
  180.6960  175.3160  138.9470 C   0  0  0  0  0  0  0  0  0  0  0  0
  180.5110  173.1830  137.2170 C   0  0  0  0  0  3  0  0  0  0  0  0
  181.5380  172.4120  136.8420 C   0  0  0  0  0  3  0  0  0  0  0  0
  182.9480  172.9400  136.8760 C   0  0  0  0  0  2  0  0  0  0  0  0
  183.9660  171.8060  137.0410 C   0  0  0  0  0  3  0  0  0  0  0  0
  183.3910  170.6000  136.6400 O   0  0  0  0  0  1  0  0  0  0  0  0
  185.1270  172.0480  136.2900 O   0  0  0  0  0  1  0  0  0  0  0  0
  190.0860  177.2240  136.8020 C   0  0  2  0  0  3  0  0  0  0  0  0
  189.2420  177.2600  135.6960 O   0  0  0  0  0  1  0  0  0  0  0  0
  191.2620  176.3000  136.5140 C   0  0  0  0  0  2  0  0  0  0  0  0
  191.7440  175.5390  137.7580 C   0  0  1  0  0  3  0  0  0  0  0  0
  191.4170  174.1190  137.6690 N   0  0  0  0  0  1  0  0  0  0  0  0
  193.6830  176.9560  137.4420 O   0  0  0  0  0  1  0  0  0  0  0  0
  193.2380  175.7600  138.0170 C   0  0  2  0  0  3  0  0  0  0  0  0
  194.0830  174.5790  137.5210 C   0  0  2  0  0  3  0  0  0  0  0  0
  195.7220  175.0470  139.1850 O   0  0  0  0  0  1  0  0  0  0  0  0
  195.2580  172.8300  138.8720 O   0  0  0  0  0  0  0  0  0  0  0  0
  195.0600  174.1690  138.5740 C   0  0  0  0  0  0  0  0  0  0  0  0
  194.6360  173.8030  135.5040 C   0  0  0  0  0  1  0  0  0  0  0  0
  194.7640  174.9200  136.3400 O   0  0  0  0  0  0  0  0  0  0  0  0
  188.6550  177.6550  140.3360 C   0  0  0  0  0  2  0  0  0  0  0  0
  190.1540  177.1840  141.2830 S   0  0  0  0  0  0  0  0  0  0  0  0
  189.2610  177.4250  145.2760 C   0  0  0  0  0  0  0  0  0  0  0  0
  185.9720  177.6730  144.0630 O   0  0  0  0  0  0  0  0  0  0  0  0
  187.9090  177.5560  145.2370 N   0  0  0  0  0  0  0  0  0  0  0  0
  189.9290  177.4280  146.5370 N   0  0  0  0  0  1  0  0  0  0  0  0
  189.9940  177.2940  144.0840 C   0  0  2  0  0  3  0  0  0  0  0  0
  189.3010  177.3160  142.8580 C   0  0  0  0  0  0  0  0  0  0  0  0
  187.9140  177.4580  142.8500 C   0  0  0  0  0  3  0  0  0  0  0  0
  187.2250  177.5700  144.0590 C   0  0  0  0  0  0  0  0  0  0  0  0
  191.7050  175.6010  144.0520 N   0  0  0  0  0  1  0  0  0  0  0  0
  191.4710  177.0340  144.1260 C   0  0  0  0  0  2  0  0  0  0  0  0
  1 26  1  6  0  0  0
  1  3  1  0  0  0  0
  3  2  1  6  0  0  0
  3 39  1  0  0  0  0
  4  1  1  0  0  0  0
  4  3  1  0  0  0  0
  5 10  1  0  0  0  0
  6  7  1  0  0  0  0
  7  4  1  0  0  0  0
  7 10  2  0  0  0  0
  8  5  2  0  0  0  0
  9  8  1  0  0  0  0
  9  6  2  0  0  0  0
 10 11  1  0  0  0  0
 11 13  2  0  0  0  0
 13 12  2  0  0  0  0
 14  8  1  0  0  0  0
 14 15  1  0  0  0  0
 15 17  1  0  0  0  0
 17 18  1  0  0  0  0
 17 19  1  0  0  0  0
 18 19  1  0  0  0  0
 19 16  2  0  0  0  0
 20 18  1  0  0  0  0
 21 22  1  0  0  0  0
 21 20  2  0  0  0  0
 22 23  1  0  0  0  0
 24 23  1  0  0  0  0
 25 23  1  0  0  0  0
 26 27  1  6  0  0  0
 28 26  1  0  0  0  0
 28 29  1  0  0  0  0
 29 30  1  6  0  0  0
 29 32  1  0  0  0  0
 32 31  1  6  0  0  0
 33 38  1  6  0  0  0
 33 32  1  0  0  0  0
 33 36  1  0  0  0  0
 36 35  2  0  0  0  0
 36 34  1  0  0  0  0
 37 38  1  0  0  0  0
 39 40  1  0  0  0  0
 40 46  1  0  0  0  0
 41 44  1  0  0  0  0
 43 41  2  0  0  0  0
 45 50  1  1  0  0  0
 45 41  1  0  0  0  0
 46 45  1  0  0  0  0
 47 46  2  0  0  0  0
 47 48  1  0  0  0  0
 48 42  2  0  0  0  0
 48 43  1  0  0  0  0
 49 50  1  0  0  0  0
M  END
>  <MODEL>
3

>  <REMARK>
 VINA RESULT:      -6.7      3.126      9.393
  Name = 
  19 active torsions:
  status: ('A' for Active; 'I' for Inactive)
    1  A    between atoms: C_1  and  C_2
    2  A    between atoms: C_1  and  C_14
    3  A    between atoms: C_2  and  C_31
    4  A    between atoms: C_3  and  C_22
    5  A    between atoms: S_4  and  C_36
    6  A    between atoms: S_4  and  C_40
    7  A    between atoms: C_5  and  C_14
    8  A    between atoms: O_6  and  C_15
    9  A    between atoms: O_6  and  C_34
   10  A    between atoms: N_7  and  C_50
   11  A    between atoms: C_15  and  N_42
   12  A    between atoms: C_16  and  C_31
   13  A    between atoms: C_16  and  O_32
   14  A    between atoms: C_16  and  C_41
   15  A    between atoms: C_22  and  C_37
   16  A    between atoms: C_25  and  C_33
   17  A    between atoms: C_28  and  N_49
   18  A    between atoms: C_29  and  N_43
   19  A    between atoms: C_40  and  C_48
                            x       y       z     vdW  Elec       q    Type
                         _______ _______ _______ _____ _____    ______ ____

>  <TORSDO>
F 19

$$$$
=
 OpenBabel10232410343D

 50 53  0  0  1  0  0  0  0  0999 V2000
  189.9990  176.6050  139.8060 C   0  0  1  0  0  3  0  0  0  0  0  0
  189.7460  178.3410  138.1490 O   0  0  0  0  0  1  0  0  0  0  0  0
  189.5000  177.0330  138.5770 C   0  0  1  0  0  0  0  0  0  0  0  0
  190.7450  176.2170  138.5540 N   0  0  0  0  0  0  0  0  0  0  0  0
  192.3640  173.6320  136.3990 C   0  0  0  0  0  3  0  0  0  0  0  0
  192.9830  176.0830  137.5900 C   0  0  0  0  0  3  0  0  0  0  0  0
  191.7380  175.4950  137.8320 C   0  0  0  0  0  0  0  0  0  0  0  0
  193.6230  174.2160  136.1760 C   0  0  0  0  0  0  0  0  0  0  0  0
  193.9240  175.4420  136.7780 C   0  0  0  0  0  3  0  0  0  0  0  0
  191.4200  174.2570  137.2410 C   0  0  0  0  0  0  0  0  0  0  0  0
  190.0890  173.7370  137.3800 N   0  0  0  0  0  0  0  0  0  0  0  0
  188.8010  172.5360  135.5900 O   0  0  0  0  0  0  0  0  0  0  0  0
  189.4440  173.1280  136.4630 C   0  0  0  0  0  0  0  0  0  0  0  0
  194.5480  173.6240  135.3100 O   0  0  0  0  0  0  0  0  0  0  0  0
  194.6440  172.2110  135.1930 C   0  0  0  0  0  2  0  0  0  0  0  0
  195.1610  169.9620  138.1890 O   0  0  0  0  0  0  0  0  0  0  0  0
  195.4590  171.6740  136.2680 N   0  0  0  0  0  0  0  0  0  0  0  0
  196.6910  171.6430  136.9450 N   0  0  0  0  0  0  0  0  0  0  0  0
  195.6190  170.8290  137.3940 C   0  0  0  0  0  0  0  0  0  0  0  0
  198.0600  172.0380  136.9940 C   0  0  0  0  0  3  0  0  0  0  0  0
  198.3960  173.2340  137.4890 C   0  0  0  0  0  3  0  0  0  0  0  0
  197.3380  174.2530  137.8230 C   0  0  0  0  0  2  0  0  0  0  0  0
  197.5130  174.7960  139.2460 C   0  0  0  0  0  3  0  0  0  0  0  0
  198.4200  175.8570  139.2330 O   0  0  0  0  0  1  0  0  0  0  0  0
  196.2900  175.2260  139.7830 O   0  0  0  0  0  1  0  0  0  0  0  0
  190.7350  177.7110  140.5670 C   0  0  2  0  0  3  0  0  0  0  0  0
  192.0570  177.3600  140.8250 O   0  0  0  0  0  1  0  0  0  0  0  0
  190.0250  178.0210  141.8790 C   0  0  0  0  0  2  0  0  0  0  0  0
  190.9650  177.9800  143.0920 C   0  0  1  0  0  3  0  0  0  0  0  0
  191.0050  179.2710  143.7740 N   0  0  0  0  0  1  0  0  0  0  0  0
  189.8420  175.8580  143.4160 O   0  0  0  0  0  1  0  0  0  0  0  0
  190.6030  176.8440  144.0550 C   0  0  2  0  0  3  0  0  0  0  0  0
  189.8730  177.3640  145.3000 C   0  0  2  0  0  3  0  0  0  0  0  0
  190.1290  177.1510  147.6600 O   0  0  0  0  0  1  0  0  0  0  0  0
  191.9950  176.6680  146.4310 O   0  0  0  0  0  0  0  0  0  0  0  0
  190.6670  177.0500  146.5270 C   0  0  0  0  0  0  0  0  0  0  0  0
  187.7020  177.8700  145.3280 C   0  0  0  0  0  1  0  0  0  0  0  0
  188.5940  176.7920  145.3970 O   0  0  0  0  0  0  0  0  0  0  0  0
  188.2960  176.3260  137.9480 C   0  0  0  0  0  2  0  0  0  0  0  0
  187.6740  177.1110  136.4120 S   0  0  0  0  0  0  0  0  0  0  0  0
  183.6940  177.2270  137.3890 C   0  0  0  0  0  0  0  0  0  0  0  0
  184.7980  179.6270  139.7070 O   0  0  0  0  0  0  0  0  0  0  0  0
  183.6940  178.1500  138.3870 N   0  0  0  0  0  0  0  0  0  0  0  0
  182.4670  176.6060  137.0090 N   0  0  0  0  0  1  0  0  0  0  0  0
  184.8950  176.8850  136.7420 C   0  0  2  0  0  3  0  0  0  0  0  0
  186.0880  177.5060  137.1590 C   0  0  0  0  0  0  0  0  0  0  0  0
  186.0570  178.4440  138.1900 C   0  0  0  0  0  3  0  0  0  0  0  0
  184.8400  178.7640  138.7940 C   0  0  0  0  0  0  0  0  0  0  0  0
  185.1770  174.6060  136.0220 N   0  0  0  0  0  1  0  0  0  0  0  0
  184.8840  175.9550  135.5650 C   0  0  0  0  0  2  0  0  0  0  0  0
  1 26  1  1  0  0  0
  3  2  1  6  0  0  0
  3  1  1  0  0  0  0
  4  3  1  0  0  0  0
  4  1  1  0  0  0  0
  5 10  1  0  0  0  0
  6  7  1  0  0  0  0
  7  4  1  0  0  0  0
  8  5  2  0  0  0  0
  8  9  1  0  0  0  0
  9  6  2  0  0  0  0
 10 11  1  0  0  0  0
 10  7  2  0  0  0  0
 12 13  2  0  0  0  0
 13 11  2  0  0  0  0
 14  8  1  0  0  0  0
 15 14  1  0  0  0  0
 15 17  1  0  0  0  0
 17 18  1  0  0  0  0
 17 19  1  0  0  0  0
 18 20  1  0  0  0  0
 18 19  1  0  0  0  0
 19 16  2  0  0  0  0
 20 21  2  0  0  0  0
 21 22  1  0  0  0  0
 22 23  1  0  0  0  0
 23 25  1  0  0  0  0
 24 23  1  0  0  0  0
 26 27  1  1  0  0  0
 26 28  1  0  0  0  0
 28 29  1  0  0  0  0
 29 30  1  1  0  0  0
 29 32  1  0  0  0  0
 32 31  1  6  0  0  0
 32 33  1  0  0  0  0
 33 38  1  1  0  0  0
 33 36  1  0  0  0  0
 35 36  2  0  0  0  0
 36 34  1  0  0  0  0
 37 38  1  0  0  0  0
 39  3  1  0  0  0  0
 40 46  1  0  0  0  0
 40 39  1  0  0  0  0
 41 43  2  0  0  0  0
 43 48  1  0  0  0  0
 44 41  1  0  0  0  0
 45 50  1  6  0  0  0
 45 46  1  0  0  0  0
 45 41  1  0  0  0  0
 46 47  2  0  0  0  0
 47 48  1  0  0  0  0
 48 42  2  0  0  0  0
 50 49  1  0  0  0  0
M  END
>  <MODEL>
4

>  <REMARK>
 VINA RESULT:      -6.6      3.780      9.740
  Name = 
  19 active torsions:
  status: ('A' for Active; 'I' for Inactive)
    1  A    between atoms: C_1  and  C_2
    2  A    between atoms: C_1  and  C_14
    3  A    between atoms: C_2  and  C_31
    4  A    between atoms: C_3  and  C_22
    5  A    between atoms: S_4  and  C_36
    6  A    between atoms: S_4  and  C_40
    7  A    between atoms: C_5  and  C_14
    8  A    between atoms: O_6  and  C_15
    9  A    between atoms: O_6  and  C_34
   10  A    between atoms: N_7  and  C_50
   11  A    between atoms: C_15  and  N_42
   12  A    between atoms: C_16  and  C_31
   13  A    between atoms: C_16  and  O_32
   14  A    between atoms: C_16  and  C_41
   15  A    between atoms: C_22  and  C_37
   16  A    between atoms: C_25  and  C_33
   17  A    between atoms: C_28  and  N_49
   18  A    between atoms: C_29  and  N_43
   19  A    between atoms: C_40  and  C_48
                            x       y       z     vdW  Elec       q    Type
                         _______ _______ _______ _____ _____    ______ ____

>  <TORSDO>
F 19

$$$$
=
 OpenBabel10232410343D

 50 53  0  0  1  0  0  0  0  0999 V2000
  190.0960  175.6920  137.3100 C   0  0  1  0  0  3  0  0  0  0  0  0
  189.7130  178.0460  137.6810 O   0  0  0  0  0  1  0  0  0  0  0  0
  189.6010  176.7190  138.1110 C   0  0  1  0  0  0  0  0  0  0  0  0
  188.6140  175.9700  137.2850 N   0  0  0  0  0  0  0  0  0  0  0  0
  185.2910  176.1310  135.5890 C   0  0  0  0  0  3  0  0  0  0  0  0
  186.6900  174.4690  137.3460 C   0  0  0  0  0  3  0  0  0  0  0  0
  187.2660  175.6750  136.9320 C   0  0  0  0  0  0  0  0  0  0  0  0
  184.7060  174.9290  136.0260 C   0  0  0  0  0  0  0  0  0  0  0  0
  185.4140  174.1050  136.9060 C   0  0  0  0  0  3  0  0  0  0  0  0
  186.5650  176.5200  136.0520 C   0  0  0  0  0  0  0  0  0  0  0  0
  187.2260  177.6800  135.5220 N   0  0  0  0  0  0  0  0  0  0  0  0
  187.2680  179.9500  136.5940 O   0  0  0  0  0  0  0  0  0  0  0  0
  187.2410  178.8290  136.0760 C   0  0  0  0  0  0  0  0  0  0  0  0
  183.4620  174.5160  135.5390 O   0  0  0  0  0  0  0  0  0  0  0  0
  182.4140  175.4490  135.3130 C   0  0  0  0  0  2  0  0  0  0  0  0
  180.8540  174.6610  138.6670 O   0  0  0  0  0  0  0  0  0  0  0  0
  181.8190  175.8480  136.5760 N   0  0  0  0  0  0  0  0  0  0  0  0
  181.4020  176.8760  137.4400 N   0  0  0  0  0  0  0  0  0  0  0  0
  181.2270  175.5220  137.8220 C   0  0  0  0  0  0  0  0  0  0  0  0
  181.3680  178.2700  137.7410 C   0  0  0  0  0  3  0  0  0  0  0  0
  182.4840  178.9020  138.1180 C   0  0  0  0  0  3  0  0  0  0  0  0
  183.7430  178.1300  138.4170 C   0  0  0  0  0  2  0  0  0  0  0  0
  184.6380  178.8810  139.4100 C   0  0  0  0  0  3  0  0  0  0  0  0
  185.9630  178.4780  139.2420 O   0  0  0  0  0  1  0  0  0  0  0  0
  184.5410  180.2700  139.2340 O   0  0  0  0  0  1  0  0  0  0  0  0
  190.7760  176.2050  136.0370 C   0  0  2  0  0  3  0  0  0  0  0  0
  190.1850  175.6740  134.8940 O   0  0  0  0  0  1  0  0  0  0  0  0
  192.2600  175.8640  136.0480 C   0  0  0  0  0  2  0  0  0  0  0  0
  192.5910  174.6640  136.9460 C   0  0  1  0  0  3  0  0  0  0  0  0
  192.9270  173.4850  136.1530 N   0  0  0  0  0  1  0  0  0  0  0  0
  193.8240  176.3790  138.1320 O   0  0  0  0  0  1  0  0  0  0  0  0
  193.6930  174.9970  137.9570 C   0  0  2  0  0  3  0  0  0  0  0  0
  195.0390  174.3760  137.5580 C   0  0  2  0  0  3  0  0  0  0  0  0
  196.2980  174.0920  139.5610 O   0  0  0  0  0  1  0  0  0  0  0  0
  195.3060  172.1950  138.7560 O   0  0  0  0  0  0  0  0  0  0  0  0
  195.5770  173.5530  138.6820 C   0  0  0  0  0  0  0  0  0  0  0  0
  196.4600  175.0040  135.9580 C   0  0  0  0  0  1  0  0  0  0  0  0
  195.9610  175.3780  137.2120 O   0  0  0  0  0  0  0  0  0  0  0  0
  189.4240  176.5040  139.6160 C   0  0  0  0  0  2  0  0  0  0  0  0
  190.7570  177.2280  140.6470 S   0  0  0  0  0  0  0  0  0  0  0  0
  189.2690  177.5200  144.4560 C   0  0  0  0  0  0  0  0  0  0  0  0
  186.2150  177.8560  142.7510 O   0  0  0  0  0  0  0  0  0  0  0  0
  187.9440  177.6900  144.2090 N   0  0  0  0  0  0  0  0  0  0  0  0
  189.7350  177.5120  145.8040 N   0  0  0  0  0  1  0  0  0  0  0  0
  190.1720  177.3600  143.3900 C   0  0  2  0  0  3  0  0  0  0  0  0
  189.6760  177.3940  142.0730 C   0  0  0  0  0  0  0  0  0  0  0  0
  188.3120  177.5770  141.8510 C   0  0  0  0  0  3  0  0  0  0  0  0
  187.4490  177.7170  142.9410 C   0  0  0  0  0  0  0  0  0  0  0  0
  191.7680  175.6320  143.9000 N   0  0  0  0  0  1  0  0  0  0  0  0
  191.6170  177.0580  143.6590 C   0  0  0  0  0  2  0  0  0  0  0  0
  1 26  1  6  0  0  0
  1  3  1  0  0  0  0
  3  2  1  6  0  0  0
  3 39  1  0  0  0  0
  4  1  1  0  0  0  0
  4  3  1  0  0  0  0
  5  8  2  0  0  0  0
  5 10  1  0  0  0  0
  7  4  1  0  0  0  0
  7  6  1  0  0  0  0
  8  9  1  0  0  0  0
  9  6  2  0  0  0  0
 10  7  2  0  0  0  0
 11 10  1  0  0  0  0
 11 13  2  0  0  0  0
 13 12  2  0  0  0  0
 14  8  1  0  0  0  0
 15 14  1  0  0  0  0
 15 17  1  0  0  0  0
 17 18  1  0  0  0  0
 17 19  1  0  0  0  0
 18 20  1  0  0  0  0
 18 19  1  0  0  0  0
 19 16  2  0  0  0  0
 20 21  2  0  0  0  0
 21 22  1  0  0  0  0
 22 23  1  0  0  0  0
 24 23  1  0  0  0  0
 25 23  1  0  0  0  0
 26 27  1  6  0  0  0
 26 28  1  0  0  0  0
 28 29  1  0  0  0  0
 29 30  1  6  0  0  0
 29 32  1  0  0  0  0
 32 31  1  6  0  0  0
 33 38  1  1  0  0  0
 33 32  1  0  0  0  0
 33 36  1  0  0  0  0
 36 35  2  0  0  0  0
 36 34  1  0  0  0  0
 37 38  1  0  0  0  0
 39 40  1  0  0  0  0
 40 46  1  0  0  0  0
 41 44  1  0  0  0  0
 42 48  2  0  0  0  0
 43 41  2  0  0  0  0
 45 50  1  1  0  0  0
 45 41  1  0  0  0  0
 46 45  1  0  0  0  0
 47 46  2  0  0  0  0
 47 48  1  0  0  0  0
 48 43  1  0  0  0  0
 50 49  1  0  0  0  0
M  END
>  <MODEL>
5

>  <REMARK>
 VINA RESULT:      -6.5      3.344      9.194
  Name = 
  19 active torsions:
  status: ('A' for Active; 'I' for Inactive)
    1  A    between atoms: C_1  and  C_2
    2  A    between atoms: C_1  and  C_14
    3  A    between atoms: C_2  and  C_31
    4  A    between atoms: C_3  and  C_22
    5  A    between atoms: S_4  and  C_36
    6  A    between atoms: S_4  and  C_40
    7  A    between atoms: C_5  and  C_14
    8  A    between atoms: O_6  and  C_15
    9  A    between atoms: O_6  and  C_34
   10  A    between atoms: N_7  and  C_50
   11  A    between atoms: C_15  and  N_42
   12  A    between atoms: C_16  and  C_31
   13  A    between atoms: C_16  and  O_32
   14  A    between atoms: C_16  and  C_41
   15  A    between atoms: C_22  and  C_37
   16  A    between atoms: C_25  and  C_33
   17  A    between atoms: C_28  and  N_49
   18  A    between atoms: C_29  and  N_43
   19  A    between atoms: C_40  and  C_48
                            x       y       z     vdW  Elec       q    Type
                         _______ _______ _______ _____ _____    ______ ____

>  <TORSDO>
F 19

$$$$
=
 OpenBabel10232410343D

 50 53  0  0  1  0  0  0  0  0999 V2000
  188.3110  178.2060  143.5180 C   0  0  1  0  0  3  0  0  0  0  0  0
  188.7740  176.1330  142.3720 O   0  0  0  0  0  1  0  0  0  0  0  0
  188.7240  177.5310  142.3710 C   0  0  1  0  0  0  0  0  0  0  0  0
  187.3170  178.0170  142.4000 N   0  0  0  0  0  0  0  0  0  0  0  0
  183.7210  178.8530  141.8410 C   0  0  0  0  0  3  0  0  0  0  0  0
  186.0460  178.4170  140.3550 C   0  0  0  0  0  3  0  0  0  0  0  0
  186.0750  178.2530  141.7440 C   0  0  0  0  0  0  0  0  0  0  0  0
  183.6900  178.9940  140.4430 C   0  0  0  0  0  0  0  0  0  0  0  0
  184.8590  178.7720  139.7070 C   0  0  0  0  0  3  0  0  0  0  0  0
  184.9060  178.4650  142.4990 C   0  0  0  0  0  0  0  0  0  0  0  0
  184.9860  178.4370  143.9330 N   0  0  0  0  0  0  0  0  0  0  0  0
  183.1690  179.1630  145.5060 O   0  0  0  0  0  0  0  0  0  0  0  0
  184.0550  178.8080  144.7220 C   0  0  0  0  0  0  0  0  0  0  0  0
  182.5290  179.4190  139.7870 O   0  0  0  0  0  0  0  0  0  0  0  0
  181.3270  178.6650  139.8590 C   0  0  0  0  0  2  0  0  0  0  0  0
  180.5210  175.0510  139.0890 O   0  0  0  0  0  0  0  0  0  0  0  0
  181.4330  177.4750  139.0340 N   0  0  0  0  0  0  0  0  0  0  0  0
  181.9500  176.8460  137.8870 N   0  0  0  0  0  0  0  0  0  0  0  0
  181.1220  176.1160  138.7770 C   0  0  0  0  0  0  0  0  0  0  0  0
  182.6540  176.9620  136.6530 C   0  0  0  0  0  3  0  0  0  0  0  0
  183.7560  176.2360  136.4380 C   0  0  0  0  0  3  0  0  0  0  0  0
  184.3790  175.4350  137.5520 C   0  0  0  0  0  2  0  0  0  0  0  0
  184.0900  173.9380  137.3940 C   0  0  0  0  0  3  0  0  0  0  0  0
  183.8260  173.6520  136.0540 O   0  0  0  0  0  1  0  0  0  0  0  0
  185.1700  173.1600  137.8390 O   0  0  0  0  0  1  0  0  0  0  0  0
  188.0120  177.2630  144.6880 C   0  0  2  0  0  3  0  0  0  0  0  0
  186.8190  176.5740  144.4940 O   0  0  0  0  0  1  0  0  0  0  0  0
  187.9460  178.0390  145.9960 C   0  0  0  0  0  2  0  0  0  0  0  0
  189.2350  177.9310  146.8230 C   0  0  1  0  0  3  0  0  0  0  0  0
  189.0010  178.2960  148.2180 N   0  0  0  0  0  1  0  0  0  0  0  0
  189.6460  175.7740  147.8460 O   0  0  0  0  0  1  0  0  0  0  0  0
  189.8760  176.5450  146.7010 C   0  0  2  0  0  3  0  0  0  0  0  0
  191.3790  176.6370  146.4080 C   0  0  2  0  0  3  0  0  0  0  0  0
  191.7530  178.0620  144.5350 O   0  0  0  0  0  1  0  0  0  0  0  0
  191.6310  175.8310  144.0520 O   0  0  0  0  0  0  0  0  0  0  0  0
  191.6040  176.8850  144.9520 C   0  0  0  0  0  0  0  0  0  0  0  0
  192.7330  175.7910  147.9660 C   0  0  0  0  0  1  0  0  0  0  0  0
  192.0320  175.4560  146.8000 O   0  0  0  0  0  0  0  0  0  0  0  0
  189.5930  178.2430  141.3310 C   0  0  0  0  0  2  0  0  0  0  0  0
  190.9630  177.2230  140.6610 S   0  0  0  0  0  0  0  0  0  0  0  0
  190.3790  176.7860  136.6270 C   0  0  0  0  0  0  0  0  0  0  0  0
  187.8670  179.1780  137.1900 O   0  0  0  0  0  0  0  0  0  0  0  0
  189.3490  177.6470  136.4150 N   0  0  0  0  0  0  0  0  0  0  0  0
  190.9030  176.0360  135.5330 N   0  0  0  0  0  1  0  0  0  0  0  0
  190.9170  176.6320  137.9170 C   0  0  2  0  0  3  0  0  0  0  0  0
  190.3600  177.3750  138.9760 C   0  0  0  0  0  0  0  0  0  0  0  0
  189.3000  178.2450  138.7270 C   0  0  0  0  0  3  0  0  0  0  0  0
  188.8060  178.3770  137.4280 C   0  0  0  0  0  0  0  0  0  0  0  0
  193.3220  176.5470  137.8460 N   0  0  0  0  0  1  0  0  0  0  0  0
  192.1270  175.7720  138.1360 C   0  0  0  0  0  2  0  0  0  0  0  0
  1 26  1  1  0  0  0
  3  2  1  1  0  0  0
  3  4  1  0  0  0  0
  3  1  1  0  0  0  0
  4  1  1  0  0  0  0
  5 10  1  0  0  0  0
  6  7  1  0  0  0  0
  7  4  1  0  0  0  0
  7 10  2  0  0  0  0
  8  5  2  0  0  0  0
  9  6  2  0  0  0  0
  9  8  1  0  0  0  0
 10 11  1  0  0  0  0
 11 13  2  0  0  0  0
 13 12  2  0  0  0  0
 14 15  1  0  0  0  0
 14  8  1  0  0  0  0
 17 15  1  0  0  0  0
 18 19  1  0  0  0  0
 18 17  1  0  0  0  0
 19 17  1  0  0  0  0
 19 16  2  0  0  0  0
 20 18  1  0  0  0  0
 21 20  2  0  0  0  0
 21 22  1  0  0  0  0
 23 22  1  0  0  0  0
 23 25  1  0  0  0  0
 24 23  1  0  0  0  0
 26 27  1  6  0  0  0
 26 28  1  0  0  0  0
 28 29  1  0  0  0  0
 29 30  1  1  0  0  0
 32 29  1  0  0  0  0
 32 31  1  1  0  0  0
 33 36  1  6  0  0  0
 33 32  1  0  0  0  0
 33 38  1  0  0  0  0
 34 36  1  0  0  0  0
 35 36  2  0  0  0  0
 38 37  1  0  0  0  0
 39  3  1  0  0  0  0
 40 39  1  0  0  0  0
 41 45  1  0  0  0  0
 42 48  2  0  0  0  0
 43 41  2  0  0  0  0
 43 48  1  0  0  0  0
 44 41  1  0  0  0  0
 45 50  1  6  0  0  0
 45 46  1  0  0  0  0
 46 40  1  0  0  0  0
 47 46  2  0  0  0  0
 48 47  1  0  0  0  0
 49 50  1  0  0  0  0
M  END
>  <MODEL>
6

>  <REMARK>
 VINA RESULT:      -6.4      2.309      8.956
  Name = 
  19 active torsions:
  status: ('A' for Active; 'I' for Inactive)
    1  A    between atoms: C_1  and  C_2
    2  A    between atoms: C_1  and  C_14
    3  A    between atoms: C_2  and  C_31
    4  A    between atoms: C_3  and  C_22
    5  A    between atoms: S_4  and  C_36
    6  A    between atoms: S_4  and  C_40
    7  A    between atoms: C_5  and  C_14
    8  A    between atoms: O_6  and  C_15
    9  A    between atoms: O_6  and  C_34
   10  A    between atoms: N_7  and  C_50
   11  A    between atoms: C_15  and  N_42
   12  A    between atoms: C_16  and  C_31
   13  A    between atoms: C_16  and  O_32
   14  A    between atoms: C_16  and  C_41
   15  A    between atoms: C_22  and  C_37
   16  A    between atoms: C_25  and  C_33
   17  A    between atoms: C_28  and  N_49
   18  A    between atoms: C_29  and  N_43
   19  A    between atoms: C_40  and  C_48
                            x       y       z     vdW  Elec       q    Type
                         _______ _______ _______ _____ _____    ______ ____

>  <TORSDO>
F 19

$$$$
=
 OpenBabel10232410343D

 50 53  0  0  1  0  0  0  0  0999 V2000
  188.5960  176.7070  141.3370 C   0  0  1  0  0  3  0  0  0  0  0  0
  189.1000  179.0460  141.6520 O   0  0  0  0  0  1  0  0  0  0  0  0
  188.6250  178.0090  140.8420 C   0  0  1  0  0  0  0  0  0  0  0  0
  189.7310  177.1030  140.4270 N   0  0  0  0  0  0  0  0  0  0  0  0
  191.8370  176.1320  137.5000 C   0  0  0  0  0  3  0  0  0  0  0  0
  192.1330  177.2830  140.0290 C   0  0  0  0  0  3  0  0  0  0  0  0
  190.8730  176.8330  139.6200 C   0  0  0  0  0  0  0  0  0  0  0  0
  193.1050  176.5650  137.9240 C   0  0  0  0  0  0  0  0  0  0  0  0
  193.2430  177.1380  139.1920 C   0  0  0  0  0  3  0  0  0  0  0  0
  190.7170  176.2460  138.3500 C   0  0  0  0  0  0  0  0  0  0  0  0
  189.3960  175.9240  137.8860 N   0  0  0  0  0  0  0  0  0  0  0  0
  188.8590  174.4070  135.9590 O   0  0  0  0  0  0  0  0  0  0  0  0
  189.1360  175.1500  136.9060 C   0  0  0  0  0  0  0  0  0  0  0  0
  194.2120  176.4940  137.0710 O   0  0  0  0  0  0  0  0  0  0  0  0
  194.1040  175.9260  135.7730 C   0  0  0  0  0  2  0  0  0  0  0  0
  193.2700  172.2660  136.2350 O   0  0  0  0  0  0  0  0  0  0  0  0
  194.4710  174.5220  135.8080 N   0  0  0  0  0  0  0  0  0  0  0  0
  195.4620  173.5320  135.6820 N   0  0  0  0  0  0  0  0  0  0  0  0
  194.1300  173.1590  135.9980 C   0  0  0  0  0  0  0  0  0  0  0  0
  196.7980  173.1920  135.3180 C   0  0  0  0  0  3  0  0  0  0  0  0
  197.8300  173.8310  135.8810 C   0  0  0  0  0  3  0  0  0  0  0  0
  197.6030  175.0380  136.7530 C   0  0  0  0  0  2  0  0  0  0  0  0
  197.6200  174.6660  138.2400 C   0  0  0  0  0  3  0  0  0  0  0  0
  198.4320  175.5610  138.9370 O   0  0  0  0  0  1  0  0  0  0  0  0
  196.3270  174.6780  138.7840 O   0  0  0  0  0  1  0  0  0  0  0  0
  189.0620  176.6140  142.7930 C   0  0  2  0  0  3  0  0  0  0  0  0
  189.9900  175.5910  142.9670 O   0  0  0  0  0  1  0  0  0  0  0  0
  187.8760  176.3870  143.7210 C   0  0  0  0  0  2  0  0  0  0  0  0
  187.3710  177.6810  144.3750 C   0  0  1  0  0  3  0  0  0  0  0  0
  186.1080  178.1150  143.7850 N   0  0  0  0  0  1  0  0  0  0  0  0
  186.6710  178.6750  146.4700 O   0  0  0  0  0  1  0  0  0  0  0  0
  187.2660  177.5450  145.8980 C   0  0  2  0  0  3  0  0  0  0  0  0
  188.6330  177.2740  146.5410 C   0  0  2  0  0  3  0  0  0  0  0  0
  187.8560  176.7980  148.7430 O   0  0  0  0  0  1  0  0  0  0  0  0
  189.2710  178.5850  148.5740 O   0  0  0  0  0  0  0  0  0  0  0  0
  188.5680  177.5320  148.0110 C   0  0  0  0  0  0  0  0  0  0  0  0
  190.7780  177.2870  145.9310 C   0  0  0  0  0  1  0  0  0  0  0  0
  189.6230  178.0800  145.9550 O   0  0  0  0  0  0  0  0  0  0  0  0
  187.7030  178.4130  139.6880 C   0  0  0  0  0  2  0  0  0  0  0  0
  185.9520  178.6670  140.1690 S   0  0  0  0  0  0  0  0  0  0  0  0
  183.5710  177.5700  137.0180 C   0  0  0  0  0  0  0  0  0  0  0  0
  186.6690  177.1190  135.4220 O   0  0  0  0  0  0  0  0  0  0  0  0
  184.5020  177.2910  136.0680 N   0  0  0  0  0  0  0  0  0  0  0  0
  182.1860  177.4450  136.7000 N   0  0  0  0  0  1  0  0  0  0  0  0
  183.9710  177.9850  138.3000 C   0  0  2  0  0  3  0  0  0  0  0  0
  185.3470  178.1160  138.5700 C   0  0  0  0  0  0  0  0  0  0  0  0
  186.2780  177.8280  137.5730 C   0  0  0  0  0  3  0  0  0  0  0  0
  185.8360  177.4050  136.3180 C   0  0  0  0  0  0  0  0  0  0  0  0
  182.7290  176.9180  140.0650 N   0  0  0  0  0  1  0  0  0  0  0  0
  182.9540  178.1830  139.3850 C   0  0  0  0  0  2  0  0  0  0  0  0
  1 26  1  1  0  0  0
  3  1  1  0  0  0  0
  3  2  1  1  0  0  0
  4  3  1  0  0  0  0
  4  1  1  0  0  0  0
  5  8  2  0  0  0  0
  5 10  1  0  0  0  0
  7  6  1  0  0  0  0
  7  4  1  0  0  0  0
  8  9  1  0  0  0  0
  9  6  2  0  0  0  0
 10  7  2  0  0  0  0
 11 10  1  0  0  0  0
 12 13  2  0  0  0  0
 13 11  2  0  0  0  0
 14  8  1  0  0  0  0
 15 17  1  0  0  0  0
 15 14  1  0  0  0  0
 17 19  1  0  0  0  0
 18 17  1  0  0  0  0
 18 19  1  0  0  0  0
 19 16  2  0  0  0  0
 20 18  1  0  0  0  0
 20 21  2  0  0  0  0
 21 22  1  0  0  0  0
 22 23  1  0  0  0  0
 23 25  1  0  0  0  0
 23 24  1  0  0  0  0
 26 27  1  6  0  0  0
 26 28  1  0  0  0  0
 28 29  1  0  0  0  0
 29 30  1  6  0  0  0
 29 32  1  0  0  0  0
 32 31  1  1  0  0  0
 32 33  1  0  0  0  0
 33 38  1  6  0  0  0
 33 36  1  0  0  0  0
 36 35  2  0  0  0  0
 36 34  1  0  0  0  0
 37 38  1  0  0  0  0
 39 40  1  0  0  0  0
 39  3  1  0  0  0  0
 41 45  1  0  0  0  0
 42 48  2  0  0  0  0
 43 48  1  0  0  0  0
 43 41  2  0  0  0  0
 44 41  1  0  0  0  0
 45 46  1  0  0  0  0
 45 50  1  1  0  0  0
 46 40  1  0  0  0  0
 47 46  2  0  0  0  0
 48 47  1  0  0  0  0
 50 49  1  0  0  0  0
M  END
>  <MODEL>
7

>  <REMARK>
 VINA RESULT:      -6.3      3.663      9.738
  Name = 
  19 active torsions:
  status: ('A' for Active; 'I' for Inactive)
    1  A    between atoms: C_1  and  C_2
    2  A    between atoms: C_1  and  C_14
    3  A    between atoms: C_2  and  C_31
    4  A    between atoms: C_3  and  C_22
    5  A    between atoms: S_4  and  C_36
    6  A    between atoms: S_4  and  C_40
    7  A    between atoms: C_5  and  C_14
    8  A    between atoms: O_6  and  C_15
    9  A    between atoms: O_6  and  C_34
   10  A    between atoms: N_7  and  C_50
   11  A    between atoms: C_15  and  N_42
   12  A    between atoms: C_16  and  C_31
   13  A    between atoms: C_16  and  O_32
   14  A    between atoms: C_16  and  C_41
   15  A    between atoms: C_22  and  C_37
   16  A    between atoms: C_25  and  C_33
   17  A    between atoms: C_28  and  N_49
   18  A    between atoms: C_29  and  N_43
   19  A    between atoms: C_40  and  C_48
                            x       y       z     vdW  Elec       q    Type
                         _______ _______ _______ _____ _____    ______ ____

>  <TORSDO>
F 19

$$$$
=
 OpenBabel10232410343D

 50 53  0  0  1  0  0  0  0  0999 V2000
  189.9120  176.3450  139.5850 C   0  0  1  0  0  3  0  0  0  0  0  0
  191.0510  178.0210  140.8960 O   0  0  0  0  0  1  0  0  0  0  0  0
  190.1600  176.9450  140.8180 C   0  0  1  0  0  0  0  0  0  0  0  0
  188.9070  177.3370  140.1160 N   0  0  0  0  0  0  0  0  0  0  0  0
  185.5240  178.4890  139.0320 C   0  0  0  0  0  3  0  0  0  0  0  0
  187.1820  178.6140  141.2780 C   0  0  0  0  0  3  0  0  0  0  0  0
  187.6530  178.0120  140.1070 C   0  0  0  0  0  0  0  0  0  0  0  0
  185.0630  179.1130  140.2050 C   0  0  0  0  0  0  0  0  0  0  0  0
  185.9010  179.1720  141.3230 C   0  0  0  0  0  3  0  0  0  0  0  0
  186.8260  177.9500  138.9690 C   0  0  0  0  0  0  0  0  0  0  0  0
  187.2660  177.2030  137.8250 N   0  0  0  0  0  0  0  0  0  0  0  0
  186.2290  177.2910  135.5400 O   0  0  0  0  0  0  0  0  0  0  0  0
  186.7320  177.2570  136.6680 C   0  0  0  0  0  0  0  0  0  0  0  0
  183.7580  179.6120  140.2890 O   0  0  0  0  0  0  0  0  0  0  0  0
  182.6540  178.7450  140.5120 C   0  0  0  0  0  2  0  0  0  0  0  0
  181.4470  179.5860  137.0280 O   0  0  0  0  0  0  0  0  0  0  0  0
  182.0350  178.3880  139.2480 N   0  0  0  0  0  0  0  0  0  0  0  0
  181.4320  177.4120  138.4350 N   0  0  0  0  0  0  0  0  0  0  0  0
  181.5830  178.7360  137.9500 C   0  0  0  0  0  0  0  0  0  0  0  0
  181.0960  176.0410  138.2310 C   0  0  0  0  0  3  0  0  0  0  0  0
  182.0610  175.1170  138.1580 C   0  0  0  0  0  3  0  0  0  0  0  0
  183.5110  175.5230  138.0950 C   0  0  0  0  0  2  0  0  0  0  0  0
  184.3200  174.5710  137.2070 C   0  0  0  0  0  3  0  0  0  0  0  0
  184.1000  173.2530  137.6110 O   0  0  0  0  0  1  0  0  0  0  0  0
  183.9720  174.7140  135.8550 O   0  0  0  0  0  1  0  0  0  0  0  0
  190.7400  176.9520  138.4500 C   0  0  2  0  0  3  0  0  0  0  0  0
  189.9340  177.3560  137.3900 O   0  0  0  0  0  1  0  0  0  0  0  0
  191.7750  175.9530  137.9500 C   0  0  0  0  0  2  0  0  0  0  0  0
  193.1730  176.5680  137.7880 C   0  0  1  0  0  3  0  0  0  0  0  0
  193.7740  176.8650  139.0850 N   0  0  0  0  0  1  0  0  0  0  0  0
  193.7090  175.7200  135.5840 O   0  0  0  0  0  1  0  0  0  0  0  0
  194.0870  175.6860  136.9310 C   0  0  2  0  0  3  0  0  0  0  0  0
  194.1260  174.2400  137.4420 C   0  0  2  0  0  3  0  0  0  0  0  0
  196.3490  174.7630  138.1210 O   0  0  0  0  0  0  0  0  0  0  0  0
  195.3810  173.0090  139.2230 O   0  0  0  0  0  1  0  0  0  0  0  0
  195.3430  174.0260  138.2820 C   0  0  0  0  0  0  0  0  0  0  0  0
  192.7720  173.0110  136.1650 C   0  0  0  0  0  1  0  0  0  0  0  0
  194.1190  173.3360  136.3670 O   0  0  0  0  0  0  0  0  0  0  0  0
  189.9150  176.1690  142.1150 C   0  0  0  0  0  2  0  0  0  0  0  0
  191.1510  176.4860  143.4330 S   0  0  0  0  0  0  0  0  0  0  0  0
  189.1480  177.5100  146.8610 C   0  0  0  0  0  0  0  0  0  0  0  0
  186.3630  177.4210  144.7200 O   0  0  0  0  0  0  0  0  0  0  0  0
  187.8710  177.5950  146.4050 N   0  0  0  0  0  0  0  0  0  0  0  0
  189.4230  177.7850  148.2330 N   0  0  0  0  0  1  0  0  0  0  0  0
  190.1900  177.1580  145.9840 C   0  0  2  0  0  3  0  0  0  0  0  0
  189.8830  176.9130  144.6320 C   0  0  0  0  0  0  0  0  0  0  0  0
  188.5640  177.0150  144.1930 C   0  0  0  0  0  3  0  0  0  0  0  0
  187.5580  177.3520  145.1020 C   0  0  0  0  0  0  0  0  0  0  0  0
  191.6940  175.6040  147.0410 N   0  0  0  0  0  1  0  0  0  0  0  0
  191.5820  176.9500  146.5050 C   0  0  0  0  0  2  0  0  0  0  0  0
  1 26  1  6  0  0  0
  1  4  1  0  0  0  0
  1  3  1  0  0  0  0
  3  2  1  1  0  0  0
  3 39  1  0  0  0  0
  4  3  1  0  0  0  0
  5  8  1  0  0  0  0
  6  9  1  0  0  0  0
  7  4  1  0  0  0  0
  7  6  2  0  0  0  0
  8 14  1  0  0  0  0
  8  9  2  0  0  0  0
 10  5  2  0  0  0  0
 10  7  1  0  0  0  0
 11 10  1  0  0  0  0
 12 13  2  0  0  0  0
 13 11  2  0  0  0  0
 14 15  1  0  0  0  0
 16 19  2  0  0  0  0
 17 15  1  0  0  0  0
 18 17  1  0  0  0  0
 19 18  1  0  0  0  0
 19 17  1  0  0  0  0
 20 18  1  0  0  0  0
 21 20  2  0  0  0  0
 22 21  1  0  0  0  0
 23 24  1  0  0  0  0
 23 22  1  0  0  0  0
 25 23  1  0  0  0  0
 26 27  1  6  0  0  0
 28 26  1  0  0  0  0
 29 28  1  0  0  0  0
 29 30  1  1  0  0  0
 32 31  1  6  0  0  0
 32 33  1  0  0  0  0
 32 29  1  0  0  0  0
 33 38  1  6  0  0  0
 33 36  1  0  0  0  0
 34 36  2  0  0  0  0
 36 35  1  0  0  0  0
 37 38  1  0  0  0  0
 39 40  1  0  0  0  0
 40 46  1  0  0  0  0
 41 44  1  0  0  0  0
 42 48  2  0  0  0  0
 43 41  2  0  0  0  0
 45 50  1  1  0  0  0
 45 41  1  0  0  0  0
 46 45  1  0  0  0  0
 47 46  2  0  0  0  0
 47 48  1  0  0  0  0
 48 43  1  0  0  0  0
 50 49  1  0  0  0  0
M  END
>  <MODEL>
8

>  <REMARK>
 VINA RESULT:      -6.3      3.332      9.389
  Name = 
  19 active torsions:
  status: ('A' for Active; 'I' for Inactive)
    1  A    between atoms: C_1  and  C_2
    2  A    between atoms: C_1  and  C_14
    3  A    between atoms: C_2  and  C_31
    4  A    between atoms: C_3  and  C_22
    5  A    between atoms: S_4  and  C_36
    6  A    between atoms: S_4  and  C_40
    7  A    between atoms: C_5  and  C_14
    8  A    between atoms: O_6  and  C_15
    9  A    between atoms: O_6  and  C_34
   10  A    between atoms: N_7  and  C_50
   11  A    between atoms: C_15  and  N_42
   12  A    between atoms: C_16  and  C_31
   13  A    between atoms: C_16  and  O_32
   14  A    between atoms: C_16  and  C_41
   15  A    between atoms: C_22  and  C_37
   16  A    between atoms: C_25  and  C_33
   17  A    between atoms: C_28  and  N_49
   18  A    between atoms: C_29  and  N_43
   19  A    between atoms: C_40  and  C_48
                            x       y       z     vdW  Elec       q    Type
                         _______ _______ _______ _____ _____    ______ ____

>  <TORSDO>
F 19

$$$$
=
 OpenBabel10232410343D

 50 53  0  0  1  0  0  0  0  0999 V2000
  183.5020  178.1610  139.3930 C   0  0  1  0  0  3  0  0  0  0  0  0
  184.8560  180.1190  138.9970 O   0  0  0  0  0  1  0  0  0  0  0  0
  184.7580  178.7570  139.3010 C   0  0  1  0  0  0  0  0  0  0  0  0
  184.2070  178.5510  140.6680 N   0  0  0  0  0  0  0  0  0  0  0  0
  185.8120  178.6860  144.0380 C   0  0  0  0  0  3  0  0  0  0  0  0
  183.2590  178.7880  142.9050 C   0  0  0  0  0  3  0  0  0  0  0  0
  184.3700  178.5670  142.0830 C   0  0  0  0  0  0  0  0  0  0  0  0
  184.6910  178.8840  144.8630 C   0  0  0  0  0  0  0  0  0  0  0  0
  183.4170  178.9310  144.2870 C   0  0  0  0  0  3  0  0  0  0  0  0
  185.6580  178.5090  142.6470 C   0  0  0  0  0  0  0  0  0  0  0  0
  186.7980  178.4300  141.7780 N   0  0  0  0  0  0  0  0  0  0  0  0
  188.7760  176.9180  142.1030 O   0  0  0  0  0  0  0  0  0  0  0  0
  187.7980  177.6560  141.9530 C   0  0  0  0  0  0  0  0  0  0  0  0
  184.8390  179.1020  146.2370 O   0  0  0  0  0  0  0  0  0  0  0  0
  185.1880  178.0410  147.1150 C   0  0  0  0  0  2  0  0  0  0  0  0
  188.2440  178.1560  149.3410 O   0  0  0  0  0  0  0  0  0  0  0  0
  186.6250  178.0160  147.3230 N   0  0  0  0  0  0  0  0  0  0  0  0
  187.9190  177.9260  146.7810 N   0  0  0  0  0  0  0  0  0  0  0  0
  187.7520  178.0730  148.1820 C   0  0  0  0  0  0  0  0  0  0  0  0
  188.7450  177.6820  145.6440 C   0  0  0  0  0  3  0  0  0  0  0  0
  189.8790  176.9860  145.7750 C   0  0  0  0  0  3  0  0  0  0  0  0
  190.4020  176.6170  147.1390 C   0  0  0  0  0  2  0  0  0  0  0  0
  191.6890  175.7900  147.0400 C   0  0  0  0  0  3  0  0  0  0  0  0
  192.1440  175.7900  145.7210 O   0  0  0  0  0  1  0  0  0  0  0  0
  192.6880  176.2970  147.8850 O   0  0  0  0  0  1  0  0  0  0  0  0
  182.3590  179.1300  139.0760 C   0  0  2  0  0  3  0  0  0  0  0  0
  181.1810  178.7540  139.7150 O   0  0  0  0  0  1  0  0  0  0  0  0
  182.1220  179.2030  137.5740 C   0  0  0  0  0  2  0  0  0  0  0  0
  181.0380  178.2300  137.0900 C   0  0  1  0  0  3  0  0  0  0  0  0
  180.1690  178.8560  136.0970 N   0  0  0  0  0  1  0  0  0  0  0  0
  181.8370  176.9660  135.1840 O   0  0  0  0  0  1  0  0  0  0  0  0
  181.6400  176.9210  136.5690 C   0  0  2  0  0  3  0  0  0  0  0  0
  180.7820  175.7080  136.9500 C   0  0  2  0  0  3  0  0  0  0  0  0
  182.6260  174.8280  138.1760 O   0  0  0  0  0  0  0  0  0  0  0  0
  180.5770  174.5260  139.1460 O   0  0  0  0  0  1  0  0  0  0  0  0
  181.3810  175.0040  138.1230 C   0  0  0  0  0  0  0  0  0  0  0  0
  180.0170  173.6930  136.3770 C   0  0  0  0  0  1  0  0  0  0  0  0
  180.6690  174.8220  135.8650 O   0  0  0  0  0  0  0  0  0  0  0  0
  185.9950  177.9040  139.0060 C   0  0  0  0  0  2  0  0  0  0  0  0
  186.5460  177.9450  137.2580 S   0  0  0  0  0  0  0  0  0  0  0  0
  189.6810  175.3070  137.3900 C   0  0  0  0  0  0  0  0  0  0  0  0
  190.9750  177.6600  139.6570 O   0  0  0  0  0  0  0  0  0  0  0  0
  190.5140  175.9310  138.2640 N   0  0  0  0  0  0  0  0  0  0  0  0
  190.0770  174.0660  136.8080 N   0  0  0  0  0  1  0  0  0  0  0  0
  188.4420  175.8840  137.0610 C   0  0  2  0  0  3  0  0  0  0  0  0
  188.0940  177.1190  137.6410 C   0  0  0  0  0  0  0  0  0  0  0  0
  188.9740  177.7380  138.5280 C   0  0  0  0  0  3  0  0  0  0  0  0
  190.1880  177.1220  138.8380 C   0  0  0  0  0  0  0  0  0  0  0  0
  186.3810  174.6410  137.0090 N   0  0  0  0  0  1  0  0  0  0  0  0
  187.4700  175.1450  136.1880 C   0  0  0  0  0  2  0  0  0  0  0  0
  1 26  1  6  0  0  0
  1  4  1  0  0  0  0
  3  2  1  6  0  0  0
  3  1  1  0  0  0  0
  3  4  1  0  0  0  0
  4  7  1  0  0  0  0
  5  8  1  0  0  0  0
  6  9  1  0  0  0  0
  7 10  1  0  0  0  0
  7  6  2  0  0  0  0
  8 14  1  0  0  0  0
  9  8  2  0  0  0  0
 10  5  2  0  0  0  0
 11 13  2  0  0  0  0
 11 10  1  0  0  0  0
 13 12  2  0  0  0  0
 14 15  1  0  0  0  0
 15 17  1  0  0  0  0
 17 19  1  0  0  0  0
 18 17  1  0  0  0  0
 18 19  1  0  0  0  0
 19 16  2  0  0  0  0
 20 21  2  0  0  0  0
 20 18  1  0  0  0  0
 21 22  1  0  0  0  0
 23 22  1  0  0  0  0
 23 25  1  0  0  0  0
 24 23  1  0  0  0  0
 26 27  1  1  0  0  0
 28 26  1  0  0  0  0
 29 30  1  6  0  0  0
 29 28  1  0  0  0  0
 32 31  1  6  0  0  0
 32 33  1  0  0  0  0
 32 29  1  0  0  0  0
 33 38  1  6  0  0  0
 33 36  1  0  0  0  0
 36 34  2  0  0  0  0
 36 35  1  0  0  0  0
 38 37  1  0  0  0  0
 39  3  1  0  0  0  0
 40 46  1  0  0  0  0
 40 39  1  0  0  0  0
 41 43  2  0  0  0  0
 43 48  1  0  0  0  0
 44 41  1  0  0  0  0
 45 50  1  1  0  0  0
 45 41  1  0  0  0  0
 45 46  1  0  0  0  0
 46 47  2  0  0  0  0
 47 48  1  0  0  0  0
 48 42  2  0  0  0  0
 50 49  1  0  0  0  0
M  END
>  <MODEL>
9

>  <REMARK>
 VINA RESULT:      -6.1      2.515      4.474
  Name = 
  19 active torsions:
  status: ('A' for Active; 'I' for Inactive)
    1  A    between atoms: C_1  and  C_2
    2  A    between atoms: C_1  and  C_14
    3  A    between atoms: C_2  and  C_31
    4  A    between atoms: C_3  and  C_22
    5  A    between atoms: S_4  and  C_36
    6  A    between atoms: S_4  and  C_40
    7  A    between atoms: C_5  and  C_14
    8  A    between atoms: O_6  and  C_15
    9  A    between atoms: O_6  and  C_34
   10  A    between atoms: N_7  and  C_50
   11  A    between atoms: C_15  and  N_42
   12  A    between atoms: C_16  and  C_31
   13  A    between atoms: C_16  and  O_32
   14  A    between atoms: C_16  and  C_41
   15  A    between atoms: C_22  and  C_37
   16  A    between atoms: C_25  and  C_33
   17  A    between atoms: C_28  and  N_49
   18  A    between atoms: C_29  and  N_43
   19  A    between atoms: C_40  and  C_48
                            x       y       z     vdW  Elec       q    Type
                         _______ _______ _______ _____ _____    ______ ____

>  <TORSDO>
F 19

$$$$
