=
 OpenBabel10232409363D

 33 35  0  0  1  0  0  0  0  0999 V2000
  186.3360  178.0680  144.8300 C   0  0  0  0  0  0  0  0  0  0  0  0
  190.5610  176.8870  141.0150 C   0  0  0  0  0  1  0  0  0  0  0  0
  189.6510  177.1590  142.1570 C   0  0  0  0  0  0  0  0  0  0  0  0
  185.3300  178.1580  143.9770 C   0  0  0  0  0  0  0  0  0  0  0  0
  188.2680  177.4300  141.9030 N   0  0  0  0  0  2  0  0  0  0  0  0
  185.8440  177.9730  142.5820 C   0  0  2  0  0  3  0  0  0  0  0  0
  187.2840  177.7200  142.9040 C   0  0  0  0  0  0  0  0  0  0  0  0
  187.5560  177.7810  144.1670 N   0  0  0  0  0  0  0  0  0  0  0  0
  190.1080  177.1490  143.3300 O   0  0  0  0  0  0  0  0  0  0  0  0
  184.0020  178.3590  144.3600 O   0  0  0  0  0  0  0  0  0  0  0  0
  183.3550  179.6120  144.2120 C   0  0  0  0  0  1  0  0  0  0  0  0
  185.7290  179.2730  141.8010 C   0  0  0  0  0  2  0  0  0  0  0  0
  184.8950  179.0630  140.5850 C   0  0  0  0  0  3  0  0  0  0  0  0
  183.8300  178.2680  140.6360 C   0  0  0  0  0  3  0  0  0  0  0  0
  184.6360  176.0990  136.9460 C   0  0  0  0  0  0  0  0  0  0  0  0
  183.8190  177.7430  138.3240 C   0  0  0  0  0  0  0  0  0  0  0  0
  183.0820  176.7120  139.0230 C   0  0  0  0  0  0  0  0  0  0  0  0
  182.9960  178.0530  139.4190 C   0  0  1  0  0  3  0  0  0  0  0  0
  183.8820  173.6510  137.3130 C   0  0  0  0  0  1  0  0  0  0  0  0
  184.6300  177.5160  137.2640 C   0  0  0  0  0  3  0  0  0  0  0  0
  183.0360  175.4070  138.8050 N   0  0  0  0  0  0  0  0  0  0  0  0
  183.8490  175.0860  137.7190 C   0  0  0  0  0  0  0  0  0  0  0  0
  186.8550  175.2450  136.0320 N   0  0  0  0  0  2  0  0  0  0  0  0
  185.5030  175.6700  135.8230 C   0  0  0  0  0  0  0  0  0  0  0  0
  185.0440  175.6570  134.6500 O   0  0  0  0  0  0  0  0  0  0  0  0
  187.5020  175.3840  137.2670 N   0  0  0  0  0  1  0  0  0  0  0  0
  186.2080  178.1370  146.3170 C   0  0  0  0  0  2  0  0  0  0  0  0
  187.3840  177.4470  146.9890 C   0  0  0  0  0  2  0  0  0  0  0  0
  187.7440  178.1510  148.2070 N   0  0  0  0  0  2  0  0  0  0  0  0
  189.1870  178.0660  148.3310 C   0  0  0  0  0  2  0  0  0  0  0  0
  189.7520  177.3340  147.1300 C   0  0  0  0  0  2  0  0  0  0  0  0
  191.9360  176.8070  146.3240 O   0  0  0  0  0  1  0  0  0  0  0  0
  191.1210  176.7670  147.4560 C   0  0  0  0  0  2  0  0  0  0  0  0
  1 27  1  0  0  0  0
  2  3  1  0  0  0  0
  3  9  2  0  0  0  0
  4 10  1  0  0  0  0
  4  1  2  0  0  0  0
  5  3  1  0  0  0  0
  5  7  1  0  0  0  0
  6 12  1  6  0  0  0
  6  7  1  0  0  0  0
  6  4  1  0  0  0  0
  7  8  2  0  0  0  0
  8  1  1  0  0  0  0
 11 10  1  0  0  0  0
 13 14  2  0  0  0  0
 13 12  1  0  0  0  0
 15 20  2  0  0  0  0
 15 22  1  0  0  0  0
 16 17  2  0  0  0  0
 16 18  1  0  0  0  0
 17 18  1  0  0  0  0
 18 14  1  1  0  0  0
 19 22  1  0  0  0  0
 20 16  1  0  0  0  0
 21 17  1  0  0  0  0
 22 21  2  0  0  0  0
 23 26  1  0  0  0  0
 24 23  1  0  0  0  0
 24 15  1  0  0  0  0
 25 24  2  0  0  0  0
 27 28  1  0  0  0  0
 28 29  1  0  0  0  0
 29 30  1  0  0  0  0
 31 33  1  0  0  0  0
 31 30  1  0  0  0  0
 32 33  1  0  0  0  0
M  END
>  <MODEL>
1

>  <REMARK>
 VINA RESULT:      -7.0      0.000      0.000
  Name = 
  11 active torsions:
  status: ('A' for Active; 'I' for Inactive)
    1  A    between atoms: O_1  and  C_16
    2  A    between atoms: C_3  and  C_6
    3  A    between atoms: C_5  and  N_12
    4  A    between atoms: C_5  and  C_19
    5  A    between atoms: C_7  and  C_21
    6  A    between atoms: C_11  and  C_15
    7  A    between atoms: N_12  and  C_33
    8  A    between atoms: C_13  and  C_14
    9  A    between atoms: C_15  and  C_20
   10  A    between atoms: C_19  and  C_32
   11  A    between atoms: C_21  and  C_33
                            x       y       z     vdW  Elec       q    Type
                         _______ _______ _______ _____ _____    ______ ____

>  <TORSDO>
F 11

$$$$
=
 OpenBabel10232409363D

 33 35  0  0  1  0  0  0  0  0999 V2000
  190.9070  177.6330  142.3700 C   0  0  0  0  0  0  0  0  0  0  0  0
  193.2460  176.4050  137.1910 C   0  0  0  0  0  1  0  0  0  0  0  0
  192.8750  176.7240  138.5940 C   0  0  0  0  0  0  0  0  0  0  0  0
  189.6330  177.5340  142.0300 C   0  0  0  0  0  0  0  0  0  0  0  0
  191.4910  176.8390  138.9450 N   0  0  0  0  0  2  0  0  0  0  0  0
  189.5310  177.2380  140.5660 C   0  0  2  0  0  3  0  0  0  0  0  0
  190.9920  177.1530  140.2500 C   0  0  0  0  0  0  0  0  0  0  0  0
  191.7600  177.3820  141.2660 N   0  0  0  0  0  0  0  0  0  0  0  0
  193.7800  176.8880  139.4530 O   0  0  0  0  0  0  0  0  0  0  0  0
  188.5760  177.6590  142.9350 O   0  0  0  0  0  0  0  0  0  0  0  0
  187.8130  176.5430  143.3630 C   0  0  0  0  0  1  0  0  0  0  0  0
  188.9310  178.4250  139.8280 C   0  0  0  0  0  2  0  0  0  0  0  0
  188.1470  177.9510  138.6550 C   0  0  0  0  0  3  0  0  0  0  0  0
  188.4270  178.4080  137.4370 C   0  0  0  0  0  3  0  0  0  0  0  0
  185.8810  174.9160  136.8900 C   0  0  0  0  0  0  0  0  0  0  0  0
  187.3970  176.5590  136.3680 C   0  0  0  0  0  0  0  0  0  0  0  0
  186.3690  177.5280  136.6790 C   0  0  0  0  0  0  0  0  0  0  0  0
  187.6410  177.9380  136.2600 C   0  0  1  0  0  3  0  0  0  0  0  0
  183.4890  175.5870  137.6160 C   0  0  0  0  0  1  0  0  0  0  0  0
  187.2330  175.2170  136.4520 C   0  0  0  0  0  3  0  0  0  0  0  0
  185.1240  177.3410  137.0880 N   0  0  0  0  0  0  0  0  0  0  0  0
  184.8680  175.9750  137.1990 C   0  0  0  0  0  0  0  0  0  0  0  0
  185.0240  172.6930  135.9910 N   0  0  0  0  0  2  0  0  0  0  0  0
  185.5400  173.4850  137.0660 C   0  0  0  0  0  0  0  0  0  0  0  0
  185.7230  172.9330  138.1840 O   0  0  0  0  0  0  0  0  0  0  0  0
  184.6310  173.2530  134.7680 N   0  0  0  0  0  1  0  0  0  0  0  0
  191.4090  177.8590  143.7590 C   0  0  0  0  0  2  0  0  0  0  0  0
  191.5690  176.5380  144.4930 C   0  0  0  0  0  2  0  0  0  0  0  0
  191.3940  176.7370  145.9210 N   0  0  0  0  0  2  0  0  0  0  0  0
  190.0970  177.3610  146.1010 C   0  0  0  0  0  2  0  0  0  0  0  0
  189.4480  176.8180  147.3600 C   0  0  0  0  0  2  0  0  0  0  0  0
  188.1780  178.0750  148.9410 O   0  0  0  0  0  1  0  0  0  0  0  0
  188.1550  177.5580  147.6450 C   0  0  0  0  0  2  0  0  0  0  0  0
  1 27  1  0  0  0  0
  2  3  1  0  0  0  0
  3  5  1  0  0  0  0
  3  9  2  0  0  0  0
  4  1  2  0  0  0  0
  4 10  1  0  0  0  0
  5  7  1  0  0  0  0
  6 12  1  6  0  0  0
  6  4  1  0  0  0  0
  7  6  1  0  0  0  0
  7  8  2  0  0  0  0
  8  1  1  0  0  0  0
 10 11  1  0  0  0  0
 13 12  1  0  0  0  0
 14 13  2  0  0  0  0
 15 24  1  0  0  0  0
 15 22  1  0  0  0  0
 16 20  1  0  0  0  0
 16 17  2  0  0  0  0
 17 21  1  0  0  0  0
 18 16  1  0  0  0  0
 18 17  1  0  0  0  0
 18 14  1  1  0  0  0
 20 15  2  0  0  0  0
 21 22  2  0  0  0  0
 22 19  1  0  0  0  0
 23 24  1  0  0  0  0
 24 25  2  0  0  0  0
 26 23  1  0  0  0  0
 27 28  1  0  0  0  0
 28 29  1  0  0  0  0
 29 30  1  0  0  0  0
 30 31  1  0  0  0  0
 31 33  1  0  0  0  0
 33 32  1  0  0  0  0
M  END
>  <MODEL>
2

>  <REMARK>
 VINA RESULT:      -6.9      2.962      4.252
  Name = 
  11 active torsions:
  status: ('A' for Active; 'I' for Inactive)
    1  A    between atoms: O_1  and  C_16
    2  A    between atoms: C_3  and  C_6
    3  A    between atoms: C_5  and  N_12
    4  A    between atoms: C_5  and  C_19
    5  A    between atoms: C_7  and  C_21
    6  A    between atoms: C_11  and  C_15
    7  A    between atoms: N_12  and  C_33
    8  A    between atoms: C_13  and  C_14
    9  A    between atoms: C_15  and  C_20
   10  A    between atoms: C_19  and  C_32
   11  A    between atoms: C_21  and  C_33
                            x       y       z     vdW  Elec       q    Type
                         _______ _______ _______ _____ _____    ______ ____

>  <TORSDO>
F 11

$$$$
=
 OpenBabel10232409363D

 33 35  0  0  1  0  0  0  0  0999 V2000
  187.9530  177.5970  143.4660 C   0  0  0  0  0  0  0  0  0  0  0  0
  184.2640  179.5720  139.4300 C   0  0  0  0  0  1  0  0  0  0  0  0
  185.0180  179.0770  140.6100 C   0  0  0  0  0  0  0  0  0  0  0  0
  189.0540  177.6020  142.7340 C   0  0  0  0  0  0  0  0  0  0  0  0
  186.4150  178.7890  140.4800 N   0  0  0  0  0  2  0  0  0  0  0  0
  188.7220  178.0340  141.3390 C   0  0  2  0  0  3  0  0  0  0  0  0
  187.2590  178.2970  141.5270 C   0  0  0  0  0  0  0  0  0  0  0  0
  186.8320  178.0430  142.7210 N   0  0  0  0  0  0  0  0  0  0  0  0
  184.4200  178.9170  141.7060 O   0  0  0  0  0  0  0  0  0  0  0  0
  190.3190  177.2810  143.2330 O   0  0  0  0  0  0  0  0  0  0  0  0
  191.4330  178.1460  143.0790 C   0  0  0  0  0  1  0  0  0  0  0  0
  188.9000  176.8750  140.3710 C   0  0  0  0  0  2  0  0  0  0  0  0
  189.9430  177.2100  139.3640 C   0  0  0  0  0  3  0  0  0  0  0  0
  190.2090  176.3650  138.3720 C   0  0  0  0  0  3  0  0  0  0  0  0
  194.2170  174.7720  137.7600 C   0  0  0  0  0  0  0  0  0  0  0  0
  192.5200  176.3160  137.8440 C   0  0  0  0  0  0  0  0  0  0  0  0
  191.8170  175.5140  136.8650 C   0  0  0  0  0  0  0  0  0  0  0  0
  191.2560  176.6960  137.3630 C   0  0  1  0  0  3  0  0  0  0  0  0
  194.0030  172.7430  136.1690 C   0  0  0  0  0  1  0  0  0  0  0  0
  193.7370  176.0090  138.3510 C   0  0  0  0  0  3  0  0  0  0  0  0
  192.1760  174.3790  136.2850 N   0  0  0  0  0  0  0  0  0  0  0  0
  193.4310  173.9900  136.7530 C   0  0  0  0  0  0  0  0  0  0  0  0
  196.7610  174.7210  137.6550 N   0  0  0  0  0  2  0  0  0  0  0  0
  195.5300  174.2720  138.2320 C   0  0  0  0  0  0  0  0  0  0  0  0
  195.5780  173.4440  139.1800 O   0  0  0  0  0  0  0  0  0  0  0  0
  196.8030  175.5060  136.4950 N   0  0  0  0  0  1  0  0  0  0  0  0
  187.8940  177.2810  144.9250 C   0  0  0  0  0  2  0  0  0  0  0  0
  188.8700  178.1510  145.7020 C   0  0  0  0  0  2  0  0  0  0  0  0
  188.8320  177.8040  147.1120 N   0  0  0  0  0  2  0  0  0  0  0  0
  189.6590  176.6240  147.2760 C   0  0  0  0  0  2  0  0  0  0  0  0
  191.0520  176.9080  146.7520 C   0  0  0  0  0  2  0  0  0  0  0  0
  192.7610  176.2910  148.2980 O   0  0  0  0  0  1  0  0  0  0  0  0
  192.0170  175.8310  147.2110 C   0  0  0  0  0  2  0  0  0  0  0  0
  1 27  1  0  0  0  0
  2  3  1  0  0  0  0
  3  9  2  0  0  0  0
  4 10  1  0  0  0  0
  4  1  2  0  0  0  0
  5  3  1  0  0  0  0
  5  7  1  0  0  0  0
  6 12  1  6  0  0  0
  6  7  1  0  0  0  0
  6  4  1  0  0  0  0
  7  8  2  0  0  0  0
  8  1  1  0  0  0  0
 11 10  1  0  0  0  0
 13 12  1  0  0  0  0
 14 13  2  0  0  0  0
 15 24  1  0  0  0  0
 15 20  1  0  0  0  0
 16 20  2  0  0  0  0
 17 18  1  0  0  0  0
 17 16  1  0  0  0  0
 18 16  1  0  0  0  0
 18 14  1  1  0  0  0
 19 22  1  0  0  0  0
 21 22  1  0  0  0  0
 21 17  2  0  0  0  0
 22 15  2  0  0  0  0
 23 24  1  0  0  0  0
 24 25  2  0  0  0  0
 26 23  1  0  0  0  0
 27 28  1  0  0  0  0
 28 29  1  0  0  0  0
 29 30  1  0  0  0  0
 31 33  1  0  0  0  0
 31 30  1  0  0  0  0
 33 32  1  0  0  0  0
M  END
>  <MODEL>
3

>  <REMARK>
 VINA RESULT:      -6.9      4.049      6.805
  Name = 
  11 active torsions:
  status: ('A' for Active; 'I' for Inactive)
    1  A    between atoms: O_1  and  C_16
    2  A    between atoms: C_3  and  C_6
    3  A    between atoms: C_5  and  N_12
    4  A    between atoms: C_5  and  C_19
    5  A    between atoms: C_7  and  C_21
    6  A    between atoms: C_11  and  C_15
    7  A    between atoms: N_12  and  C_33
    8  A    between atoms: C_13  and  C_14
    9  A    between atoms: C_15  and  C_20
   10  A    between atoms: C_19  and  C_32
   11  A    between atoms: C_21  and  C_33
                            x       y       z     vdW  Elec       q    Type
                         _______ _______ _______ _____ _____    ______ ____

>  <TORSDO>
F 11

$$$$
=
 OpenBabel10232409363D

 33 35  0  0  1  0  0  0  0  0999 V2000
  188.7320  177.3940  142.2980 C   0  0  0  0  0  0  0  0  0  0  0  0
  184.1790  179.5620  139.4040 C   0  0  0  0  0  1  0  0  0  0  0  0
  185.1980  179.0120  140.3350 C   0  0  0  0  0  0  0  0  0  0  0  0
  189.6140  177.4230  141.3130 C   0  0  0  0  0  0  0  0  0  0  0  0
  186.5120  178.7210  139.8450 N   0  0  0  0  0  2  0  0  0  0  0  0
  188.9480  177.9160  140.0650 C   0  0  2  0  0  3  0  0  0  0  0  0
  187.5840  178.1790  140.6250 C   0  0  0  0  0  0  0  0  0  0  0  0
  187.4670  177.8780  141.8780 N   0  0  0  0  0  0  0  0  0  0  0  0
  184.8930  178.8100  141.5390 O   0  0  0  0  0  0  0  0  0  0  0  0
  190.9570  177.0740  141.4630 O   0  0  0  0  0  0  0  0  0  0  0  0
  191.9790  177.6350  140.6550 C   0  0  0  0  0  1  0  0  0  0  0  0
  188.8570  176.7970  139.0380 C   0  0  0  0  0  2  0  0  0  0  0  0
  189.9650  176.9220  138.0520 C   0  0  0  0  0  3  0  0  0  0  0  0
  190.4260  175.8430  137.4260 C   0  0  0  0  0  3  0  0  0  0  0  0
  194.5920  174.5870  137.6230 C   0  0  0  0  0  0  0  0  0  0  0  0
  192.7740  175.8880  137.1020 C   0  0  0  0  0  0  0  0  0  0  0  0
  192.2410  174.7550  136.3760 C   0  0  0  0  0  0  0  0  0  0  0  0
  191.5380  175.9640  136.4400 C   0  0  1  0  0  3  0  0  0  0  0  0
  194.7060  172.1590  136.7330 C   0  0  0  0  0  1  0  0  0  0  0  0
  193.9560  175.8850  137.7640 C   0  0  0  0  0  3  0  0  0  0  0  0
  192.7490  173.5450  136.2060 N   0  0  0  0  0  0  0  0  0  0  0  0
  193.9770  173.4550  136.8580 C   0  0  0  0  0  0  0  0  0  0  0  0
  197.1050  174.9570  137.8090 N   0  0  0  0  0  2  0  0  0  0  0  0
  195.8880  174.4000  138.3170 C   0  0  0  0  0  0  0  0  0  0  0  0
  195.9290  173.7510  139.3970 O   0  0  0  0  0  0  0  0  0  0  0  0
  197.1880  175.5460  136.5400 N   0  0  0  0  0  1  0  0  0  0  0  0
  189.0370  177.0170  143.7110 C   0  0  0  0  0  2  0  0  0  0  0  0
  187.7600  176.9360  144.5320 C   0  0  0  0  0  2  0  0  0  0  0  0
  187.6970  178.0460  145.4670 N   0  0  0  0  0  2  0  0  0  0  0  0
  186.8180  177.6360  146.5450 C   0  0  0  0  0  2  0  0  0  0  0  0
  185.7270  178.6730  146.7270 C   0  0  0  0  0  2  0  0  0  0  0  0
  183.6150  179.1400  145.7190 O   0  0  0  0  0  1  0  0  0  0  0  0
  184.9500  178.8490  145.4360 C   0  0  0  0  0  2  0  0  0  0  0  0
  1 27  1  0  0  0  0
  2  3  1  0  0  0  0
  3  9  2  0  0  0  0
  4 10  1  0  0  0  0
  4  1  2  0  0  0  0
  5  3  1  0  0  0  0
  5  7  1  0  0  0  0
  6 12  1  6  0  0  0
  6  7  1  0  0  0  0
  6  4  1  0  0  0  0
  7  8  2  0  0  0  0
  8  1  1  0  0  0  0
 11 10  1  0  0  0  0
 13 12  1  0  0  0  0
 14 13  2  0  0  0  0
 15 20  1  0  0  0  0
 15 24  1  0  0  0  0
 16 20  2  0  0  0  0
 17 18  1  0  0  0  0
 17 16  1  0  0  0  0
 18 16  1  0  0  0  0
 18 14  1  1  0  0  0
 19 22  1  0  0  0  0
 21 17  2  0  0  0  0
 21 22  1  0  0  0  0
 22 15  2  0  0  0  0
 23 24  1  0  0  0  0
 24 25  2  0  0  0  0
 26 23  1  0  0  0  0
 27 28  1  0  0  0  0
 28 29  1  0  0  0  0
 29 30  1  0  0  0  0
 30 31  1  0  0  0  0
 33 32  1  0  0  0  0
 33 31  1  0  0  0  0
M  END
>  <MODEL>
4

>  <REMARK>
 VINA RESULT:      -6.7      4.382      7.555
  Name = 
  11 active torsions:
  status: ('A' for Active; 'I' for Inactive)
    1  A    between atoms: O_1  and  C_16
    2  A    between atoms: C_3  and  C_6
    3  A    between atoms: C_5  and  N_12
    4  A    between atoms: C_5  and  C_19
    5  A    between atoms: C_7  and  C_21
    6  A    between atoms: C_11  and  C_15
    7  A    between atoms: N_12  and  C_33
    8  A    between atoms: C_13  and  C_14
    9  A    between atoms: C_15  and  C_20
   10  A    between atoms: C_19  and  C_32
   11  A    between atoms: C_21  and  C_33
                            x       y       z     vdW  Elec       q    Type
                         _______ _______ _______ _____ _____    ______ ____

>  <TORSDO>
F 11

$$$$
=
 OpenBabel10232409363D

 33 35  0  0  1  0  0  0  0  0999 V2000
  188.3820  177.7340  143.5270 C   0  0  0  0  0  0  0  0  0  0  0  0
  188.8860  178.6040  137.8000 C   0  0  0  0  0  1  0  0  0  0  0  0
  188.9970  178.3790  139.2640 C   0  0  0  0  0  0  0  0  0  0  0  0
  187.0640  177.6480  143.5900 C   0  0  0  0  0  0  0  0  0  0  0  0
  187.8050  178.2420  140.0460 N   0  0  0  0  0  2  0  0  0  0  0  0
  186.4860  177.8740  142.2260 C   0  0  2  0  0  3  0  0  0  0  0  0
  187.7640  178.0340  141.4620 C   0  0  0  0  0  0  0  0  0  0  0  0
  188.8250  177.9610  142.1990 N   0  0  0  0  0  0  0  0  0  0  0  0
  190.1360  178.3120  139.7970 O   0  0  0  0  0  0  0  0  0  0  0  0
  186.3600  177.3550  144.7590 O   0  0  0  0  0  0  0  0  0  0  0  0
  186.0780  178.3420  145.7380 C   0  0  0  0  0  1  0  0  0  0  0  0
  185.7170  179.1860  142.1910 C   0  0  0  0  0  2  0  0  0  0  0  0
  184.5250  179.0520  141.3090 C   0  0  0  0  0  3  0  0  0  0  0  0
  183.4370  178.4270  141.7480 C   0  0  0  0  0  3  0  0  0  0  0  0
  183.0740  177.2740  137.5640 C   0  0  0  0  0  0  0  0  0  0  0  0
  182.6290  178.3900  139.5200 C   0  0  0  0  0  0  0  0  0  0  0  0
  182.3450  177.1060  140.1220 C   0  0  0  0  0  0  0  0  0  0  0  0
  182.2430  178.2880  140.8660 C   0  0  1  0  0  3  0  0  0  0  0  0
  182.8310  174.6980  137.4940 C   0  0  0  0  0  1  0  0  0  0  0  0
  183.0080  178.5620  138.2310 C   0  0  0  0  0  3  0  0  0  0  0  0
  182.3880  175.8930  139.5920 N   0  0  0  0  0  0  0  0  0  0  0  0
  182.7700  175.9800  138.2550 C   0  0  0  0  0  0  0  0  0  0  0  0
  184.8650  177.0230  135.7690 N   0  0  0  0  0  2  0  0  0  0  0  0
  183.5070  177.2780  136.1460 C   0  0  0  0  0  0  0  0  0  0  0  0
  182.6610  177.4910  135.2370 O   0  0  0  0  0  0  0  0  0  0  0  0
  185.9010  176.9430  136.7080 N   0  0  0  0  0  1  0  0  0  0  0  0
  189.3120  177.5050  144.6730 C   0  0  0  0  0  2  0  0  0  0  0  0
  190.7270  177.9270  144.3080 C   0  0  0  0  0  2  0  0  0  0  0  0
  191.6080  177.7500  145.4480 N   0  0  0  0  0  2  0  0  0  0  0  0
  191.4600  176.3750  145.8850 C   0  0  0  0  0  2  0  0  0  0  0  0
  191.4260  176.3280  147.3990 C   0  0  0  0  0  2  0  0  0  0  0  0
  193.1670  176.5610  149.0140 O   0  0  0  0  0  1  0  0  0  0  0  0
  192.7360  175.7850  147.9380 C   0  0  0  0  0  2  0  0  0  0  0  0
  1  4  2  0  0  0  0
  1 27  1  0  0  0  0
  2  3  1  0  0  0  0
  3  9  2  0  0  0  0
  3  5  1  0  0  0  0
  4 10  1  0  0  0  0
  5  7  1  0  0  0  0
  6 12  1  1  0  0  0
  6  4  1  0  0  0  0
  7  8  2  0  0  0  0
  7  6  1  0  0  0  0
  8  1  1  0  0  0  0
 10 11  1  0  0  0  0
 13 14  2  0  0  0  0
 13 12  1  0  0  0  0
 15 20  2  0  0  0  0
 15 22  1  0  0  0  0
 16 17  2  0  0  0  0
 16 18  1  0  0  0  0
 17 18  1  0  0  0  0
 18 14  1  1  0  0  0
 19 22  1  0  0  0  0
 20 16  1  0  0  0  0
 21 17  1  0  0  0  0
 22 21  2  0  0  0  0
 23 24  1  0  0  0  0
 23 26  1  0  0  0  0
 24 15  1  0  0  0  0
 25 24  2  0  0  0  0
 28 27  1  0  0  0  0
 28 29  1  0  0  0  0
 29 30  1  0  0  0  0
 30 31  1  0  0  0  0
 31 33  1  0  0  0  0
 33 32  1  0  0  0  0
M  END
>  <MODEL>
5

>  <REMARK>
 VINA RESULT:      -6.5      2.071      2.572
  Name = 
  11 active torsions:
  status: ('A' for Active; 'I' for Inactive)
    1  A    between atoms: O_1  and  C_16
    2  A    between atoms: C_3  and  C_6
    3  A    between atoms: C_5  and  N_12
    4  A    between atoms: C_5  and  C_19
    5  A    between atoms: C_7  and  C_21
    6  A    between atoms: C_11  and  C_15
    7  A    between atoms: N_12  and  C_33
    8  A    between atoms: C_13  and  C_14
    9  A    between atoms: C_15  and  C_20
   10  A    between atoms: C_19  and  C_32
   11  A    between atoms: C_21  and  C_33
                            x       y       z     vdW  Elec       q    Type
                         _______ _______ _______ _____ _____    ______ ____

>  <TORSDO>
F 11

$$$$
=
 OpenBabel10232409363D

 33 35  0  0  1  0  0  0  0  0999 V2000
  190.4730  176.8950  143.1500 C   0  0  0  0  0  0  0  0  0  0  0  0
  184.8380  178.3270  143.0850 C   0  0  0  0  0  1  0  0  0  0  0  0
  186.2340  177.8760  143.3210 C   0  0  0  0  0  0  0  0  0  0  0  0
  190.8160  177.4240  141.9880 C   0  0  0  0  0  0  0  0  0  0  0  0
  187.2260  178.1070  142.3150 N   0  0  0  0  0  2  0  0  0  0  0  0
  189.6020  178.0050  141.3290 C   0  0  2  0  0  3  0  0  0  0  0  0
  188.6010  177.7160  142.4040 C   0  0  0  0  0  0  0  0  0  0  0  0
  189.0940  177.0870  143.4210 N   0  0  0  0  0  0  0  0  0  0  0  0
  186.5230  177.2960  144.4010 O   0  0  0  0  0  0  0  0  0  0  0  0
  192.1240  177.4480  141.5020 O   0  0  0  0  0  0  0  0  0  0  0  0
  192.4180  177.3620  140.1160 C   0  0  0  0  0  1  0  0  0  0  0  0
  189.2430  177.2050  140.0860 C   0  0  0  0  0  2  0  0  0  0  0  0
  188.1840  177.9120  139.3160 C   0  0  0  0  0  3  0  0  0  0  0  0
  187.7230  177.3910  138.1820 C   0  0  0  0  0  3  0  0  0  0  0  0
  183.3780  177.2060  138.4190 C   0  0  0  0  0  0  0  0  0  0  0  0
  185.4610  177.3770  137.4710 C   0  0  0  0  0  0  0  0  0  0  0  0
  185.6710  178.5580  138.2800 C   0  0  0  0  0  0  0  0  0  0  0  0
  186.6650  178.0990  137.4060 C   0  0  1  0  0  3  0  0  0  0  0  0
  182.6260  178.9790  140.1480 C   0  0  0  0  0  1  0  0  0  0  0  0
  184.3300  176.6330  137.4840 C   0  0  0  0  0  3  0  0  0  0  0  0
  184.8660  179.1390  139.1550 N   0  0  0  0  0  0  0  0  0  0  0  0
  183.6670  178.4320  139.2290 C   0  0  0  0  0  0  0  0  0  0  0  0
  180.9540  176.7860  137.7600 N   0  0  0  0  0  2  0  0  0  0  0  0
  182.0890  176.4920  138.5810 C   0  0  0  0  0  0  0  0  0  0  0  0
  181.9840  175.5850  139.4490 O   0  0  0  0  0  0  0  0  0  0  0  0
  180.9220  177.8830  136.8890 N   0  0  0  0  0  1  0  0  0  0  0  0
  191.4210  176.2760  144.1240 C   0  0  0  0  0  2  0  0  0  0  0  0
  191.5790  177.1580  145.3530 C   0  0  0  0  0  2  0  0  0  0  0  0
  191.5980  176.3400  146.5530 N   0  0  0  0  0  2  0  0  0  0  0  0
  190.8010  177.0340  147.5460 C   0  0  0  0  0  2  0  0  0  0  0  0
  189.3460  177.0200  147.1240 C   0  0  0  0  0  2  0  0  0  0  0  0
  187.2180  177.9460  147.6800 O   0  0  0  0  0  1  0  0  0  0  0  0
  188.4800  177.6520  148.1970 C   0  0  0  0  0  2  0  0  0  0  0  0
  1  8  1  0  0  0  0
  1 27  1  0  0  0  0
  2  3  1  0  0  0  0
  3  9  2  0  0  0  0
  4  1  2  0  0  0  0
  5  7  1  0  0  0  0
  5  3  1  0  0  0  0
  6 12  1  6  0  0  0
  6  4  1  0  0  0  0
  6  7  1  0  0  0  0
  7  8  2  0  0  0  0
 10  4  1  0  0  0  0
 11 10  1  0  0  0  0
 13 12  1  0  0  0  0
 14 13  2  0  0  0  0
 15 24  1  0  0  0  0
 15 22  1  0  0  0  0
 16 20  1  0  0  0  0
 16 17  2  0  0  0  0
 17 21  1  0  0  0  0
 18 16  1  0  0  0  0
 18 14  1  1  0  0  0
 18 17  1  0  0  0  0
 20 15  2  0  0  0  0
 21 22  2  0  0  0  0
 22 19  1  0  0  0  0
 23 24  1  0  0  0  0
 24 25  2  0  0  0  0
 26 23  1  0  0  0  0
 27 28  1  0  0  0  0
 28 29  1  0  0  0  0
 29 30  1  0  0  0  0
 31 30  1  0  0  0  0
 31 33  1  0  0  0  0
 32 33  1  0  0  0  0
M  END
>  <MODEL>
6

>  <REMARK>
 VINA RESULT:      -6.5      2.541      4.746
  Name = 
  11 active torsions:
  status: ('A' for Active; 'I' for Inactive)
    1  A    between atoms: O_1  and  C_16
    2  A    between atoms: C_3  and  C_6
    3  A    between atoms: C_5  and  N_12
    4  A    between atoms: C_5  and  C_19
    5  A    between atoms: C_7  and  C_21
    6  A    between atoms: C_11  and  C_15
    7  A    between atoms: N_12  and  C_33
    8  A    between atoms: C_13  and  C_14
    9  A    between atoms: C_15  and  C_20
   10  A    between atoms: C_19  and  C_32
   11  A    between atoms: C_21  and  C_33
                            x       y       z     vdW  Elec       q    Type
                         _______ _______ _______ _____ _____    ______ ____

>  <TORSDO>
F 11

$$$$
=
 OpenBabel10232409363D

 33 35  0  0  1  0  0  0  0  0999 V2000
  186.7350  178.5750  141.0980 C   0  0  0  0  0  0  0  0  0  0  0  0
  191.4920  176.2120  143.4640 C   0  0  0  0  0  1  0  0  0  0  0  0
  190.2050  176.8520  143.0860 C   0  0  0  0  0  0  0  0  0  0  0  0
  187.0120  178.3280  139.8290 C   0  0  0  0  0  0  0  0  0  0  0  0
  189.8650  176.9800  141.7000 N   0  0  0  0  0  2  0  0  0  0  0  0
  188.3540  177.6690  139.7330 C   0  0  2  0  0  3  0  0  0  0  0  0
  188.6690  177.5840  141.1950 C   0  0  0  0  0  0  0  0  0  0  0  0
  187.7600  178.1000  141.9560 N   0  0  0  0  0  0  0  0  0  0  0  0
  189.4340  177.2740  143.9870 O   0  0  0  0  0  0  0  0  0  0  0  0
  186.1460  178.6200  138.7740 O   0  0  0  0  0  0  0  0  0  0  0  0
  185.9190  177.7110  137.7090 C   0  0  0  0  0  1  0  0  0  0  0  0
  189.3520  178.6000  139.0610 C   0  0  0  0  0  2  0  0  0  0  0  0
  189.7530  178.0460  137.7390 C   0  0  0  0  0  3  0  0  0  0  0  0
  190.0780  176.7610  137.6240 C   0  0  0  0  0  3  0  0  0  0  0  0
  193.7680  174.8490  136.3210 C   0  0  0  0  0  0  0  0  0  0  0  0
  191.8840  176.1570  136.2130 C   0  0  0  0  0  0  0  0  0  0  0  0
  191.1100  174.9660  136.4870 C   0  0  0  0  0  0  0  0  0  0  0  0
  190.4840  176.2050  136.3020 C   0  0  1  0  0  3  0  0  0  0  0  0
  193.5220  172.3130  136.7760 C   0  0  0  0  0  1  0  0  0  0  0  0
  193.2350  176.1840  136.1150 C   0  0  0  0  0  3  0  0  0  0  0  0
  191.5130  173.7220  136.6920 N   0  0  0  0  0  0  0  0  0  0  0  0
  192.9030  173.6600  136.6050 C   0  0  0  0  0  0  0  0  0  0  0  0
  196.0370  174.7110  137.4690 N   0  0  0  0  0  2  0  0  0  0  0  0
  195.2420  174.7050  136.2780 C   0  0  0  0  0  0  0  0  0  0  0  0
  195.8220  174.5540  135.1700 O   0  0  0  0  0  0  0  0  0  0  0  0
  195.5060  175.0380  138.7240 N   0  0  0  0  0  1  0  0  0  0  0  0
  185.4590  179.1690  141.5970 C   0  0  0  0  0  2  0  0  0  0  0  0
  184.9950  178.4590  142.8600 C   0  0  0  0  0  2  0  0  0  0  0  0
  183.8080  179.1080  143.3880 N   0  0  0  0  0  2  0  0  0  0  0  0
  183.8090  178.8830  144.8210 C   0  0  0  0  0  2  0  0  0  0  0  0
  185.1890  178.4350  145.2590 C   0  0  0  0  0  2  0  0  0  0  0  0
  185.6150  179.6470  147.2690 O   0  0  0  0  0  1  0  0  0  0  0  0
  185.2720  178.3900  146.7730 C   0  0  0  0  0  2  0  0  0  0  0  0
  1 27  1  0  0  0  0
  1  8  1  0  0  0  0
  3  2  1  0  0  0  0
  3  9  2  0  0  0  0
  4  1  2  0  0  0  0
  5  3  1  0  0  0  0
  6 12  1  6  0  0  0
  6  4  1  0  0  0  0
  6  7  1  0  0  0  0
  7  5  1  0  0  0  0
  7  8  2  0  0  0  0
 10  4  1  0  0  0  0
 11 10  1  0  0  0  0
 13 12  1  0  0  0  0
 14 13  2  0  0  0  0
 15 22  1  0  0  0  0
 16 18  1  0  0  0  0
 16 17  2  0  0  0  0
 17 21  1  0  0  0  0
 18 17  1  0  0  0  0
 18 14  1  1  0  0  0
 20 16  1  0  0  0  0
 20 15  2  0  0  0  0
 22 21  2  0  0  0  0
 22 19  1  0  0  0  0
 23 26  1  0  0  0  0
 24 15  1  0  0  0  0
 24 23  1  0  0  0  0
 25 24  2  0  0  0  0
 27 28  1  0  0  0  0
 28 29  1  0  0  0  0
 29 30  1  0  0  0  0
 30 31  1  0  0  0  0
 31 33  1  0  0  0  0
 33 32  1  0  0  0  0
M  END
>  <MODEL>
7

>  <REMARK>
 VINA RESULT:      -6.4      4.478      6.761
  Name = 
  11 active torsions:
  status: ('A' for Active; 'I' for Inactive)
    1  A    between atoms: O_1  and  C_16
    2  A    between atoms: C_3  and  C_6
    3  A    between atoms: C_5  and  N_12
    4  A    between atoms: C_5  and  C_19
    5  A    between atoms: C_7  and  C_21
    6  A    between atoms: C_11  and  C_15
    7  A    between atoms: N_12  and  C_33
    8  A    between atoms: C_13  and  C_14
    9  A    between atoms: C_15  and  C_20
   10  A    between atoms: C_19  and  C_32
   11  A    between atoms: C_21  and  C_33
                            x       y       z     vdW  Elec       q    Type
                         _______ _______ _______ _____ _____    ______ ____

>  <TORSDO>
F 11

$$$$
=
 OpenBabel10232409363D

 33 35  0  0  1  0  0  0  0  0999 V2000
  189.2220  177.7850  141.8680 C   0  0  0  0  0  0  0  0  0  0  0  0
  186.9710  178.4610  136.5500 C   0  0  0  0  0  1  0  0  0  0  0  0
  187.3260  178.3400  137.9880 C   0  0  0  0  0  0  0  0  0  0  0  0
  190.4800  177.5800  141.5160 C   0  0  0  0  0  0  0  0  0  0  0  0
  188.6760  178.0340  138.3550 N   0  0  0  0  0  2  0  0  0  0  0  0
  190.5840  177.5790  140.0220 C   0  0  2  0  0  3  0  0  0  0  0  0
  189.1540  177.8770  139.6960 C   0  0  0  0  0  0  0  0  0  0  0  0
  188.3920  177.9850  140.7360 N   0  0  0  0  0  0  0  0  0  0  0  0
  186.4360  178.5090  138.8620 O   0  0  0  0  0  0  0  0  0  0  0  0
  191.5270  177.4270  142.4280 O   0  0  0  0  0  0  0  0  0  0  0  0
  191.6570  176.2720  143.2420 C   0  0  0  0  0  1  0  0  0  0  0  0
  190.9300  176.1860  139.5180 C   0  0  0  0  0  2  0  0  0  0  0  0
  191.4550  176.2640  138.1270 C   0  0  0  0  0  3  0  0  0  0  0  0
  191.4020  175.1980  137.3330 C   0  0  0  0  0  3  0  0  0  0  0  0
  195.4800  175.1900  135.8020 C   0  0  0  0  0  0  0  0  0  0  0  0
  193.2560  175.7370  135.9570 C   0  0  0  0  0  0  0  0  0  0  0  0
  192.9560  174.3330  135.7780 C   0  0  0  0  0  0  0  0  0  0  0  0
  191.9300  175.2730  135.9410 C   0  0  1  0  0  3  0  0  0  0  0  0
  196.1510  172.7210  135.4160 C   0  0  0  0  0  1  0  0  0  0  0  0
  194.5070  176.2530  135.9840 C   0  0  0  0  0  3  0  0  0  0  0  0
  193.7750  173.3060  135.6140 N   0  0  0  0  0  0  0  0  0  0  0  0
  195.0950  173.7530  135.6270 C   0  0  0  0  0  0  0  0  0  0  0  0
  197.7100  175.4110  137.0140 N   0  0  0  0  0  2  0  0  0  0  0  0
  196.9090  175.5800  135.8380 C   0  0  0  0  0  0  0  0  0  0  0  0
  197.4520  176.0560  134.8060 O   0  0  0  0  0  0  0  0  0  0  0  0
  197.1590  175.0490  138.2500 N   0  0  0  0  0  1  0  0  0  0  0  0
  188.7350  177.9140  143.2740 C   0  0  0  0  0  2  0  0  0  0  0  0
  187.9810  176.6640  143.6970 C   0  0  0  0  0  2  0  0  0  0  0  0
  186.7550  177.0310  144.3840 N   0  0  0  0  0  2  0  0  0  0  0  0
  187.1450  177.7570  145.5780 C   0  0  0  0  0  2  0  0  0  0  0  0
  185.9060  178.3000  146.2630 C   0  0  0  0  0  2  0  0  0  0  0  0
  183.7720  179.1330  145.5970 O   0  0  0  0  0  1  0  0  0  0  0  0
  185.1380  179.2060  145.3200 C   0  0  0  0  0  2  0  0  0  0  0  0
  1 27  1  0  0  0  0
  2  3  1  0  0  0  0
  3  5  1  0  0  0  0
  3  9  2  0  0  0  0
  4  1  2  0  0  0  0
  4 10  1  0  0  0  0
  5  7  1  0  0  0  0
  6 12  1  6  0  0  0
  6  4  1  0  0  0  0
  7  6  1  0  0  0  0
  7  8  2  0  0  0  0
  8  1  1  0  0  0  0
 10 11  1  0  0  0  0
 13 12  1  0  0  0  0
 14 13  2  0  0  0  0
 15 24  1  0  0  0  0
 15 20  1  0  0  0  0
 16 20  2  0  0  0  0
 17 18  1  0  0  0  0
 17 16  1  0  0  0  0
 18 16  1  0  0  0  0
 18 14  1  1  0  0  0
 19 22  1  0  0  0  0
 21 22  1  0  0  0  0
 21 17  2  0  0  0  0
 22 15  2  0  0  0  0
 23 26  1  0  0  0  0
 24 23  1  0  0  0  0
 25 24  2  0  0  0  0
 27 28  1  0  0  0  0
 28 29  1  0  0  0  0
 29 30  1  0  0  0  0
 30 31  1  0  0  0  0
 33 32  1  0  0  0  0
 33 31  1  0  0  0  0
M  END
>  <MODEL>
8

>  <REMARK>
 VINA RESULT:      -6.3      5.203      8.111
  Name = 
  11 active torsions:
  status: ('A' for Active; 'I' for Inactive)
    1  A    between atoms: O_1  and  C_16
    2  A    between atoms: C_3  and  C_6
    3  A    between atoms: C_5  and  N_12
    4  A    between atoms: C_5  and  C_19
    5  A    between atoms: C_7  and  C_21
    6  A    between atoms: C_11  and  C_15
    7  A    between atoms: N_12  and  C_33
    8  A    between atoms: C_13  and  C_14
    9  A    between atoms: C_15  and  C_20
   10  A    between atoms: C_19  and  C_32
   11  A    between atoms: C_21  and  C_33
                            x       y       z     vdW  Elec       q    Type
                         _______ _______ _______ _____ _____    ______ ____

>  <TORSDO>
F 11

$$$$
=
 OpenBabel10232409363D

 33 35  0  0  1  0  0  0  0  0999 V2000
  190.8220  177.3900  141.2050 C   0  0  0  0  0  0  0  0  0  0  0  0
  193.5770  176.1730  136.2320 C   0  0  0  0  0  1  0  0  0  0  0  0
  193.0900  176.4740  137.6030 C   0  0  0  0  0  0  0  0  0  0  0  0
  189.5820  177.3700  140.7440 C   0  0  0  0  0  0  0  0  0  0  0  0
  191.6880  176.6560  137.8260 N   0  0  0  0  0  2  0  0  0  0  0  0
  189.6050  177.1190  139.2680 C   0  0  2  0  0  3  0  0  0  0  0  0
  191.0840  176.9610  139.0880 C   0  0  0  0  0  0  0  0  0  0  0  0
  191.7620  177.1210  140.1780 N   0  0  0  0  0  0  0  0  0  0  0  0
  193.9170  176.5660  138.5480 O   0  0  0  0  0  0  0  0  0  0  0  0
  188.4530  177.5280  141.5490 O   0  0  0  0  0  0  0  0  0  0  0  0
  187.6610  178.7050  141.5160 C   0  0  0  0  0  1  0  0  0  0  0  0
  189.1400  178.3560  138.5150 C   0  0  0  0  0  2  0  0  0  0  0  0
  187.9010  178.0490  137.7500 C   0  0  0  0  0  3  0  0  0  0  0  0
  187.9330  177.9910  136.4210 C   0  0  0  0  0  3  0  0  0  0  0  0
  184.9870  174.8140  136.8570 C   0  0  0  0  0  0  0  0  0  0  0  0
  186.3500  176.3350  135.8110 C   0  0  0  0  0  0  0  0  0  0  0  0
  185.6560  177.3750  136.5400 C   0  0  0  0  0  0  0  0  0  0  0  0
  186.6930  177.6880  135.6520 C   0  0  1  0  0  3  0  0  0  0  0  0
  183.1840  175.6580  138.5100 C   0  0  0  0  0  1  0  0  0  0  0  0
  186.0750  175.0140  135.9160 C   0  0  0  0  0  3  0  0  0  0  0  0
  184.6670  177.2790  137.4140 N   0  0  0  0  0  0  0  0  0  0  0  0
  184.3160  175.9410  137.5810 C   0  0  0  0  0  0  0  0  0  0  0  0
  183.6110  172.7440  136.2970 N   0  0  0  0  0  2  0  0  0  0  0  0
  184.5770  173.4130  137.1160 C   0  0  0  0  0  0  0  0  0  0  0  0
  185.1010  172.7760  138.0680 O   0  0  0  0  0  0  0  0  0  0  0  0
  182.8560  173.4170  135.3270 N   0  0  0  0  0  1  0  0  0  0  0  0
  191.2010  177.5520  142.6410 C   0  0  0  0  0  2  0  0  0  0  0  0
  190.8760  176.2910  143.4260 C   0  0  0  0  0  2  0  0  0  0  0  0
  190.6570  176.6190  144.8240 N   0  0  0  0  0  2  0  0  0  0  0  0
  189.7780  177.7730  144.8520 C   0  0  0  0  0  2  0  0  0  0  0  0
  188.7720  177.6120  145.9740 C   0  0  0  0  0  2  0  0  0  0  0  0
  187.0290  176.9110  144.5020 O   0  0  0  0  0  1  0  0  0  0  0  0
  187.3670  177.8670  145.4610 C   0  0  0  0  0  2  0  0  0  0  0  0
  1 27  1  0  0  0  0
  2  3  1  0  0  0  0
  3  5  1  0  0  0  0
  3  9  2  0  0  0  0
  4  1  2  0  0  0  0
  4 10  1  0  0  0  0
  5  7  1  0  0  0  0
  6 12  1  6  0  0  0
  6  4  1  0  0  0  0
  7  6  1  0  0  0  0
  7  8  2  0  0  0  0
  8  1  1  0  0  0  0
 11 10  1  0  0  0  0
 13 12  1  0  0  0  0
 14 13  2  0  0  0  0
 15 24  1  0  0  0  0
 15 22  1  0  0  0  0
 16 20  1  0  0  0  0
 16 17  2  0  0  0  0
 17 21  1  0  0  0  0
 18 16  1  0  0  0  0
 18 14  1  1  0  0  0
 18 17  1  0  0  0  0
 20 15  2  0  0  0  0
 21 22  2  0  0  0  0
 22 19  1  0  0  0  0
 23 24  1  0  0  0  0
 24 25  2  0  0  0  0
 26 23  1  0  0  0  0
 27 28  1  0  0  0  0
 28 29  1  0  0  0  0
 29 30  1  0  0  0  0
 30 31  1  0  0  0  0
 32 33  1  0  0  0  0
 33 31  1  0  0  0  0
M  END
>  <MODEL>
9

>  <REMARK>
 VINA RESULT:      -6.2      2.937      4.674
  Name = 
  11 active torsions:
  status: ('A' for Active; 'I' for Inactive)
    1  A    between atoms: O_1  and  C_16
    2  A    between atoms: C_3  and  C_6
    3  A    between atoms: C_5  and  N_12
    4  A    between atoms: C_5  and  C_19
    5  A    between atoms: C_7  and  C_21
    6  A    between atoms: C_11  and  C_15
    7  A    between atoms: N_12  and  C_33
    8  A    between atoms: C_13  and  C_14
    9  A    between atoms: C_15  and  C_20
   10  A    between atoms: C_19  and  C_32
   11  A    between atoms: C_21  and  C_33
                            x       y       z     vdW  Elec       q    Type
                         _______ _______ _______ _____ _____    ______ ____

>  <TORSDO>
F 11

$$$$
