=
 OpenBabel10232408543D

 51 57  0  0  1  0  0  0  0  0999 V2000
  190.9550  176.4650  139.4480 C   0  0  2  0  0  3  0  0  0  0  0  0
  191.1520  175.5380  138.3380 N   0  0  0  0  0  2  0  0  0  0  0  0
  191.6980  176.2640  137.2670 N   0  0  0  0  0  0  0  0  0  0  0  0
  192.7210  175.4160  136.6720 C   0  0  0  0  0  2  0  0  0  0  0  0
  193.6980  174.9690  137.7400 C   0  0  0  0  0  1  0  0  0  0  0  0
  190.6330  176.4140  136.2840 C   0  0  0  0  0  2  0  0  0  0  0  0
  189.8860  175.1010  136.0970 C   0  0  0  0  0  2  0  0  0  0  0  0
  188.5760  175.3500  135.5080 N   0  0  0  0  0  2  0  0  0  0  0  0
  187.5800  174.8010  136.4210 C   0  0  2  0  0  3  0  0  0  0  0  0
  186.4150  174.2320  135.6310 C   0  0  0  0  0  1  0  0  0  0  0  0
  187.0550  175.8800  137.3610 C   0  0  0  0  0  2  0  0  0  0  0  0
  185.2160  177.4250  136.9260 N   0  0  0  0  0  0  0  0  0  0  0  0
  186.3570  178.1920  137.4990 C   0  0  0  0  0  2  0  0  0  0  0  0
  183.4450  176.2100  136.0530 O   0  0  0  0  0  0  0  0  0  0  0  0
  186.6540  177.1580  136.6310 C   0  0  1  0  0  3  0  0  0  0  0  0
  183.8240  177.1380  136.8090 C   0  0  0  0  0  0  0  0  0  0  0  0
  182.4790  179.7950  139.1980 C   0  0  0  0  0  2  0  0  0  0  0  0
  180.4610  178.2520  138.1560 C   0  0  0  0  0  2  0  0  0  0  0  0
  182.8420  177.8930  137.5970 C   0  0  0  0  0  0  0  0  0  0  0  0
  181.7570  177.5900  140.3080 C   0  0  0  0  0  2  0  0  0  0  0  0
  181.6260  179.1070  140.2800 C   0  0  2  0  0  3  0  0  0  0  0  0
  181.5790  177.5850  137.4870 N   0  0  0  0  0  0  0  0  0  0  0  0
  183.3090  178.8970  138.4650 O   0  0  0  0  0  0  0  0  0  0  0  0
  180.5150  178.2220  139.7020 C   0  0  1  0  0  3  0  0  0  0  0  0
  189.9210  177.4360  139.1210 N   0  0  0  0  0  2  0  0  0  0  0  0
  187.9950  177.9440  140.8030 C   0  0  0  0  0  0  0  0  0  0  0  0
  188.8840  177.7100  140.0230 C   0  0  0  0  0  0  0  0  0  0  0  0
  185.4720  178.5610  146.3620 C   0  0  0  0  0  2  0  0  0  0  0  0
  186.9460  178.2090  141.7450 C   0  0  0  0  0  0  0  0  0  0  0  0
  184.9080  178.7360  143.5930 C   0  0  0  0  0  0  0  0  0  0  0  0
  183.8540  178.9940  144.6010 C   0  0  0  0  0  0  0  0  0  0  0  0
  186.0890  178.0920  144.0060 C   0  0  0  0  0  0  0  0  0  0  0  0
  184.1230  178.8500  145.8670 N   0  0  0  0  0  0  0  0  0  0  0  0
  186.2180  177.6130  145.4210 C   0  0  0  0  0  2  0  0  0  0  0  0
  185.7740  178.8500  141.3290 C   0  0  0  0  0  3  0  0  0  0  0  0
  184.7540  179.1120  142.2510 C   0  0  0  0  0  3  0  0  0  0  0  0
  187.0990  177.8220  143.0790 C   0  0  0  0  0  3  0  0  0  0  0  0
  181.5630  178.5090  144.1900 O   0  0  0  0  0  0  0  0  0  0  0  0
  182.4940  179.3570  144.1830 C   0  0  0  0  0  3  0  0  0  0  0  0
  192.2070  177.1510  139.7740 N   0  0  0  0  0  2  0  0  0  0  0  0
  192.0420  177.8360  140.9900 N   0  0  0  0  0  2  0  0  0  0  0  0
  192.2580  176.9030  142.0160 N   0  0  0  0  0  2  0  0  0  0  0  0
  190.3720  178.4390  144.7560 C   0  0  0  0  0  3  0  0  0  0  0  0
  191.3750  176.3640  144.2420 C   0  0  2  0  0  3  0  0  0  0  0  0
  190.3530  175.9450  143.2540 N   0  0  0  0  0  2  0  0  0  0  0  0
  190.6390  178.4900  143.2970 C   0  0  0  0  0  2  0  0  0  0  0  0
  190.7650  177.2730  145.2570 C   0  0  0  0  0  0  0  0  0  0  0  0
  191.2110  177.1100  143.0050 C   0  0  2  0  0  0  0  0  0  0  0  0
  190.6120  176.9240  146.6410 N   0  0  0  0  0  0  0  0  0  0  0  0
  189.3970  177.2450  147.3750 C   0  0  0  0  0  1  0  0  0  0  0  0
  191.6320  176.1370  147.3180 C   0  0  0  0  0  1  0  0  0  0  0  0
  1  2  1  6  0  0  0
  1 40  1  0  0  0  0
  3  2  1  0  0  0  0
  4  3  1  0  0  0  0
  4  5  1  0  0  0  0
  6  3  1  0  0  0  0
  7  6  1  0  0  0  0
  8  7  1  0  0  0  0
  8  9  1  0  0  0  0
  9 10  1  6  0  0  0
  9 11  1  0  0  0  0
 12 13  1  0  0  0  0
 14 16  2  0  0  0  0
 15 12  1  0  0  0  0
 15 11  1  1  0  0  0
 15 13  1  0  0  0  0
 16 12  1  0  0  0  0
 16 19  1  0  0  0  0
 19 23  1  0  0  0  0
 21 17  1  6  0  0  0
 21 20  1  0  0  0  0
 22 19  2  0  0  0  0
 22 18  1  0  0  0  0
 23 17  1  0  0  0  0
 24 18  1  6  0  0  0
 24 21  1  0  0  0  0
 24 20  1  0  0  0  0
 25  1  1  0  0  0  0
 25 27  1  0  0  0  0
 26 29  1  0  0  0  0
 27 26  3  0  0  0  0
 29 37  1  0  0  0  0
 30 32  1  0  0  0  0
 30 31  1  0  0  0  0
 31 33  2  0  0  0  0
 32 34  1  0  0  0  0
 33 28  1  0  0  0  0
 34 28  1  0  0  0  0
 35 29  2  0  0  0  0
 35 36  1  0  0  0  0
 36 30  2  0  0  0  0
 37 32  2  0  0  0  0
 39 38  2  0  0  0  0
 39 31  1  0  0  0  0
 40 41  1  0  0  0  0
 41 42  1  0  0  0  0
 43 47  2  0  0  0  0
 44 45  1  6  0  0  0
 44 47  1  0  0  0  0
 46 43  1  0  0  0  0
 47 49  1  0  0  0  0
 48 42  1  6  0  0  0
 48 45  1  0  0  0  0
 48 46  1  0  0  0  0
 48 44  1  0  0  0  0
 49 51  1  0  0  0  0
 49 50  1  0  0  0  0
M  END
>  <MODEL>
1

>  <REMARK>
 VINA RESULT:      -7.8      0.000      0.000
  Name = 
  19 active torsions:
  status: ('A' for Active; 'I' for Inactive)
    1  A    between atoms: N_1  and  C_35
    2  A    between atoms: N_1  and  C_51
    3  A    between atoms: C_7  and  C_30
    4  A    between atoms: N_9  and  C_35
    5  A    between atoms: N_9  and  N_36
    6  A    between atoms: CA_12  and  C_22
    7  A    between atoms: N_13  and  N_21
    8  A    between atoms: N_13  and  N_46
    9  A    between atoms: C_16  and  C_43
   10  A    between atoms: N_21  and  C_48
   11  A    between atoms: C_25  and  C_38
   12  A    between atoms: C_25  and  N_40
   13  A    between atoms: N_27  and  C_47
   14  A    between atoms: C_28  and  C_33
   15  A    between atoms: C_28  and  N_36
   16  A    between atoms: C_33  and  N_40
   17  A    between atoms: C_34  and  N_36
   18  A    between atoms: C_35  and  N_46
   19  A    between atoms: C_38  and  C_42
                            x       y       z     vdW  Elec       q    Type
                         _______ _______ _______ _____ _____    ______ ____

>  <TORSDO>
F 19

$$$$
=
 OpenBabel10232408543D

 51 57  0  0  1  0  0  0  0  0999 V2000
  190.1750  176.8580  140.3420 C   0  0  2  0  0  3  0  0  0  0  0  0
  191.4060  176.9990  139.5710 N   0  0  0  0  0  2  0  0  0  0  0  0
  191.0710  176.9110  138.2100 N   0  0  0  0  0  0  0  0  0  0  0  0
  192.3080  176.6250  137.4980 C   0  0  0  0  0  2  0  0  0  0  0  0
  193.1320  175.6280  138.2880 C   0  0  0  0  0  1  0  0  0  0  0  0
  190.2100  175.7440  138.0710 C   0  0  0  0  0  2  0  0  0  0  0  0
  189.1570  175.9790  136.9970 C   0  0  0  0  0  2  0  0  0  0  0  0
  187.8450  176.1430  137.6100 N   0  0  0  0  0  2  0  0  0  0  0  0
  187.0310  176.9260  136.6870 C   0  0  2  0  0  3  0  0  0  0  0  0
  186.7240  178.2830  137.2950 C   0  0  0  0  0  1  0  0  0  0  0  0
  185.7170  176.2130  136.3870 C   0  0  0  0  0  2  0  0  0  0  0  0
  184.1630  174.4700  137.0970 N   0  0  0  0  0  0  0  0  0  0  0  0
  185.2050  173.8550  136.2270 C   0  0  0  0  0  2  0  0  0  0  0  0
  182.5410  175.4500  138.4320 O   0  0  0  0  0  0  0  0  0  0  0  0
  185.6030  174.8620  137.0860 C   0  0  1  0  0  3  0  0  0  0  0  0
  182.8160  174.6090  137.5410 C   0  0  0  0  0  0  0  0  0  0  0  0
  180.3530  171.7220  137.1140 C   0  0  0  0  0  2  0  0  0  0  0  0
  180.0330  173.6270  135.1620 C   0  0  0  0  0  2  0  0  0  0  0  0
  181.7470  173.8060  136.9340 C   0  0  0  0  0  0  0  0  0  0  0  0
  181.7140  171.6590  134.9320 C   0  0  0  0  0  2  0  0  0  0  0  0
  180.4930  171.1550  135.6890 C   0  0  2  0  0  3  0  0  0  0  0  0
  181.1440  174.2630  135.8730 N   0  0  0  0  0  0  0  0  0  0  0  0
  181.4400  172.5570  137.5080 O   0  0  0  0  0  0  0  0  0  0  0  0
  180.3420  172.2210  134.5970 C   0  0  1  0  0  3  0  0  0  0  0  0
  189.6000  178.1660  140.6240 N   0  0  0  0  0  2  0  0  0  0  0  0
  187.0540  178.4200  141.1220 C   0  0  0  0  0  0  0  0  0  0  0  0
  188.2320  178.3050  140.8900 C   0  0  0  0  0  0  0  0  0  0  0  0
  181.0630  178.5640  139.8060 C   0  0  0  0  0  2  0  0  0  0  0  0
  185.6520  178.5370  141.4040 C   0  0  0  0  0  0  0  0  0  0  0  0
  182.9110  178.7520  141.9420 C   0  0  0  0  0  0  0  0  0  0  0  0
  181.4560  178.8730  142.1850 C   0  0  0  0  0  0  0  0  0  0  0  0
  183.3850  178.8690  140.6220 C   0  0  0  0  0  0  0  0  0  0  0  0
  180.6290  178.8420  141.1790 N   0  0  0  0  0  0  0  0  0  0  0  0
  182.4260  179.1940  139.5160 C   0  0  0  0  0  2  0  0  0  0  0  0
  185.1870  178.4190  142.7170 C   0  0  0  0  0  3  0  0  0  0  0  0
  183.8180  178.5280  142.9880 C   0  0  0  0  0  3  0  0  0  0  0  0
  184.7540  178.7720  140.3580 C   0  0  0  0  0  3  0  0  0  0  0  0
  180.1570  178.2560  144.0780 O   0  0  0  0  0  0  0  0  0  0  0  0
  180.9400  179.0840  143.5430 C   0  0  0  0  0  3  0  0  0  0  0  0
  190.4300  176.1390  141.5930 N   0  0  0  0  0  2  0  0  0  0  0  0
  191.2010  176.9590  142.4340 N   0  0  0  0  0  2  0  0  0  0  0  0
  191.5500  176.1840  143.5510 N   0  0  0  0  0  2  0  0  0  0  0  0
  190.5390  176.8860  147.0020 C   0  0  0  0  0  3  0  0  0  0  0  0
  189.7340  177.2490  144.8120 C   0  0  2  0  0  3  0  0  0  0  0  0
  190.7090  178.3110  144.4690 N   0  0  0  0  0  2  0  0  0  0  0  0
  191.6980  176.6160  146.1150 C   0  0  0  0  0  2  0  0  0  0  0  0
  189.4800  177.2420  146.2830 C   0  0  0  0  0  0  0  0  0  0  0  0
  191.1510  176.9370  144.7310 C   0  0  2  0  0  0  0  0  0  0  0  0
  188.2160  177.5890  146.8690 N   0  0  0  0  0  0  0  0  0  0  0  0
  188.1080  177.9730  148.2690 C   0  0  0  0  0  1  0  0  0  0  0  0
  187.0200  177.6700  146.0440 C   0  0  0  0  0  1  0  0  0  0  0  0
  1  2  1  1  0  0  0
  1 25  1  0  0  0  0
  1 40  1  0  0  0  0
  3  2  1  0  0  0  0
  4  3  1  0  0  0  0
  4  5  1  0  0  0  0
  6  3  1  0  0  0  0
  7  8  1  0  0  0  0
  7  6  1  0  0  0  0
  9 10  1  1  0  0  0
  9  8  1  0  0  0  0
 11  9  1  0  0  0  0
 12 16  1  0  0  0  0
 13 15  1  0  0  0  0
 13 12  1  0  0  0  0
 15 11  1  6  0  0  0
 15 12  1  0  0  0  0
 16 14  2  0  0  0  0
 17 23  1  0  0  0  0
 18 22  1  0  0  0  0
 19 23  1  0  0  0  0
 19 16  1  0  0  0  0
 21 20  1  1  0  0  0
 21 17  1  0  0  0  0
 22 19  2  0  0  0  0
 24 20  1  1  0  0  0
 24 18  1  0  0  0  0
 24 21  1  0  0  0  0
 25 27  1  0  0  0  0
 26 29  1  0  0  0  0
 27 26  3  0  0  0  0
 28 33  1  0  0  0  0
 29 35  1  0  0  0  0
 30 31  1  0  0  0  0
 30 36  1  0  0  0  0
 31 39  1  0  0  0  0
 32 30  2  0  0  0  0
 33 31  2  0  0  0  0
 34 28  1  0  0  0  0
 34 32  1  0  0  0  0
 35 36  2  0  0  0  0
 37 32  1  0  0  0  0
 37 29  2  0  0  0  0
 39 38  2  0  0  0  0
 40 41  1  0  0  0  0
 41 42  1  0  0  0  0
 44 45  1  1  0  0  0
 44 47  1  0  0  0  0
 45 48  1  0  0  0  0
 46 43  1  0  0  0  0
 47 49  1  0  0  0  0
 47 43  2  0  0  0  0
 48 42  1  6  0  0  0
 48 44  1  0  0  0  0
 48 46  1  0  0  0  0
 49 50  1  0  0  0  0
 51 49  1  0  0  0  0
M  END
>  <MODEL>
2

>  <REMARK>
 VINA RESULT:      -6.8      2.636      3.954
  Name = 
  19 active torsions:
  status: ('A' for Active; 'I' for Inactive)
    1  A    between atoms: N_1  and  C_35
    2  A    between atoms: N_1  and  C_51
    3  A    between atoms: C_7  and  C_30
    4  A    between atoms: N_9  and  C_35
    5  A    between atoms: N_9  and  N_36
    6  A    between atoms: CA_12  and  C_22
    7  A    between atoms: N_13  and  N_21
    8  A    between atoms: N_13  and  N_46
    9  A    between atoms: C_16  and  C_43
   10  A    between atoms: N_21  and  C_48
   11  A    between atoms: C_25  and  C_38
   12  A    between atoms: C_25  and  N_40
   13  A    between atoms: N_27  and  C_47
   14  A    between atoms: C_28  and  C_33
   15  A    between atoms: C_28  and  N_36
   16  A    between atoms: C_33  and  N_40
   17  A    between atoms: C_34  and  N_36
   18  A    between atoms: C_35  and  N_46
   19  A    between atoms: C_38  and  C_42
                            x       y       z     vdW  Elec       q    Type
                         _______ _______ _______ _____ _____    ______ ____

>  <TORSDO>
F 19

$$$$
=
 OpenBabel10232408543D

 51 57  0  0  1  0  0  0  0  0999 V2000
  190.7740  176.4960  139.3370 C   0  0  2  0  0  3  0  0  0  0  0  0
  190.8340  175.6340  138.1610 N   0  0  0  0  0  2  0  0  0  0  0  0
  190.8610  176.4600  137.0260 N   0  0  0  0  0  0  0  0  0  0  0  0
  192.2180  176.3950  136.5010 C   0  0  0  0  0  2  0  0  0  0  0  0
  192.3720  175.1590  135.6370 C   0  0  0  0  0  1  0  0  0  0  0  0
  189.9840  175.8390  136.0420 C   0  0  0  0  0  2  0  0  0  0  0  0
  189.1190  174.7690  136.6930 C   0  0  0  0  0  2  0  0  0  0  0  0
  188.1590  174.2470  135.7280 N   0  0  0  0  0  2  0  0  0  0  0  0
  188.1420  172.7960  135.8770 C   0  0  2  0  0  3  0  0  0  0  0  0
  188.6200  172.1410  134.5920 C   0  0  0  0  0  1  0  0  0  0  0  0
  186.7330  172.3010  136.1850 C   0  0  0  0  0  2  0  0  0  0  0  0
  184.4670  171.9330  135.3560 N   0  0  0  0  0  0  0  0  0  0  0  0
  185.0220  173.1510  134.7020 C   0  0  0  0  0  2  0  0  0  0  0  0
  183.6160  170.0460  136.3990 O   0  0  0  0  0  0  0  0  0  0  0  0
  185.8880  172.0980  134.9320 C   0  0  1  0  0  3  0  0  0  0  0  0
  183.4050  171.2060  135.9680 C   0  0  0  0  0  0  0  0  0  0  0  0
  180.1990  173.0440  135.0040 C   0  0  0  0  0  2  0  0  0  0  0  0
  180.1660  172.2560  137.6350 C   0  0  0  0  0  2  0  0  0  0  0  0
  182.0830  171.8230  136.1350 C   0  0  0  0  0  0  0  0  0  0  0  0
  181.1830  174.5200  136.8660 C   0  0  0  0  0  2  0  0  0  0  0  0
  179.9830  174.2140  135.9810 C   0  0  2  0  0  3  0  0  0  0  0  0
  181.4940  171.7440  137.2960 N   0  0  0  0  0  0  0  0  0  0  0  0
  181.5190  172.5030  135.0390 O   0  0  0  0  0  0  0  0  0  0  0  0
  179.9910  173.7820  137.4530 C   0  0  1  0  0  3  0  0  0  0  0  0
  189.8630  177.6090  139.1040 N   0  0  0  0  0  2  0  0  0  0  0  0
  187.8170  178.0040  140.6700 C   0  0  0  0  0  0  0  0  0  0  0  0
  188.7610  177.8210  139.9430 C   0  0  0  0  0  0  0  0  0  0  0  0
  185.0330  179.0120  146.0440 C   0  0  0  0  0  2  0  0  0  0  0  0
  186.7050  178.2210  141.5500 C   0  0  0  0  0  0  0  0  0  0  0  0
  184.5430  178.6560  143.2780 C   0  0  0  0  0  0  0  0  0  0  0  0
  183.4260  178.8760  144.2250 C   0  0  0  0  0  0  0  0  0  0  0  0
  185.8030  178.3030  143.7950 C   0  0  0  0  0  0  0  0  0  0  0  0
  183.6720  178.9790  145.4990 N   0  0  0  0  0  0  0  0  0  0  0  0
  185.9640  178.0780  145.2690 C   0  0  0  0  0  2  0  0  0  0  0  0
  185.4550  178.5730  141.0300 C   0  0  0  0  0  3  0  0  0  0  0  0
  184.3740  178.7890  141.8920 C   0  0  0  0  0  3  0  0  0  0  0  0
  186.8770  178.0770  142.9300 C   0  0  0  0  0  3  0  0  0  0  0  0
  181.5280  180.0000  143.3390 O   0  0  0  0  0  0  0  0  0  0  0  0
  182.0400  178.9240  143.7450 C   0  0  0  0  0  3  0  0  0  0  0  0
  192.1070  176.9980  139.6760 N   0  0  0  0  0  2  0  0  0  0  0  0
  192.0150  177.7630  140.8510 N   0  0  0  0  0  2  0  0  0  0  0  0
  192.2800  176.8980  141.9240 N   0  0  0  0  0  2  0  0  0  0  0  0
  190.2070  178.3670  144.5630 C   0  0  0  0  0  3  0  0  0  0  0  0
  191.3690  176.3550  144.1370 C   0  0  2  0  0  3  0  0  0  0  0  0
  190.4100  175.8400  143.1320 N   0  0  0  0  0  2  0  0  0  0  0  0
  190.5150  178.3990  143.1110 C   0  0  0  0  0  2  0  0  0  0  0  0
  190.6650  177.2460  145.1080 C   0  0  0  0  0  0  0  0  0  0  0  0
  191.1910  177.0560  142.8750 C   0  0  2  0  0  0  0  0  0  0  0  0
  190.4930  176.9220  146.4960 N   0  0  0  0  0  0  0  0  0  0  0  0
  191.5670  176.3210  147.2730 C   0  0  0  0  0  1  0  0  0  0  0  0
  189.2690  177.2900  147.1910 C   0  0  0  0  0  1  0  0  0  0  0  0
  1  2  1  6  0  0  0
  1 40  1  0  0  0  0
  3  2  1  0  0  0  0
  4  3  1  0  0  0  0
  5  4  1  0  0  0  0
  6  7  1  0  0  0  0
  6  3  1  0  0  0  0
  8  9  1  0  0  0  0
  8  7  1  0  0  0  0
  9 10  1  6  0  0  0
  9 11  1  0  0  0  0
 12 16  1  0  0  0  0
 13 15  1  0  0  0  0
 13 12  1  0  0  0  0
 15 12  1  0  0  0  0
 15 11  1  1  0  0  0
 16 19  1  0  0  0  0
 16 14  2  0  0  0  0
 17 23  1  0  0  0  0
 19 22  2  0  0  0  0
 21 17  1  6  0  0  0
 21 20  1  0  0  0  0
 21 24  1  0  0  0  0
 22 18  1  0  0  0  0
 23 19  1  0  0  0  0
 24 20  1  1  0  0  0
 24 18  1  0  0  0  0
 25  1  1  0  0  0  0
 25 27  1  0  0  0  0
 26 29  1  0  0  0  0
 27 26  3  0  0  0  0
 29 37  1  0  0  0  0
 30 32  1  0  0  0  0
 30 31  1  0  0  0  0
 31 33  2  0  0  0  0
 32 34  1  0  0  0  0
 33 28  1  0  0  0  0
 34 28  1  0  0  0  0
 35 29  2  0  0  0  0
 35 36  1  0  0  0  0
 36 30  2  0  0  0  0
 37 32  2  0  0  0  0
 38 39  2  0  0  0  0
 39 31  1  0  0  0  0
 40 41  1  0  0  0  0
 41 42  1  0  0  0  0
 43 47  2  0  0  0  0
 44 45  1  6  0  0  0
 44 47  1  0  0  0  0
 46 43  1  0  0  0  0
 47 49  1  0  0  0  0
 48 42  1  6  0  0  0
 48 46  1  0  0  0  0
 48 45  1  0  0  0  0
 48 44  1  0  0  0  0
 49 51  1  0  0  0  0
 49 50  1  0  0  0  0
M  END
>  <MODEL>
3

>  <REMARK>
 VINA RESULT:      -6.4      2.542      3.307
  Name = 
  19 active torsions:
  status: ('A' for Active; 'I' for Inactive)
    1  A    between atoms: N_1  and  C_35
    2  A    between atoms: N_1  and  C_51
    3  A    between atoms: C_7  and  C_30
    4  A    between atoms: N_9  and  C_35
    5  A    between atoms: N_9  and  N_36
    6  A    between atoms: CA_12  and  C_22
    7  A    between atoms: N_13  and  N_21
    8  A    between atoms: N_13  and  N_46
    9  A    between atoms: C_16  and  C_43
   10  A    between atoms: N_21  and  C_48
   11  A    between atoms: C_25  and  C_38
   12  A    between atoms: C_25  and  N_40
   13  A    between atoms: N_27  and  C_47
   14  A    between atoms: C_28  and  C_33
   15  A    between atoms: C_28  and  N_36
   16  A    between atoms: C_33  and  N_40
   17  A    between atoms: C_34  and  N_36
   18  A    between atoms: C_35  and  N_46
   19  A    between atoms: C_38  and  C_42
                            x       y       z     vdW  Elec       q    Type
                         _______ _______ _______ _____ _____    ______ ____

>  <TORSDO>
F 19

$$$$
=
 OpenBabel10232408543D

 51 57  0  0  1  0  0  0  0  0999 V2000
  184.7380  179.1860  140.1990 C   0  0  2  0  0  3  0  0  0  0  0  0
  183.9490  178.0470  140.6580 N   0  0  0  0  0  2  0  0  0  0  0  0
  182.9790  177.7780  139.6790 N   0  0  0  0  0  0  0  0  0  0  0  0
  182.7000  176.3510  139.7570 C   0  0  0  0  0  2  0  0  0  0  0  0
  181.3800  176.0510  139.0760 C   0  0  0  0  0  1  0  0  0  0  0  0
  181.7700  178.4800  140.0910 C   0  0  0  0  0  2  0  0  0  0  0  0
  181.5460  179.7130  139.2270 C   0  0  0  0  0  2  0  0  0  0  0  0
  180.3630  179.5320  138.3940 N   0  0  0  0  0  2  0  0  0  0  0  0
  180.8200  179.4240  137.0130 C   0  0  2  0  0  3  0  0  0  0  0  0
  180.3440  180.6270  136.2180 C   0  0  0  0  0  1  0  0  0  0  0  0
  180.2750  178.1580  136.3610 C   0  0  0  0  0  2  0  0  0  0  0  0
  181.9730  176.7470  135.3200 N   0  0  0  0  0  0  0  0  0  0  0  0
  180.6810  176.5440  134.6060 C   0  0  0  0  0  2  0  0  0  0  0  0
  183.9690  177.0640  136.4550 O   0  0  0  0  0  0  0  0  0  0  0  0
  180.9730  177.8210  135.0480 C   0  0  1  0  0  3  0  0  0  0  0  0
  183.1910  176.2630  135.8800 C   0  0  0  0  0  0  0  0  0  0  0  0
  182.7280  172.4990  136.3210 C   0  0  0  0  0  2  0  0  0  0  0  0
  185.1110  173.0920  135.0900 C   0  0  0  0  0  2  0  0  0  0  0  0
  183.5180  174.8330  135.8260 C   0  0  0  0  0  0  0  0  0  0  0  0
  184.8600  172.9890  137.6740 C   0  0  0  0  0  2  0  0  0  0  0  0
  183.9500  171.9300  137.0660 C   0  0  2  0  0  3  0  0  0  0  0  0
  184.6410  174.4650  135.2740 N   0  0  0  0  0  0  0  0  0  0  0  0
  182.6160  173.9180  136.4020 O   0  0  0  0  0  0  0  0  0  0  0  0
  185.2840  172.2830  136.3970 C   0  0  1  0  0  3  0  0  0  0  0  0
  185.1670  178.9850  138.8220 N   0  0  0  0  0  2  0  0  0  0  0  0
  187.5120  177.9810  138.2850 C   0  0  0  0  0  0  0  0  0  0  0  0
  186.4270  178.4430  138.5360 C   0  0  0  0  0  0  0  0  0  0  0  0
  192.0140  175.9960  134.6180 C   0  0  0  0  0  2  0  0  0  0  0  0
  188.8020  177.4390  137.9670 C   0  0  0  0  0  0  0  0  0  0  0  0
  191.3230  176.3940  137.3350 C   0  0  0  0  0  0  0  0  0  0  0  0
  192.6410  175.8320  136.9610 C   0  0  0  0  0  0  0  0  0  0  0  0
  190.3050  176.4230  136.3640 C   0  0  0  0  0  0  0  0  0  0  0  0
  192.9120  175.6030  135.7080 N   0  0  0  0  0  0  0  0  0  0  0  0
  190.5470  175.8150  135.0150 C   0  0  0  0  0  2  0  0  0  0  0  0
  189.8110  177.4130  138.9360 C   0  0  0  0  0  3  0  0  0  0  0  0
  191.0700  176.8900  138.6220 C   0  0  0  0  0  3  0  0  0  0  0  0
  189.0450  176.9360  136.6860 C   0  0  0  0  0  3  0  0  0  0  0  0
  194.8420  175.3460  137.7150 O   0  0  0  0  0  0  0  0  0  0  0  0
  193.6220  175.4770  137.9940 C   0  0  0  0  0  3  0  0  0  0  0  0
  185.9020  179.3880  141.0650 N   0  0  0  0  0  2  0  0  0  0  0  0
  185.9080  178.3880  142.0510 N   0  0  0  0  0  2  0  0  0  0  0  0
  187.2510  178.0530  142.2860 N   0  0  0  0  0  2  0  0  0  0  0  0
  186.9580  177.6910  145.9200 C   0  0  0  0  0  3  0  0  0  0  0  0
  188.6160  177.5000  144.2490 C   0  0  2  0  0  3  0  0  0  0  0  0
  188.1180  176.2220  143.6900 N   0  0  0  0  0  2  0  0  0  0  0  0
  186.2110  177.6450  144.6380 C   0  0  0  0  0  2  0  0  0  0  0  0
  188.2640  177.5990  145.6970 C   0  0  0  0  0  0  0  0  0  0  0  0
  187.3130  177.4460  143.6070 C   0  0  2  0  0  0  0  0  0  0  0  0
  189.2400  177.5910  146.7500 N   0  0  0  0  0  0  0  0  0  0  0  0
  188.9350  178.1160  148.0720 C   0  0  0  0  0  1  0  0  0  0  0  0
  190.5330  176.9530  146.5500 C   0  0  0  0  0  1  0  0  0  0  0  0
  1 25  1  6  0  0  0
  1  2  1  0  0  0  0
  1 40  1  0  0  0  0
  3  4  1  0  0  0  0
  3  6  1  0  0  0  0
  3  2  1  0  0  0  0
  5  4  1  0  0  0  0
  7  6  1  0  0  0  0
  8  7  1  0  0  0  0
  9 10  1  6  0  0  0
  9  8  1  0  0  0  0
 11  9  1  0  0  0  0
 12 16  1  0  0  0  0
 13 15  1  0  0  0  0
 13 12  1  0  0  0  0
 15 12  1  0  0  0  0
 15 11  1  1  0  0  0
 16 14  2  0  0  0  0
 17 23  1  0  0  0  0
 18 22  1  0  0  0  0
 19 16  1  0  0  0  0
 19 23  1  0  0  0  0
 21 17  1  6  0  0  0
 21 20  1  0  0  0  0
 22 19  2  0  0  0  0
 24 18  1  6  0  0  0
 24 21  1  0  0  0  0
 24 20  1  0  0  0  0
 26 27  3  0  0  0  0
 27 25  1  0  0  0  0
 28 34  1  0  0  0  0
 28 33  1  0  0  0  0
 29 26  1  0  0  0  0
 29 35  1  0  0  0  0
 30 36  1  0  0  0  0
 31 30  1  0  0  0  0
 31 39  1  0  0  0  0
 32 37  1  0  0  0  0
 32 30  2  0  0  0  0
 33 31  2  0  0  0  0
 34 32  1  0  0  0  0
 36 35  2  0  0  0  0
 37 29  2  0  0  0  0
 38 39  2  0  0  0  0
 40 41  1  0  0  0  0
 41 42  1  0  0  0  0
 44 45  1  1  0  0  0
 44 47  1  0  0  0  0
 46 43  1  0  0  0  0
 47 43  2  0  0  0  0
 47 49  1  0  0  0  0
 48 42  1  6  0  0  0
 48 45  1  0  0  0  0
 48 44  1  0  0  0  0
 48 46  1  0  0  0  0
 49 50  1  0  0  0  0
 51 49  1  0  0  0  0
M  END
>  <MODEL>
4

>  <REMARK>
 VINA RESULT:      -6.3      2.807      7.675
  Name = 
  19 active torsions:
  status: ('A' for Active; 'I' for Inactive)
    1  A    between atoms: N_1  and  C_35
    2  A    between atoms: N_1  and  C_51
    3  A    between atoms: C_7  and  C_30
    4  A    between atoms: N_9  and  C_35
    5  A    between atoms: N_9  and  N_36
    6  A    between atoms: CA_12  and  C_22
    7  A    between atoms: N_13  and  N_21
    8  A    between atoms: N_13  and  N_46
    9  A    between atoms: C_16  and  C_43
   10  A    between atoms: N_21  and  C_48
   11  A    between atoms: C_25  and  C_38
   12  A    between atoms: C_25  and  N_40
   13  A    between atoms: N_27  and  C_47
   14  A    between atoms: C_28  and  C_33
   15  A    between atoms: C_28  and  N_36
   16  A    between atoms: C_33  and  N_40
   17  A    between atoms: C_34  and  N_36
   18  A    between atoms: C_35  and  N_46
   19  A    between atoms: C_38  and  C_42
                            x       y       z     vdW  Elec       q    Type
                         _______ _______ _______ _____ _____    ______ ____

>  <TORSDO>
F 19

$$$$
=
 OpenBabel10232408543D

 51 57  0  0  1  0  0  0  0  0999 V2000
  190.6670  177.5000  139.6840 C   0  0  2  0  0  3  0  0  0  0  0  0
  191.2520  177.8410  140.9780 N   0  0  0  0  0  2  0  0  0  0  0  0
  190.7150  176.9640  141.9340 N   0  0  0  0  0  0  0  0  0  0  0  0
  191.8100  176.6020  142.8220 C   0  0  0  0  0  2  0  0  0  0  0  0
  191.3390  176.6550  144.2610 C   0  0  0  0  0  1  0  0  0  0  0  0
  189.7600  177.7390  142.7150 C   0  0  0  0  0  2  0  0  0  0  0  0
  188.3620  177.1510  142.5890 C   0  0  0  0  0  2  0  0  0  0  0  0
  187.9280  176.6120  143.8730 N   0  0  0  0  0  2  0  0  0  0  0  0
  187.4000  177.7250  144.6530 C   0  0  2  0  0  3  0  0  0  0  0  0
  187.9660  177.6810  146.0620 C   0  0  0  0  0  1  0  0  0  0  0  0
  185.8790  177.6550  144.7320 C   0  0  0  0  0  2  0  0  0  0  0  0
  184.7850  178.9560  142.9800 N   0  0  0  0  0  0  0  0  0  0  0  0
  183.8590  178.8470  144.1420 C   0  0  0  0  0  2  0  0  0  0  0  0
  186.2350  179.0990  141.1770 O   0  0  0  0  0  0  0  0  0  0  0  0
  185.2070  178.9870  144.4110 C   0  0  1  0  0  3  0  0  0  0  0  0
  185.0540  178.9620  141.5800 C   0  0  0  0  0  0  0  0  0  0  0  0
  182.6890  179.7620  138.6910 C   0  0  0  0  0  2  0  0  0  0  0  0
  182.2550  177.2420  139.6910 C   0  0  0  0  0  2  0  0  0  0  0  0
  183.9650  178.7680  140.6140 C   0  0  0  0  0  0  0  0  0  0  0  0
  181.0880  179.3500  140.6610 C   0  0  0  0  0  2  0  0  0  0  0  0
  181.2390  179.5400  139.1580 C   0  0  2  0  0  3  0  0  0  0  0  0
  183.3300  177.6300  140.6050 N   0  0  0  0  0  0  0  0  0  0  0  0
  183.6310  179.8350  139.7590 O   0  0  0  0  0  0  0  0  0  0  0  0
  180.9990  178.1430  139.7420 C   0  0  1  0  0  3  0  0  0  0  0  0
  189.4930  178.3220  139.4260 N   0  0  0  0  0  2  0  0  0  0  0  0
  187.5190  177.4060  137.9920 C   0  0  0  0  0  0  0  0  0  0  0  0
  188.4320  177.8320  138.6530 C   0  0  0  0  0  0  0  0  0  0  0  0
  184.5480  173.2210  134.6280 C   0  0  0  0  0  2  0  0  0  0  0  0
  186.4370  176.8790  137.2100 C   0  0  0  0  0  0  0  0  0  0  0  0
  184.3260  175.8350  135.6920 C   0  0  0  0  0  0  0  0  0  0  0  0
  183.2380  175.2530  134.8740 C   0  0  0  0  0  0  0  0  0  0  0  0
  185.5910  175.2180  135.6650 C   0  0  0  0  0  0  0  0  0  0  0  0
  183.3880  174.0720  134.3470 N   0  0  0  0  0  0  0  0  0  0  0  0
  185.8280  174.0500  134.7550 C   0  0  0  0  0  2  0  0  0  0  0  0
  185.1820  177.4960  137.2410 C   0  0  0  0  0  3  0  0  0  0  0  0
  184.1270  176.9760  136.4820 C   0  0  0  0  0  3  0  0  0  0  0  0
  186.6440  175.7470  136.4150 C   0  0  0  0  0  3  0  0  0  0  0  0
  180.8810  175.5600  134.9040 O   0  0  0  0  0  0  0  0  0  0  0  0
  182.0150  176.0190  134.6060 C   0  0  0  0  0  3  0  0  0  0  0  0
  190.3100  176.0810  139.6390 N   0  0  0  0  0  2  0  0  0  0  0  0
  190.9920  175.4780  138.5700 N   0  0  0  0  0  2  0  0  0  0  0  0
  191.6670  176.5020  137.8860 N   0  0  0  0  0  2  0  0  0  0  0  0
  193.5560  173.9040  136.1260 C   0  0  0  0  0  3  0  0  0  0  0  0
  193.8820  175.4460  137.8840 C   0  0  2  0  0  3  0  0  0  0  0  0
  193.9690  176.6450  137.0170 N   0  0  0  0  0  2  0  0  0  0  0  0
  192.4280  174.8620  136.0130 C   0  0  0  0  0  2  0  0  0  0  0  0
  194.3470  174.2390  137.1380 C   0  0  0  0  0  0  0  0  0  0  0  0
  192.7250  175.8710  137.1130 C   0  0  2  0  0  0  0  0  0  0  0  0
  195.5370  173.5100  137.4780 N   0  0  0  0  0  0  0  0  0  0  0  0
  196.8600  174.0810  137.2770 C   0  0  0  0  0  1  0  0  0  0  0  0
  195.4440  172.2150  138.1360 C   0  0  0  0  0  1  0  0  0  0  0  0
  1 25  1  1  0  0  0
  1  2  1  0  0  0  0
  2  3  1  0  0  0  0
  3  6  1  0  0  0  0
  3  4  1  0  0  0  0
  4  5  1  0  0  0  0
  7  6  1  0  0  0  0
  7  8  1  0  0  0  0
  8  9  1  0  0  0  0
  9 11  1  0  0  0  0
  9 10  1  1  0  0  0
 12 13  1  0  0  0  0
 12 15  1  0  0  0  0
 13 15  1  0  0  0  0
 14 16  2  0  0  0  0
 15 11  1  6  0  0  0
 16 12  1  0  0  0  0
 17 23  1  0  0  0  0
 18 22  1  0  0  0  0
 19 16  1  0  0  0  0
 21 17  1  1  0  0  0
 21 24  1  0  0  0  0
 21 20  1  0  0  0  0
 22 19  2  0  0  0  0
 23 19  1  0  0  0  0
 24 18  1  1  0  0  0
 24 20  1  0  0  0  0
 26 27  3  0  0  0  0
 27 25  1  0  0  0  0
 28 34  1  0  0  0  0
 29 35  1  0  0  0  0
 29 26  1  0  0  0  0
 30 36  1  0  0  0  0
 31 30  1  0  0  0  0
 32 30  2  0  0  0  0
 32 37  1  0  0  0  0
 33 28  1  0  0  0  0
 33 31  2  0  0  0  0
 34 32  1  0  0  0  0
 36 35  2  0  0  0  0
 37 29  2  0  0  0  0
 39 31  1  0  0  0  0
 39 38  2  0  0  0  0
 40  1  1  0  0  0  0
 41 40  1  0  0  0  0
 42 41  1  0  0  0  0
 43 47  2  0  0  0  0
 44 45  1  6  0  0  0
 45 48  1  0  0  0  0
 46 43  1  0  0  0  0
 46 48  1  0  0  0  0
 47 49  1  0  0  0  0
 47 44  1  0  0  0  0
 48 44  1  0  0  0  0
 48 42  1  1  0  0  0
 49 51  1  0  0  0  0
 50 49  1  0  0  0  0
M  END
>  <MODEL>
5

>  <REMARK>
 VINA RESULT:      -6.2      1.960      7.276
  Name = 
  19 active torsions:
  status: ('A' for Active; 'I' for Inactive)
    1  A    between atoms: N_1  and  C_35
    2  A    between atoms: N_1  and  C_51
    3  A    between atoms: C_7  and  C_30
    4  A    between atoms: N_9  and  C_35
    5  A    between atoms: N_9  and  N_36
    6  A    between atoms: CA_12  and  C_22
    7  A    between atoms: N_13  and  N_21
    8  A    between atoms: N_13  and  N_46
    9  A    between atoms: C_16  and  C_43
   10  A    between atoms: N_21  and  C_48
   11  A    between atoms: C_25  and  C_38
   12  A    between atoms: C_25  and  N_40
   13  A    between atoms: N_27  and  C_47
   14  A    between atoms: C_28  and  C_33
   15  A    between atoms: C_28  and  N_36
   16  A    between atoms: C_33  and  N_40
   17  A    between atoms: C_34  and  N_36
   18  A    between atoms: C_35  and  N_46
   19  A    between atoms: C_38  and  C_42
                            x       y       z     vdW  Elec       q    Type
                         _______ _______ _______ _____ _____    ______ ____

>  <TORSDO>
F 19

$$$$
=
 OpenBabel10232408543D

 51 57  0  0  1  0  0  0  0  0999 V2000
  185.2020  178.5140  138.6590 C   0  0  2  0  0  3  0  0  0  0  0  0
  186.6480  178.3610  138.7880 N   0  0  0  0  0  2  0  0  0  0  0  0
  187.1130  177.7050  137.6360 N   0  0  0  0  0  0  0  0  0  0  0  0
  187.6530  178.7390  136.7640 C   0  0  0  0  0  2  0  0  0  0  0  0
  189.1350  178.9070  137.0290 C   0  0  0  0  0  1  0  0  0  0  0  0
  188.2280  176.8680  138.0590 C   0  0  0  0  0  2  0  0  0  0  0  0
  188.2010  175.5320  137.3310 C   0  0  0  0  0  2  0  0  0  0  0  0
  189.3910  174.7570  137.6640 N   0  0  0  0  0  2  0  0  0  0  0  0
  190.5110  175.3560  136.9480 C   0  0  2  0  0  3  0  0  0  0  0  0
  190.3910  175.0620  135.4630 C   0  0  0  0  0  1  0  0  0  0  0  0
  191.8360  174.7960  137.4530 C   0  0  0  0  0  2  0  0  0  0  0  0
  194.2350  175.2430  137.5120 N   0  0  0  0  0  0  0  0  0  0  0  0
  193.6050  176.1540  136.5160 C   0  0  0  0  0  2  0  0  0  0  0  0
  195.1990  173.8040  139.0520 O   0  0  0  0  0  0  0  0  0  0  0  0
  192.8930  175.8750  137.6670 C   0  0  1  0  0  3  0  0  0  0  0  0
  195.2880  174.3840  137.9420 C   0  0  0  0  0  0  0  0  0  0  0  0
  197.8230  172.4180  135.8710 C   0  0  0  0  0  2  0  0  0  0  0  0
  198.2800  175.1220  135.7350 C   0  0  0  0  0  2  0  0  0  0  0  0
  196.4510  174.1430  137.0780 C   0  0  0  0  0  0  0  0  0  0  0  0
  199.2920  173.6250  137.6030 C   0  0  0  0  0  2  0  0  0  0  0  0
  199.2430  172.8120  136.3160 C   0  0  2  0  0  3  0  0  0  0  0  0
  197.1280  175.1660  136.6370 N   0  0  0  0  0  0  0  0  0  0  0  0
  196.8040  172.8120  136.7880 O   0  0  0  0  0  0  0  0  0  0  0  0
  199.4940  174.3240  136.2680 C   0  0  1  0  0  3  0  0  0  0  0  0
  184.5990  178.7570  139.9620 N   0  0  0  0  0  2  0  0  0  0  0  0
  185.9340  178.3030  142.1540 C   0  0  0  0  0  0  0  0  0  0  0  0
  185.3190  178.5160  141.1400 C   0  0  0  0  0  0  0  0  0  0  0  0
  190.8920  177.3000  145.6280 C   0  0  0  0  0  2  0  0  0  0  0  0
  186.6540  178.0350  143.3660 C   0  0  0  0  0  0  0  0  0  0  0  0
  188.0720  177.5240  145.7280 C   0  0  0  0  0  0  0  0  0  0  0  0
  188.8550  177.2420  146.9520 C   0  0  0  0  0  0  0  0  0  0  0  0
  188.6950  177.3580  144.4780 C   0  0  0  0  0  0  0  0  0  0  0  0
  190.1450  177.0850  146.8710 N   0  0  0  0  0  0  0  0  0  0  0  0
  190.0950  176.8240  144.4120 C   0  0  0  0  0  2  0  0  0  0  0  0
  186.0290  178.2030  144.6070 C   0  0  0  0  0  3  0  0  0  0  0  0
  186.7350  177.9470  145.7870 C   0  0  0  0  0  3  0  0  0  0  0  0
  187.9830  177.6040  143.3020 C   0  0  0  0  0  3  0  0  0  0  0  0
  188.0980  178.0410  149.0600 O   0  0  0  0  0  0  0  0  0  0  0  0
  188.1830  177.0820  148.2480 C   0  0  0  0  0  3  0  0  0  0  0  0
  184.6110  177.3230  138.0440 N   0  0  0  0  0  2  0  0  0  0  0  0
  183.2940  177.6230  137.6570 N   0  0  0  0  0  2  0  0  0  0  0  0
  183.1940  177.3290  136.2880 N   0  0  0  0  0  2  0  0  0  0  0  0
  181.8900  174.0580  137.2970 C   0  0  0  0  0  3  0  0  0  0  0  0
  183.6070  174.9360  135.9350 C   0  0  2  0  0  3  0  0  0  0  0  0
  182.7140  175.3910  134.8430 N   0  0  0  0  0  2  0  0  0  0  0  0
  181.5490  175.4920  137.1220 C   0  0  0  0  0  2  0  0  0  0  0  0
  183.0040  173.7640  136.6370 C   0  0  0  0  0  0  0  0  0  0  0  0
  182.6360  175.9900  136.1810 C   0  0  2  0  0  0  0  0  0  0  0  0
  183.5690  172.4440  136.6000 N   0  0  0  0  0  0  0  0  0  0  0  0
  182.7630  171.2660  136.8790 C   0  0  0  0  0  1  0  0  0  0  0  0
  184.9460  172.2460  136.1740 C   0  0  0  0  0  1  0  0  0  0  0  0
  1 40  1  1  0  0  0
  1  2  1  0  0  0  0
  1 25  1  0  0  0  0
  3  6  1  0  0  0  0
  3  2  1  0  0  0  0
  4  5  1  0  0  0  0
  4  3  1  0  0  0  0
  7  8  1  0  0  0  0
  7  6  1  0  0  0  0
  9 10  1  6  0  0  0
  9 11  1  0  0  0  0
  9  8  1  0  0  0  0
 12 15  1  0  0  0  0
 12 16  1  0  0  0  0
 13 12  1  0  0  0  0
 13 15  1  0  0  0  0
 15 11  1  6  0  0  0
 16 14  2  0  0  0  0
 17 23  1  0  0  0  0
 18 22  1  0  0  0  0
 19 16  1  0  0  0  0
 21 17  1  6  0  0  0
 21 20  1  0  0  0  0
 22 19  2  0  0  0  0
 23 19  1  0  0  0  0
 24 18  1  6  0  0  0
 24 21  1  0  0  0  0
 24 20  1  0  0  0  0
 25 27  1  0  0  0  0
 26 29  1  0  0  0  0
 27 26  3  0  0  0  0
 28 33  1  0  0  0  0
 29 35  1  0  0  0  0
 30 36  1  0  0  0  0
 30 31  1  0  0  0  0
 31 39  1  0  0  0  0
 32 30  2  0  0  0  0
 33 31  2  0  0  0  0
 34 32  1  0  0  0  0
 34 28  1  0  0  0  0
 35 36  2  0  0  0  0
 37 29  2  0  0  0  0
 37 32  1  0  0  0  0
 39 38  2  0  0  0  0
 41 40  1  0  0  0  0
 42 41  1  0  0  0  0
 44 45  1  6  0  0  0
 44 48  1  0  0  0  0
 44 47  1  0  0  0  0
 45 48  1  0  0  0  0
 46 43  1  0  0  0  0
 47 43  2  0  0  0  0
 48 42  1  1  0  0  0
 48 46  1  0  0  0  0
 49 47  1  0  0  0  0
 49 50  1  0  0  0  0
 51 49  1  0  0  0  0
M  END
>  <MODEL>
6

>  <REMARK>
 VINA RESULT:      -6.2      3.977      9.964
  Name = 
  19 active torsions:
  status: ('A' for Active; 'I' for Inactive)
    1  A    between atoms: N_1  and  C_35
    2  A    between atoms: N_1  and  C_51
    3  A    between atoms: C_7  and  C_30
    4  A    between atoms: N_9  and  C_35
    5  A    between atoms: N_9  and  N_36
    6  A    between atoms: CA_12  and  C_22
    7  A    between atoms: N_13  and  N_21
    8  A    between atoms: N_13  and  N_46
    9  A    between atoms: C_16  and  C_43
   10  A    between atoms: N_21  and  C_48
   11  A    between atoms: C_25  and  C_38
   12  A    between atoms: C_25  and  N_40
   13  A    between atoms: N_27  and  C_47
   14  A    between atoms: C_28  and  C_33
   15  A    between atoms: C_28  and  N_36
   16  A    between atoms: C_33  and  N_40
   17  A    between atoms: C_34  and  N_36
   18  A    between atoms: C_35  and  N_46
   19  A    between atoms: C_38  and  C_42
                            x       y       z     vdW  Elec       q    Type
                         _______ _______ _______ _____ _____    ______ ____

>  <TORSDO>
F 19

$$$$
=
 OpenBabel10232408543D

 51 57  0  0  1  0  0  0  0  0999 V2000
  189.9250  177.6350  142.3220 C   0  0  2  0  0  3  0  0  0  0  0  0
  190.0780  178.1470  143.6810 N   0  0  0  0  0  2  0  0  0  0  0  0
  189.8660  177.0780  144.5670 N   0  0  0  0  0  0  0  0  0  0  0  0
  191.1720  176.4870  144.8200 C   0  0  0  0  0  2  0  0  0  0  0  0
  191.6420  176.8640  146.2100 C   0  0  0  0  0  1  0  0  0  0  0  0
  189.4050  177.6640  145.8190 C   0  0  0  0  0  2  0  0  0  0  0  0
  187.9720  177.2440  146.1130 C   0  0  0  0  0  2  0  0  0  0  0  0
  187.1090  177.5880  144.9890 N   0  0  0  0  0  2  0  0  0  0  0  0
  186.1080  178.5260  145.4840 C   0  0  2  0  0  3  0  0  0  0  0  0
  186.0700  178.4860  147.0020 C   0  0  0  0  0  1  0  0  0  0  0  0
  184.7250  178.1730  144.9490 C   0  0  0  0  0  2  0  0  0  0  0  0
  183.7960  179.0860  142.8850 N   0  0  0  0  0  0  0  0  0  0  0  0
  182.7230  179.0560  143.9180 C   0  0  0  0  0  2  0  0  0  0  0  0
  185.4740  179.1080  141.2860 O   0  0  0  0  0  0  0  0  0  0  0  0
  184.0030  179.3680  144.3350 C   0  0  1  0  0  3  0  0  0  0  0  0
  184.2620  178.9140  141.5480 C   0  0  0  0  0  0  0  0  0  0  0  0
  181.3180  177.0870  139.9420 C   0  0  0  0  0  2  0  0  0  0  0  0
  182.6480  178.6620  138.1280 C   0  0  0  0  0  2  0  0  0  0  0  0
  183.3430  178.4720  140.4920 C   0  0  0  0  0  0  0  0  0  0  0  0
  183.3440  176.2090  138.6230 C   0  0  0  0  0  2  0  0  0  0  0  0
  181.8270  176.3010  138.7190 C   0  0  2  0  0  3  0  0  0  0  0  0
  183.4910  178.9510  139.2890 N   0  0  0  0  0  0  0  0  0  0  0  0
  182.3570  177.5210  140.8180 O   0  0  0  0  0  0  0  0  0  0  0  0
  182.5940  177.1720  137.7170 C   0  0  1  0  0  3  0  0  0  0  0  0
  191.0540  178.0420  141.4970 N   0  0  0  0  0  2  0  0  0  0  0  0
  191.8020  176.6070  139.4530 C   0  0  0  0  0  0  0  0  0  0  0  0
  191.4530  177.2710  140.3970 C   0  0  0  0  0  0  0  0  0  0  0  0
  191.1470  172.8530  134.6440 C   0  0  0  0  0  2  0  0  0  0  0  0
  192.2370  175.8210  138.3350 C   0  0  0  0  0  0  0  0  0  0  0  0
  193.0720  174.2920  136.1400 C   0  0  0  0  0  0  0  0  0  0  0  0
  193.4750  173.4630  134.9820 C   0  0  0  0  0  0  0  0  0  0  0  0
  191.7890  174.1050  136.6870 C   0  0  0  0  0  0  0  0  0  0  0  0
  192.5800  172.7640  134.3460 N   0  0  0  0  0  0  0  0  0  0  0  0
  190.9020  173.0250  136.1440 C   0  0  0  0  0  2  0  0  0  0  0  0
  193.5130  176.0130  137.7950 C   0  0  0  0  0  3  0  0  0  0  0  0
  193.9320  175.2490  136.7000 C   0  0  0  0  0  3  0  0  0  0  0  0
  191.3790  174.8620  137.7880 C   0  0  0  0  0  3  0  0  0  0  0  0
  195.5280  172.3010  134.6840 O   0  0  0  0  0  0  0  0  0  0  0  0
  194.8850  173.3780  134.5800 C   0  0  0  0  0  3  0  0  0  0  0  0
  188.6720  178.1080  141.7320 N   0  0  0  0  0  2  0  0  0  0  0  0
  188.6050  177.6660  140.4010 N   0  0  0  0  0  2  0  0  0  0  0  0
  188.5940  178.8110  139.5890 N   0  0  0  0  0  2  0  0  0  0  0  0
  186.9220  176.7740  137.0450 C   0  0  0  0  0  3  0  0  0  0  0  0
  189.0100  177.8240  137.3810 C   0  0  2  0  0  3  0  0  0  0  0  0
  188.5200  179.2050  137.1570 N   0  0  0  0  0  2  0  0  0  0  0  0
  186.7050  177.7120  138.1750 C   0  0  0  0  0  2  0  0  0  0  0  0
  188.1750  176.8530  136.6130 C   0  0  0  0  0  0  0  0  0  0  0  0
  188.0500  178.4130  138.3000 C   0  0  2  0  0  0  0  0  0  0  0  0
  188.6740  176.0790  135.5110 N   0  0  0  0  0  0  0  0  0  0  0  0
  187.9460  174.9280  135.0000 C   0  0  0  0  0  1  0  0  0  0  0  0
  189.8750  176.4980  134.8030 C   0  0  0  0  0  1  0  0  0  0  0  0
  1 25  1  6  0  0  0
  1  2  1  0  0  0  0
  2  3  1  0  0  0  0
  3  4  1  0  0  0  0
  3  6  1  0  0  0  0
  4  5  1  0  0  0  0
  6  7  1  0  0  0  0
  8  9  1  0  0  0  0
  8  7  1  0  0  0  0
  9 10  1  1  0  0  0
 11  9  1  0  0  0  0
 12 13  1  0  0  0  0
 12 15  1  0  0  0  0
 13 15  1  0  0  0  0
 14 16  2  0  0  0  0
 15 11  1  1  0  0  0
 16 12  1  0  0  0  0
 17 23  1  0  0  0  0
 18 22  1  0  0  0  0
 19 23  1  0  0  0  0
 19 16  1  0  0  0  0
 21 20  1  1  0  0  0
 21 17  1  0  0  0  0
 22 19  2  0  0  0  0
 24 18  1  1  0  0  0
 24 20  1  0  0  0  0
 24 21  1  0  0  0  0
 26 27  3  0  0  0  0
 27 25  1  0  0  0  0
 28 34  1  0  0  0  0
 29 26  1  0  0  0  0
 30 32  2  0  0  0  0
 30 36  1  0  0  0  0
 31 30  1  0  0  0  0
 32 37  1  0  0  0  0
 33 28  1  0  0  0  0
 33 31  2  0  0  0  0
 34 32  1  0  0  0  0
 35 29  1  0  0  0  0
 36 35  2  0  0  0  0
 37 29  2  0  0  0  0
 39 38  2  0  0  0  0
 39 31  1  0  0  0  0
 40  1  1  0  0  0  0
 41 40  1  0  0  0  0
 42 41  1  0  0  0  0
 43 46  1  0  0  0  0
 44 47  1  6  0  0  0
 44 48  1  0  0  0  0
 45 44  1  0  0  0  0
 45 48  1  0  0  0  0
 46 48  1  0  0  0  0
 47 43  2  0  0  0  0
 48 42  1  1  0  0  0
 49 47  1  0  0  0  0
 50 49  1  0  0  0  0
 51 49  1  0  0  0  0
M  END
>  <MODEL>
7

>  <REMARK>
 VINA RESULT:      -6.2      2.681      8.841
  Name = 
  19 active torsions:
  status: ('A' for Active; 'I' for Inactive)
    1  A    between atoms: N_1  and  C_35
    2  A    between atoms: N_1  and  C_51
    3  A    between atoms: C_7  and  C_30
    4  A    between atoms: N_9  and  C_35
    5  A    between atoms: N_9  and  N_36
    6  A    between atoms: CA_12  and  C_22
    7  A    between atoms: N_13  and  N_21
    8  A    between atoms: N_13  and  N_46
    9  A    between atoms: C_16  and  C_43
   10  A    between atoms: N_21  and  C_48
   11  A    between atoms: C_25  and  C_38
   12  A    between atoms: C_25  and  N_40
   13  A    between atoms: N_27  and  C_47
   14  A    between atoms: C_28  and  C_33
   15  A    between atoms: C_28  and  N_36
   16  A    between atoms: C_33  and  N_40
   17  A    between atoms: C_34  and  N_36
   18  A    between atoms: C_35  and  N_46
   19  A    between atoms: C_38  and  C_42
                            x       y       z     vdW  Elec       q    Type
                         _______ _______ _______ _____ _____    ______ ____

>  <TORSDO>
F 19

$$$$
=
 OpenBabel10232408543D

 51 57  0  0  1  0  0  0  0  0999 V2000
  190.5610  176.8490  140.3870 C   0  0  2  0  0  3  0  0  0  0  0  0
  190.9150  175.9980  139.2560 N   0  0  0  0  0  2  0  0  0  0  0  0
  191.2400  176.8350  138.1760 N   0  0  0  0  0  0  0  0  0  0  0  0
  192.6230  176.5420  137.8290 C   0  0  0  0  0  2  0  0  0  0  0  0
  192.6660  175.7260  136.5530 C   0  0  0  0  0  1  0  0  0  0  0  0
  190.4110  176.4070  137.0570 C   0  0  0  0  0  2  0  0  0  0  0  0
  189.4960  175.2640  137.4730 C   0  0  0  0  0  2  0  0  0  0  0  0
  188.4520  175.0700  136.4740 N   0  0  0  0  0  2  0  0  0  0  0  0
  187.9950  173.6900  136.5880 C   0  0  2  0  0  3  0  0  0  0  0  0
  188.2090  172.9650  135.2710 C   0  0  0  0  0  1  0  0  0  0  0  0
  186.5130  173.6390  136.9420 C   0  0  0  0  0  2  0  0  0  0  0  0
  184.2100  173.8820  136.1720 N   0  0  0  0  0  0  0  0  0  0  0  0
  185.0540  174.8910  135.4750 C   0  0  0  0  0  2  0  0  0  0  0  0
  182.9090  172.3150  137.2810 O   0  0  0  0  0  0  0  0  0  0  0  0
  185.6100  173.6490  135.7130 C   0  0  1  0  0  3  0  0  0  0  0  0
  183.0080  173.4810  136.8260 C   0  0  0  0  0  0  0  0  0  0  0  0
  180.3300  176.0310  135.8700 C   0  0  0  0  0  2  0  0  0  0  0  0
  180.2790  175.4630  138.5560 C   0  0  0  0  0  2  0  0  0  0  0  0
  181.9060  174.4360  137.0050 C   0  0  0  0  0  0  0  0  0  0  0  0
  181.7930  177.3190  137.5480 C   0  0  0  0  0  2  0  0  0  0  0  0
  180.4940  177.2810  136.7540 C   0  0  2  0  0  3  0  0  0  0  0  0
  181.4020  174.5960  138.1970 N   0  0  0  0  0  0  0  0  0  0  0  0
  181.4630  175.1640  135.8850 O   0  0  0  0  0  0  0  0  0  0  0  0
  180.4940  176.9650  138.2540 C   0  0  1  0  0  3  0  0  0  0  0  0
  189.7800  177.9930  139.9370 N   0  0  0  0  0  2  0  0  0  0  0  0
  187.2920  178.2830  140.6590 C   0  0  0  0  0  0  0  0  0  0  0  0
  188.4420  178.1460  140.3270 C   0  0  0  0  0  0  0  0  0  0  0  0
  182.6550  179.3240  144.5410 C   0  0  0  0  0  2  0  0  0  0  0  0
  185.9230  178.4660  141.0480 C   0  0  0  0  0  0  0  0  0  0  0  0
  183.2550  178.8360  141.8180 C   0  0  0  0  0  0  0  0  0  0  0  0
  181.8560  179.0230  142.2650 C   0  0  0  0  0  0  0  0  0  0  0  0
  184.2420  178.5790  142.7860 C   0  0  0  0  0  0  0  0  0  0  0  0
  181.6010  179.1880  143.5320 N   0  0  0  0  0  0  0  0  0  0  0  0
  183.8470  178.4190  144.2240 C   0  0  0  0  0  2  0  0  0  0  0  0
  184.9460  178.7220  140.0800 C   0  0  0  0  0  3  0  0  0  0  0  0
  183.6120  178.9050  140.4630 C   0  0  0  0  0  3  0  0  0  0  0  0
  185.5700  178.3840  142.3980 C   0  0  0  0  0  3  0  0  0  0  0  0
  180.7290  179.7210  140.2910 O   0  0  0  0  0  0  0  0  0  0  0  0
  180.7500  178.9700  141.3020 C   0  0  0  0  0  3  0  0  0  0  0  0
  191.7650  177.3040  141.0850 N   0  0  0  0  0  2  0  0  0  0  0  0
  191.3900  177.8280  142.3340 N   0  0  0  0  0  2  0  0  0  0  0  0
  191.3000  176.7450  143.2220 N   0  0  0  0  0  2  0  0  0  0  0  0
  190.5030  176.8730  146.7950 C   0  0  0  0  0  3  0  0  0  0  0  0
  189.6010  177.6390  144.7510 C   0  0  2  0  0  3  0  0  0  0  0  0
  190.6040  178.7090  144.5380 N   0  0  0  0  0  2  0  0  0  0  0  0
  191.6000  176.7200  145.8080 C   0  0  0  0  0  2  0  0  0  0  0  0
  189.4250  177.3850  146.2120 C   0  0  0  0  0  0  0  0  0  0  0  0
  190.9970  177.2950  144.5340 C   0  0  2  0  0  0  0  0  0  0  0  0
  188.2100  177.6700  146.9220 N   0  0  0  0  0  0  0  0  0  0  0  0
  188.2160  177.9790  148.3440 C   0  0  0  0  0  1  0  0  0  0  0  0
  186.9450  177.7640  146.2080 C   0  0  0  0  0  1  0  0  0  0  0  0
  1  2  1  6  0  0  0
  1 40  1  0  0  0  0
  3  2  1  0  0  0  0
  4  3  1  0  0  0  0
  5  4  1  0  0  0  0
  6  7  1  0  0  0  0
  6  3  1  0  0  0  0
  8  9  1  0  0  0  0
  8  7  1  0  0  0  0
  9 10  1  6  0  0  0
  9 11  1  0  0  0  0
 12 16  1  0  0  0  0
 13 15  1  0  0  0  0
 13 12  1  0  0  0  0
 15 12  1  0  0  0  0
 15 11  1  1  0  0  0
 16 19  1  0  0  0  0
 16 14  2  0  0  0  0
 17 23  1  0  0  0  0
 19 22  2  0  0  0  0
 21 17  1  6  0  0  0
 21 20  1  0  0  0  0
 21 24  1  0  0  0  0
 22 18  1  0  0  0  0
 23 19  1  0  0  0  0
 24 20  1  6  0  0  0
 24 18  1  0  0  0  0
 25 27  1  0  0  0  0
 25  1  1  0  0  0  0
 26 29  1  0  0  0  0
 27 26  3  0  0  0  0
 29 37  1  0  0  0  0
 30 31  1  0  0  0  0
 30 32  1  0  0  0  0
 31 33  2  0  0  0  0
 32 34  1  0  0  0  0
 33 28  1  0  0  0  0
 34 28  1  0  0  0  0
 35 36  1  0  0  0  0
 35 29  2  0  0  0  0
 36 30  2  0  0  0  0
 37 32  2  0  0  0  0
 38 39  2  0  0  0  0
 39 31  1  0  0  0  0
 40 41  1  0  0  0  0
 41 42  1  0  0  0  0
 44 45  1  1  0  0  0
 44 47  1  0  0  0  0
 46 43  1  0  0  0  0
 47 43  2  0  0  0  0
 47 49  1  0  0  0  0
 48 42  1  6  0  0  0
 48 45  1  0  0  0  0
 48 44  1  0  0  0  0
 48 46  1  0  0  0  0
 49 50  1  0  0  0  0
 51 49  1  0  0  0  0
M  END
>  <MODEL>
8

>  <REMARK>
 VINA RESULT:      -6.2      1.910      2.753
  Name = 
  19 active torsions:
  status: ('A' for Active; 'I' for Inactive)
    1  A    between atoms: N_1  and  C_35
    2  A    between atoms: N_1  and  C_51
    3  A    between atoms: C_7  and  C_30
    4  A    between atoms: N_9  and  C_35
    5  A    between atoms: N_9  and  N_36
    6  A    between atoms: CA_12  and  C_22
    7  A    between atoms: N_13  and  N_21
    8  A    between atoms: N_13  and  N_46
    9  A    between atoms: C_16  and  C_43
   10  A    between atoms: N_21  and  C_48
   11  A    between atoms: C_25  and  C_38
   12  A    between atoms: C_25  and  N_40
   13  A    between atoms: N_27  and  C_47
   14  A    between atoms: C_28  and  C_33
   15  A    between atoms: C_28  and  N_36
   16  A    between atoms: C_33  and  N_40
   17  A    between atoms: C_34  and  N_36
   18  A    between atoms: C_35  and  N_46
   19  A    between atoms: C_38  and  C_42
                            x       y       z     vdW  Elec       q    Type
                         _______ _______ _______ _____ _____    ______ ____

>  <TORSDO>
F 19

$$$$
=
 OpenBabel10232408543D

 51 57  0  0  1  0  0  0  0  0999 V2000
  190.2630  177.1240  140.6450 C   0  0  2  0  0  3  0  0  0  0  0  0
  191.5520  177.4230  140.0280 N   0  0  0  0  0  2  0  0  0  0  0  0
  191.4890  177.0120  138.6870 N   0  0  0  0  0  0  0  0  0  0  0  0
  192.6020  176.0950  138.4840 C   0  0  0  0  0  2  0  0  0  0  0  0
  193.5020  176.6200  137.3840 C   0  0  0  0  0  1  0  0  0  0  0  0
  190.2610  176.2410  138.5480 C   0  0  0  0  0  2  0  0  0  0  0  0
  189.9730  175.9500  137.0820 C   0  0  0  0  0  2  0  0  0  0  0  0
  189.0490  174.8280  136.9660 N   0  0  0  0  0  2  0  0  0  0  0  0
  189.6280  173.8890  136.0120 C   0  0  2  0  0  3  0  0  0  0  0  0
  188.8110  172.6090  135.9880 C   0  0  0  0  0  1  0  0  0  0  0  0
  191.0640  173.5480  136.3920 C   0  0  0  0  0  2  0  0  0  0  0  0
  193.2040  173.1640  135.2820 N   0  0  0  0  0  0  0  0  0  0  0  0
  192.7310  171.8770  135.8650 C   0  0  0  0  0  2  0  0  0  0  0  0
  193.9300  175.1800  134.3990 O   0  0  0  0  0  0  0  0  0  0  0  0
  191.7790  172.7220  135.3280 C   0  0  1  0  0  3  0  0  0  0  0  0
  194.2290  174.1070  134.9780 C   0  0  0  0  0  0  0  0  0  0  0  0
  197.5660  172.2670  135.2240 C   0  0  0  0  0  2  0  0  0  0  0  0
  197.6450  174.6910  136.5130 C   0  0  0  0  0  2  0  0  0  0  0  0
  195.6180  173.8490  135.3770 C   0  0  0  0  0  0  0  0  0  0  0  0
  196.8490  172.5110  137.6820 C   0  0  0  0  0  2  0  0  0  0  0  0
  197.9610  172.1490  136.7080 C   0  0  2  0  0  3  0  0  0  0  0  0
  196.2520  174.7540  136.0680 N   0  0  0  0  0  0  0  0  0  0  0  0
  196.1980  172.6160  135.0210 O   0  0  0  0  0  0  0  0  0  0  0  0
  197.9800  173.4970  137.4380 C   0  0  1  0  0  3  0  0  0  0  0  0
  189.6470  178.3430  141.1500 N   0  0  0  0  0  2  0  0  0  0  0  0
  187.0570  178.5310  141.3720 C   0  0  0  0  0  0  0  0  0  0  0  0
  188.2550  178.4460  141.2710 C   0  0  0  0  0  0  0  0  0  0  0  0
  181.2600  178.1800  139.3900 C   0  0  0  0  0  2  0  0  0  0  0  0
  185.6280  178.6220  141.4730 C   0  0  0  0  0  0  0  0  0  0  0  0
  182.8380  178.7840  141.6620 C   0  0  0  0  0  0  0  0  0  0  0  0
  181.3610  178.8700  141.7190 C   0  0  0  0  0  0  0  0  0  0  0  0
  183.4600  178.7190  140.4020 C   0  0  0  0  0  0  0  0  0  0  0  0
  180.6600  178.6450  140.6450 N   0  0  0  0  0  0  0  0  0  0  0  0
  182.6280  178.8230  139.1580 C   0  0  0  0  0  2  0  0  0  0  0  0
  185.0160  178.6850  142.7290 C   0  0  0  0  0  3  0  0  0  0  0  0
  183.6220  178.7680  142.8250 C   0  0  0  0  0  3  0  0  0  0  0  0
  184.8520  178.6480  140.3100 C   0  0  0  0  0  3  0  0  0  0  0  0
  180.2820  180.4430  143.1380 O   0  0  0  0  0  0  0  0  0  0  0  0
  180.6840  179.2630  142.9610 C   0  0  0  0  0  3  0  0  0  0  0  0
  190.4240  176.1540  141.7300 N   0  0  0  0  0  2  0  0  0  0  0  0
  191.3860  176.6410  142.6300 N   0  0  0  0  0  2  0  0  0  0  0  0
  191.3140  175.8390  143.7800 N   0  0  0  0  0  2  0  0  0  0  0  0
  190.5020  176.9230  147.1840 C   0  0  0  0  0  3  0  0  0  0  0  0
  189.5920  177.0820  145.0110 C   0  0  2  0  0  3  0  0  0  0  0  0
  190.5740  178.0740  144.5110 N   0  0  0  0  0  2  0  0  0  0  0  0
  191.6060  176.5290  146.2740 C   0  0  0  0  0  2  0  0  0  0  0  0
  189.4160  177.2340  146.4860 C   0  0  0  0  0  0  0  0  0  0  0  0
  190.9960  176.7210  144.8930 C   0  0  2  0  0  0  0  0  0  0  0  0
  188.1930  177.6770  147.0950 N   0  0  0  0  0  0  0  0  0  0  0  0
  187.0200  177.9970  146.2950 C   0  0  0  0  0  1  0  0  0  0  0  0
  188.0640  177.7120  148.5440 C   0  0  0  0  0  1  0  0  0  0  0  0
  1  2  1  1  0  0  0
  1 25  1  0  0  0  0
  1 40  1  0  0  0  0
  3  2  1  0  0  0  0
  4  3  1  0  0  0  0
  5  4  1  0  0  0  0
  6  3  1  0  0  0  0
  7  6  1  0  0  0  0
  8  7  1  0  0  0  0
  9 10  1  1  0  0  0
  9 11  1  0  0  0  0
  9  8  1  0  0  0  0
 12 15  1  0  0  0  0
 12 13  1  0  0  0  0
 14 16  2  0  0  0  0
 15 13  1  0  0  0  0
 15 11  1  1  0  0  0
 16 12  1  0  0  0  0
 16 19  1  0  0  0  0
 19 22  2  0  0  0  0
 21 17  1  6  0  0  0
 21 24  1  0  0  0  0
 21 20  1  0  0  0  0
 22 18  1  0  0  0  0
 23 17  1  0  0  0  0
 23 19  1  0  0  0  0
 24 18  1  6  0  0  0
 24 20  1  0  0  0  0
 25 27  1  0  0  0  0
 26 29  1  0  0  0  0
 27 26  3  0  0  0  0
 28 33  1  0  0  0  0
 29 35  1  0  0  0  0
 30 31  1  0  0  0  0
 30 36  1  0  0  0  0
 31 39  1  0  0  0  0
 32 30  2  0  0  0  0
 33 31  2  0  0  0  0
 34 28  1  0  0  0  0
 34 32  1  0  0  0  0
 35 36  2  0  0  0  0
 37 32  1  0  0  0  0
 37 29  2  0  0  0  0
 39 38  2  0  0  0  0
 40 41  1  0  0  0  0
 41 42  1  0  0  0  0
 44 45  1  6  0  0  0
 44 47  1  0  0  0  0
 45 48  1  0  0  0  0
 46 43  1  0  0  0  0
 47 49  1  0  0  0  0
 47 43  2  0  0  0  0
 48 42  1  6  0  0  0
 48 44  1  0  0  0  0
 48 46  1  0  0  0  0
 49 51  1  0  0  0  0
 50 49  1  0  0  0  0
M  END
>  <MODEL>
9

>  <REMARK>
 VINA RESULT:      -6.2      3.371      7.673
  Name = 
  19 active torsions:
  status: ('A' for Active; 'I' for Inactive)
    1  A    between atoms: N_1  and  C_35
    2  A    between atoms: N_1  and  C_51
    3  A    between atoms: C_7  and  C_30
    4  A    between atoms: N_9  and  C_35
    5  A    between atoms: N_9  and  N_36
    6  A    between atoms: CA_12  and  C_22
    7  A    between atoms: N_13  and  N_21
    8  A    between atoms: N_13  and  N_46
    9  A    between atoms: C_16  and  C_43
   10  A    between atoms: N_21  and  C_48
   11  A    between atoms: C_25  and  C_38
   12  A    between atoms: C_25  and  N_40
   13  A    between atoms: N_27  and  C_47
   14  A    between atoms: C_28  and  C_33
   15  A    between atoms: C_28  and  N_36
   16  A    between atoms: C_33  and  N_40
   17  A    between atoms: C_34  and  N_36
   18  A    between atoms: C_35  and  N_46
   19  A    between atoms: C_38  and  C_42
                            x       y       z     vdW  Elec       q    Type
                         _______ _______ _______ _____ _____    ______ ____

>  <TORSDO>
F 19

$$$$
