=
 OpenBabel10232410043D

 49 50  0  0  1  0  0  0  0  0999 V2000
  191.5840  177.2870  142.4650 C   0  0  0  0  0  3  0  0  0  0  0  0
  189.6250  175.8770  137.2620 C   0  0  0  0  0  3  0  0  0  0  0  0
  184.5810  178.3250  146.5740 O   0  0  0  0  0  0  0  0  0  0  0  0
  191.5950  177.3080  140.0890 O   0  0  0  0  0  0  0  0  0  0  0  0
  185.5590  178.1920  145.7920 C   0  0  0  0  0  0  0  0  0  0  0  0
  187.4330  177.9490  142.6690 C   0  0  0  0  0  3  0  0  0  0  0  0
  188.6980  178.0000  140.1070 C   0  0  0  0  0  3  0  0  0  0  0  0
  187.6320  177.8810  145.0600 C   0  0  0  0  0  0  0  0  0  0  0  0
  190.9520  177.3750  143.7030 C   0  0  0  0  0  3  0  0  0  0  0  0
  188.8910  177.6280  138.8420 C   0  0  0  0  0  0  0  0  0  0  0  0
  188.9690  177.6750  144.9880 N   0  0  0  0  0  0  0  0  0  0  0  0
  188.8240  177.7320  142.5690 C   0  0  0  0  0  0  0  0  0  0  0  0
  189.5790  177.5910  143.7700 C   0  0  0  0  0  0  0  0  0  0  0  0
  191.8620  174.9680  137.2630 C   0  0  0  0  0  0  0  0  0  0  0  0
  190.8640  177.4080  141.2730 C   0  0  0  0  0  0  0  0  0  0  0  0
  186.8910  177.9870  146.2610 N   0  0  0  0  0  2  0  0  0  0  0  0
  192.1670  175.7440  138.3810 C   0  0  0  0  0  3  0  0  0  0  0  0
  189.4710  177.6480  141.3130 C   0  0  0  0  0  0  0  0  0  0  0  0
  185.4340  178.2300  144.2980 C   0  0  0  0  0  2  0  0  0  0  0  0
  189.9160  176.6600  138.3930 C   0  0  0  0  0  0  0  0  0  0  0  0
  186.8590  178.0140  143.9350 C   0  0  0  0  0  0  0  0  0  0  0  0
  190.5850  175.0270  136.7090 C   0  0  0  0  0  3  0  0  0  0  0  0
  191.2040  176.5760  138.9670 C   0  0  0  0  0  0  0  0  0  0  0  0
  192.8950  174.0800  136.6600 C   0  0  0  0  0  2  0  0  0  0  0  0
  193.7110  173.5420  137.6580 O   0  0  0  0  0  0  0  0  0  0  0  0
  195.2700  174.7970  135.6070 C   0  0  0  0  0  1  0  0  0  0  0  0
  195.8370  174.9570  138.2610 O   0  0  0  0  0  1  0  0  0  0  0  0
  196.2890  172.6230  137.1520 O   0  0  0  0  0  0  0  0  0  0  0  0
  195.2900  173.9900  137.2330 P   0  0  1  0  0  0  0  0  0  0  0  0
  187.9430  178.2100  137.8400 C   0  0  0  0  0  2  0  0  0  0  0  0
  186.5530  177.6140  138.0190 C   0  0  0  0  0  2  0  0  0  0  0  0
  186.0990  176.9200  136.7420 C   0  0  0  0  0  2  0  0  0  0  0  0
  184.8310  176.3540  136.9390 O   0  0  0  0  0  0  0  0  0  0  0  0
  185.0680  175.0440  137.2050 N   0  0  0  0  0  0  0  0  0  0  0  0
  185.4330  174.3950  135.9370 C   0  0  2  0  0  3  0  0  0  0  0  0
  184.3550  174.3650  135.0440 O   0  0  0  0  0  1  0  0  0  0  0  0
  187.2460  173.0650  137.0100 C   0  0  0  0  0  1  0  0  0  0  0  0
  185.9770  172.9920  136.1800 C   0  0  0  0  0  2  0  0  0  0  0  0
  183.8250  174.4730  137.7210 C   0  0  0  0  0  1  0  0  0  0  0  0
  182.7340  175.5370  137.7680 C   0  0  0  0  0 15  0  0  0  0  0  0
  181.9490  175.4120  139.0680 O   0  0  0  0  0  1  0  0  0  0  0  0
  181.7610  175.9960  138.5840 O   0  0  0  0  0  0  0  0  0  0  0  0
  181.2500  176.5520  139.5950 C   0  0  0  0  0  1  0  0  0  0  0  0
  181.9730  177.5680  140.4090 C   0  0  0  0  0  1  0  0  0  0  0  0
  181.7250  178.8390  139.8900 O   0  0  0  0  0  0  0  0  0  0  0  0
  182.9890  179.3620  139.6080 C   0  0  2  0  0  3  0  0  0  0  0  0
  183.3810  178.9800  138.3240 O   0  0  0  0  0  1  0  0  0  0  0  0
  185.1570  179.6260  140.5570 O   0  0  0  0  0  1  0  0  0  0  0  0
  183.9980  178.8510  140.6160 C   0  0  0  0  0  2  0  0  0  0  0  0
  1  9  1  0  0  0  0
  2 20  1  0  0  0  0
  4 15  1  0  0  0  0
  5 16  1  0  0  0  0
  5  3  2  0  0  0  0
  6 21  2  0  0  0  0
  7 18  1  0  0  0  0
  8 16  1  0  0  0  0
  9 13  2  0  0  0  0
 10  7  2  0  0  0  0
 11  8  2  0  0  0  0
 12  6  1  0  0  0  0
 12 13  1  0  0  0  0
 13 11  1  0  0  0  0
 14 17  2  0  0  0  0
 15 18  1  0  0  0  0
 15  1  2  0  0  0  0
 17 23  1  0  0  0  0
 18 12  2  0  0  0  0
 19  5  1  0  0  0  0
 20 10  1  0  0  0  0
 20 23  2  0  0  0  0
 21 19  1  0  0  0  0
 21  8  1  0  0  0  0
 22  2  2  0  0  0  0
 22 14  1  0  0  0  0
 23  4  1  0  0  0  0
 24 14  1  0  0  0  0
 24 25  1  0  0  0  0
 28 29  2  0  0  0  0
 29 26  1  6  0  0  0
 29 25  1  0  0  0  0
 29 27  1  0  0  0  0
 30 31  1  0  0  0  0
 30 10  1  0  0  0  0
 32 33  1  0  0  0  0
 32 31  1  0  0  0  0
 33 34  1  0  0  0  0
 34 39  1  0  0  0  0
 35 36  1  6  0  0  0
 35 38  1  0  0  0  0
 35 34  1  0  0  0  0
 38 37  1  0  0  0  0
 42 41  1  0  0  0  0
 42 43  1  0  0  0  0
 45 44  1  0  0  0  0
 46 47  1  6  0  0  0
 46 45  1  0  0  0  0
 46 49  1  0  0  0  0
 48 49  1  0  0  0  0
M  END
>  <MODEL>
1

>  <REMARK>
 VINA RESULT:      -7.2      0.000      0.000
  Name = 
  18 active torsions:
  status: ('A' for Active; 'I' for Inactive)
    1  A    between atoms: C_1  and  C_22
    2  A    between atoms: C_1  and  C_45
    3  A    between atoms: C_2  and  C_26
    4  A    between atoms: C_2  and  N_33
    5  A    between atoms: C_3  and  O_21
    6  A    between atoms: C_3  and  C_30
    7  A    between atoms: C_7  and  O_21
    8  A    between atoms: C_7  and  C_32
    9  A    between atoms: C_18  and  C_22
   10  A    between atoms: C_23  and  C_28
   11  A    between atoms: C_23  and  O_48
   12  A    between atoms: C_30  and  O_43
   13  A    between atoms: N_33  and  O_34
   14  A    between atoms: N_33  and  C_44
   15  A    between atoms: O_34  and  C_45
   16  A    between atoms: P_41  and  O_48
   17  A    between atoms: O_43  and  C_47
   18  A    between atoms: C_44  and  C_47
                            x       y       z     vdW  Elec       q    Type
                         _______ _______ _______ _____ _____    ______ ____

>  <TORSDO>
F 18

$$$$
=
 OpenBabel10232410043D

 49 51  0  0  1  0  0  0  0  0999 V2000
  188.7700  172.8860  136.0280 C   0  0  0  0  0  3  0  0  0  0  0  0
  192.7300  176.6250  137.8290 C   0  0  0  0  0  3  0  0  0  0  0  0
  182.1080  177.6330  135.7530 O   0  0  0  0  0  0  0  0  0  0  0  0
  190.6730  173.5600  137.2820 O   0  0  0  0  0  0  0  0  0  0  0  0
  183.2000  177.0260  135.9100 C   0  0  0  0  0  0  0  0  0  0  0  0
  186.5920  176.3330  137.0670 C   0  0  0  0  0  3  0  0  0  0  0  0
  189.1540  175.9270  138.2650 C   0  0  0  0  0  3  0  0  0  0  0  0
  184.7850  175.4820  135.7360 C   0  0  0  0  0  0  0  0  0  0  0  0
  187.4750  173.0640  135.5470 C   0  0  0  0  0  3  0  0  0  0  0  0
  190.4090  176.2450  138.5840 C   0  0  0  0  0  0  0  0  0  0  0  0
  185.4890  174.3710  135.4110 N   0  0  0  0  0  0  0  0  0  0  0  0
  187.3450  175.1860  136.7390 C   0  0  0  0  0  0  0  0  0  0  0  0
  186.7570  174.2060  135.8880 C   0  0  0  0  0  0  0  0  0  0  0  0
  194.0500  174.9180  136.7470 C   0  0  0  0  0  0  0  0  0  0  0  0
  189.3750  173.8390  136.8530 C   0  0  0  0  0  0  0  0  0  0  0  0
  183.4660  175.7620  135.3040 N   0  0  0  0  0  2  0  0  0  0  0  0
  192.9490  174.0610  136.7740 C   0  0  0  0  0  3  0  0  0  0  0  0
  188.6590  174.9990  137.2320 C   0  0  0  0  0  0  0  0  0  0  0  0
  184.3300  177.5610  136.7370 C   0  0  0  0  0  2  0  0  0  0  0  0
  191.6090  175.7760  137.8590 C   0  0  0  0  0  0  0  0  0  0  0  0
  185.3080  176.4580  136.5430 C   0  0  0  0  0  0  0  0  0  0  0  0
  193.9360  176.2060  137.2660 C   0  0  0  0  0  3  0  0  0  0  0  0
  191.7220  174.4800  137.3060 C   0  0  0  0  0  0  0  0  0  0  0  0
  195.3440  174.4610  136.1680 C   0  0  0  0  0  2  0  0  0  0  0  0
  196.3850  175.2850  136.6040 O   0  0  0  0  0  0  0  0  0  0  0  0
  196.4910  174.3830  139.3220 C   0  0  0  0  0  1  0  0  0  0  0  0
  197.3200  172.9050  137.1960 O   0  0  0  0  0  0  0  0  0  0  0  0
  198.8600  174.9330  137.8270 O   0  0  0  0  0  1  0  0  0  0  0  0
  197.2810  174.3360  137.6880 P   0  0  1  0  0  0  0  0  0  0  0  0
  190.5680  177.1950  139.7300 C   0  0  0  0  0  2  0  0  0  0  0  0
  189.2090  177.7030  140.1900 C   0  0  0  0  0  2  0  0  0  0  0  0
  188.9640  177.3350  141.6460 C   0  0  0  0  0  2  0  0  0  0  0  0
  190.1100  177.6190  142.4030 O   0  0  0  0  0  0  0  0  0  0  0  0
  189.6410  178.0700  143.5960 N   0  0  0  0  0  0  0  0  0  0  0  0
  190.7800  178.1290  144.5230 C   0  0  2  0  0  3  0  0  0  0  0  0
  191.7970  178.9610  144.0390 O   0  0  0  0  0  1  0  0  0  0  0  0
  191.5880  176.5840  146.3030 C   0  0  0  0  0  1  0  0  0  0  0  0
  191.3150  176.7320  144.8170 C   0  0  0  0  0  2  0  0  0  0  0  0
  188.6560  177.1000  144.0710 C   0  0  0  0  0  2  0  0  0  0  0  0
  187.6600  177.7740  145.0080 C   0  0  0  0  0  1  0  0  0  0  0  0
  186.2450  177.5810  144.4800 O   0  0  0  0  0  1  0  0  0  0  0  0
  185.5900  177.7570  144.8700 O   0  0  0  0  0  0  0  0  0  0  0  0
  185.4740  178.7210  144.0640 C   0  0  0  0  0  1  0  0  0  0  0  0
  184.6300  178.6530  142.8390 C   0  0  0  0  0  1  0  0  0  0  0  0
  185.1830  179.4680  141.8500 O   0  0  0  0  0  0  0  0  0  0  0  0
  184.9790  178.7680  140.6580 C   0  0  2  0  0  3  0  0  0  0  0  0
  186.1170  178.8600  139.8570 O   0  0  0  0  0  1  0  0  0  0  0  0
  184.2250  180.3320  139.0280 O   0  0  0  0  0  1  0  0  0  0  0  0
  183.7910  179.3460  139.9150 C   0  0  0  0  0  2  0  0  0  0  0  0
  1 15  1  0  0  0  0
  2 20  1  0  0  0  0
  3  5  2  0  0  0  0
  4 23  1  0  0  0  0
  5 19  1  0  0  0  0
  7 10  2  0  0  0  0
  8 21  1  0  0  0  0
  9 13  1  0  0  0  0
  9  1  2  0  0  0  0
 10 30  1  0  0  0  0
 11  8  2  0  0  0  0
 11 13  1  0  0  0  0
 12  6  1  0  0  0  0
 12 18  1  0  0  0  0
 13 12  2  0  0  0  0
 14 17  2  0  0  0  0
 14 22  1  0  0  0  0
 15 18  2  0  0  0  0
 15  4  1  0  0  0  0
 16  8  1  0  0  0  0
 16  5  1  0  0  0  0
 17 23  1  0  0  0  0
 18  7  1  0  0  0  0
 20 10  1  0  0  0  0
 21 19  1  0  0  0  0
 21  6  2  0  0  0  0
 22  2  2  0  0  0  0
 23 20  2  0  0  0  0
 24 25  1  0  0  0  0
 24 14  1  0  0  0  0
 25 29  1  0  0  0  0
 27 29  2  0  0  0  0
 29 28  1  0  0  0  0
 29 26  1  1  0  0  0
 30 31  1  0  0  0  0
 31 32  1  0  0  0  0
 32 33  1  0  0  0  0
 33 34  1  0  0  0  0
 34 39  1  0  0  0  0
 34 35  1  0  0  0  0
 35 36  1  6  0  0  0
 35 38  1  0  0  0  0
 38 37  1  0  0  0  0
 39 40  1  0  0  0  0
 41 42  1  0  0  0  0
 43 42  1  0  0  0  0
 45 44  1  0  0  0  0
 46 47  1  6  0  0  0
 46 45  1  0  0  0  0
 48 49  1  0  0  0  0
 49 46  1  0  0  0  0
M  END
>  <MODEL>
2

>  <REMARK>
 VINA RESULT:      -7.0      2.006      6.806
  Name = 
  18 active torsions:
  status: ('A' for Active; 'I' for Inactive)
    1  A    between atoms: C_1  and  C_22
    2  A    between atoms: C_1  and  C_45
    3  A    between atoms: C_2  and  C_26
    4  A    between atoms: C_2  and  N_33
    5  A    between atoms: C_3  and  O_21
    6  A    between atoms: C_3  and  C_30
    7  A    between atoms: C_7  and  O_21
    8  A    between atoms: C_7  and  C_32
    9  A    between atoms: C_18  and  C_22
   10  A    between atoms: C_23  and  C_28
   11  A    between atoms: C_23  and  O_48
   12  A    between atoms: C_30  and  O_43
   13  A    between atoms: N_33  and  O_34
   14  A    between atoms: N_33  and  C_44
   15  A    between atoms: O_34  and  C_45
   16  A    between atoms: P_41  and  O_48
   17  A    between atoms: O_43  and  C_47
   18  A    between atoms: C_44  and  C_47
                            x       y       z     vdW  Elec       q    Type
                         _______ _______ _______ _____ _____    ______ ____

>  <TORSDO>
F 18

$$$$
=
 OpenBabel10232410043D

 49 51  0  0  1  0  0  0  0  0999 V2000
  188.2180  172.7320  136.1130 C   0  0  0  0  0  3  0  0  0  0  0  0
  192.0780  176.6690  137.6930 C   0  0  0  0  0  3  0  0  0  0  0  0
  181.5830  177.3830  134.9550 O   0  0  0  0  0  0  0  0  0  0  0  0
  190.0520  173.5520  137.3830 O   0  0  0  0  0  0  0  0  0  0  0  0
  182.6650  176.8040  135.2370 C   0  0  0  0  0  0  0  0  0  0  0  0
  185.9900  176.2620  136.6430 C   0  0  0  0  0  3  0  0  0  0  0  0
  188.4840  176.0050  138.0130 C   0  0  0  0  0  3  0  0  0  0  0  0
  184.2560  175.2580  135.3210 C   0  0  0  0  0  0  0  0  0  0  0  0
  186.9510  172.8480  135.5470 C   0  0  0  0  0  3  0  0  0  0  0  0
  189.7200  176.3630  138.3610 C   0  0  0  0  0  0  0  0  0  0  0  0
  184.9760  174.1210  135.1600 N   0  0  0  0  0  0  0  0  0  0  0  0
  186.7590  175.0890  136.4860 C   0  0  0  0  0  0  0  0  0  0  0  0
  186.2160  174.0170  135.7200 C   0  0  0  0  0  0  0  0  0  0  0  0
  193.4530  174.8590  136.8790 C   0  0  0  0  0  0  0  0  0  0  0  0
  188.7780  173.7740  136.8580 C   0  0  0  0  0  0  0  0  0  0  0  0
  182.9630  175.4810  134.7920 N   0  0  0  0  0  2  0  0  0  0  0  0
  192.3520  174.0050  136.9440 C   0  0  0  0  0  3  0  0  0  0  0  0
  188.0440  174.9650  137.0660 C   0  0  0  0  0  0  0  0  0  0  0  0
  183.7500  177.4330  136.0580 C   0  0  0  0  0  2  0  0  0  0  0  0
  190.9580  175.8230  137.7570 C   0  0  0  0  0  0  0  0  0  0  0  0
  184.7360  176.3210  136.0410 C   0  0  0  0  0  0  0  0  0  0  0  0
  193.3130  176.1970  137.2450 C   0  0  0  0  0  3  0  0  0  0  0  0
  191.0990  174.4740  137.3600 C   0  0  0  0  0  0  0  0  0  0  0  0
  194.7760  174.3470  136.4250 C   0  0  0  0  0  2  0  0  0  0  0  0
  195.6220  174.1570  137.5210 O   0  0  0  0  0  0  0  0  0  0  0  0
  198.0870  173.4280  136.2520 C   0  0  0  0  0  1  0  0  0  0  0  0
  196.9270  175.8780  136.0290 O   0  0  0  0  0  0  0  0  0  0  0  0
  197.9930  175.3450  138.3670 O   0  0  0  0  0  1  0  0  0  0  0  0
  197.1290  174.7610  137.0310 P   0  0  1  0  0  0  0  0  0  0  0  0
  189.8190  177.4360  139.4000 C   0  0  0  0  0  2  0  0  0  0  0  0
  188.4740  178.1270  139.5780 C   0  0  0  0  0  2  0  0  0  0  0  0
  188.2870  178.5720  141.0220 C   0  0  0  0  0  2  0  0  0  0  0  0
  186.9180  178.6660  141.3120 O   0  0  0  0  0  0  0  0  0  0  0  0
  186.6860  177.6920  142.2310 N   0  0  0  0  0  0  0  0  0  0  0  0
  185.4460  178.0410  142.9390 C   0  0  2  0  0  3  0  0  0  0  0  0
  184.4900  178.5790  142.0700 O   0  0  0  0  0  1  0  0  0  0  0  0
  184.8650  178.6350  145.2880 C   0  0  0  0  0  1  0  0  0  0  0  0
  185.7290  178.9960  144.0930 C   0  0  0  0  0  2  0  0  0  0  0  0
  187.8140  177.6940  143.1610 C   0  0  0  0  0  2  0  0  0  0  0  0
  188.1540  176.2700  143.5850 C   0  0  0  0  0  1  0  0  0  0  0  0
  189.4610  175.8380  142.9340 O   0  0  0  0  0  1  0  0  0  0  0  0
  190.0740  175.7140  142.4650 O   0  0  0  0  0  0  0  0  0  0  0  0
  190.6490  176.6240  143.1240 C   0  0  0  0  0  1  0  0  0  0  0  0
  191.5650  176.3410  144.2630 C   0  0  0  0  0  1  0  0  0  0  0  0
  191.4770  177.3750  145.1960 O   0  0  0  0  0  0  0  0  0  0  0  0
  190.6620  176.8700  146.2120 C   0  0  2  0  0  3  0  0  0  0  0  0
  189.5940  177.7390  146.4350 O   0  0  0  0  0  1  0  0  0  0  0  0
  192.2760  175.5840  147.3990 O   0  0  0  0  0  1  0  0  0  0  0  0
  191.4620  176.7140  147.4890 C   0  0  0  0  0  2  0  0  0  0  0  0
  1 15  1  0  0  0  0
  2 20  1  0  0  0  0
  3  5  2  0  0  0  0
  5 19  1  0  0  0  0
  7 10  2  0  0  0  0
  8 21  1  0  0  0  0
  9 13  1  0  0  0  0
  9  1  2  0  0  0  0
 10 30  1  0  0  0  0
 11  8  2  0  0  0  0
 11 13  1  0  0  0  0
 12  6  1  0  0  0  0
 12 18  1  0  0  0  0
 13 12  2  0  0  0  0
 14 17  2  0  0  0  0
 14 22  1  0  0  0  0
 15 18  2  0  0  0  0
 15  4  1  0  0  0  0
 16  5  1  0  0  0  0
 16  8  1  0  0  0  0
 17 23  1  0  0  0  0
 18  7  1  0  0  0  0
 20 10  1  0  0  0  0
 21 19  1  0  0  0  0
 21  6  2  0  0  0  0
 22  2  2  0  0  0  0
 23  4  1  0  0  0  0
 23 20  2  0  0  0  0
 24 14  1  0  0  0  0
 24 25  1  0  0  0  0
 27 29  2  0  0  0  0
 29 26  1  6  0  0  0
 29 25  1  0  0  0  0
 29 28  1  0  0  0  0
 30 31  1  0  0  0  0
 31 32  1  0  0  0  0
 32 33  1  0  0  0  0
 33 34  1  0  0  0  0
 34 35  1  0  0  0  0
 34 39  1  0  0  0  0
 35 36  1  6  0  0  0
 35 38  1  0  0  0  0
 38 37  1  0  0  0  0
 39 40  1  0  0  0  0
 42 41  1  0  0  0  0
 42 43  1  0  0  0  0
 44 45  1  0  0  0  0
 45 46  1  0  0  0  0
 46 47  1  1  0  0  0
 46 49  1  0  0  0  0
 48 49  1  0  0  0  0
M  END
>  <MODEL>
3

>  <REMARK>
 VINA RESULT:      -6.5      2.496      7.570
  Name = 
  18 active torsions:
  status: ('A' for Active; 'I' for Inactive)
    1  A    between atoms: C_1  and  C_22
    2  A    between atoms: C_1  and  C_45
    3  A    between atoms: C_2  and  C_26
    4  A    between atoms: C_2  and  N_33
    5  A    between atoms: C_3  and  O_21
    6  A    between atoms: C_3  and  C_30
    7  A    between atoms: C_7  and  O_21
    8  A    between atoms: C_7  and  C_32
    9  A    between atoms: C_18  and  C_22
   10  A    between atoms: C_23  and  C_28
   11  A    between atoms: C_23  and  O_48
   12  A    between atoms: C_30  and  O_43
   13  A    between atoms: N_33  and  O_34
   14  A    between atoms: N_33  and  C_44
   15  A    between atoms: O_34  and  C_45
   16  A    between atoms: P_41  and  O_48
   17  A    between atoms: O_43  and  C_47
   18  A    between atoms: C_44  and  C_47
                            x       y       z     vdW  Elec       q    Type
                         _______ _______ _______ _____ _____    ______ ____

>  <TORSDO>
F 18

$$$$
=
 OpenBabel10232410043D

 49 50  0  0  1  0  0  0  0  0999 V2000
  187.3680  176.7530  135.1310 C   0  0  0  0  0  3  0  0  0  0  0  0
  183.1520  176.8220  139.0200 C   0  0  0  0  0  3  0  0  0  0  0  0
  193.9810  176.8680  139.9520 O   0  0  0  0  0  0  0  0  0  0  0  0
  185.2470  177.4000  135.9870 O   0  0  0  0  0  0  0  0  0  0  0  0
  192.8750  176.9190  139.3530 C   0  0  0  0  0  0  0  0  0  0  0  0
  189.3070  177.4550  138.7980 C   0  0  0  0  0  3  0  0  0  0  0  0
  186.5440  178.1440  138.5630 C   0  0  0  0  0  3  0  0  0  0  0  0
  191.3490  176.7530  137.7490 C   0  0  0  0  0  0  0  0  0  0  0  0
  188.7370  176.5290  135.2500 C   0  0  0  0  0  3  0  0  0  0  0  0
  185.2530  178.1140  138.8960 C   0  0  0  0  0  0  0  0  0  0  0  0
  190.7190  176.5350  136.5690 N   0  0  0  0  0  0  0  0  0  0  0  0
  188.6300  177.2320  137.5810 C   0  0  0  0  0  0  0  0  0  0  0  0
  189.3770  176.7580  136.4630 C   0  0  0  0  0  0  0  0  0  0  0  0
  182.0770  175.8820  137.0730 C   0  0  0  0  0  0  0  0  0  0  0  0
  186.6100  177.2050  136.2150 C   0  0  0  0  0  0  0  0  0  0  0  0
  192.7320  176.5590  137.9800 N   0  0  0  0  0  2  0  0  0  0  0  0
  183.1380  176.3260  136.2830 C   0  0  0  0  0  3  0  0  0  0  0  0
  187.2390  177.4650  137.4550 C   0  0  0  0  0  0  0  0  0  0  0  0
  191.5990  177.3520  140.0100 C   0  0  0  0  0  2  0  0  0  0  0  0
  184.2310  177.2710  138.2380 C   0  0  0  0  0  0  0  0  0  0  0  0
  190.6740  177.2000  138.8560 C   0  0  0  0  0  0  0  0  0  0  0  0
  182.0890  176.1210  138.4460 C   0  0  0  0  0  3  0  0  0  0  0  0
  184.2260  177.0020  136.8510 C   0  0  0  0  0  0  0  0  0  0  0  0
  180.9330  175.1560  136.4550 C   0  0  0  0  0  2  0  0  0  0  0  0
  181.3990  174.0840  135.6890 O   0  0  0  0  0  0  0  0  0  0  0  0
  182.5410  171.8160  137.0180 C   0  0  0  0  0  1  0  0  0  0  0  0
  180.2920  173.0950  137.8540 O   0  0  0  0  0  1  0  0  0  0  0  0
  180.0280  171.6610  135.6720 O   0  0  0  0  0  0  0  0  0  0  0  0
  181.0130  172.6950  136.5840 P   0  0  1  0  0  0  0  0  0  0  0  0
  184.8610  178.9670  140.0620 C   0  0  0  0  0  2  0  0  0  0  0  0
  185.9630  178.9650  141.1130 C   0  0  0  0  0  2  0  0  0  0  0  0
  185.4370  178.4350  142.4400 C   0  0  0  0  0  2  0  0  0  0  0  0
  184.4960  179.3320  142.9650 O   0  0  0  0  0  0  0  0  0  0  0  0
  183.5320  178.5480  143.5150 N   0  0  0  0  0  0  0  0  0  0  0  0
  182.2330  179.1530  143.1880 C   0  0  2  0  0  3  0  0  0  0  0  0
  181.2480  178.7890  144.1140 O   0  0  0  0  0  1  0  0  0  0  0  0
  180.3880  178.2510  141.7780 C   0  0  0  0  0  1  0  0  0  0  0  0
  181.8060  178.7930  141.7700 C   0  0  0  0  0  2  0  0  0  0  0  0
  183.7400  178.5540  144.9620 C   0  0  0  0  0  1  0  0  0  0  0  0
  185.1070  179.1390  145.2990 C   0  0  0  0  0 15  0  0  0  0  0  0
  185.8240  178.2330  146.2910 O   0  0  0  0  0  1  0  0  0  0  0  0
  186.2370  178.8010  145.9490 O   0  0  0  0  0  0  0  0  0  0  0  0
  187.2560  178.1240  146.2550 C   0  0  0  0  0  1  0  0  0  0  0  0
  187.9160  177.1840  145.3070 C   0  0  0  0  0  1  0  0  0  0  0  0
  188.9300  177.8540  144.6210 O   0  0  0  0  0  0  0  0  0  0  0  0
  189.1150  177.1150  143.4490 C   0  0  2  0  0  3  0  0  0  0  0  0
  188.1130  176.1500  143.3380 O   0  0  0  0  0  1  0  0  0  0  0  0
  191.2140  176.9090  144.5530 O   0  0  0  0  0  1  0  0  0  0  0  0
  190.4690  176.4370  143.4720 C   0  0  0  0  0  2  0  0  0  0  0  0
  1  9  2  0  0  0  0
  1 15  1  0  0  0  0
  4 15  1  0  0  0  0
  4 23  1  0  0  0  0
  5  3  2  0  0  0  0
  5 19  1  0  0  0  0
  6 21  2  0  0  0  0
  7 10  2  0  0  0  0
  8 16  1  0  0  0  0
  8 21  1  0  0  0  0
  9 13  1  0  0  0  0
 10 30  1  0  0  0  0
 11  8  2  0  0  0  0
 12  6  1  0  0  0  0
 13 11  1  0  0  0  0
 13 12  2  0  0  0  0
 14 22  2  0  0  0  0
 15 18  2  0  0  0  0
 16  5  1  0  0  0  0
 17 23  2  0  0  0  0
 17 14  1  0  0  0  0
 18 12  1  0  0  0  0
 18  7  1  0  0  0  0
 20 10  1  0  0  0  0
 20  2  2  0  0  0  0
 21 19  1  0  0  0  0
 22  2  1  0  0  0  0
 23 20  1  0  0  0  0
 24 14  1  0  0  0  0
 25 24  1  0  0  0  0
 25 29  1  0  0  0  0
 28 29  2  0  0  0  0
 29 26  1  1  0  0  0
 29 27  1  0  0  0  0
 30 31  1  0  0  0  0
 31 32  1  0  0  0  0
 32 33  1  0  0  0  0
 33 34  1  0  0  0  0
 34 39  1  0  0  0  0
 35 34  1  0  0  0  0
 35 36  1  1  0  0  0
 38 37  1  0  0  0  0
 38 35  1  0  0  0  0
 42 43  1  0  0  0  0
 42 41  1  0  0  0  0
 45 44  1  0  0  0  0
 46 47  1  1  0  0  0
 46 49  1  0  0  0  0
 46 45  1  0  0  0  0
 49 48  1  0  0  0  0
M  END
>  <MODEL>
4

>  <REMARK>
 VINA RESULT:      -6.4      3.387      8.846
  Name = 
  18 active torsions:
  status: ('A' for Active; 'I' for Inactive)
    1  A    between atoms: C_1  and  C_22
    2  A    between atoms: C_1  and  C_45
    3  A    between atoms: C_2  and  C_26
    4  A    between atoms: C_2  and  N_33
    5  A    between atoms: C_3  and  O_21
    6  A    between atoms: C_3  and  C_30
    7  A    between atoms: C_7  and  O_21
    8  A    between atoms: C_7  and  C_32
    9  A    between atoms: C_18  and  C_22
   10  A    between atoms: C_23  and  C_28
   11  A    between atoms: C_23  and  O_48
   12  A    between atoms: C_30  and  O_43
   13  A    between atoms: N_33  and  O_34
   14  A    between atoms: N_33  and  C_44
   15  A    between atoms: O_34  and  C_45
   16  A    between atoms: P_41  and  O_48
   17  A    between atoms: O_43  and  C_47
   18  A    between atoms: C_44  and  C_47
                            x       y       z     vdW  Elec       q    Type
                         _______ _______ _______ _____ _____    ______ ____

>  <TORSDO>
F 18

$$$$
=
 OpenBabel10232410043D

 49 50  0  0  1  0  0  0  0  0999 V2000
  183.5080  179.0940  144.5340 C   0  0  0  0  0  3  0  0  0  0  0  0
  188.7990  177.0840  143.6030 C   0  0  0  0  0  3  0  0  0  0  0  0
  179.9820  177.7150  137.2770 O   0  0  0  0  0  0  0  0  0  0  0  0
  185.8760  179.1090  144.7340 O   0  0  0  0  0  0  0  0  0  0  0  0
  180.6820  177.9180  138.3040 C   0  0  0  0  0  0  0  0  0  0  0  0
  183.6430  178.3130  140.4010 C   0  0  0  0  0  3  0  0  0  0  0  0
  186.1010  178.7790  141.7820 C   0  0  0  0  0  3  0  0  0  0  0  0
  181.2430  178.3250  140.4130 C   0  0  0  0  0  0  0  0  0  0  0  0
  182.3250  178.9680  143.8090 C   0  0  0  0  0  3  0  0  0  0  0  0
  187.3360  178.4890  142.1940 C   0  0  0  0  0  0  0  0  0  0  0  0
  181.2060  178.5830  141.7420 N   0  0  0  0  0  0  0  0  0  0  0  0
  183.6290  178.5780  141.7870 C   0  0  0  0  0  0  0  0  0  0  0  0
  182.3710  178.7060  142.4430 C   0  0  0  0  0  0  0  0  0  0  0  0
  188.5970  176.9860  146.0070 C   0  0  0  0  0  0  0  0  0  0  0  0
  184.7550  178.9600  143.9170 C   0  0  0  0  0  0  0  0  0  0  0  0
  180.1060  178.1780  139.5830 N   0  0  0  0  0  2  0  0  0  0  0  0
  187.4840  177.8250  145.9390 C   0  0  0  0  0  3  0  0  0  0  0  0
  184.8290  178.7140  142.5260 C   0  0  0  0  0  0  0  0  0  0  0  0
  182.1810  177.9050  138.2970 C   0  0  0  0  0  2  0  0  0  0  0  0
  187.6740  177.9240  143.5180 C   0  0  0  0  0  0  0  0  0  0  0  0
  182.4270  178.1840  139.7370 C   0  0  0  0  0  0  0  0  0  0  0  0
  189.2500  176.6070  144.8350 C   0  0  0  0  0  3  0  0  0  0  0  0
  187.0010  178.2840  144.7070 C   0  0  0  0  0  0  0  0  0  0  0  0
  189.0920  176.4990  147.3250 C   0  0  0  0  0  2  0  0  0  0  0  0
  189.8980  177.4690  147.9260 O   0  0  0  0  0  0  0  0  0  0  0  0
  191.5160  175.1060  147.8190 C   0  0  0  0  0  1  0  0  0  0  0  0
  192.0010  177.3490  146.3610 O   0  0  0  0  0  0  0  0  0  0  0  0
  192.4930  177.5480  148.9310 O   0  0  0  0  0  1  0  0  0  0  0  0
  191.4890  176.9190  147.7190 P   0  0  1  0  0  0  0  0  0  0  0  0
  188.4250  178.7120  141.1910 C   0  0  0  0  0  2  0  0  0  0  0  0
  187.9450  178.3350  139.7960 C   0  0  0  0  0  2  0  0  0  0  0  0
  189.1270  178.1290  138.8600 C   0  0  0  0  0  2  0  0  0  0  0  0
  188.8390  178.6860  137.6060 O   0  0  0  0  0  0  0  0  0  0  0  0
  188.3780  177.6500  136.8580 N   0  0  0  0  0  0  0  0  0  0  0  0
  189.4040  177.3420  135.8520 C   0  0  2  0  0  3  0  0  0  0  0  0
  188.9230  177.5300  134.5510 O   0  0  0  0  0  1  0  0  0  0  0  0
  189.0280  175.1450  136.9640 C   0  0  0  0  0  1  0  0  0  0  0  0
  189.9380  175.9270  136.0350 C   0  0  0  0  0  2  0  0  0  0  0  0
  187.1500  178.0980  136.2030 C   0  0  0  0  0  1  0  0  0  0  0  0
  186.0860  177.0090  136.2720 C   0  0  0  0  0 15  0  0  0  0  0  0
  185.1920  177.0850  135.0410 O   0  0  0  0  0  1  0  0  0  0  0  0
  184.8700  177.0790  135.7530 O   0  0  0  0  0  0  0  0  0  0  0  0
  183.7820  176.8340  135.1630 C   0  0  0  0  0  1  0  0  0  0  0  0
  183.2460  175.4550  134.9980 C   0  0  0  0  0  1  0  0  0  0  0  0
  182.4530  175.1310  136.1000 O   0  0  0  0  0  0  0  0  0  0  0  0
  182.6130  173.7520  136.2600 C   0  0  2  0  0  3  0  0  0  0  0  0
  181.7020  173.2790  137.2050 O   0  0  0  0  0  1  0  0  0  0  0  0
  184.0450  172.2180  137.3860 O   0  0  0  0  0  1  0  0  0  0  0  0
  184.0230  173.4440  136.7200 C   0  0  0  0  0  2  0  0  0  0  0  0
  2 22  1  0  0  0  0
  3  5  2  0  0  0  0
  5 16  1  0  0  0  0
  6 12  1  0  0  0  0
  7 10  2  0  0  0  0
  7 18  1  0  0  0  0
  8 11  2  0  0  0  0
  9  1  2  0  0  0  0
 10 20  1  0  0  0  0
 11 13  1  0  0  0  0
 12 13  2  0  0  0  0
 12 18  1  0  0  0  0
 13  9  1  0  0  0  0
 14 24  1  0  0  0  0
 15  1  1  0  0  0  0
 15  4  1  0  0  0  0
 16  8  1  0  0  0  0
 17 14  1  0  0  0  0
 18 15  2  0  0  0  0
 19  5  1  0  0  0  0
 19 21  1  0  0  0  0
 20  2  2  0  0  0  0
 20 23  1  0  0  0  0
 21  6  2  0  0  0  0
 21  8  1  0  0  0  0
 22 14  2  0  0  0  0
 23  4  1  0  0  0  0
 23 17  2  0  0  0  0
 24 25  1  0  0  0  0
 27 29  2  0  0  0  0
 29 26  1  1  0  0  0
 29 25  1  0  0  0  0
 29 28  1  0  0  0  0
 30 10  1  0  0  0  0
 31 30  1  0  0  0  0
 32 31  1  0  0  0  0
 33 32  1  0  0  0  0
 34 33  1  0  0  0  0
 35 36  1  6  0  0  0
 35 38  1  0  0  0  0
 35 34  1  0  0  0  0
 38 37  1  0  0  0  0
 39 34  1  0  0  0  0
 41 42  1  0  0  0  0
 43 42  1  0  0  0  0
 44 45  1  0  0  0  0
 45 46  1  0  0  0  0
 46 49  1  0  0  0  0
 46 47  1  1  0  0  0
 49 48  1  0  0  0  0
M  END
>  <MODEL>
5

>  <REMARK>
 VINA RESULT:      -6.2      3.764      7.334
  Name = 
  18 active torsions:
  status: ('A' for Active; 'I' for Inactive)
    1  A    between atoms: C_1  and  C_22
    2  A    between atoms: C_1  and  C_45
    3  A    between atoms: C_2  and  C_26
    4  A    between atoms: C_2  and  N_33
    5  A    between atoms: C_3  and  O_21
    6  A    between atoms: C_3  and  C_30
    7  A    between atoms: C_7  and  O_21
    8  A    between atoms: C_7  and  C_32
    9  A    between atoms: C_18  and  C_22
   10  A    between atoms: C_23  and  C_28
   11  A    between atoms: C_23  and  O_48
   12  A    between atoms: C_30  and  O_43
   13  A    between atoms: N_33  and  O_34
   14  A    between atoms: N_33  and  C_44
   15  A    between atoms: O_34  and  C_45
   16  A    between atoms: P_41  and  O_48
   17  A    between atoms: O_43  and  C_47
   18  A    between atoms: C_44  and  C_47
                            x       y       z     vdW  Elec       q    Type
                         _______ _______ _______ _____ _____    ______ ____

>  <TORSDO>
F 18

$$$$
=
 OpenBabel10232410043D

 49 51  0  0  1  0  0  0  0  0999 V2000
  189.2020  175.9330  136.8890 C   0  0  0  0  0  3  0  0  0  0  0  0
  183.5360  176.6300  137.4450 C   0  0  0  0  0  3  0  0  0  0  0  0
  191.8310  178.3370  144.2580 O   0  0  0  0  0  0  0  0  0  0  0  0
  187.0290  176.5310  136.1360 O   0  0  0  0  0  0  0  0  0  0  0  0
  191.2770  178.0640  143.1600 C   0  0  0  0  0  0  0  0  0  0  0  0
  188.7270  177.9480  140.5520 C   0  0  0  0  0  3  0  0  0  0  0  0
  186.6590  178.1750  138.5930 C   0  0  0  0  0  3  0  0  0  0  0  0
  190.9430  177.2300  141.1310 C   0  0  0  0  0  0  0  0  0  0  0  0
  190.2340  175.9320  137.8240 C   0  0  0  0  0  3  0  0  0  0  0  0
  185.4140  178.0820  138.1260 C   0  0  0  0  0  0  0  0  0  0  0  0
  191.0920  176.5890  139.9470 N   0  0  0  0  0  0  0  0  0  0  0  0
  188.8580  177.2850  139.3140 C   0  0  0  0  0  0  0  0  0  0  0  0
  190.0750  176.5960  139.0360 C   0  0  0  0  0  0  0  0  0  0  0  0
  183.7100  175.0180  135.6560 C   0  0  0  0  0  0  0  0  0  0  0  0
  187.9940  176.5900  137.1420 C   0  0  0  0  0  0  0  0  0  0  0  0
  191.9240  177.2930  142.1490 N   0  0  0  0  0  2  0  0  0  0  0  0
  185.0610  175.3360  135.5120 C   0  0  0  0  0  3  0  0  0  0  0  0
  187.8140  177.2890  138.3580 C   0  0  0  0  0  0  0  0  0  0  0  0
  189.8910  178.5080  142.8020 C   0  0  0  0  0  2  0  0  0  0  0  0
  184.8970  176.9570  137.3170 C   0  0  0  0  0  0  0  0  0  0  0  0
  189.7890  177.8990  141.4490 C   0  0  0  0  0  0  0  0  0  0  0  0
  182.9490  175.6590  136.6310 C   0  0  0  0  0  3  0  0  0  0  0  0
  185.6710  176.2840  136.3440 C   0  0  0  0  0  0  0  0  0  0  0  0
  183.0800  174.0000  134.7700 C   0  0  0  0  0  2  0  0  0  0  0  0
  181.9870  173.4120  135.4120 O   0  0  0  0  0  0  0  0  0  0  0  0
  183.4900  171.1990  134.3830 C   0  0  0  0  0  1  0  0  0  0  0  0
  183.2860  171.8010  137.0270 O   0  0  0  0  0  1  0  0  0  0  0  0
  181.1170  170.8170  135.9240 O   0  0  0  0  0  0  0  0  0  0  0  0
  182.4710  171.8220  135.7510 P   0  0  1  0  0  0  0  0  0  0  0  0
  184.4860  179.1890  138.5210 C   0  0  0  0  0  2  0  0  0  0  0  0
  183.6740  178.7870  139.7440 C   0  0  0  0  0  2  0  0  0  0  0  0
  184.5690  178.6880  140.9720 C   0  0  0  0  0  2  0  0  0  0  0  0
  184.1030  177.6690  141.8140 O   0  0  0  0  0  0  0  0  0  0  0  0
  184.4870  178.0400  143.0630 N   0  0  0  0  0  0  0  0  0  0  0  0
  183.6830  179.2120  143.4410 C   0  0  2  0  0  3  0  0  0  0  0  0
  184.4570  180.1790  144.0930 O   0  0  0  0  0  1  0  0  0  0  0  0
  181.2200  178.8460  143.4710 C   0  0  0  0  0  1  0  0  0  0  0  0
  182.4920  178.8010  144.2970 C   0  0  0  0  0  2  0  0  0  0  0  0
  185.9010  178.4030  142.9940 C   0  0  0  0  0  2  0  0  0  0  0  0
  186.7500  177.3630  143.7170 C   0  0  0  0  0  1  0  0  0  0  0  0
  187.3030  177.9570  145.0060 O   0  0  0  0  0  1  0  0  0  0  0  0
  186.9170  178.6330  145.0800 O   0  0  0  0  0  0  0  0  0  0  0  0
  186.4370  178.1420  146.1380 C   0  0  0  0  0  1  0  0  0  0  0  0
  187.0090  178.4140  147.4860 C   0  0  0  0  0  1  0  0  0  0  0  0
  187.3470  177.2060  148.0980 O   0  0  0  0  0  0  0  0  0  0  0  0
  188.6980  177.3410  148.4300 C   0  0  2  0  0  3  0  0  0  0  0  0
  189.0640  178.6860  148.3760 O   0  0  0  0  0  1  0  0  0  0  0  0
  190.3750  177.4110  146.7410 O   0  0  0  0  0  1  0  0  0  0  0  0
  189.5510  176.5460  147.4630 C   0  0  0  0  0  2  0  0  0  0  0  0
  1 15  2  0  0  0  0
  1  9  1  0  0  0  0
  4 23  1  0  0  0  0
  4 15  1  0  0  0  0
  5  3  2  0  0  0  0
  6 21  2  0  0  0  0
  8 21  1  0  0  0  0
  8 16  1  0  0  0  0
  9 13  2  0  0  0  0
 10 30  1  0  0  0  0
 10  7  2  0  0  0  0
 11  8  2  0  0  0  0
 12  6  1  0  0  0  0
 13 12  1  0  0  0  0
 13 11  1  0  0  0  0
 14 22  1  0  0  0  0
 15 18  1  0  0  0  0
 16  5  1  0  0  0  0
 17 14  2  0  0  0  0
 17 23  1  0  0  0  0
 18  7  1  0  0  0  0
 18 12  2  0  0  0  0
 19  5  1  0  0  0  0
 20  2  1  0  0  0  0
 20 10  1  0  0  0  0
 21 19  1  0  0  0  0
 22  2  2  0  0  0  0
 23 20  2  0  0  0  0
 24 25  1  0  0  0  0
 24 14  1  0  0  0  0
 25 29  1  0  0  0  0
 29 26  1  6  0  0  0
 29 28  2  0  0  0  0
 29 27  1  0  0  0  0
 30 31  1  0  0  0  0
 31 32  1  0  0  0  0
 32 33  1  0  0  0  0
 33 34  1  0  0  0  0
 34 35  1  0  0  0  0
 35 36  1  1  0  0  0
 35 38  1  0  0  0  0
 37 38  1  0  0  0  0
 39 34  1  0  0  0  0
 39 40  1  0  0  0  0
 41 42  1  0  0  0  0
 42 43  1  0  0  0  0
 44 45  1  0  0  0  0
 45 46  1  0  0  0  0
 46 47  1  6  0  0  0
 48 49  1  0  0  0  0
 49 46  1  0  0  0  0
M  END
>  <MODEL>
6

>  <REMARK>
 VINA RESULT:      -6.1      3.744      8.012
  Name = 
  18 active torsions:
  status: ('A' for Active; 'I' for Inactive)
    1  A    between atoms: C_1  and  C_22
    2  A    between atoms: C_1  and  C_45
    3  A    between atoms: C_2  and  C_26
    4  A    between atoms: C_2  and  N_33
    5  A    between atoms: C_3  and  O_21
    6  A    between atoms: C_3  and  C_30
    7  A    between atoms: C_7  and  O_21
    8  A    between atoms: C_7  and  C_32
    9  A    between atoms: C_18  and  C_22
   10  A    between atoms: C_23  and  C_28
   11  A    between atoms: C_23  and  O_48
   12  A    between atoms: C_30  and  O_43
   13  A    between atoms: N_33  and  O_34
   14  A    between atoms: N_33  and  C_44
   15  A    between atoms: O_34  and  C_45
   16  A    between atoms: P_41  and  O_48
   17  A    between atoms: O_43  and  C_47
   18  A    between atoms: C_44  and  C_47
                            x       y       z     vdW  Elec       q    Type
                         _______ _______ _______ _____ _____    ______ ____

>  <TORSDO>
F 18

$$$$
=
 OpenBabel10232410043D

 49 50  0  0  1  0  0  0  0  0999 V2000
  187.6600  174.6670  136.3550 C   0  0  0  0  0  3  0  0  0  0  0  0
  192.3140  177.0060  138.7570 C   0  0  0  0  0  3  0  0  0  0  0  0
  181.9340  180.1920  138.2700 O   0  0  0  0  0  0  0  0  0  0  0  0
  189.7220  174.6160  137.5370 O   0  0  0  0  0  0  0  0  0  0  0  0
  182.9090  179.4110  138.1140 C   0  0  0  0  0  0  0  0  0  0  0  0
  186.1870  177.8890  138.6250 C   0  0  0  0  0  3  0  0  0  0  0  0
  188.7030  176.7470  139.3530 C   0  0  0  0  0  3  0  0  0  0  0  0
  184.1840  177.7840  137.3060 C   0  0  0  0  0  0  0  0  0  0  0  0
  186.3920  175.1790  136.0970 C   0  0  0  0  0  3  0  0  0  0  0  0
  190.0100  176.7560  139.6130 C   0  0  0  0  0  0  0  0  0  0  0  0
  184.6620  176.7420  136.5840 N   0  0  0  0  0  0  0  0  0  0  0  0
  186.7070  176.8070  137.8830 C   0  0  0  0  0  0  0  0  0  0  0  0
  185.9060  176.2470  136.8450 C   0  0  0  0  0  0  0  0  0  0  0  0
  193.2480  175.5550  137.0690 C   0  0  0  0  0  0  0  0  0  0  0  0
  188.4700  175.2070  137.3580 C   0  0  0  0  0  0  0  0  0  0  0  0
  182.9130  178.3800  137.1280 N   0  0  0  0  0  2  0  0  0  0  0  0
  192.0170  174.9080  136.9570 C   0  0  0  0  0  3  0  0  0  0  0  0
  187.9930  176.2790  138.1480 C   0  0  0  0  0  0  0  0  0  0  0  0
  184.1620  179.4810  138.9350 C   0  0  0  0  0  2  0  0  0  0  0  0
  191.0660  176.3680  138.6510 C   0  0  0  0  0  0  0  0  0  0  0  0
  184.9180  178.3640  138.3090 C   0  0  0  0  0  0  0  0  0  0  0  0
  193.3940  176.6130  137.9640 C   0  0  0  0  0  3  0  0  0  0  0  0
  190.9160  175.3140  137.7220 C   0  0  0  0  0  0  0  0  0  0  0  0
  194.4050  175.1170  136.2400 C   0  0  0  0  0  2  0  0  0  0  0  0
  195.5620  175.7980  136.6280 O   0  0  0  0  0  0  0  0  0  0  0  0
  197.6030  174.4810  138.1500 C   0  0  0  0  0  1  0  0  0  0  0  0
  196.2370  173.3160  136.1070 O   0  0  0  0  0  1  0  0  0  0  0  0
  197.9740  175.1510  135.4000 O   0  0  0  0  0  0  0  0  0  0  0  0
  196.8090  174.6540  136.5260 P   0  0  1  0  0  0  0  0  0  0  0  0
  190.4010  177.2580  140.9680 C   0  0  0  0  0  2  0  0  0  0  0  0
  189.9870  176.2600  142.0410 C   0  0  0  0  0  2  0  0  0  0  0  0
  189.0220  176.9040  143.0260 C   0  0  0  0  0  2  0  0  0  0  0  0
  189.3230  176.4770  144.3280 O   0  0  0  0  0  0  0  0  0  0  0  0
  189.9220  177.5440  144.9180 N   0  0  0  0  0  0  0  0  0  0  0  0
  191.3740  177.3720  144.7700 C   0  0  2  0  0  3  0  0  0  0  0  0
  191.9820  177.0460  145.9880 O   0  0  0  0  0  1  0  0  0  0  0  0
  190.9750  179.7210  144.0400 C   0  0  0  0  0  1  0  0  0  0  0  0
  192.0100  178.6170  144.1610 C   0  0  0  0  0  2  0  0  0  0  0  0
  189.5550  177.5210  146.3330 C   0  0  0  0  0  1  0  0  0  0  0  0
  188.1280  177.0100  146.5020 C   0  0  0  0  0 15  0  0  0  0  0  0
  187.2030  178.1710  146.8400 O   0  0  0  0  0  1  0  0  0  0  0  0
  186.8860  177.4690  146.7070 O   0  0  0  0  0  0  0  0  0  0  0  0
  185.8050  178.0910  146.5140 C   0  0  0  0  0  1  0  0  0  0  0  0
  185.3250  178.4760  145.1590 C   0  0  0  0  0  1  0  0  0  0  0  0
  184.4260  179.5380  145.2700 O   0  0  0  0  0  0  0  0  0  0  0  0
  183.6780  179.4960  144.0900 C   0  0  2  0  0  3  0  0  0  0  0  0
  182.6740  178.5340  144.2030 O   0  0  0  0  0  1  0  0  0  0  0  0
  183.9630  178.1860  142.1220 O   0  0  0  0  0  1  0  0  0  0  0  0
  184.5760  179.1540  142.9190 C   0  0  0  0  0  2  0  0  0  0  0  0
  1 15  1  0  0  0  0
  4 23  1  0  0  0  0
  5  3  2  0  0  0  0
  5 19  1  0  0  0  0
  7 10  2  0  0  0  0
  8 21  1  0  0  0  0
  9  1  2  0  0  0  0
  9 13  1  0  0  0  0
 10 30  1  0  0  0  0
 11 13  1  0  0  0  0
 11  8  2  0  0  0  0
 12 18  1  0  0  0  0
 12  6  1  0  0  0  0
 13 12  2  0  0  0  0
 14 22  1  0  0  0  0
 15  4  1  0  0  0  0
 15 18  2  0  0  0  0
 16  8  1  0  0  0  0
 16  5  1  0  0  0  0
 17 14  2  0  0  0  0
 17 23  1  0  0  0  0
 18  7  1  0  0  0  0
 20  2  1  0  0  0  0
 20 10  1  0  0  0  0
 21  6  2  0  0  0  0
 21 19  1  0  0  0  0
 22  2  2  0  0  0  0
 23 20  2  0  0  0  0
 24 25  1  0  0  0  0
 24 14  1  0  0  0  0
 27 29  1  0  0  0  0
 28 29  2  0  0  0  0
 29 25  1  0  0  0  0
 29 26  1  1  0  0  0
 30 31  1  0  0  0  0
 31 32  1  0  0  0  0
 32 33  1  0  0  0  0
 33 34  1  0  0  0  0
 34 39  1  0  0  0  0
 35 34  1  0  0  0  0
 35 36  1  1  0  0  0
 37 38  1  0  0  0  0
 38 35  1  0  0  0  0
 42 41  1  0  0  0  0
 43 42  1  0  0  0  0
 44 45  1  0  0  0  0
 46 47  1  1  0  0  0
 46 45  1  0  0  0  0
 48 49  1  0  0  0  0
 49 46  1  0  0  0  0
M  END
>  <MODEL>
7

>  <REMARK>
 VINA RESULT:      -6.0      2.290      6.850
  Name = 
  18 active torsions:
  status: ('A' for Active; 'I' for Inactive)
    1  A    between atoms: C_1  and  C_22
    2  A    between atoms: C_1  and  C_45
    3  A    between atoms: C_2  and  C_26
    4  A    between atoms: C_2  and  N_33
    5  A    between atoms: C_3  and  O_21
    6  A    between atoms: C_3  and  C_30
    7  A    between atoms: C_7  and  O_21
    8  A    between atoms: C_7  and  C_32
    9  A    between atoms: C_18  and  C_22
   10  A    between atoms: C_23  and  C_28
   11  A    between atoms: C_23  and  O_48
   12  A    between atoms: C_30  and  O_43
   13  A    between atoms: N_33  and  O_34
   14  A    between atoms: N_33  and  C_44
   15  A    between atoms: O_34  and  C_45
   16  A    between atoms: P_41  and  O_48
   17  A    between atoms: O_43  and  C_47
   18  A    between atoms: C_44  and  C_47
                            x       y       z     vdW  Elec       q    Type
                         _______ _______ _______ _____ _____    ______ ____

>  <TORSDO>
F 18

$$$$
=
 OpenBabel10232410043D

 49 51  0  0  1  0  0  0  0  0999 V2000
  184.4650  178.9310  141.7370 C   0  0  0  0  0  3  0  0  0  0  0  0
  189.8360  177.0230  141.0980 C   0  0  0  0  0  3  0  0  0  0  0  0
  181.1150  176.6670  134.6200 O   0  0  0  0  0  0  0  0  0  0  0  0
  186.8270  179.0510  141.9670 O   0  0  0  0  0  0  0  0  0  0  0  0
  181.7900  177.0030  135.6290 C   0  0  0  0  0  0  0  0  0  0  0  0
  184.6990  177.7220  137.7130 C   0  0  0  0  0  3  0  0  0  0  0  0
  187.1150  178.4180  139.0700 C   0  0  0  0  0  3  0  0  0  0  0  0
  182.3000  177.6500  137.6900 C   0  0  0  0  0  0  0  0  0  0  0  0
  183.3010  178.6870  141.0140 C   0  0  0  0  0  3  0  0  0  0  0  0
  188.3520  178.2180  139.5270 C   0  0  0  0  0  0  0  0  0  0  0  0
  182.2310  178.0460  138.9840 N   0  0  0  0  0  0  0  0  0  0  0  0
  184.6520  178.1320  139.0630 C   0  0  0  0  0  0  0  0  0  0  0  0
  183.3790  178.2840  139.6840 C   0  0  0  0  0  0  0  0  0  0  0  0
  189.5970  177.1730  143.4950 C   0  0  0  0  0  0  0  0  0  0  0  0
  185.7260  178.7770  141.1550 C   0  0  0  0  0  0  0  0  0  0  0  0
  181.1830  177.3760  136.8650 N   0  0  0  0  0  2  0  0  0  0  0  0
  188.4570  177.9590  143.3240 C   0  0  0  0  0  3  0  0  0  0  0  0
  185.8340  178.3880  139.7990 C   0  0  0  0  0  0  0  0  0  0  0  0
  183.2880  177.0420  135.6450 C   0  0  0  0  0  2  0  0  0  0  0  0
  188.6860  177.8090  140.9080 C   0  0  0  0  0  0  0  0  0  0  0  0
  183.5000  177.4810  137.0490 C   0  0  0  0  0  0  0  0  0  0  0  0
  190.2820  176.6950  142.3800 C   0  0  0  0  0  3  0  0  0  0  0  0
  187.9800  178.2680  142.0430 C   0  0  0  0  0  0  0  0  0  0  0  0
  190.0850  176.8450  144.8640 C   0  0  0  0  0  2  0  0  0  0  0  0
  190.0250  177.9780  145.6810 O   0  0  0  0  0  0  0  0  0  0  0  0
  188.9780  178.4670  148.3040 C   0  0  0  0  0  1  0  0  0  0  0  0
  189.4150  175.9870  147.2780 O   0  0  0  0  0  0  0  0  0  0  0  0
  191.5720  177.3420  147.9060 O   0  0  0  0  0  1  0  0  0  0  0  0
  190.0020  177.3820  147.2690 P   0  0  1  0  0  0  0  0  0  0  0  0
  189.4500  178.3720  138.5210 C   0  0  0  0  0  2  0  0  0  0  0  0
  188.8730  178.7280  137.1580 C   0  0  0  0  0  2  0  0  0  0  0  0
  189.2870  177.6980  136.1160 C   0  0  0  0  0  2  0  0  0  0  0  0
  189.2450  176.4150  136.6790 O   0  0  0  0  0  0  0  0  0  0  0  0
  189.1480  175.5690  135.6200 N   0  0  0  0  0  0  0  0  0  0  0  0
  187.7690  175.0640  135.5840 C   0  0  2  0  0  3  0  0  0  0  0  0
  186.9700  175.8090  134.7090 O   0  0  0  0  0  1  0  0  0  0  0  0
  186.2650  173.8210  137.1330 C   0  0  0  0  0  1  0  0  0  0  0  0
  187.1620  175.0360  136.9820 C   0  0  0  0  0  2  0  0  0  0  0  0
  190.0800  174.4680  135.8570 C   0  0  0  0  0  2  0  0  0  0  0  0
  191.5190  174.9530  135.7180 C   0  0  0  0  0  1  0  0  0  0  0  0
  192.2220  174.8710  137.0660 O   0  0  0  0  0  1  0  0  0  0  0  0
  192.0620  174.3420  137.6190 O   0  0  0  0  0  0  0  0  0  0  0  0
  193.1700  173.8200  137.3170 C   0  0  0  0  0  1  0  0  0  0  0  0
  194.4270  174.1030  138.0650 C   0  0  0  0  0  1  0  0  0  0  0  0
  195.4320  174.4580  137.1650 O   0  0  0  0  0  0  0  0  0  0  0  0
  196.6230  174.2740  137.8720 C   0  0  2  0  0  3  0  0  0  0  0  0
  196.5430  174.9190  139.1060 O   0  0  0  0  0  1  0  0  0  0  0  0
  198.9640  174.7060  137.8200 O   0  0  0  0  0  1  0  0  0  0  0  0
  197.7870  174.8370  137.0820 C   0  0  0  0  0  2  0  0  0  0  0  0
  2 22  1  0  0  0  0
  3  5  2  0  0  0  0
  4 23  1  0  0  0  0
  5 19  1  0  0  0  0
  5 16  1  0  0  0  0
  6 12  1  0  0  0  0
  7 10  2  0  0  0  0
  7 18  1  0  0  0  0
  8 11  2  0  0  0  0
  9  1  2  0  0  0  0
 10 20  1  0  0  0  0
 11 13  1  0  0  0  0
 12 13  2  0  0  0  0
 12 18  1  0  0  0  0
 13  9  1  0  0  0  0
 14 24  1  0  0  0  0
 15  1  1  0  0  0  0
 15  4  1  0  0  0  0
 16  8  1  0  0  0  0
 17 14  1  0  0  0  0
 18 15  2  0  0  0  0
 19 21  1  0  0  0  0
 20  2  2  0  0  0  0
 20 23  1  0  0  0  0
 21  8  1  0  0  0  0
 21  6  2  0  0  0  0
 22 14  2  0  0  0  0
 23 17  2  0  0  0  0
 24 25  1  0  0  0  0
 25 29  1  0  0  0  0
 29 27  2  0  0  0  0
 29 28  1  0  0  0  0
 29 26  1  1  0  0  0
 30 10  1  0  0  0  0
 31 30  1  0  0  0  0
 32 33  1  0  0  0  0
 32 31  1  0  0  0  0
 34 39  1  0  0  0  0
 34 33  1  0  0  0  0
 35 36  1  6  0  0  0
 35 34  1  0  0  0  0
 35 38  1  0  0  0  0
 38 37  1  0  0  0  0
 40 39  1  0  0  0  0
 41 42  1  0  0  0  0
 43 42  1  0  0  0  0
 45 46  1  0  0  0  0
 45 44  1  0  0  0  0
 46 47  1  1  0  0  0
 49 48  1  0  0  0  0
 49 46  1  0  0  0  0
M  END
>  <MODEL>
8

>  <REMARK>
 VINA RESULT:      -6.0      3.465      8.839
  Name = 
  18 active torsions:
  status: ('A' for Active; 'I' for Inactive)
    1  A    between atoms: C_1  and  C_22
    2  A    between atoms: C_1  and  C_45
    3  A    between atoms: C_2  and  C_26
    4  A    between atoms: C_2  and  N_33
    5  A    between atoms: C_3  and  O_21
    6  A    between atoms: C_3  and  C_30
    7  A    between atoms: C_7  and  O_21
    8  A    between atoms: C_7  and  C_32
    9  A    between atoms: C_18  and  C_22
   10  A    between atoms: C_23  and  C_28
   11  A    between atoms: C_23  and  O_48
   12  A    between atoms: C_30  and  O_43
   13  A    between atoms: N_33  and  O_34
   14  A    between atoms: N_33  and  C_44
   15  A    between atoms: O_34  and  C_45
   16  A    between atoms: P_41  and  O_48
   17  A    between atoms: O_43  and  C_47
   18  A    between atoms: C_44  and  C_47
                            x       y       z     vdW  Elec       q    Type
                         _______ _______ _______ _____ _____    ______ ____

>  <TORSDO>
F 18

$$$$
=
 OpenBabel10232410043D

 49 51  0  0  1  0  0  0  0  0999 V2000
  184.3450  178.9360  142.0090 C   0  0  0  0  0  3  0  0  0  0  0  0
  189.7050  177.0780  141.1580 C   0  0  0  0  0  3  0  0  0  0  0  0
  180.7380  176.6350  135.0310 O   0  0  0  0  0  0  0  0  0  0  0  0
  186.7140  179.0780  142.1450 O   0  0  0  0  0  0  0  0  0  0  0  0
  181.4490  176.9780  136.0120 C   0  0  0  0  0  0  0  0  0  0  0  0
  184.4310  177.7260  137.9790 C   0  0  0  0  0  3  0  0  0  0  0  0
  186.8920  178.4460  139.2390 C   0  0  0  0  0  3  0  0  0  0  0  0
  182.0340  177.6310  138.0510 C   0  0  0  0  0  0  0  0  0  0  0  0
  183.1560  178.6800  141.3320 C   0  0  0  0  0  3  0  0  0  0  0  0
  188.1480  178.2580  139.6460 C   0  0  0  0  0  0  0  0  0  0  0  0
  182.0130  178.0280  139.3470 N   0  0  0  0  0  0  0  0  0  0  0  0
  184.4340  178.1370  139.3290 C   0  0  0  0  0  0  0  0  0  0  0  0
  183.1850  178.2770  140.0010 C   0  0  0  0  0  0  0  0  0  0  0  0
  189.5590  177.2280  143.5630 C   0  0  0  0  0  0  0  0  0  0  0  0
  185.5840  178.7930  141.3770 C   0  0  0  0  0  0  0  0  0  0  0  0
  180.8880  177.3460  137.2710 N   0  0  0  0  0  2  0  0  0  0  0  0
  188.4060  178.0030  143.4360 C   0  0  0  0  0  3  0  0  0  0  0  0
  185.6410  178.4040  140.0180 C   0  0  0  0  0  0  0  0  0  0  0  0
  182.9460  177.0320  135.9680 C   0  0  0  0  0  2  0  0  0  0  0  0
  188.5410  177.8530  141.0140 C   0  0  0  0  0  0  0  0  0  0  0  0
  183.2090  177.4730  137.3630 C   0  0  0  0  0  0  0  0  0  0  0  0
  190.2040  176.7560  142.4210 C   0  0  0  0  0  3  0  0  0  0  0  0
  187.8760  178.3060  142.1760 C   0  0  0  0  0  0  0  0  0  0  0  0
  190.1040  176.9060  144.9110 C   0  0  0  0  0  2  0  0  0  0  0  0
  189.9750  178.0090  145.7590 O   0  0  0  0  0  0  0  0  0  0  0  0
  187.4450  177.3500  146.9320 C   0  0  0  0  0  1  0  0  0  0  0  0
  189.7540  176.0100  147.4450 O   0  0  0  0  0  0  0  0  0  0  0  0
  189.5910  178.4130  148.4860 O   0  0  0  0  0  1  0  0  0  0  0  0
  189.2440  177.4080  147.1670 P   0  0  1  0  0  0  0  0  0  0  0  0
  189.2040  178.4210  138.5980 C   0  0  0  0  0  2  0  0  0  0  0  0
  188.5810  178.3800  137.2090 C   0  0  0  0  0  2  0  0  0  0  0  0
  189.5930  177.8890  136.1830 C   0  0  0  0  0  2  0  0  0  0  0  0
  189.0280  176.8560  135.4210 O   0  0  0  0  0  0  0  0  0  0  0  0
  188.9380  175.8000  136.2710 N   0  0  0  0  0  0  0  0  0  0  0  0
  190.1260  174.9610  136.0590 C   0  0  2  0  0  3  0  0  0  0  0  0
  189.8310  173.8380  135.2770 O   0  0  0  0  0  1  0  0  0  0  0  0
  191.8790  175.4960  137.7460 C   0  0  0  0  0  1  0  0  0  0  0  0
  190.7470  174.5500  137.3890 C   0  0  0  0  0  2  0  0  0  0  0  0
  187.7290  175.0590  135.9170 C   0  0  0  0  0  2  0  0  0  0  0  0
  186.7950  174.9650  137.1180 C   0  0  0  0  0  1  0  0  0  0  0  0
  185.3960  174.5810  136.6540 O   0  0  0  0  0  1  0  0  0  0  0  0
  185.5510  173.8840  136.9710 O   0  0  0  0  0  0  0  0  0  0  0  0
  184.4590  174.0210  137.5890 C   0  0  0  0  0  1  0  0  0  0  0  0
  183.1800  173.4290  137.1100 C   0  0  0  0  0  1  0  0  0  0  0  0
  183.2680  172.0370  137.1550 O   0  0  0  0  0  0  0  0  0  0  0  0
  182.3600  171.5920  136.1900 C   0  0  2  0  0  3  0  0  0  0  0  0
  182.3740  172.4570  135.0960 O   0  0  0  0  0  1  0  0  0  0  0  0
  180.0210  171.7200  135.7640 O   0  0  0  0  0  1  0  0  0  0  0  0
  180.9640  171.5420  136.7770 C   0  0  0  0  0  2  0  0  0  0  0  0
  2 22  1  0  0  0  0
  3  5  2  0  0  0  0
  4 23  1  0  0  0  0
  5 16  1  0  0  0  0
  6 12  1  0  0  0  0
  7 10  2  0  0  0  0
  7 18  1  0  0  0  0
  8 11  2  0  0  0  0
  9  1  2  0  0  0  0
 10 20  1  0  0  0  0
 11 13  1  0  0  0  0
 12 13  2  0  0  0  0
 12 18  1  0  0  0  0
 13  9  1  0  0  0  0
 14 24  1  0  0  0  0
 15  1  1  0  0  0  0
 15  4  1  0  0  0  0
 16  8  1  0  0  0  0
 17 14  1  0  0  0  0
 18 15  2  0  0  0  0
 19  5  1  0  0  0  0
 19 21  1  0  0  0  0
 20  2  2  0  0  0  0
 20 23  1  0  0  0  0
 21  6  2  0  0  0  0
 21  8  1  0  0  0  0
 22 14  2  0  0  0  0
 23 17  2  0  0  0  0
 24 25  1  0  0  0  0
 25 29  1  0  0  0  0
 29 26  1  6  0  0  0
 29 27  2  0  0  0  0
 29 28  1  0  0  0  0
 30 10  1  0  0  0  0
 31 30  1  0  0  0  0
 32 31  1  0  0  0  0
 33 32  1  0  0  0  0
 33 34  1  0  0  0  0
 35 36  1  1  0  0  0
 35 34  1  0  0  0  0
 35 38  1  0  0  0  0
 38 37  1  0  0  0  0
 39 34  1  0  0  0  0
 39 40  1  0  0  0  0
 41 42  1  0  0  0  0
 42 43  1  0  0  0  0
 44 45  1  0  0  0  0
 46 47  1  6  0  0  0
 46 49  1  0  0  0  0
 46 45  1  0  0  0  0
 48 49  1  0  0  0  0
M  END
>  <MODEL>
9

>  <REMARK>
 VINA RESULT:      -5.9      3.700      7.424
  Name = 
  18 active torsions:
  status: ('A' for Active; 'I' for Inactive)
    1  A    between atoms: C_1  and  C_22
    2  A    between atoms: C_1  and  C_45
    3  A    between atoms: C_2  and  C_26
    4  A    between atoms: C_2  and  N_33
    5  A    between atoms: C_3  and  O_21
    6  A    between atoms: C_3  and  C_30
    7  A    between atoms: C_7  and  O_21
    8  A    between atoms: C_7  and  C_32
    9  A    between atoms: C_18  and  C_22
   10  A    between atoms: C_23  and  C_28
   11  A    between atoms: C_23  and  O_48
   12  A    between atoms: C_30  and  O_43
   13  A    between atoms: N_33  and  O_34
   14  A    between atoms: N_33  and  C_44
   15  A    between atoms: O_34  and  C_45
   16  A    between atoms: P_41  and  O_48
   17  A    between atoms: O_43  and  C_47
   18  A    between atoms: C_44  and  C_47
                            x       y       z     vdW  Elec       q    Type
                         _______ _______ _______ _____ _____    ______ ____

>  <TORSDO>
F 18

$$$$
