=
 OpenBabel10232408423D

 40 45  0  0  1  0  0  0  0  0999 V2000
  187.1680  178.0570  139.0740 C   0  0  0  0  0  0  0  0  0  0  0  0
  188.0120  176.5750  137.3060 C   0  0  0  0  0  3  0  0  0  0  0  0
  186.1460  178.7820  139.5940 N   0  0  0  0  0  0  0  0  0  0  0  0
  191.2980  176.2310  138.7370 C   0  0  0  0  0  3  0  0  0  0  0  0
  189.4250  177.2540  139.1460 C   0  0  0  0  0  0  0  0  0  0  0  0
  189.2340  176.5590  137.9790 C   0  0  0  0  0  0  0  0  0  0  0  0
  188.4110  178.0170  139.7290 C   0  0  0  0  0  3  0  0  0  0  0  0
  190.6760  177.0680  139.6050 N   0  0  0  0  0  0  0  0  0  0  0  0
  185.7240  177.4000  137.2530 C   0  0  0  0  0  3  0  0  0  0  0  0
  190.4220  175.9050  137.7030 C   0  0  0  0  0  0  0  0  0  0  0  0
  184.9370  178.8280  138.9740 C   0  0  0  0  0  0  0  0  0  0  0  0
  184.7340  178.1420  137.8170 N   0  0  0  0  0  0  0  0  0  0  0  0
  183.8800  179.5950  139.5370 N   0  0  0  0  0  1  0  0  0  0  0  0
  186.9730  177.3370  137.8660 C   0  0  0  0  0  0  0  0  0  0  0  0
  194.3320  173.6510  134.6440 C   0  0  1  0  0  3  0  0  0  0  0  0
  194.2060  172.7510  136.2150 S   0  0  0  0  0  0  0  0  0  0  0  0
  191.1770  173.8210  136.7690 N   0  0  0  0  0  2  0  0  0  0  0  0
  193.2900  174.7530  134.6300 C   0  0  0  0  0  2  0  0  0  0  0  0
  192.5880  172.0510  135.7620 C   0  0  0  0  0  2  0  0  0  0  0  0
  190.7190  175.5580  134.8590 S   0  0  0  0  0  0  0  0  0  0  0  0
  191.8700  174.1970  134.4960 C   0  0  2  0  0  3  0  0  0  0  0  0
  195.7110  174.2670  134.5350 C   0  0  0  0  0  1  0  0  0  0  0  0
  191.5290  173.1300  135.5440 C   0  0  2  0  0  3  0  0  0  0  0  0
  190.7360  175.0170  136.5690 C   0  0  2  0  0  3  0  0  0  0  0  0
  192.7420  177.5130  140.8760 C   0  0  0  0  0  1  0  0  0  0  0  0
  191.2240  177.5940  140.8580 C   0  0  2  0  0  3  0  0  0  0  0  0
  190.6360  176.9190  142.0690 C   0  0  0  0  0  0  0  0  0  0  0  0
  190.4880  175.7070  142.0580 O   0  0  0  0  0  0  0  0  0  0  0  0
  190.2650  177.6920  143.3040 C   0  0  0  0  0  2  0  0  0  0  0  0
  189.4100  176.8810  144.2800 C   0  0  1  0  0  3  0  0  0  0  0  0
  190.0140  176.8040  145.5240 F   0  0  0  0  0  0  0  0  0  0  0  0
  185.3730  178.3700  144.5140 C   0  0  0  0  0  0  0  0  0  0  0  0
  185.9230  177.9820  143.2820 C   0  0  0  0  0  3  0  0  0  0  0  0
  188.0030  177.3870  144.3740 C   0  0  0  0  0  0  0  0  0  0  0  0
  187.4610  177.7810  145.6050 C   0  0  0  0  0  3  0  0  0  0  0  0
  186.1530  178.2670  145.6740 C   0  0  0  0  0  3  0  0  0  0  0  0
  187.2310  177.4940  143.2140 C   0  0  0  0  0  3  0  0  0  0  0  0
  183.9930  178.8790  144.5880 C   0  0  0  0  0  0  0  0  0  0  0  0
  183.2430  179.1050  143.3980 N   0  0  0  0  0  1  0  0  0  0  0  0
  183.4650  179.1250  145.7050 O   0  0  0  0  0  0  0  0  0  0  0  0
  1  3  1  0  0  0  0
  1  7  1  0  0  0  0
  2 14  1  0  0  0  0
  2  6  2  0  0  0  0
  4  8  1  0  0  0  0
  5  8  1  0  0  0  0
  5  7  2  0  0  0  0
  6  5  1  0  0  0  0
  8 26  1  0  0  0  0
  9 12  2  0  0  0  0
  9 14  1  0  0  0  0
 10  6  1  0  0  0  0
 10  4  2  0  0  0  0
 11 13  1  0  0  0  0
 11  3  2  0  0  0  0
 12 11  1  0  0  0  0
 14  1  2  0  0  0  0
 15 22  1  1  0  0  0
 15 16  1  0  0  0  0
 18 15  1  0  0  0  0
 19 16  1  0  0  0  0
 20 24  1  0  0  0  0
 21 18  1  1  0  0  0
 21 20  1  0  0  0  0
 21 23  1  0  0  0  0
 23 19  1  1  0  0  0
 23 17  1  0  0  0  0
 24 17  1  0  0  0  0
 24 10  1  1  0  0  0
 26 25  1  6  0  0  0
 26 27  1  0  0  0  0
 27 29  1  0  0  0  0
 28 27  2  0  0  0  0
 29 30  1  0  0  0  0
 30 34  1  0  0  0  0
 30 31  1  1  0  0  0
 32 38  1  0  0  0  0
 32 36  1  0  0  0  0
 33 32  2  0  0  0  0
 34 35  1  0  0  0  0
 35 36  2  0  0  0  0
 37 33  1  0  0  0  0
 37 34  2  0  0  0  0
 38 40  2  0  0  0  0
 39 38  1  0  0  0  0
M  END
>  <MODEL>
1

>  <REMARK>
 VINA RESULT:      -9.4      0.000      0.000
  Name = 
  7 active torsions:
  status: ('A' for Active; 'I' for Inactive)
    1  A    between atoms: C_1  and  C_5
    2  A    between atoms: C_7  and  C_21
    3  A    between atoms: C_7  and  C_23
    4  A    between atoms: C_14  and  N_20
    5  A    between atoms: C_14  and  C_23
    6  A    between atoms: C_16  and  C_21
    7  A    between atoms: C_27  and  C_40
                            x       y       z     vdW  Elec       q    Type
                         _______ _______ _______ _____ _____    ______ ____

>  <TORSDO>
F 7

$$$$
=
 OpenBabel10232408423D

 40 45  0  0  1  0  0  0  0  0999 V2000
  184.9330  178.8170  141.7100 C   0  0  0  0  0  0  0  0  0  0  0  0
  183.6520  178.0440  139.7620 C   0  0  0  0  0  3  0  0  0  0  0  0
  184.9540  179.1900  143.0140 N   0  0  0  0  0  0  0  0  0  0  0  0
  186.5040  177.8650  137.5720 C   0  0  0  0  0  3  0  0  0  0  0  0
  186.0380  178.4100  139.6220 C   0  0  0  0  0  0  0  0  0  0  0  0
  184.8490  178.0450  139.0440 C   0  0  0  0  0  0  0  0  0  0  0  0
  186.1220  178.8020  140.9590 C   0  0  0  0  0  3  0  0  0  0  0  0
  187.0430  178.3130  138.7330 N   0  0  0  0  0  0  0  0  0  0  0  0
  182.5510  178.4620  141.8900 C   0  0  0  0  0  3  0  0  0  0  0  0
  185.1290  177.6980  137.7340 C   0  0  0  0  0  0  0  0  0  0  0  0
  183.8140  179.2050  143.7540 C   0  0  0  0  0  0  0  0  0  0  0  0
  182.6280  178.8430  143.1920 N   0  0  0  0  0  0  0  0  0  0  0  0
  183.8590  179.6000  145.1200 N   0  0  0  0  0  1  0  0  0  0  0  0
  183.7030  178.4380  141.1090 C   0  0  0  0  0  0  0  0  0  0  0  0
  180.9040  174.4640  136.5430 C   0  0  1  0  0  3  0  0  0  0  0  0
  180.3010  175.9540  137.3860 S   0  0  0  0  0  0  0  0  0  0  0  0
  182.9840  177.6520  136.6490 N   0  0  0  0  0  2  0  0  0  0  0  0
  182.4100  174.5680  136.3910 C   0  0  0  0  0  2  0  0  0  0  0  0
  180.6950  177.0060  135.9540 C   0  0  0  0  0  2  0  0  0  0  0  0
  184.5980  175.9090  135.5400 S   0  0  0  0  0  0  0  0  0  0  0  0
  182.8100  175.6280  135.3610 C   0  0  2  0  0  3  0  0  0  0  0  0
  180.5710  173.2490  137.3830 C   0  0  0  0  0  1  0  0  0  0  0  0
  182.1870  177.0040  135.6260 C   0  0  2  0  0  3  0  0  0  0  0  0
  184.2000  177.2250  136.6930 C   0  0  2  0  0  3  0  0  0  0  0  0
  189.2440  178.7640  137.7170 C   0  0  0  0  0  1  0  0  0  0  0  0
  188.4620  178.5540  139.0040 C   0  0  2  0  0  3  0  0  0  0  0  0
  189.0810  177.4620  139.8350 C   0  0  0  0  0  0  0  0  0  0  0  0
  189.2500  176.3610  139.3350 O   0  0  0  0  0  0  0  0  0  0  0  0
  189.5310  177.7020  141.2490 C   0  0  0  0  0  2  0  0  0  0  0  0
  189.3020  176.4940  142.1600 C   0  0  1  0  0  3  0  0  0  0  0  0
  190.4400  175.7080  142.2390 F   0  0  0  0  0  0  0  0  0  0  0  0
  187.8160  177.6370  146.0400 C   0  0  0  0  0  0  0  0  0  0  0  0
  186.9340  177.2370  145.0250 C   0  0  0  0  0  3  0  0  0  0  0  0
  188.7970  176.8800  143.5170 C   0  0  0  0  0  0  0  0  0  0  0  0
  189.6810  177.2880  144.5250 C   0  0  0  0  0  3  0  0  0  0  0  0
  189.1930  177.6610  145.7800 C   0  0  0  0  0  3  0  0  0  0  0  0
  187.4220  176.8620  143.7710 C   0  0  0  0  0  3  0  0  0  0  0  0
  187.3020  178.0280  147.3640 C   0  0  0  0  0  0  0  0  0  0  0  0
  188.0200  177.6860  148.5460 N   0  0  0  0  0  1  0  0  0  0  0  0
  186.2190  178.6630  147.4640 O   0  0  0  0  0  0  0  0  0  0  0  0
  1  3  1  0  0  0  0
  2 14  2  0  0  0  0
  3 11  2  0  0  0  0
  4 10  2  0  0  0  0
  4  8  1  0  0  0  0
  5  7  1  0  0  0  0
  6  5  2  0  0  0  0
  6  2  1  0  0  0  0
  7  1  2  0  0  0  0
  8 26  1  0  0  0  0
  8  5  1  0  0  0  0
  9 12  2  0  0  0  0
 10  6  1  0  0  0  0
 11 13  1  0  0  0  0
 12 11  1  0  0  0  0
 14  1  1  0  0  0  0
 14  9  1  0  0  0  0
 15 22  1  1  0  0  0
 15 16  1  0  0  0  0
 17 24  1  0  0  0  0
 18 15  1  0  0  0  0
 19 16  1  0  0  0  0
 20 24  1  0  0  0  0
 21 20  1  0  0  0  0
 21 23  1  0  0  0  0
 21 18  1  1  0  0  0
 23 19  1  1  0  0  0
 23 17  1  0  0  0  0
 24 10  1  1  0  0  0
 26 25  1  6  0  0  0
 26 27  1  0  0  0  0
 27 29  1  0  0  0  0
 28 27  2  0  0  0  0
 29 30  1  0  0  0  0
 30 31  1  1  0  0  0
 30 34  1  0  0  0  0
 32 38  1  0  0  0  0
 33 32  2  0  0  0  0
 34 37  2  0  0  0  0
 34 35  1  0  0  0  0
 35 36  2  0  0  0  0
 36 32  1  0  0  0  0
 37 33  1  0  0  0  0
 38 40  2  0  0  0  0
 38 39  1  0  0  0  0
M  END
>  <MODEL>
2

>  <REMARK>
 VINA RESULT:      -8.8      4.001      6.656
  Name = 
  7 active torsions:
  status: ('A' for Active; 'I' for Inactive)
    1  A    between atoms: C_1  and  C_5
    2  A    between atoms: C_7  and  C_21
    3  A    between atoms: C_7  and  C_23
    4  A    between atoms: C_14  and  N_20
    5  A    between atoms: C_14  and  C_23
    6  A    between atoms: C_16  and  C_21
    7  A    between atoms: C_27  and  C_40
                            x       y       z     vdW  Elec       q    Type
                         _______ _______ _______ _____ _____    ______ ____

>  <TORSDO>
F 7

$$$$
=
 OpenBabel10232408423D

 40 45  0  0  1  0  0  0  0  0999 V2000
  190.8760  174.8580  137.5180 C   0  0  0  0  0  0  0  0  0  0  0  0
  188.6540  175.7930  137.0480 C   0  0  0  0  0  3  0  0  0  0  0  0
  191.8700  173.9970  137.1820 N   0  0  0  0  0  0  0  0  0  0  0  0
  188.6930  178.0850  139.8250 C   0  0  0  0  0  3  0  0  0  0  0  0
  189.9560  176.5570  138.9360 C   0  0  0  0  0  0  0  0  0  0  0  0
  188.8200  176.6060  138.1700 C   0  0  0  0  0  0  0  0  0  0  0  0
  191.0130  175.6940  138.6400 C   0  0  0  0  0  3  0  0  0  0  0  0
  189.8820  177.4430  139.9450 N   0  0  0  0  0  0  0  0  0  0  0  0
  189.6060  174.0680  135.6220 C   0  0  0  0  0  3  0  0  0  0  0  0
  188.0010  177.5740  138.7270 C   0  0  0  0  0  0  0  0  0  0  0  0
  191.7540  173.1850  136.0980 C   0  0  0  0  0  0  0  0  0  0  0  0
  190.6310  173.2260  135.3300 N   0  0  0  0  0  0  0  0  0  0  0  0
  192.8090  172.2910  135.7660 N   0  0  0  0  0  1  0  0  0  0  0  0
  189.6970  174.9100  136.7270 C   0  0  0  0  0  0  0  0  0  0  0  0
  182.6060  176.8750  139.0950 C   0  0  1  0  0  3  0  0  0  0  0  0
  183.1920  177.7980  140.5440 S   0  0  0  0  0  0  0  0  0  0  0  0
  185.9230  178.7440  139.0370 N   0  0  0  0  0  2  0  0  0  0  0  0
  183.7890  176.5920  138.1890 C   0  0  0  0  0  2  0  0  0  0  0  0
  183.5560  179.2730  139.5420 C   0  0  0  0  0  2  0  0  0  0  0  0
  185.9080  177.4600  136.7520 S   0  0  0  0  0  0  0  0  0  0  0  0
  184.2990  177.8600  137.4990 C   0  0  2  0  0  3  0  0  0  0  0  0
  182.0030  175.5630  139.5530 C   0  0  0  0  0  1  0  0  0  0  0  0
  184.6140  179.0020  138.4730 C   0  0  2  0  0  3  0  0  0  0  0  0
  186.6720  178.0200  138.2750 C   0  0  2  0  0  3  0  0  0  0  0  0
  192.3160  177.4980  140.3380 C   0  0  0  0  0  1  0  0  0  0  0  0
  190.9330  177.7250  140.9270 C   0  0  2  0  0  3  0  0  0  0  0  0
  190.7560  176.9370  142.1980 C   0  0  0  0  0  0  0  0  0  0  0  0
  190.4820  175.7500  142.1260 O   0  0  0  0  0  0  0  0  0  0  0  0
  190.9450  177.5660  143.5500 C   0  0  0  0  0  2  0  0  0  0  0  0
  190.2900  176.7630  144.6770 C   0  0  1  0  0  3  0  0  0  0  0  0
  191.0930  176.7420  145.8040 F   0  0  0  0  0  0  0  0  0  0  0  0
  186.3000  178.0890  145.6210 C   0  0  0  0  0  0  0  0  0  0  0  0
  187.3080  178.1020  146.5970 C   0  0  0  0  0  3  0  0  0  0  0  0
  188.9030  177.2350  144.9910 C   0  0  0  0  0  0  0  0  0  0  0  0
  187.8960  177.2120  144.0150 C   0  0  0  0  0  3  0  0  0  0  0  0
  186.6030  177.6390  144.3290 C   0  0  0  0  0  3  0  0  0  0  0  0
  188.6010  177.6770  146.2820 C   0  0  0  0  0  3  0  0  0  0  0  0
  184.9370  178.5420  145.9500 C   0  0  0  0  0  0  0  0  0  0  0  0
  184.1210  179.1550  144.9550 N   0  0  0  0  0  1  0  0  0  0  0  0
  184.4830  178.3980  147.1160 O   0  0  0  0  0  0  0  0  0  0  0  0
  1  7  1  0  0  0  0
  2  6  2  0  0  0  0
  3  1  1  0  0  0  0
  4  8  1  0  0  0  0
  5  8  1  0  0  0  0
  6 10  1  0  0  0  0
  6  5  1  0  0  0  0
  7  5  2  0  0  0  0
  8 26  1  0  0  0  0
  9 14  1  0  0  0  0
 10  4  2  0  0  0  0
 11  3  2  0  0  0  0
 12  9  2  0  0  0  0
 12 11  1  0  0  0  0
 13 11  1  0  0  0  0
 14  2  1  0  0  0  0
 14  1  2  0  0  0  0
 15 22  1  1  0  0  0
 15 16  1  0  0  0  0
 18 15  1  0  0  0  0
 19 16  1  0  0  0  0
 20 21  1  0  0  0  0
 20 24  1  0  0  0  0
 21 18  1  1  0  0  0
 21 23  1  0  0  0  0
 23 17  1  0  0  0  0
 23 19  1  1  0  0  0
 24 10  1  1  0  0  0
 24 17  1  0  0  0  0
 26 25  1  6  0  0  0
 26 27  1  0  0  0  0
 27 29  1  0  0  0  0
 28 27  2  0  0  0  0
 29 30  1  0  0  0  0
 30 34  1  0  0  0  0
 30 31  1  1  0  0  0
 32 38  1  0  0  0  0
 32 33  1  0  0  0  0
 34 37  1  0  0  0  0
 35 36  1  0  0  0  0
 35 34  2  0  0  0  0
 36 32  2  0  0  0  0
 37 33  2  0  0  0  0
 38 40  2  0  0  0  0
 39 38  1  0  0  0  0
M  END
>  <MODEL>
3

>  <REMARK>
 VINA RESULT:      -8.6      2.245      6.330
  Name = 
  7 active torsions:
  status: ('A' for Active; 'I' for Inactive)
    1  A    between atoms: C_1  and  C_5
    2  A    between atoms: C_7  and  C_21
    3  A    between atoms: C_7  and  C_23
    4  A    between atoms: C_14  and  N_20
    5  A    between atoms: C_14  and  C_23
    6  A    between atoms: C_16  and  C_21
    7  A    between atoms: C_27  and  C_40
                            x       y       z     vdW  Elec       q    Type
                         _______ _______ _______ _____ _____    ______ ____

>  <TORSDO>
F 7

$$$$
=
 OpenBabel10232408423D

 40 45  0  0  1  0  0  0  0  0999 V2000
  186.2620  178.5110  142.7270 C   0  0  0  0  0  0  0  0  0  0  0  0
  187.0730  178.0310  140.4590 C   0  0  0  0  0  3  0  0  0  0  0  0
  185.2220  178.7730  143.5580 N   0  0  0  0  0  0  0  0  0  0  0  0
  190.5310  177.7500  141.4250 C   0  0  0  0  0  3  0  0  0  0  0  0
  188.6000  178.1690  142.3280 C   0  0  0  0  0  0  0  0  0  0  0  0
  188.3620  177.9720  140.9920 C   0  0  0  0  0  0  0  0  0  0  0  0
  187.5710  178.4400  143.2320 C   0  0  0  0  0  3  0  0  0  0  0  0
  189.9130  178.0460  142.5950 N   0  0  0  0  0  0  0  0  0  0  0  0
  184.7040  178.3800  140.8860 C   0  0  0  0  0  3  0  0  0  0  0  0
  189.5850  177.7070  140.4010 C   0  0  0  0  0  0  0  0  0  0  0  0
  183.9490  178.8400  143.0850 C   0  0  0  0  0  0  0  0  0  0  0  0
  183.7000  178.6450  141.7610 N   0  0  0  0  0  0  0  0  0  0  0  0
  182.8750  179.1160  143.9750 N   0  0  0  0  0  1  0  0  0  0  0  0
  186.0180  178.3070  141.3420 C   0  0  0  0  0  0  0  0  0  0  0  0
  187.7950  175.4600  135.7670 C   0  0  1  0  0  3  0  0  0  0  0  0
  187.0040  177.0780  135.9940 S   0  0  0  0  0  0  0  0  0  0  0  0
  189.3230  178.1020  138.0430 N   0  0  0  0  0  2  0  0  0  0  0  0
  188.7460  175.2180  136.9230 C   0  0  0  0  0  2  0  0  0  0  0  0
  188.5670  177.9600  135.6880 C   0  0  0  0  0  2  0  0  0  0  0  0
  190.8380  176.0010  138.4470 S   0  0  0  0  0  0  0  0  0  0  0  0
  189.9800  176.1210  136.8480 C   0  0  2  0  0  3  0  0  0  0  0  0
  186.7290  174.3840  135.7640 C   0  0  0  0  0  1  0  0  0  0  0  0
  189.6410  177.6110  136.7170 C   0  0  2  0  0  3  0  0  0  0  0  0
  189.8740  177.4150  138.9860 C   0  0  2  0  0  3  0  0  0  0  0  0
  191.6340  179.1740  143.9550 C   0  0  0  0  0  1  0  0  0  0  0  0
  190.5360  178.1220  143.9190 C   0  0  2  0  0  3  0  0  0  0  0  0
  191.0560  176.7880  144.3860 C   0  0  0  0  0  0  0  0  0  0  0  0
  190.9050  175.8100  143.6700 O   0  0  0  0  0  0  0  0  0  0  0  0
  191.7900  176.6370  145.6890 C   0  0  0  0  0  2  0  0  0  0  0  0
  190.9130  176.0600  146.8020 C   0  0  1  0  0  3  0  0  0  0  0  0
  191.6200  175.9550  147.9890 F   0  0  0  0  0  0  0  0  0  0  0  0
  187.2330  178.2530  147.2700 C   0  0  0  0  0  0  0  0  0  0  0  0
  187.3750  177.3020  146.2480 C   0  0  0  0  0  3  0  0  0  0  0  0
  189.6330  176.8180  146.9820 C   0  0  0  0  0  0  0  0  0  0  0  0
  189.4990  177.7730  148.0000 C   0  0  0  0  0  3  0  0  0  0  0  0
  188.3050  178.4840  148.1430 C   0  0  0  0  0  3  0  0  0  0  0  0
  188.5690  176.5900  146.1050 C   0  0  0  0  0  3  0  0  0  0  0  0
  185.9730  179.0010  147.4250 C   0  0  0  0  0  0  0  0  0  0  0  0
  184.7330  178.4100  147.0480 N   0  0  0  0  0  1  0  0  0  0  0  0
  185.9820  180.1730  147.8860 O   0  0  0  0  0  0  0  0  0  0  0  0
  1  7  1  0  0  0  0
  1  3  1  0  0  0  0
  2  6  2  0  0  0  0
  2 14  1  0  0  0  0
  4  8  1  0  0  0  0
  5  8  1  0  0  0  0
  5  7  2  0  0  0  0
  6  5  1  0  0  0  0
  8 26  1  0  0  0  0
  9 14  1  0  0  0  0
  9 12  2  0  0  0  0
 10  6  1  0  0  0  0
 10  4  2  0  0  0  0
 11  3  2  0  0  0  0
 11 13  1  0  0  0  0
 12 11  1  0  0  0  0
 14  1  2  0  0  0  0
 15 22  1  1  0  0  0
 15 16  1  0  0  0  0
 15 18  1  0  0  0  0
 17 24  1  0  0  0  0
 19 16  1  0  0  0  0
 20 24  1  0  0  0  0
 21 18  1  1  0  0  0
 21 20  1  0  0  0  0
 23 19  1  6  0  0  0
 23 21  1  0  0  0  0
 23 17  1  0  0  0  0
 24 10  1  1  0  0  0
 26 25  1  6  0  0  0
 26 27  1  0  0  0  0
 27 29  1  0  0  0  0
 28 27  2  0  0  0  0
 29 30  1  0  0  0  0
 30 34  1  0  0  0  0
 30 31  1  1  0  0  0
 32 38  1  0  0  0  0
 32 36  1  0  0  0  0
 33 32  2  0  0  0  0
 34 35  1  0  0  0  0
 35 36  2  0  0  0  0
 37 33  1  0  0  0  0
 37 34  2  0  0  0  0
 38 40  2  0  0  0  0
 39 38  1  0  0  0  0
M  END
>  <MODEL>
4

>  <REMARK>
 VINA RESULT:      -8.5      2.860      4.257
  Name = 
  7 active torsions:
  status: ('A' for Active; 'I' for Inactive)
    1  A    between atoms: C_1  and  C_5
    2  A    between atoms: C_7  and  C_21
    3  A    between atoms: C_7  and  C_23
    4  A    between atoms: C_14  and  N_20
    5  A    between atoms: C_14  and  C_23
    6  A    between atoms: C_16  and  C_21
    7  A    between atoms: C_27  and  C_40
                            x       y       z     vdW  Elec       q    Type
                         _______ _______ _______ _____ _____    ______ ____

>  <TORSDO>
F 7

$$$$
=
 OpenBabel10232408423D

 40 45  0  0  1  0  0  0  0  0999 V2000
  186.7350  178.4130  140.3050 C   0  0  0  0  0  0  0  0  0  0  0  0
  188.2100  177.5690  138.5310 C   0  0  0  0  0  3  0  0  0  0  0  0
  185.5110  178.8600  140.6850 N   0  0  0  0  0  0  0  0  0  0  0  0
  191.0750  177.1810  140.6760 C   0  0  0  0  0  3  0  0  0  0  0  0
  189.0140  177.8560  140.7930 C   0  0  0  0  0  0  0  0  0  0  0  0
  189.2240  177.4930  139.4870 C   0  0  0  0  0  0  0  0  0  0  0  0
  187.7770  178.3210  141.2430 C   0  0  0  0  0  3  0  0  0  0  0  0
  190.1340  177.6780  141.5170 N   0  0  0  0  0  0  0  0  0  0  0  0
  185.8930  178.1400  138.0580 C   0  0  0  0  0  3  0  0  0  0  0  0
  190.5370  177.0640  139.3960 C   0  0  0  0  0  0  0  0  0  0  0  0
  184.4920  178.9510  139.7900 C   0  0  0  0  0  0  0  0  0  0  0  0
  184.6880  178.5930  138.4910 N   0  0  0  0  0  0  0  0  0  0  0  0
  183.2180  179.4220  140.2110 N   0  0  0  0  0  1  0  0  0  0  0  0
  186.9550  178.0370  138.9530 C   0  0  0  0  0  0  0  0  0  0  0  0
  190.5370  173.5290  135.2440 C   0  0  1  0  0  3  0  0  0  0  0  0
  189.4370  174.9190  134.8490 S   0  0  0  0  0  0  0  0  0  0  0  0
  190.8730  176.8800  137.0210 N   0  0  0  0  0  2  0  0  0  0  0  0
  191.1570  173.7730  136.6070 C   0  0  0  0  0  2  0  0  0  0  0  0
  190.8390  176.0670  134.6810 C   0  0  0  0  0  2  0  0  0  0  0  0
  192.5670  175.3400  138.2990 S   0  0  0  0  0  0  0  0  0  0  0  0
  192.1810  174.9110  136.5750 C   0  0  2  0  0  3  0  0  0  0  0  0
  189.7250  172.2520  135.2870 C   0  0  0  0  0  1  0  0  0  0  0  0
  191.6300  176.2130  135.9810 C   0  0  2  0  0  3  0  0  0  0  0  0
  191.2550  176.5600  138.2120 C   0  0  2  0  0  3  0  0  0  0  0  0
  191.1130  179.1240  143.2580 C   0  0  0  0  0  1  0  0  0  0  0  0
  190.2740  177.8920  142.9590 C   0  0  2  0  0  3  0  0  0  0  0  0
  190.8250  176.6830  143.6680 C   0  0  0  0  0  0  0  0  0  0  0  0
  190.6760  175.5810  143.1620 O   0  0  0  0  0  0  0  0  0  0  0  0
  191.5870  176.8010  144.9580 C   0  0  0  0  0  2  0  0  0  0  0  0
  190.8190  176.2380  146.1560 C   0  0  1  0  0  3  0  0  0  0  0  0
  191.6190  176.2030  147.2870 F   0  0  0  0  0  0  0  0  0  0  0  0
  187.1080  178.2890  146.9250 C   0  0  0  0  0  0  0  0  0  0  0  0
  188.1280  178.2680  147.8890 C   0  0  0  0  0  3  0  0  0  0  0  0
  189.5310  176.9600  146.4080 C   0  0  0  0  0  0  0  0  0  0  0  0
  188.5120  176.9710  145.4450 C   0  0  0  0  0  3  0  0  0  0  0  0
  187.3090  177.6340  145.7020 C   0  0  0  0  0  3  0  0  0  0  0  0
  189.3310  177.6060  147.6310 C   0  0  0  0  0  3  0  0  0  0  0  0
  185.8410  178.9910  147.1940 C   0  0  0  0  0  0  0  0  0  0  0  0
  184.6130  178.4860  146.6770 N   0  0  0  0  0  1  0  0  0  0  0  0
  185.8330  180.0480  147.8780 O   0  0  0  0  0  0  0  0  0  0  0  0
  1  3  1  0  0  0  0
  1  7  1  0  0  0  0
  2 14  1  0  0  0  0
  2  6  2  0  0  0  0
  4  8  1  0  0  0  0
  5  7  2  0  0  0  0
  5  8  1  0  0  0  0
  6  5  1  0  0  0  0
  8 26  1  0  0  0  0
  9 12  2  0  0  0  0
  9 14  1  0  0  0  0
 10  6  1  0  0  0  0
 10  4  2  0  0  0  0
 11 13  1  0  0  0  0
 11  3  2  0  0  0  0
 12 11  1  0  0  0  0
 14  1  2  0  0  0  0
 15 22  1  1  0  0  0
 15 18  1  0  0  0  0
 16 15  1  0  0  0  0
 17 24  1  0  0  0  0
 19 16  1  0  0  0  0
 21 18  1  1  0  0  0
 21 20  1  0  0  0  0
 23 19  1  6  0  0  0
 23 21  1  0  0  0  0
 23 17  1  0  0  0  0
 24 20  1  0  0  0  0
 24 10  1  1  0  0  0
 26 25  1  6  0  0  0
 26 27  1  0  0  0  0
 27 29  1  0  0  0  0
 28 27  2  0  0  0  0
 29 30  1  0  0  0  0
 30 34  1  0  0  0  0
 30 31  1  1  0  0  0
 32 38  1  0  0  0  0
 32 33  1  0  0  0  0
 34 37  1  0  0  0  0
 35 36  1  0  0  0  0
 35 34  2  0  0  0  0
 36 32  2  0  0  0  0
 37 33  2  0  0  0  0
 38 40  2  0  0  0  0
 39 38  1  0  0  0  0
M  END
>  <MODEL>
5

>  <REMARK>
 VINA RESULT:      -8.5      1.975      2.889
  Name = 
  7 active torsions:
  status: ('A' for Active; 'I' for Inactive)
    1  A    between atoms: C_1  and  C_5
    2  A    between atoms: C_7  and  C_21
    3  A    between atoms: C_7  and  C_23
    4  A    between atoms: C_14  and  N_20
    5  A    between atoms: C_14  and  C_23
    6  A    between atoms: C_16  and  C_21
    7  A    between atoms: C_27  and  C_40
                            x       y       z     vdW  Elec       q    Type
                         _______ _______ _______ _____ _____    ______ ____

>  <TORSDO>
F 7

$$$$
=
 OpenBabel10232408423D

 40 45  0  0  1  0  0  0  0  0999 V2000
  182.4460  174.6790  137.6870 C   0  0  0  0  0  0  0  0  0  0  0  0
  184.5810  174.9630  136.5060 C   0  0  0  0  0  3  0  0  0  0  0  0
  181.3380  173.9320  137.9230 N   0  0  0  0  0  0  0  0  0  0  0  0
  185.3670  178.1180  138.0520 C   0  0  0  0  0  3  0  0  0  0  0  0
  183.7860  176.6300  138.0660 C   0  0  0  0  0  0  0  0  0  0  0  0
  184.7280  176.1770  137.1780 C   0  0  0  0  0  0  0  0  0  0  0  0
  182.6270  175.9050  138.3500 C   0  0  0  0  0  3  0  0  0  0  0  0
  184.1620  177.8100  138.5920 N   0  0  0  0  0  0  0  0  0  0  0  0
  183.2060  172.9910  136.1360 C   0  0  0  0  0  3  0  0  0  0  0  0
  185.7420  177.1190  137.1540 C   0  0  0  0  0  0  0  0  0  0  0  0
  181.1510  172.7430  137.2910 C   0  0  0  0  0  0  0  0  0  0  0  0
  182.0790  172.2820  136.4090 N   0  0  0  0  0  0  0  0  0  0  0  0
  179.9820  171.9770  137.5540 N   0  0  0  0  0  1  0  0  0  0  0  0
  183.4230  174.2130  136.7670 C   0  0  0  0  0  0  0  0  0  0  0  0
  191.1100  176.1640  137.1820 C   0  0  1  0  0  3  0  0  0  0  0  0
  190.2200  174.5840  137.1050 S   0  0  0  0  0  0  0  0  0  0  0  0
  187.5040  175.9860  135.9720 N   0  0  0  0  0  2  0  0  0  0  0  0
  190.0970  177.2930  137.1880 C   0  0  0  0  0  2  0  0  0  0  0  0
  189.6590  174.9060  135.4030 C   0  0  0  0  0  2  0  0  0  0  0  0
  187.9870  178.5610  136.0700 S   0  0  0  0  0  0  0  0  0  0  0  0
  189.4070  177.4510  135.8300 C   0  0  2  0  0  3  0  0  0  0  0  0
  191.9210  176.2150  138.4600 C   0  0  0  0  0  1  0  0  0  0  0  0
  188.7810  176.1520  135.3070 C   0  0  2  0  0  3  0  0  0  0  0  0
  186.9900  177.1010  136.3710 C   0  0  2  0  0  3  0  0  0  0  0  0
  182.9280  179.8880  139.0840 C   0  0  0  0  0  1  0  0  0  0  0  0
  183.4460  178.5640  139.6240 C   0  0  2  0  0  3  0  0  0  0  0  0
  184.2800  178.7780  140.8590 C   0  0  0  0  0  0  0  0  0  0  0  0
  185.1750  179.6090  140.8330 O   0  0  0  0  0  0  0  0  0  0  0  0
  184.0150  178.0250  142.1330 C   0  0  0  0  0  2  0  0  0  0  0  0
  184.1270  178.9060  143.3800 C   0  0  1  0  0  3  0  0  0  0  0  0
  182.9130  178.9880  144.0410 F   0  0  0  0  0  0  0  0  0  0  0  0
  187.3100  177.7130  146.0280 C   0  0  0  0  0  0  0  0  0  0  0  0
  186.2320  178.4750  146.5030 C   0  0  0  0  0  3  0  0  0  0  0  0
  185.2320  178.4740  144.2950 C   0  0  0  0  0  0  0  0  0  0  0  0
  186.3120  177.7200  143.8140 C   0  0  0  0  0  3  0  0  0  0  0  0
  187.3430  177.3400  144.6770 C   0  0  0  0  0  3  0  0  0  0  0  0
  185.2000  178.8530  145.6400 C   0  0  0  0  0  3  0  0  0  0  0  0
  188.3960  177.3080  146.9380 C   0  0  0  0  0  0  0  0  0  0  0  0
  188.2170  177.3740  148.3500 N   0  0  0  0  0  1  0  0  0  0  0  0
  189.4960  176.9060  146.4750 O   0  0  0  0  0  0  0  0  0  0  0  0
  1  3  1  0  0  0  0
  1  7  1  0  0  0  0
  2 14  1  0  0  0  0
  2  6  2  0  0  0  0
  4  8  1  0  0  0  0
  5  7  2  0  0  0  0
  5  8  1  0  0  0  0
  6  5  1  0  0  0  0
  8 26  1  0  0  0  0
  9 12  2  0  0  0  0
  9 14  1  0  0  0  0
 10  6  1  0  0  0  0
 10  4  2  0  0  0  0
 11 13  1  0  0  0  0
 11  3  2  0  0  0  0
 12 11  1  0  0  0  0
 14  1  2  0  0  0  0
 15 18  1  0  0  0  0
 15 22  1  1  0  0  0
 16 15  1  0  0  0  0
 17 24  1  0  0  0  0
 19 16  1  0  0  0  0
 20 24  1  0  0  0  0
 21 20  1  0  0  0  0
 21 18  1  1  0  0  0
 23 19  1  1  0  0  0
 23 21  1  0  0  0  0
 23 17  1  0  0  0  0
 24 10  1  1  0  0  0
 26 25  1  6  0  0  0
 26 27  1  0  0  0  0
 27 29  1  0  0  0  0
 28 27  2  0  0  0  0
 29 30  1  0  0  0  0
 30 31  1  1  0  0  0
 30 34  1  0  0  0  0
 32 33  1  0  0  0  0
 32 38  1  0  0  0  0
 34 37  1  0  0  0  0
 35 34  2  0  0  0  0
 35 36  1  0  0  0  0
 36 32  2  0  0  0  0
 37 33  2  0  0  0  0
 38 39  1  0  0  0  0
 40 38  2  0  0  0  0
M  END
>  <MODEL>
6

>  <REMARK>
 VINA RESULT:      -8.3      3.564      5.679
  Name = 
  7 active torsions:
  status: ('A' for Active; 'I' for Inactive)
    1  A    between atoms: C_1  and  C_5
    2  A    between atoms: C_7  and  C_21
    3  A    between atoms: C_7  and  C_23
    4  A    between atoms: C_14  and  N_20
    5  A    between atoms: C_14  and  C_23
    6  A    between atoms: C_16  and  C_21
    7  A    between atoms: C_27  and  C_40
                            x       y       z     vdW  Elec       q    Type
                         _______ _______ _______ _____ _____    ______ ____

>  <TORSDO>
F 7

$$$$
=
 OpenBabel10232408423D

 40 45  0  0  1  0  0  0  0  0999 V2000
  192.0840  176.5130  138.5560 C   0  0  0  0  0  0  0  0  0  0  0  0
  189.8980  177.0120  137.5510 C   0  0  0  0  0  3  0  0  0  0  0  0
  193.3620  176.0840  138.4050 N   0  0  0  0  0  0  0  0  0  0  0  0
  188.3890  178.1070  140.6320 C   0  0  0  0  0  3  0  0  0  0  0  0
  190.2880  177.3330  139.9150 C   0  0  0  0  0  0  0  0  0  0  0  0
  189.4620  177.3870  138.8230 C   0  0  0  0  0  0  0  0  0  0  0  0
  191.6130  176.9020  139.8220 C   0  0  0  0  0  3  0  0  0  0  0  0
  189.6420  177.7580  141.0160 N   0  0  0  0  0  0  0  0  0  0  0  0
  191.7340  176.1800  136.1900 C   0  0  0  0  0  3  0  0  0  0  0  0
  188.2440  177.8750  139.2640 C   0  0  0  0  0  0  0  0  0  0  0  0
  193.8330  175.7090  137.1860 C   0  0  0  0  0  0  0  0  0  0  0  0
  193.0230  175.7590  136.0940 N   0  0  0  0  0  0  0  0  0  0  0  0
  195.1760  175.2620  137.0510 N   0  0  0  0  0  1  0  0  0  0  0  0
  191.2250  176.5700  137.4250 C   0  0  0  0  0  0  0  0  0  0  0  0
  183.2850  176.0910  137.8650 C   0  0  1  0  0  3  0  0  0  0  0  0
  183.2130  176.8240  139.5240 S   0  0  0  0  0  0  0  0  0  0  0  0
  185.9430  178.5430  139.0570 N   0  0  0  0  0  2  0  0  0  0  0  0
  184.7030  176.2150  137.3400 C   0  0  0  0  0  2  0  0  0  0  0  0
  183.4730  178.5020  138.8680 C   0  0  0  0  0  2  0  0  0  0  0  0
  186.8620  177.7280  136.7410 S   0  0  0  0  0  0  0  0  0  0  0  0
  185.0630  177.6630  136.9990 C   0  0  2  0  0  3  0  0  0  0  0  0
  182.9120  174.6260  137.9540 C   0  0  0  0  0  1  0  0  0  0  0  0
  184.8150  178.6440  138.1520 C   0  0  2  0  0  3  0  0  0  0  0  0
  187.0220  178.1310  138.4820 C   0  0  2  0  0  3  0  0  0  0  0  0
  191.6110  177.2960  142.4280 C   0  0  0  0  0  1  0  0  0  0  0  0
  190.2200  177.9060  142.3540 C   0  0  2  0  0  3  0  0  0  0  0  0
  189.3290  177.3420  143.4290 C   0  0  0  0  0  0  0  0  0  0  0  0
  189.0290  176.1590  143.3890 O   0  0  0  0  0  0  0  0  0  0  0  0
  188.8330  178.1870  144.5700 C   0  0  0  0  0  2  0  0  0  0  0  0
  187.6840  177.5320  145.3390 C   0  0  1  0  0  3  0  0  0  0  0  0
  187.7890  177.7830  146.6980 F   0  0  0  0  0  0  0  0  0  0  0  0
  183.7900  178.6050  143.8390 C   0  0  0  0  0  0  0  0  0  0  0  0
  184.0980  178.7510  145.2000 C   0  0  0  0  0  3  0  0  0  0  0  0
  186.3380  177.9150  144.8050 C   0  0  0  0  0  0  0  0  0  0  0  0
  186.0320  177.7600  143.4460 C   0  0  0  0  0  3  0  0  0  0  0  0
  184.7670  178.1060  142.9660 C   0  0  0  0  0  3  0  0  0  0  0  0
  185.3640  178.4060  145.6790 C   0  0  0  0  0  3  0  0  0  0  0  0
  182.4570  178.9730  143.3310 C   0  0  0  0  0  0  0  0  0  0  0  0
  181.3500  179.0790  144.2220 N   0  0  0  0  0  1  0  0  0  0  0  0
  182.2820  179.1910  142.1030 O   0  0  0  0  0  0  0  0  0  0  0  0
  1  7  1  0  0  0  0
  2  6  2  0  0  0  0
  3  1  1  0  0  0  0
  4  8  1  0  0  0  0
  5  8  1  0  0  0  0
  6 10  1  0  0  0  0
  6  5  1  0  0  0  0
  7  5  2  0  0  0  0
  8 26  1  0  0  0  0
  9 14  1  0  0  0  0
 10  4  2  0  0  0  0
 11  3  2  0  0  0  0
 12  9  2  0  0  0  0
 12 11  1  0  0  0  0
 13 11  1  0  0  0  0
 14  2  1  0  0  0  0
 14  1  2  0  0  0  0
 15 22  1  1  0  0  0
 15 16  1  0  0  0  0
 18 15  1  0  0  0  0
 19 16  1  0  0  0  0
 20 21  1  0  0  0  0
 20 24  1  0  0  0  0
 21 18  1  1  0  0  0
 21 23  1  0  0  0  0
 23 19  1  1  0  0  0
 23 17  1  0  0  0  0
 24 17  1  0  0  0  0
 24 10  1  1  0  0  0
 26 25  1  6  0  0  0
 26 27  1  0  0  0  0
 27 29  1  0  0  0  0
 28 27  2  0  0  0  0
 29 30  1  0  0  0  0
 30 31  1  1  0  0  0
 32 33  1  0  0  0  0
 33 37  2  0  0  0  0
 34 30  1  0  0  0  0
 34 37  1  0  0  0  0
 35 34  2  0  0  0  0
 36 35  1  0  0  0  0
 36 32  2  0  0  0  0
 38 32  1  0  0  0  0
 38 39  1  0  0  0  0
 40 38  2  0  0  0  0
M  END
>  <MODEL>
7

>  <REMARK>
 VINA RESULT:      -8.2      2.456      6.207
  Name = 
  7 active torsions:
  status: ('A' for Active; 'I' for Inactive)
    1  A    between atoms: C_1  and  C_5
    2  A    between atoms: C_7  and  C_21
    3  A    between atoms: C_7  and  C_23
    4  A    between atoms: C_14  and  N_20
    5  A    between atoms: C_14  and  C_23
    6  A    between atoms: C_16  and  C_21
    7  A    between atoms: C_27  and  C_40
                            x       y       z     vdW  Elec       q    Type
                         _______ _______ _______ _____ _____    ______ ____

>  <TORSDO>
F 7

$$$$
=
 OpenBabel10232408423D

 40 45  0  0  1  0  0  0  0  0999 V2000
  186.5740  178.4230  144.6840 C   0  0  0  0  0  0  0  0  0  0  0  0
  184.5040  178.4370  143.3610 C   0  0  0  0  0  3  0  0  0  0  0  0
  187.1760  178.4120  145.9000 N   0  0  0  0  0  0  0  0  0  0  0  0
  186.1790  178.4140  140.1740 C   0  0  0  0  0  3  0  0  0  0  0  0
  186.6710  178.4380  142.2890 C   0  0  0  0  0  0  0  0  0  0  0  0
  185.3020  178.4430  142.2160 C   0  0  0  0  0  0  0  0  0  0  0  0
  187.3470  178.4250  143.5110 C   0  0  0  0  0  3  0  0  0  0  0  0
  187.2090  178.4300  141.0570 N   0  0  0  0  0  0  0  0  0  0  0  0
  184.4280  178.4210  145.7930 C   0  0  0  0  0  3  0  0  0  0  0  0
  184.9720  178.4330  140.8720 C   0  0  0  0  0  0  0  0  0  0  0  0
  186.4410  178.4050  147.0440 C   0  0  0  0  0  0  0  0  0  0  0  0
  185.0810  178.4090  146.9840 N   0  0  0  0  0  0  0  0  0  0  0  0
  187.0940  178.3940  148.3070 N   0  0  0  0  0  1  0  0  0  0  0  0
  185.1550  178.4290  144.6050 C   0  0  0  0  0  0  0  0  0  0  0  0
  181.8820  176.6760  136.7370 C   0  0  1  0  0  3  0  0  0  0  0  0
  182.1070  175.3290  137.9330 S   0  0  0  0  0  0  0  0  0  0  0  0
  182.8730  177.3830  140.3450 N   0  0  0  0  0  2  0  0  0  0  0  0
  182.5980  177.9080  137.2540 C   0  0  0  0  0  2  0  0  0  0  0  0
  181.0650  176.1620  139.1710 C   0  0  0  0  0  2  0  0  0  0  0  0
  183.0220  179.7370  139.2000 S   0  0  0  0  0  0  0  0  0  0  0  0
  181.8890  178.5180  138.4660 C   0  0  2  0  0  3  0  0  0  0  0  0
  182.4860  176.2670  135.4100 C   0  0  0  0  0  1  0  0  0  0  0  0
  181.6380  177.5130  139.5980 C   0  0  2  0  0  3  0  0  0  0  0  0
  183.6320  178.4230  140.2580 C   0  0  2  0  0  3  0  0  0  0  0  0
  188.8990  178.7200  139.2840 C   0  0  0  0  0  1  0  0  0  0  0  0
  188.6370  178.3540  140.7370 C   0  0  2  0  0  3  0  0  0  0  0  0
  189.2270  177.0090  141.0670 C   0  0  0  0  0  0  0  0  0  0  0  0
  188.5950  176.2420  141.7750 O   0  0  0  0  0  0  0  0  0  0  0  0
  190.5560  176.5720  140.5150 C   0  0  0  0  0  2  0  0  0  0  0  0
  191.7410  177.1350  141.3020 C   0  0  1  0  0  3  0  0  0  0  0  0
  192.0620  178.4120  140.8730 F   0  0  0  0  0  0  0  0  0  0  0  0
  191.0970  176.9450  145.5590 C   0  0  0  0  0  0  0  0  0  0  0  0
  191.4860  175.8030  144.8420 C   0  0  0  0  0  3  0  0  0  0  0  0
  191.5280  177.0830  142.7840 C   0  0  0  0  0  0  0  0  0  0  0  0
  191.1310  178.2240  143.4950 C   0  0  0  0  0  3  0  0  0  0  0  0
  190.9200  178.1550  144.8740 C   0  0  0  0  0  3  0  0  0  0  0  0
  191.6990  175.8730  143.4630 C   0  0  0  0  0  3  0  0  0  0  0  0
  190.8770  176.8740  147.0140 C   0  0  0  0  0  0  0  0  0  0  0  0
  191.9820  176.9120  147.9130 N   0  0  0  0  0  1  0  0  0  0  0  0
  189.7100  176.7730  147.4760 O   0  0  0  0  0  0  0  0  0  0  0  0
  1  3  1  0  0  0  0
  2 14  2  0  0  0  0
  3 11  2  0  0  0  0
  4 10  2  0  0  0  0
  4  8  1  0  0  0  0
  5  7  1  0  0  0  0
  6  5  2  0  0  0  0
  6  2  1  0  0  0  0
  7  1  2  0  0  0  0
  8  5  1  0  0  0  0
  9 12  2  0  0  0  0
 10  6  1  0  0  0  0
 11 13  1  0  0  0  0
 12 11  1  0  0  0  0
 14  1  1  0  0  0  0
 14  9  1  0  0  0  0
 15 22  1  6  0  0  0
 15 18  1  0  0  0  0
 15 16  1  0  0  0  0
 16 19  1  0  0  0  0
 20 24  1  0  0  0  0
 21 18  1  6  0  0  0
 21 20  1  0  0  0  0
 21 23  1  0  0  0  0
 23 19  1  6  0  0  0
 23 17  1  0  0  0  0
 24 17  1  0  0  0  0
 24 10  1  6  0  0  0
 26 25  1  6  0  0  0
 26  8  1  0  0  0  0
 26 27  1  0  0  0  0
 27 28  2  0  0  0  0
 29 27  1  0  0  0  0
 29 30  1  0  0  0  0
 30 31  1  6  0  0  0
 30 34  1  0  0  0  0
 32 38  1  0  0  0  0
 33 32  2  0  0  0  0
 34 37  2  0  0  0  0
 34 35  1  0  0  0  0
 35 36  2  0  0  0  0
 36 32  1  0  0  0  0
 37 33  1  0  0  0  0
 38 40  2  0  0  0  0
 38 39  1  0  0  0  0
M  END
>  <MODEL>
8

>  <REMARK>
 VINA RESULT:      -8.1      4.507      7.798
  Name = 
  7 active torsions:
  status: ('A' for Active; 'I' for Inactive)
    1  A    between atoms: C_1  and  C_5
    2  A    between atoms: C_7  and  C_21
    3  A    between atoms: C_7  and  C_23
    4  A    between atoms: C_14  and  N_20
    5  A    between atoms: C_14  and  C_23
    6  A    between atoms: C_16  and  C_21
    7  A    between atoms: C_27  and  C_40
                            x       y       z     vdW  Elec       q    Type
                         _______ _______ _______ _____ _____    ______ ____

>  <TORSDO>
F 7

$$$$
=
 OpenBabel10232408423D

 40 45  0  0  1  0  0  0  0  0999 V2000
  193.8760  175.8640  136.6340 C   0  0  0  0  0  0  0  0  0  0  0  0
  191.9110  174.6600  135.7850 C   0  0  0  0  0  3  0  0  0  0  0  0
  195.2020  176.1390  136.5390 N   0  0  0  0  0  0  0  0  0  0  0  0
  189.6320  176.0570  138.1960 C   0  0  0  0  0  3  0  0  0  0  0  0
  191.7400  176.1470  137.6830 C   0  0  0  0  0  0  0  0  0  0  0  0
  191.1670  175.2760  136.7920 C   0  0  0  0  0  0  0  0  0  0  0  0
  193.0980  176.4700  137.6350 C   0  0  0  0  0  3  0  0  0  0  0  0
  190.8180  176.6170  138.5420 N   0  0  0  0  0  0  0  0  0  0  0  0
  194.0880  174.3870  134.7350 C   0  0  0  0  0  3  0  0  0  0  0  0
  189.8220  175.2040  137.1100 C   0  0  0  0  0  0  0  0  0  0  0  0
  195.9670  175.5630  135.5740 C   0  0  0  0  0  0  0  0  0  0  0  0
  195.4100  174.6970  134.6840 N   0  0  0  0  0  0  0  0  0  0  0  0
  197.3540  175.8660  135.4940 N   0  0  0  0  0  1  0  0  0  0  0  0
  193.2800  174.9610  135.7130 C   0  0  0  0  0  0  0  0  0  0  0  0
  184.4770  174.2040  136.7110 C   0  0  1  0  0  3  0  0  0  0  0  0
  184.8710  175.7290  135.8090 S   0  0  0  0  0  0  0  0  0  0  0  0
  188.0230  174.9420  135.5360 N   0  0  0  0  0  2  0  0  0  0  0  0
  185.7590  173.6370  137.2900 C   0  0  0  0  0  2  0  0  0  0  0  0
  185.7680  174.8120  134.5160 C   0  0  0  0  0  2  0  0  0  0  0  0
  188.2980  172.7640  136.9690 S   0  0  0  0  0  0  0  0  0  0  0  0
  186.6750  173.0650  136.2050 C   0  0  2  0  0  3  0  0  0  0  0  0
  183.5200  174.5280  137.8390 C   0  0  0  0  0  1  0  0  0  0  0  0
  186.9740  174.0560  135.0720 C   0  0  2  0  0  3  0  0  0  0  0  0
  188.7660  174.4160  136.4500 C   0  0  2  0  0  3  0  0  0  0  0  0
  192.2730  177.2870  140.4170 C   0  0  0  0  0  1  0  0  0  0  0  0
  191.0410  177.6180  139.5880 C   0  0  2  0  0  3  0  0  0  0  0  0
  189.8350  177.8060  140.4700 C   0  0  0  0  0  0  0  0  0  0  0  0
  188.7620  178.0760  139.9550 O   0  0  0  0  0  0  0  0  0  0  0  0
  189.9110  177.6310  141.9610 C   0  0  0  0  0  2  0  0  0  0  0  0
  188.9590  176.5530  142.4830 C   0  0  1  0  0  3  0  0  0  0  0  0
  189.6620  175.4940  143.0340 F   0  0  0  0  0  0  0  0  0  0  0  0
  186.0090  178.1550  145.1840 C   0  0  0  0  0  0  0  0  0  0  0  0
  185.7480  178.0690  143.8080 C   0  0  0  0  0  3  0  0  0  0  0  0
  187.9350  177.0950  143.4330 C   0  0  0  0  0  0  0  0  0  0  0  0
  188.2040  177.1880  144.8050 C   0  0  0  0  0  3  0  0  0  0  0  0
  187.2450  177.7120  145.6760 C   0  0  0  0  0  3  0  0  0  0  0  0
  186.7070  177.5420  142.9380 C   0  0  0  0  0  3  0  0  0  0  0  0
  184.9970  178.7050  146.1030 C   0  0  0  0  0  0  0  0  0  0  0  0
  183.7430  179.1610  145.6050 N   0  0  0  0  0  1  0  0  0  0  0  0
  185.2350  178.7820  147.3370 O   0  0  0  0  0  0  0  0  0  0  0  0
  1  7  1  0  0  0  0
  2  6  2  0  0  0  0
  3  1  1  0  0  0  0
  4  8  1  0  0  0  0
  5  8  1  0  0  0  0
  6 10  1  0  0  0  0
  6  5  1  0  0  0  0
  7  5  2  0  0  0  0
  8 26  1  0  0  0  0
  9 14  1  0  0  0  0
 10  4  2  0  0  0  0
 11  3  2  0  0  0  0
 12  9  2  0  0  0  0
 12 11  1  0  0  0  0
 13 11  1  0  0  0  0
 14  2  1  0  0  0  0
 14  1  2  0  0  0  0
 15 18  1  0  0  0  0
 15 22  1  1  0  0  0
 16 15  1  0  0  0  0
 17 24  1  0  0  0  0
 19 16  1  0  0  0  0
 21 20  1  0  0  0  0
 21 18  1  1  0  0  0
 23 19  1  1  0  0  0
 23 17  1  0  0  0  0
 23 21  1  0  0  0  0
 24 20  1  0  0  0  0
 24 10  1  1  0  0  0
 26 25  1  1  0  0  0
 26 27  1  0  0  0  0
 27 29  1  0  0  0  0
 28 27  2  0  0  0  0
 29 30  1  0  0  0  0
 30 31  1  1  0  0  0
 30 34  1  0  0  0  0
 32 36  1  0  0  0  0
 32 38  1  0  0  0  0
 33 32  2  0  0  0  0
 34 35  1  0  0  0  0
 35 36  2  0  0  0  0
 37 34  2  0  0  0  0
 37 33  1  0  0  0  0
 38 40  2  0  0  0  0
 39 38  1  0  0  0  0
M  END
>  <MODEL>
9

>  <REMARK>
 VINA RESULT:      -7.8      2.763      6.064
  Name = 
  7 active torsions:
  status: ('A' for Active; 'I' for Inactive)
    1  A    between atoms: C_1  and  C_5
    2  A    between atoms: C_7  and  C_21
    3  A    between atoms: C_7  and  C_23
    4  A    between atoms: C_14  and  N_20
    5  A    between atoms: C_14  and  C_23
    6  A    between atoms: C_16  and  C_21
    7  A    between atoms: C_27  and  C_40
                            x       y       z     vdW  Elec       q    Type
                         _______ _______ _______ _____ _____    ______ ____

>  <TORSDO>
F 7

$$$$
