=
 OpenBabel10232411583D

 61 65  0  0  1  0  0  0  0  0999 V2000
  186.4110  177.6760  144.5650 C   0  0  0  0  0  2  0  0  0  0  0  0
  187.5030  178.9100  141.0220 C   0  0  1  0  0  3  0  0  0  0  0  0
  187.2200  178.0920  143.3550 C   0  0  0  0  0  0  0  0  0  0  0  0
  188.8250  176.8350  138.4280 O   0  0  0  0  0  0  0  0  0  0  0  0
  188.1210  177.9980  138.7610 C   0  0  2  0  0  3  0  0  0  0  0  0
  192.2620  176.8840  140.2160 N   0  0  0  0  0  0  0  0  0  0  0  0
  190.7800  177.5970  142.0180 C   0  0  1  0  0  3  0  0  0  0  0  0
  187.3080  177.7630  140.0310 C   0  0  0  0  0  2  0  0  0  0  0  0
  189.1920  176.7280  144.3500 C   0  0  0  0  0  1  0  0  0  0  0  0
  185.3790  178.7020  145.0030 C   0  0  0  0  0  2  0  0  0  0  0  0
  186.6690  178.6980  142.2600 C   0  0  0  0  0  0  0  0  0  0  0  0
  189.4310  178.1070  142.3050 C   0  0  0  0  0  0  0  0  0  0  0  0
  191.7130  177.3180  143.0170 O   0  0  0  0  0  1  0  0  0  0  0  0
  192.3340  176.5180  138.8330 C   0  0  0  0  0  0  0  0  0  0  0  0
  184.0640  178.4950  144.2660 C   0  0  0  0  0  2  0  0  0  0  0  0
  188.8760  178.9890  141.3730 O   0  0  0  0  0  0  0  0  0  0  0  0
  190.0830  177.2660  137.9820 C   0  0  0  0  0  2  0  0  0  0  0  0
  188.6590  177.6790  143.3190 C   0  0  0  0  0  0  0  0  0  0  0  0
  191.0360  177.3780  140.7360 C   0  0  0  0  0  3  0  0  0  0  0  0
  193.4630  176.5000  138.2740 O   0  0  0  0  0  0  0  0  0  0  0  0
  185.2720  179.2540  142.2070 C   0  0  0  0  0  2  0  0  0  0  0  0
  191.0830  176.1110  138.0620 C   0  0  1  0  0  3  0  0  0  0  0  0
  184.2350  178.2940  142.7590 C   0  0  0  0  0  2  0  0  0  0  0  0
  187.2540  178.3400  137.7170 O   0  0  0  0  0  0  0  0  0  0  0  0
  186.1860  177.4380  137.8190 C   0  0  2  0  0  3  0  0  0  0  0  0
  186.4390  176.3230  137.0130 O   0  0  0  0  0  1  0  0  0  0  0  0
  185.0150  178.0640  137.3930 O   0  0  0  0  0  0  0  0  0  0  0  0
  184.2150  178.1380  138.5360 C   0  0  0  0  0  2  0  0  0  0  0  0
  183.0600  176.6670  140.0500 O   0  0  0  0  0  1  0  0  0  0  0  0
  183.3910  176.8690  138.7070 C   0  0  1  0  0  3  0  0  0  0  0  0
  181.9250  178.1420  137.3110 O   0  0  0  0  0  1  0  0  0  0  0  0
  182.1500  176.8590  137.8130 C   0  0  1  0  0  3  0  0  0  0  0  0
  182.2760  175.8770  136.6600 C   0  0  0  0  0  2  0  0  0  0  0  0
  183.3910  175.0490  136.8590 O   0  0  0  0  0  0  0  0  0  0  0  0
  183.0420  173.7580  136.4240 C   0  0  1  0  0  0  0  0  0  0  0  0
  183.9620  172.6180  136.7740 C   0  0  2  0  0  0  0  0  0  0  0  0
  183.0780  171.4210  137.0790 C   0  0  2  0  0  3  0  0  0  0  0  0
  183.5270  170.3020  136.3750 O   0  0  0  0  0  1  0  0  0  0  0  0
  185.1440  172.9520  137.6680 C   0  0  0  0  0  1  0  0  0  0  0  0
  181.5980  173.2780  136.4220 C   0  0  0  0  0  2  0  0  0  0  0  0
  183.9650  173.1900  135.3590 C   0  0  0  0  0  2  0  0  0  0  0  0
  181.6540  171.7720  136.6480 C   0  0  0  0  0  2  0  0  0  0  0  0
  191.3840  175.5650  136.6490 C   0  0  2  0  0  3  0  0  0  0  0  0
  189.5570  175.2130  135.3060 C   0  0  0  0  0  1  0  0  0  0  0  0
  190.5730  176.1250  135.6350 O   0  0  0  0  0  0  0  0  0  0  0  0
  191.4730  174.0300  136.5820 C   0  0  0  0  0  2  0  0  0  0  0  0
  192.5220  173.6220  135.5620 C   0  0  0  0  0  2  0  0  0  0  0  0
  194.2330  172.1050  136.4870 C   0  0  0  0  0  0  0  0  0  0  0  0
  193.4520  171.0100  136.1180 O   0  0  0  0  0  1  0  0  0  0  0  0
  193.8140  173.3480  136.2530 C   0  0  0  0  0  3  0  0  0  0  0  0
  195.5590  171.8950  137.1470 C   0  0  2  0  0  3  0  0  0  0  0  0
  195.6980  170.5100  137.7120 C   0  0  0  0  0  0  0  0  0  0  0  0
  195.0580  170.1670  138.6960 O   0  0  0  0  0  0  0  0  0  0  0  0
  196.6160  169.5400  137.0520 C   0  0  0  0  0  1  0  0  0  0  0  0
  195.1970  173.0190  139.1960 O   0  0  0  0  0  0  0  0  0  0  0  0
  195.8620  172.9650  138.1660 C   0  0  0  0  0  0  0  0  0  0  0  0
  198.0460  173.3370  137.3480 F   0  0  0  0  0  0  0  0  0  0  0  0
  196.5100  174.9780  137.1260 F   0  0  0  0  0  0  0  0  0  0  0  0
  196.9720  173.9710  137.9560 C   0  0  0  0  0  0  0  0  0  0  0  0
  197.4480  174.5930  139.2690 C   0  0  0  0  0  2  0  0  0  0  0  0
  198.1740  175.7630  139.0220 O   0  0  0  0  0  1  0  0  0  0  0  0
  1 10  1  0  0  0  0
  2  8  1  6  0  0  0
  2 16  1  0  0  0  0
  2 11  1  0  0  0  0
  3  1  1  0  0  0  0
  4  5  1  0  0  0  0
  5 24  1  6  0  0  0
  5  8  1  0  0  0  0
  6 19  2  0  0  0  0
  7 12  1  0  0  0  0
  7 13  1  1  0  0  0
 11  3  2  0  0  0  0
 12 18  2  0  0  0  0
 14  6  1  0  0  0  0
 15 10  1  0  0  0  0
 16 12  1  0  0  0  0
 17 22  1  0  0  0  0
 17  4  1  0  0  0  0
 18  3  1  0  0  0  0
 18  9  1  0  0  0  0
 19  7  1  0  0  0  0
 20 14  2  0  0  0  0
 21 11  1  0  0  0  0
 21 23  1  0  0  0  0
 22 43  1  6  0  0  0
 22 14  1  0  0  0  0
 23 15  1  0  0  0  0
 24 25  1  0  0  0  0
 25 26  1  6  0  0  0
 27 25  1  0  0  0  0
 27 28  1  0  0  0  0
 28 30  1  0  0  0  0
 30 29  1  1  0  0  0
 32 31  1  6  0  0  0
 32 30  1  0  0  0  0
 33 34  1  0  0  0  0
 33 32  1  0  0  0  0
 35 36  1  0  0  0  0
 35 34  1  1  0  0  0
 36 37  1  0  0  0  0
 36 39  1  1  0  0  0
 37 38  1  6  0  0  0
 40 35  1  0  0  0  0
 40 42  1  0  0  0  0
 41 35  1  0  0  0  0
 41 36  1  0  0  0  0
 42 37  1  0  0  0  0
 43 46  1  1  0  0  0
 44 45  1  0  0  0  0
 45 43  1  0  0  0  0
 47 50  1  0  0  0  0
 47 46  1  0  0  0  0
 49 48  1  0  0  0  0
 50 48  2  0  0  0  0
 51 48  1  1  0  0  0
 51 52  1  0  0  0  0
 51 56  1  0  0  0  0
 52 53  2  0  0  0  0
 54 52  1  0  0  0  0
 56 55  2  0  0  0  0
 57 59  1  0  0  0  0
 58 59  1  0  0  0  0
 59 56  1  0  0  0  0
 59 60  1  0  0  0  0
 61 60  1  0  0  0  0
M  END
>  <MODEL>
1

>  <REMARK>
 VINA RESULT:      -7.7      0.000      0.000
  Name = 
  19 active torsions:
  status: ('A' for Active; 'I' for Inactive)
    1  A    between atoms: C_1  and  C_59
    2  A    between atoms: C_5  and  O_6
    3  A    between atoms: O_6  and  C_53
    4  A    between atoms: C_13  and  O_43
    5  A    between atoms: C_22  and  C_27
    6  A    between atoms: C_22  and  C_61
    7  A    between atoms: C_28  and  O_52
    8  A    between atoms: C_28  and  C_54
    9  A    between atoms: C_30  and  C_59
   10  A    between atoms: O_31  and  C_57
   11  A    between atoms: C_40  and  C_41
   12  A    between atoms: C_40  and  C_57
   13  A    between atoms: C_41  and  C_56
   14  A    between atoms: O_43  and  C_48
   15  A    between atoms: C_44  and  C_53
   16  A    between atoms: C_44  and  C_54
   17  A    between atoms: C_48  and  O_52
   18  A    between atoms: C_51  and  C_57
   19  A    between atoms: C_59  and  C_61
                            x       y       z     vdW  Elec       q    Type
                         _______ _______ _______ _____ _____    ______ ____

>  <TORSDO>
F 19

$$$$
=
 OpenBabel10232411583D

 61 65  0  0  1  0  0  0  0  0999 V2000
  186.4810  177.6080  144.9580 C   0  0  0  0  0  2  0  0  0  0  0  0
  187.1600  178.9790  141.3630 C   0  0  1  0  0  3  0  0  0  0  0  0
  187.1450  178.0610  143.6760 C   0  0  0  0  0  0  0  0  0  0  0  0
  188.0950  176.9970  138.5380 O   0  0  0  0  0  0  0  0  0  0  0  0
  187.4690  178.1580  139.0060 C   0  0  2  0  0  3  0  0  0  0  0  0
  191.7260  176.8890  139.8840 N   0  0  0  0  0  0  0  0  0  0  0  0
  190.4980  177.5500  141.8860 C   0  0  1  0  0  3  0  0  0  0  0  0
  186.8130  177.8830  140.3560 C   0  0  0  0  0  2  0  0  0  0  0  0
  189.1870  176.6100  144.3580 C   0  0  0  0  0  1  0  0  0  0  0  0
  185.5390  178.6350  145.5650 C   0  0  0  0  0  2  0  0  0  0  0  0
  186.4800  178.7280  142.6850 C   0  0  0  0  0  0  0  0  0  0  0  0
  189.2090  178.0760  142.3600 C   0  0  0  0  0  0  0  0  0  0  0  0
  191.5390  177.2060  142.7480 O   0  0  0  0  0  1  0  0  0  0  0  0
  191.6170  176.5860  138.4890 C   0  0  0  0  0  0  0  0  0  0  0  0
  184.1380  178.4910  144.9900 C   0  0  0  0  0  2  0  0  0  0  0  0
  188.5670  179.0120  141.5430 O   0  0  0  0  0  0  0  0  0  0  0  0
  189.3000  177.4200  137.9580 C   0  0  0  0  0  2  0  0  0  0  0  0
  188.5570  177.6190  143.4430 C   0  0  0  0  0  0  0  0  0  0  0  0
  190.5880  177.3850  140.5740 C   0  0  0  0  0  3  0  0  0  0  0  0
  192.6670  176.5690  137.7930 O   0  0  0  0  0  0  0  0  0  0  0  0
  185.1030  179.3170  142.8300 C   0  0  0  0  0  2  0  0  0  0  0  0
  190.2700  176.2410  137.8630 C   0  0  1  0  0  3  0  0  0  0  0  0
  184.1160  178.3550  143.4650 C   0  0  0  0  0  2  0  0  0  0  0  0
  186.4890  178.5660  138.0930 O   0  0  0  0  0  0  0  0  0  0  0  0
  186.2150  177.4320  137.3190 C   0  0  2  0  0  3  0  0  0  0  0  0
  186.2010  177.7830  135.9650 O   0  0  0  0  0  1  0  0  0  0  0  0
  184.9700  176.9190  137.6810 O   0  0  0  0  0  0  0  0  0  0  0  0
  184.1380  178.0370  137.7760 C   0  0  0  0  0  2  0  0  0  0  0  0
  182.8470  177.3020  135.8830 O   0  0  0  0  0  1  0  0  0  0  0  0
  182.7570  177.7380  137.2080 C   0  0  1  0  0  3  0  0  0  0  0  0
  180.7350  177.2980  138.4050 O   0  0  0  0  0  1  0  0  0  0  0  0
  181.9750  176.7510  138.0750 C   0  0  1  0  0  3  0  0  0  0  0  0
  181.7720  175.4110  137.3850 C   0  0  0  0  0  2  0  0  0  0  0  0
  182.7330  174.4940  137.8350 O   0  0  0  0  0  0  0  0  0  0  0  0
  182.7760  173.4380  136.9060 C   0  0  1  0  0  0  0  0  0  0  0  0
  184.0490  172.6400  136.7970 C   0  0  2  0  0  0  0  0  0  0  0  0
  183.6400  171.1950  136.5670 C   0  0  2  0  0  3  0  0  0  0  0  0
  184.3470  170.6630  135.4880 O   0  0  0  0  0  1  0  0  0  0  0  0
  185.1490  172.9830  137.7860 C   0  0  0  0  0  1  0  0  0  0  0  0
  181.5750  172.5350  136.6660 C   0  0  0  0  0  2  0  0  0  0  0  0
  183.7090  173.6790  135.7320 C   0  0  0  0  0  2  0  0  0  0  0  0
  182.1400  171.1760  136.2700 C   0  0  0  0  0  2  0  0  0  0  0  0
  190.3780  175.7540  136.4020 C   0  0  2  0  0  3  0  0  0  0  0  0
  188.7240  175.8880  134.8180 C   0  0  0  0  0  1  0  0  0  0  0  0
  189.7430  176.6040  135.4670 O   0  0  0  0  0  0  0  0  0  0  0  0
  190.0280  174.2680  136.2140 C   0  0  0  0  0  2  0  0  0  0  0  0
  191.2070  173.5370  135.5950 C   0  0  0  0  0  2  0  0  0  0  0  0
  193.6350  173.5660  136.0300 C   0  0  0  0  0  0  0  0  0  0  0  0
  193.8740  173.3620  134.6720 O   0  0  0  0  0  1  0  0  0  0  0  0
  192.3890  173.6370  136.4980 C   0  0  0  0  0  3  0  0  0  0  0  0
  194.7800  173.7160  136.9820 C   0  0  2  0  0  3  0  0  0  0  0  0
  195.9990  174.2870  136.3170 C   0  0  0  0  0  0  0  0  0  0  0  0
  197.0650  173.6890  136.3420 O   0  0  0  0  0  0  0  0  0  0  0  0
  195.8990  175.5920  135.6050 C   0  0  0  0  0  1  0  0  0  0  0  0
  195.3300  172.4790  138.9220 O   0  0  0  0  0  0  0  0  0  0  0  0
  195.0740  172.4340  137.7220 C   0  0  0  0  0  0  0  0  0  0  0  0
  193.7370  170.7060  136.8260 F   0  0  0  0  0  0  0  0  0  0  0  0
  195.6810  171.2180  135.7970 F   0  0  0  0  0  0  0  0  0  0  0  0
  195.0540  171.0920  137.0250 C   0  0  0  0  0  0  0  0  0  0  0  0
  195.7680  170.0080  137.8340 C   0  0  0  0  0  2  0  0  0  0  0  0
  197.1380  170.0100  137.5540 O   0  0  0  0  0  1  0  0  0  0  0  0
  1 10  1  0  0  0  0
  2  8  1  6  0  0  0
  2 16  1  0  0  0  0
  2 11  1  0  0  0  0
  3  1  1  0  0  0  0
  4  5  1  0  0  0  0
  5 24  1  6  0  0  0
  5  8  1  0  0  0  0
  6 19  2  0  0  0  0
  7 12  1  0  0  0  0
  7 13  1  1  0  0  0
 11 21  1  0  0  0  0
 11  3  2  0  0  0  0
 12 18  2  0  0  0  0
 14  6  1  0  0  0  0
 15 10  1  0  0  0  0
 16 12  1  0  0  0  0
 17  4  1  0  0  0  0
 18  3  1  0  0  0  0
 18  9  1  0  0  0  0
 19  7  1  0  0  0  0
 20 14  2  0  0  0  0
 21 23  1  0  0  0  0
 22 43  1  6  0  0  0
 22 17  1  0  0  0  0
 22 14  1  0  0  0  0
 23 15  1  0  0  0  0
 25 26  1  6  0  0  0
 25 27  1  0  0  0  0
 25 24  1  0  0  0  0
 27 28  1  0  0  0  0
 30 29  1  6  0  0  0
 30 28  1  0  0  0  0
 30 32  1  0  0  0  0
 32 31  1  6  0  0  0
 33 34  1  0  0  0  0
 33 32  1  0  0  0  0
 35 34  1  1  0  0  0
 36 35  1  0  0  0  0
 36 39  1  1  0  0  0
 37 38  1  6  0  0  0
 37 36  1  0  0  0  0
 40 35  1  0  0  0  0
 41 36  1  0  0  0  0
 41 35  1  0  0  0  0
 42 37  1  0  0  0  0
 42 40  1  0  0  0  0
 43 46  1  1  0  0  0
 44 45  1  0  0  0  0
 45 43  1  0  0  0  0
 47 46  1  0  0  0  0
 47 50  1  0  0  0  0
 48 50  2  0  0  0  0
 49 48  1  0  0  0  0
 51 48  1  6  0  0  0
 51 56  1  0  0  0  0
 52 53  2  0  0  0  0
 52 51  1  0  0  0  0
 54 52  1  0  0  0  0
 56 55  2  0  0  0  0
 57 59  1  0  0  0  0
 58 59  1  0  0  0  0
 59 56  1  0  0  0  0
 59 60  1  0  0  0  0
 61 60  1  0  0  0  0
M  END
>  <MODEL>
2

>  <REMARK>
 VINA RESULT:      -7.2      1.393      2.090
  Name = 
  19 active torsions:
  status: ('A' for Active; 'I' for Inactive)
    1  A    between atoms: C_1  and  C_59
    2  A    between atoms: C_5  and  O_6
    3  A    between atoms: O_6  and  C_53
    4  A    between atoms: C_13  and  O_43
    5  A    between atoms: C_22  and  C_27
    6  A    between atoms: C_22  and  C_61
    7  A    between atoms: C_28  and  O_52
    8  A    between atoms: C_28  and  C_54
    9  A    between atoms: C_30  and  C_59
   10  A    between atoms: O_31  and  C_57
   11  A    between atoms: C_40  and  C_41
   12  A    between atoms: C_40  and  C_57
   13  A    between atoms: C_41  and  C_56
   14  A    between atoms: O_43  and  C_48
   15  A    between atoms: C_44  and  C_53
   16  A    between atoms: C_44  and  C_54
   17  A    between atoms: C_48  and  O_52
   18  A    between atoms: C_51  and  C_57
   19  A    between atoms: C_59  and  C_61
                            x       y       z     vdW  Elec       q    Type
                         _______ _______ _______ _____ _____    ______ ____

>  <TORSDO>
F 19

$$$$
=
 OpenBabel10232411583D

 61 65  0  0  1  0  0  0  0  0999 V2000
  186.8530  171.2930  135.5450 C   0  0  0  0  0  2  0  0  0  0  0  0
  186.2590  175.1470  135.2980 C   0  0  1  0  0  3  0  0  0  0  0  0
  186.2180  172.6650  135.4630 C   0  0  0  0  0  0  0  0  0  0  0  0
  185.1870  177.2490  137.9830 O   0  0  0  0  0  0  0  0  0  0  0  0
  185.8900  177.1470  136.7780 C   0  0  2  0  0  3  0  0  0  0  0  0
  181.5600  176.0020  137.4390 N   0  0  0  0  0  2  0  0  0  0  0  0
  182.8340  174.2750  136.2790 C   0  0  0  0  0  0  0  0  0  0  0  0
  186.5290  175.7650  136.6690 C   0  0  0  0  0  2  0  0  0  0  0  0
  184.0840  171.6100  136.5010 C   0  0  0  0  0  1  0  0  0  0  0  0
  187.8620  171.0110  134.4450 C   0  0  0  0  0  2  0  0  0  0  0  0
  186.9230  173.8000  135.1750 C   0  0  0  0  0  0  0  0  0  0  0  0
  184.1560  173.9600  135.7170 C   0  0  0  0  0  0  0  0  0  0  0  0
  181.7740  173.3680  136.2760 O   0  0  0  0  0  1  0  0  0  0  0  0
  181.6460  177.2360  138.1620 C   0  0  0  0  0  0  0  0  0  0  0  0
  189.2500  171.4890  134.8480 C   0  0  0  0  0  2  0  0  0  0  0  0
  184.8580  175.0120  135.1200 O   0  0  0  0  0  0  0  0  0  0  0  0
  184.0120  177.9530  137.6810 C   0  0  0  0  0  2  0  0  0  0  0  0
  184.7790  172.7780  135.8630 C   0  0  0  0  0  0  0  0  0  0  0  0
  182.7300  175.4760  136.8310 C   0  0  0  0  0  3  0  0  0  0  0  0
  180.5950  177.9130  138.3230 O   0  0  0  0  0  0  0  0  0  0  0  0
  188.3380  173.8160  134.6610 C   0  0  0  0  0  2  0  0  0  0  0  0
  182.9650  177.7020  138.7670 C   0  0  1  0  0  3  0  0  0  0  0  0
  189.2590  172.8990  135.4440 C   0  0  0  0  0  2  0  0  0  0  0  0
  186.8940  178.1220  136.7320 O   0  0  0  0  0  0  0  0  0  0  0  0
  187.7690  177.7950  137.7760 C   0  0  2  0  0  3  0  0  0  0  0  0
  187.3500  178.4270  138.9510 O   0  0  0  0  0  1  0  0  0  0  0  0
  189.0540  178.2250  137.4490 O   0  0  0  0  0  0  0  0  0  0  0  0
  189.3390  177.6040  136.2300 C   0  0  0  0  0  2  0  0  0  0  0  0
  191.0110  176.1560  135.2820 O   0  0  0  0  0  1  0  0  0  0  0  0
  190.2520  176.4020  136.4310 C   0  0  1  0  0  3  0  0  0  0  0  0
  190.7330  175.6290  138.6410 O   0  0  0  0  0  1  0  0  0  0  0  0
  191.1360  176.5470  137.6700 C   0  0  1  0  0  3  0  0  0  0  0  0
  192.6090  176.3420  137.3570 C   0  0  0  0  0  2  0  0  0  0  0  0
  193.1060  175.2590  138.0970 O   0  0  0  0  0  0  0  0  0  0  0  0
  193.6270  174.3260  137.1810 C   0  0  1  0  0  0  0  0  0  0  0  0
  194.9390  173.6630  137.5130 C   0  0  2  0  0  0  0  0  0  0  0  0
  194.8330  172.2240  137.0380 C   0  0  2  0  0  3  0  0  0  0  0  0
  195.9540  171.8860  136.2780 O   0  0  0  0  0  1  0  0  0  0  0  0
  195.5350  173.9850  138.8720 C   0  0  0  0  0  1  0  0  0  0  0  0
  192.7290  173.3550  136.4320 C   0  0  0  0  0  2  0  0  0  0  0  0
  194.8940  174.7850  136.4790 C   0  0  0  0  0  2  0  0  0  0  0  0
  193.5690  172.1070  136.1850 C   0  0  0  0  0  2  0  0  0  0  0  0
  182.8210  178.9470  139.6690 C   0  0  2  0  0  3  0  0  0  0  0  0
  182.3620  180.9780  138.7070 C   0  0  0  0  0  1  0  0  0  0  0  0
  183.3930  180.1180  139.1230 O   0  0  0  0  0  0  0  0  0  0  0  0
  183.2150  178.7000  141.1360 C   0  0  0  0  0  2  0  0  0  0  0  0
  184.6980  178.9680  141.3210 C   0  0  0  0  0  2  0  0  0  0  0  0
  186.5330  178.0780  142.7080 C   0  0  0  0  0  0  0  0  0  0  0  0
  187.4330  178.9030  142.0350 O   0  0  0  0  0  1  0  0  0  0  0  0
  185.2410  178.0740  142.3830 C   0  0  0  0  0  3  0  0  0  0  0  0
  187.0090  177.1870  143.8130 C   0  0  2  0  0  3  0  0  0  0  0  0
  186.8790  177.8380  145.1600 C   0  0  0  0  0  0  0  0  0  0  0  0
  186.3300  178.9230  145.2820 O   0  0  0  0  0  0  0  0  0  0  0  0
  187.4120  177.1390  146.3630 C   0  0  0  0  0  1  0  0  0  0  0  0
  188.5420  175.5200  143.1320 O   0  0  0  0  0  0  0  0  0  0  0  0
  188.4000  176.6620  143.5590 C   0  0  0  0  0  0  0  0  0  0  0  0
  190.2200  177.8150  142.5930 F   0  0  0  0  0  0  0  0  0  0  0  0
  189.2400  178.6830  144.4330 F   0  0  0  0  0  0  0  0  0  0  0  0
  189.6280  177.5090  143.8090 C   0  0  0  0  0  0  0  0  0  0  0  0
  190.6550  176.7980  144.6910 C   0  0  0  0  0  2  0  0  0  0  0  0
  191.6900  176.2730  143.9110 O   0  0  0  0  0  1  0  0  0  0  0  0
  2  8  1  1  0  0  0
  3  1  1  0  0  0  0
  3 18  1  0  0  0  0
  5 24  1  1  0  0  0
  5  4  1  0  0  0  0
  6 14  1  0  0  0  0
  7 19  2  0  0  0  0
  8  5  1  0  0  0  0
 10 15  1  0  0  0  0
 10  1  1  0  0  0  0
 11  2  1  0  0  0  0
 11  3  2  0  0  0  0
 12 18  2  0  0  0  0
 12  7  1  0  0  0  0
 13  7  1  0  0  0  0
 14 20  2  0  0  0  0
 14 22  1  0  0  0  0
 15 23  1  0  0  0  0
 16  2  1  0  0  0  0
 16 12  1  0  0  0  0
 17  4  1  0  0  0  0
 17 22  1  0  0  0  0
 18  9  1  0  0  0  0
 19  6  1  0  0  0  0
 21 11  1  0  0  0  0
 21 23  1  0  0  0  0
 22 43  1  6  0  0  0
 24 25  1  0  0  0  0
 25 26  1  1  0  0  0
 27 25  1  0  0  0  0
 28 30  1  0  0  0  0
 28 27  1  0  0  0  0
 30 29  1  6  0  0  0
 30 32  1  0  0  0  0
 32 31  1  1  0  0  0
 33 32  1  0  0  0  0
 33 34  1  0  0  0  0
 35 36  1  0  0  0  0
 35 34  1  1  0  0  0
 36 39  1  1  0  0  0
 37 38  1  6  0  0  0
 37 36  1  0  0  0  0
 40 35  1  0  0  0  0
 41 35  1  0  0  0  0
 41 36  1  0  0  0  0
 42 40  1  0  0  0  0
 42 37  1  0  0  0  0
 43 46  1  1  0  0  0
 44 45  1  0  0  0  0
 45 43  1  0  0  0  0
 46 47  1  0  0  0  0
 47 50  1  0  0  0  0
 49 48  1  0  0  0  0
 50 48  2  0  0  0  0
 51 48  1  6  0  0  0
 51 52  1  0  0  0  0
 52 53  2  0  0  0  0
 52 54  1  0  0  0  0
 55 56  2  0  0  0  0
 56 59  1  0  0  0  0
 56 51  1  0  0  0  0
 57 59  1  0  0  0  0
 59 58  1  0  0  0  0
 59 60  1  0  0  0  0
 61 60  1  0  0  0  0
M  END
>  <MODEL>
3

>  <REMARK>
 VINA RESULT:      -7.1      2.993      9.968
  Name = 
  19 active torsions:
  status: ('A' for Active; 'I' for Inactive)
    1  A    between atoms: C_1  and  C_59
    2  A    between atoms: C_5  and  O_6
    3  A    between atoms: O_6  and  C_53
    4  A    between atoms: C_13  and  O_43
    5  A    between atoms: C_22  and  C_27
    6  A    between atoms: C_22  and  C_61
    7  A    between atoms: C_28  and  O_52
    8  A    between atoms: C_28  and  C_54
    9  A    between atoms: C_30  and  C_59
   10  A    between atoms: O_31  and  C_57
   11  A    between atoms: C_40  and  C_41
   12  A    between atoms: C_40  and  C_57
   13  A    between atoms: C_41  and  C_56
   14  A    between atoms: O_43  and  C_48
   15  A    between atoms: C_44  and  C_53
   16  A    between atoms: C_44  and  C_54
   17  A    between atoms: C_48  and  O_52
   18  A    between atoms: C_51  and  C_57
   19  A    between atoms: C_59  and  C_61
                            x       y       z     vdW  Elec       q    Type
                         _______ _______ _______ _____ _____    ______ ____

>  <TORSDO>
F 19

$$$$
=
 OpenBabel10232411583D

 61 65  0  0  1  0  0  0  0  0999 V2000
  189.2410  178.1380  146.5660 C   0  0  0  0  0  2  0  0  0  0  0  0
  187.9830  176.8230  143.1080 C   0  0  1  0  0  3  0  0  0  0  0  0
  188.3760  177.6800  145.4110 C   0  0  0  0  0  0  0  0  0  0  0  0
  186.4380  178.8190  140.5760 O   0  0  0  0  0  0  0  0  0  0  0  0
  187.2010  177.6850  140.8790 C   0  0  2  0  0  3  0  0  0  0  0  0
  183.1180  178.6780  142.5670 N   0  0  0  0  0  0  0  0  0  0  0  0
  184.7280  178.0390  144.2850 C   0  0  1  0  0  3  0  0  0  0  0  0
  188.0790  177.9630  142.0950 C   0  0  0  0  0  2  0  0  0  0  0  0
  186.4210  178.9900  146.5070 C   0  0  0  0  0  1  0  0  0  0  0  0
  190.3320  177.1530  146.9520 C   0  0  0  0  0  2  0  0  0  0  0  0
  188.8810  177.0790  144.2920 C   0  0  0  0  0  0  0  0  0  0  0  0
  186.1080  177.5770  144.4960 C   0  0  0  0  0  0  0  0  0  0  0  0
  183.8470  178.2990  145.3350 O   0  0  0  0  0  1  0  0  0  0  0  0
  182.9510  179.0230  141.1860 C   0  0  0  0  0  0  0  0  0  0  0  0
  191.5930  177.3950  146.1360 C   0  0  0  0  0  2  0  0  0  0  0  0
  186.6370  176.7030  143.5420 O   0  0  0  0  0  0  0  0  0  0  0  0
  185.1710  178.3410  140.2110 C   0  0  0  0  0  2  0  0  0  0  0  0
  186.9250  178.0440  145.4570 C   0  0  0  0  0  0  0  0  0  0  0  0
  184.3880  178.2320  143.0180 C   0  0  0  0  0  3  0  0  0  0  0  0
  181.7910  178.9960  140.6960 O   0  0  0  0  0  0  0  0  0  0  0  0
  190.2910  176.5690  144.1610 C   0  0  0  0  0  2  0  0  0  0  0  0
  184.1390  179.4620  140.3380 C   0  0  1  0  0  3  0  0  0  0  0  0
  191.3260  177.5700  144.6390 C   0  0  0  0  0  2  0  0  0  0  0  0
  188.0160  177.3590  139.7880 O   0  0  0  0  0  0  0  0  0  0  0  0
  189.0470  178.3060  139.8070 C   0  0  2  0  0  3  0  0  0  0  0  0
  188.8980  179.1810  138.7260 O   0  0  0  0  0  1  0  0  0  0  0  0
  190.2740  177.6500  139.7090 O   0  0  0  0  0  0  0  0  0  0  0  0
  190.1520  176.8310  138.5840 C   0  0  0  0  0  2  0  0  0  0  0  0
  190.8890  174.6610  137.8490 O   0  0  0  0  0  1  0  0  0  0  0  0
  191.2900  175.8200  138.5210 C   0  0  1  0  0  3  0  0  0  0  0  0
  193.3400  176.9810  138.9200 O   0  0  0  0  0  1  0  0  0  0  0  0
  192.5590  176.4140  137.9120 C   0  0  1  0  0  3  0  0  0  0  0  0
  193.3780  175.3790  137.1560 C   0  0  0  0  0  2  0  0  0  0  0  0
  193.8170  174.3830  138.0400 O   0  0  0  0  0  0  0  0  0  0  0  0
  194.7330  173.5740  137.3430 C   0  0  1  0  0  0  0  0  0  0  0  0
  196.1550  173.5240  137.8370 C   0  0  2  0  0  0  0  0  0  0  0  0
  196.6320  172.0940  137.6540 C   0  0  2  0  0  3  0  0  0  0  0  0
  197.8700  172.0810  137.0090 O   0  0  0  0  0  1  0  0  0  0  0  0
  196.4510  174.2780  139.1240 C   0  0  0  0  0  1  0  0  0  0  0  0
  194.3340  172.2210  136.7750 C   0  0  0  0  0  2  0  0  0  0  0  0
  195.8080  174.3490  136.6010 C   0  0  0  0  0  2  0  0  0  0  0  0
  195.5930  171.3620  136.8040 C   0  0  0  0  0  2  0  0  0  0  0  0
  183.7370  179.9800  138.9400 C   0  0  2  0  0  3  0  0  0  0  0  0
  182.4560  181.8390  138.5320 C   0  0  0  0  0  1  0  0  0  0  0  0
  182.4150  180.4770  138.8730 O   0  0  0  0  0  0  0  0  0  0  0  0
  184.0860  179.0130  137.7950 C   0  0  0  0  0  2  0  0  0  0  0  0
  182.8800  178.1480  137.4690 C   0  0  0  0  0  2  0  0  0  0  0  0
  183.5130  175.7650  137.3890 C   0  0  0  0  0  0  0  0  0  0  0  0
  183.3310  175.6780  138.7680 O   0  0  0  0  0  1  0  0  0  0  0  0
  183.3240  176.9200  136.7500 C   0  0  0  0  0  3  0  0  0  0  0  0
  183.9170  174.5570  136.6050 C   0  0  2  0  0  3  0  0  0  0  0  0
  182.7560  173.6450  136.3290 C   0  0  0  0  0  0  0  0  0  0  0  0
  182.7960  172.8400  135.4100 O   0  0  0  0  0  0  0  0  0  0  0  0
  181.5490  173.7160  137.1980 C   0  0  0  0  0  1  0  0  0  0  0  0
  184.8620  172.8950  137.9980 O   0  0  0  0  0  0  0  0  0  0  0  0
  185.0800  173.8320  137.2360 C   0  0  0  0  0  0  0  0  0  0  0  0
  186.7910  175.4200  137.5980 F   0  0  0  0  0  0  0  0  0  0  0  0
  187.3520  173.2380  137.4360 F   0  0  0  0  0  0  0  0  0  0  0  0
  186.5120  174.2260  136.9490 C   0  0  0  0  0  0  0  0  0  0  0  0
  186.7760  174.4050  135.4540 C   0  0  0  0  0  2  0  0  0  0  0  0
  186.9370  175.7600  135.1440 O   0  0  0  0  0  1  0  0  0  0  0  0
  1 10  1  0  0  0  0
  2  8  1  6  0  0  0
  2 16  1  0  0  0  0
  2 11  1  0  0  0  0
  3 18  1  0  0  0  0
  3  1  1  0  0  0  0
  4  5  1  0  0  0  0
  5 24  1  6  0  0  0
  5  8  1  0  0  0  0
  6 19  2  0  0  0  0
  7 12  1  0  0  0  0
  7 13  1  1  0  0  0
 11  3  2  0  0  0  0
 12 18  2  0  0  0  0
 14  6  1  0  0  0  0
 15 10  1  0  0  0  0
 16 12  1  0  0  0  0
 17 22  1  0  0  0  0
 17  4  1  0  0  0  0
 18  9  1  0  0  0  0
 19  7  1  0  0  0  0
 20 14  2  0  0  0  0
 21 11  1  0  0  0  0
 21 23  1  0  0  0  0
 22 43  1  6  0  0  0
 22 14  1  0  0  0  0
 23 15  1  0  0  0  0
 24 25  1  0  0  0  0
 25 26  1  6  0  0  0
 27 25  1  0  0  0  0
 28 27  1  0  0  0  0
 30 29  1  6  0  0  0
 30 28  1  0  0  0  0
 32 30  1  0  0  0  0
 32 31  1  1  0  0  0
 33 32  1  0  0  0  0
 33 34  1  0  0  0  0
 35 36  1  0  0  0  0
 35 34  1  1  0  0  0
 36 39  1  1  0  0  0
 37 38  1  6  0  0  0
 37 36  1  0  0  0  0
 40 42  1  0  0  0  0
 40 35  1  0  0  0  0
 41 35  1  0  0  0  0
 41 36  1  0  0  0  0
 42 37  1  0  0  0  0
 43 46  1  6  0  0  0
 44 45  1  0  0  0  0
 45 43  1  0  0  0  0
 47 46  1  0  0  0  0
 48 49  1  0  0  0  0
 50 48  2  0  0  0  0
 50 47  1  0  0  0  0
 51 52  1  1  0  0  0
 51 56  1  0  0  0  0
 51 48  1  0  0  0  0
 52 54  1  0  0  0  0
 53 52  2  0  0  0  0
 56 55  2  0  0  0  0
 59 56  1  0  0  0  0
 59 58  1  0  0  0  0
 59 57  1  0  0  0  0
 60 59  1  0  0  0  0
 61 60  1  0  0  0  0
M  END
>  <MODEL>
4

>  <REMARK>
 VINA RESULT:      -7.0      2.919      9.369
  Name = 
  19 active torsions:
  status: ('A' for Active; 'I' for Inactive)
    1  A    between atoms: C_1  and  C_59
    2  A    between atoms: C_5  and  O_6
    3  A    between atoms: O_6  and  C_53
    4  A    between atoms: C_13  and  O_43
    5  A    between atoms: C_22  and  C_27
    6  A    between atoms: C_22  and  C_61
    7  A    between atoms: C_28  and  O_52
    8  A    between atoms: C_28  and  C_54
    9  A    between atoms: C_30  and  C_59
   10  A    between atoms: O_31  and  C_57
   11  A    between atoms: C_40  and  C_41
   12  A    between atoms: C_40  and  C_57
   13  A    between atoms: C_41  and  C_56
   14  A    between atoms: O_43  and  C_48
   15  A    between atoms: C_44  and  C_53
   16  A    between atoms: C_44  and  C_54
   17  A    between atoms: C_48  and  O_52
   18  A    between atoms: C_51  and  C_57
   19  A    between atoms: C_59  and  C_61
                            x       y       z     vdW  Elec       q    Type
                         _______ _______ _______ _____ _____    ______ ____

>  <TORSDO>
F 19

$$$$
=
 OpenBabel10232411583D

 61 65  0  0  1  0  0  0  0  0999 V2000
  189.2150  178.1490  146.4120 C   0  0  0  0  0  2  0  0  0  0  0  0
  187.9390  176.8730  142.9470 C   0  0  1  0  0  3  0  0  0  0  0  0
  188.3440  177.6990  145.2580 C   0  0  0  0  0  0  0  0  0  0  0  0
  186.3470  178.8890  140.4600 O   0  0  0  0  0  0  0  0  0  0  0  0
  187.1250  177.7590  140.7380 C   0  0  2  0  0  3  0  0  0  0  0  0
  183.0480  178.6800  142.4800 N   0  0  0  0  0  2  0  0  0  0  0  0
  184.6810  178.0330  144.1720 C   0  0  0  0  0  0  0  0  0  0  0  0
  188.0120  178.0290  141.9500 C   0  0  0  0  0  2  0  0  0  0  0  0
  186.3850  178.9700  146.3930 C   0  0  0  0  0  1  0  0  0  0  0  0
  190.3200  177.1710  146.7730 C   0  0  0  0  0  2  0  0  0  0  0  0
  188.8450  177.1210  144.1250 C   0  0  0  0  0  0  0  0  0  0  0  0
  186.0690  177.5840  144.3630 C   0  0  0  0  0  0  0  0  0  0  0  0
  183.8080  178.2670  145.2350 O   0  0  0  0  0  1  0  0  0  0  0  0
  182.8640  179.0440  141.1060 C   0  0  0  0  0  0  0  0  0  0  0  0
  191.5710  177.4390  145.9480 C   0  0  0  0  0  2  0  0  0  0  0  0
  186.5980  176.7300  143.3910 O   0  0  0  0  0  0  0  0  0  0  0  0
  185.0820  178.4020  140.1000 C   0  0  0  0  0  2  0  0  0  0  0  0
  186.8890  178.0450  145.3230 C   0  0  0  0  0  0  0  0  0  0  0  0
  184.3270  178.2410  142.9120 C   0  0  0  0  0  3  0  0  0  0  0  0
  181.6990  179.0120  140.6260 O   0  0  0  0  0  0  0  0  0  0  0  0
  190.2590  176.6290  143.9730 C   0  0  0  0  0  2  0  0  0  0  0  0
  184.0390  179.5100  140.2540 C   0  0  1  0  0  3  0  0  0  0  0  0
  191.2870  177.6350  144.4570 C   0  0  0  0  0  2  0  0  0  0  0  0
  187.9330  177.4590  139.6350 O   0  0  0  0  0  0  0  0  0  0  0  0
  188.9710  178.3990  139.6760 C   0  0  2  0  0  3  0  0  0  0  0  0
  188.8950  179.2260  138.5500 O   0  0  0  0  0  1  0  0  0  0  0  0
  190.1950  177.7320  139.6820 O   0  0  0  0  0  0  0  0  0  0  0  0
  190.0530  176.7170  138.7330 C   0  0  0  0  0  2  0  0  0  0  0  0
  191.0580  174.6670  137.9710 O   0  0  0  0  0  1  0  0  0  0  0  0
  191.3060  175.8540  138.6660 C   0  0  1  0  0  3  0  0  0  0  0  0
  193.4170  176.8910  139.0960 O   0  0  0  0  0  1  0  0  0  0  0  0
  192.5000  176.6100  138.0820 C   0  0  1  0  0  3  0  0  0  0  0  0
  193.1900  175.8330  136.9730 C   0  0  0  0  0  2  0  0  0  0  0  0
  194.5820  175.9370  137.1160 O   0  0  0  0  0  0  0  0  0  0  0  0
  195.1560  174.8190  136.4830 C   0  0  1  0  0  0  0  0  0  0  0  0
  195.7710  173.7510  137.3490 C   0  0  2  0  0  0  0  0  0  0  0  0
  195.4530  172.4190  136.6940 C   0  0  2  0  0  3  0  0  0  0  0  0
  196.6110  171.6490  136.5860 O   0  0  0  0  0  1  0  0  0  0  0  0
  195.6210  173.9280  138.8510 C   0  0  0  0  0  1  0  0  0  0  0  0
  194.5260  174.1880  135.2500 C   0  0  0  0  0  2  0  0  0  0  0  0
  196.6680  174.7400  136.6090 C   0  0  0  0  0  2  0  0  0  0  0  0
  194.8860  172.7080  135.3030 C   0  0  0  0  0  2  0  0  0  0  0  0
  183.6170  180.0440  138.8670 C   0  0  2  0  0  3  0  0  0  0  0  0
  181.9850  181.6050  138.4620 C   0  0  0  0  0  1  0  0  0  0  0  0
  183.3230  181.4270  138.8520 O   0  0  0  0  0  0  0  0  0  0  0  0
  182.5490  179.1840  138.1680 C   0  0  0  0  0  2  0  0  0  0  0  0
  183.1790  178.4230  137.0140 C   0  0  0  0  0  2  0  0  0  0  0  0
  182.6980  176.1890  136.0850 C   0  0  0  0  0  0  0  0  0  0  0  0
  182.7490  176.7210  134.7980 O   0  0  0  0  0  1  0  0  0  0  0  0
  182.8810  176.9690  137.1510 C   0  0  0  0  0  3  0  0  0  0  0  0
  182.4440  174.7280  136.2870 C   0  0  2  0  0  3  0  0  0  0  0  0
  181.1300  174.4710  136.9670 C   0  0  0  0  0  0  0  0  0  0  0  0
  180.9350  173.4310  137.5800 O   0  0  0  0  0  0  0  0  0  0  0  0
  180.0600  175.5050  136.9060 C   0  0  0  0  0  1  0  0  0  0  0  0
  183.8970  174.3770  138.1200 O   0  0  0  0  0  0  0  0  0  0  0  0
  183.5950  174.0410  136.9790 C   0  0  0  0  0  0  0  0  0  0  0  0
  185.5580  173.4750  135.7940 F   0  0  0  0  0  0  0  0  0  0  0  0
  184.6980  171.9750  137.2480 F   0  0  0  0  0  0  0  0  0  0  0  0
  184.3840  172.9410  136.3060 C   0  0  0  0  0  0  0  0  0  0  0  0
  183.6060  172.2830  135.1660 C   0  0  0  0  0  2  0  0  0  0  0  0
  182.7470  171.2980  135.6640 O   0  0  0  0  0  1  0  0  0  0  0  0
  1 10  1  0  0  0  0
  2  8  1  6  0  0  0
  2 16  1  0  0  0  0
  2 11  1  0  0  0  0
  3 18  1  0  0  0  0
  3  1  1  0  0  0  0
  4  5  1  0  0  0  0
  5 24  1  6  0  0  0
  5  8  1  0  0  0  0
  6 19  1  0  0  0  0
  7 12  1  0  0  0  0
  7 13  1  0  0  0  0
 11  3  2  0  0  0  0
 12 18  2  0  0  0  0
 14  6  1  0  0  0  0
 15 10  1  0  0  0  0
 16 12  1  0  0  0  0
 17 22  1  0  0  0  0
 17  4  1  0  0  0  0
 18  9  1  0  0  0  0
 19  7  2  0  0  0  0
 20 14  2  0  0  0  0
 21 11  1  0  0  0  0
 21 23  1  0  0  0  0
 22 43  1  6  0  0  0
 22 14  1  0  0  0  0
 23 15  1  0  0  0  0
 24 25  1  0  0  0  0
 25 26  1  6  0  0  0
 25 27  1  0  0  0  0
 28 27  1  0  0  0  0
 30 29  1  6  0  0  0
 30 28  1  0  0  0  0
 32 30  1  0  0  0  0
 32 31  1  1  0  0  0
 33 34  1  0  0  0  0
 33 32  1  0  0  0  0
 35 41  1  0  0  0  0
 35 34  1  1  0  0  0
 35 36  1  0  0  0  0
 36 39  1  1  0  0  0
 37 38  1  6  0  0  0
 37 36  1  0  0  0  0
 40 42  1  0  0  0  0
 40 35  1  0  0  0  0
 41 36  1  0  0  0  0
 42 37  1  0  0  0  0
 43 46  1  1  0  0  0
 44 45  1  0  0  0  0
 45 43  1  0  0  0  0
 47 50  1  0  0  0  0
 47 46  1  0  0  0  0
 48 50  2  0  0  0  0
 49 48  1  0  0  0  0
 51 48  1  1  0  0  0
 51 52  1  0  0  0  0
 51 56  1  0  0  0  0
 52 53  2  0  0  0  0
 54 52  1  0  0  0  0
 56 55  2  0  0  0  0
 57 59  1  0  0  0  0
 59 56  1  0  0  0  0
 59 58  1  0  0  0  0
 60 61  1  0  0  0  0
 60 59  1  0  0  0  0
M  END
>  <MODEL>
5

>  <REMARK>
 VINA RESULT:      -6.7      3.180      9.890
  Name = 
  19 active torsions:
  status: ('A' for Active; 'I' for Inactive)
    1  A    between atoms: C_1  and  C_59
    2  A    between atoms: C_5  and  O_6
    3  A    between atoms: O_6  and  C_53
    4  A    between atoms: C_13  and  O_43
    5  A    between atoms: C_22  and  C_27
    6  A    between atoms: C_22  and  C_61
    7  A    between atoms: C_28  and  O_52
    8  A    between atoms: C_28  and  C_54
    9  A    between atoms: C_30  and  C_59
   10  A    between atoms: O_31  and  C_57
   11  A    between atoms: C_40  and  C_41
   12  A    between atoms: C_40  and  C_57
   13  A    between atoms: C_41  and  C_56
   14  A    between atoms: O_43  and  C_48
   15  A    between atoms: C_44  and  C_53
   16  A    between atoms: C_44  and  C_54
   17  A    between atoms: C_48  and  O_52
   18  A    between atoms: C_51  and  C_57
   19  A    between atoms: C_59  and  C_61
                            x       y       z     vdW  Elec       q    Type
                         _______ _______ _______ _____ _____    ______ ____

>  <TORSDO>
F 19

$$$$
=
 OpenBabel10232411583D

 61 65  0  0  1  0  0  0  0  0999 V2000
  188.6510  178.4530  146.7710 C   0  0  0  0  0  2  0  0  0  0  0  0
  187.5860  177.0290  143.2910 C   0  0  1  0  0  3  0  0  0  0  0  0
  187.8520  177.9510  145.5870 C   0  0  0  0  0  0  0  0  0  0  0  0
  186.1390  178.9340  140.6340 O   0  0  0  0  0  0  0  0  0  0  0  0
  186.9020  177.8210  141.0040 C   0  0  2  0  0  3  0  0  0  0  0  0
  182.7270  178.7910  142.4630 N   0  0  0  0  0  2  0  0  0  0  0  0
  184.2590  178.2220  144.2740 C   0  0  0  0  0  0  0  0  0  0  0  0
  187.7150  178.1440  142.2540 C   0  0  0  0  0  2  0  0  0  0  0  0
  185.8250  179.2580  146.5510 C   0  0  0  0  0  1  0  0  0  0  0  0
  189.7360  177.4960  147.2360 C   0  0  0  0  0  2  0  0  0  0  0  0
  188.4200  177.3290  144.5100 C   0  0  0  0  0  0  0  0  0  0  0  0
  185.6340  177.7880  144.5650 C   0  0  0  0  0  0  0  0  0  0  0  0
  183.3230  178.4950  145.2720 O   0  0  0  0  0  1  0  0  0  0  0  0
  182.6240  179.0980  141.0670 C   0  0  0  0  0  0  0  0  0  0  0  0
  191.0320  177.7360  146.4770 C   0  0  0  0  0  2  0  0  0  0  0  0
  186.2220  176.8980  143.6610 O   0  0  0  0  0  0  0  0  0  0  0  0
  184.8990  178.4270  140.2200 C   0  0  0  0  0  2  0  0  0  0  0  0
  186.3940  178.2930  145.5520 C   0  0  0  0  0  0  0  0  0  0  0  0
  183.9800  178.3770  142.9870 C   0  0  0  0  0  3  0  0  0  0  0  0
  181.4900  179.0400  140.5210 O   0  0  0  0  0  0  0  0  0  0  0  0
  189.8420  176.8390  144.4620 C   0  0  0  0  0  2  0  0  0  0  0  0
  183.8460  179.5350  140.2670 C   0  0  1  0  0  3  0  0  0  0  0  0
  190.8370  177.8690  144.9650 C   0  0  0  0  0  2  0  0  0  0  0  0
  187.7750  177.4790  139.9640 O   0  0  0  0  0  0  0  0  0  0  0  0
  188.8400  178.3830  140.0700 C   0  0  2  0  0  3  0  0  0  0  0  0
  188.8100  179.2690  138.9880 O   0  0  0  0  0  1  0  0  0  0  0  0
  190.0430  177.6770  140.0610 O   0  0  0  0  0  0  0  0  0  0  0  0
  190.0300  176.9660  138.8580 C   0  0  0  0  0  2  0  0  0  0  0  0
  192.3640  176.9080  139.4420 O   0  0  0  0  0  1  0  0  0  0  0  0
  191.4400  176.5560  138.4530 C   0  0  1  0  0  3  0  0  0  0  0  0
  190.3490  174.6660  137.4790 O   0  0  0  0  0  1  0  0  0  0  0  0
  191.5320  175.0720  138.0980 C   0  0  1  0  0  3  0  0  0  0  0  0
  192.7120  174.7670  137.1890 C   0  0  0  0  0  2  0  0  0  0  0  0
  193.4980  173.7530  137.7550 O   0  0  0  0  0  0  0  0  0  0  0  0
  194.8450  174.0730  137.5060 C   0  0  1  0  0  0  0  0  0  0  0  0
  195.8720  172.9800  137.6410 C   0  0  2  0  0  0  0  0  0  0  0  0
  196.8940  173.2000  136.5390 C   0  0  2  0  0  3  0  0  0  0  0  0
  198.1850  173.1590  137.0670 O   0  0  0  0  0  1  0  0  0  0  0  0
  195.3410  171.5860  137.9340 C   0  0  0  0  0  1  0  0  0  0  0  0
  195.2470  175.0270  136.3910 C   0  0  0  0  0  2  0  0  0  0  0  0
  195.7330  174.0310  138.7380 C   0  0  0  0  0  2  0  0  0  0  0  0
  196.6250  174.5740  135.9230 C   0  0  0  0  0  2  0  0  0  0  0  0
  183.5060  180.0090  138.8370 C   0  0  2  0  0  3  0  0  0  0  0  0
  181.7960  181.4770  138.4070 C   0  0  0  0  0  1  0  0  0  0  0  0
  183.1520  181.3760  138.7570 O   0  0  0  0  0  0  0  0  0  0  0  0
  182.5330  179.0810  138.0890 C   0  0  0  0  0  2  0  0  0  0  0  0
  183.1810  178.5840  136.8090 C   0  0  0  0  0  2  0  0  0  0  0  0
  184.6230  176.6980  136.1370 C   0  0  0  0  0  0  0  0  0  0  0  0
  184.4470  177.0490  134.7990 O   0  0  0  0  0  1  0  0  0  0  0  0
  184.0260  177.3910  137.1060 C   0  0  0  0  0  3  0  0  0  0  0  0
  185.4930  175.5360  136.5020 C   0  0  2  0  0  3  0  0  0  0  0  0
  186.8660  175.6460  135.9040 C   0  0  0  0  0  0  0  0  0  0  0  0
  187.2810  174.7980  135.1270 O   0  0  0  0  0  0  0  0  0  0  0  0
  187.7230  176.8130  136.2530 C   0  0  0  0  0  1  0  0  0  0  0  0
  184.2090  174.0850  135.1450 O   0  0  0  0  0  0  0  0  0  0  0  0
  184.8340  174.2140  136.1940 C   0  0  0  0  0  0  0  0  0  0  0  0
  186.2160  172.9830  137.6610 F   0  0  0  0  0  0  0  0  0  0  0  0
  184.0290  173.2210  138.1740 F   0  0  0  0  0  0  0  0  0  0  0  0
  184.9320  173.0380  137.1390 C   0  0  0  0  0  0  0  0  0  0  0  0
  184.6250  171.7100  136.4470 C   0  0  0  0  0  2  0  0  0  0  0  0
  183.3650  171.2370  136.8300 O   0  0  0  0  0  1  0  0  0  0  0  0
  1 10  1  0  0  0  0
  2  8  1  6  0  0  0
  2 16  1  0  0  0  0
  2 11  1  0  0  0  0
  3  1  1  0  0  0  0
  4  5  1  0  0  0  0
  5 24  1  6  0  0  0
  5  8  1  0  0  0  0
  6 19  1  0  0  0  0
  7 12  1  0  0  0  0
  7 13  1  0  0  0  0
 11  3  2  0  0  0  0
 12 18  2  0  0  0  0
 14  6  1  0  0  0  0
 15 10  1  0  0  0  0
 16 12  1  0  0  0  0
 17 22  1  0  0  0  0
 17  4  1  0  0  0  0
 18  3  1  0  0  0  0
 18  9  1  0  0  0  0
 19  7  2  0  0  0  0
 20 14  2  0  0  0  0
 21 11  1  0  0  0  0
 21 23  1  0  0  0  0
 22 43  1  6  0  0  0
 22 14  1  0  0  0  0
 23 15  1  0  0  0  0
 24 25  1  0  0  0  0
 25 26  1  6  0  0  0
 27 25  1  0  0  0  0
 28 27  1  0  0  0  0
 30 28  1  0  0  0  0
 30 29  1  1  0  0  0
 32 31  1  6  0  0  0
 32 30  1  0  0  0  0
 33 34  1  0  0  0  0
 33 32  1  0  0  0  0
 35 36  1  0  0  0  0
 35 34  1  1  0  0  0
 35 41  1  0  0  0  0
 36 39  1  1  0  0  0
 36 41  1  0  0  0  0
 37 38  1  1  0  0  0
 37 36  1  0  0  0  0
 40 35  1  0  0  0  0
 42 40  1  0  0  0  0
 42 37  1  0  0  0  0
 43 46  1  1  0  0  0
 44 45  1  0  0  0  0
 45 43  1  0  0  0  0
 47 50  1  0  0  0  0
 47 46  1  0  0  0  0
 48 51  1  0  0  0  0
 48 50  2  0  0  0  0
 49 48  1  0  0  0  0
 51 52  1  6  0  0  0
 52 54  1  0  0  0  0
 53 52  2  0  0  0  0
 55 56  2  0  0  0  0
 56 51  1  0  0  0  0
 56 59  1  0  0  0  0
 59 57  1  0  0  0  0
 59 58  1  0  0  0  0
 60 61  1  0  0  0  0
 60 59  1  0  0  0  0
M  END
>  <MODEL>
6

>  <REMARK>
 VINA RESULT:      -6.4      3.266      9.412
  Name = 
  19 active torsions:
  status: ('A' for Active; 'I' for Inactive)
    1  A    between atoms: C_1  and  C_59
    2  A    between atoms: C_5  and  O_6
    3  A    between atoms: O_6  and  C_53
    4  A    between atoms: C_13  and  O_43
    5  A    between atoms: C_22  and  C_27
    6  A    between atoms: C_22  and  C_61
    7  A    between atoms: C_28  and  O_52
    8  A    between atoms: C_28  and  C_54
    9  A    between atoms: C_30  and  C_59
   10  A    between atoms: O_31  and  C_57
   11  A    between atoms: C_40  and  C_41
   12  A    between atoms: C_40  and  C_57
   13  A    between atoms: C_41  and  C_56
   14  A    between atoms: O_43  and  C_48
   15  A    between atoms: C_44  and  C_53
   16  A    between atoms: C_44  and  C_54
   17  A    between atoms: C_48  and  O_52
   18  A    between atoms: C_51  and  C_57
   19  A    between atoms: C_59  and  C_61
                            x       y       z     vdW  Elec       q    Type
                         _______ _______ _______ _____ _____    ______ ____

>  <TORSDO>
F 19

$$$$
=
 OpenBabel10232411583D

 61 65  0  0  1  0  0  0  0  0999 V2000
  186.5910  177.4380  144.7100 C   0  0  0  0  0  2  0  0  0  0  0  0
  187.6030  178.9800  141.2650 C   0  0  1  0  0  3  0  0  0  0  0  0
  187.3730  177.9690  143.5270 C   0  0  0  0  0  0  0  0  0  0  0  0
  188.9260  177.1530  138.4920 O   0  0  0  0  0  0  0  0  0  0  0  0
  188.2040  178.2690  138.9290 C   0  0  2  0  0  3  0  0  0  0  0  0
  192.3890  177.1280  140.2300 N   0  0  0  0  0  2  0  0  0  0  0  0
  190.9210  177.6590  142.1050 C   0  0  0  0  0  0  0  0  0  0  0  0
  187.4160  177.9140  140.1860 C   0  0  0  0  0  2  0  0  0  0  0  0
  189.3870  176.5700  144.3790 C   0  0  0  0  0  1  0  0  0  0  0  0
  185.5460  178.4030  145.2450 C   0  0  0  0  0  2  0  0  0  0  0  0
  186.7930  178.6500  142.4930 C   0  0  0  0  0  0  0  0  0  0  0  0
  189.5670  178.1160  142.4510 C   0  0  0  0  0  0  0  0  0  0  0  0
  191.8750  177.3190  143.0650 O   0  0  0  0  0  1  0  0  0  0  0  0
  192.4460  176.8780  138.8200 C   0  0  0  0  0  0  0  0  0  0  0  0
  184.2240  178.2290  144.5120 C   0  0  0  0  0  2  0  0  0  0  0  0
  188.9790  179.0590  141.6020 O   0  0  0  0  0  0  0  0  0  0  0  0
  190.1680  177.6450  138.0650 C   0  0  0  0  0  2  0  0  0  0  0  0
  188.8190  177.5910  143.4370 C   0  0  0  0  0  0  0  0  0  0  0  0
  191.1620  177.5520  140.8060 C   0  0  0  0  0  3  0  0  0  0  0  0
  193.5670  176.9290  138.2460 O   0  0  0  0  0  0  0  0  0  0  0  0
  185.3850  179.1790  142.5050 C   0  0  0  0  0  2  0  0  0  0  0  0
  191.1920  176.5080  138.0370 C   0  0  1  0  0  3  0  0  0  0  0  0
  184.3750  178.1560  142.9910 C   0  0  0  0  0  2  0  0  0  0  0  0
  187.3140  178.6770  137.9280 O   0  0  0  0  0  0  0  0  0  0  0  0
  186.0950  178.0680  138.2530 C   0  0  2  0  0  3  0  0  0  0  0  0
  185.8740  176.9820  137.4000 O   0  0  0  0  0  1  0  0  0  0  0  0
  185.0650  178.9950  138.1040 O   0  0  0  0  0  0  0  0  0  0  0  0
  184.2470  178.8030  139.2200 C   0  0  0  0  0  2  0  0  0  0  0  0
  183.2940  176.8570  140.2670 O   0  0  0  0  0  1  0  0  0  0  0  0
  183.3900  177.5540  139.0590 C   0  0  1  0  0  3  0  0  0  0  0  0
  182.0060  179.1660  137.9630 O   0  0  0  0  0  1  0  0  0  0  0  0
  182.0110  177.8690  138.4780 C   0  0  1  0  0  3  0  0  0  0  0  0
  181.6050  176.8880  137.3900 C   0  0  0  0  0  2  0  0  0  0  0  0
  182.7460  176.2820  136.8450 O   0  0  0  0  0  0  0  0  0  0  0  0
  182.5770  174.8890  136.9550 C   0  0  1  0  0  0  0  0  0  0  0  0
  181.7790  174.1850  135.8890 C   0  0  2  0  0  0  0  0  0  0  0  0
  182.4570  172.8480  135.6470 C   0  0  2  0  0  3  0  0  0  0  0  0
  181.5140  171.8200  135.6790 O   0  0  0  0  0  1  0  0  0  0  0  0
  181.3120  175.0370  134.7200 C   0  0  0  0  0  1  0  0  0  0  0  0
  183.6970  173.9850  137.4470 C   0  0  0  0  0  2  0  0  0  0  0  0
  181.1520  174.4570  137.2530 C   0  0  0  0  0  2  0  0  0  0  0  0
  183.4920  172.6430  136.7540 C   0  0  0  0  0  2  0  0  0  0  0  0
  191.4810  176.0860  136.5800 C   0  0  2  0  0  3  0  0  0  0  0  0
  189.7510  174.8950  135.6570 C   0  0  0  0  0  1  0  0  0  0  0  0
  190.3550  176.1610  135.7280 O   0  0  0  0  0  0  0  0  0  0  0  0
  192.2530  174.7600  136.4580 C   0  0  0  0  0  2  0  0  0  0  0  0
  193.3280  174.8880  135.3930 C   0  0  0  0  0  2  0  0  0  0  0  0
  195.2490  173.4810  136.0370 C   0  0  0  0  0  0  0  0  0  0  0  0
  194.5960  172.3640  135.5170 O   0  0  0  0  0  1  0  0  0  0  0  0
  194.6700  174.6810  136.0080 C   0  0  0  0  0  3  0  0  0  0  0  0
  196.6160  173.3450  136.6300 C   0  0  2  0  0  3  0  0  0  0  0  0
  196.9950  174.5400  137.4580 C   0  0  0  0  0  0  0  0  0  0  0  0
  197.3210  175.5920  136.9280 O   0  0  0  0  0  0  0  0  0  0  0  0
  196.9560  174.4410  138.9440 C   0  0  0  0  0  1  0  0  0  0  0  0
  198.0470  173.8920  134.8280 O   0  0  0  0  0  0  0  0  0  0  0  0
  197.6560  173.0120  135.5900 C   0  0  0  0  0  0  0  0  0  0  0  0
  197.2620  170.7660  134.9800 F   0  0  0  0  0  0  0  0  0  0  0  0
  199.2960  171.6600  134.5710 F   0  0  0  0  0  0  0  0  0  0  0  0
  198.2390  171.6220  135.4650 C   0  0  0  0  0  0  0  0  0  0  0  0
  198.7450  171.0830  136.8040 C   0  0  0  0  0  2  0  0  0  0  0  0
  200.0280  171.5700  137.0730 O   0  0  0  0  0  1  0  0  0  0  0  0
  1 10  1  0  0  0  0
  2  8  1  6  0  0  0
  2 16  1  0  0  0  0
  2 11  1  0  0  0  0
  3  1  1  0  0  0  0
  4  5  1  0  0  0  0
  5 24  1  6  0  0  0
  5  8  1  0  0  0  0
  6 19  1  0  0  0  0
  7 12  1  0  0  0  0
  7 13  1  0  0  0  0
 11 21  1  0  0  0  0
 11  3  2  0  0  0  0
 12 18  2  0  0  0  0
 14  6  1  0  0  0  0
 15 10  1  0  0  0  0
 16 12  1  0  0  0  0
 17  4  1  0  0  0  0
 18  3  1  0  0  0  0
 18  9  1  0  0  0  0
 19  7  2  0  0  0  0
 20 14  2  0  0  0  0
 21 23  1  0  0  0  0
 22 43  1  6  0  0  0
 22 17  1  0  0  0  0
 22 14  1  0  0  0  0
 23 15  1  0  0  0  0
 24 25  1  0  0  0  0
 25 26  1  6  0  0  0
 27 25  1  0  0  0  0
 27 28  1  0  0  0  0
 30 28  1  0  0  0  0
 30 29  1  1  0  0  0
 32 31  1  6  0  0  0
 32 30  1  0  0  0  0
 33 32  1  0  0  0  0
 34 33  1  0  0  0  0
 35 34  1  6  0  0  0
 35 41  1  0  0  0  0
 35 40  1  0  0  0  0
 36 39  1  6  0  0  0
 36 35  1  0  0  0  0
 36 41  1  0  0  0  0
 37 38  1  1  0  0  0
 37 36  1  0  0  0  0
 37 42  1  0  0  0  0
 42 40  1  0  0  0  0
 43 46  1  1  0  0  0
 44 45  1  0  0  0  0
 45 43  1  0  0  0  0
 47 50  1  0  0  0  0
 47 46  1  0  0  0  0
 48 51  1  0  0  0  0
 49 48  1  0  0  0  0
 50 48  2  0  0  0  0
 51 56  1  6  0  0  0
 51 52  1  0  0  0  0
 52 54  1  0  0  0  0
 53 52  2  0  0  0  0
 55 56  2  0  0  0  0
 57 59  1  0  0  0  0
 58 59  1  0  0  0  0
 59 56  1  0  0  0  0
 59 60  1  0  0  0  0
 60 61  1  0  0  0  0
M  END
>  <MODEL>
7

>  <REMARK>
 VINA RESULT:      -6.0      1.554      2.291
  Name = 
  19 active torsions:
  status: ('A' for Active; 'I' for Inactive)
    1  A    between atoms: C_1  and  C_59
    2  A    between atoms: C_5  and  O_6
    3  A    between atoms: O_6  and  C_53
    4  A    between atoms: C_13  and  O_43
    5  A    between atoms: C_22  and  C_27
    6  A    between atoms: C_22  and  C_61
    7  A    between atoms: C_28  and  O_52
    8  A    between atoms: C_28  and  C_54
    9  A    between atoms: C_30  and  C_59
   10  A    between atoms: O_31  and  C_57
   11  A    between atoms: C_40  and  C_41
   12  A    between atoms: C_40  and  C_57
   13  A    between atoms: C_41  and  C_56
   14  A    between atoms: O_43  and  C_48
   15  A    between atoms: C_44  and  C_53
   16  A    between atoms: C_44  and  C_54
   17  A    between atoms: C_48  and  O_52
   18  A    between atoms: C_51  and  C_57
   19  A    between atoms: C_59  and  C_61
                            x       y       z     vdW  Elec       q    Type
                         _______ _______ _______ _____ _____    ______ ____

>  <TORSDO>
F 19

$$$$
=
 OpenBabel10232411583D

 61 65  0  0  1  0  0  0  0  0999 V2000
  190.3880  176.2620  146.1550 C   0  0  0  0  0  2  0  0  0  0  0  0
  188.8640  178.6440  143.4590 C   0  0  1  0  0  3  0  0  0  0  0  0
  190.1580  177.0920  144.9100 C   0  0  0  0  0  0  0  0  0  0  0  0
  187.4600  177.6050  140.3400 O   0  0  0  0  0  0  0  0  0  0  0  0
  187.4740  178.5580  141.3640 C   0  0  2  0  0  3  0  0  0  0  0  0
  191.0430  177.2270  138.9150 N   0  0  0  0  0  0  0  0  0  0  0  0
  191.4850  177.2340  141.3140 C   0  0  1  0  0  3  0  0  0  0  0  0
  187.7830  177.8790  142.6960 C   0  0  0  0  0  2  0  0  0  0  0  0
  191.8940  175.5720  143.7180 C   0  0  0  0  0  1  0  0  0  0  0  0
  190.2290  177.0360  147.4530 C   0  0  0  0  0  2  0  0  0  0  0  0
  189.1410  177.9970  144.7920 C   0  0  0  0  0  0  0  0  0  0  0  0
  190.8950  177.5570  142.6220 C   0  0  0  0  0  0  0  0  0  0  0  0
  192.7600  176.6870  141.1720 O   0  0  0  0  0  1  0  0  0  0  0  0
  190.0280  177.3400  137.9100 C   0  0  0  0  0  0  0  0  0  0  0  0
  188.7800  177.0200  147.9180 C   0  0  0  0  0  2  0  0  0  0  0  0
  190.0490  178.6690  142.6790 O   0  0  0  0  0  0  0  0  0  0  0  0
  188.0770  178.2180  139.2400 C   0  0  0  0  0  2  0  0  0  0  0  0
  191.0070  176.7830  143.7160 C   0  0  0  0  0  0  0  0  0  0  0  0
  190.6980  177.4630  140.2720 C   0  0  0  0  0  3  0  0  0  0  0  0
  190.3830  177.5610  136.7210 O   0  0  0  0  0  0  0  0  0  0  0  0
  188.2870  178.4720  145.9360 C   0  0  0  0  0  2  0  0  0  0  0  0
  188.5560  177.1500  138.2550 C   0  0  1  0  0  3  0  0  0  0  0  0
  187.7790  177.3350  146.8030 C   0  0  0  0  0  2  0  0  0  0  0  0
  186.2240  179.1830  141.4460 O   0  0  0  0  0  0  0  0  0  0  0  0
  185.4440  178.3360  142.2440 C   0  0  2  0  0  3  0  0  0  0  0  0
  184.6610  177.5150  141.4250 O   0  0  0  0  0  1  0  0  0  0  0  0
  184.6160  179.1070  143.0580 O   0  0  0  0  0  0  0  0  0  0  0  0
  183.3330  178.9290  142.5340 C   0  0  0  0  0  2  0  0  0  0  0  0
  182.6320  179.3990  144.7880 O   0  0  0  0  0  1  0  0  0  0  0  0
  182.3240  178.6580  143.6420 C   0  0  1  0  0  3  0  0  0  0  0  0
  180.6070  180.2630  143.2110 O   0  0  0  0  0  1  0  0  0  0  0  0
  180.8850  178.8960  143.1870 C   0  0  1  0  0  3  0  0  0  0  0  0
  180.6210  178.3480  141.7940 C   0  0  0  0  0  2  0  0  0  0  0  0
  181.3020  179.1210  140.8420 O   0  0  0  0  0  0  0  0  0  0  0  0
  181.0070  178.5870  139.5740 C   0  0  1  0  0  0  0  0  0  0  0  0
  182.0180  178.7710  138.4730 C   0  0  2  0  0  0  0  0  0  0  0  0
  182.0130  177.4910  137.6560 C   0  0  2  0  0  3  0  0  0  0  0  0
  181.9050  177.7910  136.2970 O   0  0  0  0  0  1  0  0  0  0  0  0
  183.3300  179.4330  138.8630 C   0  0  0  0  0  1  0  0  0  0  0  0
  180.3050  177.2470  139.4150 C   0  0  0  0  0  2  0  0  0  0  0  0
  180.7590  179.6330  138.5010 C   0  0  0  0  0  2  0  0  0  0  0  0
  180.8120  176.6570  138.1040 C   0  0  0  0  0  2  0  0  0  0  0  0
  187.6350  177.1150  137.0150 C   0  0  2  0  0  3  0  0  0  0  0  0
  185.5430  177.3660  136.1070 C   0  0  0  0  0  1  0  0  0  0  0  0
  186.2750  177.3680  137.3060 O   0  0  0  0  0  0  0  0  0  0  0  0
  187.8490  175.8840  136.1160 C   0  0  0  0  0  2  0  0  0  0  0  0
  188.3800  174.7290  136.9470 C   0  0  0  0  0  2  0  0  0  0  0  0
  186.9670  173.0180  135.8680 C   0  0  0  0  0  0  0  0  0  0  0  0
  187.4560  173.4100  134.6220 O   0  0  0  0  0  1  0  0  0  0  0  0
  187.3710  173.6310  136.9800 C   0  0  0  0  0  3  0  0  0  0  0  0
  185.9840  171.8940  135.9720 C   0  0  2  0  0  3  0  0  0  0  0  0
  186.5010  170.6300  135.3480 C   0  0  0  0  0  0  0  0  0  0  0  0
  185.8000  169.9710  134.5940 O   0  0  0  0  0  0  0  0  0  0  0  0
  187.8920  170.1850  135.6430 C   0  0  0  0  0  1  0  0  0  0  0  0
  184.5330  172.8200  134.3490 O   0  0  0  0  0  0  0  0  0  0  0  0
  184.6230  172.2800  135.4470 C   0  0  0  0  0  0  0  0  0  0  0  0
  182.3250  171.7450  135.3560 F   0  0  0  0  0  0  0  0  0  0  0  0
  183.5680  170.9050  137.0450 F   0  0  0  0  0  0  0  0  0  0  0  0
  183.3620  172.0120  136.2380 C   0  0  0  0  0  0  0  0  0  0  0  0
  182.9660  173.1970  137.1190 C   0  0  0  0  0  2  0  0  0  0  0  0
  183.6900  174.3380  136.7580 O   0  0  0  0  0  1  0  0  0  0  0  0
  1 10  1  0  0  0  0
  2  8  1  6  0  0  0
  2 11  1  0  0  0  0
  3  1  1  0  0  0  0
  4  5  1  0  0  0  0
  5 24  1  1  0  0  0
  5  8  1  0  0  0  0
  6 19  2  0  0  0  0
  7 13  1  1  0  0  0
  7 12  1  0  0  0  0
 10 15  1  0  0  0  0
 11  3  2  0  0  0  0
 11 21  1  0  0  0  0
 12 16  1  0  0  0  0
 12 18  2  0  0  0  0
 14 22  1  0  0  0  0
 14  6  1  0  0  0  0
 16  2  1  0  0  0  0
 17  4  1  0  0  0  0
 18  9  1  0  0  0  0
 18  3  1  0  0  0  0
 19  7  1  0  0  0  0
 20 14  2  0  0  0  0
 21 23  1  0  0  0  0
 22 43  1  6  0  0  0
 22 17  1  0  0  0  0
 23 15  1  0  0  0  0
 24 25  1  0  0  0  0
 25 26  1  6  0  0  0
 25 27  1  0  0  0  0
 28 27  1  0  0  0  0
 28 30  1  0  0  0  0
 30 29  1  1  0  0  0
 32 31  1  6  0  0  0
 32 30  1  0  0  0  0
 33 32  1  0  0  0  0
 34 33  1  0  0  0  0
 35 34  1  1  0  0  0
 36 41  1  0  0  0  0
 36 39  1  1  0  0  0
 36 35  1  0  0  0  0
 37 38  1  6  0  0  0
 37 42  1  0  0  0  0
 37 36  1  0  0  0  0
 40 35  1  0  0  0  0
 41 35  1  0  0  0  0
 42 40  1  0  0  0  0
 43 46  1  1  0  0  0
 43 45  1  0  0  0  0
 44 45  1  0  0  0  0
 46 47  1  0  0  0  0
 47 50  1  0  0  0  0
 48 51  1  0  0  0  0
 48 50  2  0  0  0  0
 49 48  1  0  0  0  0
 51 52  1  6  0  0  0
 52 54  1  0  0  0  0
 53 52  2  0  0  0  0
 55 56  2  0  0  0  0
 56 51  1  0  0  0  0
 56 59  1  0  0  0  0
 57 59  1  0  0  0  0
 59 58  1  0  0  0  0
 59 60  1  0  0  0  0
 61 60  1  0  0  0  0
M  END
>  <MODEL>
8

>  <REMARK>
 VINA RESULT:      -5.8      4.310      6.844
  Name = 
  19 active torsions:
  status: ('A' for Active; 'I' for Inactive)
    1  A    between atoms: C_1  and  C_59
    2  A    between atoms: C_5  and  O_6
    3  A    between atoms: O_6  and  C_53
    4  A    between atoms: C_13  and  O_43
    5  A    between atoms: C_22  and  C_27
    6  A    between atoms: C_22  and  C_61
    7  A    between atoms: C_28  and  O_52
    8  A    between atoms: C_28  and  C_54
    9  A    between atoms: C_30  and  C_59
   10  A    between atoms: O_31  and  C_57
   11  A    between atoms: C_40  and  C_41
   12  A    between atoms: C_40  and  C_57
   13  A    between atoms: C_41  and  C_56
   14  A    between atoms: O_43  and  C_48
   15  A    between atoms: C_44  and  C_53
   16  A    between atoms: C_44  and  C_54
   17  A    between atoms: C_48  and  O_52
   18  A    between atoms: C_51  and  C_57
   19  A    between atoms: C_59  and  C_61
                            x       y       z     vdW  Elec       q    Type
                         _______ _______ _______ _____ _____    ______ ____

>  <TORSDO>
F 19

$$$$
=
 OpenBabel10232411583D

 61 65  0  0  1  0  0  0  0  0999 V2000
  189.7110  177.1300  144.0800 C   0  0  0  0  0  2  0  0  0  0  0  0
  188.9460  177.8340  140.3140 C   0  0  1  0  0  3  0  0  0  0  0  0
  189.8360  177.4370  142.6030 C   0  0  0  0  0  0  0  0  0  0  0  0
  189.5300  175.5520  137.6250 O   0  0  0  0  0  0  0  0  0  0  0  0
  188.7780  176.6250  138.1150 C   0  0  2  0  0  3  0  0  0  0  0  0
  193.2860  176.4990  137.7090 N   0  0  0  0  0  0  0  0  0  0  0  0
  192.5490  177.2870  139.8970 C   0  0  1  0  0  3  0  0  0  0  0  0
  188.6320  176.5040  139.6290 C   0  0  0  0  0  2  0  0  0  0  0  0
  192.2980  176.6260  142.7630 C   0  0  0  0  0  1  0  0  0  0  0  0
  188.7430  178.0370  144.8220 C   0  0  0  0  0  2  0  0  0  0  0  0
  188.7640  177.7260  141.8060 C   0  0  0  0  0  0  0  0  0  0  0  0
  191.3580  177.6150  140.6940 C   0  0  0  0  0  0  0  0  0  0  0  0
  193.8460  177.3580  140.4080 O   0  0  0  0  0  1  0  0  0  0  0  0
  192.8680  175.8950  136.4790 C   0  0  0  0  0  0  0  0  0  0  0  0
  187.3280  177.4820  144.7620 C   0  0  0  0  0  2  0  0  0  0  0  0
  190.2840  178.2010  140.0170 O   0  0  0  0  0  0  0  0  0  0  0  0
  190.3610  176.0900  136.6320 C   0  0  0  0  0  2  0  0  0  0  0  0
  191.1870  177.2650  141.9810 C   0  0  0  0  0  0  0  0  0  0  0  0
  192.3020  176.8750  138.6620 C   0  0  0  0  0  3  0  0  0  0  0  0
  193.6410  175.9570  135.4860 O   0  0  0  0  0  0  0  0  0  0  0  0
  187.3800  178.0260  142.3160 C   0  0  0  0  0  2  0  0  0  0  0  0
  191.5410  175.1500  136.3800 C   0  0  1  0  0  3  0  0  0  0  0  0
  186.9090  177.0310  143.3610 C   0  0  0  0  0  2  0  0  0  0  0  0
  187.5060  176.6170  137.5290 O   0  0  0  0  0  0  0  0  0  0  0  0
  187.4580  177.7760  136.7450 C   0  0  2  0  0  3  0  0  0  0  0  0
  186.9110  178.8230  137.4940 O   0  0  0  0  0  1  0  0  0  0  0  0
  186.6620  177.5400  135.6250 O   0  0  0  0  0  0  0  0  0  0  0  0
  185.8000  176.5100  136.0100 C   0  0  0  0  0  2  0  0  0  0  0  0
  184.5780  175.2480  134.3650 O   0  0  0  0  0  1  0  0  0  0  0  0
  184.5870  176.4430  135.0910 C   0  0  1  0  0  3  0  0  0  0  0  0
  182.5730  175.4500  135.9090 O   0  0  0  0  0  1  0  0  0  0  0  0
  183.2760  176.6540  135.8470 C   0  0  1  0  0  3  0  0  0  0  0  0
  183.4970  177.1870  137.2530 C   0  0  0  0  0  2  0  0  0  0  0  0
  182.6430  176.5300  138.1500 O   0  0  0  0  0  0  0  0  0  0  0  0
  181.7310  177.4830  138.6400 C   0  0  1  0  0  0  0  0  0  0  0  0
  181.9530  178.0310  140.0260 C   0  0  2  0  0  0  0  0  0  0  0  0
  181.5780  179.5020  139.9800 C   0  0  2  0  0  3  0  0  0  0  0  0
  180.7200  179.8110  141.0360 O   0  0  0  0  0  1  0  0  0  0  0  0
  183.2170  177.5780  140.7380 C   0  0  0  0  0  1  0  0  0  0  0  0
  181.1440  178.5620  137.7430 C   0  0  0  0  0  2  0  0  0  0  0  0
  180.8670  176.9860  139.7860 C   0  0  0  0  0  2  0  0  0  0  0  0
  180.8790  179.7630  138.6450 C   0  0  0  0  0  2  0  0  0  0  0  0
  191.3550  174.4040  135.0410 C   0  0  2  0  0  3  0  0  0  0  0  0
  189.2590  173.7020  134.4270 C   0  0  0  0  0  1  0  0  0  0  0  0
  190.1770  174.7620  134.3460 O   0  0  0  0  0  0  0  0  0  0  0  0
  191.5670  172.8830  135.1420 C   0  0  0  0  0  2  0  0  0  0  0  0
  192.7980  172.4830  134.3480 C   0  0  0  0  0  2  0  0  0  0  0  0
  195.0660  172.7920  135.2670 C   0  0  0  0  0  0  0  0  0  0  0  0
  195.2930  173.8130  134.3460 O   0  0  0  0  0  1  0  0  0  0  0  0
  193.9060  172.1350  135.2820 C   0  0  0  0  0  3  0  0  0  0  0  0
  196.1240  172.4240  136.2590 C   0  0  2  0  0  3  0  0  0  0  0  0
  195.5570  171.7160  137.4560 C   0  0  0  0  0  0  0  0  0  0  0  0
  195.3540  172.3170  138.5020 O   0  0  0  0  0  0  0  0  0  0  0  0
  195.2240  170.2680  137.3590 C   0  0  0  0  0  1  0  0  0  0  0  0
  196.4610  174.5710  137.1930 O   0  0  0  0  0  0  0  0  0  0  0  0
  196.9810  173.6060  136.6410 C   0  0  0  0  0  0  0  0  0  0  0  0
  198.8140  172.4940  135.6520 F   0  0  0  0  0  0  0  0  0  0  0  0
  198.7650  174.7520  135.6120 F   0  0  0  0  0  0  0  0  0  0  0  0
  198.4690  173.6300  136.3680 C   0  0  0  0  0  0  0  0  0  0  0  0
  199.2940  173.6700  137.6550 C   0  0  0  0  0  2  0  0  0  0  0  0
  199.4350  174.9870  138.1040 O   0  0  0  0  0  1  0  0  0  0  0  0
  1 10  1  0  0  0  0
  2  8  1  6  0  0  0
  2 11  1  0  0  0  0
  3  1  1  0  0  0  0
  4  5  1  0  0  0  0
  5 24  1  6  0  0  0
  5  8  1  0  0  0  0
  6 19  2  0  0  0  0
  7 13  1  1  0  0  0
  7 12  1  0  0  0  0
 11 21  1  0  0  0  0
 11  3  2  0  0  0  0
 12 18  2  0  0  0  0
 14  6  1  0  0  0  0
 15 10  1  0  0  0  0
 16  2  1  0  0  0  0
 16 12  1  0  0  0  0
 17  4  1  0  0  0  0
 18  3  1  0  0  0  0
 18  9  1  0  0  0  0
 19  7  1  0  0  0  0
 20 14  2  0  0  0  0
 21 23  1  0  0  0  0
 22 43  1  6  0  0  0
 22 14  1  0  0  0  0
 22 17  1  0  0  0  0
 23 15  1  0  0  0  0
 25 26  1  1  0  0  0
 25 24  1  0  0  0  0
 27 28  1  0  0  0  0
 27 25  1  0  0  0  0
 30 29  1  1  0  0  0
 30 32  1  0  0  0  0
 30 28  1  0  0  0  0
 32 31  1  1  0  0  0
 32 33  1  0  0  0  0
 33 34  1  0  0  0  0
 35 34  1  6  0  0  0
 35 41  1  0  0  0  0
 35 36  1  0  0  0  0
 36 39  1  1  0  0  0
 37 36  1  0  0  0  0
 37 38  1  1  0  0  0
 40 35  1  0  0  0  0
 40 42  1  0  0  0  0
 41 36  1  0  0  0  0
 42 37  1  0  0  0  0
 43 46  1  1  0  0  0
 45 44  1  0  0  0  0
 45 43  1  0  0  0  0
 47 46  1  0  0  0  0
 47 50  1  0  0  0  0
 48 50  2  0  0  0  0
 49 48  1  0  0  0  0
 51 48  1  6  0  0  0
 51 56  1  0  0  0  0
 51 52  1  0  0  0  0
 52 53  2  0  0  0  0
 54 52  1  0  0  0  0
 56 55  2  0  0  0  0
 57 59  1  0  0  0  0
 58 59  1  0  0  0  0
 59 56  1  0  0  0  0
 59 60  1  0  0  0  0
 60 61  1  0  0  0  0
M  END
>  <MODEL>
9

>  <REMARK>
 VINA RESULT:      -5.8      2.278      3.595
  Name = 
  19 active torsions:
  status: ('A' for Active; 'I' for Inactive)
    1  A    between atoms: C_1  and  C_59
    2  A    between atoms: C_5  and  O_6
    3  A    between atoms: O_6  and  C_53
    4  A    between atoms: C_13  and  O_43
    5  A    between atoms: C_22  and  C_27
    6  A    between atoms: C_22  and  C_61
    7  A    between atoms: C_28  and  O_52
    8  A    between atoms: C_28  and  C_54
    9  A    between atoms: C_30  and  C_59
   10  A    between atoms: O_31  and  C_57
   11  A    between atoms: C_40  and  C_41
   12  A    between atoms: C_40  and  C_57
   13  A    between atoms: C_41  and  C_56
   14  A    between atoms: O_43  and  C_48
   15  A    between atoms: C_44  and  C_53
   16  A    between atoms: C_44  and  C_54
   17  A    between atoms: C_48  and  O_52
   18  A    between atoms: C_51  and  C_57
   19  A    between atoms: C_59  and  C_61
                            x       y       z     vdW  Elec       q    Type
                         _______ _______ _______ _____ _____    ______ ____

>  <TORSDO>
F 19

$$$$
