=
 OpenBabel10232411193D

 50 56  0  0  1  0  0  0  0  0999 V2000
  193.1420  176.0080  137.9130 N   0  0  0  0  0  0  0  0  0  0  0  0
  190.4380  177.5960  141.0510 N   0  0  0  0  0  0  0  0  0  0  0  0
  188.8100  177.4010  139.2550 C   0  0  0  0  0  0  0  0  0  0  0  0
  190.0860  177.2070  139.7020 C   0  0  0  0  0  0  0  0  0  0  0  0
  187.8270  178.1750  140.1010 C   0  0  0  0  0  2  0  0  0  0  0  0
  188.1210  178.0710  141.5900 C   0  0  0  0  0  2  0  0  0  0  0  0
  194.0070  174.1590  137.1540 C   0  0  0  0  0  3  0  0  0  0  0  0
  192.6060  176.9340  138.8890 C   0  0  0  0  0  2  0  0  0  0  0  0
  188.3280  177.0530  137.8850 C   0  0  0  0  0  0  0  0  0  0  0  0
  189.5710  174.9430  137.7870 C   0  0  1  0  0  3  0  0  0  0  0  0
  192.2020  175.2160  137.4530 C   0  0  0  0  0  0  0  0  0  0  0  0
  192.6630  174.0470  136.9800 N   0  0  0  0  0  0  0  0  0  0  0  0
  191.1300  176.5790  138.8500 C   0  0  0  0  0  0  0  0  0  0  0  0
  189.6170  173.7660  136.8300 C   0  0  0  0  0  1  0  0  0  0  0  0
  190.9140  175.5560  138.0190 C   0  0  0  0  0  0  0  0  0  0  0  0
  189.5620  178.4810  141.8130 C   0  0  0  0  0  2  0  0  0  0  0  0
  187.3820  177.9290  137.2630 N   0  0  0  0  0  2  0  0  0  0  0  0
  188.6740  175.9590  137.2620 N   0  0  0  0  0  0  0  0  0  0  0  0
  194.3090  175.3610  137.7960 C   0  0  0  0  0  3  0  0  0  0  0  0
  186.8680  177.6830  135.9790 N   0  0  0  0  0  2  0  0  0  0  0  0
  185.4800  177.2760  136.1280 C   0  0  0  0  0  2  0  0  0  0  0  0
  185.0700  177.3690  137.5960 C   0  0  0  0  0  2  0  0  0  0  0  0
  182.3190  178.8550  140.6180 C   0  0  0  0  0  0  0  0  0  0  0  0
  183.4270  178.6320  140.0010 N   0  0  0  0  0  0  0  0  0  0  0  0
  182.8670  177.4560  136.4080 C   0  0  0  0  0  2  0  0  0  0  0  0
  181.6870  179.1370  138.4470 C   0  0  2  0  0  3  0  0  0  0  0  0
  182.2110  178.8000  142.0350 N   0  0  0  0  0  1  0  0  0  0  0  0
  181.5130  178.1800  136.4160 C   0  0  0  0  0  2  0  0  0  0  0  0
  180.9600  178.1800  137.7090 O   0  0  0  0  0  0  0  0  0  0  0  0
  183.5560  177.4740  137.7860 C   0  0  2  0  0  0  0  0  0  0  0  0
  183.1900  178.7640  138.5680 C   0  0  2  0  0  3  0  0  0  0  0  0
  181.2470  179.1400  139.7950 O   0  0  0  0  0  0  0  0  0  0  0  0
  183.1030  176.2280  138.5380 C   0  0  0  0  0  1  0  0  0  0  0  0
  191.4610  176.8510  141.7830 C   0  0  0  0  0  2  0  0  0  0  0  0
  190.8560  176.0520  142.8940 C   0  0  0  0  0  0  0  0  0  0  0  0
  189.8250  175.4300  142.7080 O   0  0  0  0  0  0  0  0  0  0  0  0
  191.5290  176.0220  144.2250 C   0  0  0  0  0  2  0  0  0  0  0  0
  191.3930  177.3650  144.9210 C   0  0  0  0  0  2  0  0  0  0  0  0
  189.9890  177.7440  145.0010 N   0  0  0  0  0  2  0  0  0  0  0  0
  189.1380  177.3910  146.1000 C   0  0  0  0  0  0  0  0  0  0  0  0
  189.6190  176.7900  147.1010 O   0  0  0  0  0  0  0  0  0  0  0  0
  186.1100  180.0840  146.9750 F   0  0  0  0  0  0  0  0  0  0  0  0
  187.7010  177.7220  146.0600 C   0  0  0  0  0  0  0  0  0  0  0  0
  187.0630  177.7840  144.8820 C   0  0  0  0  0  3  0  0  0  0  0  0
  185.7090  178.7770  147.1980 C   0  0  2  0  0  3  0  0  0  0  0  0
  183.7760  179.1810  145.8300 O   0  0  0  0  0  1  0  0  0  0  0  0
  185.6200  178.0700  144.7960 C   0  0  0  0  0  0  0  0  0  0  0  0
  185.0520  178.0650  143.6720 O   0  0  0  0  0  0  0  0  0  0  0  0
  186.9380  177.8770  147.3540 C   0  0  0  0  0  2  0  0  0  0  0  0
  184.8190  178.2780  146.0530 C   0  0  1  0  0  3  0  0  0  0  0  0
  1  8  1  0  0  0  0
  2 34  1  0  0  0  0
  2 16  1  0  0  0  0
  3  4  2  0  0  0  0
  3  5  1  0  0  0  0
  4  2  1  0  0  0  0
  5  6  1  0  0  0  0
  6 16  1  0  0  0  0
  7 19  2  0  0  0  0
  9  3  1  0  0  0  0
 10 14  1  6  0  0  0
 10 15  1  0  0  0  0
 11  1  1  0  0  0  0
 11 15  1  0  0  0  0
 12  7  1  0  0  0  0
 12 11  2  0  0  0  0
 13  8  1  0  0  0  0
 13  4  1  0  0  0  0
 15 13  2  0  0  0  0
 17  9  1  0  0  0  0
 18 10  1  0  0  0  0
 18  9  2  0  0  0  0
 19  1  1  0  0  0  0
 20 21  1  0  0  0  0
 20 17  1  0  0  0  0
 21 22  1  0  0  0  0
 22 30  1  0  0  0  0
 23 27  1  0  0  0  0
 24 23  2  0  0  0  0
 25 28  1  0  0  0  0
 25 30  1  0  0  0  0
 26 29  1  6  0  0  0
 26 31  1  0  0  0  0
 26 32  1  0  0  0  0
 28 29  1  0  0  0  0
 30 33  1  1  0  0  0
 30 31  1  0  0  0  0
 31 24  1  1  0  0  0
 32 23  1  0  0  0  0
 34 35  1  0  0  0  0
 35 37  1  0  0  0  0
 36 35  2  0  0  0  0
 37 38  1  0  0  0  0
 38 39  1  0  0  0  0
 39 40  1  0  0  0  0
 40 41  2  0  0  0  0
 43 40  1  0  0  0  0
 43 49  1  0  0  0  0
 44 43  2  0  0  0  0
 45 42  1  6  0  0  0
 45 49  1  0  0  0  0
 47 44  1  0  0  0  0
 47 50  1  0  0  0  0
 48 47  2  0  0  0  0
 50 46  1  6  0  0  0
 50 45  1  0  0  0  0
M  END
>  <MODEL>
1

>  <REMARK>
 VINA RESULT:      -9.6      0.000      0.000
  Name = 
  10 active torsions:
  status: ('A' for Active; 'I' for Inactive)
    1  A    between atoms: N_2  and  C_43
    2  A    between atoms: C_7  and  C_18
    3  A    between atoms: C_7  and  N_32
    4  A    between atoms: C_13  and  C_39
    5  A    between atoms: C_15  and  C_31
    6  A    between atoms: C_15  and  N_33
    7  A    between atoms: C_18  and  C_23
    8  A    between atoms: C_23  and  C_43
    9  A    between atoms: C_31  and  C_38
   10  A    between atoms: N_33  and  N_46
                            x       y       z     vdW  Elec       q    Type
                         _______ _______ _______ _____ _____    ______ ____

>  <TORSDO>
F 10

$$$$
=
 OpenBabel10232411193D

 50 56  0  0  1  0  0  0  0  0999 V2000
  193.5620  175.8890  138.0370 N   0  0  0  0  0  0  0  0  0  0  0  0
  190.6170  177.5080  140.9340 N   0  0  0  0  0  0  0  0  0  0  0  0
  189.1180  177.2130  139.0420 C   0  0  0  0  0  0  0  0  0  0  0  0
  190.3660  177.0670  139.5780 C   0  0  0  0  0  0  0  0  0  0  0  0
  188.0630  177.9890  139.7950 C   0  0  0  0  0  2  0  0  0  0  0  0
  188.2600  177.9410  141.3020 C   0  0  0  0  0  2  0  0  0  0  0  0
  194.5190  174.0390  137.4010 C   0  0  0  0  0  3  0  0  0  0  0  0
  192.9400  176.8320  138.9440 C   0  0  0  0  0  2  0  0  0  0  0  0
  188.7370  176.8080  137.6560 C   0  0  0  0  0  0  0  0  0  0  0  0
  190.0330  174.7280  137.7130 C   0  0  1  0  0  3  0  0  0  0  0  0
  192.6730  175.0580  137.5430 C   0  0  0  0  0  0  0  0  0  0  0  0
  193.1930  173.8870  137.1430 N   0  0  0  0  0  0  0  0  0  0  0  0
  191.4790  176.4390  138.8190 C   0  0  0  0  0  0  0  0  0  0  0  0
  190.1710  173.5220  136.8020 C   0  0  0  0  0  1  0  0  0  0  0  0
  191.3430  175.3830  138.0120 C   0  0  0  0  0  0  0  0  0  0  0  0
  189.6720  178.3950  141.6050 C   0  0  0  0  0  2  0  0  0  0  0  0
  187.8140  177.6380  136.9430 N   0  0  0  0  0  2  0  0  0  0  0  0
  189.1500  175.7030  137.0950 N   0  0  0  0  0  0  0  0  0  0  0  0
  194.7490  175.2690  138.0200 C   0  0  0  0  0  3  0  0  0  0  0  0
  187.3940  177.3370  135.6380 N   0  0  0  0  0  2  0  0  0  0  0  0
  186.1080  176.6650  135.7310 C   0  0  0  0  0  2  0  0  0  0  0  0
  185.0780  177.6050  136.3510 C   0  0  0  0  0  2  0  0  0  0  0  0
  182.9530  173.8780  135.6390 C   0  0  0  0  0  0  0  0  0  0  0  0
  183.8700  174.7790  135.5560 N   0  0  0  0  0  0  0  0  0  0  0  0
  183.6370  177.3410  138.3820 C   0  0  0  0  0  2  0  0  0  0  0  0
  183.1160  174.5520  137.8100 C   0  0  2  0  0  3  0  0  0  0  0  0
  182.4980  173.1470  134.5070 N   0  0  0  0  0  1  0  0  0  0  0  0
  182.9410  176.2780  139.2460 C   0  0  0  0  0  2  0  0  0  0  0  0
  182.1870  175.4050  138.4420 O   0  0  0  0  0  0  0  0  0  0  0  0
  183.8720  176.8670  136.9360 C   0  0  2  0  0  0  0  0  0  0  0  0
  184.0930  175.3310  136.8870 C   0  0  2  0  0  3  0  0  0  0  0  0
  182.4430  173.6900  136.9090 O   0  0  0  0  0  0  0  0  0  0  0  0
  182.6500  177.2730  136.1200 C   0  0  0  0  0  1  0  0  0  0  0  0
  191.6060  176.8150  141.7570 C   0  0  0  0  0  2  0  0  0  0  0  0
  190.9510  176.0680  142.8750 C   0  0  0  0  0  0  0  0  0  0  0  0
  189.9530  175.4020  142.6630 O   0  0  0  0  0  0  0  0  0  0  0  0
  191.5320  176.1450  144.2470 C   0  0  0  0  0  2  0  0  0  0  0  0
  191.3600  177.5410  144.8210 C   0  0  0  0  0  2  0  0  0  0  0  0
  189.9450  177.8720  144.9070 N   0  0  0  0  0  2  0  0  0  0  0  0
  189.1280  177.5540  146.0420 C   0  0  0  0  0  0  0  0  0  0  0  0
  189.6480  177.0310  147.0660 O   0  0  0  0  0  0  0  0  0  0  0  0
  185.9960  180.0980  147.0000 F   0  0  0  0  0  0  0  0  0  0  0  0
  187.6780  177.8300  146.0110 C   0  0  0  0  0  0  0  0  0  0  0  0
  187.0370  177.9050  144.8350 C   0  0  0  0  0  3  0  0  0  0  0  0
  185.6470  178.7690  147.1810 C   0  0  2  0  0  3  0  0  0  0  0  0
  183.6990  179.1420  145.8250 O   0  0  0  0  0  1  0  0  0  0  0  0
  185.5850  178.1370  144.7580 C   0  0  0  0  0  0  0  0  0  0  0  0
  185.0170  178.1460  143.6340 O   0  0  0  0  0  0  0  0  0  0  0  0
  186.9100  177.9140  147.3080 C   0  0  0  0  0  2  0  0  0  0  0  0
  184.7770  178.2740  146.0200 C   0  0  1  0  0  3  0  0  0  0  0  0
  1  8  1  0  0  0  0
  2 16  1  0  0  0  0
  2 34  1  0  0  0  0
  3  4  2  0  0  0  0
  3  5  1  0  0  0  0
  4  2  1  0  0  0  0
  5  6  1  0  0  0  0
  6 16  1  0  0  0  0
  7 19  2  0  0  0  0
  9  3  1  0  0  0  0
 10 14  1  6  0  0  0
 10 15  1  0  0  0  0
 11 15  1  0  0  0  0
 11  1  1  0  0  0  0
 12  7  1  0  0  0  0
 12 11  2  0  0  0  0
 13  8  1  0  0  0  0
 13  4  1  0  0  0  0
 15 13  2  0  0  0  0
 17  9  1  0  0  0  0
 18  9  2  0  0  0  0
 18 10  1  0  0  0  0
 19  1  1  0  0  0  0
 20 21  1  0  0  0  0
 20 17  1  0  0  0  0
 21 22  1  0  0  0  0
 22 30  1  0  0  0  0
 23 32  1  0  0  0  0
 24 23  2  0  0  0  0
 25 28  1  0  0  0  0
 26 32  1  6  0  0  0
 26 29  1  0  0  0  0
 27 23  1  0  0  0  0
 29 28  1  0  0  0  0
 30 33  1  6  0  0  0
 30 25  1  0  0  0  0
 31 24  1  6  0  0  0
 31 30  1  0  0  0  0
 31 26  1  0  0  0  0
 34 35  1  0  0  0  0
 35 37  1  0  0  0  0
 36 35  2  0  0  0  0
 37 38  1  0  0  0  0
 38 39  1  0  0  0  0
 39 40  1  0  0  0  0
 40 41  2  0  0  0  0
 43 40  1  0  0  0  0
 43 49  1  0  0  0  0
 44 43  2  0  0  0  0
 45 42  1  6  0  0  0
 45 49  1  0  0  0  0
 47 44  1  0  0  0  0
 47 50  1  0  0  0  0
 48 47  2  0  0  0  0
 50 46  1  6  0  0  0
 50 45  1  0  0  0  0
M  END
>  <MODEL>
2

>  <REMARK>
 VINA RESULT:      -8.6      1.692      2.432
  Name = 
  10 active torsions:
  status: ('A' for Active; 'I' for Inactive)
    1  A    between atoms: N_2  and  C_43
    2  A    between atoms: C_7  and  C_18
    3  A    between atoms: C_7  and  N_32
    4  A    between atoms: C_13  and  C_39
    5  A    between atoms: C_15  and  C_31
    6  A    between atoms: C_15  and  N_33
    7  A    between atoms: C_18  and  C_23
    8  A    between atoms: C_23  and  C_43
    9  A    between atoms: C_31  and  C_38
   10  A    between atoms: N_33  and  N_46
                            x       y       z     vdW  Elec       q    Type
                         _______ _______ _______ _____ _____    ______ ____

>  <TORSDO>
F 10

$$$$
=
 OpenBabel10232411193D

 50 56  0  0  1  0  0  0  0  0999 V2000
  190.6480  173.1130  136.1200 N   0  0  0  0  0  0  0  0  0  0  0  0
  187.7600  176.3520  137.0410 N   0  0  0  0  0  0  0  0  0  0  0  0
  189.4760  176.9470  138.6580 C   0  0  0  0  0  0  0  0  0  0  0  0
  189.0630  176.1410  137.6360 C   0  0  0  0  0  0  0  0  0  0  0  0
  188.5120  177.9310  139.2770 C   0  0  0  0  0  2  0  0  0  0  0  0
  187.4430  178.3990  138.3020 C   0  0  0  0  0  2  0  0  0  0  0  0
  192.2800  172.5850  134.7770 C   0  0  0  0  0  3  0  0  0  0  0  0
  189.4130  173.7380  136.5460 C   0  0  0  0  0  2  0  0  0  0  0  0
  190.7900  176.8230  139.3580 C   0  0  0  0  0  0  0  0  0  0  0  0
  192.0460  176.3600  137.3050 C   0  0  1  0  0  3  0  0  0  0  0  0
  191.6670  173.9230  136.2950 C   0  0  0  0  0  0  0  0  0  0  0  0
  192.7070  173.6640  135.4860 N   0  0  0  0  0  0  0  0  0  0  0  0
  189.9250  175.0600  137.0890 C   0  0  0  0  0  0  0  0  0  0  0  0
  193.5160  176.2290  136.9510 C   0  0  0  0  0  1  0  0  0  0  0  0
  191.2450  175.1610  136.9130 C   0  0  0  0  0  0  0  0  0  0  0  0
  186.7660  177.1740  137.7240 C   0  0  0  0  0  2  0  0  0  0  0  0
  190.8260  177.0710  140.7670 N   0  0  0  0  0  2  0  0  0  0  0  0
  191.9100  176.5690  138.7370 N   0  0  0  0  0  0  0  0  0  0  0  0
  190.9650  172.2730  135.1260 C   0  0  0  0  0  3  0  0  0  0  0  0
  192.0130  176.9830  141.5110 N   0  0  0  0  0  2  0  0  0  0  0  0
  191.7500  177.5300  142.8320 C   0  0  0  0  0  2  0  0  0  0  0  0
  190.8600  176.5720  143.6190 C   0  0  0  0  0  2  0  0  0  0  0  0
  186.7790  177.9140  142.9460 C   0  0  0  0  0  0  0  0  0  0  0  0
  187.9000  177.3150  142.7420 N   0  0  0  0  0  0  0  0  0  0  0  0
  190.0140  177.0940  145.9180 C   0  0  0  0  0  2  0  0  0  0  0  0
  187.2590  177.1420  145.0350 C   0  0  2  0  0  3  0  0  0  0  0  0
  186.0620  178.5660  141.9040 N   0  0  0  0  0  1  0  0  0  0  0  0
  188.7230  177.1770  146.7460 C   0  0  0  0  0  2  0  0  0  0  0  0
  187.7570  177.9510  146.0770 O   0  0  0  0  0  0  0  0  0  0  0  0
  189.7650  177.2900  144.4110 C   0  0  2  0  0  0  0  0  0  0  0  0
  188.3610  176.7620  144.0100 C   0  0  2  0  0  3  0  0  0  0  0  0
  186.3350  177.8810  144.2530 O   0  0  0  0  0  0  0  0  0  0  0  0
  189.8950  178.7810  144.1190 C   0  0  0  0  0  1  0  0  0  0  0  0
  187.5440  176.0520  135.6270 C   0  0  0  0  0  2  0  0  0  0  0  0
  186.1030  175.7630  135.3500 C   0  0  0  0  0  0  0  0  0  0  0  0
  185.3140  176.6800  135.2010 O   0  0  0  0  0  0  0  0  0  0  0  0
  185.6440  174.3470  135.2540 C   0  0  0  0  0  2  0  0  0  0  0  0
  185.6110  173.7040  136.6300 C   0  0  0  0  0  2  0  0  0  0  0  0
  184.6820  174.4210  137.4920 N   0  0  0  0  0  2  0  0  0  0  0  0
  183.2570  174.3210  137.3730 C   0  0  0  0  0  0  0  0  0  0  0  0
  182.7490  173.5180  136.5410 O   0  0  0  0  0  0  0  0  0  0  0  0
  180.3690  174.5410  140.3400 F   0  0  0  0  0  0  0  0  0  0  0  0
  182.3820  175.1590  138.2150 C   0  0  0  0  0  0  0  0  0  0  0  0
  182.9210  176.0760  139.0320 C   0  0  0  0  0  3  0  0  0  0  0  0
  180.1420  175.4710  139.3390 C   0  0  2  0  0  3  0  0  0  0  0  0
  180.0080  177.1840  141.0180 O   0  0  0  0  0  1  0  0  0  0  0  0
  182.0860  176.9630  139.8600 C   0  0  0  0  0  0  0  0  0  0  0  0
  182.6340  177.8450  140.5720 O   0  0  0  0  0  0  0  0  0  0  0  0
  180.8830  175.0530  138.0660 C   0  0  0  0  0  2  0  0  0  0  0  0
  180.5860  176.8690  139.7850 C   0  0  1  0  0  3  0  0  0  0  0  0
  1 11  1  0  0  0  0
  1  8  1  0  0  0  0
  2  4  1  0  0  0  0
  2 16  1  0  0  0  0
  3  5  1  0  0  0  0
  3  9  1  0  0  0  0
  4  3  2  0  0  0  0
  6  5  1  0  0  0  0
  7 19  2  0  0  0  0
  7 12  1  0  0  0  0
  8 13  1  0  0  0  0
  9 17  1  0  0  0  0
 10 14  1  1  0  0  0
 10 18  1  0  0  0  0
 11 15  1  0  0  0  0
 12 11  2  0  0  0  0
 13  4  1  0  0  0  0
 15 13  2  0  0  0  0
 15 10  1  0  0  0  0
 16  6  1  0  0  0  0
 17 20  1  0  0  0  0
 18  9  2  0  0  0  0
 19  1  1  0  0  0  0
 20 21  1  0  0  0  0
 21 22  1  0  0  0  0
 22 30  1  0  0  0  0
 23 32  1  0  0  0  0
 24 23  2  0  0  0  0
 25 28  1  0  0  0  0
 26 32  1  6  0  0  0
 26 29  1  0  0  0  0
 27 23  1  0  0  0  0
 29 28  1  0  0  0  0
 30 33  1  6  0  0  0
 30 25  1  0  0  0  0
 31 24  1  6  0  0  0
 31 30  1  0  0  0  0
 31 26  1  0  0  0  0
 34  2  1  0  0  0  0
 35 34  1  0  0  0  0
 36 35  2  0  0  0  0
 37 35  1  0  0  0  0
 37 38  1  0  0  0  0
 38 39  1  0  0  0  0
 40 39  1  0  0  0  0
 40 43  1  0  0  0  0
 41 40  2  0  0  0  0
 43 44  2  0  0  0  0
 44 47  1  0  0  0  0
 45 50  1  0  0  0  0
 45 42  1  1  0  0  0
 47 48  2  0  0  0  0
 49 43  1  0  0  0  0
 49 45  1  0  0  0  0
 50 47  1  0  0  0  0
 50 46  1  1  0  0  0
M  END
>  <MODEL>
3

>  <REMARK>
 VINA RESULT:      -8.2      2.662      7.448
  Name = 
  10 active torsions:
  status: ('A' for Active; 'I' for Inactive)
    1  A    between atoms: N_2  and  C_43
    2  A    between atoms: C_7  and  C_18
    3  A    between atoms: C_7  and  N_32
    4  A    between atoms: C_13  and  C_39
    5  A    between atoms: C_15  and  C_31
    6  A    between atoms: C_15  and  N_33
    7  A    between atoms: C_18  and  C_23
    8  A    between atoms: C_23  and  C_43
    9  A    between atoms: C_31  and  C_38
   10  A    between atoms: N_33  and  N_46
                            x       y       z     vdW  Elec       q    Type
                         _______ _______ _______ _____ _____    ______ ____

>  <TORSDO>
F 10

$$$$
=
 OpenBabel10232411193D

 50 56  0  0  1  0  0  0  0  0999 V2000
  190.5250  172.9240  135.8580 N   0  0  0  0  0  0  0  0  0  0  0  0
  187.9850  176.5430  136.2200 N   0  0  0  0  0  0  0  0  0  0  0  0
  189.7490  177.2000  137.7600 C   0  0  0  0  0  0  0  0  0  0  0  0
  189.2580  176.2940  136.8640 C   0  0  0  0  0  0  0  0  0  0  0  0
  188.8900  178.3610  138.2040 C   0  0  0  0  0  2  0  0  0  0  0  0
  187.8780  178.7810  137.1490 C   0  0  0  0  0  2  0  0  0  0  0  0
  192.0980  172.0330  134.6410 C   0  0  0  0  0  3  0  0  0  0  0  0
  189.3600  173.7290  136.1600 C   0  0  0  0  0  2  0  0  0  0  0  0
  191.0400  177.0520  138.4960 C   0  0  0  0  0  0  0  0  0  0  0  0
  192.2480  176.1550  136.5620 C   0  0  1  0  0  3  0  0  0  0  0  0
  191.6220  173.6430  135.9260 C   0  0  0  0  0  0  0  0  0  0  0  0
  192.6320  173.1580  135.1860 N   0  0  0  0  0  0  0  0  0  0  0  0
  190.0040  175.0600  136.5050 C   0  0  0  0  0  0  0  0  0  0  0  0
  193.6980  175.8220  136.2590 C   0  0  0  0  0  1  0  0  0  0  0  0
  191.3290  174.9980  136.3410 C   0  0  0  0  0  0  0  0  0  0  0  0
  187.0790  177.5570  136.7510 C   0  0  0  0  0  2  0  0  0  0  0  0
  191.0970  177.5080  139.8520 N   0  0  0  0  0  2  0  0  0  0  0  0
  192.1310  176.5930  137.9420 N   0  0  0  0  0  0  0  0  0  0  0  0
  190.7560  171.9140  135.0090 C   0  0  0  0  0  3  0  0  0  0  0  0
  192.2670  177.4140  140.6230 N   0  0  0  0  0  2  0  0  0  0  0  0
  191.8750  177.4110  142.0230 C   0  0  0  0  0  2  0  0  0  0  0  0
  190.4820  178.0170  142.1700 C   0  0  0  0  0  2  0  0  0  0  0  0
  190.9360  176.9620  146.3640 C   0  0  0  0  0  0  0  0  0  0  0  0
  191.1900  177.4980  145.2210 N   0  0  0  0  0  0  0  0  0  0  0  0
  188.1540  177.4540  142.9000 C   0  0  0  0  0  2  0  0  0  0  0  0
  188.8550  177.6140  145.7040 C   0  0  2  0  0  3  0  0  0  0  0  0
  191.9520  176.3990  147.1860 N   0  0  0  0  0  1  0  0  0  0  0  0
  187.2470  177.4170  144.1400 C   0  0  0  0  0  2  0  0  0  0  0  0
  187.8790  176.7340  145.1940 O   0  0  0  0  0  0  0  0  0  0  0  0
  189.6480  177.3360  143.2570 C   0  0  2  0  0  0  0  0  0  0  0  0
  189.9350  177.9680  144.6460 C   0  0  2  0  0  3  0  0  0  0  0  0
  189.6010  176.9680  146.7210 O   0  0  0  0  0  0  0  0  0  0  0  0
  190.0030  175.8540  143.2420 C   0  0  0  0  0  1  0  0  0  0  0  0
  187.7440  176.0540  134.8650 C   0  0  0  0  0  2  0  0  0  0  0  0
  186.2910  175.7740  134.6410 C   0  0  0  0  0  0  0  0  0  0  0  0
  185.5320  176.6810  134.3510 O   0  0  0  0  0  0  0  0  0  0  0  0
  185.7860  174.3760  134.7730 C   0  0  0  0  0  2  0  0  0  0  0  0
  185.7830  173.9470  136.2300 C   0  0  0  0  0  2  0  0  0  0  0  0
  185.0650  174.9250  137.0360 N   0  0  0  0  0  2  0  0  0  0  0  0
  183.6350  174.9830  137.1170 C   0  0  0  0  0  0  0  0  0  0  0  0
  182.9350  174.1070  136.5360 O   0  0  0  0  0  0  0  0  0  0  0  0
  183.6700  177.5260  140.3920 F   0  0  0  0  0  0  0  0  0  0  0  0
  182.9790  176.0680  137.8720 C   0  0  0  0  0  0  0  0  0  0  0  0
  182.7570  177.2520  137.2820 C   0  0  0  0  0  3  0  0  0  0  0  0
  182.3900  177.0720  140.1130 C   0  0  2  0  0  3  0  0  0  0  0  0
  181.6290  179.3500  140.1070 O   0  0  0  0  0  1  0  0  0  0  0  0
  182.0690  178.3500  137.9830 C   0  0  0  0  0  0  0  0  0  0  0  0
  181.8330  179.4250  137.3720 O   0  0  0  0  0  0  0  0  0  0  0  0
  182.4660  175.7980  139.2660 C   0  0  0  0  0  2  0  0  0  0  0  0
  181.5760  178.1510  139.3910 C   0  0  1  0  0  3  0  0  0  0  0  0
  1 11  1  0  0  0  0
  1  8  1  0  0  0  0
  2 16  1  0  0  0  0
  2  4  1  0  0  0  0
  3  5  1  0  0  0  0
  3  9  1  0  0  0  0
  4  3  2  0  0  0  0
  6  5  1  0  0  0  0
  7 19  2  0  0  0  0
  7 12  1  0  0  0  0
  8 13  1  0  0  0  0
  9 17  1  0  0  0  0
 10 14  1  1  0  0  0
 10 18  1  0  0  0  0
 11 15  1  0  0  0  0
 12 11  2  0  0  0  0
 13  4  1  0  0  0  0
 15 13  2  0  0  0  0
 15 10  1  0  0  0  0
 16  6  1  0  0  0  0
 17 20  1  0  0  0  0
 18  9  2  0  0  0  0
 19  1  1  0  0  0  0
 20 21  1  0  0  0  0
 21 22  1  0  0  0  0
 22 30  1  0  0  0  0
 23 32  1  0  0  0  0
 23 27  1  0  0  0  0
 24 23  2  0  0  0  0
 25 30  1  0  0  0  0
 25 28  1  0  0  0  0
 26 29  1  6  0  0  0
 26 32  1  0  0  0  0
 28 29  1  0  0  0  0
 30 33  1  1  0  0  0
 30 31  1  0  0  0  0
 31 24  1  1  0  0  0
 31 26  1  0  0  0  0
 34  2  1  0  0  0  0
 35 37  1  0  0  0  0
 35 34  1  0  0  0  0
 36 35  2  0  0  0  0
 37 38  1  0  0  0  0
 38 39  1  0  0  0  0
 39 40  1  0  0  0  0
 40 43  1  0  0  0  0
 41 40  2  0  0  0  0
 43 49  1  0  0  0  0
 44 43  2  0  0  0  0
 44 47  1  0  0  0  0
 45 42  1  6  0  0  0
 47 50  1  0  0  0  0
 48 47  2  0  0  0  0
 49 45  1  0  0  0  0
 50 46  1  1  0  0  0
 50 45  1  0  0  0  0
M  END
>  <MODEL>
4

>  <REMARK>
 VINA RESULT:      -7.6      2.400      7.688
  Name = 
  10 active torsions:
  status: ('A' for Active; 'I' for Inactive)
    1  A    between atoms: N_2  and  C_43
    2  A    between atoms: C_7  and  C_18
    3  A    between atoms: C_7  and  N_32
    4  A    between atoms: C_13  and  C_39
    5  A    between atoms: C_15  and  C_31
    6  A    between atoms: C_15  and  N_33
    7  A    between atoms: C_18  and  C_23
    8  A    between atoms: C_23  and  C_43
    9  A    between atoms: C_31  and  C_38
   10  A    between atoms: N_33  and  N_46
                            x       y       z     vdW  Elec       q    Type
                         _______ _______ _______ _____ _____    ______ ____

>  <TORSDO>
F 10

$$$$
=
 OpenBabel10232411193D

 50 56  0  0  1  0  0  0  0  0999 V2000
  187.8990  172.4140  136.2480 N   0  0  0  0  0  0  0  0  0  0  0  0
  186.0390  176.3790  136.9580 N   0  0  0  0  0  0  0  0  0  0  0  0
  188.1850  176.8070  138.0190 C   0  0  0  0  0  0  0  0  0  0  0  0
  187.3790  175.9600  137.3130 C   0  0  0  0  0  0  0  0  0  0  0  0
  187.6210  178.0930  138.5750 C   0  0  0  0  0  2  0  0  0  0  0  0
  186.4610  178.6310  137.7530 C   0  0  0  0  0  2  0  0  0  0  0  0
  189.0080  171.2690  134.7640 C   0  0  0  0  0  3  0  0  0  0  0  0
  186.9580  173.3910  136.7570 C   0  0  0  0  0  2  0  0  0  0  0  0
  189.5780  176.4870  138.4520 C   0  0  0  0  0  0  0  0  0  0  0  0
  190.1690  175.3710  136.3520 C   0  0  1  0  0  3  0  0  0  0  0  0
  189.0700  172.9640  136.0250 C   0  0  0  0  0  0  0  0  0  0  0  0
  189.8040  172.3150  135.1070 N   0  0  0  0  0  0  0  0  0  0  0  0
  187.8440  174.6200  136.8680 C   0  0  0  0  0  0  0  0  0  0  0  0
  191.4480  174.8180  135.7510 C   0  0  0  0  0  1  0  0  0  0  0  0
  189.0720  174.3580  136.4140 C   0  0  0  0  0  0  0  0  0  0  0  0
  185.4300  177.5300  137.6180 C   0  0  0  0  0  2  0  0  0  0  0  0
  190.0100  176.9650  139.7300 N   0  0  0  0  0  2  0  0  0  0  0  0
  190.4360  175.8580  137.6950 N   0  0  0  0  0  0  0  0  0  0  0  0
  187.7850  171.3590  135.4310 C   0  0  0  0  0  3  0  0  0  0  0  0
  191.3030  176.7190  140.2220 N   0  0  0  0  0  2  0  0  0  0  0  0
  191.3790  177.2740  141.5640 C   0  0  0  0  0  2  0  0  0  0  0  0
  190.3090  176.6370  142.4460 C   0  0  0  0  0  2  0  0  0  0  0  0
  187.3010  177.8970  145.3240 C   0  0  0  0  0  0  0  0  0  0  0  0
  187.8120  177.3660  144.2680 N   0  0  0  0  0  0  0  0  0  0  0  0
  191.5870  176.8650  144.5880 C   0  0  0  0  0  2  0  0  0  0  0  0
  189.1700  176.9130  146.1780 C   0  0  2  0  0  3  0  0  0  0  0  0
  186.0860  178.6360  145.2940 N   0  0  0  0  0  1  0  0  0  0  0  0
  191.4190  176.8080  146.1130 C   0  0  0  0  0  2  0  0  0  0  0  0
  190.3430  177.6160  146.5220 O   0  0  0  0  0  0  0  0  0  0  0  0
  190.2770  177.2210  143.8600 C   0  0  2  0  0  0  0  0  0  0  0  0
  189.0480  176.6910  144.6460 C   0  0  2  0  0  3  0  0  0  0  0  0
  188.0310  177.7010  146.4790 O   0  0  0  0  0  0  0  0  0  0  0  0
  190.2300  178.7390  143.7250 C   0  0  0  0  0  1  0  0  0  0  0  0
  185.4250  175.8950  135.7240 C   0  0  0  0  0  2  0  0  0  0  0  0
  183.9320  175.9400  135.8090 C   0  0  0  0  0  0  0  0  0  0  0  0
  183.3370  176.9750  135.5680 O   0  0  0  0  0  0  0  0  0  0  0  0
  183.1830  174.7060  136.1870 C   0  0  0  0  0  2  0  0  0  0  0  0
  183.2490  174.4810  137.6880 C   0  0  0  0  0  2  0  0  0  0  0  0
  182.7660  175.6620  138.3890 N   0  0  0  0  0  2  0  0  0  0  0  0
  181.4450  175.7680  138.9380 C   0  0  0  0  0  0  0  0  0  0  0  0
  180.6640  174.7770  138.8980 O   0  0  0  0  0  0  0  0  0  0  0  0
  181.7570  178.5090  142.0340 F   0  0  0  0  0  0  0  0  0  0  0  0
  180.9940  177.0360  139.5440 C   0  0  0  0  0  0  0  0  0  0  0  0
  181.1190  178.1840  138.8610 C   0  0  0  0  0  3  0  0  0  0  0  0
  180.4410  178.3380  141.6350 C   0  0  2  0  0  3  0  0  0  0  0  0
  180.2460  180.7210  141.4020 O   0  0  0  0  0  1  0  0  0  0  0  0
  180.6460  179.4670  139.4080 C   0  0  0  0  0  0  0  0  0  0  0  0
  180.7340  180.5100  138.7090 O   0  0  0  0  0  0  0  0  0  0  0  0
  180.2950  177.0130  140.8820 C   0  0  0  0  0  2  0  0  0  0  0  0
  179.9820  179.5090  140.7580 C   0  0  1  0  0  3  0  0  0  0  0  0
  1  8  1  0  0  0  0
  2  4  1  0  0  0  0
  2 16  1  0  0  0  0
  3  9  1  0  0  0  0
  3  5  1  0  0  0  0
  4  3  2  0  0  0  0
  6  5  1  0  0  0  0
  7 12  1  0  0  0  0
  7 19  2  0  0  0  0
  8 13  1  0  0  0  0
  9 17  1  0  0  0  0
 10 14  1  1  0  0  0
 10 15  1  0  0  0  0
 10 18  1  0  0  0  0
 11  1  1  0  0  0  0
 11 15  1  0  0  0  0
 12 11  2  0  0  0  0
 13  4  1  0  0  0  0
 15 13  2  0  0  0  0
 16  6  1  0  0  0  0
 17 20  1  0  0  0  0
 18  9  2  0  0  0  0
 19  1  1  0  0  0  0
 20 21  1  0  0  0  0
 21 22  1  0  0  0  0
 22 30  1  0  0  0  0
 23 32  1  0  0  0  0
 24 23  2  0  0  0  0
 25 28  1  0  0  0  0
 26 32  1  6  0  0  0
 26 29  1  0  0  0  0
 27 23  1  0  0  0  0
 28 29  1  0  0  0  0
 30 33  1  6  0  0  0
 30 25  1  0  0  0  0
 30 31  1  0  0  0  0
 31 24  1  6  0  0  0
 31 26  1  0  0  0  0
 34 35  1  0  0  0  0
 34  2  1  0  0  0  0
 35 37  1  0  0  0  0
 36 35  2  0  0  0  0
 37 38  1  0  0  0  0
 38 39  1  0  0  0  0
 39 40  1  0  0  0  0
 40 43  1  0  0  0  0
 41 40  2  0  0  0  0
 43 49  1  0  0  0  0
 44 47  1  0  0  0  0
 44 43  2  0  0  0  0
 45 42  1  6  0  0  0
 47 50  1  0  0  0  0
 48 47  2  0  0  0  0
 49 45  1  0  0  0  0
 50 46  1  1  0  0  0
 50 45  1  0  0  0  0
M  END
>  <MODEL>
5

>  <REMARK>
 VINA RESULT:      -7.4      2.449      7.817
  Name = 
  10 active torsions:
  status: ('A' for Active; 'I' for Inactive)
    1  A    between atoms: N_2  and  C_43
    2  A    between atoms: C_7  and  C_18
    3  A    between atoms: C_7  and  N_32
    4  A    between atoms: C_13  and  C_39
    5  A    between atoms: C_15  and  C_31
    6  A    between atoms: C_15  and  N_33
    7  A    between atoms: C_18  and  C_23
    8  A    between atoms: C_23  and  C_43
    9  A    between atoms: C_31  and  C_38
   10  A    between atoms: N_33  and  N_46
                            x       y       z     vdW  Elec       q    Type
                         _______ _______ _______ _____ _____    ______ ____

>  <TORSDO>
F 10

$$$$
=
 OpenBabel10232411193D

 50 56  0  0  1  0  0  0  0  0999 V2000
  182.0300  180.4020  138.4780 N   0  0  0  0  0  0  0  0  0  0  0  0
  186.0800  178.6860  139.0530 N   0  0  0  0  0  0  0  0  0  0  0  0
  185.3580  178.6600  141.3750 C   0  0  0  0  0  0  0  0  0  0  0  0
  185.0680  178.9090  140.0640 C   0  0  0  0  0  0  0  0  0  0  0  0
  186.7740  178.3250  141.7820 C   0  0  0  0  0  2  0  0  0  0  0  0
  187.5610  177.6490  140.6700 C   0  0  0  0  0  2  0  0  0  0  0  0
  179.9820  179.8610  137.9700 C   0  0  0  0  0  3  0  0  0  0  0  0
  183.4760  180.3260  138.4700 C   0  0  0  0  0  2  0  0  0  0  0  0
  184.4060  178.8600  142.5080 C   0  0  0  0  0  0  0  0  0  0  0  0
  182.4760  177.9820  141.2790 C   0  0  1  0  0  3  0  0  0  0  0  0
  181.5240  179.6090  139.3930 C   0  0  0  0  0  0  0  0  0  0  0  0
  180.2640  179.2220  139.1370 N   0  0  0  0  0  0  0  0  0  0  0  0
  183.7270  179.3820  139.6320 C   0  0  0  0  0  0  0  0  0  0  0  0
  181.0430  177.6320  141.6360 C   0  0  0  0  0  1  0  0  0  0  0  0
  182.5710  178.9530  140.1470 C   0  0  0  0  0  0  0  0  0  0  0  0
  187.4790  178.5250  139.4370 C   0  0  0  0  0  2  0  0  0  0  0  0
  184.9290  179.3490  143.7480 N   0  0  0  0  0  2  0  0  0  0  0  0
  183.1390  178.5470  142.4420 N   0  0  0  0  0  0  0  0  0  0  0  0
  181.1060  180.5530  137.5190 C   0  0  0  0  0  3  0  0  0  0  0  0
  184.1130  179.5650  144.8700 N   0  0  0  0  0  2  0  0  0  0  0  0
  184.6590  178.7870  145.9710 C   0  0  0  0  0  2  0  0  0  0  0  0
  186.0110  179.3610  146.3870 C   0  0  0  0  0  2  0  0  0  0  0  0
  189.0600  176.9090  144.4890 C   0  0  0  0  0  0  0  0  0  0  0  0
  188.1770  177.8330  144.6380 N   0  0  0  0  0  0  0  0  0  0  0  0
  187.3060  178.4210  148.3130 C   0  0  0  0  0  2  0  0  0  0  0  0
  189.5030  177.6140  146.6100 C   0  0  2  0  0  3  0  0  0  0  0  0
  189.1850  176.1590  143.2870 N   0  0  0  0  0  1  0  0  0  0  0  0
  188.6930  177.8820  148.6940 C   0  0  0  0  0  2  0  0  0  0  0  0
  189.1180  176.9110  147.7700 O   0  0  0  0  0  0  0  0  0  0  0  0
  187.0120  178.2830  146.8070 C   0  0  2  0  0  0  0  0  0  0  0  0
  188.3190  178.3930  145.9760 C   0  0  2  0  0  3  0  0  0  0  0  0
  189.8660  176.6980  145.5910 O   0  0  0  0  0  0  0  0  0  0  0  0
  186.3400  176.9300  146.5970 C   0  0  0  0  0  1  0  0  0  0  0  0
  185.6890  178.2740  137.7070 C   0  0  0  0  0  2  0  0  0  0  0  0
  186.8450  178.3580  136.7600 C   0  0  0  0  0  0  0  0  0  0  0  0
  187.4460  179.4080  136.6210 O   0  0  0  0  0  0  0  0  0  0  0  0
  187.2530  177.1450  135.9940 C   0  0  0  0  0  2  0  0  0  0  0  0
  187.6550  176.0270  136.9420 C   0  0  0  0  0  2  0  0  0  0  0  0
  189.1050  175.9840  137.0740 N   0  0  0  0  0  2  0  0  0  0  0  0
  189.8730  174.7790  136.9510 C   0  0  0  0  0  0  0  0  0  0  0  0
  189.3020  173.6980  136.6350 O   0  0  0  0  0  0  0  0  0  0  0  0
  193.7210  174.6280  135.4150 F   0  0  0  0  0  0  0  0  0  0  0  0
  191.3270  174.8000  137.2010 C   0  0  0  0  0  0  0  0  0  0  0  0
  191.8870  175.8600  137.8020 C   0  0  0  0  0  3  0  0  0  0  0  0
  193.6200  173.9240  136.6050 C   0  0  2  0  0  3  0  0  0  0  0  0
  195.4980  175.1610  137.4480 O   0  0  0  0  0  1  0  0  0  0  0  0
  193.3270  175.9060  138.1090 C   0  0  0  0  0  0  0  0  0  0  0  0
  193.7990  176.8990  138.7220 O   0  0  0  0  0  0  0  0  0  0  0  0
  192.1530  173.5780  136.8770 C   0  0  0  0  0  2  0  0  0  0  0  0
  194.2060  174.7340  137.7670 C   0  0  1  0  0  3  0  0  0  0  0  0
  1 11  1  0  0  0  0
  2 16  1  0  0  0  0
  2  4  1  0  0  0  0
  3  5  1  0  0  0  0
  3  9  1  0  0  0  0
  4  3  2  0  0  0  0
  6  5  1  0  0  0  0
  7 12  1  0  0  0  0
  8  1  1  0  0  0  0
  8 13  1  0  0  0  0
  9 17  1  0  0  0  0
 10 14  1  1  0  0  0
 10 18  1  0  0  0  0
 11 15  1  0  0  0  0
 12 11  2  0  0  0  0
 13  4  1  0  0  0  0
 13 15  2  0  0  0  0
 15 10  1  0  0  0  0
 16  6  1  0  0  0  0
 17 20  1  0  0  0  0
 18  9  2  0  0  0  0
 19  7  2  0  0  0  0
 19  1  1  0  0  0  0
 20 21  1  0  0  0  0
 21 22  1  0  0  0  0
 22 30  1  0  0  0  0
 23 24  2  0  0  0  0
 23 32  1  0  0  0  0
 25 28  1  0  0  0  0
 26 32  1  6  0  0  0
 26 29  1  0  0  0  0
 27 23  1  0  0  0  0
 29 28  1  0  0  0  0
 30 33  1  6  0  0  0
 30 25  1  0  0  0  0
 31 24  1  6  0  0  0
 31 26  1  0  0  0  0
 31 30  1  0  0  0  0
 34  2  1  0  0  0  0
 35 34  1  0  0  0  0
 36 35  2  0  0  0  0
 37 35  1  0  0  0  0
 37 38  1  0  0  0  0
 38 39  1  0  0  0  0
 40 39  1  0  0  0  0
 40 43  1  0  0  0  0
 41 40  2  0  0  0  0
 43 44  2  0  0  0  0
 44 47  1  0  0  0  0
 45 42  1  6  0  0  0
 45 49  1  0  0  0  0
 45 50  1  0  0  0  0
 47 48  2  0  0  0  0
 49 43  1  0  0  0  0
 50 46  1  6  0  0  0
 50 47  1  0  0  0  0
M  END
>  <MODEL>
6

>  <REMARK>
 VINA RESULT:      -7.3      3.379     10.001
  Name = 
  10 active torsions:
  status: ('A' for Active; 'I' for Inactive)
    1  A    between atoms: N_2  and  C_43
    2  A    between atoms: C_7  and  C_18
    3  A    between atoms: C_7  and  N_32
    4  A    between atoms: C_13  and  C_39
    5  A    between atoms: C_15  and  C_31
    6  A    between atoms: C_15  and  N_33
    7  A    between atoms: C_18  and  C_23
    8  A    between atoms: C_23  and  C_43
    9  A    between atoms: C_31  and  C_38
   10  A    between atoms: N_33  and  N_46
                            x       y       z     vdW  Elec       q    Type
                         _______ _______ _______ _____ _____    ______ ____

>  <TORSDO>
F 10

$$$$
=
 OpenBabel10232411193D

 50 56  0  0  1  0  0  0  0  0999 V2000
  190.8700  177.5480  146.5890 N   0  0  0  0  0  0  0  0  0  0  0  0
  187.2850  178.1180  144.0380 N   0  0  0  0  0  0  0  0  0  0  0  0
  188.8630  177.5110  142.2900 C   0  0  0  0  0  0  0  0  0  0  0  0
  188.6040  177.6940  143.6180 C   0  0  0  0  0  0  0  0  0  0  0  0
  187.8340  177.9170  141.2610 C   0  0  0  0  0  2  0  0  0  0  0  0
  186.4110  177.8480  141.7920 C   0  0  0  0  0  2  0  0  0  0  0  0
  191.8860  176.0780  147.8350 C   0  0  0  0  0  3  0  0  0  0  0  0
  189.7590  178.2290  145.9560 C   0  0  0  0  0  2  0  0  0  0  0  0
  190.1820  177.0880  141.7330 C   0  0  0  0  0  0  0  0  0  0  0  0
  190.6150  175.4580  143.5100 C   0  0  1  0  0  3  0  0  0  0  0  0
  191.2670  176.5270  145.8640 C   0  0  0  0  0  0  0  0  0  0  0  0
  191.8910  175.5730  146.5730 N   0  0  0  0  0  0  0  0  0  0  0  0
  189.6340  177.4460  144.6610 C   0  0  0  0  0  0  0  0  0  0  0  0
  191.6640  174.3890  143.7570 C   0  0  0  0  0  1  0  0  0  0  0  0
  190.5110  176.4390  144.6340 C   0  0  0  0  0  0  0  0  0  0  0  0
  186.3450  178.6650  143.0650 C   0  0  0  0  0  2  0  0  0  0  0  0
  190.6000  177.6600  140.4890 N   0  0  0  0  0  2  0  0  0  0  0  0
  190.9340  176.1750  142.2880 N   0  0  0  0  0  0  0  0  0  0  0  0
  191.1920  177.2890  147.8630 C   0  0  0  0  0  3  0  0  0  0  0  0
  191.8220  177.3220  139.8840 N   0  0  0  0  0  2  0  0  0  0  0  0
  191.5570  177.0260  138.4860 C   0  0  0  0  0  2  0  0  0  0  0  0
  190.4650  175.9640  138.3820 C   0  0  0  0  0  2  0  0  0  0  0  0
  186.9920  178.4060  137.4410 C   0  0  0  0  0  0  0  0  0  0  0  0
  188.0150  177.9620  138.0840 N   0  0  0  0  0  0  0  0  0  0  0  0
  190.2580  175.7770  135.8930 C   0  0  0  0  0  2  0  0  0  0  0  0
  188.4640  178.0430  135.7410 C   0  0  2  0  0  3  0  0  0  0  0  0
  185.7870  178.7880  138.0950 N   0  0  0  0  0  1  0  0  0  0  0  0
  189.7280  176.5240  134.6600 C   0  0  0  0  0  2  0  0  0  0  0  0
  188.4000  176.9380  134.8660 O   0  0  0  0  0  0  0  0  0  0  0  0
  189.5320  176.1840  137.1890 C   0  0  2  0  0  0  0  0  0  0  0  0
  189.0680  177.6640  137.1200 C   0  0  2  0  0  3  0  0  0  0  0  0
  187.1540  178.4720  136.0710 O   0  0  0  0  0  0  0  0  0  0  0  0
  188.3450  175.2430  137.3600 C   0  0  0  0  0  1  0  0  0  0  0  0
  186.7570  177.6890  145.3320 C   0  0  0  0  0  2  0  0  0  0  0  0
  185.5780  178.5170  145.7350 C   0  0  0  0  0  0  0  0  0  0  0  0
  185.7440  179.5750  146.3160 O   0  0  0  0  0  0  0  0  0  0  0  0
  184.2020  178.0360  145.4170 C   0  0  0  0  0  2  0  0  0  0  0  0
  183.3630  179.1650  144.8440 C   0  0  0  0  0  2  0  0  0  0  0  0
  183.2680  179.0290  143.3970 N   0  0  0  0  0  2  0  0  0  0  0  0
  182.0230  178.9040  142.6970 C   0  0  0  0  0  0  0  0  0  0  0  0
  180.9330  178.9910  143.3290 O   0  0  0  0  0  0  0  0  0  0  0  0
  182.7880  180.3320  138.8800 F   0  0  0  0  0  0  0  0  0  0  0  0
  182.0130  178.6650  141.2400 C   0  0  0  0  0  0  0  0  0  0  0  0
  182.7270  177.6540  140.7240 C   0  0  0  0  0  3  0  0  0  0  0  0
  181.6250  179.5800  138.9180 C   0  0  2  0  0  3  0  0  0  0  0  0
  182.4650  178.2670  137.0900 O   0  0  0  0  0  1  0  0  0  0  0  0
  182.7140  177.3530  139.2830 C   0  0  0  0  0  0  0  0  0  0  0  0
  183.3560  176.3600  138.8500 O   0  0  0  0  0  0  0  0  0  0  0  0
  181.1110  179.4940  140.3580 C   0  0  0  0  0  2  0  0  0  0  0  0
  181.8670  178.1770  138.3500 C   0  0  1  0  0  3  0  0  0  0  0  0
  1 19  1  0  0  0  0
  2 34  1  0  0  0  0
  3  4  2  0  0  0  0
  4  2  1  0  0  0  0
  4 13  1  0  0  0  0
  5  6  1  0  0  0  0
  5  3  1  0  0  0  0
  6 16  1  0  0  0  0
  7 19  2  0  0  0  0
  8  1  1  0  0  0  0
  9 18  2  0  0  0  0
  9  3  1  0  0  0  0
 10 14  1  1  0  0  0
 10 15  1  0  0  0  0
 11 12  2  0  0  0  0
 11  1  1  0  0  0  0
 12  7  1  0  0  0  0
 13  8  1  0  0  0  0
 15 13  2  0  0  0  0
 15 11  1  0  0  0  0
 16  2  1  0  0  0  0
 17  9  1  0  0  0  0
 18 10  1  0  0  0  0
 20 17  1  0  0  0  0
 21 20  1  0  0  0  0
 22 21  1  0  0  0  0
 23 24  2  0  0  0  0
 23 27  1  0  0  0  0
 25 30  1  0  0  0  0
 26 29  1  6  0  0  0
 26 32  1  0  0  0  0
 26 31  1  0  0  0  0
 28 29  1  0  0  0  0
 28 25  1  0  0  0  0
 30 33  1  1  0  0  0
 30 22  1  0  0  0  0
 31 30  1  0  0  0  0
 31 24  1  1  0  0  0
 32 23  1  0  0  0  0
 34 35  1  0  0  0  0
 35 36  2  0  0  0  0
 37 35  1  0  0  0  0
 38 37  1  0  0  0  0
 39 38  1  0  0  0  0
 40 41  2  0  0  0  0
 40 39  1  0  0  0  0
 43 40  1  0  0  0  0
 44 43  2  0  0  0  0
 45 42  1  1  0  0  0
 45 49  1  0  0  0  0
 47 44  1  0  0  0  0
 48 47  2  0  0  0  0
 49 43  1  0  0  0  0
 50 46  1  6  0  0  0
 50 45  1  0  0  0  0
 50 47  1  0  0  0  0
M  END
>  <MODEL>
7

>  <REMARK>
 VINA RESULT:      -7.3      2.621      7.026
  Name = 
  10 active torsions:
  status: ('A' for Active; 'I' for Inactive)
    1  A    between atoms: N_2  and  C_43
    2  A    between atoms: C_7  and  C_18
    3  A    between atoms: C_7  and  N_32
    4  A    between atoms: C_13  and  C_39
    5  A    between atoms: C_15  and  C_31
    6  A    between atoms: C_15  and  N_33
    7  A    between atoms: C_18  and  C_23
    8  A    between atoms: C_23  and  C_43
    9  A    between atoms: C_31  and  C_38
   10  A    between atoms: N_33  and  N_46
                            x       y       z     vdW  Elec       q    Type
                         _______ _______ _______ _____ _____    ______ ____

>  <TORSDO>
F 10

$$$$
=
 OpenBabel10232411193D

 50 56  0  0  1  0  0  0  0  0999 V2000
  181.2290  180.2880  139.0720 N   0  0  0  0  0  0  0  0  0  0  0  0
  182.9650  177.0930  136.5300 N   0  0  0  0  0  0  0  0  0  0  0  0
  184.8710  177.4440  137.9980 C   0  0  0  0  0  0  0  0  0  0  0  0
  183.5810  177.7440  137.6670 C   0  0  0  0  0  0  0  0  0  0  0  0
  185.7010  176.5760  137.0810 C   0  0  0  0  0  2  0  0  0  0  0  0
  184.8590  175.6000  136.2740 C   0  0  0  0  0  2  0  0  0  0  0  0
  179.9820  180.6090  140.8290 C   0  0  0  0  0  3  0  0  0  0  0  0
  181.7140  179.6300  137.8760 C   0  0  0  0  0  2  0  0  0  0  0  0
  185.6190  178.0540  139.1380 C   0  0  0  0  0  0  0  0  0  0  0  0
  183.7020  177.9950  140.6640 C   0  0  1  0  0  3  0  0  0  0  0  0
  181.8110  179.8010  140.1440 C   0  0  0  0  0  0  0  0  0  0  0  0
  181.0890  179.9530  141.2650 N   0  0  0  0  0  0  0  0  0  0  0  0
  182.7700  178.7060  138.4580 C   0  0  0  0  0  0  0  0  0  0  0  0
  183.4950  178.2720  142.1420 C   0  0  0  0  0  1  0  0  0  0  0  0
  182.7970  178.8040  139.7900 C   0  0  0  0  0  0  0  0  0  0  0  0
  183.7880  176.3900  135.5510 C   0  0  0  0  0  2  0  0  0  0  0  0
  187.0120  178.3300  138.9570 N   0  0  0  0  0  2  0  0  0  0  0  0
  185.0800  178.2820  140.3060 N   0  0  0  0  0  0  0  0  0  0  0  0
  180.0340  180.7680  139.4430 C   0  0  0  0  0  3  0  0  0  0  0  0
  187.7990  178.8990  139.9720 N   0  0  0  0  0  2  0  0  0  0  0  0
  188.2340  177.8240  140.8500 C   0  0  0  0  0  2  0  0  0  0  0  0
  188.8500  178.4110  142.1170 C   0  0  0  0  0  2  0  0  0  0  0  0
  190.7910  176.8590  145.6850 C   0  0  0  0  0  0  0  0  0  0  0  0
  190.6320  177.5080  144.5850 N   0  0  0  0  0  0  0  0  0  0  0  0
  186.9450  177.8930  143.6570 C   0  0  0  0  0  2  0  0  0  0  0  0
  188.6890  177.6920  145.9580 C   0  0  2  0  0  3  0  0  0  0  0  0
  191.9890  176.1530  145.9880 N   0  0  0  0  0  1  0  0  0  0  0  0
  186.5890  177.7610  145.1460 C   0  0  0  0  0  2  0  0  0  0  0  0
  187.5130  176.9290  145.8030 O   0  0  0  0  0  0  0  0  0  0  0  0
  188.4410  177.6560  143.3830 C   0  0  2  0  0  0  0  0  0  0  0  0
  189.3030  178.1070  144.5940 C   0  0  2  0  0  3  0  0  0  0  0  0
  189.7060  176.8950  146.5390 O   0  0  0  0  0  0  0  0  0  0  0  0
  188.6230  176.1680  143.1040 C   0  0  0  0  0  1  0  0  0  0  0  0
  181.5270  176.8290  136.5300 C   0  0  0  0  0  2  0  0  0  0  0  0
  180.9590  176.9350  135.1490 C   0  0  0  0  0  0  0  0  0  0  0  0
  180.9760  178.0020  134.5620 O   0  0  0  0  0  0  0  0  0  0  0  0
  180.3800  175.7230  134.5010 C   0  0  0  0  0  2  0  0  0  0  0  0
  180.2180  174.6030  135.5150 C   0  0  0  0  0  2  0  0  0  0  0  0
  181.1540  173.5270  135.2210 N   0  0  0  0  0  2  0  0  0  0  0  0
  182.1170  173.0380  136.1640 C   0  0  0  0  0  0  0  0  0  0  0  0
  182.1270  173.4890  137.3440 O   0  0  0  0  0  0  0  0  0  0  0  0
  186.0630  171.7670  136.0920 F   0  0  0  0  0  0  0  0  0  0  0  0
  183.1000  172.0160  135.7570 C   0  0  0  0  0  0  0  0  0  0  0  0
  182.9730  170.7550  136.1950 C   0  0  0  0  0  3  0  0  0  0  0  0
  185.4160  171.4880  134.8990 C   0  0  2  0  0  3  0  0  0  0  0  0
  186.1410  169.2060  135.0890 O   0  0  0  0  0  1  0  0  0  0  0  0
  183.9070  169.6940  135.7810 C   0  0  0  0  0  0  0  0  0  0  0  0
  183.7180  168.5130  136.1750 O   0  0  0  0  0  0  0  0  0  0  0  0
  184.1770  172.3770  134.7610 C   0  0  0  0  0  2  0  0  0  0  0  0
  185.0260  170.0070  134.8260 C   0  0  1  0  0  3  0  0  0  0  0  0
  1 19  1  0  0  0  0
  1 11  1  0  0  0  0
  2 34  1  0  0  0  0
  2  4  1  0  0  0  0
  3  9  1  0  0  0  0
  4  3  2  0  0  0  0
  4 13  1  0  0  0  0
  5  3  1  0  0  0  0
  6  5  1  0  0  0  0
  7 12  1  0  0  0  0
  8 13  1  0  0  0  0
  8  1  1  0  0  0  0
  9 18  2  0  0  0  0
 10 14  1  1  0  0  0
 11 12  2  0  0  0  0
 13 15  2  0  0  0  0
 15 11  1  0  0  0  0
 15 10  1  0  0  0  0
 16  6  1  0  0  0  0
 16  2  1  0  0  0  0
 17  9  1  0  0  0  0
 17 20  1  0  0  0  0
 18 10  1  0  0  0  0
 19  7  2  0  0  0  0
 20 21  1  0  0  0  0
 21 22  1  0  0  0  0
 22 30  1  0  0  0  0
 23 27  1  0  0  0  0
 23 32  1  0  0  0  0
 24 23  2  0  0  0  0
 25 28  1  0  0  0  0
 26 29  1  6  0  0  0
 26 32  1  0  0  0  0
 28 29  1  0  0  0  0
 30 33  1  6  0  0  0
 30 25  1  0  0  0  0
 30 31  1  0  0  0  0
 31 24  1  6  0  0  0
 31 26  1  0  0  0  0
 35 34  1  0  0  0  0
 36 35  2  0  0  0  0
 37 35  1  0  0  0  0
 37 38  1  0  0  0  0
 39 38  1  0  0  0  0
 39 40  1  0  0  0  0
 40 41  2  0  0  0  0
 43 40  1  0  0  0  0
 43 44  2  0  0  0  0
 45 42  1  1  0  0  0
 47 48  2  0  0  0  0
 47 44  1  0  0  0  0
 49 45  1  0  0  0  0
 49 43  1  0  0  0  0
 50 45  1  0  0  0  0
 50 46  1  1  0  0  0
 50 47  1  0  0  0  0
M  END
>  <MODEL>
8

>  <REMARK>
 VINA RESULT:      -7.2      4.111     10.758
  Name = 
  10 active torsions:
  status: ('A' for Active; 'I' for Inactive)
    1  A    between atoms: N_2  and  C_43
    2  A    between atoms: C_7  and  C_18
    3  A    between atoms: C_7  and  N_32
    4  A    between atoms: C_13  and  C_39
    5  A    between atoms: C_15  and  C_31
    6  A    between atoms: C_15  and  N_33
    7  A    between atoms: C_18  and  C_23
    8  A    between atoms: C_23  and  C_43
    9  A    between atoms: C_31  and  C_38
   10  A    between atoms: N_33  and  N_46
                            x       y       z     vdW  Elec       q    Type
                         _______ _______ _______ _____ _____    ______ ____

>  <TORSDO>
F 10

$$$$
=
 OpenBabel10232411193D

 50 56  0  0  1  0  0  0  0  0999 V2000
  188.5870  177.5770  138.2700 N   0  0  0  0  0  0  0  0  0  0  0  0
  189.4970  173.8610  136.0230 N   0  0  0  0  0  0  0  0  0  0  0  0
  191.6930  174.8970  135.8880 C   0  0  0  0  0  0  0  0  0  0  0  0
  190.4110  174.9330  136.3570 C   0  0  0  0  0  0  0  0  0  0  0  0
  192.0980  173.8400  134.8870 C   0  0  0  0  0  2  0  0  0  0  0  0
  191.2810  172.5640  135.0160 C   0  0  0  0  0  2  0  0  0  0  0  0
  188.4720  178.3900  140.2880 C   0  0  0  0  0  3  0  0  0  0  0  0
  188.5080  176.5820  137.2210 C   0  0  0  0  0  2  0  0  0  0  0  0
  192.7240  175.9440  136.1520 C   0  0  0  0  0  0  0  0  0  0  0  0
  192.0670  176.2570  138.4930 C   0  0  1  0  0  3  0  0  0  0  0  0
  189.7710  177.5660  138.8380 C   0  0  0  0  0  0  0  0  0  0  0  0
  189.7720  178.0420  140.0930 N   0  0  0  0  0  0  0  0  0  0  0  0
  189.9250  176.0340  137.2290 C   0  0  0  0  0  0  0  0  0  0  0  0
  192.6300  177.0260  139.6740 C   0  0  0  0  0  1  0  0  0  0  0  0
  190.6440  176.6070  138.1980 C   0  0  0  0  0  0  0  0  0  0  0  0
  189.8150  172.9350  134.9410 C   0  0  0  0  0  2  0  0  0  0  0  0
  193.6390  176.2670  135.1000 N   0  0  0  0  0  2  0  0  0  0  0  0
  192.8720  176.5250  137.3130 N   0  0  0  0  0  0  0  0  0  0  0  0
  187.7110  178.0430  139.1700 C   0  0  0  0  0  3  0  0  0  0  0  0
  194.6450  177.2350  135.2560 N   0  0  0  0  0  2  0  0  0  0  0  0
  195.9080  176.6270  134.8720 C   0  0  0  0  0  2  0  0  0  0  0  0
  195.7060  175.1350  134.6190 C   0  0  0  0  0  2  0  0  0  0  0  0
  196.0660  174.4440  138.8980 C   0  0  0  0  0  0  0  0  0  0  0  0
  195.5950  174.8820  137.7830 N   0  0  0  0  0  0  0  0  0  0  0  0
  197.0460  173.0250  134.7740 C   0  0  0  0  0  2  0  0  0  0  0  0
  196.3400  172.6260  137.5520 C   0  0  2  0  0  3  0  0  0  0  0  0
  196.1040  175.2420  140.0750 N   0  0  0  0  0  1  0  0  0  0  0  0
  197.3030  171.8150  135.6850 C   0  0  0  0  0  2  0  0  0  0  0  0
  197.5770  172.2350  136.9990 O   0  0  0  0  0  0  0  0  0  0  0  0
  196.5410  174.2540  135.5520 C   0  0  2  0  0  0  0  0  0  0  0  0
  195.7080  173.8210  136.7880 C   0  0  2  0  0  3  0  0  0  0  0  0
  196.5390  173.1470  138.8550 O   0  0  0  0  0  0  0  0  0  0  0  0
  197.7640  175.0640  135.9690 C   0  0  0  0  0  1  0  0  0  0  0  0
  188.4440  173.4800  136.9620 C   0  0  0  0  0  2  0  0  0  0  0  0
  187.1540  173.2200  136.2510 C   0  0  0  0  0  0  0  0  0  0  0  0
  186.6490  172.1120  136.2870 O   0  0  0  0  0  0  0  0  0  0  0  0
  186.4920  174.3300  135.5060 C   0  0  0  0  0  2  0  0  0  0  0  0
  184.9820  174.1640  135.5330 C   0  0  0  0  0  2  0  0  0  0  0  0
  184.4110  174.9850  136.5920 N   0  0  0  0  0  2  0  0  0  0  0  0
  184.0260  176.3540  136.4070 C   0  0  0  0  0  0  0  0  0  0  0  0
  184.0990  176.8800  135.2620 O   0  0  0  0  0  0  0  0  0  0  0  0
  182.7450  176.4500  140.3500 F   0  0  0  0  0  0  0  0  0  0  0  0
  183.5520  177.1510  137.5550 C   0  0  0  0  0  0  0  0  0  0  0  0
  184.3220  178.1290  138.0530 C   0  0  0  0  0  3  0  0  0  0  0  0
  182.0250  177.3310  139.5590 C   0  0  2  0  0  3  0  0  0  0  0  0
  182.5130  179.0780  141.1330 O   0  0  0  0  0  1  0  0  0  0  0  0
  183.8730  178.9770  139.1710 C   0  0  0  0  0  0  0  0  0  0  0  0
  184.6070  179.9180  139.5710 O   0  0  0  0  0  0  0  0  0  0  0  0
  182.1560  176.9300  138.0870 C   0  0  0  0  0  2  0  0  0  0  0  0
  182.5070  178.7700  139.7690 C   0  0  1  0  0  3  0  0  0  0  0  0
  1 11  1  0  0  0  0
  1 19  1  0  0  0  0
  2  4  1  0  0  0  0
  2 34  1  0  0  0  0
  3  9  1  0  0  0  0
  3  4  2  0  0  0  0
  4 13  1  0  0  0  0
  5  6  1  0  0  0  0
  5  3  1  0  0  0  0
  8 13  1  0  0  0  0
  8  1  1  0  0  0  0
  9 18  2  0  0  0  0
 10 14  1  1  0  0  0
 11 12  2  0  0  0  0
 12  7  1  0  0  0  0
 13 15  2  0  0  0  0
 15 10  1  0  0  0  0
 15 11  1  0  0  0  0
 16  6  1  0  0  0  0
 16  2  1  0  0  0  0
 17 20  1  0  0  0  0
 17  9  1  0  0  0  0
 18 10  1  0  0  0  0
 19  7  2  0  0  0  0
 21 20  1  0  0  0  0
 22 21  1  0  0  0  0
 22 30  1  0  0  0  0
 23 27  1  0  0  0  0
 24 23  2  0  0  0  0
 25 30  1  0  0  0  0
 25 28  1  0  0  0  0
 26 29  1  6  0  0  0
 26 32  1  0  0  0  0
 28 29  1  0  0  0  0
 30 33  1  1  0  0  0
 30 31  1  0  0  0  0
 31 26  1  0  0  0  0
 31 24  1  1  0  0  0
 32 23  1  0  0  0  0
 35 36  2  0  0  0  0
 35 34  1  0  0  0  0
 37 38  1  0  0  0  0
 37 35  1  0  0  0  0
 38 39  1  0  0  0  0
 40 39  1  0  0  0  0
 40 43  1  0  0  0  0
 41 40  2  0  0  0  0
 43 44  2  0  0  0  0
 43 49  1  0  0  0  0
 44 47  1  0  0  0  0
 45 50  1  0  0  0  0
 45 42  1  1  0  0  0
 47 48  2  0  0  0  0
 47 50  1  0  0  0  0
 49 45  1  0  0  0  0
 50 46  1  1  0  0  0
M  END
>  <MODEL>
9

>  <REMARK>
 VINA RESULT:      -7.0      3.960      9.808
  Name = 
  10 active torsions:
  status: ('A' for Active; 'I' for Inactive)
    1  A    between atoms: N_2  and  C_43
    2  A    between atoms: C_7  and  C_18
    3  A    between atoms: C_7  and  N_32
    4  A    between atoms: C_13  and  C_39
    5  A    between atoms: C_15  and  C_31
    6  A    between atoms: C_15  and  N_33
    7  A    between atoms: C_18  and  C_23
    8  A    between atoms: C_23  and  C_43
    9  A    between atoms: C_31  and  C_38
   10  A    between atoms: N_33  and  N_46
                            x       y       z     vdW  Elec       q    Type
                         _______ _______ _______ _____ _____    ______ ____

>  <TORSDO>
F 10

$$$$
