=
 OpenBabel10232408393D

 28 31  0  0  1  0  0  0  0  0999 V2000
  184.6780  178.5720  138.3910 N   0  0  0  0  0  0  0  0  0  0  0  0
  183.8290  179.0460  139.5280 C   0  0  1  0  0  3  0  0  0  0  0  0
  183.2800  178.1080  138.6530 C   0  0  2  0  0  3  0  0  0  0  0  0
  181.6010  175.2950  138.6880 C   0  0  0  0  0  0  0  0  0  0  0  0
  181.9750  176.2200  139.5020 N   0  0  0  0  0  0  0  0  0  0  0  0
  182.5410  174.9840  137.6760 N   0  0  0  0  0  0  0  0  0  0  0  0
  183.3050  176.6370  139.0800 C   0  0  1  0  0  3  0  0  0  0  0  0
  183.5480  175.7630  137.8890 C   0  0  0  0  0  3  0  0  0  0  0  0
  180.3390  174.6480  138.7950 N   0  0  0  0  0  1  0  0  0  0  0  0
  185.3840  179.1440  141.4220 C   0  0  0  0  0  3  0  0  0  0  0  0
  184.3840  178.5190  140.8150 C   0  0  0  0  0  3  0  0  0  0  0  0
  185.9590  178.6820  142.6540 N   0  0  0  0  0  0  0  0  0  0  0  0
  188.4700  176.8580  145.9410 N   0  0  0  0  0  0  0  0  0  0  0  0
  185.4990  178.8320  143.9270 C   0  0  0  0  0  0  0  0  0  0  0  0
  185.3410  178.6270  147.0720 C   0  0  0  0  0  1  0  0  0  0  0  0
  186.4060  178.0770  146.1880 C   0  0  0  0  0  0  0  0  0  0  0  0
  187.3810  177.6920  144.0170 C   0  0  0  0  0  0  0  0  0  0  0  0
  188.4450  177.0000  144.5830 C   0  0  0  0  0  3  0  0  0  0  0  0
  186.3840  178.2190  144.7960 C   0  0  0  0  0  0  0  0  0  0  0  0
  187.1150  177.9800  142.6960 C   0  0  0  0  0  3  0  0  0  0  0  0
  187.4880  177.3730  146.7440 C   0  0  0  0  0  3  0  0  0  0  0  0
  184.2680  179.5860  144.3240 C   0  0  0  0  0  2  0  0  0  0  0  0
  183.0530  178.6850  144.2220 C   0  0  0  0  0  1  0  0  0  0  0  0
  186.9810  178.4120  138.2740 N   0  0  0  0  0  0  0  0  0  0  0  0
  185.8750  178.5480  137.6670 N   0  0  0  0  0  0  0  0  0  0  0  0
  188.9560  179.5440  137.3820 O   0  0  0  0  0  1  0  0  0  0  0  0
  188.2120  178.3830  137.5550 C   0  0  0  0  0  0  0  0  0  0  0  0
  188.6270  177.2980  137.0730 O   0  0  0  0  0  0  0  0  0  0  0  0
  1  2  1  0  0  0  0
  2 11  1  1  0  0  0
  3  1  1  6  0  0  0
  3  7  1  0  0  0  0
  3  2  1  0  0  0  0
  4  9  1  0  0  0  0
  4  5  2  0  0  0  0
  6  8  2  0  0  0  0
  6  4  1  0  0  0  0
  7  8  1  6  0  0  0
  7  5  1  0  0  0  0
 10 12  1  0  0  0  0
 11 10  2  0  0  0  0
 12 20  1  0  0  0  0
 12 14  1  0  0  0  0
 13 21  1  0  0  0  0
 14 22  1  0  0  0  0
 14 19  2  0  0  0  0
 16 21  2  0  0  0  0
 16 15  1  0  0  0  0
 17 18  1  0  0  0  0
 17 19  1  0  0  0  0
 18 13  2  0  0  0  0
 19 16  1  0  0  0  0
 20 17  2  0  0  0  0
 23 22  1  0  0  0  0
 25 24  2  0  0  0  0
 25  1  1  0  0  0  0
 26 27  1  0  0  0  0
 27 24  1  0  0  0  0
 28 27  2  0  0  0  0
M  END
>  <MODEL>
1

>  <REMARK>
 VINA RESULT:      -7.6      0.000      0.000
  Name = 
  6 active torsions:
  status: ('A' for Active; 'I' for Inactive)
    1  A    between atoms: C_1  and  C_9
    2  A    between atoms: N_4  and  C_8
    3  A    between atoms: C_12  and  C_28
    4  A    between atoms: C_13  and  N_15
    5  A    between atoms: N_16  and  N_17
    6  A    between atoms: C_20  and  C_23
                            x       y       z     vdW  Elec       q    Type
                         _______ _______ _______ _____ _____    ______ ____

>  <TORSDO>
F 6

$$$$
=
 OpenBabel10232408393D

 28 31  0  0  1  0  0  0  0  0999 V2000
  190.9840  176.1510  138.4250 N   0  0  0  0  0  0  0  0  0  0  0  0
  191.1110  177.3760  139.2730 C   0  0  1  0  0  3  0  0  0  0  0  0
  190.0720  177.3330  138.3440 C   0  0  2  0  0  3  0  0  0  0  0  0
  186.8700  178.0180  138.2090 C   0  0  0  0  0  0  0  0  0  0  0  0
  187.8600  178.1260  139.0260 N   0  0  0  0  0  0  0  0  0  0  0  0
  186.8830  176.8420  137.4210 N   0  0  0  0  0  0  0  0  0  0  0  0
  188.6800  176.9370  138.8500 C   0  0  1  0  0  3  0  0  0  0  0  0
  187.9400  176.1950  137.7820 C   0  0  0  0  0  3  0  0  0  0  0  0
  185.8550  179.0080  138.1030 N   0  0  0  0  0  1  0  0  0  0  0  0
  191.1880  177.8010  141.6870 C   0  0  0  0  0  3  0  0  0  0  0  0
  190.7610  177.0390  140.6890 C   0  0  0  0  0  3  0  0  0  0  0  0
  190.8880  177.5230  143.0630 N   0  0  0  0  0  0  0  0  0  0  0  0
  190.8880  176.3540  147.4300 N   0  0  0  0  0  0  0  0  0  0  0  0
  189.7170  177.6870  143.7380 C   0  0  0  0  0  0  0  0  0  0  0  0
  187.6220  177.6800  146.0980 C   0  0  0  0  0  1  0  0  0  0  0  0
  189.0450  177.2440  146.1580 C   0  0  0  0  0  0  0  0  0  0  0  0
  191.2000  176.8670  145.1450 C   0  0  0  0  0  0  0  0  0  0  0  0
  191.7160  176.3940  146.3460 C   0  0  0  0  0  3  0  0  0  0  0  0
  189.8980  177.2830  145.0500 C   0  0  0  0  0  0  0  0  0  0  0  0
  191.8080  177.0170  143.9180 C   0  0  0  0  0  3  0  0  0  0  0  0
  189.5820  176.7620  147.3640 C   0  0  0  0  0  3  0  0  0  0  0  0
  188.4580  178.2630  143.1680 C   0  0  0  0  0  2  0  0  0  0  0  0
  187.5790  177.1520  142.6270 C   0  0  0  0  0  1  0  0  0  0  0  0
  192.2210  174.7210  137.0960 N   0  0  0  0  0  0  0  0  0  0  0  0
  191.3840  174.8670  138.0390 N   0  0  0  0  0  0  0  0  0  0  0  0
  193.9170  172.9610  137.0070 O   0  0  0  0  0  1  0  0  0  0  0  0
  192.6440  173.4210  136.6890 C   0  0  0  0  0  0  0  0  0  0  0  0
  191.8600  172.6850  136.0370 O   0  0  0  0  0  0  0  0  0  0  0  0
  1  2  1  0  0  0  0
  2 11  1  1  0  0  0
  3  1  1  6  0  0  0
  3  7  1  0  0  0  0
  3  2  1  0  0  0  0
  4  5  2  0  0  0  0
  6  8  2  0  0  0  0
  6  4  1  0  0  0  0
  7  8  1  6  0  0  0
  7  5  1  0  0  0  0
  9  4  1  0  0  0  0
 10 12  1  0  0  0  0
 11 10  2  0  0  0  0
 12 14  1  0  0  0  0
 12 20  1  0  0  0  0
 14 19  2  0  0  0  0
 15 16  1  0  0  0  0
 16 21  2  0  0  0  0
 17 18  1  0  0  0  0
 18 13  2  0  0  0  0
 19 17  1  0  0  0  0
 19 16  1  0  0  0  0
 20 17  2  0  0  0  0
 21 13  1  0  0  0  0
 22 14  1  0  0  0  0
 23 22  1  0  0  0  0
 24 25  2  0  0  0  0
 25  1  1  0  0  0  0
 27 26  1  0  0  0  0
 27 24  1  0  0  0  0
 28 27  2  0  0  0  0
M  END
>  <MODEL>
2

>  <REMARK>
 VINA RESULT:      -7.5      3.799      5.482
  Name = 
  6 active torsions:
  status: ('A' for Active; 'I' for Inactive)
    1  A    between atoms: C_1  and  C_9
    2  A    between atoms: N_4  and  C_8
    3  A    between atoms: C_12  and  C_28
    4  A    between atoms: C_13  and  N_15
    5  A    between atoms: N_16  and  N_17
    6  A    between atoms: C_20  and  C_23
                            x       y       z     vdW  Elec       q    Type
                         _______ _______ _______ _____ _____    ______ ____

>  <TORSDO>
F 6

$$$$
=
 OpenBabel10232408393D

 28 31  0  0  1  0  0  0  0  0999 V2000
  189.8390  177.3010  138.3000 N   0  0  0  0  0  0  0  0  0  0  0  0
  189.1620  178.5650  138.7260 C   0  0  1  0  0  3  0  0  0  0  0  0
  188.6030  177.8530  137.6650 C   0  0  2  0  0  3  0  0  0  0  0  0
  185.7270  176.7230  136.5750 C   0  0  0  0  0  0  0  0  0  0  0  0
  186.1860  177.5230  137.4730 N   0  0  0  0  0  0  0  0  0  0  0  0
  186.5220  175.5730  136.3480 N   0  0  0  0  0  0  0  0  0  0  0  0
  187.4180  176.9310  137.9720 C   0  0  1  0  0  3  0  0  0  0  0  0
  187.5210  175.6780  137.1590 C   0  0  0  0  0  3  0  0  0  0  0  0
  184.5240  176.9820  135.8620 N   0  0  0  0  0  1  0  0  0  0  0  0
  189.2960  178.2280  141.1520 C   0  0  0  0  0  3  0  0  0  0  0  0
  188.5380  178.3660  140.0720 C   0  0  0  0  0  3  0  0  0  0  0  0
  188.7530  178.0290  142.4650 N   0  0  0  0  0  0  0  0  0  0  0  0
  186.1720  177.5050  146.1400 N   0  0  0  0  0  0  0  0  0  0  0  0
  189.4040  177.8250  143.6440 C   0  0  0  0  0  0  0  0  0  0  0  0
  189.8910  177.3140  146.7190 C   0  0  0  0  0  1  0  0  0  0  0  0
  188.5790  177.4570  146.0280 C   0  0  0  0  0  0  0  0  0  0  0  0
  187.2410  177.8180  144.0560 C   0  0  0  0  0  0  0  0  0  0  0  0
  186.0680  177.7280  144.7970 C   0  0  0  0  0  3  0  0  0  0  0  0
  188.4670  177.6860  144.6520 C   0  0  0  0  0  0  0  0  0  0  0  0
  187.4210  178.0300  142.7060 C   0  0  0  0  0  3  0  0  0  0  0  0
  187.3840  177.3700  146.7640 C   0  0  0  0  0  3  0  0  0  0  0  0
  190.8870  177.7130  143.8090 C   0  0  0  0  0  2  0  0  0  0  0  0
  191.4950  179.0910  143.9850 C   0  0  0  0  0  1  0  0  0  0  0  0
  191.9410  176.4680  137.8200 N   0  0  0  0  0  0  0  0  0  0  0  0
  190.8360  176.3290  138.4290 N   0  0  0  0  0  0  0  0  0  0  0  0
  194.2480  175.8550  138.3500 O   0  0  0  0  0  1  0  0  0  0  0  0
  192.9710  175.4890  137.9410 C   0  0  0  0  0  0  0  0  0  0  0  0
  192.7220  174.2850  137.6750 O   0  0  0  0  0  0  0  0  0  0  0  0
  1 25  1  0  0  0  0
  1  2  1  0  0  0  0
  2 11  1  1  0  0  0
  3  7  1  0  0  0  0
  3  1  1  1  0  0  0
  3  2  1  0  0  0  0
  4  5  2  0  0  0  0
  5  7  1  0  0  0  0
  6  4  1  0  0  0  0
  6  8  2  0  0  0  0
  7  8  1  6  0  0  0
  9  4  1  0  0  0  0
 10 12  1  0  0  0  0
 11 10  2  0  0  0  0
 12 20  1  0  0  0  0
 12 14  1  0  0  0  0
 13 21  1  0  0  0  0
 14 22  1  0  0  0  0
 14 19  2  0  0  0  0
 16 15  1  0  0  0  0
 16 21  2  0  0  0  0
 17 19  1  0  0  0  0
 17 18  1  0  0  0  0
 18 13  2  0  0  0  0
 19 16  1  0  0  0  0
 20 17  2  0  0  0  0
 22 23  1  0  0  0  0
 24 27  1  0  0  0  0
 24 25  2  0  0  0  0
 27 26  1  0  0  0  0
 28 27  2  0  0  0  0
M  END
>  <MODEL>
3

>  <REMARK>
 VINA RESULT:      -7.3      3.131      4.625
  Name = 
  6 active torsions:
  status: ('A' for Active; 'I' for Inactive)
    1  A    between atoms: C_1  and  C_9
    2  A    between atoms: N_4  and  C_8
    3  A    between atoms: C_12  and  C_28
    4  A    between atoms: C_13  and  N_15
    5  A    between atoms: N_16  and  N_17
    6  A    between atoms: C_20  and  C_23
                            x       y       z     vdW  Elec       q    Type
                         _______ _______ _______ _____ _____    ______ ____

>  <TORSDO>
F 6

$$$$
=
 OpenBabel10232408393D

 28 31  0  0  1  0  0  0  0  0999 V2000
  189.2800  177.0560  138.7180 N   0  0  0  0  0  0  0  0  0  0  0  0
  189.2560  178.3010  139.5460 C   0  0  1  0  0  3  0  0  0  0  0  0
  188.2900  178.1630  138.5490 C   0  0  2  0  0  3  0  0  0  0  0  0
  185.1200  178.9560  138.7850 C   0  0  0  0  0  0  0  0  0  0  0  0
  186.1400  178.7690  139.5480 N   0  0  0  0  0  0  0  0  0  0  0  0
  185.0540  178.0910  137.6660 N   0  0  0  0  0  0  0  0  0  0  0  0
  186.9010  177.6720  138.9690 C   0  0  1  0  0  3  0  0  0  0  0  0
  186.0920  177.3300  137.7560 C   0  0  0  0  0  3  0  0  0  0  0  0
  184.1460  179.9600  139.0430 N   0  0  0  0  0  1  0  0  0  0  0  0
  189.5990  178.2920  141.9750 C   0  0  0  0  0  3  0  0  0  0  0  0
  188.8350  177.9620  140.9420 C   0  0  0  0  0  3  0  0  0  0  0  0
  189.2480  177.9880  143.3330 N   0  0  0  0  0  0  0  0  0  0  0  0
  187.2360  177.3030  147.3230 N   0  0  0  0  0  0  0  0  0  0  0  0
  190.0410  177.5440  144.3470 C   0  0  0  0  0  0  0  0  0  0  0  0
  190.9290  176.5620  147.2110 C   0  0  0  0  0  1  0  0  0  0  0  0
  189.5600  176.9640  146.7830 C   0  0  0  0  0  0  0  0  0  0  0  0
  187.9940  177.7570  145.1310 C   0  0  0  0  0  0  0  0  0  0  0  0
  186.9540  177.7170  146.0530 C   0  0  0  0  0  3  0  0  0  0  0  0
  189.2660  177.3900  145.4840 C   0  0  0  0  0  0  0  0  0  0  0  0
  187.9870  178.1250  143.8040 C   0  0  0  0  0  3  0  0  0  0  0  0
  188.4980  176.9310  147.7040 C   0  0  0  0  0  3  0  0  0  0  0  0
  191.4990  177.2220  144.2350 C   0  0  0  0  0  2  0  0  0  0  0  0
  191.6780  175.7990  143.7430 C   0  0  0  0  0  1  0  0  0  0  0  0
  190.9670  175.7070  137.8950 N   0  0  0  0  0  0  0  0  0  0  0  0
  189.8020  175.8000  138.3880 N   0  0  0  0  0  0  0  0  0  0  0  0
  192.8940  174.2380  137.5640 O   0  0  0  0  0  1  0  0  0  0  0  0
  191.5180  174.4360  137.5540 C   0  0  0  0  0  0  0  0  0  0  0  0
  190.7530  173.4880  137.2430 O   0  0  0  0  0  0  0  0  0  0  0  0
  1  2  1  0  0  0  0
  2 11  1  1  0  0  0
  3  1  1  6  0  0  0
  3  7  1  0  0  0  0
  3  2  1  0  0  0  0
  4  9  1  0  0  0  0
  4  5  2  0  0  0  0
  6  8  2  0  0  0  0
  6  4  1  0  0  0  0
  7  8  1  6  0  0  0
  7  5  1  0  0  0  0
 10 12  1  0  0  0  0
 11 10  2  0  0  0  0
 12 20  1  0  0  0  0
 12 14  1  0  0  0  0
 13 21  1  0  0  0  0
 14 19  2  0  0  0  0
 16 15  1  0  0  0  0
 16 21  2  0  0  0  0
 17 19  1  0  0  0  0
 17 18  1  0  0  0  0
 18 13  2  0  0  0  0
 19 16  1  0  0  0  0
 20 17  2  0  0  0  0
 22 14  1  0  0  0  0
 23 22  1  0  0  0  0
 24 25  2  0  0  0  0
 25  1  1  0  0  0  0
 27 26  1  0  0  0  0
 27 24  1  0  0  0  0
 28 27  2  0  0  0  0
M  END
>  <MODEL>
4

>  <REMARK>
 VINA RESULT:      -7.3      3.035      4.747
  Name = 
  6 active torsions:
  status: ('A' for Active; 'I' for Inactive)
    1  A    between atoms: C_1  and  C_9
    2  A    between atoms: N_4  and  C_8
    3  A    between atoms: C_12  and  C_28
    4  A    between atoms: C_13  and  N_15
    5  A    between atoms: N_16  and  N_17
    6  A    between atoms: C_20  and  C_23
                            x       y       z     vdW  Elec       q    Type
                         _______ _______ _______ _____ _____    ______ ____

>  <TORSDO>
F 6

$$$$
=
 OpenBabel10232408393D

 28 31  0  0  1  0  0  0  0  0999 V2000
  184.7080  178.0390  137.9080 N   0  0  0  0  0  0  0  0  0  0  0  0
  183.6050  178.6390  138.7200 C   0  0  1  0  0  3  0  0  0  0  0  0
  183.2930  177.5570  137.8980 C   0  0  2  0  0  3  0  0  0  0  0  0
  181.6950  174.6970  137.9540 C   0  0  0  0  0  0  0  0  0  0  0  0
  181.8360  175.7520  138.6780 N   0  0  0  0  0  0  0  0  0  0  0  0
  182.8670  174.2870  137.2740 N   0  0  0  0  0  0  0  0  0  0  0  0
  183.2240  176.1690  138.5450 C   0  0  1  0  0  3  0  0  0  0  0  0
  183.7760  175.1400  137.6070 C   0  0  0  0  0  3  0  0  0  0  0  0
  180.4550  174.0080  137.8400 N   0  0  0  0  0  1  0  0  0  0  0  0
  184.7090  179.0470  140.8730 C   0  0  0  0  0  3  0  0  0  0  0  0
  183.8350  178.3390  140.1690 C   0  0  0  0  0  3  0  0  0  0  0  0
  184.9730  178.8000  142.2620 N   0  0  0  0  0  0  0  0  0  0  0  0
  184.9070  178.4220  146.7660 N   0  0  0  0  0  0  0  0  0  0  0  0
  186.0750  178.2510  142.8440 C   0  0  0  0  0  0  0  0  0  0  0  0
  188.0270  177.1620  145.0700 C   0  0  0  0  0  1  0  0  0  0  0  0
  186.6760  177.7530  145.2710 C   0  0  0  0  0  0  0  0  0  0  0  0
  184.6460  178.7560  144.4420 C   0  0  0  0  0  0  0  0  0  0  0  0
  184.1390  178.8680  145.7310 C   0  0  0  0  0  3  0  0  0  0  0  0
  185.8830  178.2120  144.2140 C   0  0  0  0  0  0  0  0  0  0  0  0
  184.0880  179.1170  143.2350 C   0  0  0  0  0  3  0  0  0  0  0  0
  186.1480  177.8750  146.5690 C   0  0  0  0  0  3  0  0  0  0  0  0
  187.2710  177.7240  142.1150 C   0  0  0  0  0  2  0  0  0  0  0  0
  188.1700  178.8720  141.6960 C   0  0  0  0  0  1  0  0  0  0  0  0
  186.9680  178.3510  138.2840 N   0  0  0  0  0  0  0  0  0  0  0  0
  186.0460  177.9610  137.5040 N   0  0  0  0  0  0  0  0  0  0  0  0
  188.9810  179.3900  137.3640 O   0  0  0  0  0  0  0  0  0  0  0  0
  188.3370  178.2770  137.8920 C   0  0  0  0  0  0  0  0  0  0  0  0
  188.9670  177.1970  138.0260 O   0  0  0  0  0  1  0  0  0  0  0  0
  1  2  1  0  0  0  0
  2 11  1  1  0  0  0
  3  1  1  6  0  0  0
  3  7  1  0  0  0  0
  3  2  1  0  0  0  0
  4  5  2  0  0  0  0
  6  8  2  0  0  0  0
  6  4  1  0  0  0  0
  7  8  1  6  0  0  0
  7  5  1  0  0  0  0
  9  4  1  0  0  0  0
 10 12  1  0  0  0  0
 11 10  2  0  0  0  0
 12 14  1  0  0  0  0
 12 20  1  0  0  0  0
 14 19  2  0  0  0  0
 15 16  1  0  0  0  0
 16 21  2  0  0  0  0
 17 18  1  0  0  0  0
 18 13  2  0  0  0  0
 19 17  1  0  0  0  0
 19 16  1  0  0  0  0
 20 17  2  0  0  0  0
 21 13  1  0  0  0  0
 22 14  1  0  0  0  0
 23 22  1  0  0  0  0
 25  1  1  0  0  0  0
 25 24  2  0  0  0  0
 26 27  2  0  0  0  0
 27 28  1  0  0  0  0
 27 24  1  0  0  0  0
M  END
>  <MODEL>
5

>  <REMARK>
 VINA RESULT:      -7.3      1.158      2.228
  Name = 
  6 active torsions:
  status: ('A' for Active; 'I' for Inactive)
    1  A    between atoms: C_1  and  C_9
    2  A    between atoms: N_4  and  C_8
    3  A    between atoms: C_12  and  C_28
    4  A    between atoms: C_13  and  N_15
    5  A    between atoms: N_16  and  N_17
    6  A    between atoms: C_20  and  C_23
                            x       y       z     vdW  Elec       q    Type
                         _______ _______ _______ _____ _____    ______ ____

>  <TORSDO>
F 6

$$$$
=
 OpenBabel10232408393D

 28 31  0  0  1  0  0  0  0  0999 V2000
  190.4980  175.4920  137.7770 N   0  0  0  0  0  0  0  0  0  0  0  0
  191.2560  176.4720  138.6170 C   0  0  1  0  0  3  0  0  0  0  0  0
  190.3410  176.9770  137.6930 C   0  0  2  0  0  3  0  0  0  0  0  0
  187.6720  178.7850  137.1080 C   0  0  0  0  0  0  0  0  0  0  0  0
  188.6860  178.7680  137.9010 N   0  0  0  0  0  0  0  0  0  0  0  0
  187.1540  177.5080  136.7840 N   0  0  0  0  0  0  0  0  0  0  0  0
  188.9530  177.3710  138.2090 C   0  0  1  0  0  3  0  0  0  0  0  0
  187.8950  176.6640  137.4210 C   0  0  0  0  0  3  0  0  0  0  0  0
  187.1260  179.9930  136.5920 N   0  0  0  0  0  1  0  0  0  0  0  0
  191.1300  177.3000  140.9220 C   0  0  0  0  0  3  0  0  0  0  0  0
  190.7920  176.3720  140.0370 C   0  0  0  0  0  3  0  0  0  0  0  0
  190.7190  177.2520  142.2960 N   0  0  0  0  0  0  0  0  0  0  0  0
  190.3970  177.0410  146.8010 N   0  0  0  0  0  0  0  0  0  0  0  0
  189.4630  177.2850  142.8200 C   0  0  0  0  0  0  0  0  0  0  0  0
  187.1280  177.2960  144.9430 C   0  0  0  0  0  1  0  0  0  0  0  0
  188.5900  177.2130  145.2150 C   0  0  0  0  0  0  0  0  0  0  0  0
  190.8880  177.1280  144.4910 C   0  0  0  0  0  0  0  0  0  0  0  0
  191.3310  177.0410  145.8060 C   0  0  0  0  0  3  0  0  0  0  0  0
  189.5520  177.2120  144.1990 C   0  0  0  0  0  0  0  0  0  0  0  0
  191.6050  177.1530  143.3150 C   0  0  0  0  0  3  0  0  0  0  0  0
  189.0550  177.1230  146.5390 C   0  0  0  0  0  3  0  0  0  0  0  0
  188.1970  177.4330  142.0350 C   0  0  0  0  0  2  0  0  0  0  0  0
  188.0820  178.8470  141.4990 C   0  0  0  0  0  1  0  0  0  0  0  0
  189.7050  173.9650  136.2340 N   0  0  0  0  0  0  0  0  0  0  0  0
  190.1630  174.1890  137.3970 N   0  0  0  0  0  0  0  0  0  0  0  0
  190.2060  171.9170  134.9950 O   0  0  0  0  0  0  0  0  0  0  0  0
  189.3600  172.6420  135.8260 C   0  0  0  0  0  0  0  0  0  0  0  0
  188.2830  172.1280  136.2220 O   0  0  0  0  0  1  0  0  0  0  0  0
  1  2  1  0  0  0  0
  2 11  1  1  0  0  0
  3  1  1  6  0  0  0
  3  7  1  0  0  0  0
  3  2  1  0  0  0  0
  4  5  2  0  0  0  0
  5  7  1  0  0  0  0
  6  4  1  0  0  0  0
  6  8  2  0  0  0  0
  7  8  1  6  0  0  0
  9  4  1  0  0  0  0
 10 12  1  0  0  0  0
 11 10  2  0  0  0  0
 12 14  1  0  0  0  0
 12 20  1  0  0  0  0
 14 19  2  0  0  0  0
 15 16  1  0  0  0  0
 16 21  2  0  0  0  0
 17 18  1  0  0  0  0
 18 13  2  0  0  0  0
 19 17  1  0  0  0  0
 19 16  1  0  0  0  0
 20 17  2  0  0  0  0
 21 13  1  0  0  0  0
 22 14  1  0  0  0  0
 23 22  1  0  0  0  0
 24 25  2  0  0  0  0
 25  1  1  0  0  0  0
 26 27  2  0  0  0  0
 27 28  1  0  0  0  0
 27 24  1  0  0  0  0
M  END
>  <MODEL>
6

>  <REMARK>
 VINA RESULT:      -6.9      4.069      5.630
  Name = 
  6 active torsions:
  status: ('A' for Active; 'I' for Inactive)
    1  A    between atoms: C_1  and  C_9
    2  A    between atoms: N_4  and  C_8
    3  A    between atoms: C_12  and  C_28
    4  A    between atoms: C_13  and  N_15
    5  A    between atoms: N_16  and  N_17
    6  A    between atoms: C_20  and  C_23
                            x       y       z     vdW  Elec       q    Type
                         _______ _______ _______ _____ _____    ______ ____

>  <TORSDO>
F 6

$$$$
=
 OpenBabel10232408393D

 28 31  0  0  1  0  0  0  0  0999 V2000
  189.5070  177.1800  137.1590 N   0  0  0  0  0  0  0  0  0  0  0  0
  188.4370  178.0320  137.7660 C   0  0  1  0  0  3  0  0  0  0  0  0
  188.0510  177.0640  136.8390 C   0  0  2  0  0  3  0  0  0  0  0  0
  186.0120  174.5620  136.2740 C   0  0  0  0  0  0  0  0  0  0  0  0
  186.1070  175.5920  137.0410 N   0  0  0  0  0  0  0  0  0  0  0  0
  187.2420  173.9180  135.9980 N   0  0  0  0  0  0  0  0  0  0  0  0
  187.5150  175.7350  137.3800 C   0  0  1  0  0  3  0  0  0  0  0  0
  188.1370  174.5930  136.6380 C   0  0  0  0  0  3  0  0  0  0  0  0
  184.7710  174.1170  135.7410 N   0  0  0  0  0  1  0  0  0  0  0  0
  187.7100  178.5290  140.0550 C   0  0  0  0  0  3  0  0  0  0  0  0
  188.2810  177.6780  139.2120 C   0  0  0  0  0  3  0  0  0  0  0  0
  187.5390  178.2450  141.4510 N   0  0  0  0  0  0  0  0  0  0  0  0
  187.9170  176.9860  145.7770 N   0  0  0  0  0  0  0  0  0  0  0  0
  186.4630  178.4810  142.2510 C   0  0  0  0  0  0  0  0  0  0  0  0
  184.6380  178.5800  144.8240 C   0  0  0  0  0  1  0  0  0  0  0  0
  186.0220  178.0390  144.7240 C   0  0  0  0  0  0  0  0  0  0  0  0
  188.0200  177.5240  143.4780 C   0  0  0  0  0  0  0  0  0  0  0  0
  188.6240  176.9880  144.6100 C   0  0  0  0  0  3  0  0  0  0  0  0
  186.7510  178.0380  143.5300 C   0  0  0  0  0  0  0  0  0  0  0  0
  188.5030  177.6540  142.1950 C   0  0  0  0  0  3  0  0  0  0  0  0
  186.6460  177.4920  145.8580 C   0  0  0  0  0  3  0  0  0  0  0  0
  185.1980  179.1610  141.8290 C   0  0  0  0  0  2  0  0  0  0  0  0
  184.1810  178.1300  141.3770 C   0  0  0  0  0  1  0  0  0  0  0  0
  191.4690  176.3320  138.0370 N   0  0  0  0  0  0  0  0  0  0  0  0
  190.8390  176.7740  137.0280 N   0  0  0  0  0  0  0  0  0  0  0  0
  193.1350  174.6370  137.4580 O   0  0  0  0  0  0  0  0  0  0  0  0
  192.8280  175.9100  137.9240 C   0  0  0  0  0  0  0  0  0  0  0  0
  193.7540  176.6970  138.2470 O   0  0  0  0  0  1  0  0  0  0  0  0
  1  2  1  0  0  0  0
  2 11  1  1  0  0  0
  3  1  1  1  0  0  0
  3  7  1  0  0  0  0
  3  2  1  0  0  0  0
  4  5  2  0  0  0  0
  5  7  1  0  0  0  0
  6  4  1  0  0  0  0
  6  8  2  0  0  0  0
  7  8  1  6  0  0  0
  9  4  1  0  0  0  0
 10 12  1  0  0  0  0
 11 10  2  0  0  0  0
 12 20  1  0  0  0  0
 12 14  1  0  0  0  0
 13 21  1  0  0  0  0
 14 19  2  0  0  0  0
 16 15  1  0  0  0  0
 16 21  2  0  0  0  0
 17 19  1  0  0  0  0
 17 18  1  0  0  0  0
 18 13  2  0  0  0  0
 19 16  1  0  0  0  0
 20 17  2  0  0  0  0
 22 14  1  0  0  0  0
 23 22  1  0  0  0  0
 25  1  1  0  0  0  0
 25 24  2  0  0  0  0
 26 27  2  0  0  0  0
 27 24  1  0  0  0  0
 27 28  1  0  0  0  0
M  END
>  <MODEL>
7

>  <REMARK>
 VINA RESULT:      -6.8      2.910      3.986
  Name = 
  6 active torsions:
  status: ('A' for Active; 'I' for Inactive)
    1  A    between atoms: C_1  and  C_9
    2  A    between atoms: N_4  and  C_8
    3  A    between atoms: C_12  and  C_28
    4  A    between atoms: C_13  and  N_15
    5  A    between atoms: N_16  and  N_17
    6  A    between atoms: C_20  and  C_23
                            x       y       z     vdW  Elec       q    Type
                         _______ _______ _______ _____ _____    ______ ____

>  <TORSDO>
F 6

$$$$
=
 OpenBabel10232408393D

 28 31  0  0  1  0  0  0  0  0999 V2000
  192.0740  175.5540  138.0720 N   0  0  0  0  0  0  0  0  0  0  0  0
  191.6810  176.8980  138.5970 C   0  0  1  0  0  3  0  0  0  0  0  0
  190.9480  176.3760  137.5310 C   0  0  2  0  0  3  0  0  0  0  0  0
  187.8350  175.9810  136.5880 C   0  0  0  0  0  0  0  0  0  0  0  0
  188.5090  176.5700  137.5140 N   0  0  0  0  0  0  0  0  0  0  0  0
  188.3520  174.7240  136.1920 N   0  0  0  0  0  0  0  0  0  0  0  0
  189.6170  175.6890  137.8510 C   0  0  1  0  0  3  0  0  0  0  0  0
  189.4000  174.5360  136.9220 C   0  0  0  0  0  3  0  0  0  0  0  0
  186.6720  176.5560  136.0060 N   0  0  0  0  0  1  0  0  0  0  0  0
  191.3900  177.5980  140.9300 C   0  0  0  0  0  3  0  0  0  0  0  0
  191.0850  176.7440  139.9610 C   0  0  0  0  0  3  0  0  0  0  0  0
  190.8540  177.4950  142.2570 N   0  0  0  0  0  0  0  0  0  0  0  0
  190.1150  177.2010  146.7070 N   0  0  0  0  0  0  0  0  0  0  0  0
  189.5550  177.4030  142.6550 C   0  0  0  0  0  0  0  0  0  0  0  0
  187.0340  177.1680  144.5380 C   0  0  0  0  0  1  0  0  0  0  0  0
  188.4640  177.2200  144.9520 C   0  0  0  0  0  0  0  0  0  0  0  0
  190.8190  177.3610  144.4570 C   0  0  0  0  0  0  0  0  0  0  0  0
  191.1380  177.3010  145.8090 C   0  0  0  0  0  3  0  0  0  0  0  0
  189.5160  177.3220  144.0360 C   0  0  0  0  0  0  0  0  0  0  0  0
  191.6410  177.4680  143.3570 C   0  0  0  0  0  3  0  0  0  0  0  0
  188.8040  177.1590  146.3150 C   0  0  0  0  0  3  0  0  0  0  0  0
  188.3630  177.4400  141.7490 C   0  0  0  0  0  2  0  0  0  0  0  0
  188.0160  178.8770  141.4090 C   0  0  0  0  0  1  0  0  0  0  0  0
  194.0140  174.4040  137.5680 N   0  0  0  0  0  0  0  0  0  0  0  0
  192.8610  174.3980  138.0980 N   0  0  0  0  0  0  0  0  0  0  0  0
  195.1580  172.6200  138.7900 O   0  0  0  0  0  1  0  0  0  0  0  0
  194.8340  173.2360  137.5860 C   0  0  0  0  0  0  0  0  0  0  0  0
  195.2660  172.7600  136.5060 O   0  0  0  0  0  0  0  0  0  0  0  0
  1 25  1  0  0  0  0
  1  2  1  0  0  0  0
  2 11  1  1  0  0  0
  3  7  1  0  0  0  0
  3  1  1  1  0  0  0
  3  2  1  0  0  0  0
  4  5  2  0  0  0  0
  5  7  1  0  0  0  0
  6  4  1  0  0  0  0
  6  8  2  0  0  0  0
  7  8  1  6  0  0  0
  9  4  1  0  0  0  0
 10 12  1  0  0  0  0
 11 10  2  0  0  0  0
 12 14  1  0  0  0  0
 12 20  1  0  0  0  0
 14 19  2  0  0  0  0
 15 16  1  0  0  0  0
 16 21  2  0  0  0  0
 17 18  1  0  0  0  0
 18 13  2  0  0  0  0
 19 17  1  0  0  0  0
 19 16  1  0  0  0  0
 20 17  2  0  0  0  0
 21 13  1  0  0  0  0
 22 14  1  0  0  0  0
 23 22  1  0  0  0  0
 24 27  1  0  0  0  0
 24 25  2  0  0  0  0
 27 26  1  0  0  0  0
 28 27  2  0  0  0  0
M  END
>  <MODEL>
8

>  <REMARK>
 VINA RESULT:      -6.7      4.433      6.203
  Name = 
  6 active torsions:
  status: ('A' for Active; 'I' for Inactive)
    1  A    between atoms: C_1  and  C_9
    2  A    between atoms: N_4  and  C_8
    3  A    between atoms: C_12  and  C_28
    4  A    between atoms: C_13  and  N_15
    5  A    between atoms: N_16  and  N_17
    6  A    between atoms: C_20  and  C_23
                            x       y       z     vdW  Elec       q    Type
                         _______ _______ _______ _____ _____    ______ ____

>  <TORSDO>
F 6

$$$$
=
 OpenBabel10232408393D

 28 31  0  0  1  0  0  0  0  0999 V2000
  181.9480  179.2230  139.9440 N   0  0  0  0  0  0  0  0  0  0  0  0
  182.2260  178.6640  141.3030 C   0  0  1  0  0  3  0  0  0  0  0  0
  181.5480  177.8540  140.3930 C   0  0  2  0  0  3  0  0  0  0  0  0
  181.3890  175.2620  138.3940 C   0  0  0  0  0  0  0  0  0  0  0  0
  181.6610  175.5340  139.6230 N   0  0  0  0  0  0  0  0  0  0  0  0
  181.8240  176.2380  137.4650 N   0  0  0  0  0  0  0  0  0  0  0  0
  182.3640  176.8080  139.6250 C   0  0  1  0  0  3  0  0  0  0  0  0
  182.3980  177.1540  138.1690 C   0  0  0  0  0  3  0  0  0  0  0  0
  180.6970  174.0810  138.0070 N   0  0  0  0  0  1  0  0  0  0  0  0
  184.2600  178.4150  142.6510 C   0  0  0  0  0  3  0  0  0  0  0  0
  183.6970  178.4240  141.4510 C   0  0  0  0  0  3  0  0  0  0  0  0
  185.6640  178.1950  142.8520 N   0  0  0  0  0  0  0  0  0  0  0  0
  190.1410  177.6690  142.5080 N   0  0  0  0  0  0  0  0  0  0  0  0
  186.3330  177.8970  144.0000 C   0  0  0  0  0  0  0  0  0  0  0  0
  188.7100  177.2340  145.9660 C   0  0  0  0  0  1  0  0  0  0  0  0
  188.8000  177.4890  144.5020 C   0  0  0  0  0  0  0  0  0  0  0  0
  187.8050  177.9960  142.3650 C   0  0  0  0  0  0  0  0  0  0  0  0
  189.0470  177.9470  141.7410 C   0  0  0  0  0  3  0  0  0  0  0  0
  187.6810  177.7740  143.7110 C   0  0  0  0  0  0  0  0  0  0  0  0
  186.5590  178.2560  141.8380 C   0  0  0  0  0  3  0  0  0  0  0  0
  190.0470  177.4410  143.8550 C   0  0  0  0  0  3  0  0  0  0  0  0
  185.7180  177.7800  145.3590 C   0  0  0  0  0  2  0  0  0  0  0  0
  185.5820  179.1540  145.9870 C   0  0  0  0  0  1  0  0  0  0  0  0
  181.0390  180.9860  138.7570 N   0  0  0  0  0  0  0  0  0  0  0  0
  182.0360  180.2330  138.9810 N   0  0  0  0  0  0  0  0  0  0  0  0
  180.6460  181.8090  136.4880 O   0  0  0  0  0  0  0  0  0  0  0  0
  181.1100  182.0240  137.7810 C   0  0  0  0  0  0  0  0  0  0  0  0
  181.5950  183.1410  138.0930 O   0  0  0  0  0  1  0  0  0  0  0  0
  1  2  1  0  0  0  0
  2 11  1  6  0  0  0
  3  1  1  6  0  0  0
  3  2  1  0  0  0  0
  4  5  2  0  0  0  0
  5  7  1  0  0  0  0
  6  8  2  0  0  0  0
  6  4  1  0  0  0  0
  7  8  1  6  0  0  0
  7  3  1  0  0  0  0
  9  4  1  0  0  0  0
 10 12  1  0  0  0  0
 11 10  2  0  0  0  0
 12 14  1  0  0  0  0
 13 21  1  0  0  0  0
 14 22  1  0  0  0  0
 16 15  1  0  0  0  0
 17 19  1  0  0  0  0
 18 17  1  0  0  0  0
 18 13  2  0  0  0  0
 19 14  2  0  0  0  0
 19 16  1  0  0  0  0
 20 17  2  0  0  0  0
 20 12  1  0  0  0  0
 21 16  2  0  0  0  0
 22 23  1  0  0  0  0
 24 25  2  0  0  0  0
 25  1  1  0  0  0  0
 26 27  2  0  0  0  0
 27 28  1  0  0  0  0
 27 24  1  0  0  0  0
M  END
>  <MODEL>
9

>  <REMARK>
 VINA RESULT:      -6.7      3.119      3.817
  Name = 
  6 active torsions:
  status: ('A' for Active; 'I' for Inactive)
    1  A    between atoms: C_1  and  C_9
    2  A    between atoms: N_4  and  C_8
    3  A    between atoms: C_12  and  C_28
    4  A    between atoms: C_13  and  N_15
    5  A    between atoms: N_16  and  N_17
    6  A    between atoms: C_20  and  C_23
                            x       y       z     vdW  Elec       q    Type
                         _______ _______ _______ _____ _____    ______ ____

>  <TORSDO>
F 6

$$$$
