=
 OpenBabel10232410173D

 41 43  0  0  1  0  0  0  0  0999 V2000
  185.7520  177.9110  145.6100 N   0  0  0  0  0  0  0  0  0  0  0  0
  191.5200  176.5950  146.5880 C   0  0  0  0  0  1  0  0  0  0  0  0
  190.1380  176.9250  146.1560 C   0  0  0  0  0  0  0  0  0  0  0  0
  189.7800  176.8510  144.9190 C   0  0  0  0  0  0  0  0  0  0  0  0
  189.0310  176.9450  143.8710 C   0  0  0  0  0  0  0  0  0  0  0  0
  187.0900  178.5490  147.4460 N   0  0  0  0  0  0  0  0  0  0  0  0
  189.1890  177.5020  147.0630 N   0  0  0  0  0  2  0  0  0  0  0  0
  187.7170  177.6660  144.1110 C   0  0  2  0  0  3  0  0  0  0  0  0
  185.7640  178.6650  146.8690 C   0  0  0  0  0  3  0  0  0  0  0  0
  187.0820  177.3100  145.4910 C   0  0  1  0  0  3  0  0  0  0  0  0
  187.8300  177.8330  146.6870 C   0  0  0  0  0  0  0  0  0  0  0  0
  189.3270  176.1590  142.6350 C   0  0  0  0  0  2  0  0  0  0  0  0
  190.5810  176.6910  141.9590 C   0  0  0  0  0  2  0  0  0  0  0  0
  190.2150  177.5560  140.7660 C   0  0  0  0  0  2  0  0  0  0  0  0
  190.9360  175.0150  138.1750 N   0  0  0  0  0  1  0  0  0  0  0  0
  190.2700  177.4110  138.2990 C   0  0  2  0  0  3  0  0  0  0  0  0
  191.1460  176.2840  138.8550 C   0  0  1  0  0  3  0  0  0  0  0  0
  189.8720  176.6900  139.5680 C   0  0  1  0  0  3  0  0  0  0  0  0
  189.3340  176.9940  137.1690 C   0  0  0  0  0  2  0  0  0  0  0  0
  187.9300  177.5350  137.4090 C   0  0  1  0  0  3  0  0  0  0  0  0
  187.6710  178.6200  136.3780 C   0  0  0  0  0  1  0  0  0  0  0  0
  186.8740  176.4200  137.3090 C   0  0  1  0  0  3  0  0  0  0  0  0
  184.5520  177.0420  136.4760 C   0  0  0  0  0  0  0  0  0  0  0  0
  183.8010  177.2920  135.4960 O   0  0  0  0  0  0  0  0  0  0  0  0
  185.9250  176.7160  136.2410 N   0  0  0  0  0  2  0  0  0  0  0  0
  184.0050  177.1350  137.8670 C   0  0  0  0  0  2  0  0  0  0  0  0
  183.7370  174.7170  138.0300 N   0  0  0  0  0  1  0  0  0  0  0  0
  183.0490  175.9890  138.1600 C   0  0  1  0  0  3  0  0  0  0  0  0
  182.5200  176.1300  139.5710 C   0  0  0  0  0  1  0  0  0  0  0  0
  187.5140  175.0920  137.0310 C   0  0  0  0  0  3  0  0  0  0  0  0
  186.8760  174.1600  136.3250 C   0  0  0  0  0  2  0  0  0  0  0  0
  186.7770  177.3900  143.0330 N   0  0  0  0  0  2  0  0  0  0  0  0
  186.8250  178.5270  142.1310 C   0  0  0  0  0  2  0  0  0  0  0  0
  185.2300  179.5210  140.6780 O   0  0  0  0  0  0  0  0  0  0  0  0
  185.4430  178.9420  141.7770 C   0  0  0  0  0  0  0  0  0  0  0  0
  184.4050  178.7140  142.6840 O   0  0  0  0  0  0  0  0  0  0  0  0
  183.0370  178.8720  142.3280 C   0  0  0  0  0  2  0  0  0  0  0  0
  182.7410  178.4770  144.6680 F   0  0  0  0  0  0  0  0  0  0  0  0
  182.1880  179.1120  143.5690 C   0  0  2  0  0  3  0  0  0  0  0  0
  180.7730  178.6050  143.3410 C   0  0  0  0  0  2  0  0  0  0  0  0
  179.9870  178.8460  144.4540 F   0  0  0  0  0  0  0  0  0  0  0  0
  1  9  2  0  0  0  0
  3  2  1  0  0  0  0
  3  7  1  0  0  0  0
  4  3  2  0  0  0  0
  5  8  1  0  0  0  0
  5  4  2  0  0  0  0
  8 32  1  6  0  0  0
  8 10  1  0  0  0  0
  9  6  1  0  0  0  0
 10  1  1  6  0  0  0
 10 11  1  0  0  0  0
 11  7  1  0  0  0  0
 11  6  2  0  0  0  0
 12  5  1  0  0  0  0
 13 12  1  0  0  0  0
 14 13  1  0  0  0  0
 16 19  1  6  0  0  0
 16 17  1  0  0  0  0
 16 18  1  0  0  0  0
 17 15  1  6  0  0  0
 17 18  1  0  0  0  0
 18 14  1  1  0  0  0
 19 20  1  0  0  0  0
 20 21  1  6  0  0  0
 22 30  1  6  0  0  0
 22 20  1  0  0  0  0
 23 26  1  0  0  0  0
 24 23  2  0  0  0  0
 25 23  1  0  0  0  0
 25 22  1  0  0  0  0
 26 28  1  0  0  0  0
 27 28  1  0  0  0  0
 28 29  1  1  0  0  0
 31 30  2  0  0  0  0
 33 32  1  0  0  0  0
 34 35  2  0  0  0  0
 35 33  1  0  0  0  0
 35 36  1  0  0  0  0
 37 36  1  0  0  0  0
 37 39  1  0  0  0  0
 39 38  1  1  0  0  0
 40 39  1  0  0  0  0
 40 41  1  0  0  0  0
M  END
>  <MODEL>
1

>  <REMARK>
 VINA RESULT:      -7.1      0.000      0.000
  Name = 
  18 active torsions:
  status: ('A' for Active; 'I' for Inactive)
    1  A    between atoms: C_4  and  C_28
    2  A    between atoms: C_4  and  C_34
    3  A    between atoms: C_5  and  C_7
    4  A    between atoms: C_7  and  N_16
    5  A    between atoms: C_7  and  C_31
    6  A    between atoms: C_8  and  C_18
    7  A    between atoms: C_8  and  C_28
    8  A    between atoms: C_9  and  C_14
    9  A    between atoms: C_10  and  C_25
   10  A    between atoms: C_14  and  C_30
   11  A    between atoms: C_20  and  C_39
   12  A    between atoms: C_22  and  N_32
   13  A    between atoms: C_22  and  C_38
   14  A    between atoms: C_25  and  C_31
   15  A    between atoms: C_26  and  N_32
   16  A    between atoms: O_27  and  C_33
   17  A    between atoms: O_27  and  C_38
   18  A    between atoms: C_33  and  C_39
                            x       y       z     vdW  Elec       q    Type
                         _______ _______ _______ _____ _____    ______ ____

>  <TORSDO>
F 18

$$$$
=
 OpenBabel10232410173D

 41 43  0  0  1  0  0  0  0  0999 V2000
  186.7400  176.2690  136.3690 N   0  0  0  0  0  0  0  0  0  0  0  0
  181.6590  175.6750  139.4980 C   0  0  0  0  0  1  0  0  0  0  0  0
  182.9090  176.0120  138.7700 C   0  0  0  0  0  0  0  0  0  0  0  0
  183.5000  177.1470  138.9310 C   0  0  0  0  0  0  0  0  0  0  0  0
  184.3610  178.0940  138.7600 C   0  0  0  0  0  0  0  0  0  0  0  0
  184.9420  174.8010  135.9420 N   0  0  0  0  0  0  0  0  0  0  0  0
  183.4220  175.1640  137.7340 N   0  0  0  0  0  2  0  0  0  0  0  0
  185.2910  177.8820  137.5800 C   0  0  2  0  0  3  0  0  0  0  0  0
  186.2390  175.2330  135.4580 C   0  0  0  0  0  3  0  0  0  0  0  0
  185.7330  176.3940  137.4240 C   0  0  1  0  0  3  0  0  0  0  0  0
  184.6390  175.4490  137.0030 C   0  0  0  0  0  0  0  0  0  0  0  0
  184.5840  179.1350  139.8100 C   0  0  0  0  0  2  0  0  0  0  0  0
  184.8880  178.4790  141.1470 C   0  0  0  0  0  2  0  0  0  0  0  0
  183.8200  178.8310  142.1670 C   0  0  0  0  0  2  0  0  0  0  0  0
  184.3300  179.0700  145.8240 N   0  0  0  0  0  1  0  0  0  0  0  0
  185.6630  178.5360  143.7900 C   0  0  2  0  0  3  0  0  0  0  0  0
  184.6020  179.4300  144.4410 C   0  0  1  0  0  3  0  0  0  0  0  0
  184.1920  178.2860  143.5350 C   0  0  1  0  0  3  0  0  0  0  0  0
  186.2110  177.4350  144.6910 C   0  0  0  0  0  2  0  0  0  0  0  0
  187.5860  176.9860  144.2120 C   0  0  1  0  0  3  0  0  0  0  0  0
  187.8790  177.7130  142.9100 C   0  0  0  0  0  1  0  0  0  0  0  0
  188.6710  177.2820  145.2620 C   0  0  1  0  0  3  0  0  0  0  0  0
  190.8910  178.2350  144.4610 C   0  0  0  0  0  0  0  0  0  0  0  0
  191.5460  179.2420  144.0830 O   0  0  0  0  0  0  0  0  0  0  0  0
  189.5150  178.3890  144.8210 N   0  0  0  0  0  2  0  0  0  0  0  0
  191.5510  176.8910  144.4850 C   0  0  0  0  0  2  0  0  0  0  0  0
  190.4520  175.3470  142.9500 N   0  0  0  0  0  1  0  0  0  0  0  0
  191.5700  176.2620  143.1000 C   0  0  1  0  0  3  0  0  0  0  0  0
  191.4670  177.3530  142.0550 C   0  0  0  0  0  1  0  0  0  0  0  0
  188.0610  177.6380  146.5850 C   0  0  0  0  0  3  0  0  0  0  0  0
  188.6020  177.2110  147.7250 C   0  0  0  0  0  2  0  0  0  0  0  0
  186.4570  178.7500  137.6840 N   0  0  0  0  0  2  0  0  0  0  0  0
  187.4570  178.0210  138.4440 C   0  0  0  0  0  2  0  0  0  0  0  0
  188.9950  179.6810  137.7190 O   0  0  0  0  0  0  0  0  0  0  0  0
  188.8140  178.4770  138.0480 C   0  0  0  0  0  0  0  0  0  0  0  0
  189.8650  177.5570  138.0150 O   0  0  0  0  0  0  0  0  0  0  0  0
  190.2630  176.9020  136.8170 C   0  0  0  0  0  2  0  0  0  0  0  0
  191.5010  174.8800  136.4970 F   0  0  0  0  0  0  0  0  0  0  0  0
  191.5750  176.1580  137.0270 C   0  0  2  0  0  3  0  0  0  0  0  0
  191.9000  176.0790  138.5100 C   0  0  0  0  0  2  0  0  0  0  0  0
  192.8850  176.9950  138.8390 F   0  0  0  0  0  0  0  0  0  0  0  0
  3  4  2  0  0  0  0
  3  2  1  0  0  0  0
  5  4  2  0  0  0  0
  5 12  1  0  0  0  0
  6 11  2  0  0  0  0
  7  3  1  0  0  0  0
  8 32  1  1  0  0  0
  8  5  1  0  0  0  0
  9  6  1  0  0  0  0
  9  1  2  0  0  0  0
 10  1  1  6  0  0  0
 10  8  1  0  0  0  0
 11 10  1  0  0  0  0
 11  7  1  0  0  0  0
 12 13  1  0  0  0  0
 13 14  1  0  0  0  0
 16 17  1  0  0  0  0
 16 19  1  1  0  0  0
 17 15  1  1  0  0  0
 18 14  1  6  0  0  0
 18 16  1  0  0  0  0
 18 17  1  0  0  0  0
 20 21  1  6  0  0  0
 20 19  1  0  0  0  0
 20 22  1  0  0  0  0
 22 30  1  1  0  0  0
 23 26  1  0  0  0  0
 23 25  1  0  0  0  0
 24 23  2  0  0  0  0
 25 22  1  0  0  0  0
 27 28  1  0  0  0  0
 28 29  1  6  0  0  0
 28 26  1  0  0  0  0
 30 31  2  0  0  0  0
 32 33  1  0  0  0  0
 34 35  2  0  0  0  0
 35 33  1  0  0  0  0
 36 35  1  0  0  0  0
 37 39  1  0  0  0  0
 37 36  1  0  0  0  0
 39 38  1  1  0  0  0
 39 40  1  0  0  0  0
 40 41  1  0  0  0  0
M  END
>  <MODEL>
2

>  <REMARK>
 VINA RESULT:      -6.9      3.759      9.339
  Name = 
  18 active torsions:
  status: ('A' for Active; 'I' for Inactive)
    1  A    between atoms: C_4  and  C_28
    2  A    between atoms: C_4  and  C_34
    3  A    between atoms: C_5  and  C_7
    4  A    between atoms: C_7  and  N_16
    5  A    between atoms: C_7  and  C_31
    6  A    between atoms: C_8  and  C_18
    7  A    between atoms: C_8  and  C_28
    8  A    between atoms: C_9  and  C_14
    9  A    between atoms: C_10  and  C_25
   10  A    between atoms: C_14  and  C_30
   11  A    between atoms: C_20  and  C_39
   12  A    between atoms: C_22  and  N_32
   13  A    between atoms: C_22  and  C_38
   14  A    between atoms: C_25  and  C_31
   15  A    between atoms: C_26  and  N_32
   16  A    between atoms: O_27  and  C_33
   17  A    between atoms: O_27  and  C_38
   18  A    between atoms: C_33  and  C_39
                            x       y       z     vdW  Elec       q    Type
                         _______ _______ _______ _____ _____    ______ ____

>  <TORSDO>
F 18

$$$$
=
 OpenBabel10232410173D

 41 43  0  0  1  0  0  0  0  0999 V2000
  190.7810  176.7040  143.4070 N   0  0  0  0  0  0  0  0  0  0  0  0
  187.8720  178.1840  148.4380 C   0  0  0  0  0  1  0  0  0  0  0  0
  188.4160  177.7830  147.1150 C   0  0  0  0  0  0  0  0  0  0  0  0
  187.6560  177.6590  146.0800 C   0  0  0  0  0  0  0  0  0  0  0  0
  187.3030  177.3980  144.8660 C   0  0  0  0  0  0  0  0  0  0  0  0
  191.4830  176.3700  145.6350 N   0  0  0  0  0  0  0  0  0  0  0  0
  189.7750  177.3530  146.9650 N   0  0  0  0  0  2  0  0  0  0  0  0
  188.3800  176.7190  144.0400 C   0  0  2  0  0  3  0  0  0  0  0  0
  191.8530  176.1590  144.2490 C   0  0  0  0  0  3  0  0  0  0  0  0
  189.8040  177.2850  144.3300 C   0  0  1  0  0  3  0  0  0  0  0  0
  190.3500  176.9600  145.6950 C   0  0  0  0  0  0  0  0  0  0  0  0
  186.0580  177.9810  144.2800 C   0  0  0  0  0  2  0  0  0  0  0  0
  185.3860  178.9050  145.2820 C   0  0  0  0  0  2  0  0  0  0  0  0
  183.8780  178.7270  145.2410 C   0  0  0  0  0  2  0  0  0  0  0  0
  181.1220  179.9060  143.0720 N   0  0  0  0  0  1  0  0  0  0  0  0
  183.0410  178.3250  142.9500 C   0  0  2  0  0  3  0  0  0  0  0  0
  181.8840  178.8890  143.7800 C   0  0  1  0  0  3  0  0  0  0  0  0
  183.2990  179.3830  144.0010 C   0  0  1  0  0  3  0  0  0  0  0  0
  183.1950  178.9450  141.5640 C   0  0  0  0  0  2  0  0  0  0  0  0
  183.2010  177.8620  140.4920 C   0  0  1  0  0  3  0  0  0  0  0  0
  181.7760  177.3560  140.3410 C   0  0  0  0  0  1  0  0  0  0  0  0
  183.7360  178.4010  139.1540 C   0  0  1  0  0  3  0  0  0  0  0  0
  183.8210  176.9840  137.0410 C   0  0  0  0  0  0  0  0  0  0  0  0
  183.1900  176.4110  136.1150 O   0  0  0  0  0  0  0  0  0  0  0  0
  183.0960  177.7110  138.0380 N   0  0  0  0  0  2  0  0  0  0  0  0
  185.3120  176.8570  137.1070 C   0  0  0  0  0  2  0  0  0  0  0  0
  186.8910  178.0620  135.6930 N   0  0  0  0  0  1  0  0  0  0  0  0
  185.9360  176.9680  135.7250 C   0  0  1  0  0  3  0  0  0  0  0  0
  186.6470  175.6730  135.3940 C   0  0  0  0  0  1  0  0  0  0  0  0
  183.4810  179.8730  139.0210 C   0  0  0  0  0  3  0  0  0  0  0  0
  182.3430  180.3250  138.4980 C   0  0  0  0  0  2  0  0  0  0  0  0
  188.0740  176.8170  142.6190 N   0  0  0  0  0  2  0  0  0  0  0  0
  188.5510  178.1150  142.1740 C   0  0  0  0  0  2  0  0  0  0  0  0
  186.7010  178.7980  140.8480 O   0  0  0  0  0  0  0  0  0  0  0  0
  187.9160  178.4620  140.8770 C   0  0  0  0  0  0  0  0  0  0  0  0
  188.6670  178.3770  139.7010 O   0  0  0  0  0  0  0  0  0  0  0  0
  188.5420  177.2870  138.7970 C   0  0  0  0  0  2  0  0  0  0  0  0
  189.5960  176.2940  136.8920 F   0  0  0  0  0  0  0  0  0  0  0  0
  189.8160  177.1240  137.9790 C   0  0  2  0  0  3  0  0  0  0  0  0
  190.9240  176.5480  138.8470 C   0  0  0  0  0  2  0  0  0  0  0  0
  192.1640  176.8380  138.3040 F   0  0  0  0  0  0  0  0  0  0  0  0
  1  9  2  0  0  0  0
  3  2  1  0  0  0  0
  4  3  2  0  0  0  0
  5  4  2  0  0  0  0
  6 11  2  0  0  0  0
  7  3  1  0  0  0  0
  8 32  1  6  0  0  0
  8 10  1  0  0  0  0
  8  5  1  0  0  0  0
  9  6  1  0  0  0  0
 10  1  1  6  0  0  0
 10 11  1  0  0  0  0
 11  7  1  0  0  0  0
 12  5  1  0  0  0  0
 12 13  1  0  0  0  0
 14 13  1  0  0  0  0
 16 19  1  6  0  0  0
 16 17  1  0  0  0  0
 16 18  1  0  0  0  0
 17 15  1  6  0  0  0
 17 18  1  0  0  0  0
 18 14  1  1  0  0  0
 20 21  1  6  0  0  0
 20 19  1  0  0  0  0
 22 30  1  6  0  0  0
 22 20  1  0  0  0  0
 23 26  1  0  0  0  0
 23 25  1  0  0  0  0
 24 23  2  0  0  0  0
 25 22  1  0  0  0  0
 27 28  1  0  0  0  0
 28 29  1  1  0  0  0
 28 26  1  0  0  0  0
 31 30  2  0  0  0  0
 33 32  1  0  0  0  0
 34 35  2  0  0  0  0
 35 33  1  0  0  0  0
 36 35  1  0  0  0  0
 37 36  1  0  0  0  0
 39 38  1  6  0  0  0
 39 37  1  0  0  0  0
 39 40  1  0  0  0  0
 41 40  1  0  0  0  0
M  END
>  <MODEL>
3

>  <REMARK>
 VINA RESULT:      -6.9      3.169      6.367
  Name = 
  18 active torsions:
  status: ('A' for Active; 'I' for Inactive)
    1  A    between atoms: C_4  and  C_28
    2  A    between atoms: C_4  and  C_34
    3  A    between atoms: C_5  and  C_7
    4  A    between atoms: C_7  and  N_16
    5  A    between atoms: C_7  and  C_31
    6  A    between atoms: C_8  and  C_18
    7  A    between atoms: C_8  and  C_28
    8  A    between atoms: C_9  and  C_14
    9  A    between atoms: C_10  and  C_25
   10  A    between atoms: C_14  and  C_30
   11  A    between atoms: C_20  and  C_39
   12  A    between atoms: C_22  and  N_32
   13  A    between atoms: C_22  and  C_38
   14  A    between atoms: C_25  and  C_31
   15  A    between atoms: C_26  and  N_32
   16  A    between atoms: O_27  and  C_33
   17  A    between atoms: O_27  and  C_38
   18  A    between atoms: C_33  and  C_39
                            x       y       z     vdW  Elec       q    Type
                         _______ _______ _______ _____ _____    ______ ____

>  <TORSDO>
F 18

$$$$
=
 OpenBabel10232410173D

 41 43  0  0  1  0  0  0  0  0999 V2000
  184.8940  176.7150  136.3020 N   0  0  0  0  0  0  0  0  0  0  0  0
  181.2090  179.4120  140.1880 C   0  0  0  0  0  1  0  0  0  0  0  0
  182.2670  178.8340  139.3210 C   0  0  0  0  0  0  0  0  0  0  0  0
  183.5150  178.9050  139.6380 C   0  0  0  0  0  0  0  0  0  0  0  0
  184.7960  178.7720  139.5370 C   0  0  0  0  0  0  0  0  0  0  0  0
  182.7070  177.5100  135.9080 N   0  0  0  0  0  0  0  0  0  0  0  0
  181.9660  178.3220  138.0150 N   0  0  0  0  0  2  0  0  0  0  0  0
  185.2650  178.3080  138.1700 C   0  0  2  0  0  3  0  0  0  0  0  0
  183.8470  176.8660  135.2840 C   0  0  0  0  0  3  0  0  0  0  0  0
  184.3210  177.2350  137.5450 C   0  0  1  0  0  3  0  0  0  0  0  0
  182.9640  177.7440  137.1390 C   0  0  0  0  0  0  0  0  0  0  0  0
  185.6730  178.7980  140.7460 C   0  0  0  0  0  2  0  0  0  0  0  0
  184.9320  178.2370  141.9480 C   0  0  0  0  0  2  0  0  0  0  0  0
  185.1350  179.1280  143.1620 C   0  0  0  0  0  2  0  0  0  0  0  0
  184.4850  178.4180  146.7350 N   0  0  0  0  0  1  0  0  0  0  0  0
  186.4400  178.6960  145.2180 C   0  0  2  0  0  3  0  0  0  0  0  0
  185.0500  179.1880  145.6370 C   0  0  1  0  0  3  0  0  0  0  0  0
  185.2150  178.2910  144.4270 C   0  0  1  0  0  3  0  0  0  0  0  0
  186.9540  177.4920  145.9990 C   0  0  0  0  0  2  0  0  0  0  0  0
  188.2230  177.8510  146.7630 C   0  0  1  0  0  3  0  0  0  0  0  0
  188.0310  177.4130  148.2060 C   0  0  0  0  0  1  0  0  0  0  0  0
  189.4600  177.1780  146.1450 C   0  0  1  0  0  3  0  0  0  0  0  0
  190.2610  178.3580  144.0370 C   0  0  0  0  0  0  0  0  0  0  0  0
  190.9990  179.2400  143.5230 O   0  0  0  0  0  0  0  0  0  0  0  0
  190.2830  178.1670  145.4550 N   0  0  0  0  0  2  0  0  0  0  0  0
  189.3460  177.5590  143.1630 C   0  0  0  0  0  2  0  0  0  0  0  0
  190.9900  177.1980  141.3990 N   0  0  0  0  0  1  0  0  0  0  0  0
  190.1180  176.5310  142.3500 C   0  0  1  0  0  3  0  0  0  0  0  0
  190.9530  175.6820  143.2840 C   0  0  0  0  0  1  0  0  0  0  0  0
  190.2930  176.5060  147.1960 C   0  0  0  0  0  3  0  0  0  0  0  0
  191.5930  176.2870  147.0020 C   0  0  0  0  0  2  0  0  0  0  0  0
  186.6300  177.8040  138.2410 N   0  0  0  0  0  2  0  0  0  0  0  0
  187.3380  178.3420  137.0930 C   0  0  0  0  0  2  0  0  0  0  0  0
  189.0080  179.8820  137.7900 O   0  0  0  0  0  0  0  0  0  0  0  0
  188.7280  178.6910  137.4830 C   0  0  0  0  0  0  0  0  0  0  0  0
  189.7140  177.7010  137.4710 O   0  0  0  0  0  0  0  0  0  0  0  0
  189.7670  176.6940  136.4680 C   0  0  0  0  0  2  0  0  0  0  0  0
  191.0550  174.6870  136.6500 F   0  0  0  0  0  0  0  0  0  0  0  0
  189.9070  175.3170  137.1020 C   0  0  2  0  0  3  0  0  0  0  0  0
  188.6920  174.4640  136.7740 C   0  0  0  0  0  2  0  0  0  0  0  0
  187.7480  175.2090  136.0880 F   0  0  0  0  0  0  0  0  0  0  0  0
  3  4  2  0  0  0  0
  3  2  1  0  0  0  0
  5  4  2  0  0  0  0
  5 12  1  0  0  0  0
  6 11  2  0  0  0  0
  7  3  1  0  0  0  0
  8 32  1  1  0  0  0
  8  5  1  0  0  0  0
  9  6  1  0  0  0  0
  9  1  2  0  0  0  0
 10  1  1  6  0  0  0
 10  8  1  0  0  0  0
 11 10  1  0  0  0  0
 11  7  1  0  0  0  0
 12 13  1  0  0  0  0
 13 14  1  0  0  0  0
 16 17  1  0  0  0  0
 16 19  1  1  0  0  0
 17 15  1  1  0  0  0
 18 14  1  6  0  0  0
 18 16  1  0  0  0  0
 18 17  1  0  0  0  0
 19 20  1  0  0  0  0
 20 21  1  1  0  0  0
 22 20  1  0  0  0  0
 22 30  1  1  0  0  0
 23 25  1  0  0  0  0
 24 23  2  0  0  0  0
 25 22  1  0  0  0  0
 26 23  1  0  0  0  0
 27 28  1  0  0  0  0
 28 26  1  0  0  0  0
 28 29  1  1  0  0  0
 31 30  2  0  0  0  0
 33 35  1  0  0  0  0
 33 32  1  0  0  0  0
 35 34  2  0  0  0  0
 36 35  1  0  0  0  0
 37 39  1  0  0  0  0
 37 36  1  0  0  0  0
 39 38  1  6  0  0  0
 40 39  1  0  0  0  0
 41 40  1  0  0  0  0
M  END
>  <MODEL>
4

>  <REMARK>
 VINA RESULT:      -6.9      3.497      9.329
  Name = 
  18 active torsions:
  status: ('A' for Active; 'I' for Inactive)
    1  A    between atoms: C_4  and  C_28
    2  A    between atoms: C_4  and  C_34
    3  A    between atoms: C_5  and  C_7
    4  A    between atoms: C_7  and  N_16
    5  A    between atoms: C_7  and  C_31
    6  A    between atoms: C_8  and  C_18
    7  A    between atoms: C_8  and  C_28
    8  A    between atoms: C_9  and  C_14
    9  A    between atoms: C_10  and  C_25
   10  A    between atoms: C_14  and  C_30
   11  A    between atoms: C_20  and  C_39
   12  A    between atoms: C_22  and  N_32
   13  A    between atoms: C_22  and  C_38
   14  A    between atoms: C_25  and  C_31
   15  A    between atoms: C_26  and  N_32
   16  A    between atoms: O_27  and  C_33
   17  A    between atoms: O_27  and  C_38
   18  A    between atoms: C_33  and  C_39
                            x       y       z     vdW  Elec       q    Type
                         _______ _______ _______ _____ _____    ______ ____

>  <TORSDO>
F 18

$$$$
=
 OpenBabel10232410173D

 41 43  0  0  1  0  0  0  0  0999 V2000
  185.6030  178.0110  145.8220 N   0  0  0  0  0  0  0  0  0  0  0  0
  191.4290  176.6510  146.2210 C   0  0  0  0  0  1  0  0  0  0  0  0
  190.0160  177.0060  145.9300 C   0  0  0  0  0  0  0  0  0  0  0  0
  189.5560  177.0150  144.7250 C   0  0  0  0  0  0  0  0  0  0  0  0
  188.7220  177.1780  143.7520 C   0  0  0  0  0  0  0  0  0  0  0  0
  187.0910  178.5280  147.5790 N   0  0  0  0  0  0  0  0  0  0  0  0
  189.1480  177.5160  146.9500 N   0  0  0  0  0  2  0  0  0  0  0  0
  187.4340  177.8760  144.1500 C   0  0  2  0  0  3  0  0  0  0  0  0
  185.7220  178.6780  147.1240 C   0  0  0  0  0  3  0  0  0  0  0  0
  186.9160  177.4250  145.5510 C   0  0  1  0  0  3  0  0  0  0  0  0
  187.7640  177.8680  146.7130 C   0  0  0  0  0  0  0  0  0  0  0  0
  188.9120  176.4790  142.4450 C   0  0  0  0  0  2  0  0  0  0  0  0
  189.8650  177.2650  141.5600 C   0  0  0  0  0  2  0  0  0  0  0  0
  189.0940  178.0340  140.5010 C   0  0  0  0  0  2  0  0  0  0  0  0
  189.2280  177.4640  136.8480 N   0  0  0  0  0  1  0  0  0  0  0  0
  190.2170  176.5010  138.9200 C   0  0  2  0  0  3  0  0  0  0  0  0
  188.9740  177.0660  138.2240 C   0  0  1  0  0  3  0  0  0  0  0  0
  189.7940  177.9340  139.1570 C   0  0  1  0  0  3  0  0  0  0  0  0
  191.4780  176.4840  138.0620 C   0  0  0  0  0  2  0  0  0  0  0  0
  192.0030  175.0620  137.9090 C   0  0  1  0  0  3  0  0  0  0  0  0
  191.1590  174.3710  136.8510 C   0  0  0  0  0  1  0  0  0  0  0  0
  193.4910  175.0510  137.5180 C   0  0  1  0  0  3  0  0  0  0  0  0
  195.1670  173.3770  138.4490 C   0  0  0  0  0  0  0  0  0  0  0  0
  195.5680  172.1850  138.4990 O   0  0  0  0  0  0  0  0  0  0  0  0
  194.0360  173.7020  137.6350 N   0  0  0  0  0  2  0  0  0  0  0  0
  195.8510  174.4220  139.2740 C   0  0  0  0  0  2  0  0  0  0  0  0
  197.4770  175.2420  137.6520 N   0  0  0  0  0  1  0  0  0  0  0  0
  197.3240  174.5340  138.9110 C   0  0  1  0  0  3  0  0  0  0  0  0
  198.0510  175.2910  140.0010 C   0  0  0  0  0  1  0  0  0  0  0  0
  193.6840  175.5290  136.1090 C   0  0  0  0  0  3  0  0  0  0  0  0
  194.4860  176.5570  135.8390 C   0  0  0  0  0  2  0  0  0  0  0  0
  186.4070  177.6710  143.1380 N   0  0  0  0  0  2  0  0  0  0  0  0
  186.1080  178.9750  142.5720 C   0  0  0  0  0  2  0  0  0  0  0  0
  183.7750  178.5250  142.5230 O   0  0  0  0  0  0  0  0  0  0  0  0
  184.7880  178.9320  141.8910 C   0  0  0  0  0  0  0  0  0  0  0  0
  184.6950  179.3120  140.5500 O   0  0  0  0  0  0  0  0  0  0  0  0
  185.3970  178.6320  139.5170 C   0  0  0  0  0  2  0  0  0  0  0  0
  184.9260  177.8660  137.3000 F   0  0  0  0  0  0  0  0  0  0  0  0
  184.4220  177.9190  138.5890 C   0  0  2  0  0  3  0  0  0  0  0  0
  183.0820  178.6380  138.5870 C   0  0  0  0  0  2  0  0  0  0  0  0
  182.1110  177.8540  139.1860 F   0  0  0  0  0  0  0  0  0  0  0  0
  1  9  2  0  0  0  0
  3  2  1  0  0  0  0
  3  7  1  0  0  0  0
  4  3  2  0  0  0  0
  5  8  1  0  0  0  0
  5  4  2  0  0  0  0
  8 32  1  6  0  0  0
  8 10  1  0  0  0  0
  9  6  1  0  0  0  0
 10  1  1  1  0  0  0
 10 11  1  0  0  0  0
 11  7  1  0  0  0  0
 11  6  2  0  0  0  0
 12  5  1  0  0  0  0
 13 12  1  0  0  0  0
 14 13  1  0  0  0  0
 16 19  1  6  0  0  0
 16 18  1  0  0  0  0
 17 15  1  6  0  0  0
 17 16  1  0  0  0  0
 17 18  1  0  0  0  0
 18 14  1  1  0  0  0
 20 21  1  6  0  0  0
 20 19  1  0  0  0  0
 22 30  1  6  0  0  0
 22 25  1  0  0  0  0
 22 20  1  0  0  0  0
 23 24  2  0  0  0  0
 23 26  1  0  0  0  0
 25 23  1  0  0  0  0
 27 28  1  0  0  0  0
 28 26  1  0  0  0  0
 28 29  1  1  0  0  0
 31 30  2  0  0  0  0
 33 32  1  0  0  0  0
 35 34  2  0  0  0  0
 35 33  1  0  0  0  0
 36 35  1  0  0  0  0
 37 36  1  0  0  0  0
 39 38  1  6  0  0  0
 39 37  1  0  0  0  0
 40 39  1  0  0  0  0
 40 41  1  0  0  0  0
M  END
>  <MODEL>
5

>  <REMARK>
 VINA RESULT:      -6.7      3.620      6.202
  Name = 
  18 active torsions:
  status: ('A' for Active; 'I' for Inactive)
    1  A    between atoms: C_4  and  C_28
    2  A    between atoms: C_4  and  C_34
    3  A    between atoms: C_5  and  C_7
    4  A    between atoms: C_7  and  N_16
    5  A    between atoms: C_7  and  C_31
    6  A    between atoms: C_8  and  C_18
    7  A    between atoms: C_8  and  C_28
    8  A    between atoms: C_9  and  C_14
    9  A    between atoms: C_10  and  C_25
   10  A    between atoms: C_14  and  C_30
   11  A    between atoms: C_20  and  C_39
   12  A    between atoms: C_22  and  N_32
   13  A    between atoms: C_22  and  C_38
   14  A    between atoms: C_25  and  C_31
   15  A    between atoms: C_26  and  N_32
   16  A    between atoms: O_27  and  C_33
   17  A    between atoms: O_27  and  C_38
   18  A    between atoms: C_33  and  C_39
                            x       y       z     vdW  Elec       q    Type
                         _______ _______ _______ _____ _____    ______ ____

>  <TORSDO>
F 18

$$$$
=
 OpenBabel10232410173D

 41 43  0  0  1  0  0  0  0  0999 V2000
  185.4720  177.9600  145.3500 N   0  0  0  0  0  0  0  0  0  0  0  0
  191.2040  176.7460  146.6270 C   0  0  0  0  0  1  0  0  0  0  0  0
  189.8410  177.0580  146.1240 C   0  0  0  0  0  0  0  0  0  0  0  0
  189.5580  177.0110  144.8670 C   0  0  0  0  0  0  0  0  0  0  0  0
  188.8680  177.1190  143.7800 C   0  0  0  0  0  0  0  0  0  0  0  0
  186.6860  178.5760  147.2780 N   0  0  0  0  0  0  0  0  0  0  0  0
  188.8280  177.5870  146.9890 N   0  0  0  0  0  2  0  0  0  0  0  0
  187.5260  177.8020  143.9620 C   0  0  2  0  0  3  0  0  0  0  0  0
  185.3930  178.6780  146.6280 C   0  0  0  0  0  3  0  0  0  0  0  0
  186.8210  177.3930  145.2920 C   0  0  1  0  0  3  0  0  0  0  0  0
  187.4860  177.8990  146.5450 C   0  0  0  0  0  0  0  0  0  0  0  0
  189.2540  176.3750  142.5430 C   0  0  0  0  0  2  0  0  0  0  0  0
  190.3860  177.0940  141.8260 C   0  0  0  0  0  2  0  0  0  0  0  0
  189.8810  177.7410  140.5480 C   0  0  0  0  0  2  0  0  0  0  0  0
  190.9260  175.0360  138.2500 N   0  0  0  0  0  1  0  0  0  0  0  0
  189.8960  177.2990  138.1160 C   0  0  2  0  0  3  0  0  0  0  0  0
  190.9520  176.3970  138.7630 C   0  0  1  0  0  3  0  0  0  0  0  0
  189.6480  176.6890  139.4780 C   0  0  1  0  0  3  0  0  0  0  0  0
  189.0090  176.6070  137.0860 C   0  0  0  0  0  2  0  0  0  0  0  0
  187.5750  177.1130  137.1870 C   0  0  1  0  0  3  0  0  0  0  0  0
  187.5550  178.5410  136.6680 C   0  0  0  0  0  1  0  0  0  0  0  0
  186.6080  176.2240  136.3870 C   0  0  1  0  0  3  0  0  0  0  0  0
  185.6890  173.9370  137.0210 C   0  0  0  0  0  0  0  0  0  0  0  0
  185.0560  173.2340  137.8520 O   0  0  0  0  0  0  0  0  0  0  0  0
  185.8820  175.3300  137.2840 N   0  0  0  0  0  2  0  0  0  0  0  0
  186.2640  173.2940  135.7970 C   0  0  0  0  0  2  0  0  0  0  0  0
  187.7060  171.5100  134.9690 N   0  0  0  0  0  1  0  0  0  0  0  0
  187.2680  172.2110  136.1630 C   0  0  1  0  0  3  0  0  0  0  0  0
  188.4640  172.8480  136.8370 C   0  0  0  0  0  1  0  0  0  0  0  0
  185.6150  177.0520  135.6250 C   0  0  0  0  0  3  0  0  0  0  0  0
  185.1660  176.6580  134.4350 C   0  0  0  0  0  2  0  0  0  0  0  0
  186.6570  177.5370  142.8240 N   0  0  0  0  0  2  0  0  0  0  0  0
  186.6030  178.7590  142.0410 C   0  0  0  0  0  2  0  0  0  0  0  0
  185.2270  179.5740  140.2830 O   0  0  0  0  0  0  0  0  0  0  0  0
  185.3280  178.8080  141.2800 C   0  0  0  0  0  0  0  0  0  0  0  0
  184.2470  178.0280  141.7000 O   0  0  0  0  0  0  0  0  0  0  0  0
  183.1270  178.5840  142.3780 C   0  0  0  0  0  2  0  0  0  0  0  0
  180.7520  178.4920  142.1100 F   0  0  0  0  0  0  0  0  0  0  0  0
  181.9400  178.7100  141.4330 C   0  0  2  0  0  3  0  0  0  0  0  0
  182.0710  177.7110  140.2930 C   0  0  0  0  0  2  0  0  0  0  0  0
  182.4450  178.3550  139.1260 F   0  0  0  0  0  0  0  0  0  0  0  0
  1  9  2  0  0  0  0
  3  2  1  0  0  0  0
  3  7  1  0  0  0  0
  4  3  2  0  0  0  0
  5  8  1  0  0  0  0
  5  4  2  0  0  0  0
  8 32  1  6  0  0  0
  8 10  1  0  0  0  0
  9  6  1  0  0  0  0
 10  1  1  6  0  0  0
 10 11  1  0  0  0  0
 11  7  1  0  0  0  0
 11  6  2  0  0  0  0
 12  5  1  0  0  0  0
 13 12  1  0  0  0  0
 14 13  1  0  0  0  0
 16 19  1  6  0  0  0
 16 17  1  0  0  0  0
 16 18  1  0  0  0  0
 17 15  1  6  0  0  0
 17 18  1  0  0  0  0
 18 14  1  1  0  0  0
 19 20  1  0  0  0  0
 20 21  1  6  0  0  0
 22 30  1  1  0  0  0
 22 20  1  0  0  0  0
 22 25  1  0  0  0  0
 23 25  1  0  0  0  0
 23 24  2  0  0  0  0
 26 28  1  0  0  0  0
 26 23  1  0  0  0  0
 27 28  1  0  0  0  0
 28 29  1  6  0  0  0
 31 30  2  0  0  0  0
 33 32  1  0  0  0  0
 34 35  2  0  0  0  0
 35 36  1  0  0  0  0
 35 33  1  0  0  0  0
 36 37  1  0  0  0  0
 39 38  1  1  0  0  0
 39 37  1  0  0  0  0
 40 39  1  0  0  0  0
 41 40  1  0  0  0  0
M  END
>  <MODEL>
6

>  <REMARK>
 VINA RESULT:      -6.6      1.747      2.599
  Name = 
  18 active torsions:
  status: ('A' for Active; 'I' for Inactive)
    1  A    between atoms: C_4  and  C_28
    2  A    between atoms: C_4  and  C_34
    3  A    between atoms: C_5  and  C_7
    4  A    between atoms: C_7  and  N_16
    5  A    between atoms: C_7  and  C_31
    6  A    between atoms: C_8  and  C_18
    7  A    between atoms: C_8  and  C_28
    8  A    between atoms: C_9  and  C_14
    9  A    between atoms: C_10  and  C_25
   10  A    between atoms: C_14  and  C_30
   11  A    between atoms: C_20  and  C_39
   12  A    between atoms: C_22  and  N_32
   13  A    between atoms: C_22  and  C_38
   14  A    between atoms: C_25  and  C_31
   15  A    between atoms: C_26  and  N_32
   16  A    between atoms: O_27  and  C_33
   17  A    between atoms: O_27  and  C_38
   18  A    between atoms: C_33  and  C_39
                            x       y       z     vdW  Elec       q    Type
                         _______ _______ _______ _____ _____    ______ ____

>  <TORSDO>
F 18

$$$$
=
 OpenBabel10232410173D

 41 43  0  0  1  0  0  0  0  0999 V2000
  185.0310  176.4710  135.2440 N   0  0  0  0  0  0  0  0  0  0  0  0
  189.1120  178.2240  139.2720 C   0  0  0  0  0  1  0  0  0  0  0  0
  187.9680  177.8280  138.4120 C   0  0  0  0  0  0  0  0  0  0  0  0
  186.7500  178.1040  138.7370 C   0  0  0  0  0  0  0  0  0  0  0  0
  185.4610  178.1330  138.6730 C   0  0  0  0  0  0  0  0  0  0  0  0
  187.2200  175.6410  135.5400 N   0  0  0  0  0  0  0  0  0  0  0  0
  188.1490  176.9780  137.2720 N   0  0  0  0  0  2  0  0  0  0  0  0
  184.8730  177.2330  137.6020 C   0  0  2  0  0  3  0  0  0  0  0  0
  186.0080  175.4900  134.7570 C   0  0  0  0  0  3  0  0  0  0  0  0
  185.7160  177.2330  136.2900 C   0  0  1  0  0  3  0  0  0  0  0  0
  187.0640  176.5730  136.4020 C   0  0  0  0  0  0  0  0  0  0  0  0
  184.6740  179.1770  139.3970 C   0  0  0  0  0  2  0  0  0  0  0  0
  184.8980  179.0620  140.8960 C   0  0  0  0  0  2  0  0  0  0  0  0
  183.6920  178.4290  141.5670 C   0  0  0  0  0  2  0  0  0  0  0  0
  183.4180  179.2130  145.1730 N   0  0  0  0  0  1  0  0  0  0  0  0
  185.1990  178.9710  143.4500 C   0  0  2  0  0  3  0  0  0  0  0  0
  183.8040  179.4980  143.7990 C   0  0  1  0  0  3  0  0  0  0  0  0
  183.9660  178.1950  143.0420 C   0  0  1  0  0  3  0  0  0  0  0  0
  185.9050  178.2330  144.5830 C   0  0  0  0  0  2  0  0  0  0  0  0
  187.0710  177.4130  144.0430 C   0  0  1  0  0  3  0  0  0  0  0  0
  187.4900  178.0260  142.7170 C   0  0  0  0  0  1  0  0  0  0  0  0
  188.2480  177.3900  145.0330 C   0  0  1  0  0  3  0  0  0  0  0  0
  190.6760  178.0340  144.6260 C   0  0  0  0  0  0  0  0  0  0  0  0
  191.4990  178.9070  144.2430 O   0  0  0  0  0  0  0  0  0  0  0  0
  189.2780  178.3380  144.6180 N   0  0  0  0  0  2  0  0  0  0  0  0
  191.1720  176.6830  145.0390 C   0  0  0  0  0  2  0  0  0  0  0  0
  192.2420  174.6290  144.2750 N   0  0  0  0  0  1  0  0  0  0  0  0
  191.6490  175.8800  143.8380 C   0  0  1  0  0  3  0  0  0  0  0  0
  190.4700  175.5860  142.9350 C   0  0  0  0  0  1  0  0  0  0  0  0
  187.7970  177.7460  146.4190 C   0  0  0  0  0  3  0  0  0  0  0  0
  188.3610  177.1850  147.4870 C   0  0  0  0  0  2  0  0  0  0  0  0
  183.4940  177.6060  137.3200 N   0  0  0  0  0  2  0  0  0  0  0  0
  182.6550  176.5290  137.8170 C   0  0  0  0  0  2  0  0  0  0  0  0
  181.3570  176.9120  135.8650 O   0  0  0  0  0  0  0  0  0  0  0  0
  181.7210  176.0900  136.7490 C   0  0  0  0  0  0  0  0  0  0  0  0
  181.2330  174.7810  136.7590 O   0  0  0  0  0  0  0  0  0  0  0  0
  181.7830  173.7590  135.9370 C   0  0  0  0  0  2  0  0  0  0  0  0
  183.9820  173.6490  136.8730 F   0  0  0  0  0  0  0  0  0  0  0  0
  182.8020  172.9390  136.7170 C   0  0  2  0  0  3  0  0  0  0  0  0
  183.0830  171.6300  135.9960 C   0  0  0  0  0  2  0  0  0  0  0  0
  183.6290  170.7050  136.8690 F   0  0  0  0  0  0  0  0  0  0  0  0
  3  4  2  0  0  0  0
  3  2  1  0  0  0  0
  5  4  2  0  0  0  0
  5 12  1  0  0  0  0
  6 11  2  0  0  0  0
  7  3  1  0  0  0  0
  8 32  1  6  0  0  0
  8  5  1  0  0  0  0
  9  1  2  0  0  0  0
  9  6  1  0  0  0  0
 10  1  1  6  0  0  0
 10 11  1  0  0  0  0
 10  8  1  0  0  0  0
 11  7  1  0  0  0  0
 12 13  1  0  0  0  0
 13 14  1  0  0  0  0
 16 17  1  0  0  0  0
 16 19  1  1  0  0  0
 17 15  1  1  0  0  0
 18 14  1  6  0  0  0
 18 16  1  0  0  0  0
 18 17  1  0  0  0  0
 20 21  1  6  0  0  0
 20 19  1  0  0  0  0
 20 22  1  0  0  0  0
 22 30  1  1  0  0  0
 23 26  1  0  0  0  0
 24 23  2  0  0  0  0
 25 23  1  0  0  0  0
 25 22  1  0  0  0  0
 28 29  1  6  0  0  0
 28 27  1  0  0  0  0
 28 26  1  0  0  0  0
 30 31  2  0  0  0  0
 32 33  1  0  0  0  0
 34 35  2  0  0  0  0
 35 36  1  0  0  0  0
 35 33  1  0  0  0  0
 37 39  1  0  0  0  0
 37 36  1  0  0  0  0
 39 38  1  6  0  0  0
 40 39  1  0  0  0  0
 40 41  1  0  0  0  0
M  END
>  <MODEL>
7

>  <REMARK>
 VINA RESULT:      -6.5      3.282      8.982
  Name = 
  18 active torsions:
  status: ('A' for Active; 'I' for Inactive)
    1  A    between atoms: C_4  and  C_28
    2  A    between atoms: C_4  and  C_34
    3  A    between atoms: C_5  and  C_7
    4  A    between atoms: C_7  and  N_16
    5  A    between atoms: C_7  and  C_31
    6  A    between atoms: C_8  and  C_18
    7  A    between atoms: C_8  and  C_28
    8  A    between atoms: C_9  and  C_14
    9  A    between atoms: C_10  and  C_25
   10  A    between atoms: C_14  and  C_30
   11  A    between atoms: C_20  and  C_39
   12  A    between atoms: C_22  and  N_32
   13  A    between atoms: C_22  and  C_38
   14  A    between atoms: C_25  and  C_31
   15  A    between atoms: C_26  and  N_32
   16  A    between atoms: O_27  and  C_33
   17  A    between atoms: O_27  and  C_38
   18  A    between atoms: C_33  and  C_39
                            x       y       z     vdW  Elec       q    Type
                         _______ _______ _______ _____ _____    ______ ____

>  <TORSDO>
F 18

$$$$
=
 OpenBabel10232410173D

 41 43  0  0  1  0  0  0  0  0999 V2000
  185.5380  178.0280  145.8480 N   0  0  0  0  0  0  0  0  0  0  0  0
  191.2930  176.6680  146.8390 C   0  0  0  0  0  1  0  0  0  0  0  0
  189.9130  177.0050  146.4030 C   0  0  0  0  0  0  0  0  0  0  0  0
  189.5510  176.9050  145.1690 C   0  0  0  0  0  0  0  0  0  0  0  0
  188.7990  176.9830  144.1220 C   0  0  0  0  0  0  0  0  0  0  0  0
  186.8890  178.6950  147.6640 N   0  0  0  0  0  0  0  0  0  0  0  0
  188.9750  177.6140  147.2990 N   0  0  0  0  0  2  0  0  0  0  0  0
  187.4940  177.7240  144.3490 C   0  0  2  0  0  3  0  0  0  0  0  0
  185.5630  178.8120  147.0890 C   0  0  0  0  0  3  0  0  0  0  0  0
  186.8600  177.4090  145.7390 C   0  0  1  0  0  3  0  0  0  0  0  0
  187.6180  177.9520  146.9200 C   0  0  0  0  0  0  0  0  0  0  0  0
  189.0820  176.1640  142.9050 C   0  0  0  0  0  2  0  0  0  0  0  0
  190.1290  176.8480  142.0400 C   0  0  0  0  0  2  0  0  0  0  0  0
  189.4630  177.6560  140.9390 C   0  0  0  0  0  2  0  0  0  0  0  0
  190.9400  175.3600  138.4410 N   0  0  0  0  0  1  0  0  0  0  0  0
  190.1550  177.7200  138.5660 C   0  0  2  0  0  3  0  0  0  0  0  0
  190.9110  176.5730  139.2450 C   0  0  1  0  0  3  0  0  0  0  0  0
  189.4790  176.8850  139.6320 C   0  0  1  0  0  3  0  0  0  0  0  0
  189.5600  177.3760  137.2050 C   0  0  0  0  0  2  0  0  0  0  0  0
  188.0380  177.4050  137.2630 C   0  0  1  0  0  3  0  0  0  0  0  0
  187.5870  178.7890  136.8250 C   0  0  0  0  0  1  0  0  0  0  0  0
  187.4210  176.3180  136.3660 C   0  0  1  0  0  3  0  0  0  0  0  0
  185.0470  175.5200  135.9100 C   0  0  0  0  0  0  0  0  0  0  0  0
  183.8290  175.8130  135.7790 O   0  0  0  0  0  0  0  0  0  0  0  0
  185.9910  176.5580  136.1890 N   0  0  0  0  0  2  0  0  0  0  0  0
  185.4760  174.0890  135.8140 C   0  0  0  0  0  2  0  0  0  0  0  0
  184.4830  172.4700  137.3440 N   0  0  0  0  0  1  0  0  0  0  0  0
  185.5500  173.4430  137.1900 C   0  0  1  0  0  3  0  0  0  0  0  0
  186.8870  172.7490  137.3440 C   0  0  0  0  0  1  0  0  0  0  0  0
  188.0750  176.2930  135.0160 C   0  0  0  0  0  3  0  0  0  0  0  0
  188.7370  175.2150  134.5970 C   0  0  0  0  0  2  0  0  0  0  0  0
  186.5480  177.4340  143.2810 N   0  0  0  0  0  2  0  0  0  0  0  0
  186.5850  178.5620  142.3670 C   0  0  0  0  0  2  0  0  0  0  0  0
  184.2220  178.5240  142.6100 O   0  0  0  0  0  0  0  0  0  0  0  0
  185.2080  178.8790  141.9090 C   0  0  0  0  0  0  0  0  0  0  0  0
  185.0240  179.5380  140.6910 O   0  0  0  0  0  0  0  0  0  0  0  0
  184.9640  178.8420  139.4520 C   0  0  0  0  0  2  0  0  0  0  0  0
  183.4550  178.0610  137.7680 F   0  0  0  0  0  0  0  0  0  0  0  0
  183.5170  178.6190  139.0350 C   0  0  2  0  0  3  0  0  0  0  0  0
  182.7590  179.9370  139.0520 C   0  0  0  0  0  2  0  0  0  0  0  0
  181.4150  179.7190  139.3020 F   0  0  0  0  0  0  0  0  0  0  0  0
  1  9  2  0  0  0  0
  3  2  1  0  0  0  0
  3  7  1  0  0  0  0
  4  3  2  0  0  0  0
  5  8  1  0  0  0  0
  5  4  2  0  0  0  0
  8 32  1  6  0  0  0
  8 10  1  0  0  0  0
  9  6  1  0  0  0  0
 10  1  1  6  0  0  0
 10 11  1  0  0  0  0
 11  7  1  0  0  0  0
 11  6  2  0  0  0  0
 12  5  1  0  0  0  0
 13 12  1  0  0  0  0
 14 13  1  0  0  0  0
 16 19  1  6  0  0  0
 16 17  1  0  0  0  0
 16 18  1  0  0  0  0
 17 15  1  6  0  0  0
 17 18  1  0  0  0  0
 18 14  1  1  0  0  0
 19 20  1  0  0  0  0
 20 21  1  6  0  0  0
 22 30  1  6  0  0  0
 22 20  1  0  0  0  0
 23 25  1  0  0  0  0
 24 23  2  0  0  0  0
 25 22  1  0  0  0  0
 26 23  1  0  0  0  0
 26 28  1  0  0  0  0
 28 27  1  0  0  0  0
 28 29  1  6  0  0  0
 31 30  2  0  0  0  0
 33 32  1  0  0  0  0
 35 33  1  0  0  0  0
 35 34  2  0  0  0  0
 36 35  1  0  0  0  0
 37 36  1  0  0  0  0
 39 38  1  6  0  0  0
 39 40  1  0  0  0  0
 39 37  1  0  0  0  0
 40 41  1  0  0  0  0
M  END
>  <MODEL>
8

>  <REMARK>
 VINA RESULT:      -6.5      1.847      2.428
  Name = 
  18 active torsions:
  status: ('A' for Active; 'I' for Inactive)
    1  A    between atoms: C_4  and  C_28
    2  A    between atoms: C_4  and  C_34
    3  A    between atoms: C_5  and  C_7
    4  A    between atoms: C_7  and  N_16
    5  A    between atoms: C_7  and  C_31
    6  A    between atoms: C_8  and  C_18
    7  A    between atoms: C_8  and  C_28
    8  A    between atoms: C_9  and  C_14
    9  A    between atoms: C_10  and  C_25
   10  A    between atoms: C_14  and  C_30
   11  A    between atoms: C_20  and  C_39
   12  A    between atoms: C_22  and  N_32
   13  A    between atoms: C_22  and  C_38
   14  A    between atoms: C_25  and  C_31
   15  A    between atoms: C_26  and  N_32
   16  A    between atoms: O_27  and  C_33
   17  A    between atoms: O_27  and  C_38
   18  A    between atoms: C_33  and  C_39
                            x       y       z     vdW  Elec       q    Type
                         _______ _______ _______ _____ _____    ______ ____

>  <TORSDO>
F 18

$$$$
=
 OpenBabel10232410173D

 41 43  0  0  1  0  0  0  0  0999 V2000
  184.7510  176.8180  135.4270 N   0  0  0  0  0  0  0  0  0  0  0  0
  189.2290  177.9550  139.2490 C   0  0  0  0  0  1  0  0  0  0  0  0
  188.0000  177.7150  138.4510 C   0  0  0  0  0  0  0  0  0  0  0  0
  186.8370  178.0760  138.8760 C   0  0  0  0  0  0  0  0  0  0  0  0
  185.5540  178.2220  138.9040 C   0  0  0  0  0  0  0  0  0  0  0  0
  186.8690  175.7820  135.5220 N   0  0  0  0  0  0  0  0  0  0  0  0
  188.0270  176.9240  137.2550 N   0  0  0  0  0  2  0  0  0  0  0  0
  184.8170  177.4450  137.8290 C   0  0  2  0  0  3  0  0  0  0  0  0
  185.6000  175.7870  134.8190 C   0  0  0  0  0  3  0  0  0  0  0  0
  185.5690  177.4510  136.4630 C   0  0  1  0  0  3  0  0  0  0  0  0
  186.8560  176.6700  136.4430 C   0  0  0  0  0  0  0  0  0  0  0  0
  184.9150  179.2850  139.7380 C   0  0  0  0  0  2  0  0  0  0  0  0
  185.1940  179.0380  141.2120 C   0  0  0  0  0  2  0  0  0  0  0  0
  183.9820  178.4200  141.8870 C   0  0  0  0  0  2  0  0  0  0  0  0
  183.9720  179.1950  145.5050 N   0  0  0  0  0  1  0  0  0  0  0  0
  185.6280  178.7110  143.7090 C   0  0  2  0  0  3  0  0  0  0  0  0
  184.3410  179.4350  144.1180 C   0  0  1  0  0  3  0  0  0  0  0  0
  184.2770  178.1310  143.3480 C   0  0  1  0  0  3  0  0  0  0  0  0
  186.2610  177.8640  144.8080 C   0  0  0  0  0  2  0  0  0  0  0  0
  187.4750  177.1130  144.2730 C   0  0  1  0  0  3  0  0  0  0  0  0
  187.7860  177.6670  142.8920 C   0  0  0  0  0  1  0  0  0  0  0  0
  188.6850  177.2640  145.2100 C   0  0  1  0  0  3  0  0  0  0  0  0
  190.8870  178.3130  144.4830 C   0  0  0  0  0  0  0  0  0  0  0  0
  191.5130  179.3500  144.1380 O   0  0  0  0  0  0  0  0  0  0  0  0
  189.4970  178.4090  144.8090 N   0  0  0  0  0  2  0  0  0  0  0  0
  191.5970  176.9950  144.5030 C   0  0  0  0  0  2  0  0  0  0  0  0
  190.4970  175.4180  143.0020 N   0  0  0  0  0  1  0  0  0  0  0  0
  191.6030  176.3520  143.1240 C   0  0  1  0  0  3  0  0  0  0  0  0
  191.4660  177.4300  142.0700 C   0  0  0  0  0  1  0  0  0  0  0  0
  188.2490  177.4580  146.6330 C   0  0  0  0  0  3  0  0  0  0  0  0
  189.1410  177.5160  147.6200 C   0  0  0  0  0  2  0  0  0  0  0  0
  183.4620  177.9540  137.6660 N   0  0  0  0  0  2  0  0  0  0  0  0
  182.5760  176.8030  137.6650 C   0  0  0  0  0  2  0  0  0  0  0  0
  180.3550  176.7360  138.5050 O   0  0  0  0  0  0  0  0  0  0  0  0
  181.1630  177.2610  137.6920 C   0  0  0  0  0  0  0  0  0  0  0  0
  180.7430  178.2440  136.7920 O   0  0  0  0  0  0  0  0  0  0  0  0
  180.0820  179.4300  137.2160 C   0  0  0  0  0  2  0  0  0  0  0  0
  181.4950  180.2580  138.9590 F   0  0  0  0  0  0  0  0  0  0  0  0
  181.0960  180.4790  137.6510 C   0  0  2  0  0  3  0  0  0  0  0  0
  180.4960  181.8700  137.5270 C   0  0  0  0  0  2  0  0  0  0  0  0
  181.4960  182.8230  137.4430 F   0  0  0  0  0  0  0  0  0  0  0  0
  3  4  2  0  0  0  0
  3  2  1  0  0  0  0
  4  5  2  0  0  0  0
  5 12  1  0  0  0  0
  6 11  2  0  0  0  0
  7  3  1  0  0  0  0
  8 32  1  6  0  0  0
  8  5  1  0  0  0  0
  9  1  2  0  0  0  0
  9  6  1  0  0  0  0
 10  1  1  6  0  0  0
 10  8  1  0  0  0  0
 11 10  1  0  0  0  0
 11  7  1  0  0  0  0
 12 13  1  0  0  0  0
 13 14  1  0  0  0  0
 16 17  1  0  0  0  0
 16 19  1  1  0  0  0
 17 15  1  1  0  0  0
 18 14  1  6  0  0  0
 18 16  1  0  0  0  0
 18 17  1  0  0  0  0
 20 21  1  6  0  0  0
 20 19  1  0  0  0  0
 20 22  1  0  0  0  0
 22 30  1  1  0  0  0
 23 26  1  0  0  0  0
 23 25  1  0  0  0  0
 24 23  2  0  0  0  0
 25 22  1  0  0  0  0
 27 28  1  0  0  0  0
 28 29  1  6  0  0  0
 28 26  1  0  0  0  0
 30 31  2  0  0  0  0
 33 32  1  0  0  0  0
 33 35  1  0  0  0  0
 35 34  2  0  0  0  0
 36 37  1  0  0  0  0
 36 35  1  0  0  0  0
 37 39  1  0  0  0  0
 39 38  1  1  0  0  0
 40 39  1  0  0  0  0
 41 40  1  0  0  0  0
M  END
>  <MODEL>
9

>  <REMARK>
 VINA RESULT:      -6.3      3.017      8.497
  Name = 
  18 active torsions:
  status: ('A' for Active; 'I' for Inactive)
    1  A    between atoms: C_4  and  C_28
    2  A    between atoms: C_4  and  C_34
    3  A    between atoms: C_5  and  C_7
    4  A    between atoms: C_7  and  N_16
    5  A    between atoms: C_7  and  C_31
    6  A    between atoms: C_8  and  C_18
    7  A    between atoms: C_8  and  C_28
    8  A    between atoms: C_9  and  C_14
    9  A    between atoms: C_10  and  C_25
   10  A    between atoms: C_14  and  C_30
   11  A    between atoms: C_20  and  C_39
   12  A    between atoms: C_22  and  N_32
   13  A    between atoms: C_22  and  C_38
   14  A    between atoms: C_25  and  C_31
   15  A    between atoms: C_26  and  N_32
   16  A    between atoms: O_27  and  C_33
   17  A    between atoms: O_27  and  C_38
   18  A    between atoms: C_33  and  C_39
                            x       y       z     vdW  Elec       q    Type
                         _______ _______ _______ _____ _____    ______ ____

>  <TORSDO>
F 18

$$$$
