=
 OpenBabel10232412253D

 38 42  0  0  1  0  0  0  0  0999 V2000
  191.5570  176.5790  138.5460 C   0  0  0  0  0  0  0  0  0  0  0  0
  190.9070  177.2240  139.6320 N   0  0  0  0  0  0  0  0  0  0  0  0
  186.7890  176.8770  137.2990 C   0  0  0  0  0  3  0  0  0  0  0  0
  188.6950  175.4060  137.0450 C   0  0  0  0  0  0  0  0  0  0  0  0
  186.1200  176.1620  136.3070 C   0  0  0  0  0  3  0  0  0  0  0  0
  188.0810  176.5180  137.7010 C   0  0  0  0  0  0  0  0  0  0  0  0
  190.0700  174.9610  137.2310 C   0  0  0  0  0  3  0  0  0  0  0  0
  187.9740  174.7140  136.0640 C   0  0  0  0  0  3  0  0  0  0  0  0
  189.6330  177.4540  139.8180 C   0  0  0  0  0  0  0  0  0  0  0  0
  186.7180  175.0970  135.7190 N   0  0  0  0  0  0  0  0  0  0  0  0
  190.8880  175.7280  137.8520 C   0  0  0  0  0  0  0  0  0  0  0  0
  188.5850  177.2710  138.8330 N   0  0  0  0  0  2  0  0  0  0  0  0
  187.7410  178.5390  141.0780 C   0  0  0  0  0  1  0  0  0  0  0  0
  189.2340  178.1920  141.0580 C   0  0  1  0  0  3  0  0  0  0  0  0
  189.7160  177.5070  142.2690 N   0  0  0  0  0  0  0  0  0  0  0  0
  188.7890  177.2080  144.4550 C   0  0  2  0  0  3  0  0  0  0  0  0
  189.2330  178.2340  143.4390 C   0  0  0  0  0  2  0  0  0  0  0  0
  189.2060  176.1340  142.3630 C   0  0  0  0  0  2  0  0  0  0  0  0
  188.3970  176.0040  143.6370 C   0  0  0  0  0  2  0  0  0  0  0  0
  185.4920  178.6230  146.8240 C   0  0  0  0  0  3  0  0  0  0  0  0
  186.4300  177.9870  144.6820 C   0  0  0  0  0  3  0  0  0  0  0  0
  187.7960  177.8940  146.6810 C   0  0  0  0  0  3  0  0  0  0  0  0
  187.6570  177.7110  145.2950 C   0  0  0  0  0  0  0  0  0  0  0  0
  185.3490  178.4430  145.4440 C   0  0  0  0  0  3  0  0  0  0  0  0
  186.7140  178.3490  147.4410 C   0  0  0  0  0  3  0  0  0  0  0  0
  193.0440  176.5860  138.4720 C   0  0  0  0  0  2  0  0  0  0  0  0
  193.5080  175.4130  137.7480 N   0  0  0  0  0  2  0  0  0  0  0  0
  195.1370  173.5920  137.3430 N   0  0  0  0  0  0  0  0  0  0  0  0
  195.3600  175.0860  139.1270 O   0  0  0  0  0  0  0  0  0  0  0  0
  194.4300  173.2280  136.1860 N   0  0  0  0  0  1  0  0  0  0  0  0
  194.6980  174.7140  138.1200 C   0  0  0  0  0  0  0  0  0  0  0  0
  196.3600  172.8800  137.7020 C   0  0  1  0  0  3  0  0  0  0  0  0
  196.1150  171.3800  137.7010 C   0  0  0  0  0  1  0  0  0  0  0  0
  197.4830  173.2520  136.7410 C   0  0  0  0  0  2  0  0  0  0  0  0
  198.2320  174.4910  137.2100 C   0  0  0  0  0  0  0  0  0  0  0  0
  197.7950  175.6550  136.6290 O   0  0  0  0  0  0  0  0  0  0  0  0
  198.9720  175.1270  136.2440 O   0  0  0  0  0  0  0  0  0  0  0  0
  198.7440  174.6630  138.6270 C   0  0  0  0  0  1  0  0  0  0  0  0
  1  2  1  0  0  0  0
  2  9  2  0  0  0  0
  3  6  1  0  0  0  0
  4  7  1  0  0  0  0
  4  6  2  0  0  0  0
  5  3  2  0  0  0  0
  6 12  1  0  0  0  0
  7 11  2  0  0  0  0
  8  4  1  0  0  0  0
  9 14  1  0  0  0  0
 10  8  2  0  0  0  0
 10  5  1  0  0  0  0
 11  1  2  0  0  0  0
 12  9  1  0  0  0  0
 14 13  1  1  0  0  0
 14 15  1  0  0  0  0
 15 18  1  0  0  0  0
 15 17  1  0  0  0  0
 16 23  1  6  0  0  0
 17 16  1  0  0  0  0
 18 19  1  0  0  0  0
 19 16  1  0  0  0  0
 20 25  1  0  0  0  0
 21 23  2  0  0  0  0
 21 24  1  0  0  0  0
 22 25  2  0  0  0  0
 23 22  1  0  0  0  0
 24 20  2  0  0  0  0
 26  1  1  0  0  0  0
 27 31  1  0  0  0  0
 27 26  1  0  0  0  0
 28 32  1  0  0  0  0
 28 31  1  0  0  0  0
 30 28  1  0  0  0  0
 31 29  2  0  0  0  0
 32 33  1  6  0  0  0
 34 35  1  0  0  0  0
 34 32  1  0  0  0  0
 35 38  1  0  0  0  0
 36 35  1  0  0  0  0
 37 36  1  0  0  0  0
 37 35  1  0  0  0  0
M  END
>  <MODEL>
1

>  <REMARK>
 VINA RESULT:      -9.0      0.000      0.000
  Name = 
  8 active torsions:
  status: ('A' for Active; 'I' for Inactive)
    1  A    between atoms: N_1  and  C_9
    2  A    between atoms: C_3  and  C_19
    3  A    between atoms: N_4  and  C_19
    4  A    between atoms: N_5  and  C_10
    5  A    between atoms: C_7  and  C_33
    6  A    between atoms: C_9  and  C_29
    7  A    between atoms: C_10  and  C_33
    8  A    between atoms: C_12  and  C_28
                            x       y       z     vdW  Elec       q    Type
                         _______ _______ _______ _____ _____    ______ ____

>  <TORSDO>
F 8

$$$$
=
 OpenBabel10232412253D

 38 42  0  0  1  0  0  0  0  0999 V2000
  187.2920  178.0760  137.6870 C   0  0  0  0  0  0  0  0  0  0  0  0
  187.6860  178.4260  139.0070 N   0  0  0  0  0  0  0  0  0  0  0  0
  191.5060  175.6490  138.5420 C   0  0  0  0  0  3  0  0  0  0  0  0
  190.3160  176.7420  136.7400 C   0  0  0  0  0  0  0  0  0  0  0  0
  192.3560  175.0600  137.6070 C   0  0  0  0  0  3  0  0  0  0  0  0
  190.4750  176.5070  138.1410 C   0  0  0  0  0  0  0  0  0  0  0  0
  189.2330  177.4960  136.1210 C   0  0  0  0  0  3  0  0  0  0  0  0
  191.2050  176.1370  135.8440 C   0  0  0  0  0  3  0  0  0  0  0  0
  188.7760  178.1120  139.6580 C   0  0  0  0  0  0  0  0  0  0  0  0
  192.1960  175.3210  136.2870 N   0  0  0  0  0  0  0  0  0  0  0  0
  188.2080  177.8000  136.8300 C   0  0  0  0  0  0  0  0  0  0  0  0
  189.7670  177.1430  139.2350 N   0  0  0  0  0  2  0  0  0  0  0  0
  187.5680  179.0430  141.6630 C   0  0  0  0  0  1  0  0  0  0  0  0
  188.9090  178.6020  141.0660 C   0  0  1  0  0  3  0  0  0  0  0  0
  189.6610  177.6490  141.8980 N   0  0  0  0  0  0  0  0  0  0  0  0
  189.4920  176.9950  144.1940 C   0  0  2  0  0  3  0  0  0  0  0  0
  189.7170  178.1630  143.2630 C   0  0  0  0  0  2  0  0  0  0  0  0
  189.0110  176.3330  141.9500 C   0  0  0  0  0  2  0  0  0  0  0  0
  188.6700  176.0200  143.3920 C   0  0  0  0  0  2  0  0  0  0  0  0
  187.4410  178.1730  147.7850 C   0  0  0  0  0  3  0  0  0  0  0  0
  187.4450  177.7640  145.3970 C   0  0  0  0  0  3  0  0  0  0  0  0
  189.4720  177.4450  146.6860 C   0  0  0  0  0  3  0  0  0  0  0  0
  188.7990  177.4140  145.4530 C   0  0  0  0  0  0  0  0  0  0  0  0
  186.7670  178.1440  146.5600 C   0  0  0  0  0  3  0  0  0  0  0  0
  188.7920  177.8240  147.8480 C   0  0  0  0  0  3  0  0  0  0  0  0
  185.9180  178.4100  137.2190 C   0  0  0  0  0  2  0  0  0  0  0  0
  184.9380  177.8980  138.1640 N   0  0  0  0  0  2  0  0  0  0  0  0
  183.3160  178.1930  140.0120 N   0  0  0  0  0  0  0  0  0  0  0  0
  184.4320  180.0010  139.0370 O   0  0  0  0  0  0  0  0  0  0  0  0
  183.1570  176.8010  140.0850 N   0  0  0  0  0  1  0  0  0  0  0  0
  184.2370  178.7550  139.0690 C   0  0  0  0  0  0  0  0  0  0  0  0
  182.6070  179.0550  140.9530 C   0  0  1  0  0  3  0  0  0  0  0  0
  181.2790  179.5000  140.3610 C   0  0  0  0  0  1  0  0  0  0  0  0
  182.4010  178.3280  142.2770 C   0  0  0  0  0  2  0  0  0  0  0  0
  183.4800  178.6900  143.2870 C   0  0  0  0  0  0  0  0  0  0  0  0
  184.5350  179.3820  142.7460 O   0  0  0  0  0  0  0  0  0  0  0  0
  184.6970  178.0880  143.0840 O   0  0  0  0  0  0  0  0  0  0  0  0
  183.1770  179.0550  144.7280 C   0  0  0  0  0  1  0  0  0  0  0  0
  1  2  1  0  0  0  0
  2  9  2  0  0  0  0
  4  6  2  0  0  0  0
  5  3  2  0  0  0  0
  6  3  1  0  0  0  0
  6 12  1  0  0  0  0
  7  4  1  0  0  0  0
  7 11  2  0  0  0  0
  8 10  2  0  0  0  0
  8  4  1  0  0  0  0
  9 14  1  0  0  0  0
 10  5  1  0  0  0  0
 11  1  2  0  0  0  0
 12  9  1  0  0  0  0
 14 13  1  1  0  0  0
 14 15  1  0  0  0  0
 15 18  1  0  0  0  0
 15 17  1  0  0  0  0
 16 23  1  1  0  0  0
 17 16  1  0  0  0  0
 18 19  1  0  0  0  0
 19 16  1  0  0  0  0
 20 25  1  0  0  0  0
 21 23  2  0  0  0  0
 21 24  1  0  0  0  0
 22 25  2  0  0  0  0
 23 22  1  0  0  0  0
 24 20  2  0  0  0  0
 26  1  1  0  0  0  0
 26 27  1  0  0  0  0
 27 31  1  0  0  0  0
 28 30  1  0  0  0  0
 28 32  1  0  0  0  0
 29 31  2  0  0  0  0
 31 28  1  0  0  0  0
 32 33  1  6  0  0  0
 32 34  1  0  0  0  0
 34 35  1  0  0  0  0
 35 38  1  0  0  0  0
 36 37  1  0  0  0  0
 36 35  1  0  0  0  0
 37 35  1  0  0  0  0
M  END
>  <MODEL>
2

>  <REMARK>
 VINA RESULT:      -8.8      4.693      8.584
  Name = 
  8 active torsions:
  status: ('A' for Active; 'I' for Inactive)
    1  A    between atoms: N_1  and  C_9
    2  A    between atoms: C_3  and  C_19
    3  A    between atoms: N_4  and  C_19
    4  A    between atoms: N_5  and  C_10
    5  A    between atoms: C_7  and  C_33
    6  A    between atoms: C_9  and  C_29
    7  A    between atoms: C_10  and  C_33
    8  A    between atoms: C_12  and  C_28
                            x       y       z     vdW  Elec       q    Type
                         _______ _______ _______ _____ _____    ______ ____

>  <TORSDO>
F 8

$$$$
=
 OpenBabel10232412253D

 38 42  0  0  1  0  0  0  0  0999 V2000
  187.9970  178.5800  137.9310 C   0  0  0  0  0  0  0  0  0  0  0  0
  188.2500  178.5350  139.3280 N   0  0  0  0  0  0  0  0  0  0  0  0
  183.5910  178.9460  140.1290 C   0  0  0  0  0  3  0  0  0  0  0  0
  184.6150  178.0030  138.1490 C   0  0  0  0  0  0  0  0  0  0  0  0
  182.3350  178.7460  139.5600 C   0  0  0  0  0  3  0  0  0  0  0  0
  184.7580  178.5760  139.4510 C   0  0  0  0  0  0  0  0  0  0  0  0
  185.7050  177.6720  137.2400 C   0  0  0  0  0  3  0  0  0  0  0  0
  183.3300  177.8110  137.6300 C   0  0  0  0  0  3  0  0  0  0  0  0
  187.4040  178.5070  140.3250 C   0  0  0  0  0  0  0  0  0  0  0  0
  182.2290  178.1780  138.3340 N   0  0  0  0  0  0  0  0  0  0  0  0
  186.8800  178.1160  137.4970 C   0  0  0  0  0  0  0  0  0  0  0  0
  185.9740  178.7230  140.2280 N   0  0  0  0  0  2  0  0  0  0  0  0
  187.0270  177.8100  142.7150 C   0  0  0  0  0  1  0  0  0  0  0  0
  187.9640  178.4920  141.7130 C   0  0  1  0  0  3  0  0  0  0  0  0
  189.3460  177.9850  141.7290 N   0  0  0  0  0  0  0  0  0  0  0  0
  190.7450  177.1070  143.4610 C   0  0  2  0  0  3  0  0  0  0  0  0
  189.9480  178.3110  143.0180 C   0  0  0  0  0  2  0  0  0  0  0  0
  189.3970  176.5250  141.5770 C   0  0  0  0  0  2  0  0  0  0  0  0
  190.0650  175.9350  142.8020 C   0  0  0  0  0  2  0  0  0  0  0  0
  190.7510  176.7350  147.7450 C   0  0  0  0  0  3  0  0  0  0  0  0
  189.7260  177.5330  145.6990 C   0  0  0  0  0  3  0  0  0  0  0  0
  191.8090  176.2980  145.6120 C   0  0  0  0  0  3  0  0  0  0  0  0
  190.7710  176.9770  144.9520 C   0  0  0  0  0  0  0  0  0  0  0  0
  189.7160  177.4130  147.0930 C   0  0  0  0  0  3  0  0  0  0  0  0
  191.7960  176.1780  147.0050 C   0  0  0  0  0  3  0  0  0  0  0  0
  189.1310  178.7800  136.9860 C   0  0  0  0  0  2  0  0  0  0  0  0
  189.4230  177.5340  136.2960 N   0  0  0  0  0  2  0  0  0  0  0  0
  190.7440  175.4630  135.9800 N   0  0  0  0  0  0  0  0  0  0  0  0
  191.1400  176.9330  137.7550 O   0  0  0  0  0  0  0  0  0  0  0  0
  190.0340  175.1990  134.7990 N   0  0  0  0  0  1  0  0  0  0  0  0
  190.4660  176.6560  136.7250 C   0  0  0  0  0  0  0  0  0  0  0  0
  191.8180  174.5670  136.3980 C   0  0  1  0  0  3  0  0  0  0  0  0
  191.4430  173.1230  136.1040 C   0  0  0  0  0  1  0  0  0  0  0  0
  193.1190  174.9480  135.7010 C   0  0  0  0  0  2  0  0  0  0  0  0
  194.1710  175.4130  136.6960 C   0  0  0  0  0  0  0  0  0  0  0  0
  194.2850  176.7780  136.7840 O   0  0  0  0  0  0  0  0  0  0  0  0
  195.2420  176.0760  136.1490 O   0  0  0  0  0  0  0  0  0  0  0  0
  194.4630  174.6860  137.9950 C   0  0  0  0  0  1  0  0  0  0  0  0
  1  2  1  0  0  0  0
  2  9  2  0  0  0  0
  4  6  1  0  0  0  0
  5  3  1  0  0  0  0
  6  3  2  0  0  0  0
  6 12  1  0  0  0  0
  7 11  2  0  0  0  0
  7  4  1  0  0  0  0
  8  4  2  0  0  0  0
  8 10  1  0  0  0  0
  9 14  1  0  0  0  0
 10  5  2  0  0  0  0
 11  1  2  0  0  0  0
 12  9  1  0  0  0  0
 14 15  1  0  0  0  0
 14 13  1  1  0  0  0
 15 17  1  0  0  0  0
 16 23  1  1  0  0  0
 17 16  1  0  0  0  0
 18 15  1  0  0  0  0
 18 19  1  0  0  0  0
 19 16  1  0  0  0  0
 21 24  2  0  0  0  0
 22 25  1  0  0  0  0
 23 22  2  0  0  0  0
 23 21  1  0  0  0  0
 24 20  1  0  0  0  0
 25 20  2  0  0  0  0
 26  1  1  0  0  0  0
 27 31  1  0  0  0  0
 27 26  1  0  0  0  0
 28 32  1  0  0  0  0
 28 31  1  0  0  0  0
 30 28  1  0  0  0  0
 31 29  2  0  0  0  0
 32 33  1  6  0  0  0
 34 32  1  0  0  0  0
 34 35  1  0  0  0  0
 35 36  1  0  0  0  0
 35 38  1  0  0  0  0
 37 35  1  0  0  0  0
 37 36  1  0  0  0  0
M  END
>  <MODEL>
3

>  <REMARK>
 VINA RESULT:      -8.8      2.790      4.247
  Name = 
  8 active torsions:
  status: ('A' for Active; 'I' for Inactive)
    1  A    between atoms: N_1  and  C_9
    2  A    between atoms: C_3  and  C_19
    3  A    between atoms: N_4  and  C_19
    4  A    between atoms: N_5  and  C_10
    5  A    between atoms: C_7  and  C_33
    6  A    between atoms: C_9  and  C_29
    7  A    between atoms: C_10  and  C_33
    8  A    between atoms: C_12  and  C_28
                            x       y       z     vdW  Elec       q    Type
                         _______ _______ _______ _____ _____    ______ ____

>  <TORSDO>
F 8

$$$$
=
 OpenBabel10232412253D

 38 42  0  0  1  0  0  0  0  0999 V2000
  191.9440  177.2940  140.5180 C   0  0  0  0  0  0  0  0  0  0  0  0
  191.7380  176.7880  141.8290 N   0  0  0  0  0  0  0  0  0  0  0  0
  187.2730  178.3890  141.6840 C   0  0  0  0  0  3  0  0  0  0  0  0
  188.6210  177.7600  139.7740 C   0  0  0  0  0  0  0  0  0  0  0  0
  186.2420  178.7550  140.8210 C   0  0  0  0  0  3  0  0  0  0  0  0
  188.4790  177.8770  141.1920 C   0  0  0  0  0  0  0  0  0  0  0  0
  189.8350  177.3720  139.0680 C   0  0  0  0  0  3  0  0  0  0  0  0
  187.5490  178.1290  138.9520 C   0  0  0  0  0  3  0  0  0  0  0  0
  190.6420  176.7500  142.5410 C   0  0  0  0  0  0  0  0  0  0  0  0
  186.3960  178.6110  139.4820 N   0  0  0  0  0  0  0  0  0  0  0  0
  190.9420  177.3390  139.7150 C   0  0  0  0  0  0  0  0  0  0  0  0
  189.3970  177.4180  142.2160 N   0  0  0  0  0  2  0  0  0  0  0  0
  191.9250  175.2330  144.0900 C   0  0  0  0  0  1  0  0  0  0  0  0
  190.7290  176.1780  143.9220 C   0  0  1  0  0  3  0  0  0  0  0  0
  190.6370  177.2310  144.9460 N   0  0  0  0  0  0  0  0  0  0  0  0
  188.7950  178.2240  146.1080 C   0  0  2  0  0  3  0  0  0  0  0  0
  189.3950  177.9710  144.7450 C   0  0  0  0  0  2  0  0  0  0  0  0
  190.6020  176.6740  146.3050 C   0  0  0  0  0  2  0  0  0  0  0  0
  189.3060  177.0960  146.9660 C   0  0  0  0  0  2  0  0  0  0  0  0
  184.5000  178.3810  146.0170 C   0  0  0  0  0  3  0  0  0  0  0  0
  186.5900  178.5390  147.2320 C   0  0  0  0  0  3  0  0  0  0  0  0
  186.5990  178.0460  144.8590 C   0  0  0  0  0  3  0  0  0  0  0  0
  187.3000  178.2630  146.0580 C   0  0  0  0  0  0  0  0  0  0  0  0
  185.1920  178.5970  147.2120 C   0  0  0  0  0  3  0  0  0  0  0  0
  185.2030  178.1060  144.8410 C   0  0  0  0  0  3  0  0  0  0  0  0
  193.3290  177.3850  139.9760 C   0  0  0  0  0  2  0  0  0  0  0  0
  193.3810  176.7860  138.6510 N   0  0  0  0  0  2  0  0  0  0  0  0
  194.3850  175.2670  136.9730 N   0  0  0  0  0  0  0  0  0  0  0  0
  195.1650  175.3780  139.1740 O   0  0  0  0  0  0  0  0  0  0  0  0
  193.5150  175.7820  135.9980 N   0  0  0  0  0  1  0  0  0  0  0  0
  194.3470  175.7910  138.3060 C   0  0  0  0  0  0  0  0  0  0  0  0
  195.3780  174.2640  136.6030 C   0  0  1  0  0  3  0  0  0  0  0  0
  194.7200  173.1330  135.8280 C   0  0  0  0  0  1  0  0  0  0  0  0
  196.4950  174.9070  135.7900 C   0  0  0  0  0  2  0  0  0  0  0  0
  197.8510  174.7150  136.4530 C   0  0  0  0  0  0  0  0  0  0  0  0
  197.7820  174.1360  137.6950 O   0  0  0  0  0  0  0  0  0  0  0  0
  198.0530  175.4510  137.5940 O   0  0  0  0  0  0  0  0  0  0  0  0
  199.1100  174.3690  135.6810 C   0  0  0  0  0  1  0  0  0  0  0  0
  1  2  1  0  0  0  0
  2  9  2  0  0  0  0
  4  6  2  0  0  0  0
  5  3  2  0  0  0  0
  6  3  1  0  0  0  0
  6 12  1  0  0  0  0
  7 11  2  0  0  0  0
  7  4  1  0  0  0  0
  8 10  2  0  0  0  0
  8  4  1  0  0  0  0
  9 14  1  0  0  0  0
 10  5  1  0  0  0  0
 11  1  2  0  0  0  0
 12  9  1  0  0  0  0
 14 13  1  6  0  0  0
 14 15  1  0  0  0  0
 15 18  1  0  0  0  0
 16 23  1  6  0  0  0
 16 19  1  0  0  0  0
 17 15  1  0  0  0  0
 17 16  1  0  0  0  0
 18 19  1  0  0  0  0
 20 24  1  0  0  0  0
 22 23  2  0  0  0  0
 23 21  1  0  0  0  0
 24 21  2  0  0  0  0
 25 22  1  0  0  0  0
 25 20  2  0  0  0  0
 26  1  1  0  0  0  0
 27 26  1  0  0  0  0
 28 31  1  0  0  0  0
 30 28  1  0  0  0  0
 31 27  1  0  0  0  0
 31 29  2  0  0  0  0
 32 33  1  6  0  0  0
 32 28  1  0  0  0  0
 34 35  1  0  0  0  0
 34 32  1  0  0  0  0
 35 37  1  0  0  0  0
 35 36  1  0  0  0  0
 37 36  1  0  0  0  0
 38 35  1  0  0  0  0
M  END
>  <MODEL>
4

>  <REMARK>
 VINA RESULT:      -8.4      2.061      3.008
  Name = 
  8 active torsions:
  status: ('A' for Active; 'I' for Inactive)
    1  A    between atoms: N_1  and  C_9
    2  A    between atoms: C_3  and  C_19
    3  A    between atoms: N_4  and  C_19
    4  A    between atoms: N_5  and  C_10
    5  A    between atoms: C_7  and  C_33
    6  A    between atoms: C_9  and  C_29
    7  A    between atoms: C_10  and  C_33
    8  A    between atoms: C_12  and  C_28
                            x       y       z     vdW  Elec       q    Type
                         _______ _______ _______ _____ _____    ______ ____

>  <TORSDO>
F 8

$$$$
=
 OpenBabel10232412253D

 38 42  0  0  1  0  0  0  0  0999 V2000
  186.8650  177.6300  137.6390 C   0  0  0  0  0  0  0  0  0  0  0  0
  187.2110  178.0930  138.9380 N   0  0  0  0  0  0  0  0  0  0  0  0
  191.4810  176.0790  138.4550 C   0  0  0  0  0  3  0  0  0  0  0  0
  190.0680  176.8650  136.6530 C   0  0  0  0  0  0  0  0  0  0  0  0
  192.4090  175.6320  137.5160 C   0  0  0  0  0  3  0  0  0  0  0  0
  190.2970  176.7110  138.0560 C   0  0  0  0  0  0  0  0  0  0  0  0
  188.8490  177.3780  136.0410 C   0  0  0  0  0  3  0  0  0  0  0  0
  191.0390  176.4110  135.7530 C   0  0  0  0  0  3  0  0  0  0  0  0
  188.3530  178.0140  139.5690 C   0  0  0  0  0  0  0  0  0  0  0  0
  192.1760  175.8130  136.1930 N   0  0  0  0  0  0  0  0  0  0  0  0
  187.7990  177.5040  136.7670 C   0  0  0  0  0  0  0  0  0  0  0  0
  189.5030  177.2380  139.1490 N   0  0  0  0  0  2  0  0  0  0  0  0
  187.0320  178.7210  141.5940 C   0  0  0  0  0  1  0  0  0  0  0  0
  188.4180  178.5680  140.9580 C   0  0  1  0  0  3  0  0  0  0  0  0
  189.3890  177.8330  141.7850 N   0  0  0  0  0  0  0  0  0  0  0  0
  189.4480  177.2460  144.1040 C   0  0  2  0  0  3  0  0  0  0  0  0
  189.3800  178.3980  143.1300 C   0  0  0  0  0  2  0  0  0  0  0  0
  189.0430  176.4110  141.9040 C   0  0  0  0  0  2  0  0  0  0  0  0
  188.8300  176.0860  143.3680 C   0  0  0  0  0  2  0  0  0  0  0  0
  187.4330  178.1590  147.7920 C   0  0  0  0  0  3  0  0  0  0  0  0
  189.4520  177.5980  146.5750 C   0  0  0  0  0  3  0  0  0  0  0  0
  187.3460  177.8140  145.3970 C   0  0  0  0  0  3  0  0  0  0  0  0
  188.7260  177.5530  145.3790 C   0  0  0  0  0  0  0  0  0  0  0  0
  188.8070  177.8990  147.7790 C   0  0  0  0  0  3  0  0  0  0  0  0
  186.7030  178.1160  146.6020 C   0  0  0  0  0  3  0  0  0  0  0  0
  185.4430  177.6800  137.1980 C   0  0  0  0  0  2  0  0  0  0  0  0
  184.5910  178.0450  138.3190 N   0  0  0  0  0  2  0  0  0  0  0  0
  182.3900  178.6060  139.3040 N   0  0  0  0  0  0  0  0  0  0  0  0
  182.6260  177.9770  137.0650 O   0  0  0  0  0  0  0  0  0  0  0  0
  183.0210  178.9150  140.5190 N   0  0  0  0  0  1  0  0  0  0  0  0
  183.1770  178.1980  138.1780 C   0  0  0  0  0  0  0  0  0  0  0  0
  180.9470  178.7830  139.1690 C   0  0  1  0  0  3  0  0  0  0  0  0
  180.2100  177.8110  140.0770 C   0  0  0  0  0  1  0  0  0  0  0  0
  180.5640  180.2250  139.4840 C   0  0  0  0  0  2  0  0  0  0  0  0
  180.7160  181.1220  138.2650 C   0  0  0  0  0  0  0  0  0  0  0  0
  181.7430  182.0270  138.3680 O   0  0  0  0  0  0  0  0  0  0  0  0
  180.4710  182.4550  138.4870 O   0  0  0  0  0  0  0  0  0  0  0  0
  180.4510  180.6490  136.8490 C   0  0  0  0  0  1  0  0  0  0  0  0
  1  2  1  0  0  0  0
  2  9  2  0  0  0  0
  4  6  2  0  0  0  0
  5  3  2  0  0  0  0
  6  3  1  0  0  0  0
  6 12  1  0  0  0  0
  7  4  1  0  0  0  0
  7 11  2  0  0  0  0
  8 10  2  0  0  0  0
  8  4  1  0  0  0  0
  9 14  1  0  0  0  0
 10  5  1  0  0  0  0
 11  1  2  0  0  0  0
 12  9  1  0  0  0  0
 14 13  1  1  0  0  0
 14 15  1  0  0  0  0
 15 18  1  0  0  0  0
 15 17  1  0  0  0  0
 16 23  1  1  0  0  0
 17 16  1  0  0  0  0
 18 19  1  0  0  0  0
 19 16  1  0  0  0  0
 21 24  2  0  0  0  0
 22 25  1  0  0  0  0
 23 22  2  0  0  0  0
 23 21  1  0  0  0  0
 24 20  1  0  0  0  0
 25 20  2  0  0  0  0
 26  1  1  0  0  0  0
 26 27  1  0  0  0  0
 28 30  1  0  0  0  0
 29 31  2  0  0  0  0
 31 27  1  0  0  0  0
 31 28  1  0  0  0  0
 32 28  1  0  0  0  0
 32 34  1  0  0  0  0
 32 33  1  1  0  0  0
 35 36  1  0  0  0  0
 35 37  1  0  0  0  0
 35 34  1  0  0  0  0
 36 37  1  0  0  0  0
 38 35  1  0  0  0  0
M  END
>  <MODEL>
5

>  <REMARK>
 VINA RESULT:      -8.3      5.362      9.472
  Name = 
  8 active torsions:
  status: ('A' for Active; 'I' for Inactive)
    1  A    between atoms: N_1  and  C_9
    2  A    between atoms: C_3  and  C_19
    3  A    between atoms: N_4  and  C_19
    4  A    between atoms: N_5  and  C_10
    5  A    between atoms: C_7  and  C_33
    6  A    between atoms: C_9  and  C_29
    7  A    between atoms: C_10  and  C_33
    8  A    between atoms: C_12  and  C_28
                            x       y       z     vdW  Elec       q    Type
                         _______ _______ _______ _____ _____    ______ ____

>  <TORSDO>
F 8

$$$$
=
 OpenBabel10232412253D

 38 42  0  0  1  0  0  0  0  0999 V2000
  185.1360  179.0060  140.8990 C   0  0  0  0  0  0  0  0  0  0  0  0
  186.4200  178.3990  140.8410 N   0  0  0  0  0  0  0  0  0  0  0  0
  186.6160  178.4860  145.5810 C   0  0  0  0  0  3  0  0  0  0  0  0
  184.6000  178.4140  144.2430 C   0  0  0  0  0  0  0  0  0  0  0  0
  185.8340  178.5420  146.7340 C   0  0  0  0  0  3  0  0  0  0  0  0
  186.0280  178.4120  144.3130 C   0  0  0  0  0  0  0  0  0  0  0  0
  183.8070  178.4700  143.0210 C   0  0  0  0  0  3  0  0  0  0  0  0
  183.8620  178.4570  145.4320 C   0  0  0  0  0  3  0  0  0  0  0  0
  187.1840  177.9780  141.8150 C   0  0  0  0  0  0  0  0  0  0  0  0
  184.4820  178.5170  146.6380 N   0  0  0  0  0  0  0  0  0  0  0  0
  184.3920  178.7640  141.9190 C   0  0  0  0  0  0  0  0  0  0  0  0
  186.9700  178.2250  143.2270 N   0  0  0  0  0  2  0  0  0  0  0  0
  188.6280  177.0770  139.9580 C   0  0  0  0  0  1  0  0  0  0  0  0
  188.5160  177.4000  141.4530 C   0  0  1  0  0  3  0  0  0  0  0  0
  189.6190  178.2180  141.9830 N   0  0  0  0  0  0  0  0  0  0  0  0
  190.9490  178.0800  143.9670 C   0  0  2  0  0  3  0  0  0  0  0  0
  189.5410  178.2190  143.4400 C   0  0  0  0  0  2  0  0  0  0  0  0
  190.9330  177.6760  141.6140 C   0  0  0  0  0  2  0  0  0  0  0  0
  191.6930  177.3470  142.8810 C   0  0  0  0  0  2  0  0  0  0  0  0
  190.9800  175.9700  147.7130 C   0  0  0  0  0  3  0  0  0  0  0  0
  189.9880  177.5980  146.2190 C   0  0  0  0  0  3  0  0  0  0  0  0
  191.9820  176.3950  145.5510 C   0  0  0  0  0  3  0  0  0  0  0  0
  190.9840  177.3440  145.2700 C   0  0  0  0  0  0  0  0  0  0  0  0
  189.9850  176.9140  147.4390 C   0  0  0  0  0  3  0  0  0  0  0  0
  191.9770  175.7110  146.7700 C   0  0  0  0  0  3  0  0  0  0  0  0
  184.5310  179.5620  139.6580 C   0  0  0  0  0  2  0  0  0  0  0  0
  185.2240  179.0360  138.4920 N   0  0  0  0  0  2  0  0  0  0  0  0
  185.6290  177.2830  136.7910 N   0  0  0  0  0  0  0  0  0  0  0  0
  183.9260  177.1020  138.3820 O   0  0  0  0  0  0  0  0  0  0  0  0
  186.7320  178.0090  136.3160 N   0  0  0  0  0  1  0  0  0  0  0  0
  184.8820  177.7760  137.9100 C   0  0  0  0  0  0  0  0  0  0  0  0
  185.3000  175.9900  136.1980 C   0  0  1  0  0  3  0  0  0  0  0  0
  185.6220  175.9950  134.7120 C   0  0  0  0  0  1  0  0  0  0  0  0
  186.0540  174.8770  136.9170 C   0  0  0  0  0  2  0  0  0  0  0  0
  185.1460  173.6950  137.2220 C   0  0  0  0  0  0  0  0  0  0  0  0
  185.6930  172.7880  138.0960 O   0  0  0  0  0  0  0  0  0  0  0  0
  185.6080  172.4770  136.7890 O   0  0  0  0  0  0  0  0  0  0  0  0
  183.6370  173.8110  137.3190 C   0  0  0  0  0  1  0  0  0  0  0  0
  1 11  2  0  0  0  0
  2  1  1  0  0  0  0
  2  9  2  0  0  0  0
  3  5  1  0  0  0  0
  4  6  1  0  0  0  0
  4  8  2  0  0  0  0
  6  3  2  0  0  0  0
  7  4  1  0  0  0  0
  8 10  1  0  0  0  0
  9 12  1  0  0  0  0
 10  5  2  0  0  0  0
 11  7  2  0  0  0  0
 12  6  1  0  0  0  0
 14 13  1  6  0  0  0
 14  9  1  0  0  0  0
 14 15  1  0  0  0  0
 15 17  1  0  0  0  0
 16 23  1  1  0  0  0
 17 16  1  0  0  0  0
 18 15  1  0  0  0  0
 18 19  1  0  0  0  0
 19 16  1  0  0  0  0
 21 24  2  0  0  0  0
 22 25  1  0  0  0  0
 23 22  2  0  0  0  0
 23 21  1  0  0  0  0
 24 20  1  0  0  0  0
 25 20  2  0  0  0  0
 26  1  1  0  0  0  0
 27 26  1  0  0  0  0
 28 31  1  0  0  0  0
 30 28  1  0  0  0  0
 31 29  2  0  0  0  0
 31 27  1  0  0  0  0
 32 33  1  6  0  0  0
 32 28  1  0  0  0  0
 32 34  1  0  0  0  0
 34 35  1  0  0  0  0
 35 38  1  0  0  0  0
 35 36  1  0  0  0  0
 37 35  1  0  0  0  0
 37 36  1  0  0  0  0
M  END
>  <MODEL>
6

>  <REMARK>
 VINA RESULT:      -8.2      5.597      8.517
  Name = 
  8 active torsions:
  status: ('A' for Active; 'I' for Inactive)
    1  A    between atoms: N_1  and  C_9
    2  A    between atoms: C_3  and  C_19
    3  A    between atoms: N_4  and  C_19
    4  A    between atoms: N_5  and  C_10
    5  A    between atoms: C_7  and  C_33
    6  A    between atoms: C_9  and  C_29
    7  A    between atoms: C_10  and  C_33
    8  A    between atoms: C_12  and  C_28
                            x       y       z     vdW  Elec       q    Type
                         _______ _______ _______ _____ _____    ______ ____

>  <TORSDO>
F 8

$$$$
=
 OpenBabel10232412253D

 38 42  0  0  1  0  0  0  0  0999 V2000
  188.4480  177.2790  137.4010 C   0  0  0  0  0  0  0  0  0  0  0  0
  189.0270  177.2040  138.6960 N   0  0  0  0  0  0  0  0  0  0  0  0
  191.9660  173.8250  137.1270 C   0  0  0  0  0  3  0  0  0  0  0  0
  190.9450  175.5590  135.7810 C   0  0  0  0  0  0  0  0  0  0  0  0
  192.5570  173.3000  135.9800 C   0  0  0  0  0  3  0  0  0  0  0  0
  191.1560  174.9650  137.0640 C   0  0  0  0  0  0  0  0  0  0  0  0
  190.0410  176.6650  135.4920 C   0  0  0  0  0  3  0  0  0  0  0  0
  191.5740  174.9990  134.6620 C   0  0  0  0  0  3  0  0  0  0  0  0
  190.0520  176.5050  139.1080 C   0  0  0  0  0  0  0  0  0  0  0  0
  192.3590  173.8980  134.7790 N   0  0  0  0  0  0  0  0  0  0  0  0
  189.1890  177.0150  136.3850 C   0  0  0  0  0  0  0  0  0  0  0  0
  190.7270  175.4660  138.3550 N   0  0  0  0  0  2  0  0  0  0  0  0
  191.5940  177.5610  140.7970 C   0  0  0  0  0  1  0  0  0  0  0  0
  190.4230  176.6010  140.5550 C   0  0  1  0  0  3  0  0  0  0  0  0
  189.2430  176.8560  141.3970 N   0  0  0  0  0  0  0  0  0  0  0  0
  188.9490  177.1560  143.7530 C   0  0  2  0  0  3  0  0  0  0  0  0
  189.4400  176.2040  142.6870 C   0  0  0  0  0  2  0  0  0  0  0  0
  189.0500  178.2890  141.6530 C   0  0  0  0  0  2  0  0  0  0  0  0
  189.1150  178.5260  143.1470 C   0  0  0  0  0  2  0  0  0  0  0  0
  191.1000  176.7060  147.4490 C   0  0  0  0  0  3  0  0  0  0  0  0
  189.0630  177.2270  146.2450 C   0  0  0  0  0  3  0  0  0  0  0  0
  191.0730  176.6330  145.0290 C   0  0  0  0  0  3  0  0  0  0  0  0
  189.7190  177.0060  145.0280 C   0  0  0  0  0  0  0  0  0  0  0  0
  189.7520  177.0790  147.4530 C   0  0  0  0  0  3  0  0  0  0  0  0
  191.7600  176.4840  146.2380 C   0  0  0  0  0  3  0  0  0  0  0  0
  187.1690  178.0180  137.2100 C   0  0  0  0  0  2  0  0  0  0  0  0
  186.6600  178.4630  138.4980 N   0  0  0  0  0  2  0  0  0  0  0  0
  184.8600  178.6810  140.1840 N   0  0  0  0  0  0  0  0  0  0  0  0
  184.5630  177.4890  138.1950 O   0  0  0  0  0  0  0  0  0  0  0  0
  185.6940  179.5030  140.9580 N   0  0  0  0  0  1  0  0  0  0  0  0
  185.3260  178.1790  138.9260 C   0  0  0  0  0  0  0  0  0  0  0  0
  183.4940  178.4130  140.6240 C   0  0  1  0  0  3  0  0  0  0  0  0
  183.3930  178.5420  142.1360 C   0  0  0  0  0  1  0  0  0  0  0  0
  182.5230  179.3590  139.9280 C   0  0  0  0  0  2  0  0  0  0  0  0
  181.3260  178.6130  139.3590 C   0  0  0  0  0  0  0  0  0  0  0  0
  180.9430  179.0470  138.1140 O   0  0  0  0  0  0  0  0  0  0  0  0
  180.1930  179.3690  139.1850 O   0  0  0  0  0  0  0  0  0  0  0  0
  181.0800  177.1350  139.5990 C   0  0  0  0  0  1  0  0  0  0  0  0
  1  2  1  0  0  0  0
  2  9  2  0  0  0  0
  4  6  2  0  0  0  0
  5  3  2  0  0  0  0
  6  3  1  0  0  0  0
  6 12  1  0  0  0  0
  7  4  1  0  0  0  0
  7 11  2  0  0  0  0
  8 10  2  0  0  0  0
  8  4  1  0  0  0  0
  9 14  1  0  0  0  0
 10  5  1  0  0  0  0
 11  1  2  0  0  0  0
 12  9  1  0  0  0  0
 14 13  1  6  0  0  0
 14 15  1  0  0  0  0
 15 18  1  0  0  0  0
 15 17  1  0  0  0  0
 16 23  1  1  0  0  0
 17 16  1  0  0  0  0
 18 19  1  0  0  0  0
 19 16  1  0  0  0  0
 20 24  1  0  0  0  0
 21 24  2  0  0  0  0
 22 25  1  0  0  0  0
 23 22  2  0  0  0  0
 23 21  1  0  0  0  0
 25 20  2  0  0  0  0
 26  1  1  0  0  0  0
 26 27  1  0  0  0  0
 27 31  1  0  0  0  0
 28 32  1  0  0  0  0
 28 30  1  0  0  0  0
 29 31  2  0  0  0  0
 31 28  1  0  0  0  0
 32 33  1  1  0  0  0
 34 32  1  0  0  0  0
 35 38  1  0  0  0  0
 35 34  1  0  0  0  0
 36 37  1  0  0  0  0
 36 35  1  0  0  0  0
 37 35  1  0  0  0  0
M  END
>  <MODEL>
7

>  <REMARK>
 VINA RESULT:      -8.1      4.819      8.828
  Name = 
  8 active torsions:
  status: ('A' for Active; 'I' for Inactive)
    1  A    between atoms: N_1  and  C_9
    2  A    between atoms: C_3  and  C_19
    3  A    between atoms: N_4  and  C_19
    4  A    between atoms: N_5  and  C_10
    5  A    between atoms: C_7  and  C_33
    6  A    between atoms: C_9  and  C_29
    7  A    between atoms: C_10  and  C_33
    8  A    between atoms: C_12  and  C_28
                            x       y       z     vdW  Elec       q    Type
                         _______ _______ _______ _____ _____    ______ ____

>  <TORSDO>
F 8

$$$$
=
 OpenBabel10232412253D

 38 42  0  0  1  0  0  0  0  0999 V2000
  188.1750  178.1230  141.8920 C   0  0  0  0  0  0  0  0  0  0  0  0
  186.9710  178.2190  142.6410 N   0  0  0  0  0  0  0  0  0  0  0  0
  189.2960  176.6530  146.4700 C   0  0  0  0  0  3  0  0  0  0  0  0
  190.2740  177.8380  144.6000 C   0  0  0  0  0  0  0  0  0  0  0  0
  190.5610  176.5380  147.0430 C   0  0  0  0  0  3  0  0  0  0  0  0
  189.1140  177.3080  145.2460 C   0  0  0  0  0  0  0  0  0  0  0  0
  190.3090  178.4370  143.2720 C   0  0  0  0  0  3  0  0  0  0  0  0
  191.5190  177.7070  145.2250 C   0  0  0  0  0  3  0  0  0  0  0  0
  186.7720  178.0270  143.9190 C   0  0  0  0  0  0  0  0  0  0  0  0
  191.6390  177.0720  146.4190 N   0  0  0  0  0  0  0  0  0  0  0  0
  189.2910  178.2980  142.5040 C   0  0  0  0  0  0  0  0  0  0  0  0
  187.7280  177.4620  144.8500 N   0  0  0  0  0  2  0  0  0  0  0  0
  185.3250  178.3660  145.9520 C   0  0  0  0  0  1  0  0  0  0  0  0
  185.3730  178.1700  144.4330 C   0  0  1  0  0  3  0  0  0  0  0  0
  184.6190  179.1740  143.6650 N   0  0  0  0  0  0  0  0  0  0  0  0
  182.9010  179.0110  142.0070 C   0  0  2  0  0  3  0  0  0  0  0  0
  184.3220  178.6260  142.3450 C   0  0  0  0  0  2  0  0  0  0  0  0
  183.3380  179.5040  144.3020 C   0  0  0  0  0  2  0  0  0  0  0  0
  182.2180  179.1630  143.3410 C   0  0  0  0  0  2  0  0  0  0  0  0
  180.9360  176.0960  139.5310 C   0  0  0  0  0  3  0  0  0  0  0  0
  180.8380  177.9140  141.1290 C   0  0  0  0  0  3  0  0  0  0  0  0
  182.9820  177.0970  140.3500 C   0  0  0  0  0  3  0  0  0  0  0  0
  182.2360  177.9810  141.1480 C   0  0  0  0  0  0  0  0  0  0  0  0
  180.1890  176.9720  140.3240 C   0  0  0  0  0  3  0  0  0  0  0  0
  182.3320  176.1580  139.5440 C   0  0  0  0  0  3  0  0  0  0  0  0
  188.1250  178.2200  140.4060 C   0  0  0  0  0  2  0  0  0  0  0  0
  189.0870  177.3000  139.8190 N   0  0  0  0  0  2  0  0  0  0  0  0
  190.3160  176.3550  137.8890 N   0  0  0  0  0  0  0  0  0  0  0  0
  188.8590  178.1690  137.6670 O   0  0  0  0  0  0  0  0  0  0  0  0
  190.8570  175.3670  138.7260 N   0  0  0  0  0  1  0  0  0  0  0  0
  189.3960  177.3150  138.4240 C   0  0  0  0  0  0  0  0  0  0  0  0
  190.6270  176.3480  136.4620 C   0  0  1  0  0  3  0  0  0  0  0  0
  192.1220  176.1650  136.2510 C   0  0  0  0  0  1  0  0  0  0  0  0
  189.8360  175.2520  135.7590 C   0  0  0  0  0  2  0  0  0  0  0  0
  188.5120  175.7750  135.2220 C   0  0  0  0  0  0  0  0  0  0  0  0
  187.4480  175.5510  136.0600 O   0  0  0  0  0  0  0  0  0  0  0  0
  187.5740  174.8130  134.9410 O   0  0  0  0  0  0  0  0  0  0  0  0
  188.3940  177.0450  134.4010 C   0  0  0  0  0  1  0  0  0  0  0  0
  1 11  2  0  0  0  0
  1  2  1  0  0  0  0
  2  9  2  0  0  0  0
  3  5  1  0  0  0  0
  4  8  2  0  0  0  0
  4  6  1  0  0  0  0
  6  3  2  0  0  0  0
  7  4  1  0  0  0  0
  8 10  1  0  0  0  0
  9 14  1  0  0  0  0
  9 12  1  0  0  0  0
 10  5  2  0  0  0  0
 11  7  2  0  0  0  0
 12  6  1  0  0  0  0
 14 13  1  1  0  0  0
 15 18  1  0  0  0  0
 15 14  1  0  0  0  0
 16 23  1  6  0  0  0
 16 17  1  0  0  0  0
 16 19  1  0  0  0  0
 17 15  1  0  0  0  0
 19 18  1  0  0  0  0
 20 25  2  0  0  0  0
 20 24  1  0  0  0  0
 21 23  1  0  0  0  0
 22 23  2  0  0  0  0
 24 21  2  0  0  0  0
 25 22  1  0  0  0  0
 26  1  1  0  0  0  0
 27 26  1  0  0  0  0
 28 31  1  0  0  0  0
 28 30  1  0  0  0  0
 29 31  2  0  0  0  0
 31 27  1  0  0  0  0
 32 33  1  1  0  0  0
 32 28  1  0  0  0  0
 34 32  1  0  0  0  0
 35 34  1  0  0  0  0
 35 36  1  0  0  0  0
 37 35  1  0  0  0  0
 37 36  1  0  0  0  0
 38 35  1  0  0  0  0
M  END
>  <MODEL>
8

>  <REMARK>
 VINA RESULT:      -8.0      4.043      7.682
  Name = 
  8 active torsions:
  status: ('A' for Active; 'I' for Inactive)
    1  A    between atoms: N_1  and  C_9
    2  A    between atoms: C_3  and  C_19
    3  A    between atoms: N_4  and  C_19
    4  A    between atoms: N_5  and  C_10
    5  A    between atoms: C_7  and  C_33
    6  A    between atoms: C_9  and  C_29
    7  A    between atoms: C_10  and  C_33
    8  A    between atoms: C_12  and  C_28
                            x       y       z     vdW  Elec       q    Type
                         _______ _______ _______ _____ _____    ______ ____

>  <TORSDO>
F 8

$$$$
=
 OpenBabel10232412253D

 38 42  0  0  1  0  0  0  0  0999 V2000
  187.9560  178.3710  141.3970 C   0  0  0  0  0  0  0  0  0  0  0  0
  189.0940  178.4260  142.2470 N   0  0  0  0  0  0  0  0  0  0  0  0
  191.6600  176.3220  138.8550 C   0  0  0  0  0  3  0  0  0  0  0  0
  189.6860  177.6790  138.5080 C   0  0  0  0  0  0  0  0  0  0  0  0
  191.7250  176.0880  137.4830 C   0  0  0  0  0  3  0  0  0  0  0  0
  190.6530  177.1240  139.4030 C   0  0  0  0  0  0  0  0  0  0  0  0
  188.4980  178.4300  138.8950 C   0  0  0  0  0  3  0  0  0  0  0  0
  189.8050  177.4240  137.1360 C   0  0  0  0  0  3  0  0  0  0  0  0
  190.3330  178.0920  141.9970 C   0  0  0  0  0  0  0  0  0  0  0  0
  190.8090  176.6470  136.6550 N   0  0  0  0  0  0  0  0  0  0  0  0
  188.1400  178.4250  140.1260 C   0  0  0  0  0  0  0  0  0  0  0  0
  190.7990  177.3820  140.8220 N   0  0  0  0  0  2  0  0  0  0  0  0
  191.4220  179.6680  143.6330 C   0  0  0  0  0  1  0  0  0  0  0  0
  191.3280  178.2310  143.1070 C   0  0  1  0  0  3  0  0  0  0  0  0
  191.1140  177.2150  144.1500 N   0  0  0  0  0  0  0  0  0  0  0  0
  189.3440  176.8240  145.7130 C   0  0  2  0  0  3  0  0  0  0  0  0
  190.3770  177.8250  145.2530 C   0  0  0  0  0  2  0  0  0  0  0  0
  190.3150  176.0840  143.6600 C   0  0  0  0  0  2  0  0  0  0  0  0
  189.0550  175.9850  144.4950 C   0  0  0  0  0  2  0  0  0  0  0  0
  185.7720  178.7170  147.1790 C   0  0  0  0  0  3  0  0  0  0  0  0
  186.9990  177.6200  145.4010 C   0  0  0  0  0  3  0  0  0  0  0  0
  188.0510  177.9890  147.5530 C   0  0  0  0  0  3  0  0  0  0  0  0
  188.1140  177.4970  146.2380 C   0  0  0  0  0  0  0  0  0  0  0  0
  185.8310  178.2300  145.8700 C   0  0  0  0  0  3  0  0  0  0  0  0
  186.8810  178.5970  148.0200 C   0  0  0  0  0  3  0  0  0  0  0  0
  186.6050  178.6450  141.9610 C   0  0  0  0  0  2  0  0  0  0  0  0
  185.7650  179.2650  140.9490 N   0  0  0  0  0  2  0  0  0  0  0  0
  183.6750  179.4140  139.6280 N   0  0  0  0  0  0  0  0  0  0  0  0
  183.9580  177.8420  141.3340 O   0  0  0  0  0  0  0  0  0  0  0  0
  184.2490  180.4300  138.8490 N   0  0  0  0  0  1  0  0  0  0  0  0
  184.4440  178.7970  140.6680 C   0  0  0  0  0  0  0  0  0  0  0  0
  182.3320  178.9330  139.3200 C   0  0  1  0  0  3  0  0  0  0  0  0
  181.4060  180.1050  139.0350 C   0  0  0  0  0  1  0  0  0  0  0  0
  182.3780  177.9710  138.1380 C   0  0  0  0  0  2  0  0  0  0  0  0
  181.6600  176.6670  138.4520 C   0  0  0  0  0  0  0  0  0  0  0  0
  181.5950  176.3790  139.7930 O   0  0  0  0  0  0  0  0  0  0  0  0
  182.4450  175.6880  139.0100 O   0  0  0  0  0  0  0  0  0  0  0  0
  180.4740  176.1610  137.6550 C   0  0  0  0  0  1  0  0  0  0  0  0
  1 26  1  0  0  0  0
  1  2  1  0  0  0  0
  3  6  1  0  0  0  0
  4  7  1  0  0  0  0
  4  6  2  0  0  0  0
  5  3  2  0  0  0  0
  6 12  1  0  0  0  0
  7 11  2  0  0  0  0
  8  4  1  0  0  0  0
  9  2  2  0  0  0  0
  9 14  1  0  0  0  0
 10  8  2  0  0  0  0
 10  5  1  0  0  0  0
 11  1  2  0  0  0  0
 12  9  1  0  0  0  0
 14 13  1  1  0  0  0
 14 15  1  0  0  0  0
 15 17  1  0  0  0  0
 16 23  1  6  0  0  0
 17 16  1  0  0  0  0
 18 15  1  0  0  0  0
 18 19  1  0  0  0  0
 19 16  1  0  0  0  0
 20 25  1  0  0  0  0
 21 24  1  0  0  0  0
 21 23  2  0  0  0  0
 22 25  2  0  0  0  0
 23 22  1  0  0  0  0
 24 20  2  0  0  0  0
 27 26  1  0  0  0  0
 28 31  1  0  0  0  0
 30 28  1  0  0  0  0
 31 27  1  0  0  0  0
 31 29  2  0  0  0  0
 32 33  1  6  0  0  0
 32 28  1  0  0  0  0
 34 35  1  0  0  0  0
 34 32  1  0  0  0  0
 35 37  1  0  0  0  0
 35 36  1  0  0  0  0
 37 36  1  0  0  0  0
 38 35  1  0  0  0  0
M  END
>  <MODEL>
9

>  <REMARK>
 VINA RESULT:      -7.9      5.145      8.809
  Name = 
  8 active torsions:
  status: ('A' for Active; 'I' for Inactive)
    1  A    between atoms: N_1  and  C_9
    2  A    between atoms: C_3  and  C_19
    3  A    between atoms: N_4  and  C_19
    4  A    between atoms: N_5  and  C_10
    5  A    between atoms: C_7  and  C_33
    6  A    between atoms: C_9  and  C_29
    7  A    between atoms: C_10  and  C_33
    8  A    between atoms: C_12  and  C_28
                            x       y       z     vdW  Elec       q    Type
                         _______ _______ _______ _____ _____    ______ ____

>  <TORSDO>
F 8

$$$$
