=
 OpenBabel10232407553D

 26 31  0  0  1  0  0  0  0  0999 V2000
  188.9150  177.7980  146.9590 C   0  0  2  0  0  3  0  0  0  0  0  0
  191.9500  175.4930  143.8890 O   0  0  0  0  0  1  0  0  0  0  0  0
  189.4830  176.2620  140.4850 O   0  0  0  0  0  0  0  0  0  0  0  0
  190.2320  177.1110  147.1960 C   0  0  2  0  0  3  0  0  0  0  0  0
  192.0030  177.6560  141.6240 O   0  0  0  0  0  1  0  0  0  0  0  0
  191.1980  178.0440  146.5220 C   0  0  0  0  0  2  0  0  0  0  0  0
  189.5430  177.1170  141.5450 C   0  0  2  0  0  0  0  0  0  0  0  0
  187.8310  177.9540  148.5290 S   0  0  0  0  0  0  0  0  0  0  0  0
  191.1110  176.6030  146.0260 C   0  0  2  0  0  0  0  0  0  0  0  0
  186.8010  177.9910  144.0160 N   0  0  0  0  0  0  0  0  0  0  0  0
  186.5990  178.0290  146.2570 C   0  0  0  0  0  0  0  0  0  0  0  0
  189.0760  177.5910  140.1160 C   0  0  0  0  0  2  0  0  0  0  0  0
  190.4870  177.2870  143.5650 C   0  0  1  0  0  3  0  0  0  0  0  0
  190.9140  176.9120  142.1580 C   0  0  2  0  0  3  0  0  0  0  0  0
  189.0370  176.9650  143.7820 N   0  0  0  0  0  0  0  0  0  0  0  0
  186.3250  178.3240  147.4900 C   0  0  0  0  0  2  0  0  0  0  0  0
  188.5680  176.4480  142.5380 C   0  0  0  0  0  2  0  0  0  0  0  0
  191.5110  176.6800  144.5640 C   0  0  2  0  0  3  0  0  0  0  0  0
  187.9340  177.6090  145.8990 C   0  0  0  0  0  0  0  0  0  0  0  0
  188.0610  177.6870  144.5550 C   0  0  0  0  0  0  0  0  0  0  0  0
  185.9130  178.2560  144.9550 C   0  0  2  0  0  3  0  0  0  0  0  0
  183.6950  179.0840  145.2280 N   0  0  0  0  0  2  0  0  0  0  0  0
  184.6220  178.6520  144.4350 C   0  0  0  0  0  0  0  0  0  0  0  0
  184.3000  178.4850  143.0320 C   0  0  0  0  0  1  0  0  0  0  0  0
  192.0400  175.7320  146.8340 C   0  0  0  0  0  0  0  0  0  0  0  0
  192.8240  175.1970  147.5130 N   0  0  0  0  0  0  0  0  0  0  0  0
  1 19  1  6  0  0  0
  1  4  1  0  0  0  0
  1  8  1  0  0  0  0
  3  7  1  0  0  0  0
  4  6  1  6  0  0  0
  7 12  1  6  0  0  0
  7 14  1  0  0  0  0
  7 17  1  0  0  0  0
  9  6  1  0  0  0  0
  9 25  1  1  0  0  0
  9  4  1  0  0  0  0
 10 20  2  0  0  0  0
 10 21  1  0  0  0  0
 11 16  1  0  0  0  0
 12  3  1  0  0  0  0
 13 15  1  1  0  0  0
 13 18  1  0  0  0  0
 14  5  1  6  0  0  0
 14 13  1  0  0  0  0
 15 20  1  0  0  0  0
 16  8  1  0  0  0  0
 17 15  1  0  0  0  0
 18  2  1  6  0  0  0
 18  9  1  0  0  0  0
 19 11  2  0  0  0  0
 20 19  1  0  0  0  0
 21 23  1  6  0  0  0
 21 11  1  0  0  0  0
 23 22  2  0  0  0  0
 24 23  1  0  0  0  0
 25 26  3  0  0  0  0
M  END
>  <MODEL>
1

>  <REMARK>
 VINA RESULT:      -9.0      0.000      0.000
  Name = 
  2 active torsions:
  status: ('A' for Active; 'I' for Inactive)
    1  A    between atoms: C_7  and  C_10
    2  A    between atoms: C_21  and  C_26
                            x       y       z     vdW  Elec       q    Type
                         _______ _______ _______ _____ _____    ______ ____

>  <TORSDO>
F 2

$$$$
=
 OpenBabel10232407553D

 26 31  0  0  1  0  0  0  0  0999 V2000
  188.6600  177.2050  144.6670 C   0  0  2  0  0  3  0  0  0  0  0  0
  184.5760  179.8210  144.0180 O   0  0  0  0  0  1  0  0  0  0  0  0
  184.8630  179.6660  139.7560 O   0  0  0  0  0  0  0  0  0  0  0  0
  187.6940  177.7960  145.6560 C   0  0  2  0  0  3  0  0  0  0  0  0
  183.2490  178.0200  141.8250 O   0  0  0  0  0  1  0  0  0  0  0  0
  186.4770  176.9370  145.4580 C   0  0  0  0  0  2  0  0  0  0  0  0
  185.3260  178.6610  140.5510 C   0  0  2  0  0  0  0  0  0  0  0  0
  190.3970  176.8580  145.3950 S   0  0  0  0  0  0  0  0  0  0  0  0
  186.3570  178.4380  145.2080 C   0  0  2  0  0  0  0  0  0  0  0  0
  188.9130  177.5360  141.0620 N   0  0  0  0  0  0  0  0  0  0  0  0
  190.2540  177.1720  142.8320 C   0  0  0  0  0  0  0  0  0  0  0  0
  184.9560  178.4240  139.0380 C   0  0  0  0  0  2  0  0  0  0  0  0
  185.5700  178.1550  142.7160 C   0  0  1  0  0  3  0  0  0  0  0  0
  184.4890  178.7180  141.8130 C   0  0  2  0  0  3  0  0  0  0  0  0
  186.9340  178.4970  142.1870 N   0  0  2  0  0  0  0  0  0  0  0  0
  191.1190  176.7070  143.6800 C   0  0  0  0  0  2  0  0  0  0  0  0
  186.7060  179.2120  140.9730 C   0  0  0  0  0  2  0  0  0  0  0  0
  185.2490  178.5650  144.1790 C   0  0  2  0  0  3  0  0  0  0  0  0
  188.9500  177.5880  143.2920 C   0  0  0  0  0  0  0  0  0  0  0  0
  188.1360  177.7060  142.2180 C   0  0  2  0  0  3  0  0  0  0  0  0
  190.1480  177.1690  141.3460 C   0  0  0  0  0  0  0  0  0  0  0  0
  190.5220  176.1340  139.2330 N   0  0  0  0  0  2  0  0  0  0  0  0
  190.9570  176.9050  140.1760 C   0  0  0  0  0  0  0  0  0  0  0  0
  192.3090  177.4170  140.0750 C   0  0  0  0  0  1  0  0  0  0  0  0
  186.0270  179.1420  146.5020 C   0  0  0  0  0  0  0  0  0  0  0  0
  185.6540  179.5750  147.5190 N   0  0  0  0  0  0  0  0  0  0  0  0
  1 19  1  6  0  0  0
  1  8  1  0  0  0  0
  1  4  1  0  0  0  0
  2 18  1  0  0  0  0
  3  7  1  0  0  0  0
  4  6  1  1  0  0  0
  7 12  1  6  0  0  0
  7 17  1  0  0  0  0
  7 14  1  0  0  0  0
  9  6  1  0  0  0  0
  9  4  1  0  0  0  0
  9 25  1  1  0  0  0
 10 21  2  0  0  0  0
 10 20  1  0  0  0  0
 11 19  2  0  0  0  0
 11 16  1  0  0  0  0
 12  3  1  0  0  0  0
 13 18  1  0  0  0  0
 14  5  1  0  0  0  0
 14 13  1  0  0  0  0
 15 20  1  0  0  0  0
 15 13  1  0  0  0  0
 16  8  1  0  0  0  0
 17 15  1  0  0  0  0
 18  9  1  0  0  0  0
 20 19  1  0  0  0  0
 21 11  1  0  0  0  0
 22 23  2  0  0  0  0
 23 21  1  0  0  0  0
 24 23  1  0  0  0  0
 25 26  3  0  0  0  0
M  END
>  <MODEL>
2

>  <REMARK>
 VINA RESULT:      -8.8      3.501      5.926
  Name = 
  2 active torsions:
  status: ('A' for Active; 'I' for Inactive)
    1  A    between atoms: C_7  and  C_10
    2  A    between atoms: C_21  and  C_26
                            x       y       z     vdW  Elec       q    Type
                         _______ _______ _______ _____ _____    ______ ____

>  <TORSDO>
F 2

$$$$
=
 OpenBabel10232407553D

 26 31  0  0  1  0  0  0  0  0999 V2000
  186.3100  178.6950  142.1540 C   0  0  2  0  0  3  0  0  0  0  0  0
  184.0300  178.2820  146.4650 O   0  0  0  0  0  1  0  0  0  0  0  0
  187.6390  177.3620  148.5610 O   0  0  0  0  0  0  0  0  0  0  0  0
  184.8650  178.8660  142.5310 C   0  0  2  0  0  3  0  0  0  0  0  0
  186.0280  179.9790  148.1780 O   0  0  0  0  0  1  0  0  0  0  0  0
  184.8980  180.1370  143.3320 C   0  0  0  0  0  2  0  0  0  0  0  0
  187.6250  178.1660  147.4620 C   0  0  2  0  0  0  0  0  0  0  0  0
  186.5850  178.3150  140.2980 S   0  0  0  0  0  0  0  0  0  0  0  0
  184.4000  178.8630  144.0090 C   0  0  2  0  0  0  0  0  0  0  0  0
  189.1680  177.5180  144.0570 N   0  0  0  0  0  0  0  0  0  0  0  0
  188.4510  177.5660  141.9240 C   0  0  0  0  0  0  0  0  0  0  0  0
  188.7920  178.2200  148.5190 C   0  0  0  0  0  2  0  0  0  0  0  0
  186.2040  178.9450  145.9200 C   0  0  1  0  0  3  0  0  0  0  0  0
  186.2430  178.7900  147.4290 C   0  0  2  0  0  3  0  0  0  0  0  0
  187.0380  177.8890  145.2560 N   0  0  2  0  0  0  0  0  0  0  0  0
  188.3240  177.7300  140.6440 C   0  0  0  0  0  2  0  0  0  0  0  0
  187.6110  177.1280  146.3190 C   0  0  0  0  0  2  0  0  0  0  0  0
  184.7190  179.0640  145.4790 C   0  0  2  0  0  3  0  0  0  0  0  0
  187.3690  177.9350  142.8060 C   0  0  0  0  0  0  0  0  0  0  0  0
  187.8470  177.9930  144.0700 C   0  0  2  0  0  3  0  0  0  0  0  0
  189.6020  177.3010  142.8310 C   0  0  0  0  0  0  0  0  0  0  0  0
  191.7580  177.2890  141.8140 N   0  0  0  0  0  2  0  0  0  0  0  0
  190.9880  176.8870  142.7730 C   0  0  0  0  0  0  0  0  0  0  0  0
  191.5220  175.9370  143.7290 C   0  0  0  0  0  1  0  0  0  0  0  0
  182.9210  178.6990  143.7570 C   0  0  0  0  0  0  0  0  0  0  0  0
  181.7570  178.6820  143.6790 N   0  0  0  0  0  0  0  0  0  0  0  0
  1  8  1  6  0  0  0
  1  4  1  0  0  0  0
  1 19  1  0  0  0  0
  4  6  1  1  0  0  0
  4  9  1  0  0  0  0
  6  9  1  0  0  0  0
  7 17  1  6  0  0  0
  7 12  1  0  0  0  0
  7  3  1  0  0  0  0
  8 16  1  0  0  0  0
  9 25  1  6  0  0  0
  9 18  1  0  0  0  0
 10 20  1  0  0  0  0
 11 19  2  0  0  0  0
 11 21  1  0  0  0  0
 12  3  1  0  0  0  0
 13 14  1  0  0  0  0
 14  7  1  0  0  0  0
 14  5  1  0  0  0  0
 15 13  1  0  0  0  0
 15 17  1  0  0  0  0
 16 11  1  0  0  0  0
 18 13  1  0  0  0  0
 18  2  1  0  0  0  0
 19 20  1  0  0  0  0
 20 15  1  0  0  0  0
 21 10  2  0  0  0  0
 22 23  2  0  0  0  0
 23 21  1  0  0  0  0
 23 24  1  0  0  0  0
 26 25  3  0  0  0  0
M  END
>  <MODEL>
3

>  <REMARK>
 VINA RESULT:      -7.8      3.581      7.083
  Name = 
  2 active torsions:
  status: ('A' for Active; 'I' for Inactive)
    1  A    between atoms: C_7  and  C_10
    2  A    between atoms: C_21  and  C_26
                            x       y       z     vdW  Elec       q    Type
                         _______ _______ _______ _____ _____    ______ ____

>  <TORSDO>
F 2

$$$$
=
 OpenBabel10232407553D

 26 31  0  0  1  0  0  0  0  0999 V2000
  184.0510  178.4330  142.5590 C   0  0  2  0  0  3  0  0  0  0  0  0
  185.8070  179.3390  138.0820 O   0  0  0  0  0  1  0  0  0  0  0  0
  189.7850  178.1970  139.1450 O   0  0  0  0  0  0  0  0  0  0  0  0
  183.3730  178.9150  141.3080 C   0  0  2  0  0  3  0  0  0  0  0  0
  187.4690  176.7090  137.7260 O   0  0  0  0  0  1  0  0  0  0  0  0
  183.4110  177.6910  140.4380 C   0  0  0  0  0  2  0  0  0  0  0  0
  188.6900  177.6330  139.7270 C   0  0  2  0  0  0  0  0  0  0  0  0
  183.1040  178.8610  144.1670 S   0  0  0  0  0  0  0  0  0  0  0  0
  184.1070  178.9560  139.9440 C   0  0  2  0  0  0  0  0  0  0  0  0
  187.5550  177.8900  143.3370 N   0  0  0  0  0  0  0  0  0  0  0  0
  185.6460  178.4440  144.3940 C   0  0  0  0  0  0  0  0  0  0  0  0
  190.0890  176.9100  139.7110 C   0  0  0  0  0  2  0  0  0  0  0  0
  186.4600  177.8060  139.7200 C   0  0  1  0  0  3  0  0  0  0  0  0
  187.5800  177.7400  138.6990 C   0  0  2  0  0  3  0  0  0  0  0  0
  186.9450  178.4190  141.0020 N   0  0  0  0  0  0  0  0  0  0  0  0
  184.6260  178.5150  145.1920 C   0  0  0  0  0  2  0  0  0  0  0  0
  188.3320  178.6870  140.7980 C   0  0  0  0  0  2  0  0  0  0  0  0
  185.2190  178.4520  139.0440 C   0  0  2  0  0  3  0  0  0  0  0  0
  185.4480  178.5220  142.9660 C   0  0  0  0  0  0  0  0  0  0  0  0
  186.5740  178.0930  142.3530 C   0  0  0  0  0  0  0  0  0  0  0  0
  187.0660  178.0250  144.5560 C   0  0  2  0  0  3  0  0  0  0  0  0
  187.6480  177.6020  146.8270 N   0  0  0  0  0  2  0  0  0  0  0  0
  188.0290  177.7450  145.5990 C   0  0  0  0  0  0  0  0  0  0  0  0
  189.4490  177.7130  145.3130 C   0  0  0  0  0  1  0  0  0  0  0  0
  183.1160  179.8240  139.2070 C   0  0  0  0  0  0  0  0  0  0  0  0
  182.4440  180.4690  138.5050 N   0  0  0  0  0  0  0  0  0  0  0  0
  1 19  1  1  0  0  0
  1  8  1  0  0  0  0
  3 12  1  0  0  0  0
  3  7  1  0  0  0  0
  4  6  1  6  0  0  0
  4  1  1  0  0  0  0
  7 12  1  1  0  0  0
  7 17  1  0  0  0  0
  8 16  1  0  0  0  0
  9 25  1  6  0  0  0
  9  6  1  0  0  0  0
  9  4  1  0  0  0  0
 10 21  1  0  0  0  0
 11 21  1  0  0  0  0
 11 16  1  0  0  0  0
 13 15  1  1  0  0  0
 14  5  1  6  0  0  0
 14 13  1  0  0  0  0
 14  7  1  0  0  0  0
 15 20  1  0  0  0  0
 17 15  1  0  0  0  0
 18  2  1  1  0  0  0
 18 13  1  0  0  0  0
 18  9  1  0  0  0  0
 19 11  2  0  0  0  0
 20 19  1  0  0  0  0
 20 10  2  0  0  0  0
 21 23  1  1  0  0  0
 23 22  2  0  0  0  0
 24 23  1  0  0  0  0
 26 25  3  0  0  0  0
M  END
>  <MODEL>
4

>  <REMARK>
 VINA RESULT:      -7.4      3.041      6.566
  Name = 
  2 active torsions:
  status: ('A' for Active; 'I' for Inactive)
    1  A    between atoms: C_7  and  C_10
    2  A    between atoms: C_21  and  C_26
                            x       y       z     vdW  Elec       q    Type
                         _______ _______ _______ _____ _____    ______ ____

>  <TORSDO>
F 2

$$$$
=
 OpenBabel10232407553D

 26 31  0  0  1  0  0  0  0  0999 V2000
  190.2890  176.8100  140.9280 C   0  0  2  0  0  3  0  0  0  0  0  0
  188.4750  178.3590  145.2010 O   0  0  0  0  0  1  0  0  0  0  0  0
  184.7570  179.5560  143.4670 O   0  0  0  0  0  0  0  0  0  0  0  0
  190.8760  176.8110  142.3120 C   0  0  2  0  0  3  0  0  0  0  0  0
  185.6550  177.0130  144.9900 O   0  0  0  0  0  1  0  0  0  0  0  0
  190.0480  175.7680  143.0060 C   0  0  0  0  0  2  0  0  0  0  0  0
  185.4840  178.5150  142.9740 C   0  0  2  0  0  0  0  0  0  0  0  0
  191.5970  176.7210  139.5330 S   0  0  0  0  0  0  0  0  0  0  0  0
  190.0350  177.1910  143.5560 C   0  0  2  0  0  0  0  0  0  0  0  0
  187.2270  178.2500  139.6150 N   0  0  0  0  0  0  0  0  0  0  0  0
  189.3010  177.7340  138.9080 C   0  0  0  0  0  0  0  0  0  0  0  0
  183.9370  178.6510  142.7060 C   0  0  0  0  0  2  0  0  0  0  0  0
  187.4330  177.4690  143.3080 C   0  0  1  0  0  3  0  0  0  0  0  0
  186.2770  177.9770  144.1490 C   0  0  2  0  0  3  0  0  0  0  0  0
  187.5820  178.2910  142.0600 N   0  0  2  0  0  0  0  0  0  0  0  0
  190.3360  177.2770  138.2730 C   0  0  0  0  0  2  0  0  0  0  0  0
  186.5270  179.2510  142.1040 C   0  0  0  0  0  2  0  0  0  0  0  0
  188.6790  177.3290  144.2240 C   0  0  2  0  0  3  0  0  0  0  0  0
  189.2450  177.6450  140.3480 C   0  0  0  0  0  0  0  0  0  0  0  0
  187.9700  177.8640  140.7420 C   0  0  2  0  0  3  0  0  0  0  0  0
  187.9280  178.1450  138.5020 C   0  0  0  0  0  0  0  0  0  0  0  0
  187.4880  179.4750  136.5740 N   0  0  0  0  0  2  0  0  0  0  0  0
  187.1710  178.4590  137.3100 C   0  0  0  0  0  0  0  0  0  0  0  0
  185.9830  177.7050  136.9620 C   0  0  0  0  0  1  0  0  0  0  0  0
  191.1770  177.3700  144.5260 C   0  0  0  0  0  0  0  0  0  0  0  0
  191.9480  177.4940  145.3940 N   0  0  0  0  0  0  0  0  0  0  0  0
  1  8  1  6  0  0  0
  1  4  1  0  0  0  0
  4  6  1  1  0  0  0
  4  9  1  0  0  0  0
  6  9  1  0  0  0  0
  7 17  1  6  0  0  0
  7  3  1  0  0  0  0
  7 14  1  0  0  0  0
  9 18  1  0  0  0  0
  9 25  1  1  0  0  0
 10 20  1  0  0  0  0
 11 19  2  0  0  0  0
 12  7  1  0  0  0  0
 12  3  1  0  0  0  0
 13 14  1  0  0  0  0
 13 18  1  0  0  0  0
 14  5  1  0  0  0  0
 15 17  1  0  0  0  0
 15 13  1  0  0  0  0
 16 11  1  0  0  0  0
 16  8  1  0  0  0  0
 18  2  1  0  0  0  0
 19 20  1  0  0  0  0
 19  1  1  0  0  0  0
 20 15  1  0  0  0  0
 21 11  1  0  0  0  0
 21 10  2  0  0  0  0
 22 23  2  0  0  0  0
 23 21  1  0  0  0  0
 24 23  1  0  0  0  0
 25 26  3  0  0  0  0
M  END
>  <MODEL>
5

>  <REMARK>
 VINA RESULT:      -7.3      3.667      5.895
  Name = 
  2 active torsions:
  status: ('A' for Active; 'I' for Inactive)
    1  A    between atoms: C_7  and  C_10
    2  A    between atoms: C_21  and  C_26
                            x       y       z     vdW  Elec       q    Type
                         _______ _______ _______ _____ _____    ______ ____

>  <TORSDO>
F 2

$$$$
=
 OpenBabel10232407553D

 26 31  0  0  1  0  0  0  0  0999 V2000
  185.2200  178.2990  143.9240 C   0  0  2  0  0  3  0  0  0  0  0  0
  187.9610  178.9210  139.9190 O   0  0  0  0  0  1  0  0  0  0  0  0
  191.5670  177.7850  141.9120 O   0  0  0  0  0  0  0  0  0  0  0  0
  184.8530  178.7180  142.5280 C   0  0  2  0  0  3  0  0  0  0  0  0
  189.5900  176.2510  140.0870 O   0  0  0  0  0  1  0  0  0  0  0  0
  185.0540  177.4450  141.7550 C   0  0  0  0  0  2  0  0  0  0  0  0
  190.3530  177.2720  142.2600 C   0  0  2  0  0  0  0  0  0  0  0  0
  183.9470  178.8330  145.2510 S   0  0  0  0  0  0  0  0  0  0  0  0
  185.8760  178.6700  141.3650 C   0  0  2  0  0  0  0  0  0  0  0  0
  188.4430  177.7530  145.5020 N   0  0  0  0  0  0  0  0  0  0  0  0
  186.3610  178.3930  146.0690 C   0  0  0  0  0  0  0  0  0  0  0  0
  191.7010  176.5290  142.6000 C   0  0  0  0  0  2  0  0  0  0  0  0
  188.1880  177.4750  141.7400 C   0  0  1  0  0  3  0  0  0  0  0  0
  189.5070  177.3350  141.0040 C   0  0  2  0  0  3  0  0  0  0  0  0
  188.3890  178.1550  143.0640 N   0  0  0  0  0  0  0  0  0  0  0  0
  185.1890  178.5250  146.6100 C   0  0  0  0  0  2  0  0  0  0  0  0
  189.7930  178.3910  143.1650 C   0  0  0  0  0  2  0  0  0  0  0  0
  187.1490  178.0990  140.7680 C   0  0  2  0  0  3  0  0  0  0  0  0
  186.4910  178.3920  144.6310 C   0  0  0  0  0  0  0  0  0  0  0  0
  187.7150  177.9120  144.3120 C   0  0  0  0  0  0  0  0  0  0  0  0
  187.6970  177.9650  146.5690 C   0  0  2  0  0  3  0  0  0  0  0  0
  187.8210  177.9880  148.9490 N   0  0  0  0  0  2  0  0  0  0  0  0
  188.3920  177.7310  147.8160 C   0  0  0  0  0  0  0  0  0  0  0  0
  189.7750  177.2970  147.8290 C   0  0  0  0  0  1  0  0  0  0  0  0
  185.1010  179.5080  140.3780 C   0  0  0  0  0  0  0  0  0  0  0  0
  184.5290  180.0350  139.5090 N   0  0  0  0  0  0  0  0  0  0  0  0
  1 19  1  1  0  0  0
  1  8  1  0  0  0  0
  3  7  1  0  0  0  0
  3 12  1  0  0  0  0
  4  6  1  6  0  0  0
  4  1  1  0  0  0  0
  7 12  1  1  0  0  0
  7 17  1  0  0  0  0
  8 16  1  0  0  0  0
  9 25  1  6  0  0  0
  9  6  1  0  0  0  0
  9  4  1  0  0  0  0
 10 21  1  0  0  0  0
 11 21  1  0  0  0  0
 11 16  1  0  0  0  0
 13 15  1  1  0  0  0
 14  5  1  1  0  0  0
 14 13  1  0  0  0  0
 14  7  1  0  0  0  0
 15 17  1  0  0  0  0
 15 20  1  0  0  0  0
 18  2  1  1  0  0  0
 18  9  1  0  0  0  0
 18 13  1  0  0  0  0
 19 11  2  0  0  0  0
 20 19  1  0  0  0  0
 20 10  2  0  0  0  0
 21 23  1  1  0  0  0
 23 24  1  0  0  0  0
 23 22  2  0  0  0  0
 26 25  3  0  0  0  0
M  END
>  <MODEL>
6

>  <REMARK>
 VINA RESULT:      -7.2      2.252      5.340
  Name = 
  2 active torsions:
  status: ('A' for Active; 'I' for Inactive)
    1  A    between atoms: C_7  and  C_10
    2  A    between atoms: C_21  and  C_26
                            x       y       z     vdW  Elec       q    Type
                         _______ _______ _______ _____ _____    ______ ____

>  <TORSDO>
F 2

$$$$
=
 OpenBabel10232407553D

 26 31  0  0  1  0  0  0  0  0999 V2000
  188.9400  176.8870  136.9270 C   0  0  2  0  0  3  0  0  0  0  0  0
  192.1200  177.2630  140.6280 O   0  0  0  0  0  1  0  0  0  0  0  0
  189.0960  178.3790  143.4340 O   0  0  0  0  0  0  0  0  0  0  0  0
  190.4250  176.6560  136.9860 C   0  0  2  0  0  3  0  0  0  0  0  0
  190.4750  175.6850  142.7760 O   0  0  0  0  0  1  0  0  0  0  0  0
  190.5150  175.4000  137.8060 C   0  0  0  0  0  2  0  0  0  0  0  0
  188.8370  177.5580  142.3780 C   0  0  2  0  0  0  0  0  0  0  0  0
  188.2830  177.2500  135.1660 S   0  0  0  0  0  0  0  0  0  0  0  0
  191.2000  176.6610  138.3270 C   0  0  2  0  0  0  0  0  0  0  0  0
  186.6170  178.2220  139.3750 N   0  0  0  0  0  0  0  0  0  0  0  0
  186.8490  178.1080  137.1390 C   0  0  0  0  0  0  0  0  0  0  0  0
  187.9270  177.5730  143.6650 C   0  0  0  0  0  2  0  0  0  0  0  0
  189.8540  176.6910  140.5850 C   0  0  1  0  0  3  0  0  0  0  0  0
  190.1510  176.8720  142.0620 C   0  0  2  0  0  3  0  0  0  0  0  0
  188.9390  177.7740  140.0910 N   0  0  2  0  0  0  0  0  0  0  0  0
  186.6870  177.9190  135.8660 C   0  0  0  0  0  2  0  0  0  0  0  0
  188.6440  178.5770  141.2340 C   0  0  0  0  0  2  0  0  0  0  0  0
  191.2010  176.4970  139.8360 C   0  0  2  0  0  3  0  0  0  0  0  0
  188.0810  177.7050  137.7740 C   0  0  0  0  0  0  0  0  0  0  0  0
  187.8880  177.6880  139.1120 C   0  0  2  0  0  3  0  0  0  0  0  0
  185.9350  178.4400  138.2670 C   0  0  0  0  0  0  0  0  0  0  0  0
  184.3790  180.0020  139.1730 N   0  0  0  0  0  2  0  0  0  0  0  0
  184.5880  178.9160  138.5010 C   0  0  0  0  0  0  0  0  0  0  0  0
  183.4400  178.1410  138.0760 C   0  0  0  0  0  1  0  0  0  0  0  0
  192.5940  176.7540  137.7550 C   0  0  0  0  0  0  0  0  0  0  0  0
  193.7160  176.7300  137.4370 N   0  0  0  0  0  0  0  0  0  0  0  0
  1  8  1  6  0  0  0
  1  4  1  0  0  0  0
  1 19  1  0  0  0  0
  3 12  1  0  0  0  0
  4  6  1  1  0  0  0
  4  9  1  0  0  0  0
  6  9  1  0  0  0  0
  7 17  1  6  0  0  0
  7  3  1  0  0  0  0
  7 12  1  0  0  0  0
  8 16  1  0  0  0  0
  9 25  1  6  0  0  0
  9 18  1  0  0  0  0
 11 19  2  0  0  0  0
 11 21  1  0  0  0  0
 13 14  1  0  0  0  0
 14  7  1  0  0  0  0
 14  5  1  0  0  0  0
 15 13  1  0  0  0  0
 15 17  1  0  0  0  0
 16 11  1  0  0  0  0
 18 13  1  0  0  0  0
 18  2  1  0  0  0  0
 19 20  1  0  0  0  0
 20 10  1  0  0  0  0
 20 15  1  0  0  0  0
 21 23  1  0  0  0  0
 21 10  2  0  0  0  0
 23 22  2  0  0  0  0
 24 23  1  0  0  0  0
 26 25  3  0  0  0  0
M  END
>  <MODEL>
7

>  <REMARK>
 VINA RESULT:      -7.2      4.443      7.069
  Name = 
  2 active torsions:
  status: ('A' for Active; 'I' for Inactive)
    1  A    between atoms: C_7  and  C_10
    2  A    between atoms: C_21  and  C_26
                            x       y       z     vdW  Elec       q    Type
                         _______ _______ _______ _____ _____    ______ ____

>  <TORSDO>
F 2

$$$$
=
 OpenBabel10232407553D

 26 31  0  0  1  0  0  0  0  0999 V2000
  187.8710  177.5220  141.9210 C   0  0  2  0  0  3  0  0  0  0  0  0
  191.5720  177.6700  145.1190 O   0  0  0  0  0  1  0  0  0  0  0  0
  188.9740  178.1790  148.4750 O   0  0  0  0  0  0  0  0  0  0  0  0
  189.3560  177.4030  141.7240 C   0  0  2  0  0  3  0  0  0  0  0  0
  190.3840  175.7070  147.2510 O   0  0  0  0  0  1  0  0  0  0  0  0
  189.6480  176.0640  142.3400 C   0  0  0  0  0  2  0  0  0  0  0  0
  188.5980  177.4810  147.3660 C   0  0  2  0  0  0  0  0  0  0  0  0
  186.9220  178.0540  140.3460 S   0  0  0  0  0  0  0  0  0  0  0  0
  190.3340  177.2970  142.9210 C   0  0  2  0  0  0  0  0  0  0  0  0
  185.8940  178.3480  144.8510 N   0  0  0  0  0  0  0  0  0  0  0  0
  185.7730  178.5390  142.6110 C   0  0  0  0  0  0  0  0  0  0  0  0
  187.9050  177.2610  148.7640 C   0  0  0  0  0  2  0  0  0  0  0  0
  189.3650  176.9330  145.3380 C   0  0  1  0  0  3  0  0  0  0  0  0
  189.8830  176.9460  146.7640 C   0  0  2  0  0  3  0  0  0  0  0  0
  188.3220  177.9950  145.1420 N   0  0  2  0  0  0  0  0  0  0  0  0
  185.4220  178.5010  141.3630 C   0  0  0  0  0  2  0  0  0  0  0  0
  188.1670  178.6200  146.4160 C   0  0  0  0  0  2  0  0  0  0  0  0
  190.5840  176.9430  144.3750 C   0  0  2  0  0  3  0  0  0  0  0  0
  187.1120  178.1550  142.9920 C   0  0  0  0  0  0  0  0  0  0  0  0
  187.1360  177.9530  144.3290 C   0  0  2  0  0  3  0  0  0  0  0  0
  185.0320  178.6510  143.8990 C   0  0  0  0  0  0  0  0  0  0  0  0
  183.4990  179.1020  145.6660 N   0  0  0  0  0  2  0  0  0  0  0  0
  183.7150  178.9870  144.3960 C   0  0  0  0  0  0  0  0  0  0  0  0
  182.5870  179.1060  143.4950 C   0  0  0  0  0  1  0  0  0  0  0  0
  191.6110  177.5710  142.1650 C   0  0  0  0  0  0  0  0  0  0  0  0
  192.5430  177.6750  141.4710 N   0  0  0  0  0  0  0  0  0  0  0  0
  1  8  1  6  0  0  0
  1 19  1  0  0  0  0
  3 12  1  0  0  0  0
  4  1  1  0  0  0  0
  4  6  1  6  0  0  0
  4  9  1  0  0  0  0
  6  9  1  0  0  0  0
  7 17  1  6  0  0  0
  7  3  1  0  0  0  0
  7 12  1  0  0  0  0
  8 16  1  0  0  0  0
  9 25  1  6  0  0  0
  9 18  1  0  0  0  0
 11 19  2  0  0  0  0
 11 21  1  0  0  0  0
 13 14  1  0  0  0  0
 14  5  1  0  0  0  0
 14  7  1  0  0  0  0
 15 13  1  0  0  0  0
 15 17  1  0  0  0  0
 16 11  1  0  0  0  0
 18  2  1  0  0  0  0
 18 13  1  0  0  0  0
 19 20  1  0  0  0  0
 20 10  1  0  0  0  0
 20 15  1  0  0  0  0
 21 23  1  0  0  0  0
 21 10  2  0  0  0  0
 23 22  2  0  0  0  0
 24 23  1  0  0  0  0
 26 25  3  0  0  0  0
M  END
>  <MODEL>
8

>  <REMARK>
 VINA RESULT:      -7.2      2.671      4.697
  Name = 
  2 active torsions:
  status: ('A' for Active; 'I' for Inactive)
    1  A    between atoms: C_7  and  C_10
    2  A    between atoms: C_21  and  C_26
                            x       y       z     vdW  Elec       q    Type
                         _______ _______ _______ _____ _____    ______ ____

>  <TORSDO>
F 2

$$$$
=
 OpenBabel10232407553D

 26 31  0  0  1  0  0  0  0  0999 V2000
  185.5770  178.6260  145.3350 C   0  0  2  0  0  3  0  0  0  0  0  0
  189.9450  176.4780  145.8370 O   0  0  0  0  0  1  0  0  0  0  0  0
  190.7170  176.5110  141.6330 O   0  0  0  0  0  0  0  0  0  0  0  0
  186.3220  178.1690  146.5580 C   0  0  2  0  0  3  0  0  0  0  0  0
  191.5800  178.3720  143.9540 O   0  0  0  0  0  1  0  0  0  0  0  0
  187.4530  179.1570  146.6240 C   0  0  0  0  0  2  0  0  0  0  0  0
  189.9670  177.4730  142.2400 C   0  0  2  0  0  0  0  0  0  0  0  0
  183.6870  178.7880  145.5960 S   0  0  0  0  0  0  0  0  0  0  0  0
  187.7880  177.6740  146.4840 C   0  0  2  0  0  0  0  0  0  0  0  0
  186.2680  178.1940  141.7980 N   0  0  0  0  0  0  0  0  0  0  0  0
  184.4970  178.4400  143.1650 C   0  0  0  0  0  0  0  0  0  0  0  0
  190.6760  177.7190  140.8550 C   0  0  0  0  0  2  0  0  0  0  0  0
  189.1380  177.9930  144.2510 C   0  0  1  0  0  3  0  0  0  0  0  0
  190.4640  177.5380  143.6710 C   0  0  2  0  0  3  0  0  0  0  0  0
  187.9930  177.4880  143.4210 N   0  0  2  0  0  0  0  0  0  0  0  0
  183.4040  178.8210  143.7510 C   0  0  0  0  0  2  0  0  0  0  0  0
  188.5910  176.7780  142.3360 C   0  0  0  0  0  2  0  0  0  0  0  0
  189.1250  177.6530  145.7670 C   0  0  2  0  0  3  0  0  0  0  0  0
  185.6810  178.1850  143.9500 C   0  0  0  0  0  0  0  0  0  0  0  0
  186.7450  178.1370  143.1170 C   0  0  2  0  0  3  0  0  0  0  0  0
  184.9700  178.4240  141.7530 C   0  0  0  0  0  0  0  0  0  0  0  0
  184.8570  179.5380  139.6490 N   0  0  0  0  0  2  0  0  0  0  0  0
  184.4560  178.5700  140.4080 C   0  0  0  0  0  0  0  0  0  0  0  0
  183.4100  177.6980  139.9120 C   0  0  0  0  0  1  0  0  0  0  0  0
  187.8560  177.0390  147.8520 C   0  0  0  0  0  0  0  0  0  0  0  0
  187.9760  176.6880  148.9580 N   0  0  0  0  0  0  0  0  0  0  0  0
  1 19  1  6  0  0  0
  1  8  1  0  0  0  0
  1  4  1  0  0  0  0
  3  7  1  0  0  0  0
  4  6  1  1  0  0  0
  7 12  1  6  0  0  0
  7 17  1  0  0  0  0
  7 14  1  0  0  0  0
  9  4  1  0  0  0  0
  9  6  1  0  0  0  0
  9 25  1  1  0  0  0
 10 20  1  0  0  0  0
 11 16  1  0  0  0  0
 11 19  2  0  0  0  0
 12  3  1  0  0  0  0
 13 18  1  0  0  0  0
 14  5  1  0  0  0  0
 14 13  1  0  0  0  0
 15 13  1  0  0  0  0
 16  8  1  0  0  0  0
 17 15  1  0  0  0  0
 18  2  1  0  0  0  0
 18  9  1  0  0  0  0
 20 15  1  0  0  0  0
 20 19  1  0  0  0  0
 21 10  2  0  0  0  0
 21 11  1  0  0  0  0
 22 23  2  0  0  0  0
 23 21  1  0  0  0  0
 24 23  1  0  0  0  0
 25 26  3  0  0  0  0
M  END
>  <MODEL>
9

>  <REMARK>
 VINA RESULT:      -7.1      2.337      3.381
  Name = 
  2 active torsions:
  status: ('A' for Active; 'I' for Inactive)
    1  A    between atoms: C_7  and  C_10
    2  A    between atoms: C_21  and  C_26
                            x       y       z     vdW  Elec       q    Type
                         _______ _______ _______ _____ _____    ______ ____

>  <TORSDO>
F 2

$$$$
