=
 OpenBabel10232412013D

 41 46  0  0  1  0  0  0  0  0999 V2000
  190.1140  175.8760  137.7500 C   0  0  0  0  0  0  0  0  0  0  0  0
  188.2320  177.3030  137.5960 C   0  0  0  0  0  3  0  0  0  0  0  0
  188.3570  177.6390  138.9480 C   0  0  0  0  0  0  0  0  0  0  0  0
  190.2530  176.1930  139.0660 N   0  0  0  0  0  0  0  0  0  0  0  0
  189.5660  177.3590  141.0580 N   0  0  0  0  0  0  0  0  0  0  0  0
  189.1060  176.4360  137.0250 N   0  0  0  0  0  0  0  0  0  0  0  0
  189.4000  177.0590  139.6750 C   0  0  0  0  0  0  0  0  0  0  0  0
  189.1580  178.0510  142.3140 C   0  0  2  0  0  3  0  0  0  0  0  0
  190.2390  177.1960  142.3800 C   0  0  0  0  0  2  0  0  0  0  0  0
  193.3010  175.5980  137.7600 C   0  0  0  0  0  2  0  0  0  0  0  0
  194.2520  173.6490  136.9840 N   0  0  0  0  0  0  0  0  0  0  0  0
  191.0530  174.9370  137.1160 C   0  0  0  0  0  0  0  0  0  0  0  0
  190.7910  173.6390  136.9170 C   0  0  0  0  0  3  0  0  0  0  0  0
  192.8010  173.2870  135.1180 N   0  0  0  0  0  2  0  0  0  0  0  0
  192.4890  175.2520  136.7630 C   0  0  2  0  0  3  0  0  0  0  0  0
  194.3750  174.5930  137.8650 C   0  0  0  0  0  3  0  0  0  0  0  0
  191.9900  173.2360  136.3260 N   0  0  0  0  0  0  0  0  0  0  0  0
  193.1530  174.0660  136.1490 C   0  0  2  0  0  0  0  0  0  0  0  0
  187.4710  178.5230  139.5770 O   0  0  0  0  0  0  0  0  0  0  0  0
  184.0880  178.7960  141.1570 C   0  0  0  0  0  2  0  0  0  0  0  0
  183.7980  178.3780  138.8320 C   0  0  0  0  0  2  0  0  0  0  0  0
  185.2820  178.5880  138.5450 C   0  0  0  0  0  2  0  0  0  0  0  0
  185.5890  179.0210  140.9910 C   0  0  0  0  0  2  0  0  0  0  0  0
  186.0950  178.2310  139.7880 C   0  0  0  0  0  3  0  0  0  0  0  0
  183.3810  179.2270  139.9500 N   0  0  0  0  0  0  0  0  0  0  0  0
  180.7270  180.3200  139.5570 C   0  0  0  0  0  1  0  0  0  0  0  0
  181.2620  177.6920  139.5300 O   0  0  0  0  0  0  0  0  0  0  0  0
  181.4170  178.8430  141.6830 O   0  0  0  0  0  0  0  0  0  0  0  0
  181.6840  178.9660  140.2090 S   0  0  0  0  0  0  0  0  0  0  0  0
  187.9090  177.3770  142.8470 C   0  0  0  0  0  2  0  0  0  0  0  0
  188.1010  176.9700  144.2980 C   0  0  0  0  0  2  0  0  0  0  0  0
  187.8370  178.0580  145.1490 O   0  0  0  0  0  0  0  0  0  0  0  0
  187.6190  177.5850  146.4640 C   0  0  1  0  0  3  0  0  0  0  0  0
  188.4750  178.0750  148.6890 O   0  0  0  0  0  1  0  0  0  0  0  0
  188.8430  177.7520  147.3800 C   0  0  1  0  0  3  0  0  0  0  0  0
  189.7640  176.5320  147.3460 C   0  0  0  0  0  2  0  0  0  0  0  0
  191.2420  176.8880  147.4330 C   0  0  0  0  0  2  0  0  0  0  0  0
  191.7690  177.0590  146.1550 O   0  0  0  0  0  1  0  0  0  0  0  0
  186.3950  178.1220  147.0540 N   0  0  0  0  0  2  0  0  0  0  0  0
  184.3900  178.6800  145.8140 C   0  0  0  0  0  1  0  0  0  0  0  0
  185.8300  179.0540  146.0960 C   0  0  0  0  0  2  0  0  0  0  0  0
  1  4  2  0  0  0  0
  2  3  1  0  0  0  0
  3 19  1  0  0  0  0
  3  7  2  0  0  0  0
  4  7  1  0  0  0  0
  5  8  1  0  0  0  0
  5  9  1  0  0  0  0
  6  2  2  0  0  0  0
  6  1  1  0  0  0  0
  7  5  1  0  0  0  0
  8  9  1  0  0  0  0
  8 30  1  1  0  0  0
 10 16  1  0  0  0  0
 11 16  2  0  0  0  0
 12  1  1  0  0  0  0
 13 12  2  0  0  0  0
 14 17  1  0  0  0  0
 15 12  1  0  0  0  0
 15 10  1  1  0  0  0
 17 13  1  0  0  0  0
 18 14  1  6  0  0  0
 18 17  1  0  0  0  0
 18 15  1  0  0  0  0
 18 11  1  0  0  0  0
 19 24  1  0  0  0  0
 21 25  1  0  0  0  0
 22 21  1  0  0  0  0
 22 24  1  0  0  0  0
 23 20  1  0  0  0  0
 24 23  1  0  0  0  0
 25 29  1  0  0  0  0
 25 20  1  0  0  0  0
 26 29  1  0  0  0  0
 27 29  2  0  0  0  0
 29 28  2  0  0  0  0
 30 31  1  0  0  0  0
 31 32  1  0  0  0  0
 33 32  1  6  0  0  0
 33 39  1  0  0  0  0
 33 35  1  0  0  0  0
 35 34  1  1  0  0  0
 36 35  1  0  0  0  0
 36 37  1  0  0  0  0
 38 37  1  0  0  0  0
 40 41  1  0  0  0  0
 41 39  1  0  0  0  0
M  END
>  <MODEL>
1

>  <REMARK>
 VINA RESULT:      -7.7      0.000      0.000
  Name = 
  13 active torsions:
  status: ('A' for Active; 'I' for Inactive)
    1  A    between atoms: O_2  and  C_11
    2  A    between atoms: O_2  and  C_35
    3  A    between atoms: C_3  and  N_21
    4  A    between atoms: C_3  and  O_23
    5  A    between atoms: C_3  and  C_27
    6  A    between atoms: C_5  and  C_6
    7  A    between atoms: C_14  and  C_19
    8  A    between atoms: C_15  and  O_23
    9  A    between atoms: C_15  and  C_37
   10  A    between atoms: C_19  and  C_27
   11  A    between atoms: N_21  and  C_30
   12  A    between atoms: S_34  and  N_40
   13  A    between atoms: C_37  and  C_38
                            x       y       z     vdW  Elec       q    Type
                         _______ _______ _______ _____ _____    ______ ____

>  <TORSDO>
F 13

$$$$
=
 OpenBabel10232412013D

 41 46  0  0  1  0  0  0  0  0999 V2000
  184.6690  178.7430  141.5090 C   0  0  0  0  0  0  0  0  0  0  0  0
  186.3160  179.1450  139.8590 C   0  0  0  0  0  3  0  0  0  0  0  0
  187.2570  178.4210  140.6010 C   0  0  0  0  0  0  0  0  0  0  0  0
  185.5690  178.0350  142.2430 N   0  0  0  0  0  0  0  0  0  0  0  0
  187.7680  177.1270  142.6140 N   0  0  0  0  0  0  0  0  0  0  0  0
  185.0490  179.2890  140.3220 N   0  0  0  0  0  0  0  0  0  0  0  0
  186.8470  177.8630  141.8140 C   0  0  0  0  0  0  0  0  0  0  0  0
  189.1230  176.5660  142.8840 C   0  0  2  0  0  3  0  0  0  0  0  0
  188.1480  176.3660  143.8390 C   0  0  0  0  0  2  0  0  0  0  0  0
  181.8080  177.8530  140.3870 C   0  0  0  0  0  2  0  0  0  0  0  0
  179.9820  177.9470  141.7880 N   0  0  0  0  0  0  0  0  0  0  0  0
  183.2900  178.9100  141.9970 C   0  0  0  0  0  0  0  0  0  0  0  0
  182.9490  178.9040  143.2920 C   0  0  0  0  0  3  0  0  0  0  0  0
  180.5000  180.0120  142.8770 N   0  0  0  0  0  2  0  0  0  0  0  0
  182.0570  178.9340  141.1220 C   0  0  2  0  0  3  0  0  0  0  0  0
  180.5230  177.2720  140.8210 C   0  0  0  0  0  3  0  0  0  0  0  0
  181.5680  179.0700  143.1820 N   0  0  0  0  0  0  0  0  0  0  0  0
  180.8270  179.1030  141.9480 C   0  0  2  0  0  0  0  0  0  0  0  0
  188.5770  178.2560  140.1630 O   0  0  0  0  0  0  0  0  0  0  0  0
  189.6990  177.3030  136.7200 C   0  0  0  0  0  2  0  0  0  0  0  0
  190.6400  175.7620  138.2700 C   0  0  0  0  0  2  0  0  0  0  0  0
  190.1960  176.5970  139.4670 C   0  0  0  0  0  2  0  0  0  0  0  0
  189.2000  178.2150  137.8390 C   0  0  0  0  0  2  0  0  0  0  0  0
  188.9440  177.3900  139.0970 C   0  0  0  0  0  3  0  0  0  0  0  0
  190.9340  176.6370  137.1330 N   0  0  0  0  0  0  0  0  0  0  0  0
  191.5630  173.9280  136.3170 C   0  0  0  0  0  1  0  0  0  0  0  0
  190.4890  175.7560  134.6740 O   0  0  0  0  0  0  0  0  0  0  0  0
  192.8150  176.0910  135.3520 O   0  0  0  0  0  0  0  0  0  0  0  0
  191.4600  175.6350  135.8160 S   0  0  0  0  0  0  0  0  0  0  0  0
  190.0400  177.7040  143.2860 C   0  0  0  0  0  2  0  0  0  0  0  0
  190.4520  177.5690  144.7420 C   0  0  0  0  0  2  0  0  0  0  0  0
  189.5690  178.2870  145.5670 O   0  0  0  0  0  0  0  0  0  0  0  0
  189.6070  177.7510  146.8760 C   0  0  1  0  0  3  0  0  0  0  0  0
  188.1350  178.2540  148.7480 O   0  0  0  0  0  1  0  0  0  0  0  0
  188.2150  177.6040  147.5130 C   0  0  1  0  0  3  0  0  0  0  0  0
  187.0970  178.0560  146.5740 C   0  0  0  0  0  2  0  0  0  0  0  0
  185.8950  178.6410  147.3040 C   0  0  0  0  0  2  0  0  0  0  0  0
  184.9580  179.1100  146.3840 O   0  0  0  0  0  1  0  0  0  0  0  0
  190.3960  176.5240  146.9530 N   0  0  0  0  0  2  0  0  0  0  0  0
  192.5120  175.6540  147.7490 C   0  0  0  0  0  1  0  0  0  0  0  0
  191.5140  176.7880  147.8400 C   0  0  0  0  0  2  0  0  0  0  0  0
  1 12  1  0  0  0  0
  1  4  2  0  0  0  0
  2  6  2  0  0  0  0
  2  3  1  0  0  0  0
  3  7  2  0  0  0  0
  5  8  1  0  0  0  0
  5  9  1  0  0  0  0
  6  1  1  0  0  0  0
  7  4  1  0  0  0  0
  7  5  1  0  0  0  0
  8 30  1  1  0  0  0
  8  9  1  0  0  0  0
 10 16  1  0  0  0  0
 12 13  2  0  0  0  0
 14 17  1  0  0  0  0
 15 10  1  1  0  0  0
 15 18  1  0  0  0  0
 15 12  1  0  0  0  0
 16 11  2  0  0  0  0
 17 13  1  0  0  0  0
 18 11  1  6  0  0  0
 18 14  1  0  0  0  0
 18 17  1  0  0  0  0
 19  3  1  0  0  0  0
 20 25  1  0  0  0  0
 20 23  1  0  0  0  0
 21 22  1  0  0  0  0
 23 24  1  0  0  0  0
 24 22  1  0  0  0  0
 24 19  1  0  0  0  0
 25 21  1  0  0  0  0
 27 29  2  0  0  0  0
 28 29  2  0  0  0  0
 29 26  1  0  0  0  0
 29 25  1  0  0  0  0
 30 31  1  0  0  0  0
 31 32  1  0  0  0  0
 33 32  1  6  0  0  0
 33 39  1  0  0  0  0
 33 35  1  0  0  0  0
 35 34  1  1  0  0  0
 36 37  1  0  0  0  0
 36 35  1  0  0  0  0
 38 37  1  0  0  0  0
 39 41  1  0  0  0  0
 40 41  1  0  0  0  0
M  END
>  <MODEL>
2

>  <REMARK>
 VINA RESULT:      -7.5      3.087      8.365
  Name = 
  13 active torsions:
  status: ('A' for Active; 'I' for Inactive)
    1  A    between atoms: O_2  and  C_11
    2  A    between atoms: O_2  and  C_35
    3  A    between atoms: C_3  and  N_21
    4  A    between atoms: C_3  and  O_23
    5  A    between atoms: C_3  and  C_27
    6  A    between atoms: C_5  and  C_6
    7  A    between atoms: C_14  and  C_19
    8  A    between atoms: C_15  and  O_23
    9  A    between atoms: C_15  and  C_37
   10  A    between atoms: C_19  and  C_27
   11  A    between atoms: N_21  and  C_30
   12  A    between atoms: S_34  and  N_40
   13  A    between atoms: C_37  and  C_38
                            x       y       z     vdW  Elec       q    Type
                         _______ _______ _______ _____ _____    ______ ____

>  <TORSDO>
F 13

$$$$
=
 OpenBabel10232412013D

 41 46  0  0  1  0  0  0  0  0999 V2000
  191.3920  176.4860  138.1620 C   0  0  0  0  0  0  0  0  0  0  0  0
  189.4190  177.7830  138.0040 C   0  0  0  0  0  3  0  0  0  0  0  0
  189.3090  177.8120  139.3990 C   0  0  0  0  0  0  0  0  0  0  0  0
  191.3020  176.5050  139.5190 N   0  0  0  0  0  0  0  0  0  0  0  0
  190.2150  177.1420  141.5710 N   0  0  0  0  0  0  0  0  0  0  0  0
  190.4510  177.1270  137.4160 N   0  0  0  0  0  0  0  0  0  0  0  0
  190.2860  177.1520  140.1480 C   0  0  0  0  0  0  0  0  0  0  0  0
  189.5580  177.5020  142.8610 C   0  0  2  0  0  3  0  0  0  0  0  0
  190.6980  176.7280  142.9210 C   0  0  0  0  0  2  0  0  0  0  0  0
  191.6460  173.6620  136.6810 C   0  0  0  0  0  2  0  0  0  0  0  0
  193.5140  173.2380  135.4010 N   0  0  0  0  0  0  0  0  0  0  0  0
  192.5050  175.7790  137.5070 C   0  0  0  0  0  0  0  0  0  0  0  0
  193.4810  176.3930  136.8260 C   0  0  0  0  0  3  0  0  0  0  0  0
  195.1400  174.2370  136.8400 N   0  0  0  0  0  2  0  0  0  0  0  0
  192.6120  174.2790  137.3580 C   0  0  2  0  0  3  0  0  0  0  0  0
  192.2360  173.0300  135.4850 C   0  0  0  0  0  3  0  0  0  0  0  0
  194.2240  175.2850  136.4140 N   0  0  0  0  0  0  0  0  0  0  0  0
  193.8590  173.9090  136.6290 C   0  0  2  0  0  0  0  0  0  0  0  0
  188.2540  178.4690  140.0450 O   0  0  0  0  0  0  0  0  0  0  0  0
  184.5490  178.6540  140.5490 C   0  0  0  0  0  2  0  0  0  0  0  0
  184.9680  178.0420  138.2880 C   0  0  0  0  0  2  0  0  0  0  0  0
  186.4630  178.3210  138.4240 C   0  0  0  0  0  2  0  0  0  0  0  0
  186.0240  178.9580  140.8040 C   0  0  0  0  0  2  0  0  0  0  0  0
  186.8890  178.1100  139.8750 C   0  0  0  0  0  3  0  0  0  0  0  0
  184.2120  178.9470  139.1560 N   0  0  0  0  0  0  0  0  0  0  0  0
  181.5760  179.1550  140.3410 C   0  0  0  0  0  1  0  0  0  0  0  0
  182.0260  179.3000  137.7010 O   0  0  0  0  0  0  0  0  0  0  0  0
  182.3340  177.1210  138.7700 O   0  0  0  0  0  0  0  0  0  0  0  0
  182.5240  178.6030  138.9370 S   0  0  0  0  0  0  0  0  0  0  0  0
  188.3180  176.6440  143.0220 C   0  0  0  0  0  2  0  0  0  0  0  0
  187.1380  177.4900  143.4690 C   0  0  0  0  0  2  0  0  0  0  0  0
  186.6060  176.9890  144.6700 O   0  0  0  0  0  0  0  0  0  0  0  0
  186.7490  177.9600  145.6890 C   0  0  1  0  0  3  0  0  0  0  0  0
  185.5760  179.4780  147.1860 O   0  0  0  0  0  1  0  0  0  0  0  0
  185.4160  178.5980  146.1120 C   0  0  1  0  0  3  0  0  0  0  0  0
  184.6980  179.2720  144.9430 C   0  0  0  0  0  2  0  0  0  0  0  0
  183.2700  178.7820  144.7470 C   0  0  0  0  0  2  0  0  0  0  0  0
  182.6520  179.5040  143.7280 O   0  0  0  0  0  1  0  0  0  0  0  0
  187.5250  177.4660  146.8260 N   0  0  0  0  0  2  0  0  0  0  0  0
  189.7930  177.1550  147.6170 C   0  0  0  0  0  1  0  0  0  0  0  0
  188.9090  177.8310  146.5910 C   0  0  0  0  0  2  0  0  0  0  0  0
  1  4  2  0  0  0  0
  2  3  1  0  0  0  0
  3 19  1  0  0  0  0
  3  7  2  0  0  0  0
  4  7  1  0  0  0  0
  5  8  1  0  0  0  0
  5  9  1  0  0  0  0
  6  2  2  0  0  0  0
  6  1  1  0  0  0  0
  7  5  1  0  0  0  0
  8  9  1  0  0  0  0
  8 30  1  6  0  0  0
 11 16  2  0  0  0  0
 12  1  1  0  0  0  0
 13 12  2  0  0  0  0
 15 10  1  6  0  0  0
 15 12  1  0  0  0  0
 16 10  1  0  0  0  0
 17 18  1  0  0  0  0
 17 13  1  0  0  0  0
 17 14  1  0  0  0  0
 18 11  1  6  0  0  0
 18 14  1  0  0  0  0
 18 15  1  0  0  0  0
 20 23  1  0  0  0  0
 21 22  1  0  0  0  0
 21 25  1  0  0  0  0
 22 24  1  0  0  0  0
 24 19  1  0  0  0  0
 24 23  1  0  0  0  0
 25 20  1  0  0  0  0
 27 29  2  0  0  0  0
 28 29  2  0  0  0  0
 29 25  1  0  0  0  0
 29 26  1  0  0  0  0
 30 31  1  0  0  0  0
 31 32  1  0  0  0  0
 33 32  1  6  0  0  0
 33 35  1  0  0  0  0
 33 39  1  0  0  0  0
 35 34  1  1  0  0  0
 36 35  1  0  0  0  0
 37 36  1  0  0  0  0
 38 37  1  0  0  0  0
 41 39  1  0  0  0  0
 41 40  1  0  0  0  0
M  END
>  <MODEL>
3

>  <REMARK>
 VINA RESULT:      -7.4      1.551      3.103
  Name = 
  13 active torsions:
  status: ('A' for Active; 'I' for Inactive)
    1  A    between atoms: O_2  and  C_11
    2  A    between atoms: O_2  and  C_35
    3  A    between atoms: C_3  and  N_21
    4  A    between atoms: C_3  and  O_23
    5  A    between atoms: C_3  and  C_27
    6  A    between atoms: C_5  and  C_6
    7  A    between atoms: C_14  and  C_19
    8  A    between atoms: C_15  and  O_23
    9  A    between atoms: C_15  and  C_37
   10  A    between atoms: C_19  and  C_27
   11  A    between atoms: N_21  and  C_30
   12  A    between atoms: S_34  and  N_40
   13  A    between atoms: C_37  and  C_38
                            x       y       z     vdW  Elec       q    Type
                         _______ _______ _______ _____ _____    ______ ____

>  <TORSDO>
F 13

$$$$
=
 OpenBabel10232412013D

 41 46  0  0  1  0  0  0  0  0999 V2000
  186.8940  178.3670  139.2640 C   0  0  0  0  0  0  0  0  0  0  0  0
  189.0100  178.5090  138.2130 C   0  0  0  0  0  3  0  0  0  0  0  0
  189.6020  177.8290  139.2830 C   0  0  0  0  0  0  0  0  0  0  0  0
  187.4520  177.7040  140.3120 N   0  0  0  0  0  0  0  0  0  0  0  0
  189.3380  176.7430  141.4600 N   0  0  0  0  0  0  0  0  0  0  0  0
  187.6760  178.7620  138.2220 N   0  0  0  0  0  0  0  0  0  0  0  0
  188.7820  177.4280  140.3410 C   0  0  0  0  0  0  0  0  0  0  0  0
  190.4860  176.1540  142.2080 C   0  0  2  0  0  3  0  0  0  0  0  0
  189.2440  176.1060  142.8060 C   0  0  0  0  0  2  0  0  0  0  0  0
  184.3930  177.0440  137.7710 C   0  0  0  0  0  2  0  0  0  0  0  0
  182.2650  177.5670  138.4820 N   0  0  0  0  0  0  0  0  0  0  0  0
  185.4490  178.6510  139.2560 C   0  0  0  0  0  0  0  0  0  0  0  0
  184.7690  179.0920  140.3230 C   0  0  0  0  0  3  0  0  0  0  0  0
  182.6080  179.8990  138.8810 N   0  0  0  0  0  2  0  0  0  0  0  0
  184.5070  178.3230  138.1210 C   0  0  2  0  0  3  0  0  0  0  0  0
  183.0010  176.6120  138.0030 C   0  0  0  0  0  3  0  0  0  0  0  0
  183.4850  179.1630  139.7810 N   0  0  0  0  0  0  0  0  0  0  0  0
  183.1130  178.7330  138.4580 C   0  0  2  0  0  0  0  0  0  0  0  0
  190.9760  177.5570  139.3170 O   0  0  0  0  0  0  0  0  0  0  0  0
  193.8020  175.6900  137.7220 C   0  0  0  0  0  2  0  0  0  0  0  0
  191.7700  174.5740  137.1860 C   0  0  0  0  0  2  0  0  0  0  0  0
  190.9700  175.4270  138.1670 C   0  0  0  0  0  2  0  0  0  0  0  0
  193.1050  176.6050  138.7270 C   0  0  0  0  0  2  0  0  0  0  0  0
  191.6450  176.7880  138.3260 C   0  0  0  0  0  3  0  0  0  0  0  0
  193.1340  174.3890  137.6840 N   0  0  0  0  0  0  0  0  0  0  0  0
  192.9380  172.0770  135.9490 C   0  0  0  0  0  1  0  0  0  0  0  0
  194.4310  174.2310  135.3790 O   0  0  0  0  0  0  0  0  0  0  0  0
  195.1930  172.7940  137.2070 O   0  0  0  0  0  0  0  0  0  0  0  0
  193.9840  173.3920  136.5440 S   0  0  0  0  0  0  0  0  0  0  0  0
  191.3130  177.2870  142.7830 C   0  0  0  0  0  2  0  0  0  0  0  0
  190.4120  178.3560  143.3780 C   0  0  0  0  0  2  0  0  0  0  0  0
  190.7180  178.5500  144.7370 O   0  0  0  0  0  0  0  0  0  0  0  0
  189.8660  177.7460  145.5300 C   0  0  1  0  0  3  0  0  0  0  0  0
  189.7150  176.3200  147.4970 O   0  0  0  0  0  1  0  0  0  0  0  0
  190.5830  177.1030  146.7290 C   0  0  1  0  0  3  0  0  0  0  0  0
  191.8210  176.3110  146.3090 C   0  0  0  0  0  2  0  0  0  0  0  0
  192.4040  175.4600  147.4300 C   0  0  0  0  0  2  0  0  0  0  0  0
  192.9060  176.2780  148.4400 O   0  0  0  0  0  1  0  0  0  0  0  0
  188.6380  178.4400  145.9120 N   0  0  0  0  0  2  0  0  0  0  0  0
  186.3400  177.7710  146.2830 C   0  0  0  0  0  1  0  0  0  0  0  0
  187.5300  177.6910  145.3510 C   0  0  0  0  0  2  0  0  0  0  0  0
  1  4  2  0  0  0  0
  2  6  2  0  0  0  0
  2  3  1  0  0  0  0
  3 19  1  0  0  0  0
  3  7  2  0  0  0  0
  4  7  1  0  0  0  0
  5  8  1  0  0  0  0
  5  9  1  0  0  0  0
  6  1  1  0  0  0  0
  7  5  1  0  0  0  0
  8 30  1  1  0  0  0
  8  9  1  0  0  0  0
 10 16  1  0  0  0  0
 12  1  1  0  0  0  0
 12 13  2  0  0  0  0
 14 17  1  0  0  0  0
 15 10  1  1  0  0  0
 15 18  1  0  0  0  0
 15 12  1  0  0  0  0
 16 11  2  0  0  0  0
 17 13  1  0  0  0  0
 18 11  1  6  0  0  0
 18 14  1  0  0  0  0
 18 17  1  0  0  0  0
 20 23  1  0  0  0  0
 21 25  1  0  0  0  0
 21 22  1  0  0  0  0
 22 24  1  0  0  0  0
 24 23  1  0  0  0  0
 24 19  1  0  0  0  0
 25 20  1  0  0  0  0
 26 29  1  0  0  0  0
 27 29  2  0  0  0  0
 29 28  2  0  0  0  0
 29 25  1  0  0  0  0
 30 31  1  0  0  0  0
 31 32  1  0  0  0  0
 33 32  1  1  0  0  0
 33 39  1  0  0  0  0
 33 35  1  0  0  0  0
 35 34  1  6  0  0  0
 36 35  1  0  0  0  0
 36 37  1  0  0  0  0
 37 38  1  0  0  0  0
 41 39  1  0  0  0  0
 41 40  1  0  0  0  0
M  END
>  <MODEL>
4

>  <REMARK>
 VINA RESULT:      -7.3      3.525      7.763
  Name = 
  13 active torsions:
  status: ('A' for Active; 'I' for Inactive)
    1  A    between atoms: O_2  and  C_11
    2  A    between atoms: O_2  and  C_35
    3  A    between atoms: C_3  and  N_21
    4  A    between atoms: C_3  and  O_23
    5  A    between atoms: C_3  and  C_27
    6  A    between atoms: C_5  and  C_6
    7  A    between atoms: C_14  and  C_19
    8  A    between atoms: C_15  and  O_23
    9  A    between atoms: C_15  and  C_37
   10  A    between atoms: C_19  and  C_27
   11  A    between atoms: N_21  and  C_30
   12  A    between atoms: S_34  and  N_40
   13  A    between atoms: C_37  and  C_38
                            x       y       z     vdW  Elec       q    Type
                         _______ _______ _______ _____ _____    ______ ____

>  <TORSDO>
F 13

$$$$
=
 OpenBabel10232412013D

 41 46  0  0  1  0  0  0  0  0999 V2000
  186.6540  178.3270  138.8950 C   0  0  0  0  0  0  0  0  0  0  0  0
  188.7650  178.4070  137.8270 C   0  0  0  0  0  3  0  0  0  0  0  0
  189.3740  177.8500  138.9570 C   0  0  0  0  0  0  0  0  0  0  0  0
  187.2280  177.7820  140.0010 N   0  0  0  0  0  0  0  0  0  0  0  0
  189.1360  176.9790  141.2320 N   0  0  0  0  0  0  0  0  0  0  0  0
  187.4260  178.6320  137.8160 N   0  0  0  0  0  0  0  0  0  0  0  0
  188.5640  177.5390  140.0530 C   0  0  0  0  0  0  0  0  0  0  0  0
  190.2970  176.4910  142.0300 C   0  0  2  0  0  3  0  0  0  0  0  0
  189.0580  176.4770  142.6350 C   0  0  0  0  0  2  0  0  0  0  0  0
  184.1540  176.6920  137.7490 C   0  0  0  0  0  2  0  0  0  0  0  0
  182.0300  177.3070  138.3920 N   0  0  0  0  0  0  0  0  0  0  0  0
  185.2040  178.5770  138.8650 C   0  0  0  0  0  0  0  0  0  0  0  0
  184.5350  179.2080  139.8390 C   0  0  0  0  0  3  0  0  0  0  0  0
  182.3300  179.6780  138.3170 N   0  0  0  0  0  2  0  0  0  0  0  0
  184.2470  178.0170  137.8380 C   0  0  2  0  0  3  0  0  0  0  0  0
  182.7770  176.2900  138.0930 C   0  0  0  0  0  3  0  0  0  0  0  0
  183.2390  179.1490  139.3240 N   0  0  0  0  0  0  0  0  0  0  0  0
  182.8510  178.4600  138.1200 C   0  0  2  0  0  0  0  0  0  0  0  0
  190.7520  177.6100  139.0130 O   0  0  0  0  0  0  0  0  0  0  0  0
  193.6200  175.6690  137.5890 C   0  0  0  0  0  2  0  0  0  0  0  0
  191.6170  174.4480  137.1910 C   0  0  0  0  0  2  0  0  0  0  0  0
  190.7990  175.3740  138.0880 C   0  0  0  0  0  2  0  0  0  0  0  0
  192.9040  176.6630  138.5010 C   0  0  0  0  0  2  0  0  0  0  0  0
  191.4360  176.7630  138.0980 C   0  0  0  0  0  3  0  0  0  0  0  0
  192.9900  174.3530  137.6920 N   0  0  0  0  0  0  0  0  0  0  0  0
  192.7380  172.1920  135.7780 C   0  0  0  0  0  1  0  0  0  0  0  0
  194.6580  174.0610  135.6550 O   0  0  0  0  0  0  0  0  0  0  0  0
  194.7980  172.4320  137.4740 O   0  0  0  0  0  0  0  0  0  0  0  0
  193.8590  173.2680  136.6510 S   0  0  0  0  0  0  0  0  0  0  0  0
  191.1020  177.6930  142.4870 C   0  0  0  0  0  2  0  0  0  0  0  0
  191.6300  177.4770  143.8950 C   0  0  0  0  0  2  0  0  0  0  0  0
  190.7540  178.0450  144.8370 O   0  0  0  0  0  0  0  0  0  0  0  0
  190.9570  177.4340  146.0970 C   0  0  1  0  0  3  0  0  0  0  0  0
  189.5210  177.9600  147.9900 O   0  0  0  0  0  1  0  0  0  0  0  0
  189.6480  177.1550  146.8540 C   0  0  1  0  0  3  0  0  0  0  0  0
  188.4200  177.2700  145.9520 C   0  0  0  0  0  2  0  0  0  0  0  0
  187.1610  177.6970  146.6960 C   0  0  0  0  0  2  0  0  0  0  0  0
  186.4570  178.6370  145.9450 O   0  0  0  0  0  1  0  0  0  0  0  0
  191.8230  176.2600  146.0140 N   0  0  0  0  0  2  0  0  0  0  0  0
  192.8170  175.8470  148.1840 C   0  0  0  0  0  1  0  0  0  0  0  0
  191.6670  175.5240  147.2550 C   0  0  0  0  0  2  0  0  0  0  0  0
  1  4  2  0  0  0  0
  2  3  1  0  0  0  0
  3 19  1  0  0  0  0
  3  7  2  0  0  0  0
  4  7  1  0  0  0  0
  5  8  1  0  0  0  0
  5  9  1  0  0  0  0
  6  2  2  0  0  0  0
  6  1  1  0  0  0  0
  7  5  1  0  0  0  0
  8 30  1  1  0  0  0
  8  9  1  0  0  0  0
 10 16  1  0  0  0  0
 12  1  1  0  0  0  0
 12 13  2  0  0  0  0
 14 17  1  0  0  0  0
 15 10  1  1  0  0  0
 15 18  1  0  0  0  0
 15 12  1  0  0  0  0
 16 11  2  0  0  0  0
 17 13  1  0  0  0  0
 18 14  1  6  0  0  0
 18 11  1  0  0  0  0
 18 17  1  0  0  0  0
 20 25  1  0  0  0  0
 20 23  1  0  0  0  0
 21 25  1  0  0  0  0
 21 22  1  0  0  0  0
 22 24  1  0  0  0  0
 24 23  1  0  0  0  0
 24 19  1  0  0  0  0
 26 29  1  0  0  0  0
 27 29  2  0  0  0  0
 29 28  2  0  0  0  0
 29 25  1  0  0  0  0
 30 31  1  0  0  0  0
 31 32  1  0  0  0  0
 33 32  1  6  0  0  0
 33 35  1  0  0  0  0
 35 34  1  1  0  0  0
 36 37  1  0  0  0  0
 36 35  1  0  0  0  0
 38 37  1  0  0  0  0
 39 33  1  0  0  0  0
 39 41  1  0  0  0  0
 41 40  1  0  0  0  0
M  END
>  <MODEL>
5

>  <REMARK>
 VINA RESULT:      -7.3      3.509      8.037
  Name = 
  13 active torsions:
  status: ('A' for Active; 'I' for Inactive)
    1  A    between atoms: O_2  and  C_11
    2  A    between atoms: O_2  and  C_35
    3  A    between atoms: C_3  and  N_21
    4  A    between atoms: C_3  and  O_23
    5  A    between atoms: C_3  and  C_27
    6  A    between atoms: C_5  and  C_6
    7  A    between atoms: C_14  and  C_19
    8  A    between atoms: C_15  and  O_23
    9  A    between atoms: C_15  and  C_37
   10  A    between atoms: C_19  and  C_27
   11  A    between atoms: N_21  and  C_30
   12  A    between atoms: S_34  and  N_40
   13  A    between atoms: C_37  and  C_38
                            x       y       z     vdW  Elec       q    Type
                         _______ _______ _______ _____ _____    ______ ____

>  <TORSDO>
F 13

$$$$
=
 OpenBabel10232412013D

 41 46  0  0  1  0  0  0  0  0999 V2000
  192.9320  176.0080  137.1930 C   0  0  0  0  0  0  0  0  0  0  0  0
  190.7110  176.3800  136.4660 C   0  0  0  0  0  3  0  0  0  0  0  0
  190.3450  176.7950  137.7510 C   0  0  0  0  0  0  0  0  0  0  0  0
  192.5950  176.4110  138.4480 N   0  0  0  0  0  0  0  0  0  0  0  0
  191.0050  177.2060  140.0720 N   0  0  0  0  0  0  0  0  0  0  0  0
  191.9890  175.9990  136.2120 N   0  0  0  0  0  0  0  0  0  0  0  0
  191.3280  176.8030  138.7440 C   0  0  0  0  0  0  0  0  0  0  0  0
  190.0430  177.6810  141.1070 C   0  0  2  0  0  3  0  0  0  0  0  0
  191.3400  177.4350  141.5070 C   0  0  0  0  0  2  0  0  0  0  0  0
  194.6910  173.4650  138.0120 C   0  0  0  0  0  2  0  0  0  0  0  0
  196.6580  173.0580  136.8840 N   0  0  0  0  0  0  0  0  0  0  0  0
  194.3130  175.5920  136.8990 C   0  0  0  0  0  0  0  0  0  0  0  0
  194.9370  175.8360  135.7390 C   0  0  0  0  0  3  0  0  0  0  0  0
  197.4220  175.3180  136.7170 N   0  0  0  0  0  2  0  0  0  0  0  0
  195.1530  174.6910  137.7760 C   0  0  2  0  0  3  0  0  0  0  0  0
  195.6430  172.4860  137.4530 C   0  0  0  0  0  3  0  0  0  0  0  0
  196.1650  175.2210  135.9880 N   0  0  0  0  0  0  0  0  0  0  0  0
  196.4940  174.4630  137.1670 C   0  0  2  0  0  0  0  0  0  0  0  0
  189.0350  177.1870  138.0570 O   0  0  0  0  0  0  0  0  0  0  0  0
  186.3200  175.0770  136.5770 C   0  0  0  0  0  2  0  0  0  0  0  0
  185.4900  177.2910  136.8400 C   0  0  0  0  0  2  0  0  0  0  0  0
  186.7100  177.7200  137.6500 C   0  0  0  0  0  2  0  0  0  0  0  0
  187.5870  175.3930  137.3690 C   0  0  0  0  0  2  0  0  0  0  0  0
  187.9150  176.8780  137.2380 C   0  0  0  0  0  3  0  0  0  0  0  0
  185.2030  175.8760  137.0810 N   0  0  0  0  0  0  0  0  0  0  0  0
  183.7510  173.7060  135.8260 C   0  0  0  0  0  1  0  0  0  0  0  0
  182.5580  175.8420  136.9240 O   0  0  0  0  0  0  0  0  0  0  0  0
  183.8100  176.2020  134.8530 O   0  0  0  0  0  0  0  0  0  0  0  0
  183.7930  175.4560  136.1580 S   0  0  0  0  0  0  0  0  0  0  0  0
  189.1380  176.5250  141.4850 C   0  0  0  0  0  2  0  0  0  0  0  0
  189.4540  176.0360  142.8880 C   0  0  0  0  0  2  0  0  0  0  0  0
  188.2890  176.0220  143.6740 O   0  0  0  0  0  0  0  0  0  0  0  0
  188.4380  176.9240  144.7530 C   0  0  1  0  0  3  0  0  0  0  0  0
  190.0240  178.7700  144.7620 O   0  0  0  0  0  1  0  0  0  0  0  0
  189.8880  177.3920  144.9570 C   0  0  1  0  0  3  0  0  0  0  0  0
  190.4520  176.9650  146.3120 C   0  0  0  0  0  2  0  0  0  0  0  0
  189.4000  176.8980  147.4110 C   0  0  0  0  0  2  0  0  0  0  0  0
  189.1600  178.1720  147.9230 O   0  0  0  0  0  1  0  0  0  0  0  0
  187.4900  178.0340  144.6870 N   0  0  0  0  0  2  0  0  0  0  0  0
  185.7700  178.9690  146.1140 C   0  0  0  0  0  1  0  0  0  0  0  0
  186.3770  177.7000  145.5570 C   0  0  0  0  0  2  0  0  0  0  0  0
  1  4  2  0  0  0  0
  2  3  1  0  0  0  0
  3 19  1  0  0  0  0
  3  7  2  0  0  0  0
  4  7  1  0  0  0  0
  5  8  1  0  0  0  0
  5  9  1  0  0  0  0
  6  2  2  0  0  0  0
  6  1  1  0  0  0  0
  7  5  1  0  0  0  0
  8 30  1  1  0  0  0
  8  9  1  0  0  0  0
 11 18  1  0  0  0  0
 11 16  2  0  0  0  0
 12  1  1  0  0  0  0
 12 15  1  0  0  0  0
 13 17  1  0  0  0  0
 13 12  2  0  0  0  0
 15 10  1  6  0  0  0
 16 10  1  0  0  0  0
 17 14  1  0  0  0  0
 17 18  1  0  0  0  0
 18 14  1  1  0  0  0
 18 15  1  0  0  0  0
 20 25  1  0  0  0  0
 20 23  1  0  0  0  0
 21 25  1  0  0  0  0
 21 22  1  0  0  0  0
 24 23  1  0  0  0  0
 24 22  1  0  0  0  0
 24 19  1  0  0  0  0
 26 29  1  0  0  0  0
 28 29  2  0  0  0  0
 29 27  2  0  0  0  0
 29 25  1  0  0  0  0
 30 31  1  0  0  0  0
 31 32  1  0  0  0  0
 33 32  1  6  0  0  0
 33 35  1  0  0  0  0
 35 34  1  1  0  0  0
 35 36  1  0  0  0  0
 36 37  1  0  0  0  0
 37 38  1  0  0  0  0
 39 33  1  0  0  0  0
 39 41  1  0  0  0  0
 41 40  1  0  0  0  0
M  END
>  <MODEL>
6

>  <REMARK>
 VINA RESULT:      -7.0      2.696      3.629
  Name = 
  13 active torsions:
  status: ('A' for Active; 'I' for Inactive)
    1  A    between atoms: O_2  and  C_11
    2  A    between atoms: O_2  and  C_35
    3  A    between atoms: C_3  and  N_21
    4  A    between atoms: C_3  and  O_23
    5  A    between atoms: C_3  and  C_27
    6  A    between atoms: C_5  and  C_6
    7  A    between atoms: C_14  and  C_19
    8  A    between atoms: C_15  and  O_23
    9  A    between atoms: C_15  and  C_37
   10  A    between atoms: C_19  and  C_27
   11  A    between atoms: N_21  and  C_30
   12  A    between atoms: S_34  and  N_40
   13  A    between atoms: C_37  and  C_38
                            x       y       z     vdW  Elec       q    Type
                         _______ _______ _______ _____ _____    ______ ____

>  <TORSDO>
F 13

$$$$
=
 OpenBabel10232412013D

 41 46  0  0  1  0  0  0  0  0999 V2000
  193.1260  176.3330  137.9700 C   0  0  0  0  0  0  0  0  0  0  0  0
  192.4880  177.3250  140.0210 C   0  0  0  0  0  3  0  0  0  0  0  0
  191.1370  177.1840  139.6870 C   0  0  0  0  0  0  0  0  0  0  0  0
  191.8170  176.1860  137.6280 N   0  0  0  0  0  0  0  0  0  0  0  0
  189.4630  176.4400  138.0640 N   0  0  0  0  0  0  0  0  0  0  0  0
  193.4500  176.8980  139.1650 N   0  0  0  0  0  0  0  0  0  0  0  0
  190.8230  176.5970  138.4580 C   0  0  0  0  0  0  0  0  0  0  0  0
  187.9980  176.5980  138.2930 C   0  0  2  0  0  3  0  0  0  0  0  0
  188.3990  176.0430  137.0960 C   0  0  0  0  0  2  0  0  0  0  0  0
  194.6380  173.5440  137.5590 C   0  0  0  0  0  2  0  0  0  0  0  0
  195.8840  173.2210  135.6490 N   0  0  0  0  0  0  0  0  0  0  0  0
  194.1820  175.8760  137.0520 C   0  0  0  0  0  0  0  0  0  0  0  0
  194.3100  176.3010  135.7890 C   0  0  0  0  0  3  0  0  0  0  0  0
  196.8610  175.3990  135.5140 N   0  0  0  0  0  2  0  0  0  0  0  0
  195.1520  174.7520  137.3360 C   0  0  2  0  0  3  0  0  0  0  0  0
  195.1120  172.6270  136.5040 C   0  0  0  0  0  3  0  0  0  0  0  0
  195.4190  175.5530  135.3900 N   0  0  0  0  0  0  0  0  0  0  0  0
  196.0750  174.5470  136.1830 C   0  0  2  0  0  0  0  0  0  0  0  0
  190.1140  177.6190  140.5380 O   0  0  0  0  0  0  0  0  0  0  0  0
  190.4480  178.0270  144.2450 C   0  0  0  0  0  2  0  0  0  0  0  0
  188.4960  176.7400  143.8050 C   0  0  0  0  0  2  0  0  0  0  0  0
  188.5750  177.0150  142.3060 C   0  0  0  0  0  2  0  0  0  0  0  0
  190.6320  178.3640  142.7670 C   0  0  0  0  0  2  0  0  0  0  0  0
  190.0310  177.2540  141.9100 C   0  0  0  0  0  3  0  0  0  0  0  0
  189.0240  177.8830  144.5510 N   0  0  0  0  0  0  0  0  0  0  0  0
  187.1730  177.3170  146.7070 C   0  0  0  0  0  1  0  0  0  0  0  0
  189.6320  176.2570  146.5530 O   0  0  0  0  0  0  0  0  0  0  0  0
  189.4740  178.6490  147.0460 O   0  0  0  0  0  0  0  0  0  0  0  0
  188.8810  177.5230  146.2440 S   0  0  0  0  0  0  0  0  0  0  0  0
  187.6410  178.0600  138.1120 C   0  0  0  0  0  2  0  0  0  0  0  0
  186.1650  178.2880  138.3920 C   0  0  0  0  0  2  0  0  0  0  0  0
  185.9900  178.8220  139.6810 O   0  0  0  0  0  0  0  0  0  0  0  0
  184.6110  179.0250  139.9230 C   0  0  1  0  0  3  0  0  0  0  0  0
  183.2740  178.2560  141.8050 O   0  0  0  0  0  1  0  0  0  0  0  0
  184.2690  179.1570  141.4160 C   0  0  1  0  0  3  0  0  0  0  0  0
  185.5060  179.0390  142.3070 C   0  0  0  0  0  2  0  0  0  0  0  0
  185.2050  178.4640  143.6850 C   0  0  0  0  0  2  0  0  0  0  0  0
  184.7610  179.4740  144.5380 O   0  0  0  0  0  1  0  0  0  0  0  0
  184.0580  180.1130  139.1180 N   0  0  0  0  0  2  0  0  0  0  0  0
  181.6580  180.4370  139.0610 C   0  0  0  0  0  1  0  0  0  0  0  0
  182.8220  179.6280  138.5330 C   0  0  0  0  0  2  0  0  0  0  0  0
  1  6  1  0  0  0  0
  3  2  1  0  0  0  0
  3 19  1  0  0  0  0
  4  1  2  0  0  0  0
  4  7  1  0  0  0  0
  5  8  1  0  0  0  0
  5  7  1  0  0  0  0
  6  2  2  0  0  0  0
  7  3  2  0  0  0  0
  8 30  1  6  0  0  0
  9  5  1  0  0  0  0
  9  8  1  0  0  0  0
 11 18  1  0  0  0  0
 11 16  2  0  0  0  0
 12 15  1  0  0  0  0
 12  1  1  0  0  0  0
 13 12  2  0  0  0  0
 15 10  1  6  0  0  0
 16 10  1  0  0  0  0
 17 14  1  0  0  0  0
 17 13  1  0  0  0  0
 17 18  1  0  0  0  0
 18 14  1  1  0  0  0
 18 15  1  0  0  0  0
 19 24  1  0  0  0  0
 20 25  1  0  0  0  0
 21 25  1  0  0  0  0
 22 21  1  0  0  0  0
 23 20  1  0  0  0  0
 24 22  1  0  0  0  0
 24 23  1  0  0  0  0
 25 29  1  0  0  0  0
 29 27  2  0  0  0  0
 29 26  1  0  0  0  0
 29 28  2  0  0  0  0
 30 31  1  0  0  0  0
 31 32  1  0  0  0  0
 32 33  1  0  0  0  0
 33 39  1  6  0  0  0
 33 35  1  0  0  0  0
 35 34  1  1  0  0  0
 35 36  1  0  0  0  0
 36 37  1  0  0  0  0
 37 38  1  0  0  0  0
 41 40  1  0  0  0  0
 41 39  1  0  0  0  0
M  END
>  <MODEL>
7

>  <REMARK>
 VINA RESULT:      -7.0      2.478      6.104
  Name = 
  13 active torsions:
  status: ('A' for Active; 'I' for Inactive)
    1  A    between atoms: O_2  and  C_11
    2  A    between atoms: O_2  and  C_35
    3  A    between atoms: C_3  and  N_21
    4  A    between atoms: C_3  and  O_23
    5  A    between atoms: C_3  and  C_27
    6  A    between atoms: C_5  and  C_6
    7  A    between atoms: C_14  and  C_19
    8  A    between atoms: C_15  and  O_23
    9  A    between atoms: C_15  and  C_37
   10  A    between atoms: C_19  and  C_27
   11  A    between atoms: N_21  and  C_30
   12  A    between atoms: S_34  and  N_40
   13  A    between atoms: C_37  and  C_38
                            x       y       z     vdW  Elec       q    Type
                         _______ _______ _______ _____ _____    ______ ____

>  <TORSDO>
F 13

$$$$
=
 OpenBabel10232412013D

 41 46  0  0  1  0  0  0  0  0999 V2000
  185.1330  178.7140  139.8300 C   0  0  0  0  0  0  0  0  0  0  0  0
  186.4100  178.8140  141.8200 C   0  0  0  0  0  3  0  0  0  0  0  0
  187.5840  178.5750  141.0970 C   0  0  0  0  0  0  0  0  0  0  0  0
  186.2640  178.4820  139.1100 N   0  0  0  0  0  0  0  0  0  0  0  0
  188.6430  178.1550  138.9300 N   0  0  0  0  0  0  0  0  0  0  0  0
  185.2160  178.8800  141.1790 N   0  0  0  0  0  0  0  0  0  0  0  0
  187.4800  178.4120  139.7130 C   0  0  0  0  0  0  0  0  0  0  0  0
  190.1100  177.9300  138.7850 C   0  0  2  0  0  3  0  0  0  0  0  0
  189.3370  177.8560  137.6450 C   0  0  0  0  0  2  0  0  0  0  0  0
  182.7420  176.6300  139.4090 C   0  0  0  0  0  2  0  0  0  0  0  0
  180.7020  177.4080  138.6750 N   0  0  0  0  0  0  0  0  0  0  0  0
  183.8300  178.7880  139.1510 C   0  0  0  0  0  0  0  0  0  0  0  0
  183.0740  179.8930  139.1040 C   0  0  0  0  0  3  0  0  0  0  0  0
  181.5020  178.9930  137.0740 N   0  0  0  0  0  2  0  0  0  0  0  0
  183.0840  177.6080  138.5720 C   0  0  2  0  0  3  0  0  0  0  0  0
  181.2700  176.5330  139.4460 C   0  0  0  0  0  3  0  0  0  0  0  0
  181.9790  179.4100  138.3850 N   0  0  0  0  0  0  0  0  0  0  0  0
  181.7890  178.0430  137.9740 C   0  0  2  0  0  0  0  0  0  0  0  0
  188.8340  178.4910  141.7210 O   0  0  0  0  0  0  0  0  0  0  0  0
  190.5060  177.6950  144.9750 C   0  0  0  0  0  2  0  0  0  0  0  0
  188.1600  177.4080  145.2480 C   0  0  0  0  0  2  0  0  0  0  0  0
  187.8610  178.0400  143.8910 C   0  0  0  0  0  2  0  0  0  0  0  0
  190.3290  178.3360  143.6010 C   0  0  0  0  0  2  0  0  0  0  0  0
  189.0480  177.8170  142.9550 C   0  0  0  0  0  3  0  0  0  0  0  0
  189.3600  178.0150  145.8270 N   0  0  0  0  0  0  0  0  0  0  0  0
  191.2560  176.5500  147.4570 C   0  0  0  0  0  1  0  0  0  0  0  0
  189.5040  178.3190  148.4550 O   0  0  0  0  0  0  0  0  0  0  0  0
  188.6030  176.2080  147.6080 O   0  0  0  0  0  0  0  0  0  0  0  0
  189.6320  177.2790  147.3760 S   0  0  0  0  0  0  0  0  0  0  0  0
  190.4340  176.5430  139.3030 C   0  0  0  0  0  2  0  0  0  0  0  0
  190.3800  175.5260  138.1760 C   0  0  0  0  0  2  0  0  0  0  0  0
  191.5930  174.8200  138.0970 O   0  0  0  0  0  0  0  0  0  0  0  0
  192.2340  175.1200  136.8720 C   0  0  1  0  0  3  0  0  0  0  0  0
  193.8480  176.1210  138.3940 O   0  0  0  0  0  1  0  0  0  0  0  0
  193.5210  175.9440  137.0470 C   0  0  1  0  0  3  0  0  0  0  0  0
  194.6950  175.3580  136.2630 C   0  0  0  0  0  2  0  0  0  0  0  0
  195.3970  176.3770  135.3750 C   0  0  0  0  0  2  0  0  0  0  0  0
  194.9730  177.6650  135.6970 O   0  0  0  0  0  1  0  0  0  0  0  0
  192.4300  173.9360  136.0390 N   0  0  0  0  0  2  0  0  0  0  0  0
  191.0920  175.2690  134.5220 C   0  0  0  0  0  1  0  0  0  0  0  0
  191.3290  173.8890  135.0960 C   0  0  0  0  0  2  0  0  0  0  0  0
  1  6  1  0  0  0  0
  3 19  1  0  0  0  0
  3  2  1  0  0  0  0
  4  7  1  0  0  0  0
  4  1  2  0  0  0  0
  5  7  1  0  0  0  0
  6  2  2  0  0  0  0
  7  3  2  0  0  0  0
  8  5  1  0  0  0  0
  8 30  1  1  0  0  0
  9  8  1  0  0  0  0
  9  5  1  0  0  0  0
 10 16  1  0  0  0  0
 11 16  2  0  0  0  0
 12  1  1  0  0  0  0
 13 12  2  0  0  0  0
 14 17  1  0  0  0  0
 15 12  1  0  0  0  0
 15 10  1  1  0  0  0
 17 13  1  0  0  0  0
 18 14  1  6  0  0  0
 18 17  1  0  0  0  0
 18 15  1  0  0  0  0
 18 11  1  0  0  0  0
 19 24  1  0  0  0  0
 20 25  1  0  0  0  0
 21 25  1  0  0  0  0
 22 21  1  0  0  0  0
 23 20  1  0  0  0  0
 24 23  1  0  0  0  0
 24 22  1  0  0  0  0
 25 29  1  0  0  0  0
 29 26  1  0  0  0  0
 29 28  2  0  0  0  0
 29 27  2  0  0  0  0
 31 30  1  0  0  0  0
 32 31  1  0  0  0  0
 33 39  1  1  0  0  0
 33 35  1  0  0  0  0
 33 32  1  0  0  0  0
 35 34  1  1  0  0  0
 36 35  1  0  0  0  0
 37 38  1  0  0  0  0
 37 36  1  0  0  0  0
 40 41  1  0  0  0  0
 41 39  1  0  0  0  0
M  END
>  <MODEL>
8

>  <REMARK>
 VINA RESULT:      -6.8      3.193      9.525
  Name = 
  13 active torsions:
  status: ('A' for Active; 'I' for Inactive)
    1  A    between atoms: O_2  and  C_11
    2  A    between atoms: O_2  and  C_35
    3  A    between atoms: C_3  and  N_21
    4  A    between atoms: C_3  and  O_23
    5  A    between atoms: C_3  and  C_27
    6  A    between atoms: C_5  and  C_6
    7  A    between atoms: C_14  and  C_19
    8  A    between atoms: C_15  and  O_23
    9  A    between atoms: C_15  and  C_37
   10  A    between atoms: C_19  and  C_27
   11  A    between atoms: N_21  and  C_30
   12  A    between atoms: S_34  and  N_40
   13  A    between atoms: C_37  and  C_38
                            x       y       z     vdW  Elec       q    Type
                         _______ _______ _______ _____ _____    ______ ____

>  <TORSDO>
F 13

$$$$
=
 OpenBabel10232412013D

 41 46  0  0  1  0  0  0  0  0999 V2000
  184.7950  178.8130  139.6600 C   0  0  0  0  0  0  0  0  0  0  0  0
  186.0510  178.7750  141.6650 C   0  0  0  0  0  3  0  0  0  0  0  0
  187.2240  178.5290  140.9430 C   0  0  0  0  0  0  0  0  0  0  0  0
  185.9250  178.5760  138.9410 N   0  0  0  0  0  0  0  0  0  0  0  0
  188.2930  178.1750  138.7690 N   0  0  0  0  0  0  0  0  0  0  0  0
  184.8680  178.9130  141.0160 N   0  0  0  0  0  0  0  0  0  0  0  0
  187.1300  178.4350  139.5520 C   0  0  0  0  0  0  0  0  0  0  0  0
  189.7530  177.9050  138.6280 C   0  0  2  0  0  3  0  0  0  0  0  0
  188.9910  177.9120  137.4780 C   0  0  0  0  0  2  0  0  0  0  0  0
  182.2150  176.9430  139.3700 C   0  0  0  0  0  2  0  0  0  0  0  0
  180.2560  177.8600  138.5790 N   0  0  0  0  0  0  0  0  0  0  0  0
  183.5020  178.9650  138.9720 C   0  0  0  0  0  0  0  0  0  0  0  0
  182.8550  180.1310  138.8480 C   0  0  0  0  0  3  0  0  0  0  0  0
  181.2000  179.2500  136.8770 N   0  0  0  0  0  2  0  0  0  0  0  0
  182.6460  177.8250  138.4710 C   0  0  2  0  0  3  0  0  0  0  0  0
  180.7410  176.9890  139.4080 C   0  0  0  0  0  3  0  0  0  0  0  0
  181.7180  179.7070  138.1590 N   0  0  0  0  0  0  0  0  0  0  0  0
  181.3970  178.3400  137.8400 C   0  0  2  0  0  0  0  0  0  0  0  0
  188.4640  178.3710  141.5750 O   0  0  0  0  0  0  0  0  0  0  0  0
  188.2090  177.1600  145.1080 C   0  0  0  0  0  2  0  0  0  0  0  0
  190.2730  178.3170  144.8590 C   0  0  0  0  0  2  0  0  0  0  0  0
  190.1160  178.4010  143.3440 C   0  0  0  0  0  2  0  0  0  0  0  0
  187.9410  177.1900  143.6050 C   0  0  0  0  0  2  0  0  0  0  0  0
  188.6310  178.4030  142.9870 C   0  0  0  0  0  3  0  0  0  0  0  0
  189.6490  177.0910  145.3590 N   0  0  0  0  0  0  0  0  0  0  0  0
  191.5260  176.4680  147.4760 C   0  0  0  0  0  1  0  0  0  0  0  0
  189.6880  178.4130  147.6540 O   0  0  0  0  0  0  0  0  0  0  0  0
  188.8800  176.1040  147.6920 O   0  0  0  0  0  0  0  0  0  0  0  0
  189.8850  177.0380  147.0780 S   0  0  0  0  0  0  0  0  0  0  0  0
  190.0230  176.4840  139.0830 C   0  0  0  0  0  2  0  0  0  0  0  0
  191.4850  176.1280  138.8780 C   0  0  0  0  0  2  0  0  0  0  0  0
  191.5990  174.9590  138.1050 O   0  0  0  0  0  0  0  0  0  0  0  0
  192.0220  175.2990  136.7980 C   0  0  1  0  0  3  0  0  0  0  0  0
  194.2420  176.2810  136.9700 O   0  0  0  0  0  1  0  0  0  0  0  0
  193.5360  175.1360  136.5880 C   0  0  1  0  0  3  0  0  0  0  0  0
  194.0870  173.8880  137.2780 C   0  0  0  0  0  2  0  0  0  0  0  0
  195.2680  174.1750  138.1950 C   0  0  0  0  0  2  0  0  0  0  0  0
  195.3570  173.1940  139.1810 O   0  0  0  0  0  1  0  0  0  0  0  0
  191.2330  174.6310  135.7650 N   0  0  0  0  0  2  0  0  0  0  0  0
  188.9790  173.7950  136.0590 C   0  0  0  0  0  1  0  0  0  0  0  0
  190.4360  173.6140  136.4250 C   0  0  0  0  0  2  0  0  0  0  0  0
  1  6  1  0  0  0  0
  3 19  1  0  0  0  0
  3  2  1  0  0  0  0
  4  7  1  0  0  0  0
  4  1  2  0  0  0  0
  5  7  1  0  0  0  0
  6  2  2  0  0  0  0
  7  3  2  0  0  0  0
  8  5  1  0  0  0  0
  8 30  1  1  0  0  0
  9  8  1  0  0  0  0
  9  5  1  0  0  0  0
 10 16  1  0  0  0  0
 11 16  2  0  0  0  0
 12  1  1  0  0  0  0
 13 12  2  0  0  0  0
 14 17  1  0  0  0  0
 15 12  1  0  0  0  0
 15 10  1  1  0  0  0
 17 13  1  0  0  0  0
 18 14  1  6  0  0  0
 18 17  1  0  0  0  0
 18 15  1  0  0  0  0
 18 11  1  0  0  0  0
 19 24  1  0  0  0  0
 20 25  1  0  0  0  0
 21 25  1  0  0  0  0
 22 21  1  0  0  0  0
 23 20  1  0  0  0  0
 24 22  1  0  0  0  0
 24 23  1  0  0  0  0
 25 29  1  0  0  0  0
 29 26  1  0  0  0  0
 29 27  2  0  0  0  0
 29 28  2  0  0  0  0
 31 30  1  0  0  0  0
 32 31  1  0  0  0  0
 33 39  1  6  0  0  0
 33 32  1  0  0  0  0
 35 33  1  0  0  0  0
 35 34  1  1  0  0  0
 35 36  1  0  0  0  0
 36 37  1  0  0  0  0
 37 38  1  0  0  0  0
 39 41  1  0  0  0  0
 40 41  1  0  0  0  0
M  END
>  <MODEL>
9

>  <REMARK>
 VINA RESULT:      -6.7      3.229      9.439
  Name = 
  13 active torsions:
  status: ('A' for Active; 'I' for Inactive)
    1  A    between atoms: O_2  and  C_11
    2  A    between atoms: O_2  and  C_35
    3  A    between atoms: C_3  and  N_21
    4  A    between atoms: C_3  and  O_23
    5  A    between atoms: C_3  and  C_27
    6  A    between atoms: C_5  and  C_6
    7  A    between atoms: C_14  and  C_19
    8  A    between atoms: C_15  and  O_23
    9  A    between atoms: C_15  and  C_37
   10  A    between atoms: C_19  and  C_27
   11  A    between atoms: N_21  and  C_30
   12  A    between atoms: S_34  and  N_40
   13  A    between atoms: C_37  and  C_38
                            x       y       z     vdW  Elec       q    Type
                         _______ _______ _______ _____ _____    ______ ____

>  <TORSDO>
F 13

$$$$
