=
 OpenBabel10222421363D

 43 45  0  0  1  0  0  0  0  0999 V2000
  185.2390  178.2530  143.8020 C   0  0  0  0  0  3  0  0  0  0  0  0
  186.4710  177.7100  144.1460 C   0  0  0  0  0  0  0  0  0  0  0  0
  187.3070  177.6930  143.0790 N   0  0  0  0  0  0  0  0  0  0  0  0
  188.5050  177.9130  140.5880 C   0  0  0  0  0  0  0  0  0  0  0  0
  189.2190  177.3590  141.6860 C   0  0  0  0  0  0  0  0  0  0  0  0
  188.5970  177.2590  142.9490 C   0  0  0  0  0  0  0  0  0  0  0  0
  187.1870  178.3580  140.7940 C   0  0  0  0  0  3  0  0  0  0  0  0
  190.5300  176.9160  141.5370 O   0  0  0  0  0  1  0  0  0  0  0  0
  186.6220  178.2290  142.0570 C   0  0  0  0  0  0  0  0  0  0  0  0
  185.3470  178.5820  142.4600 C   0  0  0  0  0  0  0  0  0  0  0  0
  189.0290  179.2440  138.4930 N   0  0  0  0  0  1  0  0  0  0  0  0
  189.0980  178.0190  139.2250 C   0  0  0  0  0  0  0  0  0  0  0  0
  189.7270  176.9710  138.6830 C   0  0  0  0  0  3  0  0  0  0  0  0
  190.3770  177.0180  137.3390 C   0  0  0  0  0  2  0  0  0  0  0  0
  191.6260  176.2090  137.3430 C   0  0  0  0  0  0  0  0  0  0  0  0
  193.7560  175.5010  137.9520 C   0  0  0  0  0  3  0  0  0  0  0  0
  193.4620  174.5870  136.9440 C   0  0  0  0  0  0  0  0  0  0  0  0
  192.7190  176.4170  138.1770 C   0  0  0  0  0  3  0  0  0  0  0  0
  191.9260  174.9070  136.3270 S   0  0  0  0  0  0  0  0  0  0  0  0
  194.3520  173.5590  136.4730 N   0  0  0  0  0  0  0  0  0  0  0  0
  193.9230  172.1680  136.4160 C   0  0  0  0  0  2  0  0  0  0  0  0
  194.8070  171.3890  135.4620 C   0  0  0  0  0  1  0  0  0  0  0  0
  195.7570  173.8430  136.2200 C   0  0  0  0  0  2  0  0  0  0  0  0
  196.5880  173.5210  137.4510 C   0  0  0  0  0  2  0  0  0  0  0  0
  197.4600  174.6810  137.7990 C   0  0  0  0  0  0  0  0  0  0  0  0
  197.5590  175.6260  137.0280 O   0  0  0  0  0  0  0  0  0  0  0  0
  199.3190  175.5030  139.0110 O   0  0  0  0  0  1  0  0  0  0  0  0
  198.1950  174.6820  139.1010 C   0  0  1  0  0  3  0  0  0  0  0  0
  197.2970  175.1620  140.2250 C   0  0  0  0  0  1  0  0  0  0  0  0
  186.7790  177.1710  145.5030 C   0  0  0  0  0  2  0  0  0  0  0  0
  186.0610  177.9360  146.5070 N   0  0  0  0  0  2  0  0  0  0  0  0
  188.0550  177.3470  147.7410 C   0  0  0  0  0  1  0  0  0  0  0  0
  187.0530  178.4390  147.4390 C   0  0  0  0  0  2  0  0  0  0  0  0
  189.3440  176.6570  144.0980 C   0  0  0  0  0  2  0  0  0  0  0  0
  190.1260  177.7330  144.8320 C   0  0  0  0  0  2  0  0  0  0  0  0
  191.7350  175.9960  144.5430 O   0  0  0  0  0  1  0  0  0  0  0  0
  191.5490  177.2690  145.0820 C   0  0  0  0  0  3  0  0  0  0  0  0
  191.7870  177.2290  146.4550 O   0  0  0  0  0  1  0  0  0  0  0  0
  184.2750  179.2490  141.6500 C   0  0  2  0  0  3  0  0  0  0  0  0
  181.8520  178.7930  142.6850 C   0  0  0  0  0  3  0  0  0  0  0  0
  182.9450  178.9980  142.2210 C   0  0  0  0  0  0  0  0  0  0  0  0
  184.4840  179.8760  139.4900 O   0  0  0  0  0  1  0  0  0  0  0  0
  184.3170  178.7830  140.2720 N   0  0  0  0  0  2  0  0  0  0  0  0
  1  2  2  0  0  0  0
  2 30  1  0  0  0  0
  3  2  1  0  0  0  0
  4  7  2  0  0  0  0
  4  5  1  0  0  0  0
  5  6  2  0  0  0  0
  6  3  1  0  0  0  0
  6 34  1  0  0  0  0
  7  9  1  0  0  0  0
  8  5  1  0  0  0  0
  9 10  2  0  0  0  0
  9  3  1  0  0  0  0
 10  1  1  0  0  0  0
 11 12  1  0  0  0  0
 12  4  1  0  0  0  0
 13 12  2  0  0  0  0
 14 15  1  0  0  0  0
 14 13  1  0  0  0  0
 15 18  2  0  0  0  0
 16 18  1  0  0  0  0
 17 16  2  0  0  0  0
 19 17  1  0  0  0  0
 19 15  1  0  0  0  0
 20 17  1  0  0  0  0
 21 20  1  0  0  0  0
 22 21  1  0  0  0  0
 23 20  1  0  0  0  0
 23 24  1  0  0  0  0
 24 25  1  0  0  0  0
 25 28  1  0  0  0  0
 26 25  2  0  0  0  0
 27 28  1  0  0  0  0
 28 29  1  1  0  0  0
 30 31  1  0  0  0  0
 31 33  1  0  0  0  0
 33 32  1  0  0  0  0
 34 35  1  0  0  0  0
 35 37  1  0  0  0  0
 36 37  1  0  0  0  0
 37 38  1  0  0  0  0
 39 41  1  1  0  0  0
 39 10  1  0  0  0  0
 41 40  3  0  0  0  0
 42 43  1  0  0  0  0
 43 39  1  0  0  0  0
M  END
>  <MODEL>
1

>  <REMARK>
 VINA RESULT:      -7.5      0.000      0.000
  Name = 
  18 active torsions:
  status: ('A' for Active; 'I' for Inactive)
    1  A    between atoms: C_2  and  C_34
    2  A    between atoms: C_2  and  C_39
    3  A    between atoms: C_4  and  C_5
    4  A    between atoms: C_4  and  C_41
    5  A    between atoms: C_6  and  C_28
    6  A    between atoms: C_9  and  N_17
    7  A    between atoms: C_9  and  C_42
    8  A    between atoms: C_9  and  C_43
    9  A    between atoms: C_12  and  N_23
   10  A    between atoms: C_13  and  C_14
   11  A    between atoms: C_14  and  N_19
   12  A    between atoms: N_19  and  C_37
   13  A    between atoms: C_20  and  C_21
   14  A    between atoms: N_23  and  C_29
   15  A    between atoms: N_23  and  C_30
   16  A    between atoms: C_25  and  C_34
   17  A    between atoms: C_26  and  C_28
   18  A    between atoms: C_30  and  C_41
                            x       y       z     vdW  Elec       q    Type
                         _______ _______ _______ _____ _____    ______ ____

>  <TORSDO>
F 18

$$$$
=
 OpenBabel10222421363D

 43 45  0  0  1  0  0  0  0  0999 V2000
  188.7460  177.3900  144.8580 C   0  0  0  0  0  3  0  0  0  0  0  0
  187.5310  177.8590  144.3750 C   0  0  0  0  0  0  0  0  0  0  0  0
  187.5700  178.0030  143.0280 N   0  0  0  0  0  0  0  0  0  0  0  0
  188.2620  178.0980  140.3440 C   0  0  0  0  0  0  0  0  0  0  0  0
  186.9620  178.4870  140.7680 C   0  0  0  0  0  0  0  0  0  0  0  0
  186.6230  178.4280  142.1370 C   0  0  0  0  0  0  0  0  0  0  0  0
  189.1830  177.6530  141.3090 C   0  0  0  0  0  3  0  0  0  0  0  0
  186.0100  178.9220  139.8510 O   0  0  0  0  0  1  0  0  0  0  0  0
  188.7980  177.6220  142.6440 C   0  0  0  0  0  0  0  0  0  0  0  0
  189.5510  177.2420  143.7390 C   0  0  0  0  0  0  0  0  0  0  0  0
  189.0500  179.4110  138.3220 N   0  0  0  0  0  1  0  0  0  0  0  0
  188.6880  178.1650  138.9170 C   0  0  0  0  0  0  0  0  0  0  0  0
  188.7620  177.0480  138.1870 C   0  0  0  0  0  3  0  0  0  0  0  0
  189.2170  177.0350  136.7640 C   0  0  0  0  0  2  0  0  0  0  0  0
  190.2180  175.9530  136.5540 C   0  0  0  0  0  0  0  0  0  0  0  0
  191.5150  174.0750  137.0000 C   0  0  0  0  0  3  0  0  0  0  0  0
  191.9630  174.3970  135.7230 C   0  0  0  0  0  0  0  0  0  0  0  0
  190.5290  174.9540  137.4700 C   0  0  0  0  0  3  0  0  0  0  0  0
  191.1490  175.7660  135.1700 S   0  0  0  0  0  0  0  0  0  0  0  0
  192.9960  173.6960  135.0060 N   0  0  0  0  0  0  0  0  0  0  0  0
  192.7860  172.3320  134.5390 C   0  0  0  0  0  2  0  0  0  0  0  0
  193.3640  171.3460  135.5350 C   0  0  0  0  0  1  0  0  0  0  0  0
  194.3370  174.2500  134.8910 C   0  0  0  0  0  2  0  0  0  0  0  0
  194.7990  174.7890  136.2350 C   0  0  0  0  0  2  0  0  0  0  0  0
  195.4720  173.7090  137.0150 C   0  0  0  0  0  0  0  0  0  0  0  0
  196.3120  172.9990  136.4800 O   0  0  0  0  0  0  0  0  0  0  0  0
  195.3940  172.2060  138.8410 O   0  0  0  0  0  1  0  0  0  0  0  0
  195.1200  173.5180  138.4560 C   0  0  1  0  0  3  0  0  0  0  0  0
  195.8960  174.4830  139.3320 C   0  0  0  0  0  1  0  0  0  0  0  0
  186.3780  178.2060  145.2560 C   0  0  0  0  0  2  0  0  0  0  0  0
  186.4920  177.4900  146.5140 N   0  0  0  0  0  2  0  0  0  0  0  0
  187.8400  177.9320  148.4710 C   0  0  0  0  0  1  0  0  0  0  0  0
  186.7860  178.4790  147.5340 C   0  0  0  0  0  2  0  0  0  0  0  0
  185.2600  178.8570  142.5830 C   0  0  0  0  0  2  0  0  0  0  0  0
  184.2020  177.9550  141.9680 C   0  0  0  0  0  2  0  0  0  0  0  0
  182.2810  178.9370  142.9860 O   0  0  0  0  0  1  0  0  0  0  0  0
  182.9120  178.7260  141.7600 C   0  0  0  0  0  3  0  0  0  0  0  0
  182.0680  177.9940  140.9260 O   0  0  0  0  0  1  0  0  0  0  0  0
  190.9530  176.7080  143.7540 C   0  0  2  0  0  3  0  0  0  0  0  0
  191.7930  176.2820  146.2570 C   0  0  0  0  0  3  0  0  0  0  0  0
  191.4160  176.4730  145.1280 C   0  0  0  0  0  0  0  0  0  0  0  0
  191.8370  178.7860  143.7890 O   0  0  0  0  0  1  0  0  0  0  0  0
  191.8540  177.6310  143.0820 N   0  0  0  0  0  2  0  0  0  0  0  0
  2  1  2  0  0  0  0
  2 30  1  0  0  0  0
  3  2  1  0  0  0  0
  4  5  1  0  0  0  0
  4  7  2  0  0  0  0
  5  6  2  0  0  0  0
  6 34  1  0  0  0  0
  6  3  1  0  0  0  0
  7  9  1  0  0  0  0
  8  5  1  0  0  0  0
  9  3  1  0  0  0  0
  9 10  2  0  0  0  0
 10 39  1  0  0  0  0
 10  1  1  0  0  0  0
 11 12  1  0  0  0  0
 12  4  1  0  0  0  0
 13 12  2  0  0  0  0
 14 13  1  0  0  0  0
 15 14  1  0  0  0  0
 15 18  2  0  0  0  0
 16 18  1  0  0  0  0
 17 16  2  0  0  0  0
 19 17  1  0  0  0  0
 19 15  1  0  0  0  0
 20 17  1  0  0  0  0
 21 20  1  0  0  0  0
 21 22  1  0  0  0  0
 23 20  1  0  0  0  0
 23 24  1  0  0  0  0
 24 25  1  0  0  0  0
 25 28  1  0  0  0  0
 26 25  2  0  0  0  0
 28 27  1  0  0  0  0
 28 29  1  1  0  0  0
 30 31  1  0  0  0  0
 31 33  1  0  0  0  0
 33 32  1  0  0  0  0
 35 34  1  0  0  0  0
 37 35  1  0  0  0  0
 37 36  1  0  0  0  0
 38 37  1  0  0  0  0
 39 41  1  1  0  0  0
 41 40  3  0  0  0  0
 43 39  1  0  0  0  0
 43 42  1  0  0  0  0
M  END
>  <MODEL>
2

>  <REMARK>
 VINA RESULT:      -7.5      1.846      4.761
  Name = 
  18 active torsions:
  status: ('A' for Active; 'I' for Inactive)
    1  A    between atoms: C_2  and  C_34
    2  A    between atoms: C_2  and  C_39
    3  A    between atoms: C_4  and  C_5
    4  A    between atoms: C_4  and  C_41
    5  A    between atoms: C_6  and  C_28
    6  A    between atoms: C_9  and  N_17
    7  A    between atoms: C_9  and  C_42
    8  A    between atoms: C_9  and  C_43
    9  A    between atoms: C_12  and  N_23
   10  A    between atoms: C_13  and  C_14
   11  A    between atoms: C_14  and  N_19
   12  A    between atoms: N_19  and  C_37
   13  A    between atoms: C_20  and  C_21
   14  A    between atoms: N_23  and  C_29
   15  A    between atoms: N_23  and  C_30
   16  A    between atoms: C_25  and  C_34
   17  A    between atoms: C_26  and  C_28
   18  A    between atoms: C_30  and  C_41
                            x       y       z     vdW  Elec       q    Type
                         _______ _______ _______ _____ _____    ______ ____

>  <TORSDO>
F 18

$$$$
=
 OpenBabel10222421363D

 43 45  0  0  1  0  0  0  0  0999 V2000
  188.7870  177.5280  144.8660 C   0  0  0  0  0  3  0  0  0  0  0  0
  187.5910  177.9880  144.3290 C   0  0  0  0  0  0  0  0  0  0  0  0
  187.6700  178.0750  142.9780 N   0  0  0  0  0  0  0  0  0  0  0  0
  188.4390  178.0500  140.3140 C   0  0  0  0  0  0  0  0  0  0  0  0
  187.1320  178.4690  140.6840 C   0  0  0  0  0  0  0  0  0  0  0  0
  186.7540  178.4720  142.0440 C   0  0  0  0  0  0  0  0  0  0  0  0
  189.3280  177.6370  141.3230 C   0  0  0  0  0  3  0  0  0  0  0  0
  186.2120  178.8740  139.7220 O   0  0  0  0  0  1  0  0  0  0  0  0
  188.9050  177.6660  142.6470 C   0  0  0  0  0  0  0  0  0  0  0  0
  189.6220  177.3250  143.7780 C   0  0  0  0  0  0  0  0  0  0  0  0
  188.9870  179.2710  138.1590 N   0  0  0  0  0  1  0  0  0  0  0  0
  188.9070  178.0520  138.8990 C   0  0  0  0  0  0  0  0  0  0  0  0
  189.2840  176.9100  138.3150 C   0  0  0  0  0  3  0  0  0  0  0  0
  189.7990  176.8440  136.9140 C   0  0  0  0  0  2  0  0  0  0  0  0
  191.2040  176.3540  136.9060 C   0  0  0  0  0  0  0  0  0  0  0  0
  193.3500  175.8890  137.6750 C   0  0  0  0  0  3  0  0  0  0  0  0
  193.4340  175.4040  136.3740 C   0  0  0  0  0  0  0  0  0  0  0  0
  192.0890  176.4250  137.9760 C   0  0  0  0  0  3  0  0  0  0  0  0
  191.9600  175.6380  135.5890 S   0  0  0  0  0  0  0  0  0  0  0  0
  194.6140  174.8350  135.7780 N   0  0  0  0  0  0  0  0  0  0  0  0
  194.7420  173.3950  135.6010 C   0  0  0  0  0  2  0  0  0  0  0  0
  193.8590  172.6680  136.5960 C   0  0  0  0  0  1  0  0  0  0  0  0
  195.7870  175.6550  135.5080 C   0  0  0  0  0  2  0  0  0  0  0  0
  197.0050  174.7720  135.2900 C   0  0  0  0  0  2  0  0  0  0  0  0
  197.9470  174.9060  136.4410 C   0  0  0  0  0  0  0  0  0  0  0  0
  197.5830  175.4630  137.4680 O   0  0  0  0  0  0  0  0  0  0  0  0
  200.0820  174.7080  137.4420 O   0  0  0  0  0  1  0  0  0  0  0  0
  199.3260  174.3390  136.3290 C   0  0  1  0  0  3  0  0  0  0  0  0
  199.2790  172.8270  136.2190 C   0  0  0  0  0  1  0  0  0  0  0  0
  186.4170  178.3830  145.1610 C   0  0  0  0  0  2  0  0  0  0  0  0
  186.3730  177.5680  146.3610 N   0  0  0  0  0  2  0  0  0  0  0  0
  187.7870  177.9280  148.2890 C   0  0  0  0  0  1  0  0  0  0  0  0
  186.6220  178.4560  147.4810 C   0  0  0  0  0  2  0  0  0  0  0  0
  185.3830  178.9320  142.4310 C   0  0  0  0  0  2  0  0  0  0  0  0
  184.3770  177.8140  142.2150 C   0  0  0  0  0  2  0  0  0  0  0  0
  183.2300  179.2510  140.6950 O   0  0  0  0  0  1  0  0  0  0  0  0
  183.0430  178.3870  141.7750 C   0  0  0  0  0  3  0  0  0  0  0  0
  182.4710  179.0910  142.8340 O   0  0  0  0  0  1  0  0  0  0  0  0
  191.0170  176.7790  143.8560 C   0  0  2  0  0  3  0  0  0  0  0  0
  191.7300  176.3120  146.3910 C   0  0  0  0  0  3  0  0  0  0  0  0
  191.4080  176.5200  145.2480 C   0  0  0  0  0  0  0  0  0  0  0  0
  191.9450  178.8330  143.9900 O   0  0  0  0  0  1  0  0  0  0  0  0
  191.9580  177.7030  143.2430 N   0  0  0  0  0  2  0  0  0  0  0  0
  2  1  2  0  0  0  0
  2 30  1  0  0  0  0
  3  2  1  0  0  0  0
  4  5  1  0  0  0  0
  4  7  2  0  0  0  0
  5  6  2  0  0  0  0
  6 34  1  0  0  0  0
  6  3  1  0  0  0  0
  7  9  1  0  0  0  0
  8  5  1  0  0  0  0
  9  3  1  0  0  0  0
  9 10  2  0  0  0  0
 10 39  1  0  0  0  0
 10  1  1  0  0  0  0
 11 12  1  0  0  0  0
 12  4  1  0  0  0  0
 13 12  2  0  0  0  0
 14 13  1  0  0  0  0
 15 14  1  0  0  0  0
 15 18  2  0  0  0  0
 16 18  1  0  0  0  0
 17 16  2  0  0  0  0
 19 17  1  0  0  0  0
 19 15  1  0  0  0  0
 20 17  1  0  0  0  0
 21 20  1  0  0  0  0
 21 22  1  0  0  0  0
 23 20  1  0  0  0  0
 24 23  1  0  0  0  0
 24 25  1  0  0  0  0
 25 26  2  0  0  0  0
 28 29  1  1  0  0  0
 28 25  1  0  0  0  0
 28 27  1  0  0  0  0
 30 31  1  0  0  0  0
 31 33  1  0  0  0  0
 33 32  1  0  0  0  0
 35 34  1  0  0  0  0
 36 37  1  0  0  0  0
 37 35  1  0  0  0  0
 37 38  1  0  0  0  0
 39 41  1  1  0  0  0
 41 40  3  0  0  0  0
 43 39  1  0  0  0  0
 43 42  1  0  0  0  0
M  END
>  <MODEL>
3

>  <REMARK>
 VINA RESULT:      -7.5      1.613      4.598
  Name = 
  18 active torsions:
  status: ('A' for Active; 'I' for Inactive)
    1  A    between atoms: C_2  and  C_34
    2  A    between atoms: C_2  and  C_39
    3  A    between atoms: C_4  and  C_5
    4  A    between atoms: C_4  and  C_41
    5  A    between atoms: C_6  and  C_28
    6  A    between atoms: C_9  and  N_17
    7  A    between atoms: C_9  and  C_42
    8  A    between atoms: C_9  and  C_43
    9  A    between atoms: C_12  and  N_23
   10  A    between atoms: C_13  and  C_14
   11  A    between atoms: C_14  and  N_19
   12  A    between atoms: N_19  and  C_37
   13  A    between atoms: C_20  and  C_21
   14  A    between atoms: N_23  and  C_29
   15  A    between atoms: N_23  and  C_30
   16  A    between atoms: C_25  and  C_34
   17  A    between atoms: C_26  and  C_28
   18  A    between atoms: C_30  and  C_41
                            x       y       z     vdW  Elec       q    Type
                         _______ _______ _______ _____ _____    ______ ____

>  <TORSDO>
F 18

$$$$
=
 OpenBabel10222421363D

 43 45  0  0  1  0  0  0  0  0999 V2000
  183.2950  175.5580  136.2000 C   0  0  0  0  0  3  0  0  0  0  0  0
  184.3650  176.4250  136.3820 C   0  0  0  0  0  0  0  0  0  0  0  0
  184.2870  177.0440  137.5860 N   0  0  0  0  0  0  0  0  0  0  0  0
  183.5780  177.9670  140.1030 C   0  0  0  0  0  0  0  0  0  0  0  0
  184.7540  178.4450  139.4640 C   0  0  0  0  0  0  0  0  0  0  0  0
  185.1040  177.9620  138.1850 C   0  0  0  0  0  0  0  0  0  0  0  0
  182.7900  177.0080  139.4400 C   0  0  0  0  0  3  0  0  0  0  0  0
  185.5740  179.3840  140.0830 O   0  0  0  0  0  1  0  0  0  0  0  0
  183.1790  176.5720  138.1790 C   0  0  0  0  0  0  0  0  0  0  0  0
  182.5410  175.6610  137.3590 C   0  0  0  0  0  0  0  0  0  0  0  0
  181.8180  178.9590  141.6360 N   0  0  0  0  0  1  0  0  0  0  0  0
  183.1410  178.4600  141.4400 C   0  0  0  0  0  0  0  0  0  0  0  0
  183.9800  178.4120  142.4800 C   0  0  0  0  0  3  0  0  0  0  0  0
  183.5970  178.8520  143.8550 C   0  0  0  0  0  2  0  0  0  0  0  0
  184.7120  178.5930  144.8070 C   0  0  0  0  0  0  0  0  0  0  0  0
  185.8530  178.4290  146.8270 C   0  0  0  0  0  3  0  0  0  0  0  0
  186.8510  178.0420  145.9380 C   0  0  0  0  0  0  0  0  0  0  0  0
  184.6440  178.7400  146.1880 C   0  0  0  0  0  3  0  0  0  0  0  0
  186.2490  178.0850  144.3640 S   0  0  0  0  0  0  0  0  0  0  0  0
  188.2010  177.7040  146.3060 N   0  0  0  0  0  0  0  0  0  0  0  0
  188.4960  177.1170  147.6060 C   0  0  0  0  0  2  0  0  0  0  0  0
  189.0800  178.1660  148.5310 C   0  0  0  0  0  1  0  0  0  0  0  0
  189.3270  178.1070  145.4760 C   0  0  0  0  0  2  0  0  0  0  0  0
  190.2400  176.9200  145.2170 C   0  0  0  0  0  2  0  0  0  0  0  0
  190.9430  177.0910  143.9110 C   0  0  0  0  0  0  0  0  0  0  0  0
  191.9390  177.7970  143.8390 O   0  0  0  0  0  0  0  0  0  0  0  0
  190.3690  175.0060  142.9490 O   0  0  0  0  0  1  0  0  0  0  0  0
  190.4270  176.3770  142.7020 C   0  0  1  0  0  3  0  0  0  0  0  0
  189.0510  176.8890  142.3220 C   0  0  0  0  0  1  0  0  0  0  0  0
  185.4110  176.6660  135.3450 C   0  0  0  0  0  2  0  0  0  0  0  0
  185.3590  175.6140  134.3460 N   0  0  0  0  0  2  0  0  0  0  0  0
  187.1850  174.9180  135.7680 C   0  0  0  0  0  1  0  0  0  0  0  0
  186.6560  174.9650  134.3520 C   0  0  0  0  0  2  0  0  0  0  0  0
  186.3330  178.4830  137.5060 C   0  0  0  0  0  2  0  0  0  0  0  0
  187.5610  177.7460  138.0130 C   0  0  0  0  0  2  0  0  0  0  0  0
  188.7680  179.7490  137.5410 O   0  0  0  0  0  1  0  0  0  0  0  0
  188.8200  178.3590  137.4290 C   0  0  0  0  0  3  0  0  0  0  0  0
  188.9210  178.0090  136.0830 O   0  0  0  0  0  1  0  0  0  0  0  0
  181.3010  174.8680  137.6500 C   0  0  2  0  0  3  0  0  0  0  0  0
  181.6080  172.3040  136.9530 C   0  0  0  0  0  3  0  0  0  0  0  0
  181.4700  173.4600  137.2650 C   0  0  0  0  0  0  0  0  0  0  0  0
  179.9820  176.6890  137.4370 O   0  0  0  0  0  1  0  0  0  0  0  0
  180.1590  175.4370  136.9510 N   0  0  0  0  0  2  0  0  0  0  0  0
  1  2  2  0  0  0  0
  1 10  1  0  0  0  0
  2  3  1  0  0  0  0
  3  9  1  0  0  0  0
  3  6  1  0  0  0  0
  4 12  1  0  0  0  0
  5  8  1  0  0  0  0
  5  4  1  0  0  0  0
  6  5  2  0  0  0  0
  7  4  2  0  0  0  0
  9  7  1  0  0  0  0
 10 39  1  0  0  0  0
 10  9  2  0  0  0  0
 12 11  1  0  0  0  0
 12 13  2  0  0  0  0
 13 14  1  0  0  0  0
 14 15  1  0  0  0  0
 15 18  2  0  0  0  0
 17 20  1  0  0  0  0
 17 16  2  0  0  0  0
 18 16  1  0  0  0  0
 19 15  1  0  0  0  0
 19 17  1  0  0  0  0
 20 21  1  0  0  0  0
 21 22  1  0  0  0  0
 23 20  1  0  0  0  0
 24 23  1  0  0  0  0
 25 24  1  0  0  0  0
 26 25  2  0  0  0  0
 28 29  1  1  0  0  0
 28 27  1  0  0  0  0
 28 25  1  0  0  0  0
 30  2  1  0  0  0  0
 31 33  1  0  0  0  0
 31 30  1  0  0  0  0
 33 32  1  0  0  0  0
 34 35  1  0  0  0  0
 34  6  1  0  0  0  0
 37 36  1  0  0  0  0
 37 35  1  0  0  0  0
 38 37  1  0  0  0  0
 39 41  1  6  0  0  0
 40 41  3  0  0  0  0
 43 42  1  0  0  0  0
 43 39  1  0  0  0  0
M  END
>  <MODEL>
4

>  <REMARK>
 VINA RESULT:      -7.3      4.965      9.315
  Name = 
  18 active torsions:
  status: ('A' for Active; 'I' for Inactive)
    1  A    between atoms: C_2  and  C_34
    2  A    between atoms: C_2  and  C_39
    3  A    between atoms: C_4  and  C_5
    4  A    between atoms: C_4  and  C_41
    5  A    between atoms: C_6  and  C_28
    6  A    between atoms: C_9  and  N_17
    7  A    between atoms: C_9  and  C_42
    8  A    between atoms: C_9  and  C_43
    9  A    between atoms: C_12  and  N_23
   10  A    between atoms: C_13  and  C_14
   11  A    between atoms: C_14  and  N_19
   12  A    between atoms: N_19  and  C_37
   13  A    between atoms: C_20  and  C_21
   14  A    between atoms: N_23  and  C_29
   15  A    between atoms: N_23  and  C_30
   16  A    between atoms: C_25  and  C_34
   17  A    between atoms: C_26  and  C_28
   18  A    between atoms: C_30  and  C_41
                            x       y       z     vdW  Elec       q    Type
                         _______ _______ _______ _____ _____    ______ ____

>  <TORSDO>
F 18

$$$$
=
 OpenBabel10222421363D

 43 45  0  0  1  0  0  0  0  0999 V2000
  185.0180  178.2380  144.3420 C   0  0  0  0  0  3  0  0  0  0  0  0
  186.3050  177.7850  144.6050 C   0  0  0  0  0  0  0  0  0  0  0  0
  187.0490  177.7600  143.4720 N   0  0  0  0  0  0  0  0  0  0  0  0
  188.0210  177.9160  140.8790 C   0  0  0  0  0  0  0  0  0  0  0  0
  188.8550  177.4620  141.9370 C   0  0  0  0  0  0  0  0  0  0  0  0
  188.3480  177.3930  143.2520 C   0  0  0  0  0  0  0  0  0  0  0  0
  186.6990  178.2960  141.1760 C   0  0  0  0  0  3  0  0  0  0  0  0
  190.1740  177.0880  141.6970 O   0  0  0  0  0  1  0  0  0  0  0  0
  186.2500  178.2010  142.4880 C   0  0  0  0  0  0  0  0  0  0  0  0
  184.9940  178.5010  142.9820 C   0  0  0  0  0  0  0  0  0  0  0  0
  189.0590  179.1860  138.9440 N   0  0  0  0  0  1  0  0  0  0  0  0
  188.4900  177.9840  139.4660 C   0  0  0  0  0  0  0  0  0  0  0  0
  188.4080  176.9070  138.6800 C   0  0  0  0  0  3  0  0  0  0  0  0
  188.8950  176.8920  137.2670 C   0  0  0  0  0  2  0  0  0  0  0  0
  189.8240  175.7480  137.0560 C   0  0  0  0  0  0  0  0  0  0  0  0
  190.5390  173.5600  136.7230 C   0  0  0  0  0  3  0  0  0  0  0  0
  191.7600  174.2280  136.7400 C   0  0  0  0  0  0  0  0  0  0  0  0
  189.4450  174.4200  136.9010 C   0  0  0  0  0  3  0  0  0  0  0  0
  191.4960  175.8760  136.9780 S   0  0  0  0  0  0  0  0  0  0  0  0
  193.0490  173.5990  136.6210 N   0  0  0  0  0  0  0  0  0  0  0  0
  193.2870  172.5680  135.6200 C   0  0  0  0  0  2  0  0  0  0  0  0
  193.7290  171.2820  136.2910 C   0  0  0  0  0  1  0  0  0  0  0  0
  194.0920  173.8340  137.6100 C   0  0  0  0  0  2  0  0  0  0  0  0
  195.2040  174.6770  137.0090 C   0  0  0  0  0  2  0  0  0  0  0  0
  196.4260  174.5940  137.8610 C   0  0  0  0  0  0  0  0  0  0  0  0
  196.3430  174.7580  139.0700 O   0  0  0  0  0  0  0  0  0  0  0  0
  198.7650  174.9570  137.9040 O   0  0  0  0  0  1  0  0  0  0  0  0
  197.7450  174.2920  137.2230 C   0  0  1  0  0  3  0  0  0  0  0  0
  198.0150  172.7990  137.2270 C   0  0  0  0  0  1  0  0  0  0  0  0
  186.7570  177.3360  145.9540 C   0  0  0  0  0  2  0  0  0  0  0  0
  186.2690  178.2580  146.9640 N   0  0  0  0  0  2  0  0  0  0  0  0
  188.1820  177.2490  148.0440 C   0  0  0  0  0  1  0  0  0  0  0  0
  187.3760  178.5160  147.8650 C   0  0  0  0  0  2  0  0  0  0  0  0
  189.2230  176.8960  144.3600 C   0  0  0  0  0  2  0  0  0  0  0  0
  189.9940  178.0520  144.9740 C   0  0  0  0  0  2  0  0  0  0  0  0
  192.0540  178.5860  143.8970 O   0  0  0  0  0  1  0  0  0  0  0  0
  191.4860  177.7910  144.8920 C   0  0  0  0  0  3  0  0  0  0  0  0
  191.7030  176.4480  144.5890 O   0  0  0  0  0  1  0  0  0  0  0  0
  183.8200  179.0630  142.2360 C   0  0  2  0  0  3  0  0  0  0  0  0
  181.5790  178.8690  143.6820 C   0  0  0  0  0  3  0  0  0  0  0  0
  182.5880  178.9590  143.0300 C   0  0  0  0  0  0  0  0  0  0  0  0
  182.4070  178.6770  140.5160 O   0  0  0  0  0  1  0  0  0  0  0  0
  183.6480  178.3740  140.9670 N   0  0  0  0  0  2  0  0  0  0  0  0
  1  2  2  0  0  0  0
  2 30  1  0  0  0  0
  3  2  1  0  0  0  0
  4  7  2  0  0  0  0
  4  5  1  0  0  0  0
  5  6  2  0  0  0  0
  6  3  1  0  0  0  0
  6 34  1  0  0  0  0
  7  9  1  0  0  0  0
  8  5  1  0  0  0  0
  9 10  2  0  0  0  0
  9  3  1  0  0  0  0
 10  1  1  0  0  0  0
 11 12  1  0  0  0  0
 12  4  1  0  0  0  0
 13 12  2  0  0  0  0
 14 13  1  0  0  0  0
 15 14  1  0  0  0  0
 16 17  2  0  0  0  0
 16 18  1  0  0  0  0
 17 19  1  0  0  0  0
 18 15  2  0  0  0  0
 19 15  1  0  0  0  0
 20 17  1  0  0  0  0
 20 23  1  0  0  0  0
 21 22  1  0  0  0  0
 21 20  1  0  0  0  0
 24 23  1  0  0  0  0
 24 25  1  0  0  0  0
 25 26  2  0  0  0  0
 28 29  1  1  0  0  0
 28 25  1  0  0  0  0
 28 27  1  0  0  0  0
 30 31  1  0  0  0  0
 31 33  1  0  0  0  0
 33 32  1  0  0  0  0
 34 35  1  0  0  0  0
 36 37  1  0  0  0  0
 37 35  1  0  0  0  0
 38 37  1  0  0  0  0
 39 10  1  0  0  0  0
 39 41  1  1  0  0  0
 41 40  3  0  0  0  0
 42 43  1  0  0  0  0
 43 39  1  0  0  0  0
M  END
>  <MODEL>
5

>  <REMARK>
 VINA RESULT:      -7.2      1.266      1.614
  Name = 
  18 active torsions:
  status: ('A' for Active; 'I' for Inactive)
    1  A    between atoms: C_2  and  C_34
    2  A    between atoms: C_2  and  C_39
    3  A    between atoms: C_4  and  C_5
    4  A    between atoms: C_4  and  C_41
    5  A    between atoms: C_6  and  C_28
    6  A    between atoms: C_9  and  N_17
    7  A    between atoms: C_9  and  C_42
    8  A    between atoms: C_9  and  C_43
    9  A    between atoms: C_12  and  N_23
   10  A    between atoms: C_13  and  C_14
   11  A    between atoms: C_14  and  N_19
   12  A    between atoms: N_19  and  C_37
   13  A    between atoms: C_20  and  C_21
   14  A    between atoms: N_23  and  C_29
   15  A    between atoms: N_23  and  C_30
   16  A    between atoms: C_25  and  C_34
   17  A    between atoms: C_26  and  C_28
   18  A    between atoms: C_30  and  C_41
                            x       y       z     vdW  Elec       q    Type
                         _______ _______ _______ _____ _____    ______ ____

>  <TORSDO>
F 18

$$$$
=
 OpenBabel10222421363D

 43 45  0  0  1  0  0  0  0  0999 V2000
  187.7870  177.5740  145.3350 C   0  0  0  0  0  3  0  0  0  0  0  0
  188.5560  177.6910  144.1830 C   0  0  0  0  0  0  0  0  0  0  0  0
  187.7770  177.9660  143.1080 N   0  0  0  0  0  0  0  0  0  0  0  0
  185.7030  178.4900  141.3430 C   0  0  0  0  0  0  0  0  0  0  0  0
  187.0460  178.4250  140.8800 C   0  0  0  0  0  0  0  0  0  0  0  0
  188.0910  178.1620  141.7920 C   0  0  0  0  0  0  0  0  0  0  0  0
  185.4500  178.2960  142.7130 C   0  0  0  0  0  3  0  0  0  0  0  0
  187.3510  178.6230  139.5370 O   0  0  0  0  0  1  0  0  0  0  0  0
  186.5170  178.0340  143.5650 C   0  0  0  0  0  0  0  0  0  0  0  0
  186.4810  177.7960  144.9260 C   0  0  0  0  0  0  0  0  0  0  0  0
  184.5290  179.8880  139.5820 N   0  0  0  0  0  1  0  0  0  0  0  0
  184.5550  178.7350  140.4250 C   0  0  0  0  0  0  0  0  0  0  0  0
  183.5480  177.8590  140.3620 C   0  0  0  0  0  3  0  0  0  0  0  0
  182.3850  178.0210  139.4380 C   0  0  0  0  0  2  0  0  0  0  0  0
  182.5460  177.1380  138.2500 C   0  0  0  0  0  0  0  0  0  0  0  0
  182.6630  176.4970  136.0180 C   0  0  0  0  0  3  0  0  0  0  0  0
  182.8710  175.2730  136.6460 C   0  0  0  0  0  0  0  0  0  0  0  0
  182.4790  177.5510  136.9240 C   0  0  0  0  0  3  0  0  0  0  0  0
  182.8260  175.4850  138.3180 S   0  0  0  0  0  0  0  0  0  0  0  0
  183.0500  174.0150  135.9700 N   0  0  0  0  0  0  0  0  0  0  0  0
  181.9910  173.0150  135.9600 C   0  0  0  0  0  2  0  0  0  0  0  0
  182.2840  171.9360  136.9840 C   0  0  0  0  0  1  0  0  0  0  0  0
  184.3500  173.6270  135.4410 C   0  0  0  0  0  2  0  0  0  0  0  0
  185.3800  173.5860  136.5580 C   0  0  0  0  0  2  0  0  0  0  0  0
  186.4820  174.5520  136.2730 C   0  0  0  0  0  0  0  0  0  0  0  0
  187.3000  174.3070  135.3980 O   0  0  0  0  0  0  0  0  0  0  0  0
  187.8290  175.9520  137.6240 O   0  0  0  0  0  1  0  0  0  0  0  0
  186.5620  175.8240  137.0560 C   0  0  1  0  0  3  0  0  0  0  0  0
  186.2730  177.0200  136.1690 C   0  0  0  0  0  1  0  0  0  0  0  0
  190.0320  177.4750  144.1580 C   0  0  0  0  0  2  0  0  0  0  0  0
  190.5270  177.3260  145.5150 N   0  0  0  0  0  2  0  0  0  0  0  0
  191.7190  175.7950  144.0740 C   0  0  0  0  0  1  0  0  0  0  0  0
  191.6530  176.4130  145.4520 C   0  0  0  0  0  2  0  0  0  0  0  0
  189.5020  178.0750  141.2980 C   0  0  0  0  0  2  0  0  0  0  0  0
  189.7610  176.7030  140.6990 C   0  0  0  0  0  2  0  0  0  0  0  0
  190.3680  177.7800  138.6580 O   0  0  0  0  0  1  0  0  0  0  0  0
  190.7710  176.8050  139.5720 C   0  0  0  0  0  3  0  0  0  0  0  0
  190.8640  175.5750  138.9230 O   0  0  0  0  0  1  0  0  0  0  0  0
  185.2890  177.8220  145.8360 C   0  0  2  0  0  3  0  0  0  0  0  0
  183.3180  179.3010  144.7950 C   0  0  0  0  0  3  0  0  0  0  0  0
  184.2050  178.6350  145.2670 C   0  0  0  0  0  0  0  0  0  0  0  0
  185.6610  179.6920  147.0460 O   0  0  0  0  0  1  0  0  0  0  0  0
  185.6600  178.3410  147.1430 N   0  0  0  0  0  2  0  0  0  0  0  0
  2  1  2  0  0  0  0
  3  9  1  0  0  0  0
  3  2  1  0  0  0  0
  4  7  2  0  0  0  0
  5  4  1  0  0  0  0
  5  6  2  0  0  0  0
  6  3  1  0  0  0  0
  7  9  1  0  0  0  0
  8  5  1  0  0  0  0
  9 10  2  0  0  0  0
 10  1  1  0  0  0  0
 10 39  1  0  0  0  0
 11 12  1  0  0  0  0
 12  4  1  0  0  0  0
 13 12  2  0  0  0  0
 14 13  1  0  0  0  0
 15 19  1  0  0  0  0
 15 14  1  0  0  0  0
 16 17  2  0  0  0  0
 16 18  1  0  0  0  0
 17 19  1  0  0  0  0
 18 15  2  0  0  0  0
 20 17  1  0  0  0  0
 21 20  1  0  0  0  0
 21 22  1  0  0  0  0
 23 20  1  0  0  0  0
 23 24  1  0  0  0  0
 25 24  1  0  0  0  0
 25 28  1  0  0  0  0
 26 25  2  0  0  0  0
 28 29  1  6  0  0  0
 28 27  1  0  0  0  0
 30  2  1  0  0  0  0
 30 31  1  0  0  0  0
 32 33  1  0  0  0  0
 33 31  1  0  0  0  0
 34  6  1  0  0  0  0
 35 34  1  0  0  0  0
 36 37  1  0  0  0  0
 37 35  1  0  0  0  0
 38 37  1  0  0  0  0
 39 41  1  6  0  0  0
 39 43  1  0  0  0  0
 40 41  3  0  0  0  0
 42 43  1  0  0  0  0
M  END
>  <MODEL>
6

>  <REMARK>
 VINA RESULT:      -7.2      4.526      7.587
  Name = 
  18 active torsions:
  status: ('A' for Active; 'I' for Inactive)
    1  A    between atoms: C_2  and  C_34
    2  A    between atoms: C_2  and  C_39
    3  A    between atoms: C_4  and  C_5
    4  A    between atoms: C_4  and  C_41
    5  A    between atoms: C_6  and  C_28
    6  A    between atoms: C_9  and  N_17
    7  A    between atoms: C_9  and  C_42
    8  A    between atoms: C_9  and  C_43
    9  A    between atoms: C_12  and  N_23
   10  A    between atoms: C_13  and  C_14
   11  A    between atoms: C_14  and  N_19
   12  A    between atoms: N_19  and  C_37
   13  A    between atoms: C_20  and  C_21
   14  A    between atoms: N_23  and  C_29
   15  A    between atoms: N_23  and  C_30
   16  A    between atoms: C_25  and  C_34
   17  A    between atoms: C_26  and  C_28
   18  A    between atoms: C_30  and  C_41
                            x       y       z     vdW  Elec       q    Type
                         _______ _______ _______ _____ _____    ______ ____

>  <TORSDO>
F 18

$$$$
=
 OpenBabel10222421363D

 43 45  0  0  1  0  0  0  0  0999 V2000
  185.0450  178.2000  144.4690 C   0  0  0  0  0  3  0  0  0  0  0  0
  186.3400  177.7530  144.7030 C   0  0  0  0  0  0  0  0  0  0  0  0
  187.0610  177.7380  143.5550 N   0  0  0  0  0  0  0  0  0  0  0  0
  187.9800  177.9150  140.9450 C   0  0  0  0  0  0  0  0  0  0  0  0
  188.8380  177.4600  141.9830 C   0  0  0  0  0  0  0  0  0  0  0  0
  188.3570  177.3800  143.3070 C   0  0  0  0  0  0  0  0  0  0  0  0
  186.6620  178.2850  141.2700 C   0  0  0  0  0  3  0  0  0  0  0  0
  190.1540  177.0930  141.7150 O   0  0  0  0  0  1  0  0  0  0  0  0
  186.2400  178.1810  142.5900 C   0  0  0  0  0  0  0  0  0  0  0  0
  184.9930  178.4710  143.1110 C   0  0  0  0  0  0  0  0  0  0  0  0
  189.1170  179.1420  139.0380 N   0  0  0  0  0  1  0  0  0  0  0  0
  188.4200  177.9930  139.5230 C   0  0  0  0  0  0  0  0  0  0  0  0
  188.1910  176.9720  138.6920 C   0  0  0  0  0  3  0  0  0  0  0  0
  188.6380  176.9660  137.2670 C   0  0  0  0  0  2  0  0  0  0  0  0
  189.7810  176.0290  137.0910 C   0  0  0  0  0  0  0  0  0  0  0  0
  190.9300  174.0190  136.8620 C   0  0  0  0  0  3  0  0  0  0  0  0
  191.9850  174.9250  136.7990 C   0  0  0  0  0  0  0  0  0  0  0  0
  189.6850  174.6430  137.0270 C   0  0  0  0  0  3  0  0  0  0  0  0
  191.3870  176.4950  136.9490 S   0  0  0  0  0  0  0  0  0  0  0  0
  193.3740  174.5710  136.6720 N   0  0  0  0  0  0  0  0  0  0  0  0
  194.3940  175.5960  136.4980 C   0  0  0  0  0  2  0  0  0  0  0  0
  194.4520  176.0310  135.0470 C   0  0  0  0  0  1  0  0  0  0  0  0
  193.7820  173.1810  136.5250 C   0  0  0  0  0  2  0  0  0  0  0  0
  195.2970  173.0840  136.4480 C   0  0  0  0  0  2  0  0  0  0  0  0
  195.8220  172.3280  137.6230 C   0  0  0  0  0  0  0  0  0  0  0  0
  195.3740  172.5450  138.7410 O   0  0  0  0  0  0  0  0  0  0  0  0
  196.3050  170.0970  136.9980 O   0  0  0  0  0  1  0  0  0  0  0  0
  196.8840  171.2960  137.4160 C   0  0  1  0  0  3  0  0  0  0  0  0
  197.8950  171.7640  136.3860 C   0  0  0  0  0  1  0  0  0  0  0  0
  186.8210  177.2990  146.0410 C   0  0  0  0  0  2  0  0  0  0  0  0
  187.0790  178.4520  146.8840 N   0  0  0  0  0  2  0  0  0  0  0  0
  188.9740  178.0640  148.3340 C   0  0  0  0  0  1  0  0  0  0  0  0
  187.4740  177.9420  148.1830 C   0  0  0  0  0  2  0  0  0  0  0  0
  189.2570  176.8820  144.3950 C   0  0  0  0  0  2  0  0  0  0  0  0
  190.2040  177.9860  144.8350 C   0  0  0  0  0  2  0  0  0  0  0  0
  191.7490  176.2300  144.3640 O   0  0  0  0  0  1  0  0  0  0  0  0
  191.5930  177.4220  145.0720 C   0  0  0  0  0  3  0  0  0  0  0  0
  191.7640  177.1750  146.4330 O   0  0  0  0  0  1  0  0  0  0  0  0
  183.8010  179.0310  142.3920 C   0  0  2  0  0  3  0  0  0  0  0  0
  181.5830  178.7950  143.8680 C   0  0  0  0  0  3  0  0  0  0  0  0
  182.5830  178.8990  143.2030 C   0  0  0  0  0  0  0  0  0  0  0  0
  182.7290  179.0950  140.4050 O   0  0  0  0  0  1  0  0  0  0  0  0
  183.6180  178.3590  141.1150 N   0  0  0  0  0  2  0  0  0  0  0  0
  1  2  2  0  0  0  0
  2 30  1  0  0  0  0
  3  2  1  0  0  0  0
  4  7  2  0  0  0  0
  4  5  1  0  0  0  0
  5  6  2  0  0  0  0
  6  3  1  0  0  0  0
  6 34  1  0  0  0  0
  7  9  1  0  0  0  0
  8  5  1  0  0  0  0
  9 10  2  0  0  0  0
  9  3  1  0  0  0  0
 10  1  1  0  0  0  0
 11 12  1  0  0  0  0
 12  4  1  0  0  0  0
 13 12  2  0  0  0  0
 14 13  1  0  0  0  0
 15 14  1  0  0  0  0
 16 18  1  0  0  0  0
 17 16  2  0  0  0  0
 17 19  1  0  0  0  0
 18 15  2  0  0  0  0
 19 15  1  0  0  0  0
 20 17  1  0  0  0  0
 21 20  1  0  0  0  0
 22 21  1  0  0  0  0
 23 20  1  0  0  0  0
 24 23  1  0  0  0  0
 24 25  1  0  0  0  0
 25 26  2  0  0  0  0
 27 28  1  0  0  0  0
 28 29  1  6  0  0  0
 28 25  1  0  0  0  0
 30 31  1  0  0  0  0
 31 33  1  0  0  0  0
 33 32  1  0  0  0  0
 34 35  1  0  0  0  0
 35 37  1  0  0  0  0
 36 37  1  0  0  0  0
 37 38  1  0  0  0  0
 39 10  1  0  0  0  0
 39 41  1  1  0  0  0
 41 40  3  0  0  0  0
 42 43  1  0  0  0  0
 43 39  1  0  0  0  0
M  END
>  <MODEL>
7

>  <REMARK>
 VINA RESULT:      -7.1      1.707      2.219
  Name = 
  18 active torsions:
  status: ('A' for Active; 'I' for Inactive)
    1  A    between atoms: C_2  and  C_34
    2  A    between atoms: C_2  and  C_39
    3  A    between atoms: C_4  and  C_5
    4  A    between atoms: C_4  and  C_41
    5  A    between atoms: C_6  and  C_28
    6  A    between atoms: C_9  and  N_17
    7  A    between atoms: C_9  and  C_42
    8  A    between atoms: C_9  and  C_43
    9  A    between atoms: C_12  and  N_23
   10  A    between atoms: C_13  and  C_14
   11  A    between atoms: C_14  and  N_19
   12  A    between atoms: N_19  and  C_37
   13  A    between atoms: C_20  and  C_21
   14  A    between atoms: N_23  and  C_29
   15  A    between atoms: N_23  and  C_30
   16  A    between atoms: C_25  and  C_34
   17  A    between atoms: C_26  and  C_28
   18  A    between atoms: C_30  and  C_41
                            x       y       z     vdW  Elec       q    Type
                         _______ _______ _______ _____ _____    ______ ____

>  <TORSDO>
F 18

$$$$
=
 OpenBabel10222421363D

 43 45  0  0  1  0  0  0  0  0999 V2000
  188.5930  177.5020  144.9220 C   0  0  0  0  0  3  0  0  0  0  0  0
  187.4390  177.9410  144.2850 C   0  0  0  0  0  0  0  0  0  0  0  0
  187.6300  178.0290  142.9460 N   0  0  0  0  0  0  0  0  0  0  0  0
  188.6210  178.0160  140.3560 C   0  0  0  0  0  0  0  0  0  0  0  0
  187.2800  178.4120  140.6140 C   0  0  0  0  0  0  0  0  0  0  0  0
  186.7890  178.4090  141.9370 C   0  0  0  0  0  0  0  0  0  0  0  0
  189.4290  177.6200  141.4370 C   0  0  0  0  0  3  0  0  0  0  0  0
  186.4360  178.8010  139.5770 O   0  0  0  0  0  1  0  0  0  0  0  0
  188.8950  177.6420  142.7200 C   0  0  0  0  0  0  0  0  0  0  0  0
  189.5200  177.3140  143.9080 C   0  0  0  0  0  0  0  0  0  0  0  0
  189.0850  179.1780  138.1490 N   0  0  0  0  0  1  0  0  0  0  0  0
  189.2050  178.0260  138.9850 C   0  0  0  0  0  0  0  0  0  0  0  0
  189.8750  176.9610  138.5340 C   0  0  0  0  0  3  0  0  0  0  0  0
  190.5190  176.9170  137.1870 C   0  0  0  0  0  2  0  0  0  0  0  0
  191.5630  175.8560  137.1510 C   0  0  0  0  0  0  0  0  0  0  0  0
  192.5050  173.7360  136.9780 C   0  0  0  0  0  3  0  0  0  0  0  0
  193.6450  174.5050  137.1880 C   0  0  0  0  0  0  0  0  0  0  0  0
  191.3280  174.4990  136.9570 C   0  0  0  0  0  3  0  0  0  0  0  0
  193.2080  176.1260  137.3510 S   0  0  0  0  0  0  0  0  0  0  0  0
  194.9840  173.9880  137.2950 N   0  0  0  0  0  0  0  0  0  0  0  0
  196.0890  174.6240  136.5890 C   0  0  0  0  0  2  0  0  0  0  0  0
  197.3340  174.6120  137.4530 C   0  0  0  0  0  1  0  0  0  0  0  0
  195.2450  172.7150  137.9510 C   0  0  0  0  0  2  0  0  0  0  0  0
  195.3880  171.6110  136.9160 C   0  0  0  0  0  2  0  0  0  0  0  0
  195.3090  170.2760  137.5790 C   0  0  0  0  0  0  0  0  0  0  0  0
  195.0480  170.1980  138.7710 O   0  0  0  0  0  0  0  0  0  0  0  0
  196.2050  168.0860  137.5320 O   0  0  0  0  0  1  0  0  0  0  0  0
  195.5350  169.0400  136.7670 C   0  0  1  0  0  3  0  0  0  0  0  0
  194.2170  168.4720  136.2750 C   0  0  0  0  0  1  0  0  0  0  0  0
  186.1930  178.3160  145.0150 C   0  0  0  0  0  2  0  0  0  0  0  0
  186.1330  177.6030  146.2780 N   0  0  0  0  0  2  0  0  0  0  0  0
  187.4610  178.3160  148.1670 C   0  0  0  0  0  1  0  0  0  0  0  0
  186.2360  178.5990  147.3270 C   0  0  0  0  0  2  0  0  0  0  0  0
  185.3820  178.8450  142.2070 C   0  0  0  0  0  2  0  0  0  0  0  0
  184.4110  177.7370  141.8330 C   0  0  0  0  0  2  0  0  0  0  0  0
  183.4090  179.2910  140.3260 O   0  0  0  0  0  1  0  0  0  0  0  0
  183.1220  178.3290  141.2950 C   0  0  0  0  0  3  0  0  0  0  0  0
  182.4160  178.9240  142.3400 O   0  0  0  0  0  1  0  0  0  0  0  0
  190.9130  176.7920  144.1040 C   0  0  2  0  0  3  0  0  0  0  0  0
  191.5150  176.5880  146.7020 C   0  0  0  0  0  3  0  0  0  0  0  0
  191.2420  176.6810  145.5320 C   0  0  0  0  0  0  0  0  0  0  0  0
  191.8280  178.8570  144.0730 O   0  0  0  0  0  1  0  0  0  0  0  0
  191.8760  177.6590  143.4430 N   0  0  0  0  0  2  0  0  0  0  0  0
  2  1  2  0  0  0  0
  2 30  1  0  0  0  0
  3  2  1  0  0  0  0
  4  5  1  0  0  0  0
  4  7  2  0  0  0  0
  5  6  2  0  0  0  0
  6 34  1  0  0  0  0
  6  3  1  0  0  0  0
  7  9  1  0  0  0  0
  8  5  1  0  0  0  0
  9  3  1  0  0  0  0
  9 10  2  0  0  0  0
 10 39  1  0  0  0  0
 10  1  1  0  0  0  0
 11 12  1  0  0  0  0
 12  4  1  0  0  0  0
 13 12  2  0  0  0  0
 14 13  1  0  0  0  0
 15 14  1  0  0  0  0
 15 19  1  0  0  0  0
 16 17  2  0  0  0  0
 17 20  1  0  0  0  0
 17 19  1  0  0  0  0
 18 16  1  0  0  0  0
 18 15  2  0  0  0  0
 20 23  1  0  0  0  0
 21 20  1  0  0  0  0
 21 22  1  0  0  0  0
 24 25  1  0  0  0  0
 24 23  1  0  0  0  0
 25 26  2  0  0  0  0
 28 29  1  1  0  0  0
 28 27  1  0  0  0  0
 28 25  1  0  0  0  0
 30 31  1  0  0  0  0
 31 33  1  0  0  0  0
 33 32  1  0  0  0  0
 35 34  1  0  0  0  0
 36 37  1  0  0  0  0
 37 35  1  0  0  0  0
 37 38  1  0  0  0  0
 39 41  1  1  0  0  0
 41 40  3  0  0  0  0
 43 42  1  0  0  0  0
 43 39  1  0  0  0  0
M  END
>  <MODEL>
8

>  <REMARK>
 VINA RESULT:      -7.1      2.177      5.170
  Name = 
  18 active torsions:
  status: ('A' for Active; 'I' for Inactive)
    1  A    between atoms: C_2  and  C_34
    2  A    between atoms: C_2  and  C_39
    3  A    between atoms: C_4  and  C_5
    4  A    between atoms: C_4  and  C_41
    5  A    between atoms: C_6  and  C_28
    6  A    between atoms: C_9  and  N_17
    7  A    between atoms: C_9  and  C_42
    8  A    between atoms: C_9  and  C_43
    9  A    between atoms: C_12  and  N_23
   10  A    between atoms: C_13  and  C_14
   11  A    between atoms: C_14  and  N_19
   12  A    between atoms: N_19  and  C_37
   13  A    between atoms: C_20  and  C_21
   14  A    between atoms: N_23  and  C_29
   15  A    between atoms: N_23  and  C_30
   16  A    between atoms: C_25  and  C_34
   17  A    between atoms: C_26  and  C_28
   18  A    between atoms: C_30  and  C_41
                            x       y       z     vdW  Elec       q    Type
                         _______ _______ _______ _____ _____    ______ ____

>  <TORSDO>
F 18

$$$$
=
 OpenBabel10222421363D

 43 45  0  0  1  0  0  0  0  0999 V2000
  189.0430  177.4540  144.6980 C   0  0  0  0  0  3  0  0  0  0  0  0
  187.6970  177.6380  144.4070 C   0  0  0  0  0  0  0  0  0  0  0  0
  187.5130  177.8400  143.0790 N   0  0  0  0  0  0  0  0  0  0  0  0
  187.7840  178.2010  140.3430 C   0  0  0  0  0  0  0  0  0  0  0  0
  186.5010  178.2510  140.9540 C   0  0  0  0  0  0  0  0  0  0  0  0
  186.3790  178.0600  142.3470 C   0  0  0  0  0  0  0  0  0  0  0  0
  188.9090  177.9520  141.1500 C   0  0  0  0  0  3  0  0  0  0  0  0
  185.3560  178.4810  140.1980 O   0  0  0  0  0  1  0  0  0  0  0  0
  188.7310  177.7780  142.5170 C   0  0  0  0  0  0  0  0  0  0  0  0
  189.6960  177.5460  143.4790 C   0  0  0  0  0  0  0  0  0  0  0  0
  188.9560  179.3510  138.4100 N   0  0  0  0  0  1  0  0  0  0  0  0
  187.9790  178.4220  138.8820 C   0  0  0  0  0  0  0  0  0  0  0  0
  187.2580  177.7290  137.9960 C   0  0  0  0  0  3  0  0  0  0  0  0
  187.4280  177.8720  136.5190 C   0  0  0  0  0  2  0  0  0  0  0  0
  188.6590  177.1630  136.0730 C   0  0  0  0  0  0  0  0  0  0  0  0
  190.4690  176.5820  134.7320 C   0  0  0  0  0  3  0  0  0  0  0  0
  190.6460  175.7020  135.7960 C   0  0  0  0  0  0  0  0  0  0  0  0
  189.3460  177.4080  134.8890 C   0  0  0  0  0  3  0  0  0  0  0  0
  189.4200  175.9360  136.9290 S   0  0  0  0  0  0  0  0  0  0  0  0
  191.6890  174.7140  135.8880 N   0  0  0  0  0  0  0  0  0  0  0  0
  191.3890  173.3460  136.2880 C   0  0  0  0  0  2  0  0  0  0  0  0
  192.5100  172.4200  135.8590 C   0  0  0  0  0  1  0  0  0  0  0  0
  193.0900  175.0920  135.7710 C   0  0  0  0  0  2  0  0  0  0  0  0
  193.3490  176.3890  136.5190 C   0  0  0  0  0  2  0  0  0  0  0  0
  193.4630  176.1210  137.9830 C   0  0  0  0  0  0  0  0  0  0  0  0
  194.2300  175.2590  138.3900 O   0  0  0  0  0  0  0  0  0  0  0  0
  191.5180  176.2040  139.3280 O   0  0  0  0  0  1  0  0  0  0  0  0
  192.6460  176.9280  138.9410 C   0  0  1  0  0  3  0  0  0  0  0  0
  193.4630  177.2990  140.1650 C   0  0  0  0  0  1  0  0  0  0  0  0
  186.6300  177.6650  145.4490 C   0  0  0  0  0  2  0  0  0  0  0  0
  187.1830  177.2540  146.7260 N   0  0  0  0  0  2  0  0  0  0  0  0
  188.1950  178.2900  148.6620 C   0  0  0  0  0  1  0  0  0  0  0  0
  187.1240  178.4100  147.6010 C   0  0  0  0  0  2  0  0  0  0  0  0
  185.0290  178.1330  142.9910 C   0  0  0  0  0  2  0  0  0  0  0  0
  184.7120  179.5680  143.3750 C   0  0  0  0  0  2  0  0  0  0  0  0
  183.7490  179.1620  145.5190 O   0  0  0  0  0  1  0  0  0  0  0  0
  183.4610  179.6170  144.2320 C   0  0  0  0  0  3  0  0  0  0  0  0
  182.4810  178.8050  143.6650 O   0  0  0  0  0  1  0  0  0  0  0  0
  191.1720  177.3630  143.2790 C   0  0  2  0  0  3  0  0  0  0  0  0
  191.9990  175.0180  144.2630 C   0  0  0  0  0  3  0  0  0  0  0  0
  191.6240  176.0740  143.8190 C   0  0  0  0  0  0  0  0  0  0  0  0
  191.1240  179.5500  143.8420 O   0  0  0  0  0  1  0  0  0  0  0  0
  191.9080  178.4480  143.9110 N   0  0  0  0  0  2  0  0  0  0  0  0
  2  1  2  0  0  0  0
  2 30  1  0  0  0  0
  3  2  1  0  0  0  0
  4  5  1  0  0  0  0
  4  7  2  0  0  0  0
  5  6  2  0  0  0  0
  6 34  1  0  0  0  0
  6  3  1  0  0  0  0
  7  9  1  0  0  0  0
  8  5  1  0  0  0  0
  9  3  1  0  0  0  0
  9 10  2  0  0  0  0
 10  1  1  0  0  0  0
 11 12  1  0  0  0  0
 12  4  1  0  0  0  0
 13 12  2  0  0  0  0
 14 13  1  0  0  0  0
 15 14  1  0  0  0  0
 15 19  1  0  0  0  0
 16 18  1  0  0  0  0
 16 17  2  0  0  0  0
 17 20  1  0  0  0  0
 17 19  1  0  0  0  0
 18 15  2  0  0  0  0
 20 21  1  0  0  0  0
 22 21  1  0  0  0  0
 23 20  1  0  0  0  0
 23 24  1  0  0  0  0
 24 25  1  0  0  0  0
 25 26  2  0  0  0  0
 25 28  1  0  0  0  0
 28 27  1  0  0  0  0
 28 29  1  1  0  0  0
 30 31  1  0  0  0  0
 31 33  1  0  0  0  0
 33 32  1  0  0  0  0
 34 35  1  0  0  0  0
 35 37  1  0  0  0  0
 37 36  1  0  0  0  0
 38 37  1  0  0  0  0
 39 10  1  0  0  0  0
 39 41  1  1  0  0  0
 39 43  1  0  0  0  0
 41 40  3  0  0  0  0
 42 43  1  0  0  0  0
M  END
>  <MODEL>
9

>  <REMARK>
 VINA RESULT:      -7.1      2.430      5.021
  Name = 
  18 active torsions:
  status: ('A' for Active; 'I' for Inactive)
    1  A    between atoms: C_2  and  C_34
    2  A    between atoms: C_2  and  C_39
    3  A    between atoms: C_4  and  C_5
    4  A    between atoms: C_4  and  C_41
    5  A    between atoms: C_6  and  C_28
    6  A    between atoms: C_9  and  N_17
    7  A    between atoms: C_9  and  C_42
    8  A    between atoms: C_9  and  C_43
    9  A    between atoms: C_12  and  N_23
   10  A    between atoms: C_13  and  C_14
   11  A    between atoms: C_14  and  N_19
   12  A    between atoms: N_19  and  C_37
   13  A    between atoms: C_20  and  C_21
   14  A    between atoms: N_23  and  C_29
   15  A    between atoms: N_23  and  C_30
   16  A    between atoms: C_25  and  C_34
   17  A    between atoms: C_26  and  C_28
   18  A    between atoms: C_30  and  C_41
                            x       y       z     vdW  Elec       q    Type
                         _______ _______ _______ _____ _____    ______ ____

>  <TORSDO>
F 18

$$$$
