=
 OpenBabel10232408543D

 51 58  0  0  1  0  0  0  0  0999 V2000
  187.8680  177.0780  138.7610 S   0  0  0  0  0  0  0  0  0  0  0  0
  188.9940  178.9820  137.1710 C   0  0  0  0  0  1  0  0  0  0  0  0
  187.8310  178.0080  137.2030 C   0  0  1  0  0  3  0  0  0  0  0  0
  187.9330  177.0350  136.0440 C   0  0  0  0  0  2  0  0  0  0  0  0
  189.3840  176.8320  135.6480 C   0  0  0  0  0  2  0  0  0  0  0  0
  193.3170  171.6990  136.0490 C   0  0  0  0  0  3  0  0  0  0  0  0
  193.9250  170.6900  135.2980 C   0  0  0  0  0  3  0  0  0  0  0  0
  189.8460  174.5680  135.2870 C   0  0  0  0  0  2  0  0  0  0  0  0
  191.3130  175.8540  136.5670 C   0  0  1  0  0  3  0  0  0  0  0  0
  189.8980  175.6290  136.2830 N   0  0  0  0  0  0  0  0  0  0  0  0
  195.2220  173.1420  135.6740 C   0  0  0  0  0  0  0  0  0  0  0  0
  191.5150  175.9810  138.0800 C   0  0  0  0  0  2  0  0  0  0  0  0
  196.1480  174.4740  137.4800 C   0  0  1  0  0  3  0  0  0  0  0  0
  195.1770  170.9080  134.7260 C   0  0  0  0  0  3  0  0  0  0  0  0
  192.1260  174.7000  135.9460 C   0  0  1  0  0  3  0  0  0  0  0  0
  195.9890  174.2820  136.0470 N   0  0  0  0  0  0  0  0  0  0  0  0
  192.9060  176.0270  138.3740 O   0  0  0  0  0  0  0  0  0  0  0  0
  195.8290  172.1260  134.9220 C   0  0  0  0  0  3  0  0  0  0  0  0
  193.1430  174.0390  136.9060 C   0  0  2  0  0  3  0  0  0  0  0  0
  197.3680  175.0900  137.7660 O   0  0  0  0  0  1  0  0  0  0  0  0
  193.7810  175.1050  137.7970 C   0  0  0  0  0  0  0  0  0  0  0  0
  195.0550  175.2730  138.0040 N   0  0  0  0  0  0  0  0  0  0  0  0
  191.0830  173.7260  135.4600 C   0  0  0  0  0  2  0  0  0  0  0  0
  193.9510  172.9350  136.2450 C   0  0  0  0  0  0  0  0  0  0  0  0
  195.7760  176.3510  134.8050 C   0  0  0  0  0  2  0  0  0  0  0  0
  196.4640  175.2570  135.1030 C   0  0  0  0  0  3  0  0  0  0  0  0
  187.3320  178.5140  139.7460 C   0  0  1  0  0  3  0  0  0  0  0  0
  183.3690  178.9370  144.8850 C   0  0  0  0  0  3  0  0  0  0  0  0
  184.0510  178.6910  142.5670 C   0  0  0  0  0  0  0  0  0  0  0  0
  183.7180  178.5970  141.1000 C   0  0  0  0  0  2  0  0  0  0  0  0
  184.6930  178.7660  145.2990 C   0  0  0  0  0  3  0  0  0  0  0  0
  181.6130  179.0680  143.1310 C   0  0  0  0  0  1  0  0  0  0  0  0
  186.4250  178.3190  142.0330 N   0  0  0  0  0  2  0  0  0  0  0  0
  183.0410  178.8950  143.5270 C   0  0  0  0  0  0  0  0  0  0  0  0
  185.6990  178.5510  144.3540 C   0  0  0  0  0  3  0  0  0  0  0  0
  185.3830  178.5040  142.9950 C   0  0  0  0  0  0  0  0  0  0  0  0
  184.9070  178.9900  140.2250 C   0  0  0  0  0  2  0  0  0  0  0  0
  186.1250  178.1520  140.6110 C   0  0  1  0  0  3  0  0  0  0  0  0
  188.4350  178.9840  140.5730 N   0  0  0  0  0  2  0  0  0  0  0  0
  189.0230  177.8210  141.2200 C   0  0  0  0  0  2  0  0  0  0  0  0
  189.8150  177.4900  143.5940 C   0  0  2  0  0  0  0  0  0  0  0  0
  190.9350  177.1110  142.6540 C   0  0  0  0  0  2  0  0  0  0  0  0
  188.7530  176.5810  143.6720 O   0  0  0  0  0  1  0  0  0  0  0  0
  189.9980  178.2660  142.3010 C   0  0  1  0  0  3  0  0  0  0  0  0
  191.9900  175.4590  145.0230 O   0  0  0  0  0  1  0  0  0  0  0  0
  190.2150  178.1990  144.8130 N   0  0  1  0  0  0  0  0  0  0  0  0
  189.1740  178.0490  145.8490 C   0  0  0  0  0  2  0  0  0  0  0  0
  189.6420  177.3250  147.1110 C   0  0  0  0  0  2  0  0  0  0  0  0
  191.6730  176.4600  145.9400 C   0  0  2  0  0  3  0  0  0  0  0  0
  190.4120  176.0820  146.7100 C   0  0  0  0  0  2  0  0  0  0  0  0
  191.5800  177.8230  145.2320 C   0  0  0  0  0  2  0  0  0  0  0  0
  3  2  1  1  0  0  0
  3  1  1  0  0  0  0
  4  3  1  0  0  0  0
  5  4  1  0  0  0  0
  5 10  1  0  0  0  0
  6 24  1  0  0  0  0
  7  6  2  0  0  0  0
  8 23  1  0  0  0  0
  8 10  1  0  0  0  0
  9 12  1  1  0  0  0
 10  9  1  0  0  0  0
 11 16  1  0  0  0  0
 11 24  2  0  0  0  0
 12 17  1  0  0  0  0
 13 20  1  6  0  0  0
 13 22  1  0  0  0  0
 14 18  2  0  0  0  0
 14  7  1  0  0  0  0
 15 23  1  1  0  0  0
 15  9  1  0  0  0  0
 15 19  1  0  0  0  0
 16 13  1  0  0  0  0
 18 11  1  0  0  0  0
 19 24  1  6  0  0  0
 19 21  1  0  0  0  0
 21 22  2  0  0  0  0
 21 17  1  0  0  0  0
 25 26  2  0  0  0  0
 26 16  1  0  0  0  0
 27  1  1  1  0  0  0
 27 39  1  0  0  0  0
 28 31  1  0  0  0  0
 29 36  2  0  0  0  0
 29 34  1  0  0  0  0
 30 29  1  0  0  0  0
 32 34  1  0  0  0  0
 33 36  1  0  0  0  0
 34 28  2  0  0  0  0
 35 31  2  0  0  0  0
 36 35  1  0  0  0  0
 37 38  1  0  0  0  0
 37 30  1  0  0  0  0
 38 27  1  6  0  0  0
 38 33  1  0  0  0  0
 39 40  1  0  0  0  0
 41 43  1  1  0  0  0
 41 46  1  0  0  0  0
 42 41  1  0  0  0  0
 44 40  1  6  0  0  0
 44 42  1  0  0  0  0
 44 41  1  0  0  0  0
 46 51  1  1  0  0  0
 46 47  1  0  0  0  0
 47 48  1  0  0  0  0
 49 45  1  6  0  0  0
 49 50  1  0  0  0  0
 50 48  1  0  0  0  0
 51 49  1  0  0  0  0
M  END
>  <MODEL>
1

>  <REMARK>
 VINA RESULT:      -8.7      0.000      0.000
  Name = 
  11 active torsions:
  status: ('A' for Active; 'I' for Inactive)
    1  A    between atoms: C_2  and  N_16
    2  A    between atoms: C_3  and  N_11
    3  A    between atoms: C_3  and  S_45
    4  A    between atoms: C_3  and  C_49
    5  A    between atoms: N_10  and  C_27
    6  A    between atoms: N_11  and  C_42
    7  A    between atoms: C_23  and  C_42
    8  A    between atoms: C_24  and  N_33
    9  A    between atoms: C_27  and  C_43
   10  A    between atoms: C_35  and  C_43
   11  A    between atoms: C_35  and  S_45
                            x       y       z     vdW  Elec       q    Type
                         _______ _______ _______ _____ _____    ______ ____

>  <TORSDO>
F 11

$$$$
=
 OpenBabel10232408543D

 51 58  0  0  1  0  0  0  0  0999 V2000
  188.7850  175.5830  137.2280 S   0  0  0  0  0  0  0  0  0  0  0  0
  190.2100  176.7170  135.2010 C   0  0  0  0  0  1  0  0  0  0  0  0
  189.1010  175.7100  135.4450 C   0  0  1  0  0  3  0  0  0  0  0  0
  189.5070  174.3480  134.9170 C   0  0  0  0  0  2  0  0  0  0  0  0
  191.0170  174.2560  134.7920 C   0  0  0  0  0  2  0  0  0  0  0  0
  195.5730  170.7250  137.7490 C   0  0  0  0  0  3  0  0  0  0  0  0
  196.5410  169.7400  137.5390 C   0  0  0  0  0  3  0  0  0  0  0  0
  191.9740  172.1980  135.3520 C   0  0  0  0  0  2  0  0  0  0  0  0
  192.7660  174.1490  136.3580 C   0  0  1  0  0  3  0  0  0  0  0  0
  191.5510  173.4800  135.8980 N   0  0  0  0  0  0  0  0  0  0  0  0
  197.2040  172.4460  137.2710 C   0  0  0  0  0  0  0  0  0  0  0  0
  192.5160  174.7690  137.7370 C   0  0  0  0  0  2  0  0  0  0  0  0
  197.3310  174.4510  138.6340 C   0  0  1  0  0  3  0  0  0  0  0  0
  197.8400  170.1050  137.1850 C   0  0  0  0  0  3  0  0  0  0  0  0
  193.9190  173.1260  136.3580 C   0  0  1  0  0  3  0  0  0  0  0  0
  197.6120  173.8070  137.3600 N   0  0  0  0  0  0  0  0  0  0  0  0
  193.7370  175.2710  138.2640 O   0  0  0  0  0  0  0  0  0  0  0  0
  198.1730  171.4540  137.0620 C   0  0  0  0  0  3  0  0  0  0  0  0
  194.7360  173.0770  137.6700 C   0  0  2  0  0  3  0  0  0  0  0  0
  198.2880  175.4270  138.9180 O   0  0  0  0  0  1  0  0  0  0  0  0
  194.8940  174.4890  138.2340 C   0  0  0  0  0  0  0  0  0  0  0  0
  196.0070  175.0460  138.6150 N   0  0  0  0  0  0  0  0  0  0  0  0
  193.2510  171.8090  136.0530 C   0  0  0  0  0  2  0  0  0  0  0  0
  195.8860  172.0860  137.6160 C   0  0  0  0  0  0  0  0  0  0  0  0
  197.3740  175.3130  135.4770 C   0  0  0  0  0  2  0  0  0  0  0  0
  198.1380  174.5480  136.2460 C   0  0  0  0  0  3  0  0  0  0  0  0
  187.9720  177.2120  137.3000 C   0  0  1  0  0  3  0  0  0  0  0  0
  181.8630  179.2310  138.2460 C   0  0  0  0  0  3  0  0  0  0  0  0
  183.6900  177.8380  137.4590 C   0  0  0  0  0  0  0  0  0  0  0  0
  184.2060  176.6870  136.6330 C   0  0  0  0  0  2  0  0  0  0  0  0
  182.7440  179.9250  139.0790 C   0  0  0  0  0  3  0  0  0  0  0  0
  181.3480  177.4610  136.5790 C   0  0  0  0  0  1  0  0  0  0  0  0
  185.9630  178.2100  138.3280 N   0  0  0  0  0  2  0  0  0  0  0  0
  182.3250  178.1860  137.4410 C   0  0  0  0  0  0  0  0  0  0  0  0
  184.0960  179.5790  139.1110 C   0  0  0  0  0  3  0  0  0  0  0  0
  184.5700  178.5350  138.3140 C   0  0  0  0  0  0  0  0  0  0  0  0
  185.6890  176.8490  136.3040 C   0  0  0  0  0  2  0  0  0  0  0  0
  186.4800  177.0560  137.5950 C   0  0  1  0  0  3  0  0  0  0  0  0
  188.6130  178.0380  138.3150 N   0  0  0  0  0  2  0  0  0  0  0  0
  189.2320  177.1420  139.2800 C   0  0  0  0  0  2  0  0  0  0  0  0
  190.0470  177.3550  141.6600 C   0  0  2  0  0  0  0  0  0  0  0  0
  191.2330  177.0760  140.7660 C   0  0  0  0  0  2  0  0  0  0  0  0
  189.1970  176.2690  141.8990 O   0  0  0  0  0  1  0  0  0  0  0  0
  190.0800  177.9420  140.2600 C   0  0  1  0  0  3  0  0  0  0  0  0
  191.8710  175.6710  143.8370 O   0  0  0  0  0  1  0  0  0  0  0  0
  190.2770  178.3110  142.7460 N   0  0  1  0  0  0  0  0  0  0  0  0
  189.0770  178.4020  143.6010 C   0  0  0  0  0  2  0  0  0  0  0  0
  189.3020  177.9700  145.0500 C   0  0  0  0  0  2  0  0  0  0  0  0
  191.4550  176.8520  144.4500 C   0  0  2  0  0  3  0  0  0  0  0  0
  190.0700  176.6630  145.0610 C   0  0  0  0  0  2  0  0  0  0  0  0
  191.5380  178.0260  143.4590 C   0  0  0  0  0  2  0  0  0  0  0  0
  3  2  1  1  0  0  0
  3  1  1  0  0  0  0
  4  3  1  0  0  0  0
  5  4  1  0  0  0  0
  5 10  1  0  0  0  0
  7  6  2  0  0  0  0
  8 10  1  0  0  0  0
  8 23  1  0  0  0  0
  9 12  1  1  0  0  0
 10  9  1  0  0  0  0
 11 16  1  0  0  0  0
 11 24  2  0  0  0  0
 12 17  1  0  0  0  0
 13 20  1  6  0  0  0
 14  7  1  0  0  0  0
 15 23  1  1  0  0  0
 15  9  1  0  0  0  0
 15 19  1  0  0  0  0
 16 13  1  0  0  0  0
 18 14  2  0  0  0  0
 18 11  1  0  0  0  0
 19 24  1  6  0  0  0
 19 21  1  0  0  0  0
 21 17  1  0  0  0  0
 21 22  2  0  0  0  0
 22 13  1  0  0  0  0
 24  6  1  0  0  0  0
 25 26  2  0  0  0  0
 26 16  1  0  0  0  0
 27  1  1  1  0  0  0
 27 39  1  0  0  0  0
 28 31  1  0  0  0  0
 29 36  2  0  0  0  0
 30 29  1  0  0  0  0
 31 35  2  0  0  0  0
 32 34  1  0  0  0  0
 34 29  1  0  0  0  0
 34 28  2  0  0  0  0
 36 33  1  0  0  0  0
 36 35  1  0  0  0  0
 37 30  1  0  0  0  0
 37 38  1  0  0  0  0
 38 27  1  6  0  0  0
 38 33  1  0  0  0  0
 39 40  1  0  0  0  0
 41 43  1  1  0  0  0
 41 46  1  0  0  0  0
 42 41  1  0  0  0  0
 44 40  1  6  0  0  0
 44 42  1  0  0  0  0
 44 41  1  0  0  0  0
 46 51  1  1  0  0  0
 46 47  1  0  0  0  0
 47 48  1  0  0  0  0
 48 50  1  0  0  0  0
 49 45  1  6  0  0  0
 49 50  1  0  0  0  0
 51 49  1  0  0  0  0
M  END
>  <MODEL>
2

>  <REMARK>
 VINA RESULT:      -8.4      2.292      3.297
  Name = 
  11 active torsions:
  status: ('A' for Active; 'I' for Inactive)
    1  A    between atoms: C_2  and  N_16
    2  A    between atoms: C_3  and  N_11
    3  A    between atoms: C_3  and  S_45
    4  A    between atoms: C_3  and  C_49
    5  A    between atoms: N_10  and  C_27
    6  A    between atoms: N_11  and  C_42
    7  A    between atoms: C_23  and  C_42
    8  A    between atoms: C_24  and  N_33
    9  A    between atoms: C_27  and  C_43
   10  A    between atoms: C_35  and  C_43
   11  A    between atoms: C_35  and  S_45
                            x       y       z     vdW  Elec       q    Type
                         _______ _______ _______ _____ _____    ______ ____

>  <TORSDO>
F 11

$$$$
=
 OpenBabel10232408543D

 51 58  0  0  1  0  0  0  0  0999 V2000
  187.3580  176.6930  137.6320 S   0  0  0  0  0  0  0  0  0  0  0  0
  189.0470  178.3510  136.2810 C   0  0  0  0  0  1  0  0  0  0  0  0
  187.8130  177.4940  136.0670 C   0  0  1  0  0  3  0  0  0  0  0  0
  188.0940  176.4250  135.0290 C   0  0  0  0  0  2  0  0  0  0  0  0
  189.5900  176.2520  134.8380 C   0  0  0  0  0  2  0  0  0  0  0  0
  193.6780  171.3880  136.1060 C   0  0  0  0  0  3  0  0  0  0  0  0
  194.4770  170.4100  135.5090 C   0  0  0  0  0  3  0  0  0  0  0  0
  190.2480  174.0170  134.6290 C   0  0  0  0  0  2  0  0  0  0  0  0
  191.3660  175.4130  136.1290 C   0  0  1  0  0  3  0  0  0  0  0  0
  190.0460  175.0940  135.5890 N   0  0  0  0  0  0  0  0  0  0  0  0
  195.5300  172.9450  136.0580 C   0  0  0  0  0  0  0  0  0  0  0  0
  191.2700  175.5740  137.6490 C   0  0  0  0  0  2  0  0  0  0  0  0
  196.0150  174.3590  137.9700 C   0  0  1  0  0  3  0  0  0  0  0  0
  195.8000  170.6990  135.1770 C   0  0  0  0  0  3  0  0  0  0  0  0
  192.3500  174.3050  135.7020 C   0  0  1  0  0  3  0  0  0  0  0  0
  196.1420  174.1370  136.5380 N   0  0  0  0  0  0  0  0  0  0  0  0
  192.5740  175.7130  138.1980 O   0  0  0  0  0  0  0  0  0  0  0  0
  196.3280  171.9590  135.4600 C   0  0  0  0  0  3  0  0  0  0  0  0
  193.2050  173.7240  136.8530 C   0  0  2  0  0  3  0  0  0  0  0  0
  197.1190  175.0560  138.4640 O   0  0  0  0  0  1  0  0  0  0  0  0
  193.5970  174.8410  137.8200 C   0  0  0  0  0  0  0  0  0  0  0  0
  194.7970  175.0940  138.2580 N   0  0  0  0  0  0  0  0  0  0  0  0
  191.4790  173.2590  135.0540 C   0  0  0  0  0  2  0  0  0  0  0  0
  194.1880  172.6650  136.3850 C   0  0  0  0  0  0  0  0  0  0  0  0
  195.9990  175.8760  134.8580 C   0  0  0  0  0  2  0  0  0  0  0  0
  196.7280  175.1270  135.6750 C   0  0  0  0  0  3  0  0  0  0  0  0
  186.8400  178.2630  138.3980 C   0  0  1  0  0  3  0  0  0  0  0  0
  180.8040  176.0890  139.4640 C   0  0  0  0  0  3  0  0  0  0  0  0
  182.6900  177.6190  139.4570 C   0  0  0  0  0  0  0  0  0  0  0  0
  183.3300  178.9220  139.8650 C   0  0  0  0  0  2  0  0  0  0  0  0
  181.4900  175.2300  138.6020 C   0  0  0  0  0  3  0  0  0  0  0  0
  180.6190  178.1790  140.7980 C   0  0  0  0  0  1  0  0  0  0  0  0
  184.6970  177.0670  138.1420 N   0  0  0  0  0  2  0  0  0  0  0  0
  181.3930  177.2840  139.8890 C   0  0  0  0  0  0  0  0  0  0  0  0
  182.7720  175.5610  138.1590 C   0  0  0  0  0  3  0  0  0  0  0  0
  183.3700  176.7540  138.5740 C   0  0  0  0  0  0  0  0  0  0  0  0
  184.8550  178.8340  139.8370 C   0  0  0  0  0  2  0  0  0  0  0  0
  185.3150  178.3530  138.4620 C   0  0  1  0  0  3  0  0  0  0  0  0
  187.4170  178.3750  139.7310 N   0  0  0  0  0  2  0  0  0  0  0  0
  188.5240  177.4340  139.8090 C   0  0  0  0  0  2  0  0  0  0  0  0
  189.6920  177.4280  142.0470 C   0  0  2  0  0  0  0  0  0  0  0  0
  190.6570  176.9280  140.9960 C   0  0  0  0  0  2  0  0  0  0  0  0
  188.6790  176.5350  142.4140 O   0  0  0  0  0  1  0  0  0  0  0  0
  189.6480  178.0230  140.6500 C   0  0  1  0  0  3  0  0  0  0  0  0
  191.6970  175.4300  143.7460 O   0  0  0  0  0  1  0  0  0  0  0  0
  190.2660  178.2950  143.0790 N   0  0  1  0  0  0  0  0  0  0  0  0
  189.2920  178.4890  144.1720 C   0  0  0  0  0  2  0  0  0  0  0  0
  189.7570  177.9620  145.5300 C   0  0  0  0  0  2  0  0  0  0  0  0
  191.5750  176.6210  144.4590 C   0  0  2  0  0  3  0  0  0  0  0  0
  190.3350  176.5720  145.3480 C   0  0  0  0  0  2  0  0  0  0  0  0
  191.6000  177.8240  143.5000 C   0  0  0  0  0  2  0  0  0  0  0  0
  3  2  1  1  0  0  0
  3  1  1  0  0  0  0
  4  3  1  0  0  0  0
  5  4  1  0  0  0  0
  5 10  1  0  0  0  0
  6 24  1  0  0  0  0
  7  6  2  0  0  0  0
  8 23  1  0  0  0  0
  8 10  1  0  0  0  0
  9 12  1  1  0  0  0
 10  9  1  0  0  0  0
 11 24  2  0  0  0  0
 11 16  1  0  0  0  0
 12 17  1  0  0  0  0
 13 22  1  0  0  0  0
 13 20  1  6  0  0  0
 14 18  2  0  0  0  0
 14  7  1  0  0  0  0
 15 23  1  1  0  0  0
 15  9  1  0  0  0  0
 15 19  1  0  0  0  0
 16 13  1  0  0  0  0
 18 11  1  0  0  0  0
 19 24  1  6  0  0  0
 19 21  1  0  0  0  0
 21 17  1  0  0  0  0
 21 22  2  0  0  0  0
 25 26  2  0  0  0  0
 26 16  1  0  0  0  0
 27  1  1  1  0  0  0
 27 39  1  0  0  0  0
 28 34  1  0  0  0  0
 29 30  1  0  0  0  0
 29 34  2  0  0  0  0
 31 28  2  0  0  0  0
 33 38  1  0  0  0  0
 33 36  1  0  0  0  0
 34 32  1  0  0  0  0
 35 36  2  0  0  0  0
 35 31  1  0  0  0  0
 36 29  1  0  0  0  0
 37 30  1  0  0  0  0
 38 27  1  1  0  0  0
 38 37  1  0  0  0  0
 39 40  1  0  0  0  0
 41 43  1  1  0  0  0
 41 46  1  0  0  0  0
 42 41  1  0  0  0  0
 44 40  1  6  0  0  0
 44 42  1  0  0  0  0
 44 41  1  0  0  0  0
 46 51  1  1  0  0  0
 46 47  1  0  0  0  0
 47 48  1  0  0  0  0
 49 45  1  6  0  0  0
 49 50  1  0  0  0  0
 50 48  1  0  0  0  0
 51 49  1  0  0  0  0
M  END
>  <MODEL>
3

>  <REMARK>
 VINA RESULT:      -8.3      1.734      2.461
  Name = 
  11 active torsions:
  status: ('A' for Active; 'I' for Inactive)
    1  A    between atoms: C_2  and  N_16
    2  A    between atoms: C_3  and  N_11
    3  A    between atoms: C_3  and  S_45
    4  A    between atoms: C_3  and  C_49
    5  A    between atoms: N_10  and  C_27
    6  A    between atoms: N_11  and  C_42
    7  A    between atoms: C_23  and  C_42
    8  A    between atoms: C_24  and  N_33
    9  A    between atoms: C_27  and  C_43
   10  A    between atoms: C_35  and  C_43
   11  A    between atoms: C_35  and  S_45
                            x       y       z     vdW  Elec       q    Type
                         _______ _______ _______ _____ _____    ______ ____

>  <TORSDO>
F 11

$$$$
=
 OpenBabel10232408543D

 51 58  0  0  1  0  0  0  0  0999 V2000
  189.1610  176.5000  139.1820 S   0  0  0  0  0  0  0  0  0  0  0  0
  189.2030  179.0860  138.3250 C   0  0  0  0  0  1  0  0  0  0  0  0
  188.2360  177.9500  138.6040 C   0  0  1  0  0  3  0  0  0  0  0  0
  187.4830  177.5830  137.3390 C   0  0  0  0  0  2  0  0  0  0  0  0
  188.3980  176.8580  136.3690 C   0  0  0  0  0  2  0  0  0  0  0  0
  183.8980  172.2820  135.4870 C   0  0  0  0  0  3  0  0  0  0  0  0
  183.3570  171.1190  136.0400 C   0  0  0  0  0  3  0  0  0  0  0  0
  187.7650  174.6160  136.1630 C   0  0  0  0  0  2  0  0  0  0  0  0
  186.2120  176.2990  135.7140 C   0  0  1  0  0  3  0  0  0  0  0  0
  187.6180  175.9350  135.5620 N   0  0  0  0  0  0  0  0  0  0  0  0
  182.3070  173.6230  136.7230 C   0  0  0  0  0  0  0  0  0  0  0  0
  185.6950  176.8970  134.4010 C   0  0  0  0  0  2  0  0  0  0  0  0
  181.1670  175.4880  135.6670 C   0  0  1  0  0  3  0  0  0  0  0  0
  182.2970  171.2050  136.9420 C   0  0  0  0  0  3  0  0  0  0  0  0
  185.4270  175.0480  136.1560 C   0  0  1  0  0  3  0  0  0  0  0  0
  181.6160  174.8550  136.8970 N   0  0  0  0  0  0  0  0  0  0  0  0
  184.2900  177.0940  134.4860 O   0  0  0  0  0  0  0  0  0  0  0  0
  181.7670  172.4520  137.2740 C   0  0  0  0  0  3  0  0  0  0  0  0
  184.1520  174.7620  135.3290 C   0  0  2  0  0  3  0  0  0  0  0  0
  179.9950  176.2150  135.8820 O   0  0  0  0  0  1  0  0  0  0  0  0
  183.4620  176.0790  134.9700 C   0  0  0  0  0  0  0  0  0  0  0  0
  182.2020  176.3590  135.1430 N   0  0  0  0  0  0  0  0  0  0  0  0
  186.4290  173.9260  136.0650 C   0  0  0  0  0  2  0  0  0  0  0  0
  183.3860  173.5460  135.8200 C   0  0  0  0  0  0  0  0  0  0  0  0
  182.5260  175.7940  138.9370 C   0  0  0  0  0  2  0  0  0  0  0  0
  181.4810  175.5110  138.1690 C   0  0  0  0  0  3  0  0  0  0  0  0
  190.0210  177.4440  140.4820 C   0  0  1  0  0  3  0  0  0  0  0  0
  190.2690  176.9720  146.9640 C   0  0  0  0  0  3  0  0  0  0  0  0
  189.3080  177.2360  144.7490 C   0  0  0  0  0  0  0  0  0  0  0  0
  188.1360  177.5360  143.8500 C   0  0  0  0  0  2  0  0  0  0  0  0
  191.4840  176.5810  146.3960 C   0  0  0  0  0  3  0  0  0  0  0  0
  187.8960  177.6930  146.7980 C   0  0  0  0  0  1  0  0  0  0  0  0
  190.6910  176.7820  142.7630 N   0  0  0  0  0  2  0  0  0  0  0  0
  189.1790  177.2940  146.1500 C   0  0  0  0  0  0  0  0  0  0  0  0
  191.6170  176.5090  145.0080 C   0  0  0  0  0  3  0  0  0  0  0  0
  190.5340  176.8250  144.1840 C   0  0  0  0  0  0  0  0  0  0  0  0
  188.5890  178.0150  142.4720 C   0  0  0  0  0  2  0  0  0  0  0  0
  189.5550  176.9970  141.8680 C   0  0  1  0  0  3  0  0  0  0  0  0
  191.4610  177.2730  140.3440 N   0  0  0  0  0  2  0  0  0  0  0  0
  191.6850  176.2200  139.3660 C   0  0  0  0  0  2  0  0  0  0  0  0
  193.2780  175.4310  137.5720 C   0  0  2  0  0  0  0  0  0  0  0  0
  192.4330  176.5510  137.0100 C   0  0  0  0  0  2  0  0  0  0  0  0
  192.6270  174.2020  137.7340 O   0  0  0  0  0  1  0  0  0  0  0  0
  192.8660  176.5810  138.4760 C   0  0  1  0  0  3  0  0  0  0  0  0
  193.2030  174.3630  134.4500 O   0  0  0  0  0  1  0  0  0  0  0  0
  194.6850  175.4270  137.1650 N   0  0  1  0  0  0  0  0  0  0  0  0
  195.3640  174.2350  137.7110 C   0  0  0  0  0  2  0  0  0  0  0  0
  195.9150  173.2830  136.6490 C   0  0  0  0  0  2  0  0  0  0  0  0
  194.5320  174.3640  134.8700 C   0  0  2  0  0  3  0  0  0  0  0  0
  194.8540  173.0580  135.5900 C   0  0  0  0  0  2  0  0  0  0  0  0
  194.8260  175.6210  135.7080 C   0  0  0  0  0  2  0  0  0  0  0  0
  3  2  1  6  0  0  0
  3  1  1  0  0  0  0
  4  3  1  0  0  0  0
  5  4  1  0  0  0  0
  6 24  2  0  0  0  0
  6  7  1  0  0  0  0
  7 14  2  0  0  0  0
  9 12  1  6  0  0  0
  9 15  1  0  0  0  0
 10  9  1  0  0  0  0
 10  8  1  0  0  0  0
 10  5  1  0  0  0  0
 11 16  1  0  0  0  0
 11 18  2  0  0  0  0
 12 17  1  0  0  0  0
 13 20  1  1  0  0  0
 13 16  1  0  0  0  0
 14 18  1  0  0  0  0
 15 23  1  6  0  0  0
 16 26  1  0  0  0  0
 17 21  1  0  0  0  0
 19 21  1  1  0  0  0
 19 24  1  0  0  0  0
 19 15  1  0  0  0  0
 21 22  2  0  0  0  0
 22 13  1  0  0  0  0
 23  8  1  0  0  0  0
 24 11  1  0  0  0  0
 26 25  2  0  0  0  0
 27  1  1  6  0  0  0
 29 34  1  0  0  0  0
 30 29  1  0  0  0  0
 31 28  1  0  0  0  0
 33 36  1  0  0  0  0
 34 32  1  0  0  0  0
 34 28  2  0  0  0  0
 35 31  2  0  0  0  0
 36 29  2  0  0  0  0
 36 35  1  0  0  0  0
 37 30  1  0  0  0  0
 38 27  1  6  0  0  0
 38 37  1  0  0  0  0
 38 33  1  0  0  0  0
 39 27  1  0  0  0  0
 40 39  1  0  0  0  0
 41 43  1  1  0  0  0
 41 44  1  0  0  0  0
 42 41  1  0  0  0  0
 42 44  1  0  0  0  0
 44 40  1  1  0  0  0
 46 51  1  6  0  0  0
 46 41  1  0  0  0  0
 46 47  1  0  0  0  0
 48 47  1  0  0  0  0
 49 45  1  1  0  0  0
 49 50  1  0  0  0  0
 49 51  1  0  0  0  0
 50 48  1  0  0  0  0
M  END
>  <MODEL>
4

>  <REMARK>
 VINA RESULT:      -8.2      4.178      9.002
  Name = 
  11 active torsions:
  status: ('A' for Active; 'I' for Inactive)
    1  A    between atoms: C_2  and  N_16
    2  A    between atoms: C_3  and  N_11
    3  A    between atoms: C_3  and  S_45
    4  A    between atoms: C_3  and  C_49
    5  A    between atoms: N_10  and  C_27
    6  A    between atoms: N_11  and  C_42
    7  A    between atoms: C_23  and  C_42
    8  A    between atoms: C_24  and  N_33
    9  A    between atoms: C_27  and  C_43
   10  A    between atoms: C_35  and  C_43
   11  A    between atoms: C_35  and  S_45
                            x       y       z     vdW  Elec       q    Type
                         _______ _______ _______ _____ _____    ______ ____

>  <TORSDO>
F 11

$$$$
=
 OpenBabel10232408543D

 51 58  0  0  1  0  0  0  0  0999 V2000
  185.8610  177.2770  143.6180 S   0  0  0  0  0  0  0  0  0  0  0  0
  185.2660  179.9360  143.6040 C   0  0  0  0  0  1  0  0  0  0  0  0
  184.6120  178.5790  143.4160 C   0  0  1  0  0  3  0  0  0  0  0  0
  184.0130  178.4760  142.0260 C   0  0  0  0  0  2  0  0  0  0  0  0
  182.5190  178.7380  142.0720 C   0  0  0  0  0  2  0  0  0  0  0  0
  182.7310  177.3490  135.7480 C   0  0  0  0  0  3  0  0  0  0  0  0
  183.5730  177.3180  134.6340 C   0  0  0  0  0  3  0  0  0  0  0  0
  182.9780  179.3290  139.8570 C   0  0  0  0  0  2  0  0  0  0  0  0
  181.8810  177.3200  140.3110 C   0  0  1  0  0  3  0  0  0  0  0  0
  181.9790  178.7180  140.7230 N   0  0  0  0  0  0  0  0  0  0  0  0
  183.3310  175.0660  136.2800 C   0  0  0  0  0  0  0  0  0  0  0  0
  180.4060  176.9140  140.2320 C   0  0  0  0  0  2  0  0  0  0  0  0
  181.6410  173.4650  136.9660 C   0  0  1  0  0  3  0  0  0  0  0  0
  184.3030  176.1650  134.3460 C   0  0  0  0  0  3  0  0  0  0  0  0
  182.6240  177.1510  138.9710 C   0  0  1  0  0  3  0  0  0  0  0  0
  183.0430  173.8500  136.9620 N   0  0  0  0  0  0  0  0  0  0  0  0
  180.2980  175.6130  139.6680 O   0  0  0  0  0  0  0  0  0  0  0  0
  184.1740  175.0400  135.1590 C   0  0  0  0  0  3  0  0  0  0  0  0
  181.8190  176.4120  137.8760 C   0  0  2  0  0  3  0  0  0  0  0  0
  181.5080  172.0750  136.9890 O   0  0  0  0  0  1  0  0  0  0  0  0
  181.0020  175.2850  138.5080 C   0  0  0  0  0  0  0  0  0  0  0  0
  180.9630  174.0460  138.1090 N   0  0  0  0  0  0  0  0  0  0  0  0
  182.9840  178.5570  138.5630 C   0  0  0  0  0  2  0  0  0  0  0  0
  182.6000  176.2310  136.5860 C   0  0  0  0  0  0  0  0  0  0  0  0
  184.9840  172.4090  137.1260 C   0  0  0  0  0  2  0  0  0  0  0  0
  184.0250  173.1150  137.7120 C   0  0  0  0  0  3  0  0  0  0  0  0
  187.1440  178.2340  142.7470 C   0  0  1  0  0  3  0  0  0  0  0  0
  191.2400  176.5350  147.5040 C   0  0  0  0  0  3  0  0  0  0  0  0
  190.3600  176.7750  145.2530 C   0  0  0  0  0  0  0  0  0  0  0  0
  190.4240  176.4780  143.7760 C   0  0  0  0  0  2  0  0  0  0  0  0
  190.2730  177.4230  147.9820 C   0  0  0  0  0  3  0  0  0  0  0  0
  192.3520  175.2720  145.6740 C   0  0  0  0  0  1  0  0  0  0  0  0
  188.4260  178.2460  144.8550 N   0  0  0  0  0  2  0  0  0  0  0  0
  191.2940  176.2120  146.1440 C   0  0  0  0  0  0  0  0  0  0  0  0
  189.3520  177.9940  147.1030 C   0  0  0  0  0  3  0  0  0  0  0  0
  189.3970  177.6820  145.7420 C   0  0  0  0  0  0  0  0  0  0  0  0
  189.0600  176.6420  143.1090 C   0  0  0  0  0  2  0  0  0  0  0  0
  188.5060  178.0340  143.4100 C   0  0  1  0  0  3  0  0  0  0  0  0
  187.1900  177.8360  141.3470 N   0  0  0  0  0  2  0  0  0  0  0  0
  188.4440  178.3240  140.7940 C   0  0  0  0  0  2  0  0  0  0  0  0
  189.2730  178.1560  138.4150 C   0  0  2  0  0  0  0  0  0  0  0  0
  190.3750  177.7030  139.3450 C   0  0  0  0  0  2  0  0  0  0  0  0
  189.0340  179.5350  138.3840 O   0  0  0  0  0  1  0  0  0  0  0  0
  188.9160  177.3980  139.6820 C   0  0  1  0  0  3  0  0  0  0  0  0
  186.1890  178.7920  137.4250 O   0  0  0  0  0  1  0  0  0  0  0  0
  189.1360  177.3970  137.1700 N   0  0  1  0  0  0  0  0  0  0  0  0
  188.9010  175.9710  137.4730 C   0  0  0  0  0  2  0  0  0  0  0  0
  187.5590  175.4350  136.9740 C   0  0  0  0  0  2  0  0  0  0  0  0
  186.6840  177.7520  136.6410 C   0  0  2  0  0  3  0  0  0  0  0  0
  186.4660  176.4170  137.3470 C   0  0  0  0  0  2  0  0  0  0  0  0
  188.1520  178.0190  136.2640 C   0  0  0  0  0  2  0  0  0  0  0  0
  3  2  1  6  0  0  0
  3  1  1  0  0  0  0
  4  5  1  0  0  0  0
  4  3  1  0  0  0  0
  6 24  1  0  0  0  0
  7  6  2  0  0  0  0
  8 10  1  0  0  0  0
  9 12  1  6  0  0  0
  9 10  1  0  0  0  0
 10  5  1  0  0  0  0
 11 24  2  0  0  0  0
 11 16  1  0  0  0  0
 13 20  1  1  0  0  0
 13 22  1  0  0  0  0
 14  7  1  0  0  0  0
 14 18  2  0  0  0  0
 15 23  1  6  0  0  0
 15  9  1  0  0  0  0
 16 13  1  0  0  0  0
 16 26  1  0  0  0  0
 17 12  1  0  0  0  0
 18 11  1  0  0  0  0
 19 24  1  6  0  0  0
 19 21  1  0  0  0  0
 19 15  1  0  0  0  0
 21 17  1  0  0  0  0
 22 21  2  0  0  0  0
 23  8  1  0  0  0  0
 25 26  2  0  0  0  0
 27 39  1  6  0  0  0
 27  1  1  0  0  0  0
 28 31  1  0  0  0  0
 29 36  2  0  0  0  0
 29 34  1  0  0  0  0
 30 29  1  0  0  0  0
 32 34  1  0  0  0  0
 33 36  1  0  0  0  0
 34 28  2  0  0  0  0
 35 31  2  0  0  0  0
 36 35  1  0  0  0  0
 37 38  1  0  0  0  0
 37 30  1  0  0  0  0
 38 27  1  1  0  0  0
 38 33  1  0  0  0  0
 40 39  1  0  0  0  0
 41 43  1  6  0  0  0
 41 42  1  0  0  0  0
 41 44  1  0  0  0  0
 42 44  1  0  0  0  0
 44 40  1  1  0  0  0
 46 51  1  1  0  0  0
 46 47  1  0  0  0  0
 46 41  1  0  0  0  0
 48 50  1  0  0  0  0
 48 47  1  0  0  0  0
 49 50  1  0  0  0  0
 49 45  1  1  0  0  0
 51 49  1  0  0  0  0
M  END
>  <MODEL>
5

>  <REMARK>
 VINA RESULT:      -8.1      4.399      9.571
  Name = 
  11 active torsions:
  status: ('A' for Active; 'I' for Inactive)
    1  A    between atoms: C_2  and  N_16
    2  A    between atoms: C_3  and  N_11
    3  A    between atoms: C_3  and  S_45
    4  A    between atoms: C_3  and  C_49
    5  A    between atoms: N_10  and  C_27
    6  A    between atoms: N_11  and  C_42
    7  A    between atoms: C_23  and  C_42
    8  A    between atoms: C_24  and  N_33
    9  A    between atoms: C_27  and  C_43
   10  A    between atoms: C_35  and  C_43
   11  A    between atoms: C_35  and  S_45
                            x       y       z     vdW  Elec       q    Type
                         _______ _______ _______ _____ _____    ______ ____

>  <TORSDO>
F 11

$$$$
=
 OpenBabel10232408543D

 51 58  0  0  1  0  0  0  0  0999 V2000
  188.3070  177.6150  135.5070 S   0  0  0  0  0  0  0  0  0  0  0  0
  188.5670  174.9350  135.0860 C   0  0  0  0  0  1  0  0  0  0  0  0
  189.1400  176.0590  135.9310 C   0  0  1  0  0  3  0  0  0  0  0  0
  190.6250  176.2060  135.6660 C   0  0  0  0  0  2  0  0  0  0  0  0
  191.1880  174.9270  135.0730 C   0  0  0  0  0  2  0  0  0  0  0  0
  195.4300  170.8220  137.7430 C   0  0  0  0  0  3  0  0  0  0  0  0
  196.2640  169.7350  137.4690 C   0  0  0  0  0  3  0  0  0  0  0  0
  191.9200  172.7590  135.5530 C   0  0  0  0  0  2  0  0  0  0  0  0
  192.9840  174.5820  136.5470 C   0  0  1  0  0  3  0  0  0  0  0  0
  191.6790  174.0700  136.1390 N   0  0  0  0  0  0  0  0  0  0  0  0
  197.2290  172.3510  137.2100 C   0  0  0  0  0  0  0  0  0  0  0  0
  192.8760  175.1970  137.9460 C   0  0  0  0  0  2  0  0  0  0  0  0
  197.6570  174.2970  138.5950 C   0  0  1  0  0  3  0  0  0  0  0  0
  197.5780  169.9530  137.0560 C   0  0  0  0  0  3  0  0  0  0  0  0
  194.0070  173.4300  136.4730 C   0  0  1  0  0  3  0  0  0  0  0  0
  197.7990  173.6520  137.2990 N   0  0  0  0  0  0  0  0  0  0  0  0
  194.1720  175.5410  138.4180 O   0  0  0  0  0  0  0  0  0  0  0  0
  198.0620  171.2560  136.9380 C   0  0  0  0  0  3  0  0  0  0  0  0
  194.8750  173.2580  137.7420 C   0  0  2  0  0  3  0  0  0  0  0  0
  198.7360  175.1480  138.8460 O   0  0  0  0  0  1  0  0  0  0  0  0
  195.2250  174.6290  138.3190 C   0  0  0  0  0  0  0  0  0  0  0  0
  196.4140  175.0440  138.6520 N   0  0  0  0  0  0  0  0  0  0  0  0
  193.1740  172.2080  136.1820 C   0  0  0  0  0  2  0  0  0  0  0  0
  195.8960  172.1400  137.6150 C   0  0  0  0  0  0  0  0  0  0  0  0
  197.6050  174.7960  135.1720 C   0  0  0  0  0  2  0  0  0  0  0  0
  198.3550  174.3490  136.1720 C   0  0  0  0  0  3  0  0  0  0  0  0
  187.6280  177.8240  137.1850 C   0  0  1  0  0  3  0  0  0  0  0  0
  181.8330  175.0410  138.1630 C   0  0  0  0  0  3  0  0  0  0  0  0
  183.5250  176.7820  138.0950 C   0  0  0  0  0  0  0  0  0  0  0  0
  183.9820  178.1860  138.4000 C   0  0  0  0  0  2  0  0  0  0  0  0
  182.6660  174.1940  137.4280 C   0  0  0  0  0  3  0  0  0  0  0  0
  181.3240  177.2090  139.2670 C   0  0  0  0  0  1  0  0  0  0  0  0
  185.6600  176.3560  136.9450 N   0  0  0  0  0  2  0  0  0  0  0  0
  182.2510  176.3330  138.4940 C   0  0  0  0  0  0  0  0  0  0  0  0
  183.9260  174.6360  137.0180 C   0  0  0  0  0  3  0  0  0  0  0  0
  184.3540  175.9260  137.3390 C   0  0  0  0  0  0  0  0  0  0  0  0
  185.5050  178.2830  138.4580 C   0  0  0  0  0  2  0  0  0  0  0  0
  186.1030  177.7320  137.1630 C   0  0  1  0  0  3  0  0  0  0  0  0
  188.1920  176.8160  138.0730 N   0  0  0  0  0  2  0  0  0  0  0  0
  189.0640  177.5010  139.0150 C   0  0  0  0  0  2  0  0  0  0  0  0
  189.6010  177.5020  141.4820 C   0  0  2  0  0  0  0  0  0  0  0  0
  188.6960  178.6750  141.1830 C   0  0  0  0  0  2  0  0  0  0  0  0
  190.9260  177.6310  141.0490 O   0  0  0  0  0  1  0  0  0  0  0  0
  188.5160  177.3580  140.4280 C   0  0  1  0  0  3  0  0  0  0  0  0
  190.6650  179.6070  143.7920 O   0  0  0  0  0  1  0  0  0  0  0  0
  189.3450  176.8030  142.7440 N   0  0  1  0  0  0  0  0  0  0  0  0
  190.3910  175.7880  142.9790 C   0  0  0  0  0  2  0  0  0  0  0  0
  191.2250  176.0240  144.2380 C   0  0  0  0  0  2  0  0  0  0  0  0
  190.4180  178.3830  144.4100 C   0  0  2  0  0  3  0  0  0  0  0  0
  191.6420  177.4810  144.2890 C   0  0  0  0  0  2  0  0  0  0  0  0
  189.1290  177.7530  143.8530 C   0  0  0  0  0  2  0  0  0  0  0  0
  1  3  1  0  0  0  0
  3  2  1  6  0  0  0
  4  3  1  0  0  0  0
  5  4  1  0  0  0  0
  5 10  1  0  0  0  0
  7  6  2  0  0  0  0
  8 10  1  0  0  0  0
  8 23  1  0  0  0  0
  9 12  1  1  0  0  0
 10  9  1  0  0  0  0
 11 16  1  0  0  0  0
 11 24  2  0  0  0  0
 12 17  1  0  0  0  0
 13 22  1  0  0  0  0
 13 20  1  6  0  0  0
 14  7  1  0  0  0  0
 15 23  1  1  0  0  0
 15  9  1  0  0  0  0
 15 19  1  0  0  0  0
 16 13  1  0  0  0  0
 18 14  2  0  0  0  0
 18 11  1  0  0  0  0
 19 24  1  6  0  0  0
 19 21  1  0  0  0  0
 21 17  1  0  0  0  0
 21 22  2  0  0  0  0
 24  6  1  0  0  0  0
 25 26  2  0  0  0  0
 26 16  1  0  0  0  0
 27  1  1  6  0  0  0
 27 39  1  0  0  0  0
 28 34  1  0  0  0  0
 29 30  1  0  0  0  0
 29 34  2  0  0  0  0
 30 37  1  0  0  0  0
 31 28  2  0  0  0  0
 33 38  1  0  0  0  0
 33 36  1  0  0  0  0
 34 32  1  0  0  0  0
 35 36  2  0  0  0  0
 35 31  1  0  0  0  0
 36 29  1  0  0  0  0
 38 27  1  1  0  0  0
 38 37  1  0  0  0  0
 39 40  1  0  0  0  0
 41 43  1  6  0  0  0
 41 46  1  0  0  0  0
 42 41  1  0  0  0  0
 44 40  1  6  0  0  0
 44 42  1  0  0  0  0
 44 41  1  0  0  0  0
 46 47  1  1  0  0  0
 46 51  1  0  0  0  0
 47 48  1  0  0  0  0
 48 50  1  0  0  0  0
 49 45  1  6  0  0  0
 50 49  1  0  0  0  0
 51 49  1  0  0  0  0
M  END
>  <MODEL>
6

>  <REMARK>
 VINA RESULT:      -7.9      2.547      3.711
  Name = 
  11 active torsions:
  status: ('A' for Active; 'I' for Inactive)
    1  A    between atoms: C_2  and  N_16
    2  A    between atoms: C_3  and  N_11
    3  A    between atoms: C_3  and  S_45
    4  A    between atoms: C_3  and  C_49
    5  A    between atoms: N_10  and  C_27
    6  A    between atoms: N_11  and  C_42
    7  A    between atoms: C_23  and  C_42
    8  A    between atoms: C_24  and  N_33
    9  A    between atoms: C_27  and  C_43
   10  A    between atoms: C_35  and  C_43
   11  A    between atoms: C_35  and  S_45
                            x       y       z     vdW  Elec       q    Type
                         _______ _______ _______ _____ _____    ______ ____

>  <TORSDO>
F 11

$$$$
=
 OpenBabel10232408543D

 51 58  0  0  1  0  0  0  0  0999 V2000
  187.9120  177.0220  138.8930 S   0  0  0  0  0  0  0  0  0  0  0  0
  189.3620  178.8080  137.4330 C   0  0  0  0  0  1  0  0  0  0  0  0
  188.2100  177.8300  137.2950 C   0  0  1  0  0  3  0  0  0  0  0  0
  188.5460  176.7720  136.2620 C   0  0  0  0  0  2  0  0  0  0  0  0
  188.1520  175.3950  136.7650 C   0  0  0  0  0  2  0  0  0  0  0  0
  182.3690  172.6250  135.8390 C   0  0  0  0  0  3  0  0  0  0  0  0
  181.5050  171.6420  136.3270 C   0  0  0  0  0  3  0  0  0  0  0  0
  186.8140  173.5110  136.4110 C   0  0  0  0  0  2  0  0  0  0  0  0
  185.8750  175.6400  136.2390 C   0  0  1  0  0  3  0  0  0  0  0  0
  187.0770  174.8650  135.9440 N   0  0  0  0  0  0  0  0  0  0  0  0
  181.3620  174.2580  137.3130 C   0  0  0  0  0  0  0  0  0  0  0  0
  185.5220  176.5130  135.0300 C   0  0  0  0  0  2  0  0  0  0  0  0
  180.8450  176.4940  136.5220 C   0  0  1  0  0  3  0  0  0  0  0  0
  180.5750  171.9620  137.3150 C   0  0  0  0  0  3  0  0  0  0  0  0
  184.7470  174.6650  136.6290 C   0  0  1  0  0  3  0  0  0  0  0  0
  181.1200  175.6200  137.6510 N   0  0  0  0  0  0  0  0  0  0  0  0
  184.2620  177.1380  135.2450 O   0  0  0  0  0  0  0  0  0  0  0  0
  180.4960  173.2680  137.7990 C   0  0  0  0  0  3  0  0  0  0  0  0
  183.4110  174.8950  135.8840 C   0  0  2  0  0  3  0  0  0  0  0  0
  179.9860  177.5300  136.8940 O   0  0  0  0  0  1  0  0  0  0  0  0
  183.1720  176.3940  135.7000 C   0  0  0  0  0  0  0  0  0  0  0  0
  182.0830  177.0420  135.9970 N   0  0  0  0  0  0  0  0  0  0  0  0
  185.3230  173.2980  136.3590 C   0  0  0  0  0  2  0  0  0  0  0  0
  182.3140  173.9410  136.3240 C   0  0  0  0  0  0  0  0  0  0  0  0
  182.4400  176.2020  139.5980 C   0  0  0  0  0  2  0  0  0  0  0  0
  181.2650  176.1400  138.9840 C   0  0  0  0  0  3  0  0  0  0  0  0
  189.5920  177.3820  139.5000 C   0  0  1  0  0  3  0  0  0  0  0  0
  187.3890  177.5790  145.6160 C   0  0  0  0  0  3  0  0  0  0  0  0
  188.9840  177.5630  143.7840 C   0  0  0  0  0  0  0  0  0  0  0  0
  190.4010  177.5050  143.2730 C   0  0  0  0  0  2  0  0  0  0  0  0
  186.3420  177.7720  144.7110 C   0  0  0  0  0  3  0  0  0  0  0  0
  189.7960  177.2900  146.1650 C   0  0  0  0  0  1  0  0  0  0  0  0
  188.1810  177.8370  141.4730 N   0  0  0  0  0  2  0  0  0  0  0  0
  188.7080  177.4810  145.1630 C   0  0  0  0  0  0  0  0  0  0  0  0
  186.6090  177.8670  143.3440 C   0  0  0  0  0  3  0  0  0  0  0  0
  187.9220  177.7730  142.8780 C   0  0  0  0  0  0  0  0  0  0  0  0
  190.4600  177.0010  141.8320 C   0  0  0  0  0  2  0  0  0  0  0  0
  189.5480  177.8550  140.9530 C   0  0  1  0  0  3  0  0  0  0  0  0
  190.4270  176.1960  139.3710 N   0  0  0  0  0  2  0  0  0  0  0  0
  191.7010  176.6170  138.8080 C   0  0  0  0  0  2  0  0  0  0  0  0
  193.3040  175.6550  137.1110 C   0  0  2  0  0  0  0  0  0  0  0  0
  192.3120  174.5830  137.5020 C   0  0  0  0  0  2  0  0  0  0  0  0
  194.2780  175.9590  138.0690 O   0  0  0  0  0  1  0  0  0  0  0  0
  191.8650  176.0420  137.4080 C   0  0  1  0  0  3  0  0  0  0  0  0
  195.4010  173.1260  136.7840 O   0  0  0  0  0  1  0  0  0  0  0  0
  193.6830  175.6890  135.6970 N   0  0  1  0  0  0  0  0  0  0  0  0
  194.6900  176.7440  135.4700 C   0  0  0  0  0  2  0  0  0  0  0  0
  196.0370  176.2300  134.9620 C   0  0  0  0  0  2  0  0  0  0  0  0
  195.4630  173.8880  135.6180 C   0  0  2  0  0  3  0  0  0  0  0  0
  196.4550  175.0330  135.7950 C   0  0  0  0  0  2  0  0  0  0  0  0
  194.0540  174.3480  135.2050 C   0  0  0  0  0  2  0  0  0  0  0  0
  3  2  1  1  0  0  0
  3  1  1  0  0  0  0
  4  5  1  0  0  0  0
  4  3  1  0  0  0  0
  6 24  2  0  0  0  0
  6  7  1  0  0  0  0
  7 14  2  0  0  0  0
  9 12  1  6  0  0  0
  9 15  1  0  0  0  0
 10  9  1  0  0  0  0
 10  8  1  0  0  0  0
 10  5  1  0  0  0  0
 11 16  1  0  0  0  0
 11 18  2  0  0  0  0
 12 17  1  0  0  0  0
 13 20  1  1  0  0  0
 13 16  1  0  0  0  0
 14 18  1  0  0  0  0
 15 23  1  6  0  0  0
 16 26  1  0  0  0  0
 17 21  1  0  0  0  0
 19 21  1  1  0  0  0
 19 24  1  0  0  0  0
 19 15  1  0  0  0  0
 21 22  2  0  0  0  0
 22 13  1  0  0  0  0
 23  8  1  0  0  0  0
 24 11  1  0  0  0  0
 26 25  2  0  0  0  0
 27  1  1  1  0  0  0
 29 34  2  0  0  0  0
 30 29  1  0  0  0  0
 31 28  2  0  0  0  0
 33 36  1  0  0  0  0
 34 28  1  0  0  0  0
 34 32  1  0  0  0  0
 35 31  1  0  0  0  0
 36 35  2  0  0  0  0
 36 29  1  0  0  0  0
 37 30  1  0  0  0  0
 38 27  1  6  0  0  0
 38 33  1  0  0  0  0
 38 37  1  0  0  0  0
 39 27  1  0  0  0  0
 40 39  1  0  0  0  0
 41 44  1  0  0  0  0
 41 42  1  0  0  0  0
 41 43  1  1  0  0  0
 44 42  1  0  0  0  0
 44 40  1  1  0  0  0
 46 51  1  1  0  0  0
 46 41  1  0  0  0  0
 47 46  1  0  0  0  0
 48 47  1  0  0  0  0
 48 50  1  0  0  0  0
 49 50  1  0  0  0  0
 49 45  1  1  0  0  0
 51 49  1  0  0  0  0
M  END
>  <MODEL>
7

>  <REMARK>
 VINA RESULT:      -7.9      4.157      9.269
  Name = 
  11 active torsions:
  status: ('A' for Active; 'I' for Inactive)
    1  A    between atoms: C_2  and  N_16
    2  A    between atoms: C_3  and  N_11
    3  A    between atoms: C_3  and  S_45
    4  A    between atoms: C_3  and  C_49
    5  A    between atoms: N_10  and  C_27
    6  A    between atoms: N_11  and  C_42
    7  A    between atoms: C_23  and  C_42
    8  A    between atoms: C_24  and  N_33
    9  A    between atoms: C_27  and  C_43
   10  A    between atoms: C_35  and  C_43
   11  A    between atoms: C_35  and  S_45
                            x       y       z     vdW  Elec       q    Type
                         _______ _______ _______ _____ _____    ______ ____

>  <TORSDO>
F 11

$$$$
=
 OpenBabel10232408543D

 51 58  0  0  1  0  0  0  0  0999 V2000
  190.1550  175.7010  137.9010 S   0  0  0  0  0  0  0  0  0  0  0  0
  189.8980  176.9350  135.4850 C   0  0  0  0  0  1  0  0  0  0  0  0
  189.2840  176.9180  136.8730 C   0  0  1  0  0  3  0  0  0  0  0  0
  187.8190  176.5360  136.7910 C   0  0  0  0  0  2  0  0  0  0  0  0
  187.6710  175.0420  136.5650 C   0  0  0  0  0  2  0  0  0  0  0  0
  181.3820  173.9310  137.6490 C   0  0  0  0  0  3  0  0  0  0  0  0
  180.4870  173.2970  138.5160 C   0  0  0  0  0  3  0  0  0  0  0  0
  185.8780  173.5850  136.9220 C   0  0  0  0  0  2  0  0  0  0  0  0
  185.4670  175.8570  136.5830 C   0  0  1  0  0  3  0  0  0  0  0  0
  186.3100  174.7440  136.1530 N   0  0  0  0  0  0  0  0  0  0  0  0
  181.2660  175.9450  138.9850 C   0  0  0  0  0  0  0  0  0  0  0  0
  184.9980  176.6440  135.3550 C   0  0  0  0  0  2  0  0  0  0  0  0
  181.0920  178.1260  137.9340 C   0  0  1  0  0  3  0  0  0  0  0  0
  179.9880  173.9820  139.6230 C   0  0  0  0  0  3  0  0  0  0  0  0
  184.3010  175.2940  137.4200 C   0  0  1  0  0  3  0  0  0  0  0  0
  181.4650  177.3490  139.1050 N   0  0  0  0  0  0  0  0  0  0  0  0
  184.0420  177.6210  135.7510 O   0  0  0  0  0  0  0  0  0  0  0  0
  180.3680  175.3050  139.8510 C   0  0  0  0  0  3  0  0  0  0  0  0
  182.9030  175.8020  136.9980 C   0  0  2  0  0  3  0  0  0  0  0  0
  180.6520  179.3990  138.3010 O   0  0  0  0  0  1  0  0  0  0  0  0
  182.9870  177.2750  136.5960 C   0  0  0  0  0  0  0  0  0  0  0  0
  182.2180  178.2350  137.0230 N   0  0  0  0  0  0  0  0  0  0  0  0
  184.4300  173.7990  137.2820 C   0  0  0  0  0  2  0  0  0  0  0  0
  181.7850  175.2560  137.8710 C   0  0  0  0  0  0  0  0  0  0  0  0
  183.3740  177.7090  140.5540 C   0  0  0  0  0  2  0  0  0  0  0  0
  182.1110  177.9610  140.2350 C   0  0  0  0  0  3  0  0  0  0  0  0
  190.6740  176.9540  139.1180 C   0  0  1  0  0  3  0  0  0  0  0  0
  189.7840  177.6910  145.5170 C   0  0  0  0  0  3  0  0  0  0  0  0
  189.2220  177.3690  143.1770 C   0  0  0  0  0  0  0  0  0  0  0  0
  188.2050  177.2730  142.0680 C   0  0  0  0  0  2  0  0  0  0  0  0
  191.1300  177.4470  145.2340 C   0  0  0  0  0  3  0  0  0  0  0  0
  187.3990  177.8990  144.8490 C   0  0  0  0  0  1  0  0  0  0  0  0
  191.0050  176.8470  141.5600 N   0  0  0  0  0  2  0  0  0  0  0  0
  188.8270  177.6470  144.4990 C   0  0  0  0  0  0  0  0  0  0  0  0
  191.5290  177.1580  143.9270 C   0  0  0  0  0  3  0  0  0  0  0  0
  190.5820  177.1090  142.9020 C   0  0  0  0  0  0  0  0  0  0  0  0
  188.8240  177.5810  140.7060 C   0  0  0  0  0  2  0  0  0  0  0  0
  190.0360  176.6780  140.4790 C   0  0  1  0  0  3  0  0  0  0  0  0
  192.1270  176.9650  139.2240 N   0  0  0  0  0  2  0  0  0  0  0  0
  192.6300  175.8350  138.4590 C   0  0  0  0  0  2  0  0  0  0  0  0
  194.6830  174.9770  137.2650 C   0  0  2  0  0  0  0  0  0  0  0  0
  193.9150  175.8740  136.3230 C   0  0  0  0  0  2  0  0  0  0  0  0
  194.1190  173.7170  137.5000 O   0  0  0  0  0  1  0  0  0  0  0  0
  193.9630  176.1950  137.8160 C   0  0  1  0  0  3  0  0  0  0  0  0
  195.4710  173.5560  134.3910 O   0  0  0  0  0  1  0  0  0  0  0  0
  196.1420  175.0860  137.2040 N   0  0  1  0  0  0  0  0  0  0  0  0
  196.7620  174.0490  138.0540 C   0  0  0  0  0  2  0  0  0  0  0  0
  197.6350  173.0510  137.2930 C   0  0  0  0  0  2  0  0  0  0  0  0
  196.6500  173.7570  135.1070 C   0  0  2  0  0  3  0  0  0  0  0  0
  196.8910  172.5870  136.0560 C   0  0  0  0  0  2  0  0  0  0  0  0
  196.6220  175.1260  135.8080 C   0  0  0  0  0  2  0  0  0  0  0  0
  3  2  1  6  0  0  0
  3  1  1  0  0  0  0
  4  3  1  0  0  0  0
  5  4  1  0  0  0  0
  6 24  2  0  0  0  0
  6  7  1  0  0  0  0
  7 14  2  0  0  0  0
  8 23  1  0  0  0  0
  9 12  1  6  0  0  0
  9 15  1  0  0  0  0
 10  5  1  0  0  0  0
 10  9  1  0  0  0  0
 10  8  1  0  0  0  0
 11 16  1  0  0  0  0
 11 18  2  0  0  0  0
 12 17  1  0  0  0  0
 13 20  1  1  0  0  0
 13 16  1  0  0  0  0
 14 18  1  0  0  0  0
 15 23  1  6  0  0  0
 16 26  1  0  0  0  0
 17 21  1  0  0  0  0
 19 21  1  1  0  0  0
 19 15  1  0  0  0  0
 19 24  1  0  0  0  0
 21 22  2  0  0  0  0
 22 13  1  0  0  0  0
 24 11  1  0  0  0  0
 26 25  2  0  0  0  0
 27  1  1  6  0  0  0
 27 39  1  0  0  0  0
 29 34  1  0  0  0  0
 30 29  1  0  0  0  0
 31 28  1  0  0  0  0
 33 36  1  0  0  0  0
 34 32  1  0  0  0  0
 34 28  2  0  0  0  0
 35 31  2  0  0  0  0
 36 29  2  0  0  0  0
 36 35  1  0  0  0  0
 37 30  1  0  0  0  0
 38 27  1  6  0  0  0
 38 37  1  0  0  0  0
 38 33  1  0  0  0  0
 40 39  1  0  0  0  0
 41 43  1  1  0  0  0
 41 44  1  0  0  0  0
 42 41  1  0  0  0  0
 42 44  1  0  0  0  0
 44 40  1  1  0  0  0
 46 51  1  6  0  0  0
 46 41  1  0  0  0  0
 46 47  1  0  0  0  0
 48 47  1  0  0  0  0
 49 45  1  1  0  0  0
 49 51  1  0  0  0  0
 49 50  1  0  0  0  0
 50 48  1  0  0  0  0
M  END
>  <MODEL>
8

>  <REMARK>
 VINA RESULT:      -7.5      3.732      9.714
  Name = 
  11 active torsions:
  status: ('A' for Active; 'I' for Inactive)
    1  A    between atoms: C_2  and  N_16
    2  A    between atoms: C_3  and  N_11
    3  A    between atoms: C_3  and  S_45
    4  A    between atoms: C_3  and  C_49
    5  A    between atoms: N_10  and  C_27
    6  A    between atoms: N_11  and  C_42
    7  A    between atoms: C_23  and  C_42
    8  A    between atoms: C_24  and  N_33
    9  A    between atoms: C_27  and  C_43
   10  A    between atoms: C_35  and  C_43
   11  A    between atoms: C_35  and  S_45
                            x       y       z     vdW  Elec       q    Type
                         _______ _______ _______ _____ _____    ______ ____

>  <TORSDO>
F 11

$$$$
=
 OpenBabel10232408543D

 51 58  0  0  1  0  0  0  0  0999 V2000
  187.6780  177.4440  137.9170 S   0  0  0  0  0  0  0  0  0  0  0  0
  188.0350  174.8040  137.3440 C   0  0  0  0  0  1  0  0  0  0  0  0
  187.9560  176.1590  136.6650 C   0  0  1  0  0  3  0  0  0  0  0  0
  186.8100  176.1800  135.6730 C   0  0  0  0  0  2  0  0  0  0  0  0
  186.3590  174.7660  135.3540 C   0  0  0  0  0  2  0  0  0  0  0  0
  180.8480  175.6170  138.6520 C   0  0  0  0  0  3  0  0  0  0  0  0
  180.2880  175.5730  139.9310 C   0  0  0  0  0  3  0  0  0  0  0  0
  184.7080  174.0000  136.8210 C   0  0  0  0  0  2  0  0  0  0  0  0
  184.3960  176.0150  135.6860 C   0  0  1  0  0  3  0  0  0  0  0  0
  184.9220  174.6600  135.5400 N   0  0  0  0  0  0  0  0  0  0  0  0
  181.4080  177.9500  138.9660 C   0  0  0  0  0  0  0  0  0  0  0  0
  183.5740  176.3790  134.4460 C   0  0  0  0  0  2  0  0  0  0  0  0
  181.0440  179.5660  137.1910 C   0  0  1  0  0  3  0  0  0  0  0  0
  180.2950  176.7140  140.7330 C   0  0  0  0  0  3  0  0  0  0  0  0
  183.5800  176.0860  136.9920 C   0  0  1  0  0  3  0  0  0  0  0  0
  181.7570  179.2130  138.4090 N   0  0  0  0  0  0  0  0  0  0  0  0
  182.9210  177.6250  134.6550 O   0  0  0  0  0  0  0  0  0  0  0  0
  180.8430  177.9010  140.2490 C   0  0  0  0  0  3  0  0  0  0  0  0
  182.1730  176.7110  136.8390 C   0  0  2  0  0  3  0  0  0  0  0  0
  180.8810  180.9490  137.0940 O   0  0  0  0  0  1  0  0  0  0  0  0
  182.2280  177.8690  135.8420 C   0  0  0  0  0  0  0  0  0  0  0  0
  181.7570  179.0680  136.0290 N   0  0  0  0  0  0  0  0  0  0  0  0
  183.5200  174.6590  137.4750 C   0  0  0  0  0  2  0  0  0  0  0  0
  181.4170  176.7990  138.1530 C   0  0  0  0  0  0  0  0  0  0  0  0
  184.0200  179.5370  139.2120 C   0  0  0  0  0  2  0  0  0  0  0  0
  182.8250  180.0310  138.9160 C   0  0  0  0  0  3  0  0  0  0  0  0
  189.4520  177.5870  138.3080 C   0  0  1  0  0  3  0  0  0  0  0  0
  188.2000  177.3240  144.6840 C   0  0  0  0  0  3  0  0  0  0  0  0
  189.5010  177.4070  142.6340 C   0  0  0  0  0  0  0  0  0  0  0  0
  190.8200  177.3360  141.9090 C   0  0  0  0  0  2  0  0  0  0  0  0
  187.0430  177.6410  143.9690 C   0  0  0  0  0  3  0  0  0  0  0  0
  190.6430  176.8880  144.8310 C   0  0  0  0  0  1  0  0  0  0  0  0
  188.3780  177.9210  140.5040 N   0  0  0  0  0  2  0  0  0  0  0  0
  189.4300  177.2130  144.0270 C   0  0  0  0  0  0  0  0  0  0  0  0
  187.1070  177.8480  142.5890 C   0  0  0  0  0  3  0  0  0  0  0  0
  188.3290  177.7420  141.9220 C   0  0  0  0  0  0  0  0  0  0  0  0
  190.6370  176.9620  140.4390 C   0  0  0  0  0  2  0  0  0  0  0  0
  189.6510  177.9290  139.7840 C   0  0  1  0  0  3  0  0  0  0  0  0
  190.1320  176.3430  137.9720 N   0  0  0  0  0  2  0  0  0  0  0  0
  191.4490  176.6890  137.4600 C   0  0  0  0  0  2  0  0  0  0  0  0
  193.4890  175.2380  137.1270 C   0  0  2  0  0  0  0  0  0  0  0  0
  192.3860  174.3930  137.7210 C   0  0  0  0  0  2  0  0  0  0  0  0
  194.1000  176.1420  138.0030 O   0  0  0  0  0  1  0  0  0  0  0  0
  192.0480  175.4990  136.7220 C   0  0  1  0  0  3  0  0  0  0  0  0
  195.3310  173.1050  138.8460 O   0  0  0  0  0  1  0  0  0  0  0  0
  194.3170  174.5840  136.1110 N   0  0  1  0  0  0  0  0  0  0  0  0
  195.4360  175.4680  135.7270 C   0  0  0  0  0  2  0  0  0  0  0  0
  196.8210  174.8970  136.0310 C   0  0  0  0  0  2  0  0  0  0  0  0
  195.8460  173.1710  137.5530 C   0  0  2  0  0  3  0  0  0  0  0  0
  196.8250  174.3350  137.4390 C   0  0  0  0  0  2  0  0  0  0  0  0
  194.7030  173.2210  136.5240 C   0  0  0  0  0  2  0  0  0  0  0  0
  3  2  1  1  0  0  0
  3  1  1  0  0  0  0
  4  3  1  0  0  0  0
  5 10  1  0  0  0  0
  5  4  1  0  0  0  0
  6  7  1  0  0  0  0
  7 14  2  0  0  0  0
  8 23  1  0  0  0  0
  9 12  1  6  0  0  0
  9 15  1  0  0  0  0
 10  9  1  0  0  0  0
 10  8  1  0  0  0  0
 11 18  2  0  0  0  0
 12 17  1  0  0  0  0
 13 20  1  6  0  0  0
 13 16  1  0  0  0  0
 15 23  1  6  0  0  0
 16 26  1  0  0  0  0
 16 11  1  0  0  0  0
 17 21  1  0  0  0  0
 18 14  1  0  0  0  0
 19 21  1  1  0  0  0
 19 15  1  0  0  0  0
 19 24  1  0  0  0  0
 21 22  2  0  0  0  0
 22 13  1  0  0  0  0
 24  6  2  0  0  0  0
 24 11  1  0  0  0  0
 26 25  2  0  0  0  0
 27  1  1  1  0  0  0
 29 34  2  0  0  0  0
 30 29  1  0  0  0  0
 31 28  2  0  0  0  0
 33 36  1  0  0  0  0
 34 28  1  0  0  0  0
 34 32  1  0  0  0  0
 35 31  1  0  0  0  0
 36 35  2  0  0  0  0
 36 29  1  0  0  0  0
 37 30  1  0  0  0  0
 38 27  1  6  0  0  0
 38 37  1  0  0  0  0
 38 33  1  0  0  0  0
 39 27  1  0  0  0  0
 40 39  1  0  0  0  0
 41 42  1  0  0  0  0
 41 43  1  1  0  0  0
 44 41  1  0  0  0  0
 44 40  1  1  0  0  0
 44 42  1  0  0  0  0
 46 47  1  1  0  0  0
 46 51  1  0  0  0  0
 46 41  1  0  0  0  0
 47 48  1  0  0  0  0
 48 50  1  0  0  0  0
 49 45  1  1  0  0  0
 50 49  1  0  0  0  0
 51 49  1  0  0  0  0
M  END
>  <MODEL>
9

>  <REMARK>
 VINA RESULT:      -7.2      3.743      9.806
  Name = 
  11 active torsions:
  status: ('A' for Active; 'I' for Inactive)
    1  A    between atoms: C_2  and  N_16
    2  A    between atoms: C_3  and  N_11
    3  A    between atoms: C_3  and  S_45
    4  A    between atoms: C_3  and  C_49
    5  A    between atoms: N_10  and  C_27
    6  A    between atoms: N_11  and  C_42
    7  A    between atoms: C_23  and  C_42
    8  A    between atoms: C_24  and  N_33
    9  A    between atoms: C_27  and  C_43
   10  A    between atoms: C_35  and  C_43
   11  A    between atoms: C_35  and  S_45
                            x       y       z     vdW  Elec       q    Type
                         _______ _______ _______ _____ _____    ______ ____

>  <TORSDO>
F 11

$$$$
