=
 OpenBabel10232408413D

 40 45  0  0  1  0  0  0  0  0999 V2000
  185.2840  178.7400  139.4320 C   0  0  0  0  0  0  0  0  0  0  0  0
  184.2900  178.5620  138.5530 C   0  0  0  0  0  3  0  0  0  0  0  0
  186.6000  178.2870  139.0840 N   0  0  0  0  0  0  0  0  0  0  0  0
  188.8130  178.0010  141.9360 C   0  0  0  0  0  3  0  0  0  0  0  0
  187.6470  178.1140  139.9030 C   0  0  0  0  0  0  0  0  0  0  0  0
  189.9870  177.6190  141.2470 C   0  0  0  0  0  3  0  0  0  0  0  0
  188.7540  177.7420  139.2000 C   0  0  0  0  0  0  0  0  0  0  0  0
  187.6530  178.2420  141.2540 N   0  0  0  0  0  0  0  0  0  0  0  0
  188.4100  177.6840  137.8630 C   0  0  0  0  0  3  0  0  0  0  0  0
  189.9570  177.4840  139.8490 C   0  0  0  0  0  0  0  0  0  0  0  0
  187.0550  178.0410  137.8340 C   0  0  0  0  0  3  0  0  0  0  0  0
  191.0950  177.1090  139.1460 O   0  0  0  0  0  1  0  0  0  0  0  0
  182.8680  178.9240  138.7120 C   0  0  0  0  0  0  0  0  0  0  0  0
  180.5380  178.3860  139.1620 C   0  0  0  0  0  3  0  0  0  0  0  0
  181.1650  180.6550  138.5990 C   0  0  0  0  0  0  0  0  0  0  0  0
  180.1830  179.7180  138.9370 C   0  0  0  0  0  3  0  0  0  0  0  0
  182.5020  180.2560  138.4910 C   0  0  0  0  0  3  0  0  0  0  0  0
  181.8730  177.9890  139.0470 C   0  0  0  0  0  3  0  0  0  0  0  0
  180.7900  182.0760  138.3530 C   0  0  0  0  0  2  0  0  0  0  0  0
  180.5560  182.5270  135.7820 N   0  0  0  0  0  0  0  0  0  0  0  0
  180.6610  182.3280  136.9160 C   0  0  0  0  0  0  0  0  0  0  0  0
  185.0460  179.3630  140.7000 N   0  0  0  0  0  2  0  0  0  0  0  0
  184.1610  178.8120  141.7190 C   0  0  0  0  0  2  0  0  0  0  0  0
  183.5170  179.2580  144.2340 C   0  0  1  0  0  3  0  0  0  0  0  0
  185.6710  180.2920  143.3120 C   0  0  0  0  0  1  0  0  0  0  0  0
  182.1450  178.7820  143.7790 C   0  0  0  0  0  1  0  0  0  0  0  0
  184.4980  178.0920  144.1420 C   0  0  1  0  0  3  0  0  0  0  0  0
  184.5730  179.2430  143.1320 C   0  0  2  0  0  0  0  0  0  0  0  0
  187.8010  177.6340  145.9570 C   0  0  0  0  0  0  0  0  0  0  0  0
  189.0800  177.1400  145.6910 C   0  0  0  0  0  3  0  0  0  0  0  0
  190.0600  177.1400  146.6960 C   0  0  0  0  0  0  0  0  0  0  0  0
  189.7510  177.6370  147.9660 C   0  0  0  0  0  3  0  0  0  0  0  0
  185.2400  178.6150  146.5090 C   0  0  0  0  0  3  0  0  0  0  0  0
  188.4720  178.1310  148.2410 C   0  0  0  0  0  3  0  0  0  0  0  0
  187.4940  178.1320  147.2430 C   0  0  0  0  0  0  0  0  0  0  0  0
  186.2120  178.6160  147.5140 C   0  0  0  0  0  3  0  0  0  0  0  0
  185.5460  178.1440  145.2230 C   0  0  0  0  0  0  0  0  0  0  0  0
  186.8250  177.6380  144.9580 C   0  0  0  0  0  3  0  0  0  0  0  0
  191.4120  176.6300  146.4440 C   0  0  0  0  0  3  0  0  0  0  0  0
  192.1550  176.1830  147.4010 N   0  0  0  0  0  2  0  0  0  0  0  0
  1 22  1  0  0  0  0
  2 13  1  0  0  0  0
  2  1  2  0  0  0  0
  3  1  1  0  0  0  0
  3  5  1  0  0  0  0
  5  8  2  0  0  0  0
  6  4  2  0  0  0  0
  7 10  2  0  0  0  0
  7  5  1  0  0  0  0
  8  4  1  0  0  0  0
  9  7  1  0  0  0  0
 10  6  1  0  0  0  0
 11  9  2  0  0  0  0
 11  3  1  0  0  0  0
 12 10  1  0  0  0  0
 13 18  1  0  0  0  0
 15 16  2  0  0  0  0
 16 14  1  0  0  0  0
 17 15  1  0  0  0  0
 17 13  2  0  0  0  0
 18 14  2  0  0  0  0
 19 15  1  0  0  0  0
 20 21  3  0  0  0  0
 21 19  1  0  0  0  0
 22 23  1  0  0  0  0
 23 28  1  0  0  0  0
 24 26  1  6  0  0  0
 27 24  1  0  0  0  0
 27 37  1  1  0  0  0
 28 25  1  1  0  0  0
 28 27  1  0  0  0  0
 28 24  1  0  0  0  0
 29 35  1  0  0  0  0
 30 29  2  0  0  0  0
 30 31  1  0  0  0  0
 31 32  2  0  0  0  0
 32 34  1  0  0  0  0
 33 36  2  0  0  0  0
 35 36  1  0  0  0  0
 35 34  2  0  0  0  0
 37 33  1  0  0  0  0
 38 37  2  0  0  0  0
 38 29  1  0  0  0  0
 39 31  1  0  0  0  0
 39 40  2  0  0  0  0
M  END
>  <MODEL>
1

>  <REMARK>
 VINA RESULT:     -10.2      0.000      0.000
  Name = 
  9 active torsions:
  status: ('A' for Active; 'I' for Inactive)
    1  A    between atoms: C_3  and  N_7
    2  A    between atoms: C_3  and  N_8
    3  A    between atoms: C_4  and  C_16
    4  A    between atoms: C_6  and  C_31
    5  A    between atoms: N_8  and  C_18
    6  A    between atoms: C_18  and  C_30
    7  A    between atoms: C_20  and  C_26
    8  A    between atoms: C_23  and  C_38
    9  A    between atoms: C_26  and  C_33
                            x       y       z     vdW  Elec       q    Type
                         _______ _______ _______ _____ _____    ______ ____

>  <TORSDO>
F 9

$$$$
=
 OpenBabel10232408413D

 40 45  0  0  1  0  0  0  0  0999 V2000
  185.6290  178.5710  139.3010 C   0  0  0  0  0  0  0  0  0  0  0  0
  184.6970  178.2150  138.4070 C   0  0  0  0  0  3  0  0  0  0  0  0
  186.9980  178.2280  139.0410 N   0  0  0  0  0  0  0  0  0  0  0  0
  188.9150  177.6240  142.0540 C   0  0  0  0  0  3  0  0  0  0  0  0
  187.9620  177.9810  139.9390 C   0  0  0  0  0  0  0  0  0  0  0  0
  190.1730  177.3940  141.4530 C   0  0  0  0  0  3  0  0  0  0  0  0
  189.1550  177.7610  139.3190 C   0  0  0  0  0  0  0  0  0  0  0  0
  187.8200  177.9130  141.2870 N   0  0  0  0  0  0  0  0  0  0  0  0
  188.9570  177.8830  137.9560 C   0  0  0  0  0  3  0  0  0  0  0  0
  190.2970  177.4620  140.0550 C   0  0  0  0  0  0  0  0  0  0  0  0
  187.5940  178.1830  137.8270 C   0  0  0  0  0  3  0  0  0  0  0  0
  191.5210  177.2400  139.4380 O   0  0  0  0  0  1  0  0  0  0  0  0
  183.2410  178.4410  138.4820 C   0  0  0  0  0  0  0  0  0  0  0  0
  181.2720  179.8710  138.4770 C   0  0  0  0  0  3  0  0  0  0  0  0
  181.0290  177.4840  138.8010 C   0  0  0  0  0  0  0  0  0  0  0  0
  180.4570  178.7560  138.6900 C   0  0  0  0  0  3  0  0  0  0  0  0
  182.4160  177.3300  138.6920 C   0  0  0  0  0  3  0  0  0  0  0  0
  182.6570  179.7150  138.3760 C   0  0  0  0  0  3  0  0  0  0  0  0
  180.1640  176.2930  139.0330 C   0  0  0  0  0  2  0  0  0  0  0  0
  181.1420  174.1980  137.7990 N   0  0  0  0  0  0  0  0  0  0  0  0
  180.7120  175.1230  138.3420 C   0  0  0  0  0  0  0  0  0  0  0  0
  185.2750  179.2730  140.4970 N   0  0  0  0  0  2  0  0  0  0  0  0
  184.3700  178.7410  141.5100 C   0  0  0  0  0  2  0  0  0  0  0  0
  183.6260  179.3630  143.9600 C   0  0  1  0  0  3  0  0  0  0  0  0
  185.8800  180.2230  143.1010 C   0  0  0  0  0  1  0  0  0  0  0  0
  182.2540  178.9380  143.4570 C   0  0  0  0  0  1  0  0  0  0  0  0
  184.5420  178.1410  143.9830 C   0  0  1  0  0  3  0  0  0  0  0  0
  184.7340  179.2280  142.9180 C   0  0  2  0  0  0  0  0  0  0  0  0
  187.7450  177.6730  145.9680 C   0  0  0  0  0  0  0  0  0  0  0  0
  189.0290  177.1630  145.7720 C   0  0  0  0  0  3  0  0  0  0  0  0
  189.9580  177.1660  146.8250 C   0  0  0  0  0  0  0  0  0  0  0  0
  189.5910  177.6830  148.0720 C   0  0  0  0  0  3  0  0  0  0  0  0
  185.1690  178.6880  146.3780 C   0  0  0  0  0  3  0  0  0  0  0  0
  188.3050  178.1940  148.2760 C   0  0  0  0  0  3  0  0  0  0  0  0
  187.3790  178.1920  147.2300 C   0  0  0  0  0  0  0  0  0  0  0  0
  186.0900  178.6920  147.4300 C   0  0  0  0  0  3  0  0  0  0  0  0
  185.5350  178.1970  145.1140 C   0  0  0  0  0  0  0  0  0  0  0  0
  186.8200  177.6750  144.9210 C   0  0  0  0  0  3  0  0  0  0  0  0
  191.3150  176.6400  146.6490 C   0  0  0  0  0  3  0  0  0  0  0  0
  192.0840  176.4010  147.6580 N   0  0  0  0  0  2  0  0  0  0  0  0
  1 22  1  0  0  0  0
  2 13  1  0  0  0  0
  2  1  2  0  0  0  0
  3  1  1  0  0  0  0
  3  5  1  0  0  0  0
  5  8  1  0  0  0  0
  6  4  1  0  0  0  0
  7  5  2  0  0  0  0
  7 10  1  0  0  0  0
  8  4  2  0  0  0  0
  9  7  1  0  0  0  0
 10  6  2  0  0  0  0
 11  9  2  0  0  0  0
 11  3  1  0  0  0  0
 12 10  1  0  0  0  0
 13 17  1  0  0  0  0
 14 16  2  0  0  0  0
 15 19  1  0  0  0  0
 16 15  1  0  0  0  0
 17 15  2  0  0  0  0
 18 14  1  0  0  0  0
 18 13  2  0  0  0  0
 20 21  3  0  0  0  0
 21 19  1  0  0  0  0
 22 23  1  0  0  0  0
 23 28  1  0  0  0  0
 24 26  1  6  0  0  0
 24 27  1  0  0  0  0
 27 37  1  1  0  0  0
 28 25  1  1  0  0  0
 28 24  1  0  0  0  0
 28 27  1  0  0  0  0
 29 35  1  0  0  0  0
 30 29  2  0  0  0  0
 30 31  1  0  0  0  0
 31 32  2  0  0  0  0
 32 34  1  0  0  0  0
 33 36  2  0  0  0  0
 35 36  1  0  0  0  0
 35 34  2  0  0  0  0
 37 33  1  0  0  0  0
 38 37  2  0  0  0  0
 38 29  1  0  0  0  0
 39 31  1  0  0  0  0
 39 40  2  0  0  0  0
M  END
>  <MODEL>
2

>  <REMARK>
 VINA RESULT:      -9.9      1.380      2.196
  Name = 
  9 active torsions:
  status: ('A' for Active; 'I' for Inactive)
    1  A    between atoms: C_3  and  N_7
    2  A    between atoms: C_3  and  N_8
    3  A    between atoms: C_4  and  C_16
    4  A    between atoms: C_6  and  C_31
    5  A    between atoms: N_8  and  C_18
    6  A    between atoms: C_18  and  C_30
    7  A    between atoms: C_20  and  C_26
    8  A    between atoms: C_23  and  C_38
    9  A    between atoms: C_26  and  C_33
                            x       y       z     vdW  Elec       q    Type
                         _______ _______ _______ _____ _____    ______ ____

>  <TORSDO>
F 9

$$$$
=
 OpenBabel10232408413D

 40 45  0  0  1  0  0  0  0  0999 V2000
  185.3760  178.4070  139.0440 C   0  0  0  0  0  0  0  0  0  0  0  0
  186.4810  177.9670  138.4300 C   0  0  0  0  0  3  0  0  0  0  0  0
  184.1430  178.4250  138.3110 N   0  0  0  0  0  0  0  0  0  0  0  0
  182.3140  181.5300  138.6680 C   0  0  0  0  0  3  0  0  0  0  0  0
  183.2330  179.4080  138.2670 C   0  0  0  0  0  0  0  0  0  0  0  0
  181.1730  181.1840  137.9080 C   0  0  0  0  0  3  0  0  0  0  0  0
  182.1540  179.0360  137.5230 C   0  0  0  0  0  0  0  0  0  0  0  0
  183.3350  180.6370  138.8370 N   0  0  0  0  0  0  0  0  0  0  0  0
  182.3700  177.7470  137.0740 C   0  0  0  0  0  3  0  0  0  0  0  0
  181.0910  179.9110  137.3210 C   0  0  0  0  0  0  0  0  0  0  0  0
  183.6230  177.4000  137.5970 C   0  0  0  0  0  3  0  0  0  0  0  0
  179.9820  179.5440  136.5690 O   0  0  0  0  0  1  0  0  0  0  0  0
  187.8490  177.8860  138.9790 C   0  0  0  0  0  0  0  0  0  0  0  0
  190.2700  177.8080  138.7480 C   0  0  0  0  0  3  0  0  0  0  0  0
  189.2620  177.6480  140.9430 C   0  0  0  0  0  0  0  0  0  0  0  0
  190.4020  177.6760  140.1320 C   0  0  0  0  0  3  0  0  0  0  0  0
  187.9920  177.7570  140.3650 C   0  0  0  0  0  3  0  0  0  0  0  0
  189.0000  177.9090  138.1730 C   0  0  0  0  0  3  0  0  0  0  0  0
  189.3970  177.5020  142.4190 C   0  0  0  0  0  2  0  0  0  0  0  0
  190.5250  175.2100  143.0090 N   0  0  0  0  0  0  0  0  0  0  0  0
  190.0300  176.2220  142.7490 C   0  0  0  0  0  0  0  0  0  0  0  0
  185.4160  178.8600  140.4020 N   0  0  0  0  0  2  0  0  0  0  0  0
  184.4940  178.4030  141.4350 C   0  0  0  0  0  2  0  0  0  0  0  0
  183.6640  179.2860  143.7750 C   0  0  1  0  0  3  0  0  0  0  0  0
  185.9740  180.0040  142.9350 C   0  0  0  0  0  1  0  0  0  0  0  0
  182.3030  178.8430  143.2560 C   0  0  0  0  0  1  0  0  0  0  0  0
  184.5450  178.0530  143.9600 C   0  0  1  0  0  3  0  0  0  0  0  0
  184.8110  179.0220  142.8020 C   0  0  2  0  0  0  0  0  0  0  0  0
  187.6350  177.6890  146.1360 C   0  0  0  0  0  0  0  0  0  0  0  0
  188.9020  177.1070  146.0620 C   0  0  0  0  0  3  0  0  0  0  0  0
  189.7840  177.1950  147.1510 C   0  0  0  0  0  0  0  0  0  0  0  0
  189.3880  177.8700  148.3100 C   0  0  0  0  0  3  0  0  0  0  0  0
  185.0950  178.8500  146.3030 C   0  0  0  0  0  3  0  0  0  0  0  0
  188.1210  178.4540  148.3930 C   0  0  0  0  0  3  0  0  0  0  0  0
  187.2400  178.3670  147.3120 C   0  0  0  0  0  0  0  0  0  0  0  0
  185.9690  178.9400  147.3910 C   0  0  0  0  0  3  0  0  0  0  0  0
  185.4900  178.1990  145.1240 C   0  0  0  0  0  0  0  0  0  0  0  0
  186.7560  177.6060  145.0530 C   0  0  0  0  0  3  0  0  0  0  0  0
  191.1220  176.5960  147.1010 C   0  0  0  0  0  3  0  0  0  0  0  0
  191.8590  176.6760  146.0440 N   0  0  0  0  0  2  0  0  0  0  0  0
  1 22  1  0  0  0  0
  2 13  1  0  0  0  0
  2  1  2  0  0  0  0
  3  1  1  0  0  0  0
  4  8  1  0  0  0  0
  5  3  1  0  0  0  0
  5  8  2  0  0  0  0
  6  4  2  0  0  0  0
  7  5  1  0  0  0  0
  9  7  1  0  0  0  0
  9 11  2  0  0  0  0
 10  7  2  0  0  0  0
 10  6  1  0  0  0  0
 11  3  1  0  0  0  0
 12 10  1  0  0  0  0
 13 17  1  0  0  0  0
 14 16  2  0  0  0  0
 15 19  1  0  0  0  0
 16 15  1  0  0  0  0
 17 15  2  0  0  0  0
 18 14  1  0  0  0  0
 18 13  2  0  0  0  0
 19 21  1  0  0  0  0
 21 20  3  0  0  0  0
 22 23  1  0  0  0  0
 23 28  1  0  0  0  0
 24 26  1  6  0  0  0
 24 27  1  0  0  0  0
 27 37  1  1  0  0  0
 28 25  1  1  0  0  0
 28 24  1  0  0  0  0
 28 27  1  0  0  0  0
 29 35  1  0  0  0  0
 30 29  2  0  0  0  0
 30 31  1  0  0  0  0
 31 32  2  0  0  0  0
 32 34  1  0  0  0  0
 33 36  2  0  0  0  0
 35 36  1  0  0  0  0
 35 34  2  0  0  0  0
 37 33  1  0  0  0  0
 38 37  2  0  0  0  0
 38 29  1  0  0  0  0
 39 31  1  0  0  0  0
 40 39  2  0  0  0  0
M  END
>  <MODEL>
3

>  <REMARK>
 VINA RESULT:      -9.8      2.245      6.004
  Name = 
  9 active torsions:
  status: ('A' for Active; 'I' for Inactive)
    1  A    between atoms: C_3  and  N_7
    2  A    between atoms: C_3  and  N_8
    3  A    between atoms: C_4  and  C_16
    4  A    between atoms: C_6  and  C_31
    5  A    between atoms: N_8  and  C_18
    6  A    between atoms: C_18  and  C_30
    7  A    between atoms: C_20  and  C_26
    8  A    between atoms: C_23  and  C_38
    9  A    between atoms: C_26  and  C_33
                            x       y       z     vdW  Elec       q    Type
                         _______ _______ _______ _____ _____    ______ ____

>  <TORSDO>
F 9

$$$$
=
 OpenBabel10232408413D

 40 45  0  0  1  0  0  0  0  0999 V2000
  185.0340  178.8350  139.4480 C   0  0  0  0  0  0  0  0  0  0  0  0
  186.0710  178.4110  138.7150 C   0  0  0  0  0  3  0  0  0  0  0  0
  183.7640  179.0130  138.8060 N   0  0  0  0  0  0  0  0  0  0  0  0
  182.7730  176.1750  136.7870 C   0  0  0  0  0  3  0  0  0  0  0  0
  183.1440  178.1650  137.9740 C   0  0  0  0  0  0  0  0  0  0  0  0
  181.5670  176.7020  136.2710 C   0  0  0  0  0  3  0  0  0  0  0  0
  181.9860  178.7090  137.5040 C   0  0  0  0  0  0  0  0  0  0  0  0
  183.5480  176.9140  137.6370 N   0  0  0  0  0  0  0  0  0  0  0  0
  181.8570  179.9730  138.0490 C   0  0  0  0  0  3  0  0  0  0  0  0
  181.1630  177.9960  136.6390 C   0  0  0  0  0  0  0  0  0  0  0  0
  182.9950  180.1260  138.8510 C   0  0  0  0  0  3  0  0  0  0  0  0
  179.9820  178.5390  136.1480 O   0  0  0  0  0  1  0  0  0  0  0  0
  187.4600  178.1850  139.1590 C   0  0  0  0  0  0  0  0  0  0  0  0
  189.8340  177.8450  138.7450 C   0  0  0  0  0  3  0  0  0  0  0  0
  188.9860  177.8010  141.0110 C   0  0  0  0  0  0  0  0  0  0  0  0
  190.0570  177.7040  140.1160 C   0  0  0  0  0  3  0  0  0  0  0  0
  187.6950  178.0450  140.5310 C   0  0  0  0  0  3  0  0  0  0  0  0
  188.5420  178.0810  138.2670 C   0  0  0  0  0  3  0  0  0  0  0  0
  189.2190  177.6460  142.4750 C   0  0  0  0  0  2  0  0  0  0  0  0
  190.4690  175.3940  142.9630 N   0  0  0  0  0  0  0  0  0  0  0  0
  189.9190  176.3880  142.7490 C   0  0  0  0  0  0  0  0  0  0  0  0
  185.1830  179.1130  140.8450 N   0  0  0  0  0  2  0  0  0  0  0  0
  184.2450  178.6600  141.8660 C   0  0  0  0  0  2  0  0  0  0  0  0
  183.5680  179.1940  144.3560 C   0  0  1  0  0  3  0  0  0  0  0  0
  185.7140  180.2260  143.4140 C   0  0  0  0  0  1  0  0  0  0  0  0
  182.2090  178.6770  143.9060 C   0  0  0  0  0  1  0  0  0  0  0  0
  184.5700  178.0410  144.3180 C   0  0  1  0  0  3  0  0  0  0  0  0
  184.6360  179.1530  143.2650 C   0  0  2  0  0  0  0  0  0  0  0  0
  187.8370  177.6460  146.2110 C   0  0  0  0  0  0  0  0  0  0  0  0
  189.1050  177.1000  146.0030 C   0  0  0  0  0  3  0  0  0  0  0  0
  190.0730  177.1550  147.0180 C   0  0  0  0  0  0  0  0  0  0  0  0
  189.7620  177.7610  148.2400 C   0  0  0  0  0  3  0  0  0  0  0  0
  185.2970  178.7340  146.6470 C   0  0  0  0  0  3  0  0  0  0  0  0
  188.4940  178.3080  148.4570 C   0  0  0  0  0  3  0  0  0  0  0  0
  187.5280  178.2530  147.4490 C   0  0  0  0  0  0  0  0  0  0  0  0
  186.2560  178.7900  147.6620 C   0  0  0  0  0  3  0  0  0  0  0  0
  185.6050  178.1530  145.4060 C   0  0  0  0  0  0  0  0  0  0  0  0
  186.8730  177.5950  145.2010 C   0  0  0  0  0  3  0  0  0  0  0  0
  191.4140  176.5930  146.8280 C   0  0  0  0  0  3  0  0  0  0  0  0
  192.1420  176.2260  147.8290 N   0  0  0  0  0  2  0  0  0  0  0  0
  1 22  1  0  0  0  0
  2 13  1  0  0  0  0
  2  1  2  0  0  0  0
  3 11  1  0  0  0  0
  3  1  1  0  0  0  0
  4  8  1  0  0  0  0
  5  3  1  0  0  0  0
  6 10  1  0  0  0  0
  6  4  2  0  0  0  0
  7  5  1  0  0  0  0
  7  9  1  0  0  0  0
  8  5  2  0  0  0  0
  9 11  2  0  0  0  0
 10  7  2  0  0  0  0
 12 10  1  0  0  0  0
 13 17  1  0  0  0  0
 14 16  2  0  0  0  0
 15 19  1  0  0  0  0
 16 15  1  0  0  0  0
 17 15  2  0  0  0  0
 18 14  1  0  0  0  0
 18 13  2  0  0  0  0
 19 21  1  0  0  0  0
 21 20  3  0  0  0  0
 22 23  1  0  0  0  0
 23 28  1  0  0  0  0
 24 26  1  6  0  0  0
 27 24  1  0  0  0  0
 27 37  1  1  0  0  0
 28 25  1  1  0  0  0
 28 27  1  0  0  0  0
 28 24  1  0  0  0  0
 29 35  1  0  0  0  0
 30 29  2  0  0  0  0
 30 31  1  0  0  0  0
 31 32  2  0  0  0  0
 32 34  1  0  0  0  0
 33 36  2  0  0  0  0
 35 36  1  0  0  0  0
 35 34  2  0  0  0  0
 37 33  1  0  0  0  0
 38 37  2  0  0  0  0
 38 29  1  0  0  0  0
 39 31  1  0  0  0  0
 39 40  2  0  0  0  0
M  END
>  <MODEL>
4

>  <REMARK>
 VINA RESULT:      -9.7      2.321      5.927
  Name = 
  9 active torsions:
  status: ('A' for Active; 'I' for Inactive)
    1  A    between atoms: C_3  and  N_7
    2  A    between atoms: C_3  and  N_8
    3  A    between atoms: C_4  and  C_16
    4  A    between atoms: C_6  and  C_31
    5  A    between atoms: N_8  and  C_18
    6  A    between atoms: C_18  and  C_30
    7  A    between atoms: C_20  and  C_26
    8  A    between atoms: C_23  and  C_38
    9  A    between atoms: C_26  and  C_33
                            x       y       z     vdW  Elec       q    Type
                         _______ _______ _______ _____ _____    ______ ____

>  <TORSDO>
F 9

$$$$
=
 OpenBabel10232408413D

 40 45  0  0  1  0  0  0  0  0999 V2000
  184.2140  178.5510  138.6980 C   0  0  0  0  0  0  0  0  0  0  0  0
  183.0190  178.8020  138.1470 C   0  0  0  0  0  3  0  0  0  0  0  0
  185.0690  177.5830  138.0750 N   0  0  0  0  0  0  0  0  0  0  0  0
  188.5120  178.6770  137.8180 C   0  0  0  0  0  3  0  0  0  0  0  0
  186.3770  177.7020  137.8070 C   0  0  0  0  0  0  0  0  0  0  0  0
  189.0300  177.5600  137.1230 C   0  0  0  0  0  3  0  0  0  0  0  0
  186.8360  176.6050  137.1420 C   0  0  0  0  0  0  0  0  0  0  0  0
  187.1880  178.7340  138.1550 N   0  0  0  0  0  0  0  0  0  0  0  0
  185.7730  175.7400  136.9610 C   0  0  0  0  0  3  0  0  0  0  0  0
  188.1750  176.5000  136.7790 C   0  0  0  0  0  0  0  0  0  0  0  0
  184.6850  176.3950  137.5530 C   0  0  0  0  0  3  0  0  0  0  0  0
  188.6570  175.3900  136.0970 O   0  0  0  0  0  1  0  0  0  0  0  0
  181.9790  179.7310  138.6290 C   0  0  0  0  0  0  0  0  0  0  0  0
  180.2730  180.4290  140.2170 C   0  0  0  0  0  3  0  0  0  0  0  0
  180.6870  181.7510  138.2320 C   0  0  0  0  0  0  0  0  0  0  0  0
  179.9830  181.5410  139.4230 C   0  0  0  0  0  3  0  0  0  0  0  0
  181.6830  180.8490  137.8420 C   0  0  0  0  0  3  0  0  0  0  0  0
  181.2630  179.5260  139.8210 C   0  0  0  0  0  3  0  0  0  0  0  0
  180.3770  182.9330  137.3790 C   0  0  0  0  0  2  0  0  0  0  0  0
  182.2830  184.7230  137.5690 N   0  0  0  0  0  0  0  0  0  0  0  0
  181.4430  183.9320  137.4870 C   0  0  0  0  0  0  0  0  0  0  0  0
  184.6330  179.2250  139.8900 N   0  0  0  0  0  2  0  0  0  0  0  0
  184.3620  178.7330  141.2360 C   0  0  0  0  0  2  0  0  0  0  0  0
  185.3900  178.9470  143.6530 C   0  0  1  0  0  3  0  0  0  0  0  0
  186.8500  179.5440  141.6360 C   0  0  0  0  0  1  0  0  0  0  0  0
  183.9300  178.8960  144.0810 C   0  0  0  0  0  1  0  0  0  0  0  0
  185.7700  177.6020  143.0370 C   0  0  1  0  0  3  0  0  0  0  0  0
  185.5940  178.8360  142.1440 C   0  0  2  0  0  0  0  0  0  0  0  0
  189.0350  177.0620  144.8970 C   0  0  0  0  0  0  0  0  0  0  0  0
  189.5260  177.1710  146.2000 C   0  0  0  0  0  3  0  0  0  0  0  0
  190.8700  176.8730  146.4760 C   0  0  0  0  0  0  0  0  0  0  0  0
  191.7160  176.4670  145.4390 C   0  0  0  0  0  3  0  0  0  0  0  0
  188.0700  176.8520  142.2800 C   0  0  0  0  0  3  0  0  0  0  0  0
  191.2330  176.3580  144.1310 C   0  0  0  0  0  3  0  0  0  0  0  0
  189.8970  176.6540  143.8540 C   0  0  0  0  0  0  0  0  0  0  0  0
  189.4100  176.5560  142.5480 C   0  0  0  0  0  3  0  0  0  0  0  0
  187.2040  177.2350  143.3160 C   0  0  0  0  0  0  0  0  0  0  0  0
  187.6980  177.3540  144.6210 C   0  0  0  0  0  3  0  0  0  0  0  0
  191.4120  176.9750  147.8340 C   0  0  0  0  0  3  0  0  0  0  0  0
  192.4550  176.3060  148.1980 N   0  0  0  0  0  2  0  0  0  0  0  0
  1 22  1  0  0  0  0
  2 13  1  0  0  0  0
  2  1  2  0  0  0  0
  3  1  1  0  0  0  0
  4  8  1  0  0  0  0
  5  3  1  0  0  0  0
  5  8  2  0  0  0  0
  6  4  2  0  0  0  0
  7  5  1  0  0  0  0
  9  7  1  0  0  0  0
  9 11  2  0  0  0  0
 10  6  1  0  0  0  0
 10  7  2  0  0  0  0
 11  3  1  0  0  0  0
 12 10  1  0  0  0  0
 13 18  1  0  0  0  0
 15 16  2  0  0  0  0
 16 14  1  0  0  0  0
 17 15  1  0  0  0  0
 17 13  2  0  0  0  0
 18 14  2  0  0  0  0
 19 21  1  0  0  0  0
 19 15  1  0  0  0  0
 21 20  3  0  0  0  0
 22 23  1  0  0  0  0
 23 28  1  0  0  0  0
 24 26  1  6  0  0  0
 27 37  1  1  0  0  0
 27 24  1  0  0  0  0
 28 25  1  6  0  0  0
 28 27  1  0  0  0  0
 28 24  1  0  0  0  0
 29 30  2  0  0  0  0
 30 31  1  0  0  0  0
 31 39  1  0  0  0  0
 32 31  2  0  0  0  0
 33 36  2  0  0  0  0
 33 37  1  0  0  0  0
 34 32  1  0  0  0  0
 35 34  2  0  0  0  0
 35 29  1  0  0  0  0
 36 35  1  0  0  0  0
 37 38  2  0  0  0  0
 38 29  1  0  0  0  0
 39 40  2  0  0  0  0
M  END
>  <MODEL>
5

>  <REMARK>
 VINA RESULT:      -8.9      1.781      2.800
  Name = 
  9 active torsions:
  status: ('A' for Active; 'I' for Inactive)
    1  A    between atoms: C_3  and  N_7
    2  A    between atoms: C_3  and  N_8
    3  A    between atoms: C_4  and  C_16
    4  A    between atoms: C_6  and  C_31
    5  A    between atoms: N_8  and  C_18
    6  A    between atoms: C_18  and  C_30
    7  A    between atoms: C_20  and  C_26
    8  A    between atoms: C_23  and  C_38
    9  A    between atoms: C_26  and  C_33
                            x       y       z     vdW  Elec       q    Type
                         _______ _______ _______ _____ _____    ______ ____

>  <TORSDO>
F 9

$$$$
=
 OpenBabel10232408413D

 40 45  0  0  1  0  0  0  0  0999 V2000
  190.4120  176.6990  139.4360 C   0  0  0  0  0  0  0  0  0  0  0  0
  189.5440  177.4950  138.7980 C   0  0  0  0  0  3  0  0  0  0  0  0
  191.6550  176.3830  138.7960 N   0  0  0  0  0  0  0  0  0  0  0  0
  191.4400  173.5140  136.5960 C   0  0  0  0  0  3  0  0  0  0  0  0
  191.9070  175.3680  137.9570 C   0  0  0  0  0  0  0  0  0  0  0  0
  192.7990  173.4500  136.2100 C   0  0  0  0  0  3  0  0  0  0  0  0
  193.2240  175.3450  137.6070 C   0  0  0  0  0  0  0  0  0  0  0  0
  191.0080  174.4770  137.4650 N   0  0  0  0  0  0  0  0  0  0  0  0
  193.8560  176.3870  138.2590 C   0  0  0  0  0  3  0  0  0  0  0  0
  193.7100  174.3860  136.7250 C   0  0  0  0  0  0  0  0  0  0  0  0
  192.8390  177.0060  138.9980 C   0  0  0  0  0  3  0  0  0  0  0  0
  195.0510  174.3480  136.3620 O   0  0  0  0  0  1  0  0  0  0  0  0
  188.2080  177.9260  139.2550 C   0  0  0  0  0  0  0  0  0  0  0  0
  186.6730  178.7890  140.9330 C   0  0  0  0  0  3  0  0  0  0  0  0
  185.8460  178.1780  138.7420 C   0  0  0  0  0  0  0  0  0  0  0  0
  185.6130  178.6690  140.0310 C   0  0  0  0  0  3  0  0  0  0  0  0
  187.1410  177.8120  138.3580 C   0  0  0  0  0  3  0  0  0  0  0  0
  187.9640  178.4170  140.5490 C   0  0  0  0  0  3  0  0  0  0  0  0
  184.7180  178.0430  137.7780 C   0  0  0  0  0  2  0  0  0  0  0  0
  183.3330  175.8770  138.2910 N   0  0  0  0  0  0  0  0  0  0  0  0
  183.9430  176.8330  138.0660 C   0  0  0  0  0  0  0  0  0  0  0  0
  190.1090  176.1630  140.7300 N   0  0  0  0  0  2  0  0  0  0  0  0
  190.7220  176.6360  141.9650 C   0  0  0  0  0  2  0  0  0  0  0  0
  190.4780  176.2890  144.5660 C   0  0  1  0  0  3  0  0  0  0  0  0
  188.5770  175.5130  143.0360 C   0  0  0  0  0  1  0  0  0  0  0  0
  191.9820  176.5260  144.5560 C   0  0  0  0  0  1  0  0  0  0  0  0
  189.7750  177.5750  144.1390 C   0  0  1  0  0  3  0  0  0  0  0  0
  189.8310  176.3750  143.1860 C   0  0  2  0  0  0  0  0  0  0  0  0
  186.0900  178.3020  144.7000 C   0  0  0  0  0  0  0  0  0  0  0  0
  184.9610  178.6180  143.9420 C   0  0  0  0  0  3  0  0  0  0  0  0
  183.7250  178.8330  144.5730 C   0  0  0  0  0  0  0  0  0  0  0  0
  183.6300  178.7280  145.9640 C   0  0  0  0  0  3  0  0  0  0  0  0
  188.3480  177.6810  146.2320 C   0  0  0  0  0  3  0  0  0  0  0  0
  184.7570  178.4130  146.7300 C   0  0  0  0  0  3  0  0  0  0  0  0
  185.9880  178.2000  146.1050 C   0  0  0  0  0  0  0  0  0  0  0  0
  187.1200  177.8950  146.8650 C   0  0  0  0  0  3  0  0  0  0  0  0
  188.4510  177.7570  144.8340 C   0  0  0  0  0  0  0  0  0  0  0  0
  187.3210  178.0850  144.0750 C   0  0  0  0  0  3  0  0  0  0  0  0
  182.5220  179.1640  143.8030 C   0  0  0  0  0  3  0  0  0  0  0  0
  182.3800  178.7880  142.5760 N   0  0  0  0  0  2  0  0  0  0  0  0
  1 22  1  0  0  0  0
  2 13  1  0  0  0  0
  2  1  2  0  0  0  0
  3 11  1  0  0  0  0
  3  1  1  0  0  0  0
  4  8  1  0  0  0  0
  5  3  1  0  0  0  0
  6  4  2  0  0  0  0
  6 10  1  0  0  0  0
  7  5  1  0  0  0  0
  7  9  1  0  0  0  0
  8  5  2  0  0  0  0
  9 11  2  0  0  0  0
 10  7  2  0  0  0  0
 12 10  1  0  0  0  0
 13 18  1  0  0  0  0
 15 16  2  0  0  0  0
 16 14  1  0  0  0  0
 17 15  1  0  0  0  0
 17 13  2  0  0  0  0
 18 14  2  0  0  0  0
 19 21  1  0  0  0  0
 19 15  1  0  0  0  0
 21 20  3  0  0  0  0
 22 23  1  0  0  0  0
 23 28  1  0  0  0  0
 24 26  1  6  0  0  0
 27 24  1  0  0  0  0
 27 37  1  1  0  0  0
 28 25  1  6  0  0  0
 28 27  1  0  0  0  0
 28 24  1  0  0  0  0
 29 35  1  0  0  0  0
 30 31  2  0  0  0  0
 30 29  1  0  0  0  0
 31 32  1  0  0  0  0
 32 34  2  0  0  0  0
 33 36  1  0  0  0  0
 35 34  1  0  0  0  0
 35 36  2  0  0  0  0
 37 33  2  0  0  0  0
 38 29  2  0  0  0  0
 38 37  1  0  0  0  0
 39 31  1  0  0  0  0
 40 39  2  0  0  0  0
M  END
>  <MODEL>
6

>  <REMARK>
 VINA RESULT:      -8.8      3.033      6.064
  Name = 
  9 active torsions:
  status: ('A' for Active; 'I' for Inactive)
    1  A    between atoms: C_3  and  N_7
    2  A    between atoms: C_3  and  N_8
    3  A    between atoms: C_4  and  C_16
    4  A    between atoms: C_6  and  C_31
    5  A    between atoms: N_8  and  C_18
    6  A    between atoms: C_18  and  C_30
    7  A    between atoms: C_20  and  C_26
    8  A    between atoms: C_23  and  C_38
    9  A    between atoms: C_26  and  C_33
                            x       y       z     vdW  Elec       q    Type
                         _______ _______ _______ _____ _____    ______ ____

>  <TORSDO>
F 9

$$$$
=
 OpenBabel10232408413D

 40 45  0  0  1  0  0  0  0  0999 V2000
  184.8730  176.7120  136.8530 C   0  0  0  0  0  0  0  0  0  0  0  0
  186.1980  176.5490  136.7360 C   0  0  0  0  0  3  0  0  0  0  0  0
  184.0050  175.7960  136.1710 N   0  0  0  0  0  0  0  0  0  0  0  0
  184.2600  172.4000  137.4010 C   0  0  0  0  0  3  0  0  0  0  0  0
  183.8920  174.4760  136.3700 C   0  0  0  0  0  0  0  0  0  0  0  0
  183.3620  171.7870  136.4980 C   0  0  0  0  0  3  0  0  0  0  0  0
  183.0150  173.9260  135.4830 C   0  0  0  0  0  0  0  0  0  0  0  0
  184.5130  173.7410  137.3290 N   0  0  0  0  0  0  0  0  0  0  0  0
  182.5480  174.9360  134.6640 C   0  0  0  0  0  3  0  0  0  0  0  0
  182.7240  172.5660  135.5190 C   0  0  0  0  0  0  0  0  0  0  0  0
  183.1990  176.0890  135.1240 C   0  0  0  0  0  3  0  0  0  0  0  0
  181.8360  171.9910  134.6180 O   0  0  0  0  0  1  0  0  0  0  0  0
  187.2660  177.3810  137.3250 C   0  0  0  0  0  0  0  0  0  0  0  0
  188.9660  179.1170  137.2060 C   0  0  0  0  0  3  0  0  0  0  0  0
  188.6480  177.8780  139.2610 C   0  0  0  0  0  0  0  0  0  0  0  0
  189.3180  178.8680  138.5350 C   0  0  0  0  0  3  0  0  0  0  0  0
  187.6230  177.1410  138.6560 C   0  0  0  0  0  3  0  0  0  0  0  0
  187.9470  178.3750  136.6020 C   0  0  0  0  0  3  0  0  0  0  0  0
  189.0240  177.6060  140.6770 C   0  0  0  0  0  2  0  0  0  0  0  0
  191.6210  177.3320  140.8990 N   0  0  0  0  0  0  0  0  0  0  0  0
  190.4760  177.4540  140.7990 C   0  0  0  0  0  0  0  0  0  0  0  0
  184.3270  177.7790  137.6360 N   0  0  0  0  0  2  0  0  0  0  0  0
  183.3530  177.5830  138.7030 C   0  0  0  0  0  2  0  0  0  0  0  0
  182.4720  179.3750  140.4220 C   0  0  1  0  0  3  0  0  0  0  0  0
  184.9980  179.1330  140.0810 C   0  0  0  0  0  1  0  0  0  0  0  0
  181.1540  179.1660  139.6890 C   0  0  0  0  0  1  0  0  0  0  0  0
  182.8400  178.0850  141.1510 C   0  0  1  0  0  3  0  0  0  0  0  0
  183.6150  178.5090  139.8970 C   0  0  2  0  0  0  0  0  0  0  0  0
  185.5310  178.0470  143.8280 C   0  0  0  0  0  0  0  0  0  0  0  0
  186.8300  177.5620  143.9970 C   0  0  0  0  0  3  0  0  0  0  0  0
  187.5050  177.7610  145.2120 C   0  0  0  0  0  0  0  0  0  0  0  0
  186.8710  178.4470  146.2530 C   0  0  0  0  0  3  0  0  0  0  0  0
  182.9250  179.0120  143.5090 C   0  0  0  0  0  3  0  0  0  0  0  0
  185.5700  178.9330  146.0920 C   0  0  0  0  0  3  0  0  0  0  0  0
  184.8950  178.7360  144.8850 C   0  0  0  0  0  0  0  0  0  0  0  0
  183.5920  179.2110  144.7210 C   0  0  0  0  0  3  0  0  0  0  0  0
  183.5600  178.3490  142.4470 C   0  0  0  0  0  0  0  0  0  0  0  0
  184.8580  177.8540  142.6190 C   0  0  0  0  0  3  0  0  0  0  0  0
  188.8700  177.2660  145.4170 C   0  0  0  0  0  3  0  0  0  0  0  0
  189.8880  177.8480  144.8760 N   0  0  0  0  0  2  0  0  0  0  0  0
  1 22  1  0  0  0  0
  2  1  2  0  0  0  0
  2 13  1  0  0  0  0
  3  5  1  0  0  0  0
  3  1  1  0  0  0  0
  5  8  2  0  0  0  0
  6  4  2  0  0  0  0
  7 10  2  0  0  0  0
  7  5  1  0  0  0  0
  8  4  1  0  0  0  0
  9 11  2  0  0  0  0
  9  7  1  0  0  0  0
 10  6  1  0  0  0  0
 11  3  1  0  0  0  0
 12 10  1  0  0  0  0
 13 17  1  0  0  0  0
 14 16  2  0  0  0  0
 15 19  1  0  0  0  0
 16 15  1  0  0  0  0
 17 15  2  0  0  0  0
 18 14  1  0  0  0  0
 18 13  2  0  0  0  0
 19 21  1  0  0  0  0
 21 20  3  0  0  0  0
 22 23  1  0  0  0  0
 23 28  1  0  0  0  0
 24 26  1  6  0  0  0
 24 27  1  0  0  0  0
 27 37  1  1  0  0  0
 28 25  1  1  0  0  0
 28 24  1  0  0  0  0
 28 27  1  0  0  0  0
 29 30  2  0  0  0  0
 29 35  1  0  0  0  0
 30 31  1  0  0  0  0
 31 39  1  0  0  0  0
 31 32  2  0  0  0  0
 33 36  2  0  0  0  0
 34 32  1  0  0  0  0
 35 34  2  0  0  0  0
 36 35  1  0  0  0  0
 37 38  2  0  0  0  0
 37 33  1  0  0  0  0
 38 29  1  0  0  0  0
 40 39  2  0  0  0  0
M  END
>  <MODEL>
7

>  <REMARK>
 VINA RESULT:      -8.6      3.512      6.385
  Name = 
  9 active torsions:
  status: ('A' for Active; 'I' for Inactive)
    1  A    between atoms: C_3  and  N_7
    2  A    between atoms: C_3  and  N_8
    3  A    between atoms: C_4  and  C_16
    4  A    between atoms: C_6  and  C_31
    5  A    between atoms: N_8  and  C_18
    6  A    between atoms: C_18  and  C_30
    7  A    between atoms: C_20  and  C_26
    8  A    between atoms: C_23  and  C_38
    9  A    between atoms: C_26  and  C_33
                            x       y       z     vdW  Elec       q    Type
                         _______ _______ _______ _____ _____    ______ ____

>  <TORSDO>
F 9

$$$$
=
 OpenBabel10232408413D

 40 45  0  0  1  0  0  0  0  0999 V2000
  191.1050  176.7180  140.1690 C   0  0  0  0  0  0  0  0  0  0  0  0
  191.9250  176.9300  141.2070 C   0  0  0  0  0  3  0  0  0  0  0  0
  191.6790  176.4320  138.8860 N   0  0  0  0  0  0  0  0  0  0  0  0
  189.7980  173.9810  136.9960 C   0  0  0  0  0  3  0  0  0  0  0  0
  191.2410  175.5530  137.9740 C   0  0  0  0  0  0  0  0  0  0  0  0
  190.6500  173.8930  135.8710 C   0  0  0  0  0  3  0  0  0  0  0  0
  192.0860  175.5020  136.9060 C   0  0  0  0  0  0  0  0  0  0  0  0
  190.1030  174.8150  138.0360 N   0  0  0  0  0  0  0  0  0  0  0  0
  193.1270  176.3800  137.1440 C   0  0  0  0  0  3  0  0  0  0  0  0
  191.8180  174.6710  135.8240 C   0  0  0  0  0  0  0  0  0  0  0  0
  192.8360  176.9350  138.3980 C   0  0  0  0  0  3  0  0  0  0  0  0
  192.6730  174.6060  134.7300 O   0  0  0  0  0  1  0  0  0  0  0  0
  191.5550  177.2630  142.5970 C   0  0  0  0  0  0  0  0  0  0  0  0
  190.7640  178.7930  144.3150 C   0  0  0  0  0  3  0  0  0  0  0  0
  191.4100  176.5370  144.9120 C   0  0  0  0  0  0  0  0  0  0  0  0
  190.9310  177.7990  145.2830 C   0  0  0  0  0  3  0  0  0  0  0  0
  191.7160  176.2730  143.5720 C   0  0  0  0  0  3  0  0  0  0  0  0
  191.0780  178.5280  142.9790 C   0  0  0  0  0  3  0  0  0  0  0  0
  191.5940  175.4750  145.9410 C   0  0  0  0  0  2  0  0  0  0  0  0
  192.3600  176.5350  148.2120 N   0  0  0  0  0  0  0  0  0  0  0  0
  192.0230  176.0650  147.2110 C   0  0  0  0  0  0  0  0  0  0  0  0
  189.6830  176.7820  140.3260 N   0  0  0  0  0  2  0  0  0  0  0  0
  188.8250  177.6900  139.5750 C   0  0  0  0  0  2  0  0  0  0  0  0
  186.4700  178.7880  140.0120 C   0  0  1  0  0  3  0  0  0  0  0  0
  188.4670  179.5520  141.4220 C   0  0  0  0  0  1  0  0  0  0  0  0
  186.1440  178.1990  138.6470 C   0  0  0  0  0  1  0  0  0  0  0  0
  186.7090  177.6470  140.9970 C   0  0  1  0  0  3  0  0  0  0  0  0
  187.8880  178.4860  140.4920 C   0  0  2  0  0  0  0  0  0  0  0  0
  186.6590  177.9580  144.7810 C   0  0  0  0  0  0  0  0  0  0  0  0
  187.4900  177.6640  145.8640 C   0  0  0  0  0  3  0  0  0  0  0  0
  187.0660  177.9390  147.1740 C   0  0  0  0  0  0  0  0  0  0  0  0
  185.8080  178.5100  147.3890 C   0  0  0  0  0  3  0  0  0  0  0  0
  184.9790  178.5400  142.6210 C   0  0  0  0  0  3  0  0  0  0  0  0
  184.9690  178.8050  146.3100 C   0  0  0  0  0  3  0  0  0  0  0  0
  185.3880  178.5310  145.0060 C   0  0  0  0  0  0  0  0  0  0  0  0
  184.5510  178.8150  143.9230 C   0  0  0  0  0  3  0  0  0  0  0  0
  186.2500  177.9930  142.3900 C   0  0  0  0  0  0  0  0  0  0  0  0
  187.0790  177.6880  143.4760 C   0  0  0  0  0  3  0  0  0  0  0  0
  187.9180  177.6450  148.3310 C   0  0  0  0  0  3  0  0  0  0  0  0
  189.1810  177.9110  148.3250 N   0  0  0  0  0  2  0  0  0  0  0  0
  1 22  1  0  0  0  0
  1  2  2  0  0  0  0
  2 13  1  0  0  0  0
  3  1  1  0  0  0  0
  4  8  1  0  0  0  0
  5  8  2  0  0  0  0
  5  3  1  0  0  0  0
  6  4  2  0  0  0  0
  7  9  1  0  0  0  0
  7  5  1  0  0  0  0
  9 11  2  0  0  0  0
 10  6  1  0  0  0  0
 10  7  2  0  0  0  0
 11  3  1  0  0  0  0
 12 10  1  0  0  0  0
 13 18  2  0  0  0  0
 13 17  1  0  0  0  0
 14 16  2  0  0  0  0
 15 16  1  0  0  0  0
 15 19  1  0  0  0  0
 17 15  2  0  0  0  0
 18 14  1  0  0  0  0
 19 21  1  0  0  0  0
 21 20  3  0  0  0  0
 23 22  1  0  0  0  0
 23 28  1  0  0  0  0
 24 26  1  6  0  0  0
 24 28  1  0  0  0  0
 24 27  1  0  0  0  0
 27 37  1  1  0  0  0
 28 27  1  0  0  0  0
 28 25  1  1  0  0  0
 29 35  1  0  0  0  0
 29 30  2  0  0  0  0
 30 31  1  0  0  0  0
 31 32  2  0  0  0  0
 31 39  1  0  0  0  0
 33 36  2  0  0  0  0
 34 32  1  0  0  0  0
 35 34  2  0  0  0  0
 36 35  1  0  0  0  0
 37 33  1  0  0  0  0
 37 38  2  0  0  0  0
 38 29  1  0  0  0  0
 40 39  2  0  0  0  0
M  END
>  <MODEL>
8

>  <REMARK>
 VINA RESULT:      -8.5      3.538      7.589
  Name = 
  9 active torsions:
  status: ('A' for Active; 'I' for Inactive)
    1  A    between atoms: C_3  and  N_7
    2  A    between atoms: C_3  and  N_8
    3  A    between atoms: C_4  and  C_16
    4  A    between atoms: C_6  and  C_31
    5  A    between atoms: N_8  and  C_18
    6  A    between atoms: C_18  and  C_30
    7  A    between atoms: C_20  and  C_26
    8  A    between atoms: C_23  and  C_38
    9  A    between atoms: C_26  and  C_33
                            x       y       z     vdW  Elec       q    Type
                         _______ _______ _______ _____ _____    ______ ____

>  <TORSDO>
F 9

$$$$
=
 OpenBabel10232408413D

 40 45  0  0  1  0  0  0  0  0999 V2000
  186.7730  178.1930  143.3110 C   0  0  0  0  0  0  0  0  0  0  0  0
  186.5520  178.0100  144.6190 C   0  0  0  0  0  3  0  0  0  0  0  0
  185.6490  178.4110  142.4470 N   0  0  0  0  0  0  0  0  0  0  0  0
  182.5220  178.7770  144.2370 C   0  0  0  0  0  3  0  0  0  0  0  0
  184.3630  178.5500  142.7990 C   0  0  0  0  0  0  0  0  0  0  0  0
  181.6610  178.8990  143.1220 C   0  0  0  0  0  3  0  0  0  0  0  0
  183.5700  178.6690  141.6980 C   0  0  0  0  0  0  0  0  0  0  0  0
  183.8670  178.6060  144.0620 N   0  0  0  0  0  0  0  0  0  0  0  0
  184.3790  178.5910  140.5800 C   0  0  0  0  0  3  0  0  0  0  0  0
  182.1960  178.8460  141.8240 C   0  0  0  0  0  0  0  0  0  0  0  0
  185.6720  178.4220  141.0940 C   0  0  0  0  0  3  0  0  0  0  0  0
  181.3740  178.9640  140.7100 O   0  0  0  0  0  1  0  0  0  0  0  0
  187.5480  177.7470  145.6760 C   0  0  0  0  0  0  0  0  0  0  0  0
  188.2600  177.6550  148.0010 C   0  0  0  0  0  3  0  0  0  0  0  0
  189.8280  177.1180  146.2370 C   0  0  0  0  0  0  0  0  0  0  0  0
  189.5390  177.2670  147.5980 C   0  0  0  0  0  3  0  0  0  0  0  0
  188.8320  177.3540  145.2830 C   0  0  0  0  0  3  0  0  0  0  0  0
  187.2690  177.8980  147.0450 C   0  0  0  0  0  3  0  0  0  0  0  0
  191.1930  176.7080  145.8030 C   0  0  0  0  0  2  0  0  0  0  0  0
  192.5880  175.8560  147.8520 N   0  0  0  0  0  0  0  0  0  0  0  0
  191.9710  176.2310  146.9490 C   0  0  0  0  0  0  0  0  0  0  0  0
  188.1010  178.1670  142.7760 N   0  0  0  0  0  2  0  0  0  0  0  0
  188.6860  177.0030  142.1200 C   0  0  0  0  0  2  0  0  0  0  0  0
  190.9970  177.6760  141.0460 C   0  0  1  0  0  3  0  0  0  0  0  0
  188.8430  178.1900  139.7590 C   0  0  0  0  0  1  0  0  0  0  0  0
  191.5070  177.4850  142.4670 C   0  0  0  0  0  1  0  0  0  0  0  0
  190.5370  176.3250  140.5020 C   0  0  1  0  0  3  0  0  0  0  0  0
  189.5050  177.3920  140.8830 C   0  0  2  0  0  0  0  0  0  0  0  0
  192.3270  176.2920  137.1540 C   0  0  0  0  0  0  0  0  0  0  0  0
  193.6240  176.4490  136.6620 C   0  0  0  0  0  3  0  0  0  0  0  0
  193.8700  176.3730  135.2810 C   0  0  0  0  0  0  0  0  0  0  0  0
  192.8080  176.1390  134.4010 C   0  0  0  0  0  3  0  0  0  0  0  0
  189.7210  175.9880  138.1260 C   0  0  0  0  0  3  0  0  0  0  0  0
  191.5060  175.9840  134.8860 C   0  0  0  0  0  3  0  0  0  0  0  0
  191.2590  176.0590  136.2590 C   0  0  0  0  0  0  0  0  0  0  0  0
  189.9590  175.9130  136.7500 C   0  0  0  0  0  3  0  0  0  0  0  0
  190.7820  176.1950  139.0220 C   0  0  0  0  0  0  0  0  0  0  0  0
  192.0810  176.3630  138.5270 C   0  0  0  0  0  3  0  0  0  0  0  0
  195.2210  176.5310  134.7350 C   0  0  0  0  0  3  0  0  0  0  0  0
  196.1690  177.0740  135.4240 N   0  0  0  0  0  2  0  0  0  0  0  0
  1  2  2  0  0  0  0
  2 13  1  0  0  0  0
  3  5  1  0  0  0  0
  3  1  1  0  0  0  0
  5  8  2  0  0  0  0
  6  4  2  0  0  0  0
  7 10  2  0  0  0  0
  7  5  1  0  0  0  0
  8  4  1  0  0  0  0
  9 11  2  0  0  0  0
  9  7  1  0  0  0  0
 10  6  1  0  0  0  0
 11  3  1  0  0  0  0
 12 10  1  0  0  0  0
 13 18  1  0  0  0  0
 15 16  2  0  0  0  0
 16 14  1  0  0  0  0
 17 13  2  0  0  0  0
 17 15  1  0  0  0  0
 18 14  2  0  0  0  0
 19 15  1  0  0  0  0
 19 21  1  0  0  0  0
 21 20  3  0  0  0  0
 22  1  1  0  0  0  0
 23 22  1  0  0  0  0
 24 26  1  1  0  0  0
 27 37  1  6  0  0  0
 27 28  1  0  0  0  0
 27 24  1  0  0  0  0
 28 25  1  6  0  0  0
 28 24  1  0  0  0  0
 28 23  1  0  0  0  0
 29 38  1  0  0  0  0
 30 29  1  0  0  0  0
 31 30  2  0  0  0  0
 32 34  2  0  0  0  0
 32 31  1  0  0  0  0
 33 37  1  0  0  0  0
 34 35  1  0  0  0  0
 35 36  1  0  0  0  0
 35 29  2  0  0  0  0
 36 33  2  0  0  0  0
 38 37  2  0  0  0  0
 39 31  1  0  0  0  0
 39 40  2  0  0  0  0
M  END
>  <MODEL>
9

>  <REMARK>
 VINA RESULT:      -8.4      3.443      9.810
  Name = 
  9 active torsions:
  status: ('A' for Active; 'I' for Inactive)
    1  A    between atoms: C_3  and  N_7
    2  A    between atoms: C_3  and  N_8
    3  A    between atoms: C_4  and  C_16
    4  A    between atoms: C_6  and  C_31
    5  A    between atoms: N_8  and  C_18
    6  A    between atoms: C_18  and  C_30
    7  A    between atoms: C_20  and  C_26
    8  A    between atoms: C_23  and  C_38
    9  A    between atoms: C_26  and  C_33
                            x       y       z     vdW  Elec       q    Type
                         _______ _______ _______ _____ _____    ______ ____

>  <TORSDO>
F 9

$$$$
