=
 OpenBabel10232408383D

 28 31  0  0  0  0  0  0  0  0999 V2000
  187.1260  178.3380  137.1900 N   0  0  0  0  0  2  0  0  0  0  0  0
  186.1530  178.1770  138.1850 C   0  0  0  0  0  0  0  0  0  0  0  0
  187.4750  178.0030  138.5040 C   0  0  0  0  0  0  0  0  0  0  0  0
  188.4990  177.6870  139.4930 C   0  0  0  0  0  0  0  0  0  0  0  0
  189.8720  177.3190  141.5320 C   0  0  0  0  0  0  0  0  0  0  0  0
  188.3300  177.8780  141.1500 S   0  0  0  0  0  0  0  0  0  0  0  0
  189.7590  177.1830  139.2040 C   0  0  0  0  0  3  0  0  0  0  0  0
  190.5340  176.9750  140.3540 C   0  0  0  0  0  3  0  0  0  0  0  0
  191.5010  177.0010  145.4860 C   0  0  0  0  0  0  0  0  0  0  0  0
  191.6330  175.9390  144.5780 C   0  0  0  0  0  3  0  0  0  0  0  0
  191.1020  176.0430  143.2890 C   0  0  0  0  0  3  0  0  0  0  0  0
  190.8320  178.1630  145.0900 C   0  0  0  0  0  3  0  0  0  0  0  0
  190.3020  178.2670  143.8000 C   0  0  0  0  0  3  0  0  0  0  0  0
  190.4330  177.2090  142.8900 C   0  0  0  0  0  0  0  0  0  0  0  0
  192.0190  176.9270  146.7810 O   0  0  0  0  0  0  0  0  0  0  0  0
  192.3470  175.6940  147.4080 C   0  0  0  0  0  1  0  0  0  0  0  0
  184.7220  178.1670  138.5960 C   0  0  0  0  0  2  0  0  0  0  0  0
  184.4310  179.3460  139.4670 C   0  0  0  0  0  0  0  0  0  0  0  0
  184.3320  179.2400  140.7930 C   0  0  0  0  0  3  0  0  0  0  0  0
  184.2410  180.5890  138.8760 O   0  0  0  0  0  1  0  0  0  0  0  0
  184.5120  177.9540  141.5430 C   0  0  0  0  0  2  0  0  0  0  0  0
  184.0420  178.0750  142.8830 O   0  0  0  0  0  0  0  0  0  0  0  0
  184.8880  178.1880  143.9910 C   0  0  0  0  0  0  0  0  0  0  0  0
  185.3940  179.0300  146.2140 C   0  0  0  0  0  3  0  0  0  0  0  0
  186.6300  178.3790  146.1810 C   0  0  0  0  0  3  0  0  0  0  0  0
  186.9970  177.6340  145.0560 C   0  0  0  0  0  3  0  0  0  0  0  0
  184.5240  178.9370  145.1240 C   0  0  0  0  0  3  0  0  0  0  0  0
  186.1280  177.5410  143.9640 C   0  0  0  0  0  3  0  0  0  0  0  0
  1  2  1  0  0  0  0
  1  3  1  0  0  0  0
  2  3  2  0  0  0  0
  2 17  1  0  0  0  0
  3  4  1  0  0  0  0
  4  6  1  0  0  0  0
  5 14  1  0  0  0  0
  6  5  1  0  0  0  0
  7  4  2  0  0  0  0
  7  8  1  0  0  0  0
  8  5  2  0  0  0  0
  9 15  1  0  0  0  0
 10  9  2  0  0  0  0
 11 10  1  0  0  0  0
 12  9  1  0  0  0  0
 13 12  2  0  0  0  0
 14 11  2  0  0  0  0
 14 13  1  0  0  0  0
 15 16  1  0  0  0  0
 17 18  1  0  0  0  0
 18 19  2  0  0  0  0
 19 21  1  0  0  0  0
 20 18  1  0  0  0  0
 21 22  1  0  0  0  0
 22 23  1  0  0  0  0
 23 27  1  0  0  0  0
 25 24  1  0  0  0  0
 26 25  2  0  0  0  0
 27 24  2  0  0  0  0
 28 23  2  0  0  0  0
 28 26  1  0  0  0  0
M  END
>  <MODEL>
1

>  <REMARK>
 VINA RESULT:      -8.5      0.000      0.000
  Name = 
  8 active torsions:
  status: ('A' for Active; 'I' for Inactive)
    1  A    between atoms: C_1  and  C_18
    2  A    between atoms: C_2  and  C_16
    3  A    between atoms: O_3  and  C_4
    4  A    between atoms: C_5  and  C_28
    5  A    between atoms: C_9  and  O_17
    6  A    between atoms: C_13  and  C_16
    7  A    between atoms: O_17  and  C_26
    8  A    between atoms: C_20  and  C_26
                            x       y       z     vdW  Elec       q    Type
                         _______ _______ _______ _____ _____    ______ ____

>  <TORSDO>
F 8

$$$$
=
 OpenBabel10232408383D

 28 31  0  0  0  0  0  0  0  0999 V2000
  181.9730  179.1760  142.9490 N   0  0  0  0  0  2  0  0  0  0  0  0
  182.7600  178.6690  141.9080 C   0  0  0  0  0  0  0  0  0  0  0  0
  183.2910  178.7580  143.1690 C   0  0  0  0  0  0  0  0  0  0  0  0
  184.4160  178.5670  144.0760 C   0  0  0  0  0  0  0  0  0  0  0  0
  186.5960  178.0930  145.1720 C   0  0  0  0  0  0  0  0  0  0  0  0
  185.9450  178.0490  143.6190 S   0  0  0  0  0  0  0  0  0  0  0  0
  184.3830  178.7840  145.4460 C   0  0  0  0  0  3  0  0  0  0  0  0
  185.6130  178.5170  146.0640 C   0  0  0  0  0  3  0  0  0  0  0  0
  190.6260  177.0650  146.2190 C   0  0  0  0  0  0  0  0  0  0  0  0
  190.3020  177.4070  144.8960 C   0  0  0  0  0  3  0  0  0  0  0  0
  188.9890  177.7420  144.5560 C   0  0  0  0  0  3  0  0  0  0  0  0
  189.6210  177.0610  147.1920 C   0  0  0  0  0  3  0  0  0  0  0  0
  188.3080  177.3970  146.8510 C   0  0  0  0  0  3  0  0  0  0  0  0
  187.9810  177.7400  145.5310 C   0  0  0  0  0  0  0  0  0  0  0  0
  191.9290  176.7240  146.5910 O   0  0  0  0  0  0  0  0  0  0  0  0
  192.2140  175.8360  147.6620 C   0  0  0  0  0  1  0  0  0  0  0  0
  182.9210  178.3190  140.4700 C   0  0  0  0  0  2  0  0  0  0  0  0
  183.7340  179.3660  139.7760 C   0  0  0  0  0  0  0  0  0  0  0  0
  183.2020  180.1940  138.8760 C   0  0  0  0  0  3  0  0  0  0  0  0
  185.0890  179.4680  140.0670 O   0  0  0  0  0  1  0  0  0  0  0  0
  181.7560  180.1760  138.4780 C   0  0  0  0  0  2  0  0  0  0  0  0
  181.1860  181.4790  138.5750 O   0  0  0  0  0  0  0  0  0  0  0  0
  181.0620  182.3520  137.4880 C   0  0  0  0  0  0  0  0  0  0  0  0
  181.2100  184.5680  136.5020 C   0  0  0  0  0  3  0  0  0  0  0  0
  180.7900  184.0510  135.2740 C   0  0  0  0  0  3  0  0  0  0  0  0
  180.5050  182.6870  135.1510 C   0  0  0  0  0  3  0  0  0  0  0  0
  181.3460  183.7230  137.6080 C   0  0  0  0  0  3  0  0  0  0  0  0
  180.6400  181.8410  136.2560 C   0  0  0  0  0  3  0  0  0  0  0  0
  1  3  1  0  0  0  0
  2  1  1  0  0  0  0
  2  3  2  0  0  0  0
  3  4  1  0  0  0  0
  4  7  2  0  0  0  0
  5 14  1  0  0  0  0
  5  8  2  0  0  0  0
  6  4  1  0  0  0  0
  6  5  1  0  0  0  0
  7  8  1  0  0  0  0
  9 15  1  0  0  0  0
  9 12  1  0  0  0  0
 10  9  2  0  0  0  0
 11 10  1  0  0  0  0
 11 14  2  0  0  0  0
 13 12  2  0  0  0  0
 14 13  1  0  0  0  0
 15 16  1  0  0  0  0
 17  2  1  0  0  0  0
 18 20  1  0  0  0  0
 18 17  1  0  0  0  0
 19 18  2  0  0  0  0
 21 22  1  0  0  0  0
 21 19  1  0  0  0  0
 23 27  1  0  0  0  0
 23 22  1  0  0  0  0
 24 27  2  0  0  0  0
 25 24  1  0  0  0  0
 26 25  2  0  0  0  0
 26 28  1  0  0  0  0
 28 23  2  0  0  0  0
M  END
>  <MODEL>
2

>  <REMARK>
 VINA RESULT:      -8.5      3.576      6.605
  Name = 
  8 active torsions:
  status: ('A' for Active; 'I' for Inactive)
    1  A    between atoms: C_1  and  C_18
    2  A    between atoms: C_2  and  C_16
    3  A    between atoms: O_3  and  C_4
    4  A    between atoms: C_5  and  C_28
    5  A    between atoms: C_9  and  O_17
    6  A    between atoms: C_13  and  C_16
    7  A    between atoms: O_17  and  C_26
    8  A    between atoms: C_20  and  C_26
                            x       y       z     vdW  Elec       q    Type
                         _______ _______ _______ _____ _____    ______ ____

>  <TORSDO>
F 8

$$$$
=
 OpenBabel10232408383D

 28 31  0  0  0  0  0  0  0  0999 V2000
  190.3050  176.9430  147.4020 N   0  0  0  0  0  2  0  0  0  0  0  0
  190.6150  176.9930  146.0380 C   0  0  0  0  0  0  0  0  0  0  0  0
  189.3420  177.2920  146.4480 C   0  0  0  0  0  0  0  0  0  0  0  0
  187.9750  177.6810  146.1240 C   0  0  0  0  0  0  0  0  0  0  0  0
  185.7910  178.2180  145.0640 C   0  0  0  0  0  0  0  0  0  0  0  0
  187.3050  177.6550  144.5860 S   0  0  0  0  0  0  0  0  0  0  0  0
  187.0330  178.1270  147.0390 C   0  0  0  0  0  3  0  0  0  0  0  0
  185.8010  178.4300  146.4410 C   0  0  0  0  0  3  0  0  0  0  0  0
  182.4430  178.8920  142.4700 C   0  0  0  0  0  0  0  0  0  0  0  0
  183.6940  178.5430  141.9370 C   0  0  0  0  0  3  0  0  0  0  0  0
  184.7840  178.3220  142.7830 C   0  0  0  0  0  3  0  0  0  0  0  0
  182.2990  179.0190  143.8560 C   0  0  0  0  0  3  0  0  0  0  0  0
  183.3900  178.7980  144.7010 C   0  0  0  0  0  3  0  0  0  0  0  0
  184.6410  178.4480  144.1720 C   0  0  0  0  0  0  0  0  0  0  0  0
  181.3340  179.1190  141.6520 O   0  0  0  0  0  0  0  0  0  0  0  0
  180.1890  179.8350  142.0920 C   0  0  0  0  0  1  0  0  0  0  0  0
  191.5990  176.8150  144.9340 C   0  0  0  0  0  2  0  0  0  0  0  0
  191.5130  177.9660  143.9830 C   0  0  0  0  0  0  0  0  0  0  0  0
  190.9890  177.8380  142.7630 C   0  0  0  0  0  3  0  0  0  0  0  0
  192.0120  179.2020  144.3750 O   0  0  0  0  0  1  0  0  0  0  0  0
  190.4260  176.5560  142.2270 C   0  0  0  0  0  2  0  0  0  0  0  0
  189.3140  176.8070  141.3710 O   0  0  0  0  0  0  0  0  0  0  0  0
  189.4390  177.1500  140.0210 C   0  0  0  0  0  0  0  0  0  0  0  0
  190.4370  176.8500  137.8250 C   0  0  0  0  0  3  0  0  0  0  0  0
  189.6480  177.8880  137.3240 C   0  0  0  0  0  3  0  0  0  0  0  0
  188.7560  178.5580  138.1670 C   0  0  0  0  0  3  0  0  0  0  0  0
  190.3350  176.4810  139.1700 C   0  0  0  0  0  3  0  0  0  0  0  0
  188.6540  178.1900  139.5120 C   0  0  0  0  0  3  0  0  0  0  0  0
  2  3  2  0  0  0  0
  2  1  1  0  0  0  0
  3  1  1  0  0  0  0
  4  3  1  0  0  0  0
  4  7  2  0  0  0  0
  5  8  2  0  0  0  0
  6  5  1  0  0  0  0
  6  4  1  0  0  0  0
  8  7  1  0  0  0  0
  9 12  1  0  0  0  0
 10  9  2  0  0  0  0
 10 11  1  0  0  0  0
 11 14  2  0  0  0  0
 12 13  2  0  0  0  0
 14 13  1  0  0  0  0
 14  5  1  0  0  0  0
 15 16  1  0  0  0  0
 15  9  1  0  0  0  0
 17  2  1  0  0  0  0
 18 20  1  0  0  0  0
 18 17  1  0  0  0  0
 19 18  2  0  0  0  0
 21 19  1  0  0  0  0
 22 21  1  0  0  0  0
 23 22  1  0  0  0  0
 24 27  1  0  0  0  0
 25 24  2  0  0  0  0
 25 26  1  0  0  0  0
 26 28  2  0  0  0  0
 27 23  2  0  0  0  0
 28 23  1  0  0  0  0
M  END
>  <MODEL>
3

>  <REMARK>
 VINA RESULT:      -8.4      2.947      8.353
  Name = 
  8 active torsions:
  status: ('A' for Active; 'I' for Inactive)
    1  A    between atoms: C_1  and  C_18
    2  A    between atoms: C_2  and  C_16
    3  A    between atoms: O_3  and  C_4
    4  A    between atoms: C_5  and  C_28
    5  A    between atoms: C_9  and  O_17
    6  A    between atoms: C_13  and  C_16
    7  A    between atoms: O_17  and  C_26
    8  A    between atoms: C_20  and  C_26
                            x       y       z     vdW  Elec       q    Type
                         _______ _______ _______ _____ _____    ______ ____

>  <TORSDO>
F 8

$$$$
=
 OpenBabel10232408383D

 28 31  0  0  0  0  0  0  0  0999 V2000
  182.0840  179.3660  143.0810 N   0  0  0  0  0  2  0  0  0  0  0  0
  182.7460  178.6180  142.0990 C   0  0  0  0  0  0  0  0  0  0  0  0
  183.3470  178.8080  143.3170 C   0  0  0  0  0  0  0  0  0  0  0  0
  184.4820  178.5940  144.2060 C   0  0  0  0  0  0  0  0  0  0  0  0
  186.6710  178.0790  145.2670 C   0  0  0  0  0  0  0  0  0  0  0  0
  185.9960  178.0550  143.7240 S   0  0  0  0  0  0  0  0  0  0  0  0
  184.4730  178.8040  145.5770 C   0  0  0  0  0  3  0  0  0  0  0  0
  185.7080  178.5140  146.1760 C   0  0  0  0  0  3  0  0  0  0  0  0
  190.6990  176.9830  146.2470 C   0  0  0  0  0  0  0  0  0  0  0  0
  190.3640  177.3520  144.9350 C   0  0  0  0  0  3  0  0  0  0  0  0
  189.0520  177.7100  144.6170 C   0  0  0  0  0  3  0  0  0  0  0  0
  189.7060  176.9750  147.2320 C   0  0  0  0  0  3  0  0  0  0  0  0
  188.3930  177.3330  146.9130 C   0  0  0  0  0  3  0  0  0  0  0  0
  188.0550  177.7040  145.6030 C   0  0  0  0  0  0  0  0  0  0  0  0
  192.0020  176.6190  146.5980 O   0  0  0  0  0  0  0  0  0  0  0  0
  192.2990  175.8440  147.7510 C   0  0  0  0  0  1  0  0  0  0  0  0
  182.7880  178.0530  140.7220 C   0  0  0  0  0  2  0  0  0  0  0  0
  183.2090  179.1080  139.7490 C   0  0  0  0  0  0  0  0  0  0  0  0
  184.4830  179.2720  139.3900 C   0  0  0  0  0  3  0  0  0  0  0  0
  182.2440  179.9550  139.2160 O   0  0  0  0  0  1  0  0  0  0  0  0
  185.6090  178.4250  139.9010 C   0  0  0  0  0  2  0  0  0  0  0  0
  186.8200  178.7160  139.2070 O   0  0  0  0  0  0  0  0  0  0  0  0
  188.0290  178.0550  139.4500 C   0  0  0  0  0  0  0  0  0  0  0  0
  189.8870  176.6660  138.7250 C   0  0  0  0  0  3  0  0  0  0  0  0
  190.4480  176.7500  140.0020 C   0  0  0  0  0  3  0  0  0  0  0  0
  189.8030  177.4840  141.0030 C   0  0  0  0  0  3  0  0  0  0  0  0
  188.6800  177.3160  138.4480 C   0  0  0  0  0  3  0  0  0  0  0  0
  188.5960  178.1330  140.7260 C   0  0  0  0  0  3  0  0  0  0  0  0
  1  3  1  0  0  0  0
  2  1  1  0  0  0  0
  2  3  2  0  0  0  0
  3  4  1  0  0  0  0
  4  7  2  0  0  0  0
  5 14  1  0  0  0  0
  5  8  2  0  0  0  0
  6  4  1  0  0  0  0
  6  5  1  0  0  0  0
  7  8  1  0  0  0  0
  9 15  1  0  0  0  0
  9 12  1  0  0  0  0
 10  9  2  0  0  0  0
 11 10  1  0  0  0  0
 11 14  2  0  0  0  0
 13 12  2  0  0  0  0
 14 13  1  0  0  0  0
 15 16  1  0  0  0  0
 17  2  1  0  0  0  0
 18 17  1  0  0  0  0
 19 18  2  0  0  0  0
 19 21  1  0  0  0  0
 20 18  1  0  0  0  0
 22 23  1  0  0  0  0
 22 21  1  0  0  0  0
 23 28  1  0  0  0  0
 24 25  2  0  0  0  0
 25 26  1  0  0  0  0
 27 24  1  0  0  0  0
 27 23  2  0  0  0  0
 28 26  2  0  0  0  0
M  END
>  <MODEL>
4

>  <REMARK>
 VINA RESULT:      -8.4      2.181      5.001
  Name = 
  8 active torsions:
  status: ('A' for Active; 'I' for Inactive)
    1  A    between atoms: C_1  and  C_18
    2  A    between atoms: C_2  and  C_16
    3  A    between atoms: O_3  and  C_4
    4  A    between atoms: C_5  and  C_28
    5  A    between atoms: C_9  and  O_17
    6  A    between atoms: C_13  and  C_16
    7  A    between atoms: O_17  and  C_26
    8  A    between atoms: C_20  and  C_26
                            x       y       z     vdW  Elec       q    Type
                         _______ _______ _______ _____ _____    ______ ____

>  <TORSDO>
F 8

$$$$
=
 OpenBabel10232408383D

 28 31  0  0  0  0  0  0  0  0999 V2000
  189.2300  176.9070  147.7830 N   0  0  0  0  0  2  0  0  0  0  0  0
  189.8350  177.3610  146.6040 C   0  0  0  0  0  0  0  0  0  0  0  0
  188.4750  177.4680  146.7450 C   0  0  0  0  0  0  0  0  0  0  0  0
  187.1820  177.8650  146.2020 C   0  0  0  0  0  0  0  0  0  0  0  0
  185.1760  178.3430  144.8140 C   0  0  0  0  0  0  0  0  0  0  0  0
  186.7000  177.6560  144.6090 S   0  0  0  0  0  0  0  0  0  0  0  0
  186.1660  178.4730  146.9240 C   0  0  0  0  0  3  0  0  0  0  0  0
  185.0340  178.7430  146.1410 C   0  0  0  0  0  3  0  0  0  0  0  0
  182.2100  178.7880  141.7480 C   0  0  0  0  0  0  0  0  0  0  0  0
  181.8710  178.9810  143.0970 C   0  0  0  0  0  3  0  0  0  0  0  0
  182.8380  178.8360  144.0950 C   0  0  0  0  0  3  0  0  0  0  0  0
  183.5250  178.4490  141.4140 C   0  0  0  0  0  3  0  0  0  0  0  0
  184.4920  178.3050  142.4130 C   0  0  0  0  0  3  0  0  0  0  0  0
  184.1570  178.4970  143.7610 C   0  0  0  0  0  0  0  0  0  0  0  0
  181.2670  178.9250  140.7270 O   0  0  0  0  0  0  0  0  0  0  0  0
  181.6170  179.3030  139.4030 C   0  0  0  0  0  1  0  0  0  0  0  0
  191.0580  177.5560  145.7780 C   0  0  0  0  0  2  0  0  0  0  0  0
  191.6660  176.2310  145.4430 C   0  0  0  0  0  0  0  0  0  0  0  0
  191.9000  175.8560  144.1850 C   0  0  0  0  0  3  0  0  0  0  0  0
  191.9800  175.3550  146.4750 O   0  0  0  0  0  1  0  0  0  0  0  0
  191.5980  176.7110  142.9900 C   0  0  0  0  0  2  0  0  0  0  0  0
  190.3540  176.3420  142.4010 O   0  0  0  0  0  0  0  0  0  0  0  0
  189.7920  177.0030  141.3030 C   0  0  0  0  0  0  0  0  0  0  0  0
  189.7930  177.6200  138.9520 C   0  0  0  0  0  3  0  0  0  0  0  0
  188.6180  178.3530  139.1440 C   0  0  0  0  0  3  0  0  0  0  0  0
  188.0300  178.4120  140.4110 C   0  0  0  0  0  3  0  0  0  0  0  0
  190.3790  176.9460  140.0280 C   0  0  0  0  0  3  0  0  0  0  0  0
  188.6180  177.7400  141.4880 C   0  0  0  0  0  3  0  0  0  0  0  0
  2  3  2  0  0  0  0
  2  1  1  0  0  0  0
  3  1  1  0  0  0  0
  4  3  1  0  0  0  0
  4  7  2  0  0  0  0
  5  8  2  0  0  0  0
  6  5  1  0  0  0  0
  6  4  1  0  0  0  0
  8  7  1  0  0  0  0
  9 10  1  0  0  0  0
 10 11  2  0  0  0  0
 12  9  2  0  0  0  0
 12 13  1  0  0  0  0
 13 14  2  0  0  0  0
 14 11  1  0  0  0  0
 14  5  1  0  0  0  0
 15  9  1  0  0  0  0
 16 15  1  0  0  0  0
 17  2  1  0  0  0  0
 18 17  1  0  0  0  0
 18 20  1  0  0  0  0
 19 18  2  0  0  0  0
 21 19  1  0  0  0  0
 22 21  1  0  0  0  0
 23 28  1  0  0  0  0
 23 22  1  0  0  0  0
 24 25  2  0  0  0  0
 24 27  1  0  0  0  0
 25 26  1  0  0  0  0
 26 28  2  0  0  0  0
 27 23  2  0  0  0  0
M  END
>  <MODEL>
5

>  <REMARK>
 VINA RESULT:      -8.1      2.800      8.580
  Name = 
  8 active torsions:
  status: ('A' for Active; 'I' for Inactive)
    1  A    between atoms: C_1  and  C_18
    2  A    between atoms: C_2  and  C_16
    3  A    between atoms: O_3  and  C_4
    4  A    between atoms: C_5  and  C_28
    5  A    between atoms: C_9  and  O_17
    6  A    between atoms: C_13  and  C_16
    7  A    between atoms: O_17  and  C_26
    8  A    between atoms: C_20  and  C_26
                            x       y       z     vdW  Elec       q    Type
                         _______ _______ _______ _____ _____    ______ ____

>  <TORSDO>
F 8

$$$$
=
 OpenBabel10232408383D

 28 31  0  0  0  0  0  0  0  0999 V2000
  191.6510  176.8700  146.8420 N   0  0  0  0  0  2  0  0  0  0  0  0
  190.2540  176.7690  146.8700 C   0  0  0  0  0  0  0  0  0  0  0  0
  190.8880  176.9740  145.6720 C   0  0  0  0  0  0  0  0  0  0  0  0
  190.8180  177.1700  144.2290 C   0  0  0  0  0  0  0  0  0  0  0  0
  190.1780  177.3640  141.8350 C   0  0  0  0  0  0  0  0  0  0  0  0
  189.4390  176.9670  143.2950 S   0  0  0  0  0  0  0  0  0  0  0  0
  191.8790  177.5520  143.4220 C   0  0  0  0  0  3  0  0  0  0  0  0
  191.5190  177.6610  142.0710 C   0  0  0  0  0  3  0  0  0  0  0  0
  188.2480  177.4560  138.0060 C   0  0  0  0  0  0  0  0  0  0  0  0
  189.5000  176.8390  138.1540 C   0  0  0  0  0  3  0  0  0  0  0  0
  190.1280  176.8090  139.4020 C   0  0  0  0  0  3  0  0  0  0  0  0
  187.6360  178.0410  139.1190 C   0  0  0  0  0  3  0  0  0  0  0  0
  188.2640  178.0110  140.3670 C   0  0  0  0  0  3  0  0  0  0  0  0
  189.5150  177.3940  140.5190 C   0  0  0  0  0  0  0  0  0  0  0  0
  187.5950  177.5030  136.7720 O   0  0  0  0  0  0  0  0  0  0  0  0
  186.1800  177.5600  136.6530 C   0  0  0  0  0  1  0  0  0  0  0  0
  188.9920  176.5990  147.6410 C   0  0  0  0  0  2  0  0  0  0  0  0
  188.4570  177.9340  148.0480 C   0  0  0  0  0  0  0  0  0  0  0  0
  187.3090  178.4140  147.5670 C   0  0  0  0  0  3  0  0  0  0  0  0
  189.1880  178.7080  148.9410 O   0  0  0  0  0  1  0  0  0  0  0  0
  186.4370  177.6750  146.5960 C   0  0  0  0  0  2  0  0  0  0  0  0
  186.5640  178.2170  145.2840 O   0  0  0  0  0  0  0  0  0  0  0  0
  185.4830  178.4010  144.4150 C   0  0  0  0  0  0  0  0  0  0  0  0
  184.5110  178.4120  142.1880 C   0  0  0  0  0  3  0  0  0  0  0  0
  183.2780  178.7910  142.7270 C   0  0  0  0  0  3  0  0  0  0  0  0
  183.1460  178.9750  144.1070 C   0  0  0  0  0  3  0  0  0  0  0  0
  185.6110  178.2180  143.0280 C   0  0  0  0  0  3  0  0  0  0  0  0
  184.2460  178.7820  144.9480 C   0  0  0  0  0  3  0  0  0  0  0  0
  1  2  1  0  0  0  0
  2 17  1  0  0  0  0
  3  1  1  0  0  0  0
  3  2  2  0  0  0  0
  4  3  1  0  0  0  0
  5  8  2  0  0  0  0
  5  6  1  0  0  0  0
  6  4  1  0  0  0  0
  7  4  2  0  0  0  0
  8  7  1  0  0  0  0
  9 10  2  0  0  0  0
  9 12  1  0  0  0  0
 10 11  1  0  0  0  0
 11 14  2  0  0  0  0
 12 13  2  0  0  0  0
 13 14  1  0  0  0  0
 14  5  1  0  0  0  0
 15  9  1  0  0  0  0
 16 15  1  0  0  0  0
 17 18  1  0  0  0  0
 18 20  1  0  0  0  0
 19 18  2  0  0  0  0
 21 19  1  0  0  0  0
 22 21  1  0  0  0  0
 23 28  1  0  0  0  0
 23 22  1  0  0  0  0
 24 25  2  0  0  0  0
 24 27  1  0  0  0  0
 25 26  1  0  0  0  0
 26 28  2  0  0  0  0
 27 23  2  0  0  0  0
M  END
>  <MODEL>
6

>  <REMARK>
 VINA RESULT:      -8.0      2.830      6.822
  Name = 
  8 active torsions:
  status: ('A' for Active; 'I' for Inactive)
    1  A    between atoms: C_1  and  C_18
    2  A    between atoms: C_2  and  C_16
    3  A    between atoms: O_3  and  C_4
    4  A    between atoms: C_5  and  C_28
    5  A    between atoms: C_9  and  O_17
    6  A    between atoms: C_13  and  C_16
    7  A    between atoms: O_17  and  C_26
    8  A    between atoms: C_20  and  C_26
                            x       y       z     vdW  Elec       q    Type
                         _______ _______ _______ _____ _____    ______ ____

>  <TORSDO>
F 8

$$$$
=
 OpenBabel10232408383D

 28 31  0  0  0  0  0  0  0  0999 V2000
  184.6560  179.7070  139.5080 N   0  0  0  0  0  2  0  0  0  0  0  0
  185.3560  178.6070  138.9970 C   0  0  0  0  0  0  0  0  0  0  0  0
  185.4070  178.8700  140.3420 C   0  0  0  0  0  0  0  0  0  0  0  0
  185.8980  178.5300  141.6720 C   0  0  0  0  0  0  0  0  0  0  0  0
  187.2210  177.9560  143.6970 C   0  0  0  0  0  0  0  0  0  0  0  0
  187.5100  178.2870  142.0710 S   0  0  0  0  0  0  0  0  0  0  0  0
  185.1050  178.3600  142.7970 C   0  0  0  0  0  3  0  0  0  0  0  0
  185.8500  178.0360  143.9400 C   0  0  0  0  0  3  0  0  0  0  0  0
  190.2100  177.0180  146.6250 C   0  0  0  0  0  0  0  0  0  0  0  0
  190.5390  177.0450  145.2610 C   0  0  0  0  0  3  0  0  0  0  0  0
  189.5640  177.3520  144.3070 C   0  0  0  0  0  3  0  0  0  0  0  0
  188.8990  177.2980  147.0210 C   0  0  0  0  0  3  0  0  0  0  0  0
  187.9240  177.6050  146.0670 C   0  0  0  0  0  3  0  0  0  0  0  0
  188.2490  177.6340  144.7030 C   0  0  0  0  0  0  0  0  0  0  0  0
  191.1620  176.7150  147.6030 O   0  0  0  0  0  0  0  0  0  0  0  0
  192.2210  175.7940  147.3840 C   0  0  0  0  0  1  0  0  0  0  0  0
  185.7750  177.7750  137.8360 C   0  0  0  0  0  2  0  0  0  0  0  0
  187.0590  178.2930  137.2720 C   0  0  0  0  0  0  0  0  0  0  0  0
  188.1670  177.5510  137.2350 C   0  0  0  0  0  3  0  0  0  0  0  0
  187.1040  179.5940  136.7860 O   0  0  0  0  0  1  0  0  0  0  0  0
  188.2420  176.1390  137.7330 C   0  0  0  0  0  2  0  0  0  0  0  0
  189.5950  175.6960  137.8070 O   0  0  0  0  0  0  0  0  0  0  0  0
  190.5470  176.2610  138.6630 C   0  0  0  0  0  0  0  0  0  0  0  0
  191.1770  177.2960  140.7690 C   0  0  0  0  0  3  0  0  0  0  0  0
  192.5010  177.3850  140.3300 C   0  0  0  0  0  3  0  0  0  0  0  0
  192.8490  176.9130  139.0610 C   0  0  0  0  0  3  0  0  0  0  0  0
  190.2010  176.7360  139.9390 C   0  0  0  0  0  3  0  0  0  0  0  0
  191.8740  176.3540  138.2300 C   0  0  0  0  0  3  0  0  0  0  0  0
  1  3  1  0  0  0  0
  2  1  1  0  0  0  0
  2  3  2  0  0  0  0
  3  4  1  0  0  0  0
  4  6  1  0  0  0  0
  4  7  2  0  0  0  0
  5  8  2  0  0  0  0
  5 14  1  0  0  0  0
  6  5  1  0  0  0  0
  7  8  1  0  0  0  0
  9 12  1  0  0  0  0
  9 15  1  0  0  0  0
 10  9  2  0  0  0  0
 11 14  2  0  0  0  0
 11 10  1  0  0  0  0
 13 12  2  0  0  0  0
 14 13  1  0  0  0  0
 16 15  1  0  0  0  0
 17  2  1  0  0  0  0
 18 17  1  0  0  0  0
 19 18  2  0  0  0  0
 19 21  1  0  0  0  0
 20 18  1  0  0  0  0
 21 22  1  0  0  0  0
 22 23  1  0  0  0  0
 23 27  1  0  0  0  0
 25 24  1  0  0  0  0
 26 25  2  0  0  0  0
 27 24  2  0  0  0  0
 28 23  2  0  0  0  0
 28 26  1  0  0  0  0
M  END
>  <MODEL>
7

>  <REMARK>
 VINA RESULT:      -7.9      2.210      5.055
  Name = 
  8 active torsions:
  status: ('A' for Active; 'I' for Inactive)
    1  A    between atoms: C_1  and  C_18
    2  A    between atoms: C_2  and  C_16
    3  A    between atoms: O_3  and  C_4
    4  A    between atoms: C_5  and  C_28
    5  A    between atoms: C_9  and  O_17
    6  A    between atoms: C_13  and  C_16
    7  A    between atoms: O_17  and  C_26
    8  A    between atoms: C_20  and  C_26
                            x       y       z     vdW  Elec       q    Type
                         _______ _______ _______ _____ _____    ______ ____

>  <TORSDO>
F 8

$$$$
=
 OpenBabel10232408383D

 28 31  0  0  0  0  0  0  0  0999 V2000
  191.5110  177.3280  145.6380 N   0  0  0  0  0  2  0  0  0  0  0  0
  190.2350  176.9660  146.0880 C   0  0  0  0  0  0  0  0  0  0  0  0
  190.4220  177.2550  144.7600 C   0  0  0  0  0  0  0  0  0  0  0  0
  189.8790  177.3950  143.4150 C   0  0  0  0  0  0  0  0  0  0  0  0
  189.4650  177.5470  140.9680 C   0  0  0  0  0  0  0  0  0  0  0  0
  190.7700  177.2780  141.9990 S   0  0  0  0  0  0  0  0  0  0  0  0
  188.5480  177.6450  143.1130 C   0  0  0  0  0  3  0  0  0  0  0  0
  188.3150  177.7310  141.7330 C   0  0  0  0  0  3  0  0  0  0  0  0
  189.6460  177.6470  136.6850 C   0  0  0  0  0  0  0  0  0  0  0  0
  188.9940  178.6700  137.3910 C   0  0  0  0  0  3  0  0  0  0  0  0
  188.9360  178.6370  138.7870 C   0  0  0  0  0  3  0  0  0  0  0  0
  190.2360  176.5940  137.3920 C   0  0  0  0  0  3  0  0  0  0  0  0
  190.1780  176.5620  138.7880 C   0  0  0  0  0  3  0  0  0  0  0  0
  189.5280  177.5830  139.4970 C   0  0  0  0  0  0  0  0  0  0  0  0
  189.7210  177.6510  135.2900 O   0  0  0  0  0  0  0  0  0  0  0  0
  189.2750  176.5610  134.4940 C   0  0  0  0  0  1  0  0  0  0  0  0
  189.3230  176.5820  147.2010 C   0  0  0  0  0  2  0  0  0  0  0  0
  188.8940  177.8010  147.9540 C   0  0  0  0  0  0  0  0  0  0  0  0
  187.7340  178.4120  147.7090 C   0  0  0  0  0  3  0  0  0  0  0  0
  189.7370  178.3220  148.9270 O   0  0  0  0  0  1  0  0  0  0  0  0
  186.7460  177.9470  146.6810 C   0  0  0  0  0  2  0  0  0  0  0  0
  185.9800  179.0390  146.1800 O   0  0  0  0  0  0  0  0  0  0  0  0
  185.0500  178.9190  145.1420 C   0  0  0  0  0  0  0  0  0  0  0  0
  184.4970  178.7000  142.7850 C   0  0  0  0  0  3  0  0  0  0  0  0
  183.1370  178.6850  143.1050 C   0  0  0  0  0  3  0  0  0  0  0  0
  182.7320  178.7880  144.4390 C   0  0  0  0  0  3  0  0  0  0  0  0
  185.4530  178.8170  143.7990 C   0  0  0  0  0  3  0  0  0  0  0  0
  183.6870  178.9050  145.4540 C   0  0  0  0  0  3  0  0  0  0  0  0
  1  2  1  0  0  0  0
  2 17  1  0  0  0  0
  3  1  1  0  0  0  0
  3  2  2  0  0  0  0
  4  3  1  0  0  0  0
  5  8  2  0  0  0  0
  5  6  1  0  0  0  0
  6  4  1  0  0  0  0
  7  4  2  0  0  0  0
  8  7  1  0  0  0  0
  9 10  2  0  0  0  0
  9 12  1  0  0  0  0
 10 11  1  0  0  0  0
 11 14  2  0  0  0  0
 12 13  2  0  0  0  0
 13 14  1  0  0  0  0
 14  5  1  0  0  0  0
 15  9  1  0  0  0  0
 16 15  1  0  0  0  0
 17 18  1  0  0  0  0
 18 20  1  0  0  0  0
 19 18  2  0  0  0  0
 21 19  1  0  0  0  0
 22 21  1  0  0  0  0
 23 28  1  0  0  0  0
 23 22  1  0  0  0  0
 24 25  2  0  0  0  0
 24 27  1  0  0  0  0
 25 26  1  0  0  0  0
 26 28  2  0  0  0  0
 27 23  2  0  0  0  0
M  END
>  <MODEL>
8

>  <REMARK>
 VINA RESULT:      -7.7      3.039      6.997
  Name = 
  8 active torsions:
  status: ('A' for Active; 'I' for Inactive)
    1  A    between atoms: C_1  and  C_18
    2  A    between atoms: C_2  and  C_16
    3  A    between atoms: O_3  and  C_4
    4  A    between atoms: C_5  and  C_28
    5  A    between atoms: C_9  and  O_17
    6  A    between atoms: C_13  and  C_16
    7  A    between atoms: O_17  and  C_26
    8  A    between atoms: C_20  and  C_26
                            x       y       z     vdW  Elec       q    Type
                         _______ _______ _______ _____ _____    ______ ____

>  <TORSDO>
F 8

$$$$
=
 OpenBabel10232408383D

 28 31  0  0  0  0  0  0  0  0999 V2000
  189.6780  177.7470  136.9710 N   0  0  0  0  0  2  0  0  0  0  0  0
  188.4200  178.2170  137.3700 C   0  0  0  0  0  0  0  0  0  0  0  0
  189.3320  177.8450  138.3250 C   0  0  0  0  0  0  0  0  0  0  0  0
  189.6810  177.6690  139.7290 C   0  0  0  0  0  0  0  0  0  0  0  0
  189.7490  177.4700  142.2060 C   0  0  0  0  0  0  0  0  0  0  0  0
  188.6060  177.7890  141.0110 S   0  0  0  0  0  0  0  0  0  0  0  0
  190.9500  177.3770  140.2060 C   0  0  0  0  0  3  0  0  0  0  0  0
  190.9890  177.2650  141.6030 C   0  0  0  0  0  3  0  0  0  0  0  0
  188.9800  177.3130  146.4220 C   0  0  0  0  0  0  0  0  0  0  0  0
  187.9160  177.3880  145.5090 C   0  0  0  0  0  3  0  0  0  0  0  0
  188.1680  177.4380  144.1360 C   0  0  0  0  0  3  0  0  0  0  0  0
  190.2940  177.2910  145.9430 C   0  0  0  0  0  3  0  0  0  0  0  0
  190.5450  177.3410  144.5690 C   0  0  0  0  0  3  0  0  0  0  0  0
  189.4840  177.4150  143.6540 C   0  0  0  0  0  0  0  0  0  0  0  0
  188.7620  177.2620  147.8010 O   0  0  0  0  0  0  0  0  0  0  0  0
  188.3960  178.4030  148.5630 C   0  0  0  0  0  1  0  0  0  0  0  0
  187.0640  178.7200  137.0180 C   0  0  0  0  0  2  0  0  0  0  0  0
  186.0510  177.6370  137.2090 C   0  0  0  0  0  0  0  0  0  0  0  0
  185.0390  177.7570  138.0700 C   0  0  0  0  0  3  0  0  0  0  0  0
  186.1780  176.4610  136.4800 O   0  0  0  0  0  1  0  0  0  0  0  0
  184.8020  178.9740  138.9140 C   0  0  0  0  0  2  0  0  0  0  0  0
  185.3590  178.8070  140.2150 O   0  0  0  0  0  0  0  0  0  0  0  0
  184.6000  178.8230  141.3900 C   0  0  0  0  0  0  0  0  0  0  0  0
  182.4670  178.7910  142.5540 C   0  0  0  0  0  3  0  0  0  0  0  0
  183.1350  178.8630  143.7800 C   0  0  0  0  0  3  0  0  0  0  0  0
  184.5310  178.9150  143.8130 C   0  0  0  0  0  3  0  0  0  0  0  0
  183.1960  178.7720  141.3610 C   0  0  0  0  0  3  0  0  0  0  0  0
  185.2610  178.8960  142.6200 C   0  0  0  0  0  3  0  0  0  0  0  0
  1  2  1  0  0  0  0
  1  3  1  0  0  0  0
  2  3  2  0  0  0  0
  3  4  1  0  0  0  0
  4  7  2  0  0  0  0
  4  6  1  0  0  0  0
  5 14  1  0  0  0  0
  6  5  1  0  0  0  0
  7  8  1  0  0  0  0
  8  5  2  0  0  0  0
  9 15  1  0  0  0  0
 10  9  2  0  0  0  0
 11 10  1  0  0  0  0
 12  9  1  0  0  0  0
 13 12  2  0  0  0  0
 14 11  2  0  0  0  0
 14 13  1  0  0  0  0
 15 16  1  0  0  0  0
 17 18  1  0  0  0  0
 17  2  1  0  0  0  0
 18 19  2  0  0  0  0
 19 21  1  0  0  0  0
 20 18  1  0  0  0  0
 21 22  1  0  0  0  0
 22 23  1  0  0  0  0
 23 28  1  0  0  0  0
 24 25  2  0  0  0  0
 25 26  1  0  0  0  0
 27 23  2  0  0  0  0
 27 24  1  0  0  0  0
 28 26  2  0  0  0  0
M  END
>  <MODEL>
9

>  <REMARK>
 VINA RESULT:      -7.7      1.890      2.981
  Name = 
  8 active torsions:
  status: ('A' for Active; 'I' for Inactive)
    1  A    between atoms: C_1  and  C_18
    2  A    between atoms: C_2  and  C_16
    3  A    between atoms: O_3  and  C_4
    4  A    between atoms: C_5  and  C_28
    5  A    between atoms: C_9  and  O_17
    6  A    between atoms: C_13  and  C_16
    7  A    between atoms: O_17  and  C_26
    8  A    between atoms: C_20  and  C_26
                            x       y       z     vdW  Elec       q    Type
                         _______ _______ _______ _____ _____    ______ ____

>  <TORSDO>
F 8

$$$$
