=
 OpenBabel10232411093D

 36 40  0  0  0  0  0  0  0  0999 V2000
  190.6430  176.8920  142.5510 C   0  0  0  0  0  2  0  0  0  0  0  0
  188.3750  177.9140  139.9600 C   0  0  0  0  0  0  0  0  0  0  0  0
  187.7570  178.1750  141.1750 C   0  0  0  0  0  0  0  0  0  0  0  0
  189.9680  177.6190  143.6970 C   0  0  0  0  0  0  0  0  0  0  0  0
  188.7610  178.0100  143.4240 N   0  0  0  0  0  0  0  0  0  0  0  0
  189.4950  177.1210  140.2200 C   0  0  0  0  0  0  0  0  0  0  0  0
  188.0270  178.4850  138.7420 O   0  0  0  0  0  1  0  0  0  0  0  0
  189.5110  176.9570  141.5900 C   0  0  0  0  0  0  0  0  0  0  0  0
  188.4710  177.5650  142.1390 N   0  0  0  0  0  0  0  0  0  0  0  0
  190.5940  177.9070  144.9460 N   0  0  0  0  0  2  0  0  0  0  0  0
  191.6600  175.8840  137.2470 C   0  0  0  0  0  0  0  0  0  0  0  0
  190.1780  174.3870  136.8660 C   0  0  0  0  0  0  0  0  0  0  0  0
  191.3190  174.8000  136.4000 N   0  0  0  0  0  0  0  0  0  0  0  0
  190.6120  176.8890  139.3540 N   0  0  0  0  0  2  0  0  0  0  0  0
  192.8500  176.4150  137.3160 C   0  0  0  0  0  0  0  0  0  0  0  0
  193.9780  176.9200  137.3810 O   0  0  0  0  0  0  0  0  0  0  0  0
  189.7110  175.0980  138.0210 N   0  0  0  0  0  0  0  0  0  0  0  0
  190.6100  175.9990  138.2330 C   0  0  0  0  0  0  0  0  0  0  0  0
  189.0210  171.5540  135.0770 N   0  0  0  0  0  2  0  0  0  0  0  0
  189.9660  172.4310  135.3620 N   0  0  0  0  0  0  0  0  0  0  0  0
  187.9440  171.8640  135.8260 C   0  0  0  0  0  3  0  0  0  0  0  0
  189.4460  173.2620  136.2800 C   0  0  0  0  0  0  0  0  0  0  0  0
  188.1790  172.9430  136.6010 N   0  0  0  0  0  0  0  0  0  0  0  0
  191.8610  177.5040  145.2070 O   0  0  0  0  0  0  0  0  0  0  0  0
  191.7270  176.4840  146.1520 C   0  0  0  0  0  1  0  0  0  0  0  0
  186.7490  179.2470  141.4190 C   0  0  0  0  0  2  0  0  0  0  0  0
  185.4630  178.6510  141.7350 N   0  0  0  0  0  2  0  0  0  0  0  0
  184.9800  179.3090  142.9360 C   0  0  0  0  0  2  0  0  0  0  0  0
  184.6920  178.2790  144.0160 C   0  0  0  0  0  2  0  0  0  0  0  0
  184.7120  178.9100  145.4030 C   0  0  0  0  0  2  0  0  0  0  0  0
  186.6660  177.3140  145.8400 C   0  0  0  0  0  3  0  0  0  0  0  0
  187.5080  178.3660  147.9220 C   0  0  0  0  0  2  0  0  0  0  0  0
  185.9030  178.5070  146.1370 N   0  0  0  0  0  0  0  0  0  0  0  0
  187.7600  177.2360  146.9160 C   0  0  0  0  0  3  0  0  0  0  0  0
  186.3610  179.0860  147.3390 C   0  0  0  0  0  0  0  0  0  0  0  0
  185.8300  180.0990  147.8640 O   0  0  0  0  0  0  0  0  0  0  0  0
  1  4  1  0  0  0  0
  2  6  1  0  0  0  0
  2  3  2  0  0  0  0
  3 26  1  0  0  0  0
  3  9  1  0  0  0  0
  4 10  1  0  0  0  0
  5  4  2  0  0  0  0
  6  8  2  0  0  0  0
  7  2  1  0  0  0  0
  8  9  1  0  0  0  0
  8  1  1  0  0  0  0
  9  5  1  0  0  0  0
 10 24  1  0  0  0  0
 11 15  2  0  0  0  0
 11 18  1  0  0  0  0
 12 17  1  0  0  0  0
 13 12  2  0  0  0  0
 13 11  1  0  0  0  0
 14  6  1  0  0  0  0
 15 16  2  0  0  0  0
 17 18  2  0  0  0  0
 18 14  1  0  0  0  0
 19 20  1  0  0  0  0
 19 21  1  0  0  0  0
 20 22  2  0  0  0  0
 21 23  2  0  0  0  0
 22 23  1  0  0  0  0
 22 12  1  0  0  0  0
 24 25  1  0  0  0  0
 26 27  1  0  0  0  0
 27 28  1  0  0  0  0
 28 29  1  0  0  0  0
 29 30  1  0  0  0  0
 30 33  1  0  0  0  0
 31 33  1  0  0  0  0
 31 34  2  0  0  0  0
 33 35  1  0  0  0  0
 34 32  1  0  0  0  0
 35 36  2  0  0  0  0
 35 32  1  0  0  0  0
M  END
>  <MODEL>
1

>  <REMARK>
 VINA RESULT:      -7.8      0.000      0.000
  Name = 
  9 active torsions:
  status: ('A' for Active; 'I' for Inactive)
    1  A    between atoms: O_3  and  N_33
    2  A    between atoms: C_6  and  N_13
    3  A    between atoms: C_6  and  C_34
    4  A    between atoms: C_9  and  C_32
    5  A    between atoms: C_10  and  C_19
    6  A    between atoms: C_17  and  N_20
    7  A    between atoms: C_21  and  N_28
    8  A    between atoms: C_21  and  C_34
    9  A    between atoms: N_28  and  C_32
                            x       y       z     vdW  Elec       q    Type
                         _______ _______ _______ _____ _____    ______ ____

>  <TORSDO>
F 9

$$$$
=
 OpenBabel10232411093D

 36 40  0  0  0  0  0  0  0  0999 V2000
  183.8210  177.4300  138.3150 C   0  0  0  0  0  2  0  0  0  0  0  0
  185.5200  178.9030  141.1170 C   0  0  0  0  0  0  0  0  0  0  0  0
  184.2190  178.6360  141.5180 C   0  0  0  0  0  0  0  0  0  0  0  0
  182.6340  176.8780  139.0780 C   0  0  0  0  0  0  0  0  0  0  0  0
  182.5000  177.3810  140.2660 N   0  0  0  0  0  0  0  0  0  0  0  0
  185.5720  178.7490  139.7300 C   0  0  0  0  0  0  0  0  0  0  0  0
  186.5970  179.1140  141.9690 O   0  0  0  0  0  1  0  0  0  0  0  0
  184.2960  178.3750  139.3600 C   0  0  0  0  0  0  0  0  0  0  0  0
  183.5040  178.3320  140.4200 N   0  0  0  0  0  0  0  0  0  0  0  0
  181.7620  175.8620  138.5820 N   0  0  0  0  0  2  0  0  0  0  0  0
  189.0900  177.6560  138.5140 C   0  0  0  0  0  0  0  0  0  0  0  0
  189.6210  177.2940  140.5560 C   0  0  0  0  0  0  0  0  0  0  0  0
  190.1380  177.2240  139.3660 N   0  0  0  0  0  0  0  0  0  0  0  0
  186.7410  178.5840  138.9190 N   0  0  0  0  0  2  0  0  0  0  0  0
  189.2550  178.0040  137.2680 C   0  0  0  0  0  0  0  0  0  0  0  0
  189.4110  178.3340  136.0850 O   0  0  0  0  0  0  0  0  0  0  0  0
  188.2740  177.7870  140.5950 N   0  0  0  0  0  0  0  0  0  0  0  0
  187.9680  177.9930  139.3590 C   0  0  0  0  0  0  0  0  0  0  0  0
  191.0550  175.7970  143.4310 N   0  0  0  0  0  0  0  0  0  0  0  0
  190.2320  175.7580  142.4000 N   0  0  0  0  0  0  0  0  0  0  0  0
  191.6770  176.9920  143.4060 C   0  0  0  0  0  3  0  0  0  0  0  0
  190.3670  176.9320  141.7640 C   0  0  0  0  0  0  0  0  0  0  0  0
  191.2640  177.7390  142.3610 N   0  0  0  0  0  2  0  0  0  0  0  0
  181.9270  175.3370  137.3450 O   0  0  0  0  0  0  0  0  0  0  0  0
  181.6290  173.9800  137.4860 C   0  0  0  0  0  1  0  0  0  0  0  0
  183.7890  178.3400  142.9150 C   0  0  0  0  0  2  0  0  0  0  0  0
  183.7830  179.5630  143.6980 N   0  0  0  0  0  2  0  0  0  0  0  0
  183.9030  179.1690  145.0910 C   0  0  0  0  0  2  0  0  0  0  0  0
  185.3690  179.0970  145.4880 C   0  0  0  0  0  2  0  0  0  0  0  0
  185.7060  177.7530  146.1230 C   0  0  0  0  0  2  0  0  0  0  0  0
  187.5610  178.0530  147.8630 C   0  0  0  0  0  3  0  0  0  0  0  0
  189.4990  177.6860  146.3620 C   0  0  0  0  0  2  0  0  0  0  0  0
  187.1020  177.7110  146.5340 N   0  0  0  0  0  0  0  0  0  0  0  0
  189.0930  177.9650  147.8140 C   0  0  0  0  0  3  0  0  0  0  0  0
  188.2050  177.5350  145.6730 C   0  0  0  0  0  0  0  0  0  0  0  0
  188.0910  177.2930  144.4430 O   0  0  0  0  0  0  0  0  0  0  0  0
  1  4  1  0  0  0  0
  1  8  1  0  0  0  0
  2  3  2  0  0  0  0
  2  7  1  0  0  0  0
  3 26  1  0  0  0  0
  4  5  2  0  0  0  0
  5  9  1  0  0  0  0
  6  2  1  0  0  0  0
  8  6  2  0  0  0  0
  8  9  1  0  0  0  0
  9  3  1  0  0  0  0
 10  4  1  0  0  0  0
 11 18  1  0  0  0  0
 11 13  1  0  0  0  0
 12 17  1  0  0  0  0
 12 22  1  0  0  0  0
 13 12  2  0  0  0  0
 14 18  1  0  0  0  0
 14  6  1  0  0  0  0
 15 11  2  0  0  0  0
 16 15  2  0  0  0  0
 18 17  2  0  0  0  0
 20 19  1  0  0  0  0
 21 19  2  0  0  0  0
 22 23  1  0  0  0  0
 22 20  2  0  0  0  0
 23 21  1  0  0  0  0
 24 25  1  0  0  0  0
 24 10  1  0  0  0  0
 26 27  1  0  0  0  0
 27 28  1  0  0  0  0
 28 29  1  0  0  0  0
 29 30  1  0  0  0  0
 30 33  1  0  0  0  0
 32 34  1  0  0  0  0
 33 31  1  0  0  0  0
 34 31  2  0  0  0  0
 35 32  1  0  0  0  0
 35 33  1  0  0  0  0
 36 35  2  0  0  0  0
M  END
>  <MODEL>
2

>  <REMARK>
 VINA RESULT:      -7.7      3.245      6.139
  Name = 
  9 active torsions:
  status: ('A' for Active; 'I' for Inactive)
    1  A    between atoms: O_3  and  N_33
    2  A    between atoms: C_6  and  N_13
    3  A    between atoms: C_6  and  C_34
    4  A    between atoms: C_9  and  C_32
    5  A    between atoms: C_10  and  C_19
    6  A    between atoms: C_17  and  N_20
    7  A    between atoms: C_21  and  N_28
    8  A    between atoms: C_21  and  C_34
    9  A    between atoms: N_28  and  C_32
                            x       y       z     vdW  Elec       q    Type
                         _______ _______ _______ _____ _____    ______ ____

>  <TORSDO>
F 9

$$$$
=
 OpenBabel10232411093D

 36 40  0  0  0  0  0  0  0  0999 V2000
  187.1740  176.9880  136.7390 C   0  0  0  0  0  2  0  0  0  0  0  0
  189.9760  177.0920  138.9850 C   0  0  0  0  0  0  0  0  0  0  0  0
  189.0420  178.0090  139.4480 C   0  0  0  0  0  0  0  0  0  0  0  0
  186.1850  177.7100  137.6310 C   0  0  0  0  0  0  0  0  0  0  0  0
  186.7400  178.3400  138.6200 N   0  0  0  0  0  0  0  0  0  0  0  0
  189.5810  176.7010  137.7040 C   0  0  0  0  0  0  0  0  0  0  0  0
  191.0100  176.5480  139.7370 O   0  0  0  0  0  1  0  0  0  0  0  0
  188.4100  177.3900  137.4610 C   0  0  0  0  0  0  0  0  0  0  0  0
  188.1150  178.1720  138.4870 N   0  0  0  0  0  0  0  0  0  0  0  0
  184.7690  177.6730  137.4560 N   0  0  0  0  0  2  0  0  0  0  0  0
  191.8550  174.1020  135.9360 C   0  0  0  0  0  0  0  0  0  0  0  0
  193.3800  175.6000  135.8190 C   0  0  0  0  0  0  0  0  0  0  0  0
  193.1760  174.3600  135.4910 N   0  0  0  0  0  0  0  0  0  0  0  0
  190.0190  175.5480  136.9760 N   0  0  0  0  0  2  0  0  0  0  0  0
  191.1450  173.0710  135.5680 C   0  0  0  0  0  0  0  0  0  0  0  0
  190.4710  172.0930  135.2200 O   0  0  0  0  0  0  0  0  0  0  0  0
  192.2600  176.2460  136.4420 N   0  0  0  0  0  0  0  0  0  0  0  0
  191.3540  175.3290  136.5110 C   0  0  0  0  0  0  0  0  0  0  0  0
  196.7170  176.7720  135.5820 N   0  0  0  0  0  0  0  0  0  0  0  0
  195.8250  175.9160  136.0470 N   0  0  0  0  0  0  0  0  0  0  0  0
  196.0610  177.6540  134.8030 C   0  0  0  0  0  3  0  0  0  0  0  0
  194.6400  176.2940  135.5430 C   0  0  0  0  0  0  0  0  0  0  0  0
  194.7400  177.3820  134.7570 N   0  0  0  0  0  2  0  0  0  0  0  0
  184.2050  176.9970  136.4270 O   0  0  0  0  0  0  0  0  0  0  0  0
  183.4730  175.9700  137.0270 C   0  0  0  0  0  1  0  0  0  0  0  0
  188.8680  178.4210  140.8710 C   0  0  0  0  0  2  0  0  0  0  0  0
  188.4710  177.2760  141.6700 N   0  0  0  0  0  2  0  0  0  0  0  0
  187.4510  177.7430  142.5930 C   0  0  0  0  0  2  0  0  0  0  0  0
  187.4020  176.8400  143.8160 C   0  0  0  0  0  2  0  0  0  0  0  0
  188.7270  176.8520  144.5680 C   0  0  0  0  0  2  0  0  0  0  0  0
  187.2950  177.8090  146.4630 C   0  0  0  0  0  3  0  0  0  0  0  0
  189.0670  177.9530  148.1900 C   0  0  0  0  0  2  0  0  0  0  0  0
  188.5330  177.2610  145.9510 N   0  0  0  0  0  0  0  0  0  0  0  0
  187.5750  178.1870  147.9240 C   0  0  0  0  0  3  0  0  0  0  0  0
  189.5480  177.3740  146.9240 C   0  0  0  0  0  0  0  0  0  0  0  0
  190.7420  177.0310  146.7190 O   0  0  0  0  0  0  0  0  0  0  0  0
  1  8  1  0  0  0  0
  1  4  1  0  0  0  0
  2  3  2  0  0  0  0
  2  7  1  0  0  0  0
  3 26  1  0  0  0  0
  4  5  2  0  0  0  0
  6  2  1  0  0  0  0
  8  6  2  0  0  0  0
  8  9  1  0  0  0  0
  9  5  1  0  0  0  0
  9  3  1  0  0  0  0
 10  4  1  0  0  0  0
 11 18  1  0  0  0  0
 12 17  1  0  0  0  0
 13 12  2  0  0  0  0
 13 11  1  0  0  0  0
 14  6  1  0  0  0  0
 15 11  2  0  0  0  0
 16 15  2  0  0  0  0
 17 18  2  0  0  0  0
 18 14  1  0  0  0  0
 19 20  1  0  0  0  0
 21 19  2  0  0  0  0
 22 12  1  0  0  0  0
 22 20  2  0  0  0  0
 23 21  1  0  0  0  0
 23 22  1  0  0  0  0
 24 25  1  0  0  0  0
 24 10  1  0  0  0  0
 26 27  1  0  0  0  0
 27 28  1  0  0  0  0
 28 29  1  0  0  0  0
 29 30  1  0  0  0  0
 30 33  1  0  0  0  0
 31 34  2  0  0  0  0
 33 31  1  0  0  0  0
 33 35  1  0  0  0  0
 34 32  1  0  0  0  0
 35 32  1  0  0  0  0
 36 35  2  0  0  0  0
M  END
>  <MODEL>
3

>  <REMARK>
 VINA RESULT:      -7.4      3.050      5.577
  Name = 
  9 active torsions:
  status: ('A' for Active; 'I' for Inactive)
    1  A    between atoms: O_3  and  N_33
    2  A    between atoms: C_6  and  N_13
    3  A    between atoms: C_6  and  C_34
    4  A    between atoms: C_9  and  C_32
    5  A    between atoms: C_10  and  C_19
    6  A    between atoms: C_17  and  N_20
    7  A    between atoms: C_21  and  N_28
    8  A    between atoms: C_21  and  C_34
    9  A    between atoms: N_28  and  C_32
                            x       y       z     vdW  Elec       q    Type
                         _______ _______ _______ _____ _____    ______ ____

>  <TORSDO>
F 9

$$$$
=
 OpenBabel10232411093D

 36 40  0  0  0  0  0  0  0  0999 V2000
  187.9200  177.1380  144.9830 C   0  0  0  0  0  2  0  0  0  0  0  0
  186.1040  178.7310  142.3240 C   0  0  0  0  0  0  0  0  0  0  0  0
  185.3090  178.7910  143.4600 C   0  0  0  0  0  0  0  0  0  0  0  0
  187.0880  177.6700  146.1310 C   0  0  0  0  0  0  0  0  0  0  0  0
  185.9460  178.1630  145.7610 N   0  0  0  0  0  0  0  0  0  0  0  0
  187.1540  177.8520  142.5930 C   0  0  0  0  0  0  0  0  0  0  0  0
  185.9610  179.5340  141.2000 O   0  0  0  0  0  1  0  0  0  0  0  0
  186.9530  177.4350  143.8930 C   0  0  0  0  0  0  0  0  0  0  0  0
  185.8520  177.9790  144.3850 N   0  0  0  0  0  0  0  0  0  0  0  0
  187.5170  177.6900  147.4920 N   0  0  0  0  0  2  0  0  0  0  0  0
  189.7650  177.8460  139.7220 C   0  0  0  0  0  0  0  0  0  0  0  0
  188.1480  177.6740  138.3300 C   0  0  0  0  0  0  0  0  0  0  0  0
  189.4450  177.7490  138.3440 N   0  0  0  0  0  0  0  0  0  0  0  0
  188.3880  177.7310  141.8760 N   0  0  0  0  0  2  0  0  0  0  0  0
  190.9600  177.6640  140.2120 C   0  0  0  0  0  0  0  0  0  0  0  0
  192.0940  177.4920  140.6780 O   0  0  0  0  0  0  0  0  0  0  0  0
  187.5340  177.6750  139.6260 N   0  0  0  0  0  0  0  0  0  0  0  0
  188.5190  177.7850  140.4520 C   0  0  0  0  0  0  0  0  0  0  0  0
  185.7210  177.2940  135.7740 N   0  0  0  0  0  2  0  0  0  0  0  0
  186.0550  177.3310  137.0510 N   0  0  0  0  0  0  0  0  0  0  0  0
  186.8440  177.5020  135.0570 C   0  0  0  0  0  3  0  0  0  0  0  0
  187.3780  177.5600  137.0890 C   0  0  0  0  0  0  0  0  0  0  0  0
  187.9140  177.6750  135.8600 N   0  0  0  0  0  0  0  0  0  0  0  0
  188.7190  177.1860  147.8580 O   0  0  0  0  0  0  0  0  0  0  0  0
  189.3530  178.2250  148.5430 C   0  0  0  0  0  1  0  0  0  0  0  0
  184.2950  179.8450  143.7510 C   0  0  0  0  0  2  0  0  0  0  0  0
  183.2700  179.3140  144.6310 N   0  0  0  0  0  2  0  0  0  0  0  0
  182.4550  178.4170  143.8300 C   0  0  0  0  0  2  0  0  0  0  0  0
  181.3540  179.1990  143.1290 C   0  0  0  0  0  2  0  0  0  0  0  0
  180.8940  178.4910  141.8600 C   0  0  0  0  0  2  0  0  0  0  0  0
  181.0370  180.0810  139.8590 C   0  0  0  0  0  3  0  0  0  0  0  0
  183.0990  179.1600  138.8370 C   0  0  0  0  0  2  0  0  0  0  0  0
  181.5760  179.0280  140.6920 N   0  0  0  0  0  0  0  0  0  0  0  0
  182.0330  180.2530  138.7020 C   0  0  0  0  0  3  0  0  0  0  0  0
  182.7300  178.4820  140.0930 C   0  0  0  0  0  0  0  0  0  0  0  0
  183.3640  177.5070  140.5750 O   0  0  0  0  0  0  0  0  0  0  0  0
  1  4  1  0  0  0  0
  2  6  1  0  0  0  0
  2  3  2  0  0  0  0
  3 26  1  0  0  0  0
  3  9  1  0  0  0  0
  4 10  1  0  0  0  0
  5  4  2  0  0  0  0
  6  8  2  0  0  0  0
  7  2  1  0  0  0  0
  8  9  1  0  0  0  0
  8  1  1  0  0  0  0
  9  5  1  0  0  0  0
 10 24  1  0  0  0  0
 11 15  2  0  0  0  0
 11 18  1  0  0  0  0
 12 13  2  0  0  0  0
 12 17  1  0  0  0  0
 13 11  1  0  0  0  0
 14  6  1  0  0  0  0
 15 16  2  0  0  0  0
 17 18  2  0  0  0  0
 18 14  1  0  0  0  0
 19 20  1  0  0  0  0
 20 22  2  0  0  0  0
 21 19  1  0  0  0  0
 21 23  2  0  0  0  0
 22 12  1  0  0  0  0
 23 22  1  0  0  0  0
 24 25  1  0  0  0  0
 26 27  1  0  0  0  0
 28 27  1  0  0  0  0
 29 28  1  0  0  0  0
 30 29  1  0  0  0  0
 31 33  1  0  0  0  0
 32 35  1  0  0  0  0
 33 30  1  0  0  0  0
 34 32  1  0  0  0  0
 34 31  2  0  0  0  0
 35 36  2  0  0  0  0
 35 33  1  0  0  0  0
M  END
>  <MODEL>
4

>  <REMARK>
 VINA RESULT:      -7.3      3.163      5.217
  Name = 
  9 active torsions:
  status: ('A' for Active; 'I' for Inactive)
    1  A    between atoms: O_3  and  N_33
    2  A    between atoms: C_6  and  N_13
    3  A    between atoms: C_6  and  C_34
    4  A    between atoms: C_9  and  C_32
    5  A    between atoms: C_10  and  C_19
    6  A    between atoms: C_17  and  N_20
    7  A    between atoms: C_21  and  N_28
    8  A    between atoms: C_21  and  C_34
    9  A    between atoms: N_28  and  C_32
                            x       y       z     vdW  Elec       q    Type
                         _______ _______ _______ _____ _____    ______ ____

>  <TORSDO>
F 9

$$$$
=
 OpenBabel10232411093D

 36 40  0  0  0  0  0  0  0  0999 V2000
  186.9880  178.0420  138.7490 C   0  0  0  0  0  2  0  0  0  0  0  0
  189.9570  176.9090  140.4240 C   0  0  0  0  0  0  0  0  0  0  0  0
  189.4030  177.9150  141.2030 C   0  0  0  0  0  0  0  0  0  0  0  0
  186.3790  178.7860  139.9190 C   0  0  0  0  0  0  0  0  0  0  0  0
  187.2160  179.0150  140.8830 N   0  0  0  0  0  0  0  0  0  0  0  0
  189.3060  176.9260  139.1900 C   0  0  0  0  0  0  0  0  0  0  0  0
  190.8710  175.9600  140.8670 O   0  0  0  0  0  1  0  0  0  0  0  0
  188.3690  177.9350  139.2900 C   0  0  0  0  0  0  0  0  0  0  0  0
  188.4510  178.5230  140.4730 N   0  0  0  0  0  0  0  0  0  0  0  0
  185.0050  179.1630  140.0030 N   0  0  0  0  0  2  0  0  0  0  0  0
  190.4660  174.2770  136.6040 C   0  0  0  0  0  0  0  0  0  0  0  0
  192.3320  175.3150  136.4620 C   0  0  0  0  0  0  0  0  0  0  0  0
  191.7330  174.2730  135.9690 N   0  0  0  0  0  0  0  0  0  0  0  0
  189.2870  175.8870  138.2050 N   0  0  0  0  0  2  0  0  0  0  0  0
  189.4440  173.5720  136.2030 C   0  0  0  0  0  0  0  0  0  0  0  0
  188.4730  172.9030  135.8240 O   0  0  0  0  0  0  0  0  0  0  0  0
  191.5430  176.0770  137.3860 N   0  0  0  0  0  0  0  0  0  0  0  0
  190.4260  175.4360  137.4650 C   0  0  0  0  0  0  0  0  0  0  0  0
  195.4580  176.8750  135.8600 N   0  0  0  0  0  0  0  0  0  0  0  0
  194.2360  176.8960  136.3580 N   0  0  0  0  0  0  0  0  0  0  0  0
  195.6390  175.6680  135.2860 C   0  0  0  0  0  3  0  0  0  0  0  0
  193.6920  175.7010  136.0780 C   0  0  0  0  0  0  0  0  0  0  0  0
  194.5380  174.8980  135.4060 N   0  0  0  0  0  2  0  0  0  0  0  0
  184.1410  178.9020  138.9940 O   0  0  0  0  0  0  0  0  0  0  0  0
  182.9780  178.4500  139.6210 C   0  0  0  0  0  1  0  0  0  0  0  0
  189.5400  178.0360  142.6830 C   0  0  0  0  0  2  0  0  0  0  0  0
  189.2870  176.7500  143.3080 N   0  0  0  0  0  2  0  0  0  0  0  0
  189.5610  176.9130  144.7250 C   0  0  0  0  0  2  0  0  0  0  0  0
  188.6890  178.0170  145.3020 C   0  0  0  0  0  2  0  0  0  0  0  0
  187.4550  177.4470  145.9900 C   0  0  0  0  0  2  0  0  0  0  0  0
  185.9790  177.7830  143.9250 C   0  0  0  0  0  3  0  0  0  0  0  0
  184.2130  179.1600  144.9870 C   0  0  0  0  0  2  0  0  0  0  0  0
  186.2380  177.9150  145.3420 N   0  0  0  0  0  0  0  0  0  0  0  0
  184.6430  178.4970  143.6730 C   0  0  0  0  0  3  0  0  0  0  0  0
  185.2510  178.7270  145.9390 C   0  0  0  0  0  0  0  0  0  0  0  0
  185.2700  179.0580  147.1530 O   0  0  0  0  0  0  0  0  0  0  0  0
  1  8  1  0  0  0  0
  1  4  1  0  0  0  0
  2  7  1  0  0  0  0
  2  3  2  0  0  0  0
  3 26  1  0  0  0  0
  4 10  1  0  0  0  0
  4  5  2  0  0  0  0
  6  8  2  0  0  0  0
  6  2  1  0  0  0  0
  8  9  1  0  0  0  0
  9  5  1  0  0  0  0
  9  3  1  0  0  0  0
 11 18  1  0  0  0  0
 12 17  1  0  0  0  0
 13 12  2  0  0  0  0
 13 11  1  0  0  0  0
 14  6  1  0  0  0  0
 15 11  2  0  0  0  0
 16 15  2  0  0  0  0
 17 18  2  0  0  0  0
 18 14  1  0  0  0  0
 19 20  1  0  0  0  0
 21 23  1  0  0  0  0
 21 19  2  0  0  0  0
 22 20  2  0  0  0  0
 22 12  1  0  0  0  0
 23 22  1  0  0  0  0
 24 25  1  0  0  0  0
 24 10  1  0  0  0  0
 26 27  1  0  0  0  0
 27 28  1  0  0  0  0
 28 29  1  0  0  0  0
 29 30  1  0  0  0  0
 31 33  1  0  0  0  0
 32 35  1  0  0  0  0
 33 35  1  0  0  0  0
 33 30  1  0  0  0  0
 34 31  2  0  0  0  0
 34 32  1  0  0  0  0
 35 36  2  0  0  0  0
M  END
>  <MODEL>
5

>  <REMARK>
 VINA RESULT:      -7.3      2.320      4.919
  Name = 
  9 active torsions:
  status: ('A' for Active; 'I' for Inactive)
    1  A    between atoms: O_3  and  N_33
    2  A    between atoms: C_6  and  N_13
    3  A    between atoms: C_6  and  C_34
    4  A    between atoms: C_9  and  C_32
    5  A    between atoms: C_10  and  C_19
    6  A    between atoms: C_17  and  N_20
    7  A    between atoms: C_21  and  N_28
    8  A    between atoms: C_21  and  C_34
    9  A    between atoms: N_28  and  C_32
                            x       y       z     vdW  Elec       q    Type
                         _______ _______ _______ _____ _____    ______ ____

>  <TORSDO>
F 9

$$$$
=
 OpenBabel10232411093D

 36 40  0  0  0  0  0  0  0  0999 V2000
  190.9290  176.4750  145.1080 C   0  0  0  0  0  2  0  0  0  0  0  0
  188.2890  177.6060  142.9500 C   0  0  0  0  0  0  0  0  0  0  0  0
  187.7840  177.5840  144.2430 C   0  0  0  0  0  0  0  0  0  0  0  0
  190.3080  176.9120  146.4190 C   0  0  0  0  0  0  0  0  0  0  0  0
  189.0430  177.1850  146.3290 N   0  0  0  0  0  0  0  0  0  0  0  0
  189.5120  176.9330  142.9660 C   0  0  0  0  0  0  0  0  0  0  0  0
  187.7470  178.3190  141.8870 O   0  0  0  0  0  1  0  0  0  0  0  0
  189.6970  176.5510  144.2790 C   0  0  0  0  0  0  0  0  0  0  0  0
  188.6630  176.9210  145.0160 N   0  0  0  0  0  0  0  0  0  0  0  0
  191.0320  177.0710  147.6380 N   0  0  0  0  0  2  0  0  0  0  0  0
  191.3420  177.2960  139.5640 C   0  0  0  0  0  0  0  0  0  0  0  0
  189.4830  176.8870  138.5850 C   0  0  0  0  0  0  0  0  0  0  0  0
  190.7220  177.1500  138.2970 N   0  0  0  0  0  0  0  0  0  0  0  0
  190.5450  176.9900  141.9760 N   0  0  0  0  0  2  0  0  0  0  0  0
  192.6330  177.2910  139.7530 C   0  0  0  0  0  0  0  0  0  0  0  0
  193.8570  177.2880  139.9340 O   0  0  0  0  0  0  0  0  0  0  0  0
  189.1990  176.8030  139.9880 N   0  0  0  0  0  0  0  0  0  0  0  0
  190.3260  177.0580  140.5630 C   0  0  0  0  0  0  0  0  0  0  0  0
  187.3480  176.8830  135.7550 N   0  0  0  0  0  2  0  0  0  0  0  0
  188.3760  177.3730  136.4230 N   0  0  0  0  0  0  0  0  0  0  0  0
  186.8290  175.8800  136.4910 C   0  0  0  0  0  3  0  0  0  0  0  0
  188.4640  176.6590  137.5570 C   0  0  0  0  0  0  0  0  0  0  0  0
  187.5130  175.7100  137.6410 N   0  0  0  0  0  0  0  0  0  0  0  0
  192.3570  176.7970  147.7090 O   0  0  0  0  0  0  0  0  0  0  0  0
  192.4290  175.4170  147.9130 C   0  0  0  0  0  1  0  0  0  0  0  0
  186.6960  178.4630  144.7610 C   0  0  0  0  0  2  0  0  0  0  0  0
  186.1340  177.8900  145.9700 N   0  0  0  0  0  2  0  0  0  0  0  0
  184.7850  178.4130  146.0940 C   0  0  0  0  0  2  0  0  0  0  0  0
  184.4140  179.2000  144.8460 C   0  0  0  0  0  2  0  0  0  0  0  0
  182.9920  178.8890  144.3970 C   0  0  0  0  0  2  0  0  0  0  0  0
  184.1170  178.4120  142.1470 C   0  0  0  0  0  3  0  0  0  0  0  0
  182.1070  178.6130  140.7100 C   0  0  0  0  0  2  0  0  0  0  0  0
  182.9440  178.6420  142.9630 N   0  0  0  0  0  0  0  0  0  0  0  0
  183.6090  178.3030  140.7020 C   0  0  0  0  0  3  0  0  0  0  0  0
  181.8070  178.7900  142.1420 C   0  0  0  0  0  0  0  0  0  0  0  0
  180.6620  179.0610  142.5900 O   0  0  0  0  0  0  0  0  0  0  0  0
  1  4  1  0  0  0  0
  2  6  1  0  0  0  0
  2  3  2  0  0  0  0
  3 26  1  0  0  0  0
  3  9  1  0  0  0  0
  4 10  1  0  0  0  0
  5  4  2  0  0  0  0
  6  8  2  0  0  0  0
  7  2  1  0  0  0  0
  8  9  1  0  0  0  0
  8  1  1  0  0  0  0
  9  5  1  0  0  0  0
 10 24  1  0  0  0  0
 11 15  2  0  0  0  0
 11 18  1  0  0  0  0
 12 17  1  0  0  0  0
 13 12  2  0  0  0  0
 13 11  1  0  0  0  0
 14  6  1  0  0  0  0
 15 16  2  0  0  0  0
 17 18  2  0  0  0  0
 18 14  1  0  0  0  0
 19 20  1  0  0  0  0
 19 21  1  0  0  0  0
 20 22  2  0  0  0  0
 21 23  2  0  0  0  0
 22 23  1  0  0  0  0
 22 12  1  0  0  0  0
 24 25  1  0  0  0  0
 26 27  1  0  0  0  0
 27 28  1  0  0  0  0
 29 28  1  0  0  0  0
 30 29  1  0  0  0  0
 31 33  1  0  0  0  0
 32 35  1  0  0  0  0
 33 30  1  0  0  0  0
 34 32  1  0  0  0  0
 34 31  2  0  0  0  0
 35 36  2  0  0  0  0
 35 33  1  0  0  0  0
M  END
>  <MODEL>
6

>  <REMARK>
 VINA RESULT:      -7.2      2.731      4.038
  Name = 
  9 active torsions:
  status: ('A' for Active; 'I' for Inactive)
    1  A    between atoms: O_3  and  N_33
    2  A    between atoms: C_6  and  N_13
    3  A    between atoms: C_6  and  C_34
    4  A    between atoms: C_9  and  C_32
    5  A    between atoms: C_10  and  C_19
    6  A    between atoms: C_17  and  N_20
    7  A    between atoms: C_21  and  N_28
    8  A    between atoms: C_21  and  C_34
    9  A    between atoms: N_28  and  C_32
                            x       y       z     vdW  Elec       q    Type
                         _______ _______ _______ _____ _____    ______ ____

>  <TORSDO>
F 9

$$$$
=
 OpenBabel10232411093D

 36 40  0  0  0  0  0  0  0  0999 V2000
  188.7930  178.3410  139.2170 C   0  0  0  0  0  2  0  0  0  0  0  0
  190.4770  176.6740  141.9170 C   0  0  0  0  0  0  0  0  0  0  0  0
  189.2740  177.1530  142.4160 C   0  0  0  0  0  0  0  0  0  0  0  0
  187.4190  178.4000  139.8530 C   0  0  0  0  0  0  0  0  0  0  0  0
  187.4280  178.1720  141.1300 N   0  0  0  0  0  0  0  0  0  0  0  0
  190.6740  177.2560  140.6640 C   0  0  0  0  0  0  0  0  0  0  0  0
  191.2450  175.6720  142.4970 O   0  0  0  0  0  1  0  0  0  0  0  0
  189.5640  178.0490  140.4540 C   0  0  0  0  0  0  0  0  0  0  0  0
  188.7570  177.9960  141.5020 N   0  0  0  0  0  0  0  0  0  0  0  0
  186.2090  178.6270  139.1320 N   0  0  0  0  0  2  0  0  0  0  0  0
  192.0520  175.7790  137.3510 C   0  0  0  0  0  0  0  0  0  0  0  0
  190.1860  174.7610  137.0960 C   0  0  0  0  0  0  0  0  0  0  0  0
  191.3320  174.9040  136.4990 N   0  0  0  0  0  0  0  0  0  0  0  0
  191.5750  176.8220  139.6380 N   0  0  0  0  0  2  0  0  0  0  0  0
  193.3400  175.9730  137.2820 C   0  0  0  0  0  0  0  0  0  0  0  0
  194.5630  176.1580  137.2180 O   0  0  0  0  0  0  0  0  0  0  0  0
  190.0710  175.4590  138.3440 N   0  0  0  0  0  0  0  0  0  0  0  0
  191.1980  176.0710  138.4790 C   0  0  0  0  0  0  0  0  0  0  0  0
  187.5660  173.2350  135.2600 N   0  0  0  0  0  2  0  0  0  0  0  0
  188.4470  174.2050  135.4230 N   0  0  0  0  0  0  0  0  0  0  0  0
  187.7100  172.3810  136.2930 C   0  0  0  0  0  3  0  0  0  0  0  0
  189.1130  173.9240  136.5540 C   0  0  0  0  0  0  0  0  0  0  0  0
  188.6830  172.7880  137.1340 N   0  0  0  0  0  0  0  0  0  0  0  0
  186.2180  178.8470  137.7960 O   0  0  0  0  0  0  0  0  0  0  0  0
  185.5050  177.7780  137.2490 C   0  0  0  0  0  1  0  0  0  0  0  0
  188.5040  176.5510  143.5420 C   0  0  0  0  0  2  0  0  0  0  0  0
  189.0590  176.9920  144.8090 N   0  0  0  0  0  2  0  0  0  0  0  0
  187.9820  177.6420  145.5340 C   0  0  0  0  0  2  0  0  0  0  0  0
  186.6790  177.5130  144.7600 C   0  0  0  0  0  2  0  0  0  0  0  0
  185.9800  178.8610  144.6240 C   0  0  0  0  0  2  0  0  0  0  0  0
  184.4040  178.5360  142.6310 C   0  0  0  0  0  3  0  0  0  0  0  0
  182.2590  178.7900  143.8470 C   0  0  0  0  0  2  0  0  0  0  0  0
  184.6530  178.6990  144.0480 N   0  0  0  0  0  0  0  0  0  0  0  0
  182.8770  178.5050  142.4740 C   0  0  0  0  0  3  0  0  0  0  0  0
  183.4330  178.8770  144.7340 C   0  0  0  0  0  0  0  0  0  0  0  0
  183.3630  179.1030  145.9700 O   0  0  0  0  0  0  0  0  0  0  0  0
  1  4  1  0  0  0  0
  1  8  1  0  0  0  0
  2  3  2  0  0  0  0
  2  7  1  0  0  0  0
  3 26  1  0  0  0  0
  4  5  2  0  0  0  0
  5  9  1  0  0  0  0
  6  2  1  0  0  0  0
  8  6  2  0  0  0  0
  8  9  1  0  0  0  0
  9  3  1  0  0  0  0
 10  4  1  0  0  0  0
 11 18  1  0  0  0  0
 12 17  1  0  0  0  0
 13 12  2  0  0  0  0
 13 11  1  0  0  0  0
 14  6  1  0  0  0  0
 15 11  2  0  0  0  0
 16 15  2  0  0  0  0
 17 18  2  0  0  0  0
 18 14  1  0  0  0  0
 19 20  1  0  0  0  0
 19 21  1  0  0  0  0
 20 22  2  0  0  0  0
 21 23  2  0  0  0  0
 22 12  1  0  0  0  0
 22 23  1  0  0  0  0
 24 10  1  0  0  0  0
 25 24  1  0  0  0  0
 26 27  1  0  0  0  0
 27 28  1  0  0  0  0
 29 28  1  0  0  0  0
 30 29  1  0  0  0  0
 31 33  1  0  0  0  0
 32 35  1  0  0  0  0
 33 30  1  0  0  0  0
 33 35  1  0  0  0  0
 34 31  2  0  0  0  0
 34 32  1  0  0  0  0
 35 36  2  0  0  0  0
M  END
>  <MODEL>
7

>  <REMARK>
 VINA RESULT:      -7.2      1.731      4.011
  Name = 
  9 active torsions:
  status: ('A' for Active; 'I' for Inactive)
    1  A    between atoms: O_3  and  N_33
    2  A    between atoms: C_6  and  N_13
    3  A    between atoms: C_6  and  C_34
    4  A    between atoms: C_9  and  C_32
    5  A    between atoms: C_10  and  C_19
    6  A    between atoms: C_17  and  N_20
    7  A    between atoms: C_21  and  N_28
    8  A    between atoms: C_21  and  C_34
    9  A    between atoms: N_28  and  C_32
                            x       y       z     vdW  Elec       q    Type
                         _______ _______ _______ _____ _____    ______ ____

>  <TORSDO>
F 9

$$$$
=
 OpenBabel10232411093D

 36 40  0  0  0  0  0  0  0  0999 V2000
  192.7630  177.0370  140.6190 C   0  0  0  0  0  2  0  0  0  0  0  0
  189.2550  177.5960  141.1510 C   0  0  0  0  0  0  0  0  0  0  0  0
  189.4670  177.5880  139.7800 C   0  0  0  0  0  0  0  0  0  0  0  0
  192.6790  176.6710  139.1510 C   0  0  0  0  0  0  0  0  0  0  0  0
  191.5520  176.9960  138.5970 N   0  0  0  0  0  0  0  0  0  0  0  0
  190.5050  177.6570  141.7690 C   0  0  0  0  0  0  0  0  0  0  0  0
  188.0280  177.4060  141.7760 O   0  0  0  0  0  1  0  0  0  0  0  0
  191.4190  177.6620  140.7360 C   0  0  0  0  0  0  0  0  0  0  0  0
  190.7950  177.6430  139.5690 N   0  0  0  0  0  0  0  0  0  0  0  0
  193.7050  175.9850  138.4340 N   0  0  0  0  0  2  0  0  0  0  0  0
  190.1170  176.8540  145.5460 C   0  0  0  0  0  0  0  0  0  0  0  0
  188.1550  177.7050  145.4670 C   0  0  0  0  0  0  0  0  0  0  0  0
  188.9640  177.1470  146.3160 N   0  0  0  0  0  0  0  0  0  0  0  0
  190.8130  177.3470  143.1340 N   0  0  0  0  0  2  0  0  0  0  0  0
  191.2780  176.5420  146.0530 C   0  0  0  0  0  0  0  0  0  0  0  0
  192.3800  176.2460  146.5330 O   0  0  0  0  0  0  0  0  0  0  0  0
  188.6880  177.8570  144.1440 N   0  0  0  0  0  0  0  0  0  0  0  0
  189.8660  177.3340  144.2070 C   0  0  0  0  0  0  0  0  0  0  0  0
  185.1970  178.8630  147.0410 N   0  0  0  0  0  0  0  0  0  0  0  0
  186.4600  178.4820  147.0970 N   0  0  0  0  0  0  0  0  0  0  0  0
  184.8090  178.7830  145.7530 C   0  0  0  0  0  3  0  0  0  0  0  0
  186.8190  178.1760  145.8400 C   0  0  0  0  0  0  0  0  0  0  0  0
  185.8130  178.3500  144.9630 N   0  0  0  0  0  2  0  0  0  0  0  0
  194.8700  175.6390  139.0330 O   0  0  0  0  0  0  0  0  0  0  0  0
  195.2460  174.4390  138.4240 C   0  0  0  0  0  1  0  0  0  0  0  0
  188.4630  177.1870  138.7520 C   0  0  0  0  0  2  0  0  0  0  0  0
  187.5550  178.2890  138.4940 N   0  0  0  0  0  2  0  0  0  0  0  0
  187.0410  178.1010  137.1490 C   0  0  0  0  0  2  0  0  0  0  0  0
  185.9530  177.0380  137.1490 C   0  0  0  0  0  2  0  0  0  0  0  0
  184.5650  177.6660  137.1150 C   0  0  0  0  0  2  0  0  0  0  0  0
  183.1220  176.7720  139.0320 C   0  0  0  0  0  3  0  0  0  0  0  0
  183.2890  178.7380  140.5320 C   0  0  0  0  0  2  0  0  0  0  0  0
  184.0070  177.7620  138.4560 N   0  0  0  0  0  0  0  0  0  0  0  0
  182.7080  177.3250  140.4030 C   0  0  0  0  0  3  0  0  0  0  0  0
  184.0750  178.8930  139.2950 C   0  0  0  0  0  0  0  0  0  0  0  0
  184.7250  179.9310  139.0030 O   0  0  0  0  0  0  0  0  0  0  0  0
  1  8  1  0  0  0  0
  2  6  1  0  0  0  0
  2  7  1  0  0  0  0
  3  2  2  0  0  0  0
  4  1  1  0  0  0  0
  5  4  2  0  0  0  0
  5  9  1  0  0  0  0
  6 14  1  0  0  0  0
  8  6  2  0  0  0  0
  9  3  1  0  0  0  0
  9  8  1  0  0  0  0
 10 24  1  0  0  0  0
 10  4  1  0  0  0  0
 11 15  2  0  0  0  0
 11 13  1  0  0  0  0
 12 22  1  0  0  0  0
 12 13  2  0  0  0  0
 14 18  1  0  0  0  0
 15 16  2  0  0  0  0
 17 18  2  0  0  0  0
 17 12  1  0  0  0  0
 18 11  1  0  0  0  0
 19 20  1  0  0  0  0
 21 19  2  0  0  0  0
 22 20  2  0  0  0  0
 23 21  1  0  0  0  0
 23 22  1  0  0  0  0
 25 24  1  0  0  0  0
 26  3  1  0  0  0  0
 27 26  1  0  0  0  0
 28 29  1  0  0  0  0
 28 27  1  0  0  0  0
 30 29  1  0  0  0  0
 30 33  1  0  0  0  0
 31 34  2  0  0  0  0
 33 31  1  0  0  0  0
 33 35  1  0  0  0  0
 34 32  1  0  0  0  0
 35 32  1  0  0  0  0
 36 35  2  0  0  0  0
M  END
>  <MODEL>
8

>  <REMARK>
 VINA RESULT:      -7.2      3.085      7.832
  Name = 
  9 active torsions:
  status: ('A' for Active; 'I' for Inactive)
    1  A    between atoms: O_3  and  N_33
    2  A    between atoms: C_6  and  N_13
    3  A    between atoms: C_6  and  C_34
    4  A    between atoms: C_9  and  C_32
    5  A    between atoms: C_10  and  C_19
    6  A    between atoms: C_17  and  N_20
    7  A    between atoms: C_21  and  N_28
    8  A    between atoms: C_21  and  C_34
    9  A    between atoms: N_28  and  C_32
                            x       y       z     vdW  Elec       q    Type
                         _______ _______ _______ _____ _____    ______ ____

>  <TORSDO>
F 9

$$$$
=
 OpenBabel10232411093D

 36 40  0  0  0  0  0  0  0  0999 V2000
  190.0270  177.3880  145.5860 C   0  0  0  0  0  2  0  0  0  0  0  0
  188.8080  177.7610  142.2270 C   0  0  0  0  0  0  0  0  0  0  0  0
  190.1270  177.3360  142.1430 C   0  0  0  0  0  0  0  0  0  0  0  0
  191.2570  176.5670  145.2550 C   0  0  0  0  0  0  0  0  0  0  0  0
  191.5760  176.5940  143.9980 N   0  0  0  0  0  0  0  0  0  0  0  0
  188.5710  178.1310  143.5520 C   0  0  0  0  0  0  0  0  0  0  0  0
  187.8660  177.6670  141.2110 O   0  0  0  0  0  1  0  0  0  0  0  0
  189.7590  177.8910  144.2130 C   0  0  0  0  0  0  0  0  0  0  0  0
  190.6730  177.4430  143.3680 N   0  0  0  0  0  0  0  0  0  0  0  0
  191.9810  175.7870  146.2060 N   0  0  0  0  0  2  0  0  0  0  0  0
  184.7440  178.4040  144.1310 C   0  0  0  0  0  0  0  0  0  0  0  0
  184.5110  178.7770  142.0360 C   0  0  0  0  0  0  0  0  0  0  0  0
  183.7930  178.6670  143.1130 N   0  0  0  0  0  0  0  0  0  0  0  0
  187.3000  178.3030  144.1900 N   0  0  0  0  0  2  0  0  0  0  0  0
  184.4950  178.4970  145.4090 C   0  0  0  0  0  0  0  0  0  0  0  0
  184.2600  178.5840  146.6210 O   0  0  0  0  0  0  0  0  0  0  0  0
  185.9240  178.6410  142.2430 N   0  0  0  0  0  0  0  0  0  0  0  0
  186.0460  178.4100  143.5070 C   0  0  0  0  0  0  0  0  0  0  0  0
  182.5760  178.9940  139.0750 N   0  0  0  0  0  2  0  0  0  0  0  0
  182.7760  178.5160  140.2890 N   0  0  0  0  0  0  0  0  0  0  0  0
  183.6060  179.8140  138.7890 C   0  0  0  0  0  3  0  0  0  0  0  0
  183.9270  179.0540  140.7220 C   0  0  0  0  0  0  0  0  0  0  0  0
  184.4830  179.8760  139.8120 N   0  0  0  0  0  0  0  0  0  0  0  0
  191.6230  175.7590  147.5110 O   0  0  0  0  0  0  0  0  0  0  0  0
  192.8280  175.7920  148.2170 C   0  0  0  0  0  1  0  0  0  0  0  0
  190.7070  176.5370  141.0250 C   0  0  0  0  0  2  0  0  0  0  0  0
  191.6980  177.3270  140.3180 N   0  0  0  0  0  2  0  0  0  0  0  0
  191.9360  176.6610  139.0490 C   0  0  0  0  0  2  0  0  0  0  0  0
  190.6310  176.1070  138.4970 C   0  0  0  0  0  2  0  0  0  0  0  0
  190.1750  176.8840  137.2680 C   0  0  0  0  0  2  0  0  0  0  0  0
  187.7260  176.1570  137.1020 C   0  0  0  0  0  3  0  0  0  0  0  0
  186.6890  178.3990  137.3030 C   0  0  0  0  0  2  0  0  0  0  0  0
  188.7470  177.1570  137.3280 N   0  0  0  0  0  0  0  0  0  0  0  0
  186.3850  176.9030  137.1640 C   0  0  0  0  0  3  0  0  0  0  0  0
  188.1590  178.4360  137.4090 C   0  0  0  0  0  0  0  0  0  0  0  0
  188.8260  179.4960  137.5400 O   0  0  0  0  0  0  0  0  0  0  0  0
  2  6  1  0  0  0  0
  3  2  2  0  0  0  0
  3  9  1  0  0  0  0
  4  1  1  0  0  0  0
  4 10  1  0  0  0  0
  5  4  2  0  0  0  0
  6 14  1  0  0  0  0
  6  8  2  0  0  0  0
  7  2  1  0  0  0  0
  8  1  1  0  0  0  0
  9  5  1  0  0  0  0
  9  8  1  0  0  0  0
 10 24  1  0  0  0  0
 11 15  2  0  0  0  0
 12 17  1  0  0  0  0
 12 13  2  0  0  0  0
 13 11  1  0  0  0  0
 15 16  2  0  0  0  0
 17 18  2  0  0  0  0
 18 11  1  0  0  0  0
 18 14  1  0  0  0  0
 19 20  1  0  0  0  0
 20 22  2  0  0  0  0
 21 19  1  0  0  0  0
 21 23  2  0  0  0  0
 22 12  1  0  0  0  0
 23 22  1  0  0  0  0
 24 25  1  0  0  0  0
 26  3  1  0  0  0  0
 27 26  1  0  0  0  0
 28 27  1  0  0  0  0
 29 28  1  0  0  0  0
 30 33  1  0  0  0  0
 30 29  1  0  0  0  0
 31 34  2  0  0  0  0
 31 33  1  0  0  0  0
 32 35  1  0  0  0  0
 33 35  1  0  0  0  0
 34 32  1  0  0  0  0
 35 36  2  0  0  0  0
M  END
>  <MODEL>
9

>  <REMARK>
 VINA RESULT:      -7.2      2.744      7.858
  Name = 
  9 active torsions:
  status: ('A' for Active; 'I' for Inactive)
    1  A    between atoms: O_3  and  N_33
    2  A    between atoms: C_6  and  N_13
    3  A    between atoms: C_6  and  C_34
    4  A    between atoms: C_9  and  C_32
    5  A    between atoms: C_10  and  C_19
    6  A    between atoms: C_17  and  N_20
    7  A    between atoms: C_21  and  N_28
    8  A    between atoms: C_21  and  C_34
    9  A    between atoms: N_28  and  C_32
                            x       y       z     vdW  Elec       q    Type
                         _______ _______ _______ _____ _____    ______ ____

>  <TORSDO>
F 9

$$$$
