=
 OpenBabel10232408273D

 45 49  0  0  1  0  0  0  0  0999 V2000
  188.5990  176.9550  138.1150 C   0  0  0  0  0  0  0  0  0  0  0  0
  189.7190  177.1320  141.6160 C   0  0  0  0  0  0  0  0  0  0  0  0
  187.5350  177.0940  137.2210 C   0  0  0  0  0  3  0  0  0  0  0  0
  189.5910  177.2350  143.0630 C   0  0  2  0  0  3  0  0  0  0  0  0
  186.1610  178.1580  138.8610 C   0  0  0  0  0  0  0  0  0  0  0  0
  188.4160  177.4370  139.4280 C   0  0  0  0  0  0  0  0  0  0  0  0
  186.3700  177.6750  137.6050 N   0  0  0  0  0  0  0  0  0  0  0  0
  187.1000  177.7110  142.3980 C   0  0  0  0  0  2  0  0  0  0  0  0
  187.1970  178.0530  139.8220 C   0  0  0  0  0  0  0  0  0  0  0  0
  189.3460  177.1980  140.4860 C   0  0  0  0  0  0  0  0  0  0  0  0
  188.2840  178.0170  143.3570 C   0  0  0  0  0  2  0  0  0  0  0  0
  187.0640  178.6940  141.2070 C   0  0  0  0  0  2  0  0  0  0  0  0
  189.8480  176.3050  137.6340 C   0  0  0  0  0  0  0  0  0  0  0  0
  191.8690  174.8990  135.8190 C   0  0  0  0  0  2  0  0  0  0  0  0
  192.3870  176.4680  137.7910 C   0  0  0  0  0  2  0  0  0  0  0  0
  190.9760  174.1650  136.8090 C   0  0  0  0  0  2  0  0  0  0  0  0
  192.9120  175.7670  136.5350 C   0  0  1  0  0  3  0  0  0  0  0  0
  191.0740  177.1820  137.5000 C   0  0  0  0  0  2  0  0  0  0  0  0
  189.8220  175.0070  137.2740 C   0  0  0  0  0  3  0  0  0  0  0  0
  194.2170  175.0130  136.7970 C   0  0  0  0  0  2  0  0  0  0  0  0
  195.2570  174.1560  138.9000 C   0  0  0  0  0  2  0  0  0  0  0  0
  194.3230  172.6160  137.3580 C   0  0  0  0  0  2  0  0  0  0  0  0
  194.1130  173.9880  137.9220 C   0  0  2  0  0  3  0  0  0  0  0  0
  196.2210  173.1710  138.6420 O   0  0  0  0  0  0  0  0  0  0  0  0
  195.5010  172.0800  138.1350 C   0  0  0  0  0  2  0  0  0  0  0  0
  184.5420  180.0420  138.8240 N   0  0  0  0  0  0  0  0  0  0  0  0
  183.7320  178.1500  139.7090 C   0  0  0  0  0  3  0  0  0  0  0  0
  182.7880  179.1560  139.7020 C   0  0  0  0  0  0  0  0  0  0  0  0
  184.8360  178.7650  139.1380 C   0  0  0  0  0  0  0  0  0  0  0  0
  183.2920  180.2840  139.1740 N   0  0  0  0  0  2  0  0  0  0  0  0
  181.4080  179.0430  140.2470 C   0  0  0  0  0  2  0  0  0  0  0  0
  181.4630  178.7170  141.7280 C   0  0  0  0  0  1  0  0  0  0  0  0
  192.0040  177.3720  143.3070 O   0  0  0  0  0  1  0  0  0  0  0  0
  190.7870  177.9360  143.7070 C   0  0  2  0  0  3  0  0  0  0  0  0
  190.6360  178.0500  145.2340 C   0  0  0  0  0  2  0  0  0  0  0  0
  190.4970  176.7430  146.0300 C   0  0  1  0  0  3  0  0  0  0  0  0
  191.8280  176.2450  146.5610 C   0  0  0  0  0  1  0  0  0  0  0  0
  189.5370  176.8770  147.1160 N   0  0  0  0  0  2  0  0  0  0  0  0
  188.3150  177.4340  146.5520 C   0  0  0  0  0  2  0  0  0  0  0  0
  188.0970  178.5370  148.6710 O   0  0  0  0  0  1  0  0  0  0  0  0
  187.3750  177.8960  147.6600 C   0  0  1  0  0  3  0  0  0  0  0  0
  186.0050  179.8160  147.6940 O   0  0  0  0  0  0  0  0  0  0  0  0
  186.2810  178.7750  147.1180 C   0  0  0  0  0  0  0  0  0  0  0  0
  184.2020  178.7860  145.9860 O   0  0  0  0  0  1  0  0  0  0  0  0
  185.5410  178.4140  145.8680 C   0  0  0  0  0  2  0  0  0  0  0  0
  1  6  1  0  0  0  0
  2  4  1  0  0  0  0
  3  7  1  0  0  0  0
  3  1  2  0  0  0  0
  4 11  1  0  0  0  0
  4 34  1  6  0  0  0
  5 29  1  0  0  0  0
  5  9  1  0  0  0  0
  6  9  2  0  0  0  0
  6 10  1  0  0  0  0
  7  5  2  0  0  0  0
  8 11  1  0  0  0  0
  9 12  1  0  0  0  0
 10  2  3  0  0  0  0
 12  8  1  0  0  0  0
 13  1  1  0  0  0  0
 14 17  1  0  0  0  0
 14 16  1  0  0  0  0
 16 19  1  0  0  0  0
 17 20  1  1  0  0  0
 17 15  1  0  0  0  0
 18 13  1  0  0  0  0
 18 15  1  0  0  0  0
 19 13  2  0  0  0  0
 22 23  1  0  0  0  0
 22 25  1  0  0  0  0
 23 20  1  6  0  0  0
 23 21  1  0  0  0  0
 24 21  1  0  0  0  0
 25 24  1  0  0  0  0
 26 29  2  0  0  0  0
 26 30  1  0  0  0  0
 28 27  2  0  0  0  0
 28 31  1  0  0  0  0
 29 27  1  0  0  0  0
 30 28  1  0  0  0  0
 31 32  1  0  0  0  0
 34 33  1  1  0  0  0
 34 35  1  0  0  0  0
 35 36  1  0  0  0  0
 36 37  1  1  0  0  0
 36 38  1  0  0  0  0
 39 38  1  0  0  0  0
 39 41  1  0  0  0  0
 41 40  1  1  0  0  0
 43 41  1  0  0  0  0
 43 42  2  0  0  0  0
 45 44  1  0  0  0  0
 45 43  1  0  0  0  0
M  END
>  <MODEL>
1

>  <REMARK>
 VINA RESULT:      -8.4      0.000      0.000
  Name = 
  13 active torsions:
  status: ('A' for Active; 'I' for Inactive)
    1  A    between atoms: C_1  and  C_14
    2  A    between atoms: C_4  and  C_21
    3  A    between atoms: C_4  and  N_33
    4  A    between atoms: C_8  and  C_28
    5  A    between atoms: C_8  and  C_45
    6  A    between atoms: C_9  and  C_18
    7  A    between atoms: C_12  and  C_38
    8  A    between atoms: C_13  and  C_26
    9  A    between atoms: C_17  and  C_34
   10  A    between atoms: C_17  and  C_35
   11  A    between atoms: C_21  and  C_38
   12  A    between atoms: C_28  and  C_41
   13  A    between atoms: N_33  and  C_41
                            x       y       z     vdW  Elec       q    Type
                         _______ _______ _______ _____ _____    ______ ____

>  <TORSDO>
F 13

$$$$
=
 OpenBabel10232408273D

 45 49  0  0  1  0  0  0  0  0999 V2000
  187.2670  177.7670  145.1530 C   0  0  0  0  0  0  0  0  0  0  0  0
  188.6870  177.4430  141.7730 C   0  0  0  0  0  0  0  0  0  0  0  0
  187.4370  177.5260  146.5180 C   0  0  0  0  0  3  0  0  0  0  0  0
  189.6050  176.9820  140.7400 C   0  0  2  0  0  3  0  0  0  0  0  0
  189.7470  176.9800  146.2410 C   0  0  0  0  0  0  0  0  0  0  0  0
  188.3900  177.5980  144.3150 C   0  0  0  0  0  0  0  0  0  0  0  0
  188.6410  177.1470  147.0170 N   0  0  0  0  0  0  0  0  0  0  0  0
  190.8730  176.0760  142.8480 C   0  0  0  0  0  2  0  0  0  0  0  0
  189.6500  177.2080  144.8460 C   0  0  0  0  0  0  0  0  0  0  0  0
  188.3150  177.6320  142.8890 C   0  0  0  0  0  0  0  0  0  0  0  0
  190.9660  176.6970  141.4270 C   0  0  0  0  0  2  0  0  0  0  0  0
  190.8900  177.1630  143.9460 C   0  0  0  0  0  2  0  0  0  0  0  0
  185.9220  178.1760  144.6670 C   0  0  0  0  0  0  0  0  0  0  0  0
  183.4060  179.8420  144.1670 C   0  0  0  0  0  2  0  0  0  0  0  0
  184.3790  178.0110  142.6450 C   0  0  0  0  0  2  0  0  0  0  0  0
  183.5180  178.7990  145.2710 C   0  0  0  0  0  2  0  0  0  0  0  0
  183.4180  179.1950  142.7760 C   0  0  1  0  0  3  0  0  0  0  0  0
  185.7590  178.3750  143.1750 C   0  0  0  0  0  2  0  0  0  0  0  0
  184.9430  178.4210  145.5590 C   0  0  0  0  0  3  0  0  0  0  0  0
  182.0110  178.8550  142.2790 C   0  0  0  0  0  2  0  0  0  0  0  0
  182.1970  179.1760  139.8090 C   0  0  0  0  0  2  0  0  0  0  0  0
  180.6240  177.6190  140.6610 C   0  0  0  0  0  2  0  0  0  0  0  0
  181.9950  178.1650  140.9180 C   0  0  2  0  0  3  0  0  0  0  0  0
  180.9540  179.4600  139.2250 O   0  0  0  0  0  0  0  0  0  0  0  0
  180.2050  178.2840  139.3720 C   0  0  0  0  0  2  0  0  0  0  0  0
  191.8950  175.7380  146.3510 N   0  0  0  0  0  0  0  0  0  0  0  0
  191.4320  176.9410  148.1840 C   0  0  0  0  0  3  0  0  0  0  0  0
  192.6400  176.2850  148.2950 C   0  0  0  0  0  0  0  0  0  0  0  0
  190.9940  176.5590  146.9250 C   0  0  0  0  0  0  0  0  0  0  0  0
  192.8990  175.5640  147.1910 N   0  0  0  0  0  2  0  0  0  0  0  0
  193.5280  176.3170  149.4890 C   0  0  0  0  0  2  0  0  0  0  0  0
  193.4990  177.6970  150.1170 C   0  0  0  0  0  1  0  0  0  0  0  0
  188.6620  178.8340  139.4820 O   0  0  0  0  0  1  0  0  0  0  0  0
  189.7800  178.0040  139.6150 C   0  0  2  0  0  3  0  0  0  0  0  0
  190.2140  177.3410  138.2960 C   0  0  0  0  0  2  0  0  0  0  0  0
  189.5430  176.0100  137.9210 C   0  0  1  0  0  3  0  0  0  0  0  0
  188.1860  176.2110  137.2710 C   0  0  0  0  0  1  0  0  0  0  0  0
  190.3990  175.2020  137.0650 N   0  0  0  0  0  2  0  0  0  0  0  0
  191.3140  176.1060  136.3840 C   0  0  0  0  0  2  0  0  0  0  0  0
  193.1160  175.7600  134.8390 O   0  0  0  0  0  1  0  0  0  0  0  0
  192.6460  175.4160  136.1090 C   0  0  1  0  0  3  0  0  0  0  0  0
  193.6270  176.8230  137.7290 O   0  0  0  0  0  0  0  0  0  0  0  0
  193.6570  175.7340  137.1780 C   0  0  0  0  0  0  0  0  0  0  0  0
  195.2570  175.1180  138.8100 O   0  0  0  0  0  1  0  0  0  0  0  0
  194.6840  174.7300  137.5990 C   0  0  0  0  0  2  0  0  0  0  0  0
  1  3  1  0  0  0  0
  2 10  3  0  0  0  0
  3  7  2  0  0  0  0
  4 34  1  6  0  0  0
  4 11  1  0  0  0  0
  4  2  1  0  0  0  0
  5 29  1  0  0  0  0
  5  7  1  0  0  0  0
  6  9  1  0  0  0  0
  6  1  2  0  0  0  0
  8 12  1  0  0  0  0
  9  5  2  0  0  0  0
 10  6  1  0  0  0  0
 11  8  1  0  0  0  0
 12  9  1  0  0  0  0
 13  1  1  0  0  0  0
 13 19  2  0  0  0  0
 14 16  1  0  0  0  0
 15 17  1  0  0  0  0
 15 18  1  0  0  0  0
 16 19  1  0  0  0  0
 17 20  1  1  0  0  0
 17 14  1  0  0  0  0
 18 13  1  0  0  0  0
 21 23  1  0  0  0  0
 22 23  1  0  0  0  0
 23 20  1  1  0  0  0
 24 25  1  0  0  0  0
 24 21  1  0  0  0  0
 25 22  1  0  0  0  0
 26 29  2  0  0  0  0
 26 30  1  0  0  0  0
 27 28  2  0  0  0  0
 28 31  1  0  0  0  0
 29 27  1  0  0  0  0
 30 28  1  0  0  0  0
 31 32  1  0  0  0  0
 34 33  1  6  0  0  0
 35 34  1  0  0  0  0
 36 37  1  6  0  0  0
 36 35  1  0  0  0  0
 38 36  1  0  0  0  0
 39 38  1  0  0  0  0
 41 40  1  6  0  0  0
 41 39  1  0  0  0  0
 41 43  1  0  0  0  0
 43 45  1  0  0  0  0
 43 42  2  0  0  0  0
 45 44  1  0  0  0  0
M  END
>  <MODEL>
2

>  <REMARK>
 VINA RESULT:      -8.1      3.323     10.823
  Name = 
  13 active torsions:
  status: ('A' for Active; 'I' for Inactive)
    1  A    between atoms: C_1  and  C_14
    2  A    between atoms: C_4  and  C_21
    3  A    between atoms: C_4  and  N_33
    4  A    between atoms: C_8  and  C_28
    5  A    between atoms: C_8  and  C_45
    6  A    between atoms: C_9  and  C_18
    7  A    between atoms: C_12  and  C_38
    8  A    between atoms: C_13  and  C_26
    9  A    between atoms: C_17  and  C_34
   10  A    between atoms: C_17  and  C_35
   11  A    between atoms: C_21  and  C_38
   12  A    between atoms: C_28  and  C_41
   13  A    between atoms: N_33  and  C_41
                            x       y       z     vdW  Elec       q    Type
                         _______ _______ _______ _____ _____    ______ ____

>  <TORSDO>
F 13

$$$$
=
 OpenBabel10232408273D

 45 49  0  0  1  0  0  0  0  0999 V2000
  191.0490  176.9760  139.7880 C   0  0  0  0  0  0  0  0  0  0  0  0
  188.3430  175.8690  137.5540 C   0  0  0  0  0  0  0  0  0  0  0  0
  192.4270  177.0710  139.9940 C   0  0  0  0  0  3  0  0  0  0  0  0
  187.7290  175.1850  136.4240 C   0  0  2  0  0  3  0  0  0  0  0  0
  192.9120  176.4970  137.7260 C   0  0  0  0  0  0  0  0  0  0  0  0
  190.6050  176.6240  138.4960 C   0  0  0  0  0  0  0  0  0  0  0  0
  193.3040  176.8330  138.9860 N   0  0  0  0  0  0  0  0  0  0  0  0
  190.2500  174.8200  135.8030 C   0  0  0  0  0  2  0  0  0  0  0  0
  191.5280  176.3850  137.4420 C   0  0  0  0  0  0  0  0  0  0  0  0
  189.2430  176.3160  138.1940 C   0  0  0  0  0  0  0  0  0  0  0  0
  188.8010  175.0840  135.3070 C   0  0  0  0  0  2  0  0  0  0  0  0
  191.0280  176.1380  136.0150 C   0  0  0  0  0  2  0  0  0  0  0  0
  190.1400  177.2450  140.9350 C   0  0  0  0  0  0  0  0  0  0  0  0
  187.6690  177.2340  142.7360 C   0  0  0  0  0  2  0  0  0  0  0  0
  190.1220  177.4800  143.4730 C   0  0  0  0  0  2  0  0  0  0  0  0
  187.9880  178.3530  141.7560 C   0  0  0  0  0  2  0  0  0  0  0  0
  188.6780  177.1890  143.8920 C   0  0  1  0  0  3  0  0  0  0  0  0
  190.5140  176.6350  142.2690 C   0  0  0  0  0  2  0  0  0  0  0  0
  189.0060  177.9430  140.7300 C   0  0  0  0  0  3  0  0  0  0  0  0
  188.2380  178.0440  145.0820 C   0  0  0  0  0  2  0  0  0  0  0  0
  187.1910  177.9010  147.3450 C   0  0  0  0  0  2  0  0  0  0  0  0
  189.5060  177.4450  147.1090 C   0  0  0  0  0  2  0  0  0  0  0  0
  188.1960  177.2770  146.4010 C   0  0  2  0  0  3  0  0  0  0  0  0
  187.8790  178.6780  148.2890 O   0  0  0  0  0  0  0  0  0  0  0  0
  189.1250  178.0520  148.4370 C   0  0  0  0  0  2  0  0  0  0  0  0
  194.6690  177.2700  136.1490 N   0  0  0  0  0  0  0  0  0  0  0  0
  194.4490  175.0430  136.2640 C   0  0  0  0  0  3  0  0  0  0  0  0
  195.4460  175.4140  135.3850 C   0  0  0  0  0  0  0  0  0  0  0  0
  193.9820  176.2640  136.7260 C   0  0  1  0  0  3  0  0  0  0  0  0
  195.5600  176.7510  135.3240 N   0  0  0  0  0  0  0  0  0  0  0  0
  196.2620  174.4760  134.5670 C   0  0  0  0  0  2  0  0  0  0  0  0
  195.7800  173.0530  134.7780 C   0  0  0  0  0  1  0  0  0  0  0  0
  186.8150  176.9690  135.0520 O   0  0  0  0  0  1  0  0  0  0  0  0
  186.4870  175.9090  135.9050 C   0  0  2  0  0  3  0  0  0  0  0  0
  185.5350  176.3110  137.0450 C   0  0  0  0  0  2  0  0  0  0  0  0
  184.1730  175.6020  137.1100 C   0  0  1  0  0  3  0  0  0  0  0  0
  184.2920  174.1650  137.5810 C   0  0  0  0  0  1  0  0  0  0  0  0
  183.2300  176.3310  137.9460 N   0  0  0  0  0  2  0  0  0  0  0  0
  183.6640  177.7200  137.9850 C   0  0  0  0  0  2  0  0  0  0  0  0
  182.0860  177.6470  139.7900 O   0  0  0  0  0  1  0  0  0  0  0  0
  183.0850  178.4300  139.2040 C   0  0  1  0  0  3  0  0  0  0  0  0
  184.9810  179.6440  139.9050 O   0  0  0  0  0  0  0  0  0  0  0  0
  184.1610  178.7860  140.1930 C   0  0  0  0  0  0  0  0  0  0  0  0
  184.3940  179.0950  142.5280 O   0  0  0  0  0  1  0  0  0  0  0  0
  184.2320  178.1290  141.5350 C   0  0  0  0  0  2  0  0  0  0  0  0
  1  3  1  0  0  0  0
  1 13  1  0  0  0  0
  2 10  3  0  0  0  0
  4 34  1  6  0  0  0
  4  2  1  0  0  0  0
  5  7  1  0  0  0  0
  6  1  2  0  0  0  0
  7  3  2  0  0  0  0
  8 12  1  0  0  0  0
  9  5  2  0  0  0  0
  9  6  1  0  0  0  0
 10  6  1  0  0  0  0
 11  8  1  0  0  0  0
 11  4  1  0  0  0  0
 12  9  1  0  0  0  0
 13 18  1  0  0  0  0
 14 17  1  0  0  0  0
 15 17  1  0  0  0  0
 16 14  1  0  0  0  0
 17 20  1  1  0  0  0
 18 15  1  0  0  0  0
 19 13  2  0  0  0  0
 19 16  1  0  0  0  0
 21 24  1  0  0  0  0
 22 25  1  0  0  0  0
 23 20  1  6  0  0  0
 23 22  1  0  0  0  0
 23 21  1  0  0  0  0
 24 25  1  0  0  0  0
 26 29  1  0  0  0  0
 27 29  1  0  0  0  0
 28 27  2  0  0  0  0
 29  5  1  1  0  0  0
 30 28  1  0  0  0  0
 30 26  2  0  0  0  0
 31 32  1  0  0  0  0
 31 28  1  0  0  0  0
 34 33  1  1  0  0  0
 34 35  1  0  0  0  0
 35 36  1  0  0  0  0
 36 37  1  1  0  0  0
 36 38  1  0  0  0  0
 38 39  1  0  0  0  0
 39 41  1  0  0  0  0
 41 40  1  1  0  0  0
 41 43  1  0  0  0  0
 42 43  2  0  0  0  0
 43 45  1  0  0  0  0
 45 44  1  0  0  0  0
M  END
>  <MODEL>
3

>  <REMARK>
 VINA RESULT:      -8.0      3.429      9.446
  Name = 
  13 active torsions:
  status: ('A' for Active; 'I' for Inactive)
    1  A    between atoms: C_1  and  C_14
    2  A    between atoms: C_4  and  C_21
    3  A    between atoms: C_4  and  N_33
    4  A    between atoms: C_8  and  C_28
    5  A    between atoms: C_8  and  C_45
    6  A    between atoms: C_9  and  C_18
    7  A    between atoms: C_12  and  C_38
    8  A    between atoms: C_13  and  C_26
    9  A    between atoms: C_17  and  C_34
   10  A    between atoms: C_17  and  C_35
   11  A    between atoms: C_21  and  C_38
   12  A    between atoms: C_28  and  C_41
   13  A    between atoms: N_33  and  C_41
                            x       y       z     vdW  Elec       q    Type
                         _______ _______ _______ _____ _____    ______ ____

>  <TORSDO>
F 13

$$$$
=
 OpenBabel10232408273D

 45 49  0  0  1  0  0  0  0  0999 V2000
  187.3140  178.3180  141.4650 C   0  0  0  0  0  0  0  0  0  0  0  0
  189.0960  177.7600  138.2940 C   0  0  0  0  0  0  0  0  0  0  0  0
  186.1400  178.7530  142.0830 C   0  0  0  0  0  3  0  0  0  0  0  0
  189.3460  177.8410  136.8610 C   0  0  2  0  0  3  0  0  0  0  0  0
  184.9370  178.7710  140.0190 C   0  0  0  0  0  0  0  0  0  0  0  0
  187.2800  178.1110  140.0690 C   0  0  0  0  0  0  0  0  0  0  0  0
  185.0090  178.9660  141.3640 N   0  0  0  0  0  0  0  0  0  0  0  0
  186.9180  178.8290  136.9100 C   0  0  0  0  0  2  0  0  0  0  0  0
  186.0890  178.3280  139.3240 C   0  0  0  0  0  0  0  0  0  0  0  0
  188.4470  177.8450  139.2890 C   0  0  0  0  0  0  0  0  0  0  0  0
  187.9690  177.9650  136.1580 C   0  0  0  0  0  2  0  0  0  0  0  0
  186.0300  177.9680  137.8350 C   0  0  0  0  0  2  0  0  0  0  0  0
  188.5220  178.1060  142.3070 C   0  0  0  0  0  0  0  0  0  0  0  0
  191.1000  178.6450  143.8620 C   0  0  0  0  0  2  0  0  0  0  0  0
  189.3510  176.8230  144.3470 C   0  0  0  0  0  2  0  0  0  0  0  0
  191.0750  178.1060  142.4390 C   0  0  0  0  0  2  0  0  0  0  0  0
  190.5500  177.6220  144.8640 C   0  0  1  0  0  3  0  0  0  0  0  0
  188.2970  177.7510  143.7610 C   0  0  0  0  0  2  0  0  0  0  0  0
  189.7430  178.3060  141.7740 C   0  0  0  0  0  3  0  0  0  0  0  0
  191.6440  176.7180  145.4350 C   0  0  0  0  0  2  0  0  0  0  0  0
  191.1920  177.2110  147.8410 C   0  0  0  0  0  2  0  0  0  0  0  0
  192.4380  175.2770  147.2690 C   0  0  0  0  0  2  0  0  0  0  0  0
  191.2950  176.1220  146.7950 C   0  0  2  0  0  3  0  0  0  0  0  0
  192.3690  177.2200  148.6030 O   0  0  0  0  0  0  0  0  0  0  0  0
  192.8190  175.8920  148.5940 C   0  0  0  0  0  2  0  0  0  0  0  0
  182.6640  178.1170  139.2570 N   0  0  0  0  0  0  0  0  0  0  0  0
  183.2080  180.2460  138.8140 C   0  0  0  0  0  3  0  0  0  0  0  0
  181.9330  179.9430  138.3820 C   0  0  0  0  0  0  0  0  0  0  0  0
  183.6340  179.0470  139.3650 C   0  0  1  0  0  3  0  0  0  0  0  0
  181.6260  178.6620  138.6490 N   0  0  0  0  0  0  0  0  0  0  0  0
  181.0230  180.8790  137.6670 C   0  0  0  0  0  2  0  0  0  0  0  0
  181.3260  182.3080  138.0780 C   0  0  0  0  0  1  0  0  0  0  0  0
  189.2910  175.4920  136.2440 O   0  0  0  0  0  1  0  0  0  0  0  0
  190.1070  176.6260  136.3300 C   0  0  2  0  0  3  0  0  0  0  0  0
  191.4170  176.3830  137.1000 C   0  0  0  0  0  2  0  0  0  0  0  0
  192.5960  175.7840  136.3160 C   0  0  1  0  0  3  0  0  0  0  0  0
  192.5180  176.0900  134.8330 C   0  0  0  0  0  1  0  0  0  0  0  0
  193.8750  176.2210  136.8570 N   0  0  0  0  0  2  0  0  0  0  0  0
  194.7880  175.0880  136.7870 C   0  0  0  0  0  2  0  0  0  0  0  0
  193.8250  172.8910  136.8050 O   0  0  0  0  0  1  0  0  0  0  0  0
  194.2700  173.9280  137.6310 C   0  0  1  0  0  3  0  0  0  0  0  0
  195.3530  172.2710  138.9120 O   0  0  0  0  0  0  0  0  0  0  0  0
  195.3130  173.4510  138.6050 C   0  0  0  0  0  0  0  0  0  0  0  0
  195.6870  175.3220  140.0050 O   0  0  0  0  0  1  0  0  0  0  0  0
  196.3230  174.3920  139.1840 C   0  0  0  0  0  2  0  0  0  0  0  0
  1  3  1  0  0  0  0
  1 13  1  0  0  0  0
  2 10  3  0  0  0  0
  4 34  1  6  0  0  0
  4  2  1  0  0  0  0
  5  7  1  0  0  0  0
  6  1  2  0  0  0  0
  7  3  2  0  0  0  0
  8 12  1  0  0  0  0
  9  5  2  0  0  0  0
  9  6  1  0  0  0  0
 10  6  1  0  0  0  0
 11  4  1  0  0  0  0
 11  8  1  0  0  0  0
 12  9  1  0  0  0  0
 13 18  1  0  0  0  0
 14 17  1  0  0  0  0
 15 17  1  0  0  0  0
 16 14  1  0  0  0  0
 17 20  1  6  0  0  0
 18 15  1  0  0  0  0
 19 13  2  0  0  0  0
 19 16  1  0  0  0  0
 21 24  1  0  0  0  0
 22 25  1  0  0  0  0
 23 20  1  6  0  0  0
 23 22  1  0  0  0  0
 23 21  1  0  0  0  0
 25 24  1  0  0  0  0
 26 29  1  0  0  0  0
 27 29  1  0  0  0  0
 28 30  1  0  0  0  0
 28 27  2  0  0  0  0
 29  5  1  1  0  0  0
 30 26  2  0  0  0  0
 31 32  1  0  0  0  0
 31 28  1  0  0  0  0
 34 33  1  1  0  0  0
 34 35  1  0  0  0  0
 36 37  1  6  0  0  0
 36 38  1  0  0  0  0
 36 35  1  0  0  0  0
 39 38  1  0  0  0  0
 39 41  1  0  0  0  0
 41 40  1  6  0  0  0
 41 43  1  0  0  0  0
 43 42  2  0  0  0  0
 43 45  1  0  0  0  0
 45 44  1  0  0  0  0
M  END
>  <MODEL>
4

>  <REMARK>
 VINA RESULT:      -7.7      2.839      8.317
  Name = 
  13 active torsions:
  status: ('A' for Active; 'I' for Inactive)
    1  A    between atoms: C_1  and  C_14
    2  A    between atoms: C_4  and  C_21
    3  A    between atoms: C_4  and  N_33
    4  A    between atoms: C_8  and  C_28
    5  A    between atoms: C_8  and  C_45
    6  A    between atoms: C_9  and  C_18
    7  A    between atoms: C_12  and  C_38
    8  A    between atoms: C_13  and  C_26
    9  A    between atoms: C_17  and  C_34
   10  A    between atoms: C_17  and  C_35
   11  A    between atoms: C_21  and  C_38
   12  A    between atoms: C_28  and  C_41
   13  A    between atoms: N_33  and  C_41
                            x       y       z     vdW  Elec       q    Type
                         _______ _______ _______ _____ _____    ______ ____

>  <TORSDO>
F 13

$$$$
=
 OpenBabel10232408273D

 45 49  0  0  1  0  0  0  0  0999 V2000
  187.5300  177.7330  145.3550 C   0  0  0  0  0  0  0  0  0  0  0  0
  189.0370  177.0240  142.0740 C   0  0  0  0  0  0  0  0  0  0  0  0
  187.6470  177.6210  146.7420 C   0  0  0  0  0  3  0  0  0  0  0  0
  189.9670  176.4300  141.1230 C   0  0  2  0  0  3  0  0  0  0  0  0
  189.9390  176.9630  146.6000 C   0  0  0  0  0  0  0  0  0  0  0  0
  188.6700  177.4400  144.5770 C   0  0  0  0  0  0  0  0  0  0  0  0
  188.8180  177.2470  147.3170 N   0  0  0  0  0  0  0  0  0  0  0  0
  191.1310  175.6870  143.3510 C   0  0  0  0  0  2  0  0  0  0  0  0
  189.8960  177.0560  145.1860 C   0  0  0  0  0  0  0  0  0  0  0  0
  188.6400  177.3370  143.1530 C   0  0  0  0  0  0  0  0  0  0  0  0
  191.2940  176.1610  141.8800 C   0  0  0  0  0  2  0  0  0  0  0  0
  191.1590  176.8750  144.3380 C   0  0  0  0  0  2  0  0  0  0  0  0
  186.2180  178.1440  144.7850 C   0  0  0  0  0  0  0  0  0  0  0  0
  183.7510  179.8200  144.1100 C   0  0  0  0  0  2  0  0  0  0  0  0
  184.7900  177.9480  142.6830 C   0  0  0  0  0  2  0  0  0  0  0  0
  183.7900  178.8010  145.2390 C   0  0  0  0  0  2  0  0  0  0  0  0
  183.8350  179.1440  142.7350 C   0  0  1  0  0  3  0  0  0  0  0  0
  186.1410  178.3120  143.2830 C   0  0  0  0  0  2  0  0  0  0  0  0
  185.1930  178.4160  145.6160 C   0  0  0  0  0  3  0  0  0  0  0  0
  182.4550  178.8060  142.1670 C   0  0  0  0  0  2  0  0  0  0  0  0
  182.9470  179.1560  139.7440 C   0  0  0  0  0  2  0  0  0  0  0  0
  181.1160  177.7860  140.3680 C   0  0  0  0  0  2  0  0  0  0  0  0
  182.5060  178.1530  140.7890 C   0  0  2  0  0  3  0  0  0  0  0  0
  181.8190  179.6040  139.0410 O   0  0  0  0  0  0  0  0  0  0  0  0
  180.9230  178.5260  139.0660 C   0  0  0  0  0  2  0  0  0  0  0  0
  191.8970  175.4940  147.0310 N   0  0  0  0  0  0  0  0  0  0  0  0
  191.6920  177.2030  148.4670 C   0  0  0  0  0  3  0  0  0  0  0  0
  192.8010  176.4300  148.7450 C   0  0  0  0  0  0  0  0  0  0  0  0
  191.1470  176.5640  147.3640 C   0  0  0  0  0  0  0  0  0  0  0  0
  192.9050  175.4080  147.8790 N   0  0  0  0  0  2  0  0  0  0  0  0
  193.7400  176.6530  149.8780 C   0  0  0  0  0  2  0  0  0  0  0  0
  193.5250  178.0360  150.4630 C   0  0  0  0  0  1  0  0  0  0  0  0
  191.4140  178.0470  140.0310 O   0  0  0  0  0  1  0  0  0  0  0  0
  190.2190  177.3280  139.9110 C   0  0  2  0  0  3  0  0  0  0  0  0
  189.0020  178.2100  139.5830 C   0  0  0  0  0  2  0  0  0  0  0  0
  188.3850  178.0700  138.1830 C   0  0  1  0  0  3  0  0  0  0  0  0
  188.7910  179.2010  137.2570 C   0  0  0  0  0  1  0  0  0  0  0  0
  188.7090  176.7840  137.5820 N   0  0  0  0  0  2  0  0  0  0  0  0
  187.4520  176.1260  137.2540 C   0  0  0  0  0  2  0  0  0  0  0  0
  187.7370  176.6330  134.9280 O   0  0  0  0  0  1  0  0  0  0  0  0
  187.4800  175.5940  135.8260 C   0  0  1  0  0  3  0  0  0  0  0  0
  189.2190  174.4570  134.7110 O   0  0  0  0  0  0  0  0  0  0  0  0
  188.4750  174.4750  135.6780 C   0  0  0  0  0  0  0  0  0  0  0  0
  189.8330  173.4760  137.3410 O   0  0  0  0  0  1  0  0  0  0  0  0
  188.5910  173.3970  136.7100 C   0  0  0  0  0  2  0  0  0  0  0  0
  1  3  1  0  0  0  0
  2 10  3  0  0  0  0
  3  7  2  0  0  0  0
  4 34  1  6  0  0  0
  4 11  1  0  0  0  0
  4  2  1  0  0  0  0
  5  7  1  0  0  0  0
  5 29  1  0  0  0  0
  6  9  1  0  0  0  0
  6  1  2  0  0  0  0
  8 12  1  0  0  0  0
  9  5  2  0  0  0  0
 10  6  1  0  0  0  0
 11  8  1  0  0  0  0
 12  9  1  0  0  0  0
 13  1  1  0  0  0  0
 13 19  2  0  0  0  0
 14 16  1  0  0  0  0
 15 17  1  0  0  0  0
 15 18  1  0  0  0  0
 16 19  1  0  0  0  0
 17 20  1  1  0  0  0
 17 14  1  0  0  0  0
 18 13  1  0  0  0  0
 21 23  1  0  0  0  0
 22 23  1  0  0  0  0
 23 20  1  1  0  0  0
 24 25  1  0  0  0  0
 24 21  1  0  0  0  0
 25 22  1  0  0  0  0
 26 29  2  0  0  0  0
 26 30  1  0  0  0  0
 27 28  2  0  0  0  0
 28 31  1  0  0  0  0
 29 27  1  0  0  0  0
 30 28  1  0  0  0  0
 31 32  1  0  0  0  0
 34 33  1  1  0  0  0
 35 34  1  0  0  0  0
 36 37  1  6  0  0  0
 36 35  1  0  0  0  0
 38 36  1  0  0  0  0
 39 38  1  0  0  0  0
 41 40  1  6  0  0  0
 41 39  1  0  0  0  0
 42 43  2  0  0  0  0
 43 41  1  0  0  0  0
 43 45  1  0  0  0  0
 45 44  1  0  0  0  0
M  END
>  <MODEL>
5

>  <REMARK>
 VINA RESULT:      -7.5      3.782     10.606
  Name = 
  13 active torsions:
  status: ('A' for Active; 'I' for Inactive)
    1  A    between atoms: C_1  and  C_14
    2  A    between atoms: C_4  and  C_21
    3  A    between atoms: C_4  and  N_33
    4  A    between atoms: C_8  and  C_28
    5  A    between atoms: C_8  and  C_45
    6  A    between atoms: C_9  and  C_18
    7  A    between atoms: C_12  and  C_38
    8  A    between atoms: C_13  and  C_26
    9  A    between atoms: C_17  and  C_34
   10  A    between atoms: C_17  and  C_35
   11  A    between atoms: C_21  and  C_38
   12  A    between atoms: C_28  and  C_41
   13  A    between atoms: N_33  and  C_41
                            x       y       z     vdW  Elec       q    Type
                         _______ _______ _______ _____ _____    ______ ____

>  <TORSDO>
F 13

$$$$
=
 OpenBabel10232408273D

 45 49  0  0  1  0  0  0  0  0999 V2000
  190.1630  176.1510  136.0750 C   0  0  0  0  0  0  0  0  0  0  0  0
  190.1670  177.1650  139.6120 C   0  0  0  0  0  0  0  0  0  0  0  0
  190.9280  175.8730  134.9390 C   0  0  0  0  0  3  0  0  0  0  0  0
  190.7140  177.6690  140.8640 C   0  0  2  0  0  3  0  0  0  0  0  0
  192.9620  175.8260  136.1920 C   0  0  0  0  0  0  0  0  0  0  0  0
  190.8430  176.2710  137.3060 C   0  0  0  0  0  0  0  0  0  0  0  0
  192.2740  175.7240  135.0210 N   0  0  0  0  0  0  0  0  0  0  0  0
  192.9440  177.4500  139.5030 C   0  0  0  0  0  2  0  0  0  0  0  0
  192.2520  176.1050  137.3860 C   0  0  0  0  0  0  0  0  0  0  0  0
  190.2140  176.7290  138.5040 C   0  0  0  0  0  0  0  0  0  0  0  0
  192.2280  177.3300  140.8770 C   0  0  0  0  0  2  0  0  0  0  0  0
  192.9560  176.1020  138.7480 C   0  0  0  0  0  2  0  0  0  0  0  0
  188.6920  176.3080  135.9180 C   0  0  0  0  0  0  0  0  0  0  0  0
  185.9500  176.8070  134.6600 C   0  0  0  0  0  2  0  0  0  0  0  0
  186.4720  175.3290  136.7000 C   0  0  0  0  0  2  0  0  0  0  0  0
  186.7430  177.8760  135.3970 C   0  0  0  0  0  2  0  0  0  0  0  0
  185.4620  175.7070  135.6130 C   0  0  1  0  0  3  0  0  0  0  0  0
  187.8430  175.0670  136.0940 C   0  0  0  0  0  2  0  0  0  0  0  0
  188.1890  177.5050  135.5620 C   0  0  0  0  0  3  0  0  0  0  0  0
  184.0770  176.0080  136.1900 C   0  0  0  0  0  2  0  0  0  0  0  0
  183.2120  175.4680  138.4700 C   0  0  0  0  0  2  0  0  0  0  0  0
  183.4660  177.7390  137.8340 C   0  0  0  0  0  2  0  0  0  0  0  0
  184.1030  176.3930  137.6660 C   0  0  2  0  0  3  0  0  0  0  0  0
  182.0030  176.1260  138.7390 O   0  0  0  0  0  0  0  0  0  0  0  0
  182.3340  177.4870  138.8000 C   0  0  0  0  0  2  0  0  0  0  0  0
  195.2790  176.6470  135.8330 N   0  0  0  0  0  0  0  0  0  0  0  0
  195.1440  174.4770  136.3790 C   0  0  0  0  0  3  0  0  0  0  0  0
  196.4520  174.8810  136.2050 C   0  0  0  0  0  0  0  0  0  0  0  0
  194.4320  175.6410  136.1290 C   0  0  1  0  0  3  0  0  0  0  0  0
  196.5140  176.1810  135.8720 N   0  0  0  0  0  0  0  0  0  0  0  0
  197.6440  173.9970  136.3170 C   0  0  0  0  0  2  0  0  0  0  0  0
  198.3990  174.3080  137.5960 C   0  0  0  0  0  1  0  0  0  0  0  0
  188.6340  177.0160  141.9350 O   0  0  0  0  0  1  0  0  0  0  0  0
  190.0240  177.0670  142.0890 C   0  0  2  0  0  3  0  0  0  0  0  0
  190.4730  177.7440  143.3960 C   0  0  0  0  0  2  0  0  0  0  0  0
  190.1110  177.0440  144.7150 C   0  0  1  0  0  3  0  0  0  0  0  0
  191.3360  176.5700  145.4730 C   0  0  0  0  0  1  0  0  0  0  0  0
  189.2890  177.8940  145.5640 N   0  0  0  0  0  2  0  0  0  0  0  0
  187.9490  177.3230  145.5860 C   0  0  0  0  0  2  0  0  0  0  0  0
  188.0880  178.3620  147.7430 O   0  0  0  0  0  1  0  0  0  0  0  0
  187.2100  177.7360  146.8540 C   0  0  1  0  0  3  0  0  0  0  0  0
  185.7390  179.5280  147.2890 O   0  0  0  0  0  0  0  0  0  0  0  0
  186.0260  178.6100  146.5370 C   0  0  0  0  0  0  0  0  0  0  0  0
  184.0800  179.2130  145.3320 O   0  0  0  0  0  1  0  0  0  0  0  0
  185.2090  178.3940  145.3020 C   0  0  0  0  0  2  0  0  0  0  0  0
  1  6  1  0  0  0  0
  2  4  1  0  0  0  0
  3  7  1  0  0  0  0
  3  1  2  0  0  0  0
  4 11  1  0  0  0  0
  4 34  1  1  0  0  0
  5  9  1  0  0  0  0
  6  9  2  0  0  0  0
  6 10  1  0  0  0  0
  7  5  2  0  0  0  0
  8 11  1  0  0  0  0
  9 12  1  0  0  0  0
 10  2  3  0  0  0  0
 12  8  1  0  0  0  0
 13  1  1  0  0  0  0
 13 18  1  0  0  0  0
 14 16  1  0  0  0  0
 14 17  1  0  0  0  0
 16 19  1  0  0  0  0
 17 20  1  1  0  0  0
 17 15  1  0  0  0  0
 18 15  1  0  0  0  0
 19 13  2  0  0  0  0
 21 24  1  0  0  0  0
 22 25  1  0  0  0  0
 23 20  1  6  0  0  0
 23 22  1  0  0  0  0
 23 21  1  0  0  0  0
 24 25  1  0  0  0  0
 26 30  2  0  0  0  0
 26 29  1  0  0  0  0
 28 31  1  0  0  0  0
 28 27  2  0  0  0  0
 29  5  1  1  0  0  0
 29 27  1  0  0  0  0
 30 28  1  0  0  0  0
 31 32  1  0  0  0  0
 34 33  1  6  0  0  0
 34 35  1  0  0  0  0
 35 36  1  0  0  0  0
 36 37  1  1  0  0  0
 36 38  1  0  0  0  0
 38 39  1  0  0  0  0
 39 41  1  0  0  0  0
 41 40  1  1  0  0  0
 43 41  1  0  0  0  0
 43 42  2  0  0  0  0
 45 44  1  0  0  0  0
 45 43  1  0  0  0  0
M  END
>  <MODEL>
6

>  <REMARK>
 VINA RESULT:      -7.4      3.187      8.030
  Name = 
  13 active torsions:
  status: ('A' for Active; 'I' for Inactive)
    1  A    between atoms: C_1  and  C_14
    2  A    between atoms: C_4  and  C_21
    3  A    between atoms: C_4  and  N_33
    4  A    between atoms: C_8  and  C_28
    5  A    between atoms: C_8  and  C_45
    6  A    between atoms: C_9  and  C_18
    7  A    between atoms: C_12  and  C_38
    8  A    between atoms: C_13  and  C_26
    9  A    between atoms: C_17  and  C_34
   10  A    between atoms: C_17  and  C_35
   11  A    between atoms: C_21  and  C_38
   12  A    between atoms: C_28  and  C_41
   13  A    between atoms: N_33  and  C_41
                            x       y       z     vdW  Elec       q    Type
                         _______ _______ _______ _____ _____    ______ ____

>  <TORSDO>
F 13

$$$$
=
 OpenBabel10232408273D

 45 49  0  0  1  0  0  0  0  0999 V2000
  184.9620  178.4200  144.1590 C   0  0  0  0  0  0  0  0  0  0  0  0
  187.5450  178.1350  141.5530 C   0  0  0  0  0  0  0  0  0  0  0  0
  183.6300  178.7170  144.4540 C   0  0  0  0  0  3  0  0  0  0  0  0
  188.1430  178.2820  140.2330 C   0  0  2  0  0  3  0  0  0  0  0  0
  183.0000  178.6720  142.1500 C   0  0  0  0  0  0  0  0  0  0  0  0
  185.3080  178.2510  142.8010 C   0  0  0  0  0  0  0  0  0  0  0  0
  182.7050  178.8340  143.4690 N   0  0  0  0  0  0  0  0  0  0  0  0
  185.6940  179.0180  139.6560 C   0  0  0  0  0  2  0  0  0  0  0  0
  184.3320  178.3670  141.7750 C   0  0  0  0  0  0  0  0  0  0  0  0
  186.6570  178.1260  142.3470 C   0  0  0  0  0  0  0  0  0  0  0  0
  186.9860  178.2860  139.1990 C   0  0  0  0  0  2  0  0  0  0  0  0
  184.6940  178.0460  140.3210 C   0  0  0  0  0  2  0  0  0  0  0  0
  185.9300  178.3080  145.2830 C   0  0  0  0  0  0  0  0  0  0  0  0
  187.1040  177.7340  148.0490 C   0  0  0  0  0  2  0  0  0  0  0  0
  188.3510  177.6970  145.7990 C   0  0  0  0  0  2  0  0  0  0  0  0
  186.6230  179.1090  147.6090 C   0  0  0  0  0  2  0  0  0  0  0  0
  188.3580  177.3010  147.2780 C   0  0  1  0  0  3  0  0  0  0  0  0
  187.0410  177.2890  145.1390 C   0  0  0  0  0  2  0  0  0  0  0  0
  185.7430  179.0470  146.3930 C   0  0  0  0  0  3  0  0  0  0  0  0
  189.6500  177.7220  147.9820 C   0  0  0  0  0  2  0  0  0  0  0  0
  190.7740  175.8520  146.7680 C   0  0  0  0  0  2  0  0  0  0  0  0
  192.0490  177.2170  148.2290 C   0  0  0  0  0  2  0  0  0  0  0  0
  190.9140  177.2800  147.2520 C   0  0  2  0  0  3  0  0  0  0  0  0
  191.4730  175.0070  147.6420 O   0  0  0  0  0  0  0  0  0  0  0  0
  192.5250  175.7880  148.1400 C   0  0  0  0  0  2  0  0  0  0  0  0
  180.7760  179.5420  141.4670 N   0  0  0  0  0  0  0  0  0  0  0  0
  181.8160  178.3350  139.8920 C   0  0  0  0  0  3  0  0  0  0  0  0
  180.5950  178.8030  139.4540 C   0  0  0  0  0  0  0  0  0  0  0  0
  181.8860  178.8330  141.1840 C   0  0  1  0  0  3  0  0  0  0  0  0
  179.9820  179.5180  140.4120 N   0  0  0  0  0  0  0  0  0  0  0  0
  179.9950  178.5220  138.1210 C   0  0  0  0  0  2  0  0  0  0  0  0
  181.0920  178.3430  137.0880 C   0  0  0  0  0  1  0  0  0  0  0  0
  190.0200  176.9300  140.9740 O   0  0  0  0  0  1  0  0  0  0  0  0
  189.1380  177.1650  139.9140 C   0  0  2  0  0  3  0  0  0  0  0  0
  189.8450  177.3900  138.5650 C   0  0  0  0  0  2  0  0  0  0  0  0
  189.7690  176.2560  137.5310 C   0  0  1  0  0  3  0  0  0  0  0  0
  190.0830  176.7330  136.1260 C   0  0  0  0  0  1  0  0  0  0  0  0
  190.6360  175.1430  137.8930 N   0  0  0  0  0  2  0  0  0  0  0  0
  192.0120  175.6040  137.7690 C   0  0  0  0  0  2  0  0  0  0  0  0
  192.7530  173.6700  136.5600 O   0  0  0  0  0  1  0  0  0  0  0  0
  192.9720  174.4200  137.7190 C   0  0  1  0  0  3  0  0  0  0  0  0
  194.7970  175.7890  137.1200 O   0  0  0  0  0  0  0  0  0  0  0  0
  194.4030  174.8720  137.8240 C   0  0  0  0  0  0  0  0  0  0  0  0
  195.7930  175.1900  139.7140 O   0  0  0  0  0  1  0  0  0  0  0  0
  195.3490  174.2380  138.7960 C   0  0  0  0  0  2  0  0  0  0  0  0
  1  3  1  0  0  0  0
  1 13  1  0  0  0  0
  2 10  3  0  0  0  0
  4 34  1  6  0  0  0
  4  2  1  0  0  0  0
  5  7  1  0  0  0  0
  6  1  2  0  0  0  0
  7  3  2  0  0  0  0
  8 12  1  0  0  0  0
  9  5  2  0  0  0  0
  9  6  1  0  0  0  0
 10  6  1  0  0  0  0
 11  8  1  0  0  0  0
 11  4  1  0  0  0  0
 12  9  1  0  0  0  0
 13 19  2  0  0  0  0
 15 17  1  0  0  0  0
 16 14  1  0  0  0  0
 17 20  1  1  0  0  0
 17 14  1  0  0  0  0
 18 13  1  0  0  0  0
 18 15  1  0  0  0  0
 19 16  1  0  0  0  0
 21 23  1  0  0  0  0
 21 24  1  0  0  0  0
 23 20  1  1  0  0  0
 23 22  1  0  0  0  0
 24 25  1  0  0  0  0
 25 22  1  0  0  0  0
 27 29  1  0  0  0  0
 28 27  2  0  0  0  0
 28 30  1  0  0  0  0
 29 26  1  0  0  0  0
 29  5  1  6  0  0  0
 30 26  2  0  0  0  0
 31 28  1  0  0  0  0
 32 31  1  0  0  0  0
 34 33  1  1  0  0  0
 35 34  1  0  0  0  0
 36 37  1  6  0  0  0
 36 38  1  0  0  0  0
 36 35  1  0  0  0  0
 39 38  1  0  0  0  0
 41 40  1  6  0  0  0
 41 39  1  0  0  0  0
 41 43  1  0  0  0  0
 42 43  2  0  0  0  0
 43 45  1  0  0  0  0
 45 44  1  0  0  0  0
M  END
>  <MODEL>
7

>  <REMARK>
 VINA RESULT:      -7.3      2.812      8.724
  Name = 
  13 active torsions:
  status: ('A' for Active; 'I' for Inactive)
    1  A    between atoms: C_1  and  C_14
    2  A    between atoms: C_4  and  C_21
    3  A    between atoms: C_4  and  N_33
    4  A    between atoms: C_8  and  C_28
    5  A    between atoms: C_8  and  C_45
    6  A    between atoms: C_9  and  C_18
    7  A    between atoms: C_12  and  C_38
    8  A    between atoms: C_13  and  C_26
    9  A    between atoms: C_17  and  C_34
   10  A    between atoms: C_17  and  C_35
   11  A    between atoms: C_21  and  C_38
   12  A    between atoms: C_28  and  C_41
   13  A    between atoms: N_33  and  C_41
                            x       y       z     vdW  Elec       q    Type
                         _______ _______ _______ _____ _____    ______ ____

>  <TORSDO>
F 13

$$$$
=
 OpenBabel10232408273D

 45 49  0  0  1  0  0  0  0  0999 V2000
  186.8410  177.1940  137.4960 C   0  0  0  0  0  0  0  0  0  0  0  0
  188.4050  177.4910  140.8140 C   0  0  0  0  0  0  0  0  0  0  0  0
  185.6680  177.2940  136.7460 C   0  0  0  0  0  3  0  0  0  0  0  0
  188.4660  177.6370  142.2620 C   0  0  2  0  0  3  0  0  0  0  0  0
  184.5040  178.3930  138.5190 C   0  0  0  0  0  0  0  0  0  0  0  0
  186.8240  177.7150  138.8070 C   0  0  0  0  0  0  0  0  0  0  0  0
  184.5550  177.8740  137.2620 N   0  0  0  0  0  0  0  0  0  0  0  0
  185.9030  178.0660  141.9150 C   0  0  0  0  0  2  0  0  0  0  0  0
  185.6580  178.3290  139.3390 C   0  0  0  0  0  0  0  0  0  0  0  0
  187.8880  177.5180  139.7410 C   0  0  0  0  0  0  0  0  0  0  0  0
  187.1970  178.4140  142.7010 C   0  0  0  0  0  2  0  0  0  0  0  0
  185.6970  179.0110  140.7100 C   0  0  0  0  0  2  0  0  0  0  0  0
  188.0270  176.5430  136.8750 C   0  0  0  0  0  0  0  0  0  0  0  0
  189.7870  175.0150  134.8950 C   0  0  0  0  0  2  0  0  0  0  0  0
  190.5400  176.8280  136.5590 C   0  0  0  0  0  2  0  0  0  0  0  0
  189.1240  174.3680  136.1030 C   0  0  0  0  0  2  0  0  0  0  0  0
  190.8830  176.0040  135.3140 C   0  0  1  0  0  3  0  0  0  0  0  0
  189.1550  177.4480  136.4300 C   0  0  0  0  0  2  0  0  0  0  0  0
  188.0190  175.2120  136.6710 C   0  0  0  0  0  3  0  0  0  0  0  0
  192.2570  175.3400  135.4210 C   0  0  0  0  0  2  0  0  0  0  0  0
  194.2740  176.4740  136.3610 C   0  0  0  0  0  2  0  0  0  0  0  0
  193.5180  174.4540  137.3440 C   0  0  0  0  0  2  0  0  0  0  0  0
  193.0130  175.7060  136.6950 C   0  0  2  0  0  3  0  0  0  0  0  0
  195.3710  175.6040  136.4460 O   0  0  0  0  0  0  0  0  0  0  0  0
  195.0110  174.6600  137.4190 C   0  0  0  0  0  2  0  0  0  0  0  0
  182.3700  178.3710  139.7920 N   0  0  0  0  0  0  0  0  0  0  0  0
  182.7140  180.2380  138.6010 C   0  0  0  0  0  3  0  0  0  0  0  0
  181.5230  180.2870  139.2970 C   0  0  0  0  0  0  0  0  0  0  0  0
  183.2180  178.9940  138.9500 C   0  0  0  0  0  0  0  0  0  0  0  0
  181.3300  179.1580  140.0000 N   0  0  0  0  0  2  0  0  0  0  0  0
  180.5460  181.4080  139.2490 C   0  0  0  0  0  2  0  0  0  0  0  0
  180.6520  182.1300  137.9190 C   0  0  0  0  0  1  0  0  0  0  0  0
  190.8800  177.8670  142.1130 O   0  0  0  0  0  1  0  0  0  0  0  0
  189.7260  178.3710  142.7230 C   0  0  2  0  0  3  0  0  0  0  0  0
  189.8230  178.4420  144.2570 C   0  0  0  0  0  2  0  0  0  0  0  0
  190.0450  177.1220  145.0120 C   0  0  1  0  0  3  0  0  0  0  0  0
  191.5140  176.8370  145.2590 C   0  0  0  0  0  1  0  0  0  0  0  0
  189.3070  177.0930  146.2670 N   0  0  0  0  0  2  0  0  0  0  0  0
  187.9140  177.3900  145.9610 C   0  0  0  0  0  2  0  0  0  0  0  0
  188.0840  178.4050  148.1270 O   0  0  0  0  0  1  0  0  0  0  0  0
  187.1790  177.8630  147.2100 C   0  0  1  0  0  3  0  0  0  0  0  0
  185.9620  179.8580  147.5270 O   0  0  0  0  0  0  0  0  0  0  0  0
  186.0870  178.8400  146.8660 C   0  0  0  0  0  0  0  0  0  0  0  0
  183.9180  179.1600  145.9760 O   0  0  0  0  0  1  0  0  0  0  0  0
  185.1670  178.6000  145.7100 C   0  0  0  0  0  2  0  0  0  0  0  0
  1  6  1  0  0  0  0
  2  4  1  0  0  0  0
  3  7  1  0  0  0  0
  3  1  2  0  0  0  0
  4 11  1  0  0  0  0
  4 34  1  6  0  0  0
  5 29  1  0  0  0  0
  5  9  1  0  0  0  0
  6  9  2  0  0  0  0
  6 10  1  0  0  0  0
  7  5  2  0  0  0  0
  8 11  1  0  0  0  0
  9 12  1  0  0  0  0
 10  2  3  0  0  0  0
 12  8  1  0  0  0  0
 13  1  1  0  0  0  0
 14 17  1  0  0  0  0
 14 16  1  0  0  0  0
 16 19  1  0  0  0  0
 17 20  1  1  0  0  0
 17 15  1  0  0  0  0
 18 15  1  0  0  0  0
 18 13  1  0  0  0  0
 19 13  2  0  0  0  0
 21 24  1  0  0  0  0
 21 23  1  0  0  0  0
 22 25  1  0  0  0  0
 23 20  1  6  0  0  0
 23 22  1  0  0  0  0
 24 25  1  0  0  0  0
 26 30  1  0  0  0  0
 27 29  1  0  0  0  0
 27 28  2  0  0  0  0
 28 30  1  0  0  0  0
 29 26  2  0  0  0  0
 31 28  1  0  0  0  0
 32 31  1  0  0  0  0
 34 33  1  1  0  0  0
 34 35  1  0  0  0  0
 35 36  1  0  0  0  0
 36 37  1  1  0  0  0
 36 38  1  0  0  0  0
 39 38  1  0  0  0  0
 39 41  1  0  0  0  0
 41 40  1  1  0  0  0
 43 41  1  0  0  0  0
 43 42  2  0  0  0  0
 45 44  1  0  0  0  0
 45 43  1  0  0  0  0
M  END
>  <MODEL>
8

>  <REMARK>
 VINA RESULT:      -7.2      1.509      2.032
  Name = 
  13 active torsions:
  status: ('A' for Active; 'I' for Inactive)
    1  A    between atoms: C_1  and  C_14
    2  A    between atoms: C_4  and  C_21
    3  A    between atoms: C_4  and  N_33
    4  A    between atoms: C_8  and  C_28
    5  A    between atoms: C_8  and  C_45
    6  A    between atoms: C_9  and  C_18
    7  A    between atoms: C_12  and  C_38
    8  A    between atoms: C_13  and  C_26
    9  A    between atoms: C_17  and  C_34
   10  A    between atoms: C_17  and  C_35
   11  A    between atoms: C_21  and  C_38
   12  A    between atoms: C_28  and  C_41
   13  A    between atoms: N_33  and  C_41
                            x       y       z     vdW  Elec       q    Type
                         _______ _______ _______ _____ _____    ______ ____

>  <TORSDO>
F 13

$$$$
=
 OpenBabel10232408273D

 45 49  0  0  1  0  0  0  0  0999 V2000
  186.8870  178.4250  141.4340 C   0  0  0  0  0  0  0  0  0  0  0  0
  189.0760  177.8230  138.5370 C   0  0  0  0  0  0  0  0  0  0  0  0
  185.6420  178.8720  141.8830 C   0  0  0  0  0  3  0  0  0  0  0  0
  189.5160  177.8860  137.1500 C   0  0  2  0  0  3  0  0  0  0  0  0
  184.7270  178.8700  139.6760 C   0  0  0  0  0  0  0  0  0  0  0  0
  187.0390  178.2020  140.0490 C   0  0  0  0  0  0  0  0  0  0  0  0
  184.6190  179.0800  141.0170 N   0  0  0  0  0  0  0  0  0  0  0  0
  187.1090  178.8830  136.8610 C   0  0  0  0  0  2  0  0  0  0  0  0
  185.9600  178.4140  139.1480 C   0  0  0  0  0  0  0  0  0  0  0  0
  188.2990  177.9220  139.4350 C   0  0  0  0  0  0  0  0  0  0  0  0
  188.2460  178.0060  136.2680 C   0  0  0  0  0  2  0  0  0  0  0  0
  186.1000  178.0370  137.6690 C   0  0  0  0  0  2  0  0  0  0  0  0
  187.9700  178.2190  142.4330 C   0  0  0  0  0  0  0  0  0  0  0  0
  190.3820  178.7400  144.2390 C   0  0  0  0  0  2  0  0  0  0  0  0
  188.4580  177.0860  144.6630 C   0  0  0  0  0  2  0  0  0  0  0  0
  190.4820  178.0700  142.8770 C   0  0  0  0  0  2  0  0  0  0  0  0
  189.6440  177.8540  145.2520 C   0  0  1  0  0  3  0  0  0  0  0  0
  187.5510  178.0190  143.8730 C   0  0  0  0  0  2  0  0  0  0  0  0
  189.2560  178.2900  142.0380 C   0  0  0  0  0  3  0  0  0  0  0  0
  190.5950  176.9420  146.0290 C   0  0  0  0  0  2  0  0  0  0  0  0
  189.1170  176.0700  147.8440 C   0  0  0  0  0  2  0  0  0  0  0  0
  189.9280  178.2940  147.9770 C   0  0  0  0  0  2  0  0  0  0  0  0
  190.3300  176.9220  147.5310 C   0  0  2  0  0  3  0  0  0  0  0  0
  188.0200  176.9130  148.0730 O   0  0  0  0  0  0  0  0  0  0  0  0
  188.5680  178.0900  148.6000 C   0  0  0  0  0  2  0  0  0  0  0  0
  182.8940  178.1820  138.1480 N   0  0  0  0  0  0  0  0  0  0  0  0
  182.8710  180.3550  138.6950 C   0  0  0  0  0  3  0  0  0  0  0  0
  181.8250  180.0270  137.8570 C   0  0  0  0  0  0  0  0  0  0  0  0
  183.5250  179.1430  138.8510 C   0  0  1  0  0  3  0  0  0  0  0  0
  181.8570  178.7240  137.5340 N   0  0  0  0  0  0  0  0  0  0  0  0
  180.8150  180.9850  137.3290 C   0  0  0  0  0  2  0  0  0  0  0  0
  180.9010  182.2970  138.0870 C   0  0  0  0  0  1  0  0  0  0  0  0
  189.5360  175.5240  136.5860 O   0  0  0  0  0  1  0  0  0  0  0  0
  190.3350  176.6620  136.7400 C   0  0  2  0  0  3  0  0  0  0  0  0
  191.5460  176.4420  137.6620 C   0  0  0  0  0  2  0  0  0  0  0  0
  192.6430  175.4840  137.1710 C   0  0  1  0  0  3  0  0  0  0  0  0
  192.9110  175.6260  135.6850 C   0  0  0  0  0  1  0  0  0  0  0  0
  193.8770  175.6520  137.9250 N   0  0  0  0  0  2  0  0  0  0  0  0
  194.8730  174.7690  137.3340 C   0  0  0  0  0  2  0  0  0  0  0  0
  195.5310  173.0260  138.8450 O   0  0  0  0  0  1  0  0  0  0  0  0
  195.8710  174.3030  138.3890 C   0  0  1  0  0  3  0  0  0  0  0  0
  197.8750  175.4120  137.8270 O   0  0  0  0  0  0  0  0  0  0  0  0
  197.2810  174.3460  137.8650 C   0  0  0  0  0  0  0  0  0  0  0  0
  198.9530  173.4230  136.4670 O   0  0  0  0  0  1  0  0  0  0  0  0
  197.9810  173.1020  137.4140 C   0  0  0  0  0  2  0  0  0  0  0  0
  1  3  1  0  0  0  0
  1 13  1  0  0  0  0
  2 10  3  0  0  0  0
  4 34  1  6  0  0  0
  4  2  1  0  0  0  0
  5  7  1  0  0  0  0
  6  1  2  0  0  0  0
  7  3  2  0  0  0  0
  8 12  1  0  0  0  0
  9  5  2  0  0  0  0
  9  6  1  0  0  0  0
 10  6  1  0  0  0  0
 11  8  1  0  0  0  0
 11  4  1  0  0  0  0
 12  9  1  0  0  0  0
 13 18  1  0  0  0  0
 14 17  1  0  0  0  0
 15 17  1  0  0  0  0
 16 14  1  0  0  0  0
 17 20  1  6  0  0  0
 18 15  1  0  0  0  0
 19 13  2  0  0  0  0
 19 16  1  0  0  0  0
 21 24  1  0  0  0  0
 22 25  1  0  0  0  0
 23 20  1  6  0  0  0
 23 21  1  0  0  0  0
 23 22  1  0  0  0  0
 24 25  1  0  0  0  0
 26 29  1  0  0  0  0
 27 29  1  0  0  0  0
 28 27  2  0  0  0  0
 29  5  1  1  0  0  0
 30 28  1  0  0  0  0
 30 26  2  0  0  0  0
 31 28  1  0  0  0  0
 31 32  1  0  0  0  0
 34 33  1  1  0  0  0
 34 35  1  0  0  0  0
 36 37  1  6  0  0  0
 36 35  1  0  0  0  0
 36 38  1  0  0  0  0
 39 38  1  0  0  0  0
 39 41  1  0  0  0  0
 41 40  1  6  0  0  0
 42 43  2  0  0  0  0
 43 41  1  0  0  0  0
 44 45  1  0  0  0  0
 45 43  1  0  0  0  0
M  END
>  <MODEL>
9

>  <REMARK>
 VINA RESULT:      -7.2      2.374      8.942
  Name = 
  13 active torsions:
  status: ('A' for Active; 'I' for Inactive)
    1  A    between atoms: C_1  and  C_14
    2  A    between atoms: C_4  and  C_21
    3  A    between atoms: C_4  and  N_33
    4  A    between atoms: C_8  and  C_28
    5  A    between atoms: C_8  and  C_45
    6  A    between atoms: C_9  and  C_18
    7  A    between atoms: C_12  and  C_38
    8  A    between atoms: C_13  and  C_26
    9  A    between atoms: C_17  and  C_34
   10  A    between atoms: C_17  and  C_35
   11  A    between atoms: C_21  and  C_38
   12  A    between atoms: C_28  and  C_41
   13  A    between atoms: N_33  and  C_41
                            x       y       z     vdW  Elec       q    Type
                         _______ _______ _______ _____ _____    ______ ____

>  <TORSDO>
F 13

$$$$
