=
 OpenBabel10232408113D

 38 41  0  0  1  0  0  0  0  0999 V2000
  192.9900  176.4460  137.5040 C   0  0  0  0  0  2  0  0  0  0  0  0
  189.0940  177.0190  139.1470 N   0  0  0  0  0  0  0  0  0  0  0  0
  189.5220  177.3000  140.3400 C   0  0  0  0  0  0  0  0  0  0  0  0
  191.3120  174.5760  137.2080 C   0  0  0  0  0  3  0  0  0  0  0  0
  191.3580  176.8600  139.2060 C   0  0  0  0  0  0  0  0  0  0  0  0
  192.6040  176.7400  138.8770 N   0  0  0  0  0  0  0  0  0  0  0  0
  192.5580  175.0670  137.0990 C   0  0  0  0  0  3  0  0  0  0  0  0
  190.9310  177.2150  140.5080 N   0  0  0  0  0  2  0  0  0  0  0  0
  190.0820  175.2460  137.7920 C   0  0  1  0  0  3  0  0  0  0  0  0
  190.2140  176.7000  138.2690 C   0  0  1  0  0  3  0  0  0  0  0  0
  185.1360  177.1540  136.6370 C   0  0  0  0  0  1  0  0  0  0  0  0
  186.1340  176.3180  136.3830 C   0  0  0  0  0  0  0  0  0  0  0  0
  187.4260  176.8810  136.1130 N   0  0  0  0  0  0  0  0  0  0  0  0
  188.1310  174.0700  137.0020 N   0  0  0  0  0  0  0  0  0  0  0  0
  188.6210  176.1140  135.7840 C   0  0  2  0  0  3  0  0  0  0  0  0
  185.9000  174.8530  136.4690 C   0  0  0  0  0  0  0  0  0  0  0  0
  186.9740  173.8560  136.1630 C   0  0  0  0  0  2  0  0  0  0  0  0
  184.7650  174.4160  136.7950 O   0  0  0  0  0  0  0  0  0  0  0  0
  188.9140  175.0870  136.8560 C   0  0  0  0  0  0  0  0  0  0  0  0
  190.5660  176.5250  134.4210 O   0  0  0  0  0  1  0  0  0  0  0  0
  189.7880  177.0430  135.4580 C   0  0  0  0  0  2  0  0  0  0  0  0
  188.6050  177.5850  141.4870 C   0  0  0  0  0  2  0  0  0  0  0  0
  189.3450  178.1830  142.6740 C   0  0  0  0  0  2  0  0  0  0  0  0
  188.6040  177.8620  143.9600 C   0  0  0  0  0  2  0  0  0  0  0  0
  189.2490  177.4210  146.3700 C   0  0  0  0  0  0  0  0  0  0  0  0
  191.3880  176.3810  146.8770 C   0  0  0  0  0  0  0  0  0  0  0  0
  189.5560  177.3570  144.9940 C   0  0  0  0  0  0  0  0  0  0  0  0
  190.7810  176.8240  144.5780 C   0  0  0  0  0  3  0  0  0  0  0  0
  190.1700  176.9160  147.3020 C   0  0  0  0  0  3  0  0  0  0  0  0
  192.3530  175.8520  147.8740 C   0  0  0  0  0  1  0  0  0  0  0  0
  191.6940  176.3370  145.5150 C   0  0  0  0  0  3  0  0  0  0  0  0
  187.8630  178.1280  148.2310 O   0  0  0  0  0  1  0  0  0  0  0  0
  187.9220  177.9660  146.8410 C   0  0  2  0  0  3  0  0  0  0  0  0
  186.8150  177.2460  146.3430 O   0  0  0  0  0  0  0  0  0  0  0  0
  185.6400  177.9630  146.6280 C   0  0  0  0  0  2  0  0  0  0  0  0
  185.5700  179.2090  145.7590 C   0  0  0  0  0  2  0  0  0  0  0  0
  184.9660  178.3550  143.4900 C   0  0  0  0  0  1  0  0  0  0  0  0
  184.4680  179.0940  144.7170 C   0  0  0  0  0  2  0  0  0  0  0  0
  1  6  1  0  0  0  0
  2  3  2  0  0  0  0
  3  8  1  0  0  0  0
  3 22  1  0  0  0  0
  4  9  1  0  0  0  0
  5  8  1  0  0  0  0
  6  5  2  0  0  0  0
  7  4  2  0  0  0  0
  7  1  1  0  0  0  0
  9 19  1  6  0  0  0
  9 10  1  0  0  0  0
 10  2  1  1  0  0  0
 10  5  1  0  0  0  0
 12 16  1  0  0  0  0
 12 11  1  0  0  0  0
 13 12  2  0  0  0  0
 15 21  1  1  0  0  0
 15 13  1  0  0  0  0
 15 19  1  0  0  0  0
 16 18  2  0  0  0  0
 17 16  1  0  0  0  0
 17 14  1  0  0  0  0
 19 14  2  0  0  0  0
 20 21  1  0  0  0  0
 22 23  1  0  0  0  0
 23 24  1  0  0  0  0
 24 27  1  0  0  0  0
 25 33  1  0  0  0  0
 25 29  1  0  0  0  0
 26 29  2  0  0  0  0
 26 30  1  0  0  0  0
 27 25  2  0  0  0  0
 28 27  1  0  0  0  0
 28 31  2  0  0  0  0
 31 26  1  0  0  0  0
 33 32  1  1  0  0  0
 34 35  1  0  0  0  0
 34 33  1  0  0  0  0
 36 35  1  0  0  0  0
 37 38  1  0  0  0  0
 38 36  1  0  0  0  0
M  END
>  <MODEL>
1

>  <REMARK>
 VINA RESULT:      -8.5      0.000      0.000
  Name = 
  11 active torsions:
  status: ('A' for Active; 'I' for Inactive)
    1  A    between atoms: C_6  and  C_17
    2  A    between atoms: C_7  and  C_28
    3  A    between atoms: C_13  and  C_14
    4  A    between atoms: C_13  and  C_26
    5  A    between atoms: C_15  and  CA_22
    6  A    between atoms: C_17  and  O_18
    7  A    between atoms: O_18  and  C_26
    8  A    between atoms: C_20  and  C_30
    9  A    between atoms: C_20  and  C_32
   10  A    between atoms: C_27  and  C_38
   11  A    between atoms: C_28  and  C_30
                            x       y       z     vdW  Elec       q    Type
                         _______ _______ _______ _____ _____    ______ ____

>  <TORSDO>
F 11

$$$$
=
 OpenBabel10232408113D

 38 41  0  0  1  0  0  0  0  0999 V2000
  187.1530  178.2930  134.7350 C   0  0  0  0  0  2  0  0  0  0  0  0
  187.3950  178.2080  138.9940 N   0  0  0  0  0  0  0  0  0  0  0  0
  188.5800  177.6810  139.0230 C   0  0  0  0  0  0  0  0  0  0  0  0
  185.2710  177.1590  135.9880 C   0  0  0  0  0  3  0  0  0  0  0  0
  188.1020  177.7970  136.8760 C   0  0  0  0  0  0  0  0  0  0  0  0
  188.2070  177.7590  135.5870 N   0  0  0  0  0  0  0  0  0  0  0  0
  185.8980  177.4780  134.8430 C   0  0  0  0  0  3  0  0  0  0  0  0
  189.1260  177.3580  137.7500 N   0  0  0  0  0  2  0  0  0  0  0  0
  185.6840  177.4830  137.4110 C   0  0  1  0  0  3  0  0  0  0  0  0
  186.9360  178.3490  137.6170 C   0  0  1  0  0  3  0  0  0  0  0  0
  180.6920  179.5320  136.8420 C   0  0  0  0  0  2  0  0  0  0  0  0
  181.7060  179.1730  137.6180 C   0  0  0  0  0  0  0  0  0  0  0  0
  182.1590  177.8140  137.5400 N   0  0  0  0  0  2  0  0  0  0  0  0
  184.5920  179.2310  138.6630 N   0  0  0  0  0  0  0  0  0  0  0  0
  183.2350  177.2420  138.3410 C   0  0  2  0  0  3  0  0  0  0  0  0
  182.3770  180.1940  138.4640 C   0  0  0  0  0  0  0  0  0  0  0  0
  183.5040  179.8480  139.3870 C   0  0  0  0  0  2  0  0  0  0  0  0
  181.9900  181.3920  138.4280 O   0  0  0  0  0  0  0  0  0  0  0  0
  184.5120  178.0380  138.1750 C   0  0  0  0  0  0  0  0  0  0  0  0
  182.4550  175.0120  138.8150 O   0  0  0  0  0  1  0  0  0  0  0  0
  183.3770  175.7470  138.0680 C   0  0  0  0  0  2  0  0  0  0  0  0
  189.2850  177.3310  140.2960 C   0  0  0  0  0  2  0  0  0  0  0  0
  188.7320  178.1050  141.4840 C   0  0  0  0  0  2  0  0  0  0  0  0
  188.2660  177.1380  142.5580 C   0  0  0  0  0  2  0  0  0  0  0  0
  186.9060  177.7580  144.6040 C   0  0  0  0  0  0  0  0  0  0  0  0
  184.6430  178.6050  144.3390 C   0  0  0  0  0  0  0  0  0  0  0  0
  187.0160  177.6420  143.2020 C   0  0  0  0  0  0  0  0  0  0  0  0
  185.9330  177.9910  142.3870 C   0  0  0  0  0  3  0  0  0  0  0  0
  185.7170  178.2540  145.1600 C   0  0  0  0  0  3  0  0  0  0  0  0
  183.3900  179.1280  144.9410 C   0  0  0  0  0  1  0  0  0  0  0  0
  184.7500  178.4720  142.9530 C   0  0  0  0  0  3  0  0  0  0  0  0
  187.7120  177.3380  146.8530 O   0  0  0  0  0  1  0  0  0  0  0  0
  188.0710  177.4140  145.5010 C   0  0  2  0  0  3  0  0  0  0  0  0
  189.1960  178.2400  145.2960 O   0  0  0  0  0  0  0  0  0  0  0  0
  190.3200  177.6340  145.8830 C   0  0  0  0  0  2  0  0  0  0  0  0
  191.0020  176.7210  144.8760 C   0  0  0  0  0  2  0  0  0  0  0  0
  191.6310  179.0030  144.0760 C   0  0  0  0  0  1  0  0  0  0  0  0
  191.6450  177.5210  143.7540 C   0  0  0  0  0  2  0  0  0  0  0  0
  1  7  1  0  0  0  0
  1  6  1  0  0  0  0
  2  3  2  0  0  0  0
  3 22  1  0  0  0  0
  4  9  1  0  0  0  0
  5  8  1  0  0  0  0
  6  5  2  0  0  0  0
  7  4  2  0  0  0  0
  8  3  1  0  0  0  0
  9 10  1  0  0  0  0
  9 19  1  6  0  0  0
 10  5  1  6  0  0  0
 10  2  1  0  0  0  0
 11 12  2  0  0  0  0
 12 16  1  0  0  0  0
 13 12  1  0  0  0  0
 13 15  1  0  0  0  0
 14 17  1  0  0  0  0
 15 21  1  6  0  0  0
 16 17  1  0  0  0  0
 18 16  2  0  0  0  0
 19 15  1  0  0  0  0
 19 14  2  0  0  0  0
 21 20  1  0  0  0  0
 22 23  1  0  0  0  0
 23 24  1  0  0  0  0
 24 27  1  0  0  0  0
 25 29  1  0  0  0  0
 25 33  1  0  0  0  0
 26 30  1  0  0  0  0
 26 29  2  0  0  0  0
 27 25  2  0  0  0  0
 28 31  2  0  0  0  0
 28 27  1  0  0  0  0
 31 26  1  0  0  0  0
 33 32  1  1  0  0  0
 34 33  1  0  0  0  0
 34 35  1  0  0  0  0
 36 35  1  0  0  0  0
 38 37  1  0  0  0  0
 38 36  1  0  0  0  0
M  END
>  <MODEL>
2

>  <REMARK>
 VINA RESULT:      -8.4      2.820      5.645
  Name = 
  11 active torsions:
  status: ('A' for Active; 'I' for Inactive)
    1  A    between atoms: C_6  and  C_17
    2  A    between atoms: C_7  and  C_28
    3  A    between atoms: C_13  and  C_14
    4  A    between atoms: C_13  and  C_26
    5  A    between atoms: C_15  and  CA_22
    6  A    between atoms: C_17  and  O_18
    7  A    between atoms: O_18  and  C_26
    8  A    between atoms: C_20  and  C_30
    9  A    between atoms: C_20  and  C_32
   10  A    between atoms: C_27  and  C_38
   11  A    between atoms: C_28  and  C_30
                            x       y       z     vdW  Elec       q    Type
                         _______ _______ _______ _____ _____    ______ ____

>  <TORSDO>
F 11

$$$$
=
 OpenBabel10232408113D

 38 41  0  0  1  0  0  0  0  0999 V2000
  187.4670  178.4500  136.6350 C   0  0  0  0  0  2  0  0  0  0  0  0
  186.0190  178.7230  140.6390 N   0  0  0  0  0  0  0  0  0  0  0  0
  187.0770  178.1910  141.1710 C   0  0  0  0  0  0  0  0  0  0  0  0
  185.2000  177.4400  137.1280 C   0  0  0  0  0  3  0  0  0  0  0  0
  187.4820  178.1300  139.0070 C   0  0  0  0  0  0  0  0  0  0  0  0
  188.0810  177.9810  137.8700 N   0  0  0  0  0  0  0  0  0  0  0  0
  186.2380  177.6570  136.3020 C   0  0  0  0  0  3  0  0  0  0  0  0
  188.0630  177.7580  140.2430 N   0  0  0  0  0  2  0  0  0  0  0  0
  185.0360  177.8810  138.5700 C   0  0  1  0  0  3  0  0  0  0  0  0
  186.1420  178.7510  139.1870 C   0  0  1  0  0  3  0  0  0  0  0  0
  180.1620  178.5300  136.2760 C   0  0  0  0  0  2  0  0  0  0  0  0
  180.9980  178.7490  137.2820 C   0  0  0  0  0  0  0  0  0  0  0  0
  181.5600  177.6080  137.9460 N   0  0  0  0  0  2  0  0  0  0  0  0
  183.5580  179.7840  138.6230 N   0  0  0  0  0  0  0  0  0  0  0  0
  182.4660  177.6650  139.0870 C   0  0  2  0  0  3  0  0  0  0  0  0
  181.3790  180.1440  137.6250 C   0  0  0  0  0  0  0  0  0  0  0  0
  182.2900  180.4620  138.7700 C   0  0  0  0  0  2  0  0  0  0  0  0
  180.9200  181.1040  136.9520 O   0  0  0  0  0  0  0  0  0  0  0  0
  183.6820  178.5070  138.7670 C   0  0  0  0  0  0  0  0  0  0  0  0
  182.4900  175.2990  138.6290 O   0  0  0  0  0  1  0  0  0  0  0  0
  182.7810  176.2610  139.5980 C   0  0  0  0  0  2  0  0  0  0  0  0
  187.2120  177.9450  142.6410 C   0  0  0  0  0  2  0  0  0  0  0  0
  188.6180  177.5050  143.0180 C   0  0  0  0  0  2  0  0  0  0  0  0
  189.1900  178.4430  144.0670 C   0  0  0  0  0  2  0  0  0  0  0  0
  189.5590  177.5810  146.4200 C   0  0  0  0  0  0  0  0  0  0  0  0
  191.5020  176.2050  146.9120 C   0  0  0  0  0  0  0  0  0  0  0  0
  189.9780  177.6740  145.0760 C   0  0  0  0  0  0  0  0  0  0  0  0
  191.1610  177.0490  144.6710 C   0  0  0  0  0  3  0  0  0  0  0  0
  190.3250  176.8310  147.3260 C   0  0  0  0  0  3  0  0  0  0  0  0
  192.3030  175.4160  147.8820 C   0  0  0  0  0  1  0  0  0  0  0  0
  191.9220  176.3160  145.5850 C   0  0  0  0  0  3  0  0  0  0  0  0
  188.1950  178.3690  148.2650 O   0  0  0  0  0  1  0  0  0  0  0  0
  188.2700  178.2240  146.8740 C   0  0  2  0  0  3  0  0  0  0  0  0
  187.1190  177.6040  146.3420 O   0  0  0  0  0  0  0  0  0  0  0  0
  186.0860  178.5530  146.2640 C   0  0  0  0  0  2  0  0  0  0  0  0
  184.9450  178.0080  145.4180 C   0  0  0  0  0  2  0  0  0  0  0  0
  183.4110  178.9810  143.7030 C   0  0  0  0  0  1  0  0  0  0  0  0
  183.9080  179.0830  145.1320 C   0  0  0  0  0  2  0  0  0  0  0  0
  1  6  1  0  0  0  0
  2  3  2  0  0  0  0
  3 22  1  0  0  0  0
  4  9  1  0  0  0  0
  5  8  1  0  0  0  0
  6  5  2  0  0  0  0
  7  1  1  0  0  0  0
  7  4  2  0  0  0  0
  8  3  1  0  0  0  0
  9 19  1  6  0  0  0
  9 10  1  0  0  0  0
 10  5  1  1  0  0  0
 10  2  1  0  0  0  0
 11 12  2  0  0  0  0
 12 16  1  0  0  0  0
 12 13  1  0  0  0  0
 13 15  1  0  0  0  0
 14 19  2  0  0  0  0
 14 17  1  0  0  0  0
 15 21  1  6  0  0  0
 16 17  1  0  0  0  0
 18 16  2  0  0  0  0
 19 15  1  0  0  0  0
 20 21  1  0  0  0  0
 22 23  1  0  0  0  0
 23 24  1  0  0  0  0
 24 27  1  0  0  0  0
 25 33  1  0  0  0  0
 25 29  1  0  0  0  0
 26 29  2  0  0  0  0
 26 30  1  0  0  0  0
 27 25  2  0  0  0  0
 28 27  1  0  0  0  0
 28 31  2  0  0  0  0
 31 26  1  0  0  0  0
 33 32  1  1  0  0  0
 34 33  1  0  0  0  0
 35 34  1  0  0  0  0
 36 35  1  0  0  0  0
 37 38  1  0  0  0  0
 38 36  1  0  0  0  0
M  END
>  <MODEL>
3

>  <REMARK>
 VINA RESULT:      -8.1      3.107      4.721
  Name = 
  11 active torsions:
  status: ('A' for Active; 'I' for Inactive)
    1  A    between atoms: C_6  and  C_17
    2  A    between atoms: C_7  and  C_28
    3  A    between atoms: C_13  and  C_14
    4  A    between atoms: C_13  and  C_26
    5  A    between atoms: C_15  and  CA_22
    6  A    between atoms: C_17  and  O_18
    7  A    between atoms: O_18  and  C_26
    8  A    between atoms: C_20  and  C_30
    9  A    between atoms: C_20  and  C_32
   10  A    between atoms: C_27  and  C_38
   11  A    between atoms: C_28  and  C_30
                            x       y       z     vdW  Elec       q    Type
                         _______ _______ _______ _____ _____    ______ ____

>  <TORSDO>
F 11

$$$$
=
 OpenBabel10232408113D

 38 41  0  0  1  0  0  0  0  0999 V2000
  180.0590  178.5040  141.7980 C   0  0  0  0  0  2  0  0  0  0  0  0
  184.2610  177.7680  141.8710 N   0  0  0  0  0  0  0  0  0  0  0  0
  184.4990  178.6080  142.8310 C   0  0  0  0  0  0  0  0  0  0  0  0
  181.3220  178.7360  139.6180 C   0  0  0  0  0  3  0  0  0  0  0  0
  182.3340  178.8040  142.4790 C   0  0  0  0  0  0  0  0  0  0  0  0
  181.0910  179.1400  142.6050 N   0  0  0  0  0  0  0  0  0  0  0  0
  180.2020  178.8650  140.3480 C   0  0  0  0  0  3  0  0  0  0  0  0
  183.3670  179.3370  143.2870 N   0  0  0  0  0  2  0  0  0  0  0  0
  182.6910  178.2600  140.0680 C   0  0  1  0  0  3  0  0  0  0  0  0
  182.8460  177.7870  141.5210 C   0  0  1  0  0  3  0  0  0  0  0  0
  182.8570  176.8830  134.8220 C   0  0  0  0  0  2  0  0  0  0  0  0
  183.1840  176.6440  136.0850 C   0  0  0  0  0  0  0  0  0  0  0  0
  183.9050  177.6620  136.7950 N   0  0  0  0  0  2  0  0  0  0  0  0
  182.6600  176.0730  139.0550 N   0  0  0  0  0  0  0  0  0  0  0  0
  184.3710  177.5530  138.1720 C   0  0  2  0  0  3  0  0  0  0  0  0
  182.7290  175.3860  136.7330 C   0  0  0  0  0  0  0  0  0  0  0  0
  183.0920  175.0390  138.1430 C   0  0  0  0  0  2  0  0  0  0  0  0
  182.0250  174.5660  136.0850 O   0  0  0  0  0  0  0  0  0  0  0  0
  183.2230  177.2340  139.1050 C   0  0  0  0  0  0  0  0  0  0  0  0
  186.3810  178.8400  137.8430 O   0  0  0  0  0  1  0  0  0  0  0  0
  185.1880  178.7810  138.5650 C   0  0  0  0  0  2  0  0  0  0  0  0
  185.8760  178.8790  143.3520 C   0  0  0  0  0  2  0  0  0  0  0  0
  186.9290  178.0410  142.6430 C   0  0  0  0  0  2  0  0  0  0  0  0
  187.2410  176.8010  143.4620 C   0  0  0  0  0  2  0  0  0  0  0  0
  189.2020  177.1240  145.0320 C   0  0  0  0  0  0  0  0  0  0  0  0
  188.8190  177.9320  147.2930 C   0  0  0  0  0  0  0  0  0  0  0  0
  187.8150  177.1860  144.7860 C   0  0  0  0  0  0  0  0  0  0  0  0
  186.9450  177.6010  145.8000 C   0  0  0  0  0  3  0  0  0  0  0  0
  189.6940  177.5130  146.2880 C   0  0  0  0  0  3  0  0  0  0  0  0
  189.3540  178.3390  148.6170 C   0  0  0  0  0  1  0  0  0  0  0  0
  187.4450  177.9740  147.0500 C   0  0  0  0  0  3  0  0  0  0  0  0
  191.3440  176.1460  144.4460 O   0  0  0  0  0  1  0  0  0  0  0  0
  190.1620  176.7060  143.9430 C   0  0  2  0  0  3  0  0  0  0  0  0
  190.4160  177.7250  143.0020 O   0  0  0  0  0  0  0  0  0  0  0  0
  191.6350  177.4560  142.3560 C   0  0  0  0  0  2  0  0  0  0  0  0
  191.4660  177.5940  140.8510 C   0  0  0  0  0  2  0  0  0  0  0  0
  189.3880  178.0620  139.5440 C   0  0  0  0  0  1  0  0  0  0  0  0
  190.1240  177.0430  140.3940 C   0  0  0  0  0  2  0  0  0  0  0  0
  1  6  1  0  0  0  0
  2  3  2  0  0  0  0
  3  8  1  0  0  0  0
  3 22  1  0  0  0  0
  4  9  1  0  0  0  0
  4  7  2  0  0  0  0
  5  6  2  0  0  0  0
  5  8  1  0  0  0  0
  7  1  1  0  0  0  0
  9 19  1  6  0  0  0
  9 10  1  0  0  0  0
 10  2  1  1  0  0  0
 10  5  1  0  0  0  0
 11 12  2  0  0  0  0
 12 16  1  0  0  0  0
 12 13  1  0  0  0  0
 13 15  1  0  0  0  0
 14 19  2  0  0  0  0
 15 21  1  1  0  0  0
 15 19  1  0  0  0  0
 16 17  1  0  0  0  0
 17 14  1  0  0  0  0
 18 16  2  0  0  0  0
 20 21  1  0  0  0  0
 23 22  1  0  0  0  0
 23 24  1  0  0  0  0
 24 27  1  0  0  0  0
 25 29  1  0  0  0  0
 26 30  1  0  0  0  0
 27 25  2  0  0  0  0
 27 28  1  0  0  0  0
 28 31  2  0  0  0  0
 29 26  2  0  0  0  0
 31 26  1  0  0  0  0
 33 32  1  1  0  0  0
 33 25  1  0  0  0  0
 34 33  1  0  0  0  0
 35 34  1  0  0  0  0
 36 35  1  0  0  0  0
 37 38  1  0  0  0  0
 38 36  1  0  0  0  0
M  END
>  <MODEL>
4

>  <REMARK>
 VINA RESULT:      -7.9      3.666      6.530
  Name = 
  11 active torsions:
  status: ('A' for Active; 'I' for Inactive)
    1  A    between atoms: C_6  and  C_17
    2  A    between atoms: C_7  and  C_28
    3  A    between atoms: C_13  and  C_14
    4  A    between atoms: C_13  and  C_26
    5  A    between atoms: C_15  and  CA_22
    6  A    between atoms: C_17  and  O_18
    7  A    between atoms: O_18  and  C_26
    8  A    between atoms: C_20  and  C_30
    9  A    between atoms: C_20  and  C_32
   10  A    between atoms: C_27  and  C_38
   11  A    between atoms: C_28  and  C_30
                            x       y       z     vdW  Elec       q    Type
                         _______ _______ _______ _____ _____    ______ ____

>  <TORSDO>
F 11

$$$$
=
 OpenBabel10232408113D

 38 41  0  0  1  0  0  0  0  0999 V2000
  186.8880  178.1040  137.4450 C   0  0  0  0  0  2  0  0  0  0  0  0
  184.7180  179.5380  140.8280 N   0  0  0  0  0  0  0  0  0  0  0  0
  185.6350  179.2120  141.6880 C   0  0  0  0  0  0  0  0  0  0  0  0
  184.5320  177.2430  137.7720 C   0  0  0  0  0  3  0  0  0  0  0  0
  186.4400  178.5120  139.7610 C   0  0  0  0  0  0  0  0  0  0  0  0
  187.2380  178.0410  138.8580 N   0  0  0  0  0  0  0  0  0  0  0  0
  185.7140  177.2220  137.1340 C   0  0  0  0  0  3  0  0  0  0  0  0
  186.7620  178.5400  141.1400 N   0  0  0  0  0  2  0  0  0  0  0  0
  184.1140  178.0930  138.9570 C   0  0  1  0  0  3  0  0  0  0  0  0
  185.1160  179.1300  139.4860 C   0  0  1  0  0  3  0  0  0  0  0  0
  180.2030  178.6110  135.2310 C   0  0  0  0  0  2  0  0  0  0  0  0
  180.6860  178.8810  136.4370 C   0  0  0  0  0  0  0  0  0  0  0  0
  181.0020  177.7750  137.2940 N   0  0  0  0  0  2  0  0  0  0  0  0
  182.7120  179.9900  138.4590 N   0  0  0  0  0  0  0  0  0  0  0  0
  181.5080  177.8890  138.6570 C   0  0  2  0  0  3  0  0  0  0  0  0
  180.9560  180.2920  136.8170 C   0  0  0  0  0  0  0  0  0  0  0  0
  181.4680  180.6670  138.1730 C   0  0  0  0  0  2  0  0  0  0  0  0
  180.7380  181.2180  135.9910 O   0  0  0  0  0  0  0  0  0  0  0  0
  182.7720  178.7210  138.6930 C   0  0  0  0  0  0  0  0  0  0  0  0
  180.8870  175.5620  138.6080 O   0  0  0  0  0  1  0  0  0  0  0  0
  181.6350  176.5120  139.3050 C   0  0  0  0  0  2  0  0  0  0  0  0
  185.4790  179.4220  143.1610 C   0  0  0  0  0  2  0  0  0  0  0  0
  185.1440  178.1290  143.8890 C   0  0  0  0  0  2  0  0  0  0  0  0
  186.3670  177.2290  143.9340 C   0  0  0  0  0  2  0  0  0  0  0  0
  188.5660  177.3470  145.1860 C   0  0  0  0  0  0  0  0  0  0  0  0
  188.5930  178.0330  147.5180 C   0  0  0  0  0  0  0  0  0  0  0  0
  187.1630  177.4990  145.1680 C   0  0  0  0  0  0  0  0  0  0  0  0
  186.4910  177.8970  146.3290 C   0  0  0  0  0  3  0  0  0  0  0  0
  189.2710  177.6310  146.3650 C   0  0  0  0  0  3  0  0  0  0  0  0
  189.3530  178.3280  148.7600 C   0  0  0  0  0  1  0  0  0  0  0  0
  187.2030  178.1640  147.5010 C   0  0  0  0  0  3  0  0  0  0  0  0
  190.4870  176.2290  144.2130 O   0  0  0  0  0  1  0  0  0  0  0  0
  189.3150  176.9460  143.9370 C   0  0  2  0  0  3  0  0  0  0  0  0
  189.5460  178.0230  143.0550 O   0  0  0  0  0  0  0  0  0  0  0  0
  190.6210  177.6970  142.2100 C   0  0  0  0  0  2  0  0  0  0  0  0
  190.0960  177.2190  140.8650 C   0  0  0  0  0  2  0  0  0  0  0  0
  190.6380  176.9190  138.4440 C   0  0  0  0  0  1  0  0  0  0  0  0
  191.2080  177.1580  139.8290 C   0  0  0  0  0  2  0  0  0  0  0  0
  1  6  1  0  0  0  0
  2  3  2  0  0  0  0
  3 22  1  0  0  0  0
  4  9  1  0  0  0  0
  5  8  1  0  0  0  0
  6  5  2  0  0  0  0
  7  1  1  0  0  0  0
  7  4  2  0  0  0  0
  8  3  1  0  0  0  0
  9 19  1  6  0  0  0
  9 10  1  0  0  0  0
 10  5  1  1  0  0  0
 10  2  1  0  0  0  0
 11 12  2  0  0  0  0
 12 16  1  0  0  0  0
 12 13  1  0  0  0  0
 13 15  1  0  0  0  0
 14 19  2  0  0  0  0
 15 19  1  0  0  0  0
 15 21  1  6  0  0  0
 16 17  1  0  0  0  0
 17 14  1  0  0  0  0
 18 16  2  0  0  0  0
 20 21  1  0  0  0  0
 22 23  1  0  0  0  0
 23 24  1  0  0  0  0
 24 27  1  0  0  0  0
 25 29  1  0  0  0  0
 26 30  1  0  0  0  0
 27 25  2  0  0  0  0
 27 28  1  0  0  0  0
 28 31  2  0  0  0  0
 29 26  2  0  0  0  0
 31 26  1  0  0  0  0
 33 32  1  1  0  0  0
 33 25  1  0  0  0  0
 34 33  1  0  0  0  0
 35 34  1  0  0  0  0
 36 35  1  0  0  0  0
 37 38  1  0  0  0  0
 38 36  1  0  0  0  0
M  END
>  <MODEL>
5

>  <REMARK>
 VINA RESULT:      -7.9      3.494      6.160
  Name = 
  11 active torsions:
  status: ('A' for Active; 'I' for Inactive)
    1  A    between atoms: C_6  and  C_17
    2  A    between atoms: C_7  and  C_28
    3  A    between atoms: C_13  and  C_14
    4  A    between atoms: C_13  and  C_26
    5  A    between atoms: C_15  and  CA_22
    6  A    between atoms: C_17  and  O_18
    7  A    between atoms: O_18  and  C_26
    8  A    between atoms: C_20  and  C_30
    9  A    between atoms: C_20  and  C_32
   10  A    between atoms: C_27  and  C_38
   11  A    between atoms: C_28  and  C_30
                            x       y       z     vdW  Elec       q    Type
                         _______ _______ _______ _____ _____    ______ ____

>  <TORSDO>
F 11

$$$$
=
 OpenBabel10232408113D

 38 41  0  0  1  0  0  0  0  0999 V2000
  180.7200  176.1500  139.0120 C   0  0  0  0  0  2  0  0  0  0  0  0
  184.6700  177.6390  139.6330 N   0  0  0  0  0  0  0  0  0  0  0  0
  184.3400  178.4050  140.6270 C   0  0  0  0  0  0  0  0  0  0  0  0
  181.9120  177.1600  137.0230 C   0  0  0  0  0  3  0  0  0  0  0  0
  182.4320  177.5050  139.9930 C   0  0  0  0  0  0  0  0  0  0  0  0
  181.1870  177.1540  139.9570 N   0  0  0  0  0  0  0  0  0  0  0  0
  180.8130  176.6460  137.5990 C   0  0  0  0  0  3  0  0  0  0  0  0
  182.9520  178.4220  140.9380 N   0  0  0  0  0  2  0  0  0  0  0  0
  183.2740  177.4090  137.6440 C   0  0  1  0  0  3  0  0  0  0  0  0
  183.4920  176.9660  139.0990 C   0  0  1  0  0  3  0  0  0  0  0  0
  188.5000  175.9550  137.5140 C   0  0  0  0  0  1  0  0  0  0  0  0
  187.3330  176.1090  136.9020 C   0  0  0  0  0  0  0  0  0  0  0  0
  186.1970  175.4190  137.4430 N   0  0  0  0  0  0  0  0  0  0  0  0
  184.8910  177.6590  135.8740 N   0  0  0  0  0  0  0  0  0  0  0  0
  184.8530  175.4490  136.8800 C   0  0  2  0  0  3  0  0  0  0  0  0
  187.2300  177.0390  135.7470 C   0  0  0  0  0  0  0  0  0  0  0  0
  185.9520  177.2320  134.9920 C   0  0  0  0  0  2  0  0  0  0  0  0
  188.2440  177.6840  135.3680 O   0  0  0  0  0  0  0  0  0  0  0  0
  184.3560  176.8720  136.7470 C   0  0  0  0  0  0  0  0  0  0  0  0
  184.4360  173.2230  137.7040 O   0  0  0  0  0  1  0  0  0  0  0  0
  183.9210  174.5200  137.6550 C   0  0  0  0  0  2  0  0  0  0  0  0
  185.3180  179.2930  141.3290 C   0  0  0  0  0  2  0  0  0  0  0  0
  185.0230  179.4020  142.8180 C   0  0  0  0  0  2  0  0  0  0  0  0
  185.0280  178.0200  143.4480 C   0  0  0  0  0  2  0  0  0  0  0  0
  187.2410  177.5920  144.6040 C   0  0  0  0  0  0  0  0  0  0  0  0
  187.4640  178.0240  146.9860 C   0  0  0  0  0  0  0  0  0  0  0  0
  185.8950  178.0090  144.6640 C   0  0  0  0  0  0  0  0  0  0  0  0
  185.3450  178.4100  145.8860 C   0  0  0  0  0  3  0  0  0  0  0  0
  188.0200  177.6170  145.7710 C   0  0  0  0  0  3  0  0  0  0  0  0
  188.3000  178.0440  148.2130 C   0  0  0  0  0  1  0  0  0  0  0  0
  186.1260  178.4190  147.0440 C   0  0  0  0  0  3  0  0  0  0  0  0
  188.4040  175.8900  143.3250 O   0  0  0  0  0  1  0  0  0  0  0  0
  187.8650  177.1820  143.2900 C   0  0  2  0  0  3  0  0  0  0  0  0
  188.7840  178.1280  142.7890 O   0  0  0  0  0  0  0  0  0  0  0  0
  190.0060  177.4840  142.5330 C   0  0  0  0  0  2  0  0  0  0  0  0
  191.1610  178.3690  142.9760 C   0  0  0  0  0  2  0  0  0  0  0  0
  191.4310  176.5410  144.6580 C   0  0  0  0  0  1  0  0  0  0  0  0
  191.6100  178.0230  144.3870 C   0  0  0  0  0  2  0  0  0  0  0  0
  1  6  1  0  0  0  0
  2  3  2  0  0  0  0
  3  8  1  0  0  0  0
  3 22  1  0  0  0  0
  4  7  2  0  0  0  0
  4  9  1  0  0  0  0
  5  8  1  0  0  0  0
  6  5  2  0  0  0  0
  7  1  1  0  0  0  0
  9 19  1  6  0  0  0
  9 10  1  0  0  0  0
 10  2  1  1  0  0  0
 10  5  1  0  0  0  0
 12 13  2  0  0  0  0
 12 11  1  0  0  0  0
 14 19  2  0  0  0  0
 15 13  1  0  0  0  0
 15 21  1  1  0  0  0
 16 12  1  0  0  0  0
 17 16  1  0  0  0  0
 17 14  1  0  0  0  0
 18 16  2  0  0  0  0
 19 15  1  0  0  0  0
 21 20  1  0  0  0  0
 22 23  1  0  0  0  0
 23 24  1  0  0  0  0
 24 27  1  0  0  0  0
 25 27  2  0  0  0  0
 25 29  1  0  0  0  0
 26 31  1  0  0  0  0
 26 30  1  0  0  0  0
 27 28  1  0  0  0  0
 28 31  2  0  0  0  0
 29 26  2  0  0  0  0
 33 32  1  1  0  0  0
 33 25  1  0  0  0  0
 34 33  1  0  0  0  0
 35 34  1  0  0  0  0
 35 36  1  0  0  0  0
 36 38  1  0  0  0  0
 38 37  1  0  0  0  0
M  END
>  <MODEL>
6

>  <REMARK>
 VINA RESULT:      -7.6      2.849      6.216
  Name = 
  11 active torsions:
  status: ('A' for Active; 'I' for Inactive)
    1  A    between atoms: C_6  and  C_17
    2  A    between atoms: C_7  and  C_28
    3  A    between atoms: C_13  and  C_14
    4  A    between atoms: C_13  and  C_26
    5  A    between atoms: C_15  and  CA_22
    6  A    between atoms: C_17  and  O_18
    7  A    between atoms: O_18  and  C_26
    8  A    between atoms: C_20  and  C_30
    9  A    between atoms: C_20  and  C_32
   10  A    between atoms: C_27  and  C_38
   11  A    between atoms: C_28  and  C_30
                            x       y       z     vdW  Elec       q    Type
                         _______ _______ _______ _____ _____    ______ ____

>  <TORSDO>
F 11

$$$$
=
 OpenBabel10232408113D

 38 41  0  0  1  0  0  0  0  0999 V2000
  185.5150  178.8070  142.8020 C   0  0  0  0  0  2  0  0  0  0  0  0
  188.9840  178.7080  140.3190 N   0  0  0  0  0  0  0  0  0  0  0  0
  188.3190  178.5670  139.2140 C   0  0  0  0  0  0  0  0  0  0  0  0
  187.3160  177.1270  143.3790 C   0  0  0  0  0  3  0  0  0  0  0  0
  186.7620  178.5780  140.7720 C   0  0  0  0  0  0  0  0  0  0  0  0
  185.6120  178.6010  141.3640 N   0  0  0  0  0  0  0  0  0  0  0  0
  186.0900  177.6460  143.5600 C   0  0  0  0  0  3  0  0  0  0  0  0
  186.9100  178.4530  139.3700 N   0  0  0  0  0  2  0  0  0  0  0  0
  188.3720  177.5310  142.3680 C   0  0  1  0  0  3  0  0  0  0  0  0
  188.0730  178.7320  141.4580 C   0  0  1  0  0  3  0  0  0  0  0  0
  192.0430  174.9280  145.3990 C   0  0  0  0  0  1  0  0  0  0  0  0
  191.6440  176.0220  144.7630 C   0  0  0  0  0  0  0  0  0  0  0  0
  191.3630  175.9140  143.3590 N   0  0  0  0  0  0  0  0  0  0  0  0
  189.7740  178.3740  144.1380 N   0  0  0  0  0  0  0  0  0  0  0  0
  190.9490  177.0170  142.5020 C   0  0  2  0  0  3  0  0  0  0  0  0
  191.4260  177.2750  145.5300 C   0  0  0  0  0  0  0  0  0  0  0  0
  191.0090  178.5520  144.8670 C   0  0  0  0  0  2  0  0  0  0  0  0
  191.6060  177.2890  146.7760 O   0  0  0  0  0  0  0  0  0  0  0  0
  189.7050  177.6860  143.0480 C   0  0  0  0  0  0  0  0  0  0  0  0
  191.7860  177.2050  140.2500 O   0  0  0  0  0  1  0  0  0  0  0  0
  190.8390  176.5610  141.0490 C   0  0  0  0  0  2  0  0  0  0  0  0
  188.9800  178.4220  137.8800 C   0  0  0  0  0  2  0  0  0  0  0  0
  187.9680  178.3540  136.7460 C   0  0  0  0  0  2  0  0  0  0  0  0
  188.2260  177.1230  135.8950 C   0  0  0  0  0  2  0  0  0  0  0  0
  187.9540  174.7480  136.7350 C   0  0  0  0  0  0  0  0  0  0  0  0
  185.7350  173.8940  137.2420 C   0  0  0  0  0  0  0  0  0  0  0  0
  187.3820  175.9830  136.3640 C   0  0  0  0  0  0  0  0  0  0  0  0
  185.9940  176.1530  136.4180 C   0  0  0  0  0  3  0  0  0  0  0  0
  187.1190  173.7140  137.1860 C   0  0  0  0  0  3  0  0  0  0  0  0
  184.8640  172.7900  137.7200 C   0  0  0  0  0  1  0  0  0  0  0  0
  185.1720  175.1120  136.8560 C   0  0  0  0  0  3  0  0  0  0  0  0
  189.8240  173.2610  136.3170 O   0  0  0  0  0  1  0  0  0  0  0  0
  189.4510  174.5520  136.7110 C   0  0  2  0  0  3  0  0  0  0  0  0
  190.0850  174.9450  137.9090 O   0  0  0  0  0  0  0  0  0  0  0  0
  191.4770  174.9090  137.7210 C   0  0  0  0  0  2  0  0  0  0  0  0
  191.9090  176.0640  136.8300 C   0  0  0  0  0  2  0  0  0  0  0  0
  193.8850  176.1720  135.3040 C   0  0  0  0  0  1  0  0  0  0  0  0
  193.4250  176.1610  136.7500 C   0  0  0  0  0  2  0  0  0  0  0  0
  1  7  1  0  0  0  0
  3  8  1  0  0  0  0
  3  2  2  0  0  0  0
  4  7  2  0  0  0  0
  5  6  2  0  0  0  0
  5 10  1  0  0  0  0
  6  1  1  0  0  0  0
  8  5  1  0  0  0  0
  9 19  1  1  0  0  0
  9  4  1  0  0  0  0
 10  2  1  6  0  0  0
 10  9  1  0  0  0  0
 12 11  1  0  0  0  0
 12 16  1  0  0  0  0
 13 12  2  0  0  0  0
 14 17  1  0  0  0  0
 15 21  1  6  0  0  0
 15 19  1  0  0  0  0
 15 13  1  0  0  0  0
 16 18  2  0  0  0  0
 17 16  1  0  0  0  0
 19 14  2  0  0  0  0
 20 21  1  0  0  0  0
 22  3  1  0  0  0  0
 23 22  1  0  0  0  0
 24 27  1  0  0  0  0
 24 23  1  0  0  0  0
 25 29  1  0  0  0  0
 26 30  1  0  0  0  0
 27 28  1  0  0  0  0
 27 25  2  0  0  0  0
 28 31  2  0  0  0  0
 29 26  2  0  0  0  0
 31 26  1  0  0  0  0
 33 32  1  1  0  0  0
 33 25  1  0  0  0  0
 33 34  1  0  0  0  0
 35 34  1  0  0  0  0
 36 35  1  0  0  0  0
 37 38  1  0  0  0  0
 38 36  1  0  0  0  0
M  END
>  <MODEL>
7

>  <REMARK>
 VINA RESULT:      -7.5      2.514      9.154
  Name = 
  11 active torsions:
  status: ('A' for Active; 'I' for Inactive)
    1  A    between atoms: C_6  and  C_17
    2  A    between atoms: C_7  and  C_28
    3  A    between atoms: C_13  and  C_14
    4  A    between atoms: C_13  and  C_26
    5  A    between atoms: C_15  and  CA_22
    6  A    between atoms: C_17  and  O_18
    7  A    between atoms: O_18  and  C_26
    8  A    between atoms: C_20  and  C_30
    9  A    between atoms: C_20  and  C_32
   10  A    between atoms: C_27  and  C_38
   11  A    between atoms: C_28  and  C_30
                            x       y       z     vdW  Elec       q    Type
                         _______ _______ _______ _____ _____    ______ ____

>  <TORSDO>
F 11

$$$$
=
 OpenBabel10232408113D

 38 41  0  0  1  0  0  0  0  0999 V2000
  179.9860  179.0900  140.0400 C   0  0  0  0  0  2  0  0  0  0  0  0
  183.9910  177.6210  140.0050 N   0  0  0  0  0  0  0  0  0  0  0  0
  184.3960  178.3940  140.9660 C   0  0  0  0  0  0  0  0  0  0  0  0
  181.2200  179.1190  137.8320 C   0  0  0  0  0  3  0  0  0  0  0  0
  182.2930  178.9740  140.6680 C   0  0  0  0  0  0  0  0  0  0  0  0
  181.1320  179.5230  140.8270 N   0  0  0  0  0  0  0  0  0  0  0  0
  180.1570  179.4360  138.5900 C   0  0  0  0  0  3  0  0  0  0  0  0
  183.4220  179.3070  141.4540 N   0  0  0  0  0  2  0  0  0  0  0  0
  182.4930  178.4040  138.2450 C   0  0  1  0  0  3  0  0  0  0  0  0
  182.5940  177.8940  139.6910 C   0  0  1  0  0  3  0  0  0  0  0  0
  184.9740  173.6070  137.7200 C   0  0  0  0  0  2  0  0  0  0  0  0
  184.2780  174.6070  137.1930 C   0  0  0  0  0  0  0  0  0  0  0  0
  183.0140  174.9300  137.7890 N   0  0  0  0  0  2  0  0  0  0  0  0
  183.7320  177.5150  136.3780 N   0  0  0  0  0  0  0  0  0  0  0  0
  182.1090  175.9720  137.3190 C   0  0  2  0  0  3  0  0  0  0  0  0
  184.8620  175.3930  136.0750 C   0  0  0  0  0  0  0  0  0  0  0  0
  184.1170  176.5100  135.4130 C   0  0  0  0  0  2  0  0  0  0  0  0
  186.0150  175.1170  135.6470 O   0  0  0  0  0  0  0  0  0  0  0  0
  182.8120  177.3110  137.2620 C   0  0  0  0  0  0  0  0  0  0  0  0
  180.6440  174.7530  138.7930 O   0  0  0  0  0  1  0  0  0  0  0  0
  180.8140  175.9680  138.1280 C   0  0  0  0  0  2  0  0  0  0  0  0
  185.8100  178.4110  141.4550 C   0  0  0  0  0  2  0  0  0  0  0  0
  185.8930  178.2500  142.9650 C   0  0  0  0  0  2  0  0  0  0  0  0
  187.1010  177.4050  143.3300 C   0  0  0  0  0  2  0  0  0  0  0  0
  188.7400  177.4120  145.2610 C   0  0  0  0  0  0  0  0  0  0  0  0
  187.9490  177.8680  147.5150 C   0  0  0  0  0  0  0  0  0  0  0  0
  187.4220  177.5580  144.7800 C   0  0  0  0  0  0  0  0  0  0  0  0
  186.3820  177.8380  145.6730 C   0  0  0  0  0  3  0  0  0  0  0  0
  188.9930  177.5840  146.6310 C   0  0  0  0  0  3  0  0  0  0  0  0
  188.2310  178.0450  148.9620 C   0  0  0  0  0  1  0  0  0  0  0  0
  186.6430  177.9930  147.0360 C   0  0  0  0  0  3  0  0  0  0  0  0
  190.9800  176.5380  144.9430 O   0  0  0  0  0  1  0  0  0  0  0  0
  189.8830  177.1390  144.3120 C   0  0  2  0  0  3  0  0  0  0  0  0
  190.2590  178.2660  143.5510 O   0  0  0  0  0  0  0  0  0  0  0  0
  190.9570  177.8330  142.4120 C   0  0  0  0  0  2  0  0  0  0  0  0
  190.1980  176.7020  141.7360 C   0  0  0  0  0  2  0  0  0  0  0  0
  189.0980  177.9980  139.9050 C   0  0  0  0  0  1  0  0  0  0  0  0
  190.1090  176.9160  140.2330 C   0  0  0  0  0  2  0  0  0  0  0  0
  1  6  1  0  0  0  0
  2  3  2  0  0  0  0
  3  8  1  0  0  0  0
  3 22  1  0  0  0  0
  4  9  1  0  0  0  0
  4  7  2  0  0  0  0
  5  6  2  0  0  0  0
  5  8  1  0  0  0  0
  7  1  1  0  0  0  0
  9 19  1  6  0  0  0
  9 10  1  0  0  0  0
 10  2  1  1  0  0  0
 10  5  1  0  0  0  0
 12 11  2  0  0  0  0
 12 13  1  0  0  0  0
 14 19  2  0  0  0  0
 15 13  1  0  0  0  0
 15 21  1  1  0  0  0
 16 12  1  0  0  0  0
 17 16  1  0  0  0  0
 17 14  1  0  0  0  0
 18 16  2  0  0  0  0
 19 15  1  0  0  0  0
 21 20  1  0  0  0  0
 22 23  1  0  0  0  0
 23 24  1  0  0  0  0
 24 27  1  0  0  0  0
 25 29  1  0  0  0  0
 26 30  1  0  0  0  0
 27 25  2  0  0  0  0
 27 28  1  0  0  0  0
 28 31  2  0  0  0  0
 29 26  2  0  0  0  0
 31 26  1  0  0  0  0
 33 32  1  1  0  0  0
 33 25  1  0  0  0  0
 34 33  1  0  0  0  0
 35 34  1  0  0  0  0
 36 35  1  0  0  0  0
 37 38  1  0  0  0  0
 38 36  1  0  0  0  0
M  END
>  <MODEL>
8

>  <REMARK>
 VINA RESULT:      -7.3      3.491      6.702
  Name = 
  11 active torsions:
  status: ('A' for Active; 'I' for Inactive)
    1  A    between atoms: C_6  and  C_17
    2  A    between atoms: C_7  and  C_28
    3  A    between atoms: C_13  and  C_14
    4  A    between atoms: C_13  and  C_26
    5  A    between atoms: C_15  and  CA_22
    6  A    between atoms: C_17  and  O_18
    7  A    between atoms: O_18  and  C_26
    8  A    between atoms: C_20  and  C_30
    9  A    between atoms: C_20  and  C_32
   10  A    between atoms: C_27  and  C_38
   11  A    between atoms: C_28  and  C_30
                            x       y       z     vdW  Elec       q    Type
                         _______ _______ _______ _____ _____    ______ ____

>  <TORSDO>
F 11

$$$$
=
 OpenBabel10232408113D

 38 41  0  0  1  0  0  0  0  0999 V2000
  192.1960  175.9470  146.9390 C   0  0  0  0  0  2  0  0  0  0  0  0
  188.8580  178.0840  145.3610 N   0  0  0  0  0  0  0  0  0  0  0  0
  188.0640  177.7810  146.3430 C   0  0  0  0  0  0  0  0  0  0  0  0
  191.4840  175.4150  144.5710 C   0  0  0  0  0  3  0  0  0  0  0  0
  189.9360  176.7270  146.8280 C   0  0  0  0  0  0  0  0  0  0  0  0
  190.8390  176.0450  147.4560 N   0  0  0  0  0  0  0  0  0  0  0  0
  192.2370  175.1690  145.6560 C   0  0  0  0  0  3  0  0  0  0  0  0
  188.6230  176.9140  147.3220 N   0  0  0  0  0  2  0  0  0  0  0  0
  190.4050  176.4660  144.3900 C   0  0  1  0  0  3  0  0  0  0  0  0
  190.1570  177.4470  145.5450 C   0  0  1  0  0  3  0  0  0  0  0  0
  190.8980  175.7820  139.0290 C   0  0  0  0  0  2  0  0  0  0  0  0
  190.8680  176.5800  140.0890 C   0  0  0  0  0  0  0  0  0  0  0  0
  189.6980  176.5460  140.9200 N   0  0  0  0  0  2  0  0  0  0  0  0
  191.7890  177.6540  142.8130 N   0  0  0  0  0  0  0  0  0  0  0  0
  189.4850  177.3760  142.0990 C   0  0  2  0  0  3  0  0  0  0  0  0
  192.0610  177.4030  140.4180 C   0  0  0  0  0  0  0  0  0  0  0  0
  192.0810  178.3480  141.5790 C   0  0  0  0  0  2  0  0  0  0  0  0
  193.0940  177.3280  139.7000 O   0  0  0  0  0  0  0  0  0  0  0  0
  190.6130  177.2000  143.0920 C   0  0  0  0  0  0  0  0  0  0  0  0
  187.9050  175.8080  143.0220 O   0  0  0  0  0  1  0  0  0  0  0  0
  188.0890  177.1470  142.6750 C   0  0  0  0  0  2  0  0  0  0  0  0
  186.6330  178.2150  146.3950 C   0  0  0  0  0  2  0  0  0  0  0  0
  185.8820  177.8550  145.1220 C   0  0  0  0  0  2  0  0  0  0  0  0
  185.4790  179.1200  144.3840 C   0  0  0  0  0  2  0  0  0  0  0  0
  183.9450  178.7990  142.3940 C   0  0  0  0  0  0  0  0  0  0  0  0
  181.5420  178.6560  142.7320 C   0  0  0  0  0  0  0  0  0  0  0  0
  184.1210  178.9600  143.7850 C   0  0  0  0  0  0  0  0  0  0  0  0
  183.0060  178.9850  144.6290 C   0  0  0  0  0  3  0  0  0  0  0  0
  182.6490  178.6340  141.8810 C   0  0  0  0  0  3  0  0  0  0  0  0
  180.1760  178.4820  142.1750 C   0  0  0  0  0  1  0  0  0  0  0  0
  181.7200  178.8330  144.1060 C   0  0  0  0  0  3  0  0  0  0  0  0
  185.9140  179.9040  141.5060 O   0  0  0  0  0  1  0  0  0  0  0  0
  185.1360  178.7400  141.4660 C   0  0  2  0  0  3  0  0  0  0  0  0
  184.7980  178.3710  140.1470 O   0  0  0  0  0  0  0  0  0  0  0  0
  185.9460  178.4620  139.3410 C   0  0  0  0  0  2  0  0  0  0  0  0
  185.7330  177.6900  138.0480 C   0  0  0  0  0  2  0  0  0  0  0  0
  188.1230  178.3740  137.7990 C   0  0  0  0  0  1  0  0  0  0  0  0
  186.8700  177.9320  137.0670 C   0  0  0  0  0  2  0  0  0  0  0  0
  1  6  1  0  0  0  0
  2  3  2  0  0  0  0
  3 22  1  0  0  0  0
  3  8  1  0  0  0  0
  4  7  2  0  0  0  0
  5  8  1  0  0  0  0
  5  6  2  0  0  0  0
  7  1  1  0  0  0  0
  9 19  1  6  0  0  0
  9  4  1  0  0  0  0
  9 10  1  0  0  0  0
 10  2  1  6  0  0  0
 10  5  1  0  0  0  0
 11 12  2  0  0  0  0
 12 16  1  0  0  0  0
 12 13  1  0  0  0  0
 13 15  1  0  0  0  0
 14 19  2  0  0  0  0
 15 21  1  1  0  0  0
 15 19  1  0  0  0  0
 16 17  1  0  0  0  0
 17 14  1  0  0  0  0
 18 16  2  0  0  0  0
 21 20  1  0  0  0  0
 23 22  1  0  0  0  0
 24 23  1  0  0  0  0
 25 27  1  0  0  0  0
 26 31  2  0  0  0  0
 27 24  1  0  0  0  0
 27 28  2  0  0  0  0
 29 25  2  0  0  0  0
 29 26  1  0  0  0  0
 30 26  1  0  0  0  0
 31 28  1  0  0  0  0
 33 32  1  6  0  0  0
 33 25  1  0  0  0  0
 34 33  1  0  0  0  0
 35 34  1  0  0  0  0
 36 35  1  0  0  0  0
 38 37  1  0  0  0  0
 38 36  1  0  0  0  0
M  END
>  <MODEL>
9

>  <REMARK>
 VINA RESULT:      -7.3      3.082      7.710
  Name = 
  11 active torsions:
  status: ('A' for Active; 'I' for Inactive)
    1  A    between atoms: C_6  and  C_17
    2  A    between atoms: C_7  and  C_28
    3  A    between atoms: C_13  and  C_14
    4  A    between atoms: C_13  and  C_26
    5  A    between atoms: C_15  and  CA_22
    6  A    between atoms: C_17  and  O_18
    7  A    between atoms: O_18  and  C_26
    8  A    between atoms: C_20  and  C_30
    9  A    between atoms: C_20  and  C_32
   10  A    between atoms: C_27  and  C_38
   11  A    between atoms: C_28  and  C_30
                            x       y       z     vdW  Elec       q    Type
                         _______ _______ _______ _____ _____    ______ ____

>  <TORSDO>
F 11

$$$$
