=
 OpenBabel10232412253D

 38 43  0  0  1  0  0  0  0  0999 V2000
  188.7420  177.7580  143.6500 C   0  0  0  0  0  0  0  0  0  0  0  0
  188.2920  178.1330  140.8330 C   0  0  0  0  0  3  0  0  0  0  0  0
  189.1990  176.9510  147.7890 N   0  0  0  0  0  0  0  0  0  0  0  0
  189.6900  177.4850  142.7410 C   0  0  0  0  0  3  0  0  0  0  0  0
  184.9320  178.2950  143.5590 C   0  0  0  0  0  3  0  0  0  0  0  0
  190.3050  176.9120  146.9930 C   0  0  0  0  0  0  0  0  0  0  0  0
  190.1870  177.1700  145.6240 C   0  0  0  0  0  3  0  0  0  0  0  0
  186.2860  178.1280  144.1110 C   0  0  0  0  0  0  0  0  0  0  0  0
  189.4860  177.7450  141.2920 C   0  0  0  0  0  0  0  0  0  0  0  0
  184.7510  178.4530  142.2380 C   0  0  0  0  0  0  0  0  0  0  0  0
  187.1690  178.3200  141.7650 C   0  0  0  0  0  0  0  0  0  0  0  0
  187.4710  178.4660  143.2350 C   0  0  2  0  0  3  0  0  0  0  0  0
  188.9280  177.4760  145.0880 C   0  0  0  0  0  0  0  0  0  0  0  0
  187.8050  177.5110  145.9360 C   0  0  0  0  0  0  0  0  0  0  0  0
  187.9660  177.2340  147.2940 C   0  0  0  0  0  3  0  0  0  0  0  0
  186.4550  177.7600  145.3850 C   0  0  0  0  0  3  0  0  0  0  0  0
  185.9140  178.3880  141.3110 C   0  0  0  0  0  3  0  0  0  0  0  0
  182.2410  178.8080  142.5320 C   0  0  0  0  0  2  0  0  0  0  0  0
  183.1290  178.7210  140.2750 C   0  0  0  0  0  2  0  0  0  0  0  0
  181.1980  179.0640  141.5230 C   0  0  0  0  0  0  0  0  0  0  0  0
  179.9820  179.2570  141.7880 O   0  0  0  0  0  0  0  0  0  0  0  0
  181.7220  179.0610  140.2090 N   0  0  0  0  0  0  0  0  0  0  0  0
  183.4240  178.5860  141.7040 N   0  0  0  0  0  0  0  0  0  0  0  0
  181.8900  179.2780  137.7940 C   0  0  0  0  0  1  0  0  0  0  0  0
  180.9510  179.1500  138.9800 C   0  0  0  0  0  2  0  0  0  0  0  0
  191.6350  176.5670  147.5700 C   0  0  0  0  0  2  0  0  0  0  0  0
  192.2810  175.4600  146.7560 C   0  0  0  0  0  1  0  0  0  0  0  0
  190.5220  177.5510  140.3750 O   0  0  0  0  0  0  0  0  0  0  0  0
  190.6320  176.3650  139.5990 C   0  0  0  0  0  2  0  0  0  0  0  0
  190.7420  176.6900  138.1200 C   0  0  0  0  0  2  0  0  0  0  0  0
  187.4440  175.7090  136.3990 C   0  0  0  0  0  3  0  0  0  0  0  0
  188.4730  176.5700  137.0220 C   0  0  0  0  0  0  0  0  0  0  0  0
  185.4360  176.8520  137.3690 C   0  0  0  0  0  3  0  0  0  0  0  0
  188.2850  177.8400  137.2490 N   0  0  0  0  0  0  0  0  0  0  0  0
  186.1180  175.8300  136.5500 C   0  0  0  0  0  3  0  0  0  0  0  0
  187.1060  178.6010  136.8610 C   0  0  0  0  0  2  0  0  0  0  0  0
  189.7270  175.9720  137.3600 N   0  0  0  0  0  2  0  0  0  0  0  0
  185.8900  178.0900  137.5550 C   0  0  0  0  0  3  0  0  0  0  0  0
  1 13  1  0  0  0  0
  2  9  2  0  0  0  0
  2 11  1  0  0  0  0
  4  1  2  0  0  0  0
  5  8  1  0  0  0  0
  6 26  1  0  0  0  0
  6  3  2  0  0  0  0
  7  6  1  0  0  0  0
  8 16  2  0  0  0  0
  9  4  1  0  0  0  0
 10  5  2  0  0  0  0
 12 11  1  6  0  0  0
 12  1  1  0  0  0  0
 12  8  1  0  0  0  0
 13  7  2  0  0  0  0
 13 14  1  0  0  0  0
 14 15  2  0  0  0  0
 15  3  1  0  0  0  0
 16 14  1  0  0  0  0
 17 11  2  0  0  0  0
 17 10  1  0  0  0  0
 19 23  1  0  0  0  0
 20 21  2  0  0  0  0
 20 18  1  0  0  0  0
 22 19  1  0  0  0  0
 22 20  1  0  0  0  0
 23 10  1  0  0  0  0
 23 18  1  0  0  0  0
 24 25  1  0  0  0  0
 25 22  1  0  0  0  0
 27 26  1  0  0  0  0
 28  9  1  0  0  0  0
 29 28  1  0  0  0  0
 30 29  1  0  0  0  0
 31 35  2  0  0  0  0
 31 32  1  0  0  0  0
 32 34  2  0  0  0  0
 32 37  1  0  0  0  0
 33 38  2  0  0  0  0
 35 33  1  0  0  0  0
 36 34  1  0  0  0  0
 36 38  1  0  0  0  0
 37 30  1  0  0  0  0
M  END
>  <MODEL>
1

>  <REMARK>
 VINA RESULT:      -9.6      0.000      0.000
  Name = 
  7 active torsions:
  status: ('A' for Active; 'I' for Inactive)
    1  A    between atoms: C_6  and  C_11
    2  A    between atoms: C_9  and  N_21
    3  A    between atoms: C_9  and  C_24
    4  A    between atoms: O_14  and  C_24
    5  A    between atoms: O_14  and  C_25
    6  A    between atoms: N_19  and  C_38
    7  A    between atoms: C_26  and  N_29
                            x       y       z     vdW  Elec       q    Type
                         _______ _______ _______ _____ _____    ______ ____

>  <TORSDO>
F 7

$$$$
=
 OpenBabel10232412253D

 38 43  0  0  1  0  0  0  0  0999 V2000
  187.6110  177.9230  142.9490 C   0  0  0  0  0  0  0  0  0  0  0  0
  188.2920  177.7970  140.1560 C   0  0  0  0  0  3  0  0  0  0  0  0
  186.3750  177.8840  147.0070 N   0  0  0  0  0  0  0  0  0  0  0  0
  188.7530  177.3610  142.5250 C   0  0  0  0  0  3  0  0  0  0  0  0
  184.2700  178.9070  141.3120 C   0  0  0  0  0  3  0  0  0  0  0  0
  187.6650  177.5520  146.7160 C   0  0  0  0  0  0  0  0  0  0  0  0
  188.1030  177.5520  145.3890 C   0  0  0  0  0  3  0  0  0  0  0  0
  185.2740  178.6810  142.3650 C   0  0  0  0  0  0  0  0  0  0  0  0
  189.1410  177.3590  141.0910 C   0  0  0  0  0  0  0  0  0  0  0  0
  184.6130  178.8270  140.0160 C   0  0  0  0  0  0  0  0  0  0  0  0
  186.9660  178.3020  140.5440 C   0  0  0  0  0  0  0  0  0  0  0  0
  186.7370  178.6910  141.9820 C   0  0  2  0  0  3  0  0  0  0  0  0
  187.2060  177.9040  144.3700 C   0  0  0  0  0  0  0  0  0  0  0  0
  185.8810  178.2450  144.7010 C   0  0  0  0  0  0  0  0  0  0  0  0
  185.4830  178.2190  146.0380 C   0  0  0  0  0  3  0  0  0  0  0  0
  184.8970  178.5490  143.6400 C   0  0  0  0  0  3  0  0  0  0  0  0
  185.9980  178.4370  139.6330 C   0  0  0  0  0  3  0  0  0  0  0  0
  183.1890  177.9660  138.0830 C   0  0  0  0  0  2  0  0  0  0  0  0
  182.7850  180.2200  138.8870 C   0  0  0  0  0  2  0  0  0  0  0  0
  182.0530  178.6000  137.3890 C   0  0  0  0  0  0  0  0  0  0  0  0
  181.3970  178.0630  136.4580 O   0  0  0  0  0  0  0  0  0  0  0  0
  181.7870  179.8960  137.8890 N   0  0  0  0  0  0  0  0  0  0  0  0
  183.6200  179.0200  138.9960 N   0  0  0  0  0  0  0  0  0  0  0  0
  181.0700  182.2190  137.9390 C   0  0  0  0  0  1  0  0  0  0  0  0
  180.8260  180.8420  137.3450 C   0  0  0  0  0  2  0  0  0  0  0  0
  188.6040  177.1600  147.8050 C   0  0  0  0  0  2  0  0  0  0  0  0
  189.9570  176.7970  147.2190 C   0  0  0  0  0  1  0  0  0  0  0  0
  190.3810  176.8610  140.6840 O   0  0  0  0  0  0  0  0  0  0  0  0
  191.0350  177.3270  139.5100 C   0  0  0  0  0  2  0  0  0  0  0  0
  191.4100  176.1720  138.6000 C   0  0  0  0  0  2  0  0  0  0  0  0
  188.0590  175.2070  136.9720 C   0  0  0  0  0  3  0  0  0  0  0  0
  189.3230  175.9420  137.1970 C   0  0  0  0  0  0  0  0  0  0  0  0
  186.6420  177.1830  136.3640 C   0  0  0  0  0  3  0  0  0  0  0  0
  189.6510  177.0050  136.5180 N   0  0  0  0  0  0  0  0  0  0  0  0
  186.8880  175.7480  136.6080 C   0  0  0  0  0  3  0  0  0  0  0  0
  188.8900  177.5670  135.4110 C   0  0  0  0  0  2  0  0  0  0  0  0
  190.2190  175.4360  138.1900 N   0  0  0  0  0  2  0  0  0  0  0  0
  187.5470  178.0250  135.8660 C   0  0  0  0  0  3  0  0  0  0  0  0
  1 13  1  0  0  0  0
  2 11  1  0  0  0  0
  2  9  2  0  0  0  0
  4  1  2  0  0  0  0
  5  8  1  0  0  0  0
  6  3  1  0  0  0  0
  6 26  1  0  0  0  0
  7  6  2  0  0  0  0
  8 16  2  0  0  0  0
  9  4  1  0  0  0  0
 10  5  2  0  0  0  0
 12 11  1  6  0  0  0
 12  8  1  0  0  0  0
 12  1  1  0  0  0  0
 13 14  2  0  0  0  0
 13  7  1  0  0  0  0
 14 15  1  0  0  0  0
 15  3  2  0  0  0  0
 16 14  1  0  0  0  0
 17 10  1  0  0  0  0
 17 11  2  0  0  0  0
 18 23  1  0  0  0  0
 19 23  1  0  0  0  0
 20 22  1  0  0  0  0
 20 18  1  0  0  0  0
 21 20  2  0  0  0  0
 22 19  1  0  0  0  0
 23 10  1  0  0  0  0
 25 22  1  0  0  0  0
 25 24  1  0  0  0  0
 27 26  1  0  0  0  0
 28  9  1  0  0  0  0
 29 28  1  0  0  0  0
 30 29  1  0  0  0  0
 31 32  1  0  0  0  0
 32 37  1  0  0  0  0
 33 35  1  0  0  0  0
 34 32  2  0  0  0  0
 35 31  2  0  0  0  0
 36 38  1  0  0  0  0
 36 34  1  0  0  0  0
 37 30  1  0  0  0  0
 38 33  2  0  0  0  0
M  END
>  <MODEL>
2

>  <REMARK>
 VINA RESULT:      -9.2      1.734      2.387
  Name = 
  7 active torsions:
  status: ('A' for Active; 'I' for Inactive)
    1  A    between atoms: C_6  and  C_11
    2  A    between atoms: C_9  and  N_21
    3  A    between atoms: C_9  and  C_24
    4  A    between atoms: O_14  and  C_24
    5  A    between atoms: O_14  and  C_25
    6  A    between atoms: N_19  and  C_38
    7  A    between atoms: C_26  and  N_29
                            x       y       z     vdW  Elec       q    Type
                         _______ _______ _______ _____ _____    ______ ____

>  <TORSDO>
F 7

$$$$
=
 OpenBabel10232412253D

 38 43  0  0  1  0  0  0  0  0999 V2000
  185.1530  178.4410  141.8820 C   0  0  0  0  0  0  0  0  0  0  0  0
  187.3590  177.9580  143.6650 C   0  0  0  0  0  3  0  0  0  0  0  0
  181.9690  178.8650  139.1110 N   0  0  0  0  0  0  0  0  0  0  0  0
  184.9630  178.1570  143.1790 C   0  0  0  0  0  3  0  0  0  0  0  0
  188.0690  178.0800  139.3960 C   0  0  0  0  0  3  0  0  0  0  0  0
  181.6770  178.8640  140.4430 C   0  0  0  0  0  0  0  0  0  0  0  0
  182.7030  178.7240  141.3810 C   0  0  0  0  0  3  0  0  0  0  0  0
  186.7150  178.3660  139.8980 C   0  0  0  0  0  0  0  0  0  0  0  0
  186.1010  177.9780  144.1170 C   0  0  0  0  0  0  0  0  0  0  0  0
  189.0770  177.8430  140.2520 C   0  0  0  0  0  0  0  0  0  0  0  0
  187.6280  178.1290  142.2290 C   0  0  0  0  0  0  0  0  0  0  0  0
  186.5460  178.7170  141.3590 C   0  0  2  0  0  3  0  0  0  0  0  0
  184.0270  178.5920  140.9380 C   0  0  0  0  0  0  0  0  0  0  0  0
  184.2980  178.5990  139.5560 C   0  0  0  0  0  0  0  0  0  0  0  0
  183.2410  178.7290  138.6540 C   0  0  0  0  0  3  0  0  0  0  0  0
  185.6750  178.3900  139.0600 C   0  0  0  0  0  3  0  0  0  0  0  0
  188.8160  177.7970  141.7170 C   0  0  0  0  0  3  0  0  0  0  0  0
  191.6050  177.6740  140.5470 C   0  0  0  0  0  2  0  0  0  0  0  0
  190.6360  176.8580  138.4760 C   0  0  0  0  0  2  0  0  0  0  0  0
  192.6200  177.0620  139.6700 C   0  0  0  0  0  0  0  0  0  0  0  0
  193.8510  177.0090  139.9340 O   0  0  0  0  0  0  0  0  0  0  0  0
  192.0500  176.5440  138.4840 N   0  0  0  0  0  0  0  0  0  0  0  0
  190.3880  177.5350  139.7520 N   0  0  0  0  0  0  0  0  0  0  0  0
  192.8050  174.4810  137.4440 C   0  0  0  0  0  1  0  0  0  0  0  0
  192.7800  175.9970  137.3520 C   0  0  0  0  0  2  0  0  0  0  0  0
  180.2640  178.9850  140.9030 C   0  0  0  0  0  2  0  0  0  0  0  0
  180.2170  179.0560  142.4190 C   0  0  0  0  0  1  0  0  0  0  0  0
  185.8810  177.7850  145.4830 O   0  0  0  0  0  0  0  0  0  0  0  0
  186.7960  177.0680  146.3030 C   0  0  0  0  0  2  0  0  0  0  0  0
  187.4970  177.9970  147.2780 C   0  0  0  0  0  2  0  0  0  0  0  0
  191.0910  176.6230  147.3010 C   0  0  0  0  0  3  0  0  0  0  0  0
  189.9020  177.3710  146.8370 C   0  0  0  0  0  0  0  0  0  0  0  0
  191.8650  175.8210  145.0560 C   0  0  0  0  0  3  0  0  0  0  0  0
  189.8620  177.9880  145.6890 N   0  0  0  0  0  0  0  0  0  0  0  0
  191.9490  175.9460  146.5250 C   0  0  0  0  0  3  0  0  0  0  0  0
  190.9730  178.1060  144.7550 C   0  0  0  0  0  2  0  0  0  0  0  0
  188.7690  177.4260  147.7060 N   0  0  0  0  0  2  0  0  0  0  0  0
  191.3880  176.7670  144.2490 C   0  0  0  0  0  3  0  0  0  0  0  0
  1  4  2  0  0  0  0
  2  9  2  0  0  0  0
  3  6  1  0  0  0  0
  4  9  1  0  0  0  0
  5  8  1  0  0  0  0
  5 10  2  0  0  0  0
  6 26  1  0  0  0  0
  6  7  2  0  0  0  0
  9 28  1  0  0  0  0
 10 17  1  0  0  0  0
 11  2  1  0  0  0  0
 12  8  1  6  0  0  0
 12  1  1  0  0  0  0
 12 11  1  0  0  0  0
 13  7  1  0  0  0  0
 13  1  1  0  0  0  0
 14 13  2  0  0  0  0
 15  3  2  0  0  0  0
 15 14  1  0  0  0  0
 16 14  1  0  0  0  0
 16  8  2  0  0  0  0
 17 11  2  0  0  0  0
 19 22  1  0  0  0  0
 19 23  1  0  0  0  0
 20 21  2  0  0  0  0
 20 18  1  0  0  0  0
 22 20  1  0  0  0  0
 23 10  1  0  0  0  0
 23 18  1  0  0  0  0
 25 24  1  0  0  0  0
 25 22  1  0  0  0  0
 26 27  1  0  0  0  0
 28 29  1  0  0  0  0
 29 30  1  0  0  0  0
 30 37  1  0  0  0  0
 32 31  1  0  0  0  0
 32 37  1  0  0  0  0
 33 35  1  0  0  0  0
 34 32  2  0  0  0  0
 35 31  2  0  0  0  0
 36 34  1  0  0  0  0
 38 36  1  0  0  0  0
 38 33  2  0  0  0  0
M  END
>  <MODEL>
3

>  <REMARK>
 VINA RESULT:      -9.0      2.111      8.945
  Name = 
  7 active torsions:
  status: ('A' for Active; 'I' for Inactive)
    1  A    between atoms: C_6  and  C_11
    2  A    between atoms: C_9  and  N_21
    3  A    between atoms: C_9  and  C_24
    4  A    between atoms: O_14  and  C_24
    5  A    between atoms: O_14  and  C_25
    6  A    between atoms: N_19  and  C_38
    7  A    between atoms: C_26  and  N_29
                            x       y       z     vdW  Elec       q    Type
                         _______ _______ _______ _____ _____    ______ ____

>  <TORSDO>
F 7

$$$$
=
 OpenBabel10232412253D

 38 43  0  0  1  0  0  0  0  0999 V2000
  188.6130  177.6200  143.3620 C   0  0  0  0  0  0  0  0  0  0  0  0
  187.4340  178.1950  140.8020 C   0  0  0  0  0  3  0  0  0  0  0  0
  190.5920  176.9820  147.0600 N   0  0  0  0  0  0  0  0  0  0  0  0
  187.4800  178.3290  143.2500 C   0  0  0  0  0  3  0  0  0  0  0  0
  191.4550  176.6010  140.9760 C   0  0  0  0  0  3  0  0  0  0  0  0
  189.3150  177.4580  147.0790 C   0  0  0  0  0  0  0  0  0  0  0  0
  188.6370  177.6820  145.8780 C   0  0  0  0  0  3  0  0  0  0  0  0
  190.7000  176.7590  142.2290 C   0  0  0  0  0  0  0  0  0  0  0  0
  186.8300  178.5660  141.9350 C   0  0  0  0  0  0  0  0  0  0  0  0
  190.8840  176.8910  139.7960 C   0  0  0  0  0  0  0  0  0  0  0  0
  188.7460  177.5320  140.8490 C   0  0  0  0  0  0  0  0  0  0  0  0
  189.1990  176.9250  142.1520 C   0  0  2  0  0  3  0  0  0  0  0  0
  189.2790  177.4040  144.6630 C   0  0  0  0  0  0  0  0  0  0  0  0
  190.5980  176.9100  144.6750 C   0  0  0  0  0  0  0  0  0  0  0  0
  191.2420  176.7140  145.8970 C   0  0  0  0  0  3  0  0  0  0  0  0
  191.3240  176.6770  143.4080 C   0  0  0  0  0  3  0  0  0  0  0  0
  189.5030  177.4460  139.7510 C   0  0  0  0  0  3  0  0  0  0  0  0
  193.0920  176.8780  138.5180 C   0  0  0  0  0  2  0  0  0  0  0  0
  191.0660  176.2990  137.3110 C   0  0  0  0  0  2  0  0  0  0  0  0
  193.3780  176.4800  137.1270 C   0  0  0  0  0  0  0  0  0  0  0  0
  194.5230  176.4850  136.6050 O   0  0  0  0  0  0  0  0  0  0  0  0
  192.2030  176.0980  136.4370 N   0  0  0  0  0  0  0  0  0  0  0  0
  191.6380  176.7620  138.5800 N   0  0  0  0  0  0  0  0  0  0  0  0
  190.7470  176.1910  134.4920 C   0  0  0  0  0  1  0  0  0  0  0  0
  192.1100  175.7790  135.0210 C   0  0  0  0  0  2  0  0  0  0  0  0
  188.6480  177.7690  148.3750 C   0  0  0  0  0  2  0  0  0  0  0  0
  187.2970  178.4150  148.1220 C   0  0  0  0  0  1  0  0  0  0  0  0
  185.5970  179.2180  141.8520 O   0  0  0  0  0  0  0  0  0  0  0  0
  184.4030  178.5350  141.4930 C   0  0  0  0  0  2  0  0  0  0  0  0
  183.8220  179.0920  140.2060 C   0  0  0  0  0  2  0  0  0  0  0  0
  186.3900  178.6820  137.3690 C   0  0  0  0  0  3  0  0  0  0  0  0
  185.1950  178.4130  138.1990 C   0  0  0  0  0  0  0  0  0  0  0  0
  187.0270  176.2960  136.9400 C   0  0  0  0  0  3  0  0  0  0  0  0
  184.4210  177.3820  138.0060 N   0  0  0  0  0  0  0  0  0  0  0  0
  187.1910  177.7580  136.8200 C   0  0  0  0  0  3  0  0  0  0  0  0
  184.5590  176.4130  136.9280 C   0  0  0  0  0  2  0  0  0  0  0  0
  184.8790  179.3470  139.2340 N   0  0  0  0  0  2  0  0  0  0  0  0
  185.8510  175.6780  137.0340 C   0  0  0  0  0  3  0  0  0  0  0  0
  1 13  1  0  0  0  0
  2 11  1  0  0  0  0
  2  9  2  0  0  0  0
  3  6  1  0  0  0  0
  4  1  2  0  0  0  0
  5  8  1  0  0  0  0
  6 26  1  0  0  0  0
  7  6  2  0  0  0  0
  8 16  2  0  0  0  0
  9  4  1  0  0  0  0
 10  5  2  0  0  0  0
 12 11  1  6  0  0  0
 12  8  1  0  0  0  0
 12  1  1  0  0  0  0
 13 14  2  0  0  0  0
 13  7  1  0  0  0  0
 14 15  1  0  0  0  0
 15  3  2  0  0  0  0
 16 14  1  0  0  0  0
 17 10  1  0  0  0  0
 17 11  2  0  0  0  0
 18 23  1  0  0  0  0
 19 23  1  0  0  0  0
 20 18  1  0  0  0  0
 21 20  2  0  0  0  0
 22 20  1  0  0  0  0
 22 19  1  0  0  0  0
 23 10  1  0  0  0  0
 24 25  1  0  0  0  0
 25 22  1  0  0  0  0
 27 26  1  0  0  0  0
 28  9  1  0  0  0  0
 29 28  1  0  0  0  0
 30 29  1  0  0  0  0
 31 32  1  0  0  0  0
 32 37  1  0  0  0  0
 33 38  2  0  0  0  0
 34 32  2  0  0  0  0
 35 33  1  0  0  0  0
 35 31  2  0  0  0  0
 36 38  1  0  0  0  0
 36 34  1  0  0  0  0
 37 30  1  0  0  0  0
M  END
>  <MODEL>
4

>  <REMARK>
 VINA RESULT:      -9.0      2.131      6.507
  Name = 
  7 active torsions:
  status: ('A' for Active; 'I' for Inactive)
    1  A    between atoms: C_6  and  C_11
    2  A    between atoms: C_9  and  N_21
    3  A    between atoms: C_9  and  C_24
    4  A    between atoms: O_14  and  C_24
    5  A    between atoms: O_14  and  C_25
    6  A    between atoms: N_19  and  C_38
    7  A    between atoms: C_26  and  N_29
                            x       y       z     vdW  Elec       q    Type
                         _______ _______ _______ _____ _____    ______ ____

>  <TORSDO>
F 7

$$$$
=
 OpenBabel10232412253D

 38 43  0  0  1  0  0  0  0  0999 V2000
  184.5060  178.5930  141.2350 C   0  0  0  0  0  0  0  0  0  0  0  0
  187.3440  178.2020  140.9720 C   0  0  0  0  0  3  0  0  0  0  0  0
  180.3880  179.4320  141.8100 N   0  0  0  0  0  0  0  0  0  0  0  0
  185.1450  178.8170  140.0780 C   0  0  0  0  0  3  0  0  0  0  0  0
  185.5600  178.2070  144.9160 C   0  0  0  0  0  3  0  0  0  0  0  0
  180.8780  179.4180  140.5380 C   0  0  0  0  0  0  0  0  0  0  0  0
  182.2310  179.1480  140.3150 C   0  0  0  0  0  3  0  0  0  0  0  0
  184.6830  178.3270  143.7410 C   0  0  0  0  0  0  0  0  0  0  0  0
  186.5970  178.5480  139.9180 C   0  0  0  0  0  0  0  0  0  0  0  0
  186.8840  178.0400  144.7640 C   0  0  0  0  0  0  0  0  0  0  0  0
  186.7270  178.0710  142.3010 C   0  0  0  0  0  0  0  0  0  0  0  0
  185.2290  177.9310  142.3880 C   0  0  2  0  0  3  0  0  0  0  0  0
  183.0680  178.8860  141.4080 C   0  0  0  0  0  0  0  0  0  0  0  0
  182.5330  178.9050  142.7110 C   0  0  0  0  0  0  0  0  0  0  0  0
  181.1790  179.1920  142.8880 C   0  0  0  0  0  3  0  0  0  0  0  0
  183.4080  178.7040  143.8850 C   0  0  0  0  0  3  0  0  0  0  0  0
  187.4850  178.0480  143.4010 C   0  0  0  0  0  3  0  0  0  0  0  0
  187.2770  178.2090  147.2780 C   0  0  0  0  0  2  0  0  0  0  0  0
  189.0950  177.4020  145.8860 C   0  0  0  0  0  2  0  0  0  0  0  0
  188.4450  177.8050  148.0820 C   0  0  0  0  0  0  0  0  0  0  0  0
  188.5180  177.9080  149.3350 O   0  0  0  0  0  0  0  0  0  0  0  0
  189.4880  177.2910  147.2760 N   0  0  0  0  0  0  0  0  0  0  0  0
  187.7370  177.9530  145.9160 N   0  0  0  0  0  0  0  0  0  0  0  0
  191.6600  176.4780  146.5480 C   0  0  0  0  0  1  0  0  0  0  0  0
  190.8200  176.9260  147.7310 C   0  0  0  0  0  2  0  0  0  0  0  0
  179.9820  179.7180  139.3840 C   0  0  0  0  0  2  0  0  0  0  0  0
  180.8020  179.8500  138.1130 C   0  0  0  0  0  1  0  0  0  0  0  0
  187.2220  178.6900  138.6770 O   0  0  0  0  0  0  0  0  0  0  0  0
  188.1160  177.7100  138.1630 C   0  0  0  0  0  2  0  0  0  0  0  0
  187.7350  177.3140  136.7480 C   0  0  0  0  0  2  0  0  0  0  0  0
  184.9790  174.6430  137.0100 C   0  0  0  0  0  3  0  0  0  0  0  0
  185.5970  175.9770  136.8520 C   0  0  0  0  0  0  0  0  0  0  0  0
  183.0350  175.3540  138.4250 C   0  0  0  0  0  3  0  0  0  0  0  0
  184.8960  177.0750  136.7870 N   0  0  0  0  0  0  0  0  0  0  0  0
  183.8600  174.3690  137.6970 C   0  0  0  0  0  3  0  0  0  0  0  0
  183.4420  177.1490  136.7750 C   0  0  0  0  0  2  0  0  0  0  0  0
  187.0210  176.0430  136.7440 N   0  0  0  0  0  2  0  0  0  0  0  0
  182.8710  176.6210  138.0470 C   0  0  0  0  0  3  0  0  0  0  0  0
  1 13  1  0  0  0  0
  2 11  1  0  0  0  0
  3 15  1  0  0  0  0
  4  1  2  0  0  0  0
  6  3  2  0  0  0  0
  7  6  1  0  0  0  0
  7 13  2  0  0  0  0
  8 16  2  0  0  0  0
  8  5  1  0  0  0  0
  9  4  1  0  0  0  0
  9  2  2  0  0  0  0
 10  5  2  0  0  0  0
 10 23  1  0  0  0  0
 11 12  1  0  0  0  0
 11 17  2  0  0  0  0
 12  1  1  6  0  0  0
 12  8  1  0  0  0  0
 13 14  1  0  0  0  0
 14 15  2  0  0  0  0
 14 16  1  0  0  0  0
 17 10  1  0  0  0  0
 18 20  1  0  0  0  0
 19 23  1  0  0  0  0
 19 22  1  0  0  0  0
 20 21  2  0  0  0  0
 22 25  1  0  0  0  0
 22 20  1  0  0  0  0
 23 18  1  0  0  0  0
 24 25  1  0  0  0  0
 26  6  1  0  0  0  0
 27 26  1  0  0  0  0
 28  9  1  0  0  0  0
 29 28  1  0  0  0  0
 30 29  1  0  0  0  0
 31 35  2  0  0  0  0
 32 31  1  0  0  0  0
 34 32  2  0  0  0  0
 35 33  1  0  0  0  0
 36 34  1  0  0  0  0
 36 38  1  0  0  0  0
 37 30  1  0  0  0  0
 37 32  1  0  0  0  0
 38 33  2  0  0  0  0
M  END
>  <MODEL>
5

>  <REMARK>
 VINA RESULT:      -8.8      2.236      7.308
  Name = 
  7 active torsions:
  status: ('A' for Active; 'I' for Inactive)
    1  A    between atoms: C_6  and  C_11
    2  A    between atoms: C_9  and  N_21
    3  A    between atoms: C_9  and  C_24
    4  A    between atoms: O_14  and  C_24
    5  A    between atoms: O_14  and  C_25
    6  A    between atoms: N_19  and  C_38
    7  A    between atoms: C_26  and  N_29
                            x       y       z     vdW  Elec       q    Type
                         _______ _______ _______ _____ _____    ______ ____

>  <TORSDO>
F 7

$$$$
=
 OpenBabel10232412253D

 38 43  0  0  1  0  0  0  0  0999 V2000
  188.6180  177.6640  143.5140 C   0  0  0  0  0  0  0  0  0  0  0  0
  187.3800  178.2050  140.9750 C   0  0  0  0  0  3  0  0  0  0  0  0
  190.6820  177.0740  147.1730 N   0  0  0  0  0  0  0  0  0  0  0  0
  187.4830  178.3720  143.4190 C   0  0  0  0  0  3  0  0  0  0  0  0
  191.4030  176.6110  141.0760 C   0  0  0  0  0  3  0  0  0  0  0  0
  189.4060  177.5520  147.2160 C   0  0  0  0  0  0  0  0  0  0  0  0
  188.7000  177.7600  146.0280 C   0  0  0  0  0  3  0  0  0  0  0  0
  190.6780  176.7860  142.3450 C   0  0  0  0  0  0  0  0  0  0  0  0
  186.8030  178.5920  142.1170 C   0  0  0  0  0  0  0  0  0  0  0  0
  190.8050  176.8860  139.9060 C   0  0  0  0  0  0  0  0  0  0  0  0
  188.6920  177.5420  141.0000 C   0  0  0  0  0  0  0  0  0  0  0  0
  189.1750  176.9520  142.3010 C   0  0  2  0  0  3  0  0  0  0  0  0
  189.3140  177.4650  144.8020 C   0  0  0  0  0  0  0  0  0  0  0  0
  190.6320  176.9700  144.7900 C   0  0  0  0  0  0  0  0  0  0  0  0
  191.3050  176.7900  146.0000 C   0  0  0  0  0  3  0  0  0  0  0  0
  191.3290  176.7200  143.5100 C   0  0  0  0  0  3  0  0  0  0  0  0
  189.4230  177.4410  139.8860 C   0  0  0  0  0  3  0  0  0  0  0  0
  192.9880  176.7320  138.5950 C   0  0  0  0  0  2  0  0  0  0  0  0
  190.9060  176.3780  137.3990 C   0  0  0  0  0  2  0  0  0  0  0  0
  193.2220  176.3660  137.1860 C   0  0  0  0  0  0  0  0  0  0  0  0
  194.3570  176.2920  136.6470 O   0  0  0  0  0  0  0  0  0  0  0  0
  192.0110  176.1140  136.5000 N   0  0  0  0  0  0  0  0  0  0  0  0
  191.5300  176.7400  138.6750 N   0  0  0  0  0  0  0  0  0  0  0  0
  190.4180  175.5730  134.7440 C   0  0  0  0  0  1  0  0  0  0  0  0
  191.8730  175.8590  135.0750 C   0  0  0  0  0  2  0  0  0  0  0  0
  188.7700  177.8800  148.5230 C   0  0  0  0  0  2  0  0  0  0  0  0
  187.3180  178.2710  148.3090 C   0  0  0  0  0  1  0  0  0  0  0  0
  185.5690  179.2440  142.0530 O   0  0  0  0  0  0  0  0  0  0  0  0
  184.8090  179.5410  143.2180 C   0  0  0  0  0  2  0  0  0  0  0  0
  183.7690  178.4660  143.4780 C   0  0  0  0  0  2  0  0  0  0  0  0
  180.4590  179.7110  141.9630 C   0  0  0  0  0  3  0  0  0  0  0  0
  181.7470  178.9920  142.0610 C   0  0  0  0  0  0  0  0  0  0  0  0
  180.6630  180.4140  139.5660 C   0  0  0  0  0  3  0  0  0  0  0  0
  182.2680  178.3400  141.0600 N   0  0  0  0  0  0  0  0  0  0  0  0
  179.9840  180.3330  140.8750 C   0  0  0  0  0  3  0  0  0  0  0  0
  181.6430  178.1530  139.7580 C   0  0  0  0  0  2  0  0  0  0  0  0
  182.4230  179.0050  143.3210 N   0  0  0  0  0  2  0  0  0  0  0  0
  181.4480  179.4600  139.0680 C   0  0  0  0  0  3  0  0  0  0  0  0
  1 13  1  0  0  0  0
  2 11  1  0  0  0  0
  2  9  2  0  0  0  0
  3  6  1  0  0  0  0
  4  1  2  0  0  0  0
  5  8  1  0  0  0  0
  6 26  1  0  0  0  0
  7  6  2  0  0  0  0
  8 16  2  0  0  0  0
  9  4  1  0  0  0  0
 10  5  2  0  0  0  0
 12 11  1  6  0  0  0
 12  8  1  0  0  0  0
 12  1  1  0  0  0  0
 13  7  1  0  0  0  0
 14 13  2  0  0  0  0
 14 15  1  0  0  0  0
 15  3  2  0  0  0  0
 16 14  1  0  0  0  0
 17 10  1  0  0  0  0
 17 11  2  0  0  0  0
 18 23  1  0  0  0  0
 19 23  1  0  0  0  0
 20 18  1  0  0  0  0
 21 20  2  0  0  0  0
 22 20  1  0  0  0  0
 22 19  1  0  0  0  0
 23 10  1  0  0  0  0
 24 25  1  0  0  0  0
 25 22  1  0  0  0  0
 27 26  1  0  0  0  0
 28  9  1  0  0  0  0
 28 29  1  0  0  0  0
 29 30  1  0  0  0  0
 31 32  1  0  0  0  0
 32 37  1  0  0  0  0
 33 35  1  0  0  0  0
 34 32  2  0  0  0  0
 35 31  2  0  0  0  0
 36 34  1  0  0  0  0
 37 30  1  0  0  0  0
 38 33  2  0  0  0  0
 38 36  1  0  0  0  0
M  END
>  <MODEL>
6

>  <REMARK>
 VINA RESULT:      -8.6      2.339      7.258
  Name = 
  7 active torsions:
  status: ('A' for Active; 'I' for Inactive)
    1  A    between atoms: C_6  and  C_11
    2  A    between atoms: C_9  and  N_21
    3  A    between atoms: C_9  and  C_24
    4  A    between atoms: O_14  and  C_24
    5  A    between atoms: O_14  and  C_25
    6  A    between atoms: N_19  and  C_38
    7  A    between atoms: C_26  and  N_29
                            x       y       z     vdW  Elec       q    Type
                         _______ _______ _______ _____ _____    ______ ____

>  <TORSDO>
F 7

$$$$
=
 OpenBabel10232412253D

 38 43  0  0  1  0  0  0  0  0999 V2000
  190.4230  177.1650  139.6660 C   0  0  0  0  0  0  0  0  0  0  0  0
  189.4150  178.0480  142.2120 C   0  0  0  0  0  3  0  0  0  0  0  0
  191.8210  176.1560  135.7900 N   0  0  0  0  0  0  0  0  0  0  0  0
  191.2420  177.4470  140.6900 C   0  0  0  0  0  3  0  0  0  0  0  0
  186.7540  177.9350  138.8000 C   0  0  0  0  0  3  0  0  0  0  0  0
  192.7080  176.1430  136.8260 C   0  0  0  0  0  0  0  0  0  0  0  0
  192.2800  176.4730  138.1140 C   0  0  0  0  0  3  0  0  0  0  0  0
  188.1320  177.4440  138.6410 C   0  0  0  0  0  0  0  0  0  0  0  0
  190.7220  177.8340  142.0270 C   0  0  0  0  0  0  0  0  0  0  0  0
  186.3140  178.3560  139.9970 C   0  0  0  0  0  0  0  0  0  0  0  0
  188.4760  177.8860  141.0920 C   0  0  0  0  0  0  0  0  0  0  0  0
  188.9270  177.1070  139.8820 C   0  0  2  0  0  3  0  0  0  0  0  0
  190.9350  176.8080  138.3270 C   0  0  0  0  0  0  0  0  0  0  0  0
  190.0420  176.8100  137.2380 C   0  0  0  0  0  0  0  0  0  0  0  0
  190.5150  176.4860  135.9660 C   0  0  0  0  0  3  0  0  0  0  0  0
  188.6350  177.2290  137.4210 C   0  0  0  0  0  3  0  0  0  0  0  0
  187.2430  178.3960  141.1610 C   0  0  0  0  0  3  0  0  0  0  0  0
  184.2520  179.5280  139.0600 C   0  0  0  0  0  2  0  0  0  0  0  0
  184.1180  178.5860  141.2930 C   0  0  0  0  0  2  0  0  0  0  0  0
  182.9010  179.6680  139.6330 C   0  0  0  0  0  0  0  0  0  0  0  0
  181.9400  180.2480  139.0620 O   0  0  0  0  0  0  0  0  0  0  0  0
  182.8090  179.0780  140.9160 N   0  0  0  0  0  0  0  0  0  0  0  0
  184.9770  178.8610  140.1370 N   0  0  0  0  0  0  0  0  0  0  0  0
  182.1430  179.1590  143.2530 C   0  0  0  0  0  1  0  0  0  0  0  0
  181.6650  179.1510  141.8110 C   0  0  0  0  0  2  0  0  0  0  0  0
  194.1400  175.8040  136.5850 C   0  0  0  0  0  2  0  0  0  0  0  0
  194.6080  174.7790  137.6030 C   0  0  0  0  0  1  0  0  0  0  0  0
  191.5880  178.0230  143.1070 O   0  0  0  0  0  0  0  0  0  0  0  0
  191.1130  178.3250  144.4130 C   0  0  0  0  0  2  0  0  0  0  0  0
  190.9700  177.0630  145.2460 C   0  0  0  0  0  2  0  0  0  0  0  0
  187.7660  177.7130  147.2750 C   0  0  0  0  0  3  0  0  0  0  0  0
  188.6210  177.3250  146.1320 C   0  0  0  0  0  0  0  0  0  0  0  0
  185.9690  178.8620  145.9580 C   0  0  0  0  0  3  0  0  0  0  0  0
  188.1350  177.0100  144.9640 N   0  0  0  0  0  0  0  0  0  0  0  0
  186.6080  178.3850  147.2010 C   0  0  0  0  0  3  0  0  0  0  0  0
  186.7190  176.9120  144.6370 C   0  0  0  0  0  2  0  0  0  0  0  0
  190.0340  177.2760  146.3430 N   0  0  0  0  0  2  0  0  0  0  0  0
  186.0460  178.2340  144.7860 C   0  0  0  0  0  3  0  0  0  0  0  0
  1 12  1  0  0  0  0
  1  4  2  0  0  0  0
  3 15  2  0  0  0  0
  3  6  1  0  0  0  0
  4  9  1  0  0  0  0
  5 10  2  0  0  0  0
  6  7  2  0  0  0  0
  7 13  1  0  0  0  0
  8  5  1  0  0  0  0
  9  2  2  0  0  0  0
  9 28  1  0  0  0  0
 10 23  1  0  0  0  0
 10 17  1  0  0  0  0
 11 17  2  0  0  0  0
 11  2  1  0  0  0  0
 12  8  1  6  0  0  0
 12 11  1  0  0  0  0
 13  1  1  0  0  0  0
 14 16  1  0  0  0  0
 14 13  2  0  0  0  0
 15 14  1  0  0  0  0
 16  8  2  0  0  0  0
 18 20  1  0  0  0  0
 18 23  1  0  0  0  0
 20 22  1  0  0  0  0
 21 20  2  0  0  0  0
 22 19  1  0  0  0  0
 22 25  1  0  0  0  0
 23 19  1  0  0  0  0
 25 24  1  0  0  0  0
 26  6  1  0  0  0  0
 26 27  1  0  0  0  0
 28 29  1  0  0  0  0
 29 30  1  0  0  0  0
 30 37  1  0  0  0  0
 32 37  1  0  0  0  0
 32 31  1  0  0  0  0
 33 35  1  0  0  0  0
 34 32  2  0  0  0  0
 35 31  2  0  0  0  0
 36 38  1  0  0  0  0
 36 34  1  0  0  0  0
 38 33  2  0  0  0  0
M  END
>  <MODEL>
7

>  <REMARK>
 VINA RESULT:      -8.5      1.852      6.930
  Name = 
  7 active torsions:
  status: ('A' for Active; 'I' for Inactive)
    1  A    between atoms: C_6  and  C_11
    2  A    between atoms: C_9  and  N_21
    3  A    between atoms: C_9  and  C_24
    4  A    between atoms: O_14  and  C_24
    5  A    between atoms: O_14  and  C_25
    6  A    between atoms: N_19  and  C_38
    7  A    between atoms: C_26  and  N_29
                            x       y       z     vdW  Elec       q    Type
                         _______ _______ _______ _____ _____    ______ ____

>  <TORSDO>
F 7

$$$$
=
 OpenBabel10232412253D

 38 43  0  0  1  0  0  0  0  0999 V2000
  184.4920  178.5640  141.2190 C   0  0  0  0  0  0  0  0  0  0  0  0
  187.3270  178.1400  140.9730 C   0  0  0  0  0  3  0  0  0  0  0  0
  180.3810  179.4560  141.7600 N   0  0  0  0  0  0  0  0  0  0  0  0
  185.1350  178.7480  140.0560 C   0  0  0  0  0  3  0  0  0  0  0  0
  185.5360  178.2780  144.9120 C   0  0  0  0  0  3  0  0  0  0  0  0
  180.8720  179.4000  140.4900 C   0  0  0  0  0  0  0  0  0  0  0  0
  182.2230  179.1110  140.2780 C   0  0  0  0  0  3  0  0  0  0  0  0
  184.6620  178.3710  143.7320 C   0  0  0  0  0  0  0  0  0  0  0  0
  186.5850  178.4600  139.9080 C   0  0  0  0  0  0  0  0  0  0  0  0
  186.8590  178.0950  144.7670 C   0  0  0  0  0  0  0  0  0  0  0  0
  186.7070  178.0540  142.3040 C   0  0  0  0  0  0  0  0  0  0  0  0
  185.2070  177.9300  142.3920 C   0  0  2  0  0  3  0  0  0  0  0  0
  183.0570  178.8750  141.3800 C   0  0  0  0  0  0  0  0  0  0  0  0
  182.5190  178.9370  142.6800 C   0  0  0  0  0  0  0  0  0  0  0  0
  181.1680  179.2420  142.8460 C   0  0  0  0  0  3  0  0  0  0  0  0
  183.3910  178.7630  143.8620 C   0  0  0  0  0  3  0  0  0  0  0  0
  187.4620  178.0570  143.4060 C   0  0  0  0  0  3  0  0  0  0  0  0
  187.2300  178.2530  147.2860 C   0  0  0  0  0  2  0  0  0  0  0  0
  189.0920  177.5510  145.8950 C   0  0  0  0  0  2  0  0  0  0  0  0
  188.4120  177.8950  148.0920 C   0  0  0  0  0  0  0  0  0  0  0  0
  188.4740  177.9870  149.3460 O   0  0  0  0  0  0  0  0  0  0  0  0
  189.4820  177.4410  147.2850 N   0  0  0  0  0  0  0  0  0  0  0  0
  187.7080  178.0350  145.9230 N   0  0  0  0  0  0  0  0  0  0  0  0
  191.6010  176.4410  146.6350 C   0  0  0  0  0  1  0  0  0  0  0  0
  190.8280  177.1350  147.7430 C   0  0  0  0  0  2  0  0  0  0  0  0
  179.9820  179.6730  139.3260 C   0  0  0  0  0  2  0  0  0  0  0  0
  180.1370  181.1160  138.8820 C   0  0  0  0  0  1  0  0  0  0  0  0
  187.2130  178.5600  138.6640 O   0  0  0  0  0  0  0  0  0  0  0  0
  186.6670  177.9680  137.4920 C   0  0  0  0  0  2  0  0  0  0  0  0
  187.7550  177.6690  136.4760 C   0  0  0  0  0  2  0  0  0  0  0  0
  189.8500  174.5160  137.1650 C   0  0  0  0  0  3  0  0  0  0  0  0
  189.4050  175.9240  137.2520 C   0  0  0  0  0  0  0  0  0  0  0  0
  192.3180  174.9520  137.2200 C   0  0  0  0  0  3  0  0  0  0  0  0
  190.0610  176.8290  137.9230 N   0  0  0  0  0  0  0  0  0  0  0  0
  191.1200  174.0900  137.1500 C   0  0  0  0  0  3  0  0  0  0  0  0
  191.2460  176.5850  138.7340 C   0  0  0  0  0  2  0  0  0  0  0  0
  188.1920  176.2820  136.5860 N   0  0  0  0  0  2  0  0  0  0  0  0
  192.3760  176.1000  137.8920 C   0  0  0  0  0  3  0  0  0  0  0  0
  1 13  1  0  0  0  0
  2 11  1  0  0  0  0
  3 15  1  0  0  0  0
  4  1  2  0  0  0  0
  6  3  2  0  0  0  0
  7  6  1  0  0  0  0
  7 13  2  0  0  0  0
  8 16  2  0  0  0  0
  8  5  1  0  0  0  0
  9  4  1  0  0  0  0
  9  2  2  0  0  0  0
 10  5  2  0  0  0  0
 10 23  1  0  0  0  0
 11 12  1  0  0  0  0
 11 17  2  0  0  0  0
 12  1  1  6  0  0  0
 12  8  1  0  0  0  0
 13 14  1  0  0  0  0
 14 15  2  0  0  0  0
 14 16  1  0  0  0  0
 17 10  1  0  0  0  0
 18 20  1  0  0  0  0
 19 23  1  0  0  0  0
 19 22  1  0  0  0  0
 20 21  2  0  0  0  0
 22 25  1  0  0  0  0
 22 20  1  0  0  0  0
 23 18  1  0  0  0  0
 24 25  1  0  0  0  0
 26  6  1  0  0  0  0
 27 26  1  0  0  0  0
 28  9  1  0  0  0  0
 29 28  1  0  0  0  0
 30 37  1  0  0  0  0
 30 29  1  0  0  0  0
 31 32  1  0  0  0  0
 32 34  2  0  0  0  0
 33 38  2  0  0  0  0
 34 36  1  0  0  0  0
 35 31  2  0  0  0  0
 35 33  1  0  0  0  0
 37 32  1  0  0  0  0
 38 36  1  0  0  0  0
M  END
>  <MODEL>
8

>  <REMARK>
 VINA RESULT:      -8.5      2.126      7.516
  Name = 
  7 active torsions:
  status: ('A' for Active; 'I' for Inactive)
    1  A    between atoms: C_6  and  C_11
    2  A    between atoms: C_9  and  N_21
    3  A    between atoms: C_9  and  C_24
    4  A    between atoms: O_14  and  C_24
    5  A    between atoms: O_14  and  C_25
    6  A    between atoms: N_19  and  C_38
    7  A    between atoms: C_26  and  N_29
                            x       y       z     vdW  Elec       q    Type
                         _______ _______ _______ _____ _____    ______ ____

>  <TORSDO>
F 7

$$$$
=
 OpenBabel10232412253D

 38 43  0  0  1  0  0  0  0  0999 V2000
  186.0460  178.3580  139.8860 C   0  0  0  0  0  0  0  0  0  0  0  0
  184.3350  178.3220  142.1990 C   0  0  0  0  0  3  0  0  0  0  0  0
  188.6800  178.1180  136.5700 N   0  0  0  0  0  0  0  0  0  0  0  0
  184.7170  178.2110  139.7790 C   0  0  0  0  0  3  0  0  0  0  0  0
  188.6210  178.0130  142.7250 C   0  0  0  0  0  3  0  0  0  0  0  0
  187.3430  178.2440  136.3320 C   0  0  0  0  0  0  0  0  0  0  0  0
  186.4490  178.3220  137.4030 C   0  0  0  0  0  3  0  0  0  0  0  0
  188.0860  178.2140  141.3690 C   0  0  0  0  0  0  0  0  0  0  0  0
  183.8240  178.2630  140.9650 C   0  0  0  0  0  0  0  0  0  0  0  0
  187.7970  177.9850  143.7850 C   0  0  0  0  0  0  0  0  0  0  0  0
  185.7930  178.3500  142.3920 C   0  0  0  0  0  0  0  0  0  0  0  0
  186.6670  178.7150  141.2190 C   0  0  2  0  0  3  0  0  0  0  0  0
  186.9420  178.2790  138.7140 C   0  0  0  0  0  0  0  0  0  0  0  0
  188.3280  178.1510  138.9290 C   0  0  0  0  0  0  0  0  0  0  0  0
  189.1840  178.0630  137.8300 C   0  0  0  0  0  3  0  0  0  0  0  0
  188.8670  178.0300  140.3010 C   0  0  0  0  0  3  0  0  0  0  0  0
  186.3240  178.0850  143.5890 C   0  0  0  0  0  3  0  0  0  0  0  0
  187.5190  177.8410  146.3170 C   0  0  0  0  0  2  0  0  0  0  0  0
  189.6640  177.2240  145.3630 C   0  0  0  0  0  2  0  0  0  0  0  0
  188.4540  177.3460  147.3440 C   0  0  0  0  0  0  0  0  0  0  0  0
  188.1970  177.2920  148.5760 O   0  0  0  0  0  0  0  0  0  0  0  0
  189.6880  176.9410  146.7830 N   0  0  0  0  0  0  0  0  0  0  0  0
  188.3250  177.7590  145.1020 N   0  0  0  0  0  0  0  0  0  0  0  0
  191.9800  176.1630  146.5530 C   0  0  0  0  0  1  0  0  0  0  0  0
  190.8700  176.5300  147.5230 C   0  0  0  0  0  2  0  0  0  0  0  0
  186.8280  178.2690  134.9330 C   0  0  0  0  0  2  0  0  0  0  0  0
  186.7550  176.8570  134.3820 C   0  0  0  0  0  1  0  0  0  0  0  0
  182.4350  178.2110  140.8210 O   0  0  0  0  0  0  0  0  0  0  0  0
  181.6690  179.3510  140.4510 C   0  0  0  0  0  2  0  0  0  0  0  0
  180.6500  178.9990  139.3830 C   0  0  0  0  0  2  0  0  0  0  0  0
  182.5330  177.6380  136.3160 C   0  0  0  0  0  3  0  0  0  0  0  0
  181.7450  177.6290  137.5680 C   0  0  0  0  0  0  0  0  0  0  0  0
  183.9870  175.6630  136.8360 C   0  0  0  0  0  3  0  0  0  0  0  0
  181.4370  176.5300  138.1990 N   0  0  0  0  0  0  0  0  0  0  0  0
  183.5120  176.7810  135.9960 C   0  0  0  0  0  3  0  0  0  0  0  0
  181.7380  175.1810  137.7400 C   0  0  0  0  0  2  0  0  0  0  0  0
  181.2920  178.8840  138.0790 N   0  0  0  0  0  2  0  0  0  0  0  0
  183.2100  174.9620  137.6590 C   0  0  0  0  0  3  0  0  0  0  0  0
  2 11  1  0  0  0  0
  3 15  1  0  0  0  0
  4  1  2  0  0  0  0
  4  9  1  0  0  0  0
  5 10  2  0  0  0  0
  6  3  2  0  0  0  0
  6  7  1  0  0  0  0
  7 13  2  0  0  0  0
  8  5  1  0  0  0  0
  9  2  2  0  0  0  0
 10 23  1  0  0  0  0
 11 17  2  0  0  0  0
 12  1  1  6  0  0  0
 12  8  1  0  0  0  0
 12 11  1  0  0  0  0
 13 14  1  0  0  0  0
 13  1  1  0  0  0  0
 14 16  1  0  0  0  0
 15 14  2  0  0  0  0
 16  8  2  0  0  0  0
 17 10  1  0  0  0  0
 18 20  1  0  0  0  0
 19 22  1  0  0  0  0
 20 21  2  0  0  0  0
 22 20  1  0  0  0  0
 22 25  1  0  0  0  0
 23 19  1  0  0  0  0
 23 18  1  0  0  0  0
 24 25  1  0  0  0  0
 26  6  1  0  0  0  0
 27 26  1  0  0  0  0
 28  9  1  0  0  0  0
 29 28  1  0  0  0  0
 30 29  1  0  0  0  0
 31 32  1  0  0  0  0
 32 37  1  0  0  0  0
 32 34  2  0  0  0  0
 33 38  2  0  0  0  0
 35 31  2  0  0  0  0
 35 33  1  0  0  0  0
 36 34  1  0  0  0  0
 37 30  1  0  0  0  0
 38 36  1  0  0  0  0
M  END
>  <MODEL>
9

>  <REMARK>
 VINA RESULT:      -8.4      2.203      8.035
  Name = 
  7 active torsions:
  status: ('A' for Active; 'I' for Inactive)
    1  A    between atoms: C_6  and  C_11
    2  A    between atoms: C_9  and  N_21
    3  A    between atoms: C_9  and  C_24
    4  A    between atoms: O_14  and  C_24
    5  A    between atoms: O_14  and  C_25
    6  A    between atoms: N_19  and  C_38
    7  A    between atoms: C_26  and  N_29
                            x       y       z     vdW  Elec       q    Type
                         _______ _______ _______ _____ _____    ______ ____

>  <TORSDO>
F 7

$$$$
