=
 OpenBabel10222421593D

 40 42  0  0  1  0  0  0  0  0999 V2000
  187.9530  178.0620  142.0210 C   0  0  0  0  0  3  0  0  0  0  0  0
  186.4200  178.8060  140.3520 O   0  0  0  0  0  0  0  0  0  0  0  0
  186.7260  178.3520  141.5980 C   0  0  0  0  0  0  0  0  0  0  0  0
  185.5320  178.2280  142.3410 N   0  0  0  0  0  0  0  0  0  0  0  0
  184.4600  178.4510  141.5270 O   0  0  0  0  0  0  0  0  0  0  0  0
  185.0130  179.0230  140.3410 C   0  0  2  0  0  3  0  0  0  0  0  0
  184.0830  178.8700  145.7290 C   0  0  0  0  0  3  0  0  0  0  0  0
  184.2310  178.8030  144.3410 C   0  0  0  0  0  3  0  0  0  0  0  0
  186.4320  177.8420  144.6220 C   0  0  0  0  0  3  0  0  0  0  0  0
  185.1090  178.4230  146.5640 C   0  0  0  0  0  3  0  0  0  0  0  0
  186.2830  177.9050  146.0110 C   0  0  0  0  0  0  0  0  0  0  0  0
  185.4060  178.2890  143.7730 C   0  0  0  0  0  0  0  0  0  0  0  0
  187.5200  178.3450  148.0270 N   0  0  0  0  0  1  0  0  0  0  0  0
  187.3860  177.4430  146.8960 C   0  0  0  0  0  2  0  0  0  0  0  0
  184.3860  178.3770  139.1140 C   0  0  0  0  0  2  0  0  0  0  0  0
  182.9780  178.9000  138.8860 C   0  0  0  0  0  2  0  0  0  0  0  0
  182.0970  177.8140  138.2970 C   0  0  0  0  0  2  0  0  0  0  0  0
  182.6460  176.4540  138.6730 C   0  0  2  0  0  3  0  0  0  0  0  0
  182.3170  175.4900  137.6130 N   0  0  0  0  0  0  0  0  0  0  0  0
  181.5460  175.5200  138.8650 C   0  0  0  0  0  2  0  0  0  0  0  0
  183.2370  174.4400  137.7330 N   0  0  0  0  0  2  0  0  0  0  0  0
  184.2300  174.6170  136.6850 C   0  0  0  0  0  2  0  0  0  0  0  0
  185.5100  174.4910  137.2250 O   0  0  0  0  0  0  0  0  0  0  0  0
  186.3700  174.6740  136.1410 C   0  0  0  0  0  2  0  0  0  0  0  0
  187.4840  175.6270  136.5260 C   0  0  0  0  0  2  0  0  0  0  0  0
  187.0150  176.5510  137.4600 O   0  0  0  0  0  0  0  0  0  0  0  0
  188.1190  177.3550  137.7450 C   0  0  0  0  0  2  0  0  0  0  0  0
  190.5050  177.2890  137.7090 O   0  0  0  0  0  1  0  0  0  0  0  0
  189.3610  176.7770  137.0940 C   0  0  0  0  0  2  0  0  0  0  0  0
  189.1360  178.2200  141.1330 C   0  0  0  0  0  2  0  0  0  0  0  0
  190.0020  176.9810  141.2190 C   0  0  0  0  0  2  0  0  0  0  0  0
  191.4060  177.3800  141.6210 C   0  0  0  0  0  2  0  0  0  0  0  0
  191.6310  177.0240  143.0120 N   0  0  0  0  0  2  0  0  0  0  0  0
  191.5890  178.2550  143.7850 C   0  0  0  0  0  2  0  0  0  0  0  0
  190.4550  178.2080  144.8010 C   0  0  0  0  0  2  0  0  0  0  0  0
  190.3730  176.8830  145.3920 N   0  0  0  0  0  2  0  0  0  0  0  0
  192.4150  175.1590  146.1960 O   0  0  0  0  0  0  0  0  0  0  0  0
  192.0450  176.0560  146.9990 C   0  0  0  0  0  0  0  0  0  0  0  0
  191.0020  176.9610  146.6430 N   0  0  0  0  0  2  0  0  0  0  0  0
  192.6570  176.1660  148.2410 O   0  0  0  0  0  1  0  0  0  0  0  0
  2  3  1  0  0  0  0
  3  1  2  0  0  0  0
  3  4  1  0  0  0  0
  4 12  1  0  0  0  0
  5  4  1  0  0  0  0
  6 15  1  6  0  0  0
  6  2  1  0  0  0  0
  6  5  1  0  0  0  0
  7 10  1  0  0  0  0
  8  7  2  0  0  0  0
  9 11  1  0  0  0  0
 11 10  2  0  0  0  0
 11 14  1  0  0  0  0
 12  8  1  0  0  0  0
 12  9  2  0  0  0  0
 14 13  1  0  0  0  0
 16 15  1  0  0  0  0
 17 16  1  0  0  0  0
 18 17  1  6  0  0  0
 18 20  1  0  0  0  0
 19 21  1  0  0  0  0
 19 18  1  0  0  0  0
 19 20  1  0  0  0  0
 22 23  1  0  0  0  0
 22 21  1  0  0  0  0
 24 25  1  0  0  0  0
 24 23  1  0  0  0  0
 25 26  1  0  0  0  0
 26 27  1  0  0  0  0
 29 28  1  0  0  0  0
 29 27  1  0  0  0  0
 30 31  1  0  0  0  0
 30  1  1  0  0  0  0
 31 32  1  0  0  0  0
 32 33  1  0  0  0  0
 33 34  1  0  0  0  0
 34 35  1  0  0  0  0
 35 36  1  0  0  0  0
 36 39  1  0  0  0  0
 37 38  2  0  0  0  0
 38 40  1  0  0  0  0
 39 38  1  0  0  0  0
M  END
>  <MODEL>
1

>  <REMARK>
 VINA RESULT:      -6.4      0.000      0.000
  Name = 
  22 active torsions:
  status: ('A' for Active; 'I' for Inactive)
    1  A    between atoms: O_1  and  C_8
    2  A    between atoms: O_1  and  C_22
    3  A    between atoms: C_2  and  O_4
    4  A    between atoms: C_2  and  C_8
    5  A    between atoms: N_3  and  C_26
    6  A    between atoms: N_3  and  N_27
    7  A    between atoms: O_4  and  C_19
    8  A    between atoms: C_5  and  C_20
    9  A    between atoms: C_7  and  C_40
   10  A    between atoms: C_16  and  N_17
   11  A    between atoms: C_16  and  C_26
   12  A    between atoms: N_17  and  C_31
   13  A    between atoms: C_18  and  C_35
   14  A    between atoms: C_19  and  C_24
   15  A    between atoms: C_20  and  C_28
   16  A    between atoms: C_22  and  N_32
   17  A    between atoms: C_25  and  C_37
   18  A    between atoms: C_25  and  C_38
   19  A    between atoms: C_28  and  C_31
   20  A    between atoms: N_29  and  C_39
   21  A    between atoms: N_32  and  N_33
   22  A    between atoms: C_37  and  C_40
                            x       y       z     vdW  Elec       q    Type
                         _______ _______ _______ _____ _____    ______ ____

>  <TORSDO>
F 22

$$$$
=
 OpenBabel10222421593D

 40 42  0  0  1  0  0  0  0  0999 V2000
  188.1260  177.9170  142.4580 C   0  0  0  0  0  3  0  0  0  0  0  0
  185.9070  178.7920  142.5130 O   0  0  0  0  0  0  0  0  0  0  0  0
  186.9820  178.1810  143.0830 C   0  0  0  0  0  0  0  0  0  0  0  0
  186.6670  177.8670  144.4220 N   0  0  0  0  0  0  0  0  0  0  0  0
  185.3500  178.1320  144.6580 O   0  0  0  0  0  0  0  0  0  0  0  0
  184.9260  178.9110  143.5380 C   0  0  2  0  0  3  0  0  0  0  0  0
  188.0480  177.7250  147.8960 C   0  0  0  0  0  3  0  0  0  0  0  0
  187.1610  177.8790  146.8260 C   0  0  0  0  0  3  0  0  0  0  0  0
  188.9460  177.3780  145.2750 C   0  0  0  0  0  3  0  0  0  0  0  0
  189.3840  177.3980  147.6560 C   0  0  0  0  0  3  0  0  0  0  0  0
  189.8330  177.2200  146.3440 C   0  0  0  0  0  0  0  0  0  0  0  0
  187.6010  177.7070  145.5050 C   0  0  0  0  0  0  0  0  0  0  0  0
  191.5840  177.1750  144.6940 N   0  0  0  0  0  1  0  0  0  0  0  0
  191.2600  176.8880  146.0810 C   0  0  0  0  0  2  0  0  0  0  0  0
  183.5770  178.4100  143.0410 C   0  0  0  0  0  2  0  0  0  0  0  0
  182.4580  178.8650  143.9630 C   0  0  0  0  0  2  0  0  0  0  0  0
  181.2040  179.1700  143.1660 C   0  0  0  0  0  2  0  0  0  0  0  0
  181.3680  178.6630  141.7480 C   0  0  2  0  0  3  0  0  0  0  0  0
  180.7180  179.6020  140.8220 N   0  0  0  0  0  0  0  0  0  0  0  0
  180.0610  178.3390  141.1920 C   0  0  0  0  0  2  0  0  0  0  0  0
  181.3080  179.3950  139.5680 N   0  0  0  0  0  2  0  0  0  0  0  0
  182.7390  179.6020  139.7270 C   0  0  0  0  0  2  0  0  0  0  0  0
  183.3550  179.6130  138.4750 O   0  0  0  0  0  0  0  0  0  0  0  0
  183.2980  178.2880  138.0420 C   0  0  0  0  0  2  0  0  0  0  0  0
  184.6600  177.6400  138.1950 C   0  0  0  0  0  2  0  0  0  0  0  0
  185.6570  178.6150  138.1400 O   0  0  0  0  0  0  0  0  0  0  0  0
  186.7830  177.9410  137.6680 C   0  0  0  0  0  2  0  0  0  0  0  0
  188.5220  179.5390  137.3240 O   0  0  0  0  0  1  0  0  0  0  0  0
  187.5260  178.8100  136.6720 C   0  0  0  0  0  2  0  0  0  0  0  0
  188.3320  178.2870  141.0310 C   0  0  0  0  0  2  0  0  0  0  0  0
  189.0510  177.1620  140.3170 C   0  0  0  0  0  2  0  0  0  0  0  0
  190.4490  177.0240  140.8820 C   0  0  0  0  0  2  0  0  0  0  0  0
  191.4210  177.2050  139.8170 N   0  0  0  0  0  2  0  0  0  0  0  0
  190.7260  177.0000  138.5560 C   0  0  0  0  0  2  0  0  0  0  0  0
  191.5960  176.2080  137.5890 C   0  0  0  0  0  2  0  0  0  0  0  0
  192.9370  176.0680  138.1300 N   0  0  0  0  0  2  0  0  0  0  0  0
  194.2490  175.2560  135.8050 O   0  0  0  0  0  1  0  0  0  0  0  0
  194.4070  176.4450  136.1910 C   0  0  0  0  0  0  0  0  0  0  0  0
  193.7650  176.9120  137.3760 N   0  0  0  0  0  2  0  0  0  0  0  0
  195.2110  177.3080  135.4590 O   0  0  0  0  0  0  0  0  0  0  0  0
  1  3  2  0  0  0  0
  2  3  1  0  0  0  0
  2  6  1  0  0  0  0
  3  4  1  0  0  0  0
  4  5  1  0  0  0  0
  4 12  1  0  0  0  0
  6 15  1  6  0  0  0
  6  5  1  0  0  0  0
  8  7  2  0  0  0  0
  9 12  2  0  0  0  0
  9 11  1  0  0  0  0
 10  7  1  0  0  0  0
 11 10  2  0  0  0  0
 12  8  1  0  0  0  0
 13 14  1  0  0  0  0
 14 11  1  0  0  0  0
 15 16  1  0  0  0  0
 17 16  1  0  0  0  0
 18 17  1  1  0  0  0
 19 20  1  0  0  0  0
 19 18  1  0  0  0  0
 20 18  1  0  0  0  0
 21 22  1  0  0  0  0
 21 19  1  0  0  0  0
 23 22  1  0  0  0  0
 24 25  1  0  0  0  0
 24 23  1  0  0  0  0
 26 25  1  0  0  0  0
 27 26  1  0  0  0  0
 29 28  1  0  0  0  0
 29 27  1  0  0  0  0
 30  1  1  0  0  0  0
 31 32  1  0  0  0  0
 31 30  1  0  0  0  0
 33 32  1  0  0  0  0
 34 33  1  0  0  0  0
 35 36  1  0  0  0  0
 35 34  1  0  0  0  0
 37 38  1  0  0  0  0
 38 39  1  0  0  0  0
 39 36  1  0  0  0  0
 40 38  2  0  0  0  0
M  END
>  <MODEL>
2

>  <REMARK>
 VINA RESULT:      -6.2      2.962      5.296
  Name = 
  22 active torsions:
  status: ('A' for Active; 'I' for Inactive)
    1  A    between atoms: O_1  and  C_8
    2  A    between atoms: O_1  and  C_22
    3  A    between atoms: C_2  and  O_4
    4  A    between atoms: C_2  and  C_8
    5  A    between atoms: N_3  and  C_26
    6  A    between atoms: N_3  and  N_27
    7  A    between atoms: O_4  and  C_19
    8  A    between atoms: C_5  and  C_20
    9  A    between atoms: C_7  and  C_40
   10  A    between atoms: C_16  and  N_17
   11  A    between atoms: C_16  and  C_26
   12  A    between atoms: N_17  and  C_31
   13  A    between atoms: C_18  and  C_35
   14  A    between atoms: C_19  and  C_24
   15  A    between atoms: C_20  and  C_28
   16  A    between atoms: C_22  and  N_32
   17  A    between atoms: C_25  and  C_37
   18  A    between atoms: C_25  and  C_38
   19  A    between atoms: C_28  and  C_31
   20  A    between atoms: N_29  and  C_39
   21  A    between atoms: N_32  and  N_33
   22  A    between atoms: C_37  and  C_40
                            x       y       z     vdW  Elec       q    Type
                         _______ _______ _______ _____ _____    ______ ____

>  <TORSDO>
F 22

$$$$
=
 OpenBabel10222421593D

 40 42  0  0  1  0  0  0  0  0999 V2000
  187.6620  177.7030  143.5080 C   0  0  0  0  0  3  0  0  0  0  0  0
  188.9120  176.9410  141.6240 O   0  0  0  0  0  0  0  0  0  0  0  0
  188.7980  177.3340  142.9220 C   0  0  0  0  0  0  0  0  0  0  0  0
  190.0760  177.2980  143.5200 N   0  0  0  0  0  0  0  0  0  0  0  0
  191.0200  177.0370  142.5700 O   0  0  0  0  0  0  0  0  0  0  0  0
  190.2800  176.6000  141.4290 C   0  0  2  0  0  3  0  0  0  0  0  0
  191.8450  176.3070  146.6640 C   0  0  0  0  0  3  0  0  0  0  0  0
  191.5440  176.4830  145.3100 C   0  0  0  0  0  3  0  0  0  0  0  0
  189.4830  177.5940  145.9130 C   0  0  0  0  0  3  0  0  0  0  0  0
  190.9660  176.7760  147.6420 C   0  0  0  0  0  3  0  0  0  0  0  0
  189.7850  177.4230  147.2670 C   0  0  0  0  0  0  0  0  0  0  0  0
  190.3600  177.1270  144.9200 C   0  0  0  0  0  0  0  0  0  0  0  0
  187.5060  178.0350  147.7350 N   0  0  0  0  0  1  0  0  0  0  0  0
  188.8360  177.9090  148.3050 C   0  0  0  0  0  2  0  0  0  0  0  0
  190.8210  177.2710  140.1740 C   0  0  0  0  0  2  0  0  0  0  0  0
  190.6180  176.3850  138.9570 C   0  0  0  0  0  2  0  0  0  0  0  0
  191.7730  176.5460  137.9860 C   0  0  0  0  0  2  0  0  0  0  0  0
  191.7320  175.4340  136.9590 C   0  0  2  0  0  3  0  0  0  0  0  0
  191.0780  174.2560  137.5470 N   0  0  0  0  0  0  0  0  0  0  0  0
  192.5420  174.3140  137.4210 C   0  0  0  0  0  2  0  0  0  0  0  0
  190.6120  173.4840  136.4750 N   0  0  0  0  0  2  0  0  0  0  0  0
  189.1840  173.2940  136.6710 C   0  0  0  0  0  2  0  0  0  0  0  0
  188.5680  174.5290  136.8720 O   0  0  0  0  0  0  0  0  0  0  0  0
  188.0770  174.8880  135.6170 C   0  0  0  0  0  2  0  0  0  0  0  0
  187.9460  176.3960  135.5300 C   0  0  0  0  0  2  0  0  0  0  0  0
  187.5270  176.9060  136.7600 O   0  0  0  0  0  0  0  0  0  0  0  0
  187.5720  178.2910  136.6000 C   0  0  0  0  0  2  0  0  0  0  0  0
  188.9840  179.4590  138.1310 O   0  0  0  0  0  1  0  0  0  0  0  0
  188.9690  178.8010  136.9000 C   0  0  0  0  0  2  0  0  0  0  0  0
  186.3740  177.7130  142.7630 C   0  0  0  0  0  2  0  0  0  0  0  0
  186.2970  178.9580  141.9050 C   0  0  0  0  0  2  0  0  0  0  0  0
  184.8820  179.1240  141.3910 C   0  0  0  0  0  2  0  0  0  0  0  0
  184.9140  179.3780  139.9600 N   0  0  0  0  0  2  0  0  0  0  0  0
  183.5440  179.2980  139.4770 C   0  0  0  0  0  2  0  0  0  0  0  0
  183.1500  177.8490  139.2240 C   0  0  0  0  0  2  0  0  0  0  0  0
  183.2840  177.5390  137.8100 N   0  0  0  0  0  2  0  0  0  0  0  0
  182.8880  174.7910  137.5340 O   0  0  0  0  0  1  0  0  0  0  0  0
  184.0720  175.2200  137.5550 C   0  0  0  0  0  0  0  0  0  0  0  0
  184.3330  176.6150  137.7000 N   0  0  0  0  0  2  0  0  0  0  0  0
  185.1310  174.3300  137.4350 O   0  0  0  0  0  0  0  0  0  0  0  0
  2  3  1  0  0  0  0
  3  1  2  0  0  0  0
  3  4  1  0  0  0  0
  4 12  1  0  0  0  0
  5  4  1  0  0  0  0
  6 15  1  6  0  0  0
  6  2  1  0  0  0  0
  6  5  1  0  0  0  0
  7 10  1  0  0  0  0
  8  7  2  0  0  0  0
  9 11  1  0  0  0  0
 11 10  2  0  0  0  0
 11 14  1  0  0  0  0
 12  8  1  0  0  0  0
 12  9  2  0  0  0  0
 13 14  1  0  0  0  0
 16 15  1  0  0  0  0
 17 16  1  0  0  0  0
 18 20  1  0  0  0  0
 18 19  1  0  0  0  0
 18 17  1  1  0  0  0
 20 19  1  0  0  0  0
 21 22  1  0  0  0  0
 21 19  1  0  0  0  0
 22 23  1  0  0  0  0
 24 23  1  0  0  0  0
 25 24  1  0  0  0  0
 25 26  1  0  0  0  0
 27 26  1  0  0  0  0
 27 29  1  0  0  0  0
 29 28  1  0  0  0  0
 30  1  1  0  0  0  0
 31 30  1  0  0  0  0
 32 31  1  0  0  0  0
 33 32  1  0  0  0  0
 34 33  1  0  0  0  0
 35 34  1  0  0  0  0
 36 35  1  0  0  0  0
 37 38  1  0  0  0  0
 38 39  1  0  0  0  0
 39 36  1  0  0  0  0
 40 38  2  0  0  0  0
M  END
>  <MODEL>
3

>  <REMARK>
 VINA RESULT:      -6.2      2.518      7.044
  Name = 
  22 active torsions:
  status: ('A' for Active; 'I' for Inactive)
    1  A    between atoms: O_1  and  C_8
    2  A    between atoms: O_1  and  C_22
    3  A    between atoms: C_2  and  O_4
    4  A    between atoms: C_2  and  C_8
    5  A    between atoms: N_3  and  C_26
    6  A    between atoms: N_3  and  N_27
    7  A    between atoms: O_4  and  C_19
    8  A    between atoms: C_5  and  C_20
    9  A    between atoms: C_7  and  C_40
   10  A    between atoms: C_16  and  N_17
   11  A    between atoms: C_16  and  C_26
   12  A    between atoms: N_17  and  C_31
   13  A    between atoms: C_18  and  C_35
   14  A    between atoms: C_19  and  C_24
   15  A    between atoms: C_20  and  C_28
   16  A    between atoms: C_22  and  N_32
   17  A    between atoms: C_25  and  C_37
   18  A    between atoms: C_25  and  C_38
   19  A    between atoms: C_28  and  C_31
   20  A    between atoms: N_29  and  C_39
   21  A    between atoms: N_32  and  N_33
   22  A    between atoms: C_37  and  C_40
                            x       y       z     vdW  Elec       q    Type
                         _______ _______ _______ _____ _____    ______ ____

>  <TORSDO>
F 22

$$$$
=
 OpenBabel10222421593D

 40 42  0  0  1  0  0  0  0  0999 V2000
  187.3200  178.0400  142.8320 C   0  0  0  0  0  3  0  0  0  0  0  0
  185.2450  179.0330  143.4660 O   0  0  0  0  0  0  0  0  0  0  0  0
  186.3920  178.3510  143.7330 C   0  0  0  0  0  0  0  0  0  0  0  0
  186.4130  178.0210  145.1050 N   0  0  0  0  0  0  0  0  0  0  0  0
  185.2190  178.3520  145.6750 O   0  0  0  0  0  0  0  0  0  0  0  0
  184.5690  179.1790  144.7100 C   0  0  2  0  0  3  0  0  0  0  0  0
  188.6010  177.6010  148.1110 C   0  0  0  0  0  3  0  0  0  0  0  0
  187.4800  177.8310  147.3080 C   0  0  0  0  0  3  0  0  0  0  0  0
  188.8300  177.5000  145.3300 C   0  0  0  0  0  3  0  0  0  0  0  0
  189.8360  177.3200  147.5240 C   0  0  0  0  0  3  0  0  0  0  0  0
  189.9510  177.2650  146.1320 C   0  0  0  0  0  0  0  0  0  0  0  0
  187.5830  177.7840  145.9090 C   0  0  0  0  0  0  0  0  0  0  0  0
  191.6390  178.0800  144.6240 N   0  0  0  0  0  1  0  0  0  0  0  0
  191.2690  176.9820  145.5010 C   0  0  0  0  0  2  0  0  0  0  0  0
  183.1100  178.7660  144.5730 C   0  0  0  0  0  2  0  0  0  0  0  0
  182.6920  178.7330  143.1130 C   0  0  0  0  0  2  0  0  0  0  0  0
  181.1920  178.9250  142.9860 C   0  0  0  0  0  2  0  0  0  0  0  0
  180.7070  178.3010  141.6950 C   0  0  2  0  0  3  0  0  0  0  0  0
  181.8330  178.1930  140.7570 N   0  0  0  0  0  0  0  0  0  0  0  0
  180.8360  179.2640  140.6090 C   0  0  0  0  0  2  0  0  0  0  0  0
  181.4890  177.1940  139.8360 N   0  0  0  0  0  2  0  0  0  0  0  0
  182.6690  176.3680  139.6380 C   0  0  0  0  0  2  0  0  0  0  0  0
  182.4620  175.5030  138.5630 O   0  0  0  0  0  0  0  0  0  0  0  0
  182.7470  176.2700  137.4330 C   0  0  0  0  0  2  0  0  0  0  0  0
  184.1650  175.9950  136.9710 C   0  0  0  0  0  2  0  0  0  0  0  0
  184.2400  174.7220  136.4050 O   0  0  0  0  0  0  0  0  0  0  0  0
  185.4190  174.1800  136.9140 C   0  0  0  0  0  2  0  0  0  0  0  0
  184.1560  172.1860  137.2760 O   0  0  0  0  0  1  0  0  0  0  0  0
  185.0970  173.0380  137.8590 C   0  0  0  0  0  2  0  0  0  0  0  0
  187.1740  178.4330  141.4040 C   0  0  0  0  0  2  0  0  0  0  0  0
  188.4320  178.0630  140.6480 C   0  0  0  0  0  2  0  0  0  0  0  0
  189.4650  177.5360  141.6220 C   0  0  0  0  0  2  0  0  0  0  0  0
  190.3070  176.5580  140.9540 N   0  0  0  0  0  2  0  0  0  0  0  0
  191.1740  177.2860  140.0410 C   0  0  0  0  0  2  0  0  0  0  0  0
  191.0820  176.7010  138.6380 C   0  0  0  0  0  2  0  0  0  0  0  0
  190.8160  175.2740  138.7110 N   0  0  0  0  0  2  0  0  0  0  0  0
  189.6970  173.4350  136.9360 O   0  0  0  0  0  1  0  0  0  0  0  0
  190.9090  173.7470  136.7820 C   0  0  0  0  0  0  0  0  0  0  0  0
  191.5330  174.6770  137.6650 N   0  0  0  0  0  2  0  0  0  0  0  0
  191.6410  173.1810  135.7470 O   0  0  0  0  0  0  0  0  0  0  0  0
  1  3  2  0  0  0  0
  2  3  1  0  0  0  0
  2  6  1  0  0  0  0
  3  4  1  0  0  0  0
  4  5  1  0  0  0  0
  4 12  1  0  0  0  0
  6 15  1  6  0  0  0
  6  5  1  0  0  0  0
  8  7  2  0  0  0  0
  9 12  2  0  0  0  0
  9 11  1  0  0  0  0
 10  7  1  0  0  0  0
 11 10  2  0  0  0  0
 12  8  1  0  0  0  0
 13 14  1  0  0  0  0
 14 11  1  0  0  0  0
 16 15  1  0  0  0  0
 17 16  1  0  0  0  0
 18 17  1  1  0  0  0
 19 18  1  0  0  0  0
 20 19  1  0  0  0  0
 20 18  1  0  0  0  0
 21 19  1  0  0  0  0
 22 21  1  0  0  0  0
 23 22  1  0  0  0  0
 24 23  1  0  0  0  0
 25 24  1  0  0  0  0
 26 27  1  0  0  0  0
 26 25  1  0  0  0  0
 27 29  1  0  0  0  0
 28 29  1  0  0  0  0
 30  1  1  0  0  0  0
 31 30  1  0  0  0  0
 31 32  1  0  0  0  0
 33 32  1  0  0  0  0
 34 33  1  0  0  0  0
 35 36  1  0  0  0  0
 35 34  1  0  0  0  0
 38 37  1  0  0  0  0
 38 39  1  0  0  0  0
 39 36  1  0  0  0  0
 40 38  2  0  0  0  0
M  END
>  <MODEL>
4

>  <REMARK>
 VINA RESULT:      -6.2      2.778      5.281
  Name = 
  22 active torsions:
  status: ('A' for Active; 'I' for Inactive)
    1  A    between atoms: O_1  and  C_8
    2  A    between atoms: O_1  and  C_22
    3  A    between atoms: C_2  and  O_4
    4  A    between atoms: C_2  and  C_8
    5  A    between atoms: N_3  and  C_26
    6  A    between atoms: N_3  and  N_27
    7  A    between atoms: O_4  and  C_19
    8  A    between atoms: C_5  and  C_20
    9  A    between atoms: C_7  and  C_40
   10  A    between atoms: C_16  and  N_17
   11  A    between atoms: C_16  and  C_26
   12  A    between atoms: N_17  and  C_31
   13  A    between atoms: C_18  and  C_35
   14  A    between atoms: C_19  and  C_24
   15  A    between atoms: C_20  and  C_28
   16  A    between atoms: C_22  and  N_32
   17  A    between atoms: C_25  and  C_37
   18  A    between atoms: C_25  and  C_38
   19  A    between atoms: C_28  and  C_31
   20  A    between atoms: N_29  and  C_39
   21  A    between atoms: N_32  and  N_33
   22  A    between atoms: C_37  and  C_40
                            x       y       z     vdW  Elec       q    Type
                         _______ _______ _______ _____ _____    ______ ____

>  <TORSDO>
F 22

$$$$
=
 OpenBabel10222421593D

 40 42  0  0  1  0  0  0  0  0999 V2000
  185.2040  178.9730  143.4440 C   0  0  0  0  0  3  0  0  0  0  0  0
  184.0440  178.9180  141.3600 O   0  0  0  0  0  0  0  0  0  0  0  0
  185.1720  178.8620  142.1180 C   0  0  0  0  0  0  0  0  0  0  0  0
  186.2830  178.6870  141.2650 N   0  0  0  0  0  0  0  0  0  0  0  0
  185.8830  178.7890  139.9650 O   0  0  0  0  0  0  0  0  0  0  0  0
  184.4570  178.7160  140.0130 C   0  0  2  0  0  3  0  0  0  0  0  0
  188.9550  177.0180  143.2820 C   0  0  0  0  0  3  0  0  0  0  0  0
  187.7430  177.6130  142.9200 C   0  0  0  0  0  3  0  0  0  0  0  0
  188.5770  177.9430  140.6750 C   0  0  0  0  0  3  0  0  0  0  0  0
  189.9780  176.8850  142.3410 C   0  0  0  0  0  3  0  0  0  0  0  0
  189.7880  177.3450  141.0350 C   0  0  0  0  0  0  0  0  0  0  0  0
  187.5410  178.0820  141.6140 C   0  0  0  0  0  0  0  0  0  0  0  0
  190.6390  176.0690  139.1810 N   0  0  0  0  0  1  0  0  0  0  0  0
  190.8810  177.2220  140.0320 C   0  0  0  0  0  2  0  0  0  0  0  0
  183.8550  179.7800  139.1070 C   0  0  0  0  0  2  0  0  0  0  0  0
  182.3370  179.7350  139.1550 C   0  0  0  0  0  2  0  0  0  0  0  0
  181.7670  179.5620  137.7600 C   0  0  0  0  0  2  0  0  0  0  0  0
  181.5760  178.0890  137.4680 C   0  0  2  0  0  3  0  0  0  0  0  0
  182.5210  177.6760  136.4200 N   0  0  0  0  0  0  0  0  0  0  0  0
  181.1060  177.9190  136.0990 C   0  0  0  0  0  2  0  0  0  0  0  0
  182.6720  176.2890  136.5450 N   0  0  0  0  0  2  0  0  0  0  0  0
  183.6170  176.0550  137.6260 C   0  0  0  0  0  2  0  0  0  0  0  0
  184.8420  176.6450  137.3160 O   0  0  0  0  0  0  0  0  0  0  0  0
  185.5310  175.6690  136.5950 C   0  0  0  0  0  2  0  0  0  0  0  0
  186.4800  176.3310  135.6160 C   0  0  0  0  0  2  0  0  0  0  0  0
  187.7730  176.3400  136.1420 O   0  0  0  0  0  0  0  0  0  0  0  0
  187.7040  177.2100  137.2300 C   0  0  0  0  0  2  0  0  0  0  0  0
  189.2550  179.0230  137.2940 O   0  0  0  0  0  1  0  0  0  0  0  0
  188.0190  178.6240  136.7820 C   0  0  0  0  0  2  0  0  0  0  0  0
  183.9600  179.1720  144.2340 C   0  0  0  0  0  2  0  0  0  0  0  0
  184.2050  178.7660  145.6720 C   0  0  0  0  0  2  0  0  0  0  0  0
  185.6520  179.0350  146.0280 C   0  0  0  0  0  2  0  0  0  0  0  0
  186.2470  177.8290  146.5790 N   0  0  0  0  0  2  0  0  0  0  0  0
  187.1040  178.2350  147.6820 C   0  0  0  0  0  2  0  0  0  0  0  0
  188.1620  177.1740  147.9540 C   0  0  0  0  0  2  0  0  0  0  0  0
  189.4890  177.7580  147.8510 N   0  0  0  0  0  2  0  0  0  0  0  0
  192.0540  176.6700  147.7150 O   0  0  0  0  0  1  0  0  0  0  0  0
  191.3700  176.7110  146.6580 C   0  0  0  0  0  0  0  0  0  0  0  0
  190.0550  177.2630  146.6690 N   0  0  0  0  0  2  0  0  0  0  0  0
  191.9000  176.2170  145.4740 O   0  0  0  0  0  0  0  0  0  0  0  0
  1 30  1  0  0  0  0
  2  3  1  0  0  0  0
  3  1  2  0  0  0  0
  4 12  1  0  0  0  0
  4  3  1  0  0  0  0
  5  6  1  0  0  0  0
  5  4  1  0  0  0  0
  6 15  1  6  0  0  0
  6  2  1  0  0  0  0
  8  7  1  0  0  0  0
  9 11  2  0  0  0  0
  9 12  1  0  0  0  0
 10  7  2  0  0  0  0
 11 10  1  0  0  0  0
 12  8  2  0  0  0  0
 13 14  1  0  0  0  0
 14 11  1  0  0  0  0
 15 16  1  0  0  0  0
 17 16  1  0  0  0  0
 18 17  1  6  0  0  0
 19 21  1  0  0  0  0
 19 18  1  0  0  0  0
 20 19  1  0  0  0  0
 20 18  1  0  0  0  0
 21 22  1  0  0  0  0
 23 22  1  0  0  0  0
 24 23  1  0  0  0  0
 25 26  1  0  0  0  0
 25 24  1  0  0  0  0
 26 27  1  0  0  0  0
 29 27  1  0  0  0  0
 29 28  1  0  0  0  0
 30 31  1  0  0  0  0
 31 32  1  0  0  0  0
 32 33  1  0  0  0  0
 33 34  1  0  0  0  0
 34 35  1  0  0  0  0
 36 35  1  0  0  0  0
 38 39  1  0  0  0  0
 38 37  1  0  0  0  0
 39 36  1  0  0  0  0
 40 38  2  0  0  0  0
M  END
>  <MODEL>
5

>  <REMARK>
 VINA RESULT:      -6.1      1.558      4.085
  Name = 
  22 active torsions:
  status: ('A' for Active; 'I' for Inactive)
    1  A    between atoms: O_1  and  C_8
    2  A    between atoms: O_1  and  C_22
    3  A    between atoms: C_2  and  O_4
    4  A    between atoms: C_2  and  C_8
    5  A    between atoms: N_3  and  C_26
    6  A    between atoms: N_3  and  N_27
    7  A    between atoms: O_4  and  C_19
    8  A    between atoms: C_5  and  C_20
    9  A    between atoms: C_7  and  C_40
   10  A    between atoms: C_16  and  N_17
   11  A    between atoms: C_16  and  C_26
   12  A    between atoms: N_17  and  C_31
   13  A    between atoms: C_18  and  C_35
   14  A    between atoms: C_19  and  C_24
   15  A    between atoms: C_20  and  C_28
   16  A    between atoms: C_22  and  N_32
   17  A    between atoms: C_25  and  C_37
   18  A    between atoms: C_25  and  C_38
   19  A    between atoms: C_28  and  C_31
   20  A    between atoms: N_29  and  C_39
   21  A    between atoms: N_32  and  N_33
   22  A    between atoms: C_37  and  C_40
                            x       y       z     vdW  Elec       q    Type
                         _______ _______ _______ _____ _____    ______ ____

>  <TORSDO>
F 22

$$$$
=
 OpenBabel10222421593D

 40 42  0  0  1  0  0  0  0  0999 V2000
  187.0430  178.0250  143.0470 C   0  0  0  0  0  3  0  0  0  0  0  0
  184.9670  179.0440  143.6310 O   0  0  0  0  0  0  0  0  0  0  0  0
  186.1110  178.3710  143.9310 C   0  0  0  0  0  0  0  0  0  0  0  0
  186.1240  178.0950  145.3150 N   0  0  0  0  0  0  0  0  0  0  0  0
  184.9280  178.4490  145.8650 O   0  0  0  0  0  0  0  0  0  0  0  0
  184.2830  179.2390  144.8650 C   0  0  2  0  0  3  0  0  0  0  0  0
  188.3150  177.8720  148.3390 C   0  0  0  0  0  3  0  0  0  0  0  0
  187.1990  178.0710  147.5220 C   0  0  0  0  0  3  0  0  0  0  0  0
  188.5210  177.5020  145.5790 C   0  0  0  0  0  3  0  0  0  0  0  0
  189.5340  177.4880  147.7780 C   0  0  0  0  0  3  0  0  0  0  0  0
  189.6370  177.2990  146.3960 C   0  0  0  0  0  0  0  0  0  0  0  0
  187.2900  177.8880  146.1340 C   0  0  0  0  0  0  0  0  0  0  0  0
  191.9110  176.6520  146.8390 N   0  0  0  0  0  1  0  0  0  0  0  0
  190.9380  176.9070  145.7900 C   0  0  0  0  0  2  0  0  0  0  0  0
  182.8250  178.8230  144.7360 C   0  0  0  0  0  2  0  0  0  0  0  0
  182.3590  178.9200  143.2930 C   0  0  0  0  0  2  0  0  0  0  0  0
  180.8440  178.9390  143.2250 C   0  0  0  0  0  2  0  0  0  0  0  0
  180.3950  178.6750  141.8040 C   0  0  2  0  0  3  0  0  0  0  0  0
  181.3960  179.2150  140.8720 N   0  0  0  0  0  0  0  0  0  0  0  0
  180.1430  179.9410  141.1280 C   0  0  0  0  0  2  0  0  0  0  0  0
  181.2240  178.5290  139.6630 N   0  0  0  0  0  2  0  0  0  0  0  0
  182.0260  177.3190  139.7360 C   0  0  0  0  0  2  0  0  0  0  0  0
  182.5350  177.0140  138.4740 O   0  0  0  0  0  0  0  0  0  0  0  0
  183.0800  175.7370  138.6110 C   0  0  0  0  0  2  0  0  0  0  0  0
  182.7610  174.9090  137.3820 C   0  0  0  0  0  2  0  0  0  0  0  0
  181.7140  174.0300  137.6610 O   0  0  0  0  0  0  0  0  0  0  0  0
  181.5690  173.2740  136.4980 C   0  0  0  0  0  2  0  0  0  0  0  0
  182.8030  171.3740  137.2510 O   0  0  0  0  0  1  0  0  0  0  0  0
  182.7890  172.3950  136.2990 C   0  0  0  0  0  2  0  0  0  0  0  0
  186.9060  178.3620  141.6050 C   0  0  0  0  0  2  0  0  0  0  0  0
  188.2760  178.4050  140.9630 C   0  0  0  0  0  2  0  0  0  0  0  0
  189.1750  177.3880  141.6360 C   0  0  0  0  0  2  0  0  0  0  0  0
  190.1360  176.8790  140.6720 N   0  0  0  0  0  2  0  0  0  0  0  0
  190.0180  177.6930  139.4720 C   0  0  0  0  0  2  0  0  0  0  0  0
  190.5150  176.9250  138.2550 C   0  0  0  0  0  2  0  0  0  0  0  0
  189.8700  177.4290  137.0540 N   0  0  0  0  0  2  0  0  0  0  0  0
  187.1560  176.8910  136.6910 O   0  0  0  0  0  0  0  0  0  0  0  0
  187.4770  177.9640  137.2700 C   0  0  0  0  0  0  0  0  0  0  0  0
  188.8490  178.2910  137.4770 N   0  0  0  0  0  2  0  0  0  0  0  0
  186.4870  178.8320  137.7120 O   0  0  0  0  0  1  0  0  0  0  0  0
  1  3  2  0  0  0  0
  2  3  1  0  0  0  0
  2  6  1  0  0  0  0
  3  4  1  0  0  0  0
  4  5  1  0  0  0  0
  4 12  1  0  0  0  0
  6 15  1  6  0  0  0
  6  5  1  0  0  0  0
  8  7  2  0  0  0  0
  9 12  2  0  0  0  0
  9 11  1  0  0  0  0
 10  7  1  0  0  0  0
 11 10  2  0  0  0  0
 12  8  1  0  0  0  0
 14 11  1  0  0  0  0
 14 13  1  0  0  0  0
 16 15  1  0  0  0  0
 17 16  1  0  0  0  0
 18 17  1  1  0  0  0
 19 20  1  0  0  0  0
 19 18  1  0  0  0  0
 20 18  1  0  0  0  0
 21 22  1  0  0  0  0
 21 19  1  0  0  0  0
 23 24  1  0  0  0  0
 23 22  1  0  0  0  0
 25 26  1  0  0  0  0
 25 24  1  0  0  0  0
 27 26  1  0  0  0  0
 29 27  1  0  0  0  0
 29 28  1  0  0  0  0
 30  1  1  0  0  0  0
 31 30  1  0  0  0  0
 31 32  1  0  0  0  0
 33 32  1  0  0  0  0
 34 33  1  0  0  0  0
 35 34  1  0  0  0  0
 36 39  1  0  0  0  0
 36 35  1  0  0  0  0
 37 38  2  0  0  0  0
 38 39  1  0  0  0  0
 38 40  1  0  0  0  0
M  END
>  <MODEL>
6

>  <REMARK>
 VINA RESULT:      -6.1      2.829      5.825
  Name = 
  22 active torsions:
  status: ('A' for Active; 'I' for Inactive)
    1  A    between atoms: O_1  and  C_8
    2  A    between atoms: O_1  and  C_22
    3  A    between atoms: C_2  and  O_4
    4  A    between atoms: C_2  and  C_8
    5  A    between atoms: N_3  and  C_26
    6  A    between atoms: N_3  and  N_27
    7  A    between atoms: O_4  and  C_19
    8  A    between atoms: C_5  and  C_20
    9  A    between atoms: C_7  and  C_40
   10  A    between atoms: C_16  and  N_17
   11  A    between atoms: C_16  and  C_26
   12  A    between atoms: N_17  and  C_31
   13  A    between atoms: C_18  and  C_35
   14  A    between atoms: C_19  and  C_24
   15  A    between atoms: C_20  and  C_28
   16  A    between atoms: C_22  and  N_32
   17  A    between atoms: C_25  and  C_37
   18  A    between atoms: C_25  and  C_38
   19  A    between atoms: C_28  and  C_31
   20  A    between atoms: N_29  and  C_39
   21  A    between atoms: N_32  and  N_33
   22  A    between atoms: C_37  and  C_40
                            x       y       z     vdW  Elec       q    Type
                         _______ _______ _______ _____ _____    ______ ____

>  <TORSDO>
F 22

$$$$
=
 OpenBabel10222421593D

 40 42  0  0  1  0  0  0  0  0999 V2000
  188.3670  177.3040  142.8650 C   0  0  0  0  0  3  0  0  0  0  0  0
  186.2600  178.3700  142.5250 O   0  0  0  0  0  0  0  0  0  0  0  0
  187.2090  177.7900  143.3070 C   0  0  0  0  0  0  0  0  0  0  0  0
  186.7510  177.7780  144.6420 N   0  0  0  0  0  0  0  0  0  0  0  0
  185.4560  178.2030  144.6860 O   0  0  0  0  0  0  0  0  0  0  0  0
  185.2150  178.7780  143.4010 C   0  0  2  0  0  3  0  0  0  0  0  0
  187.8050  178.1830  148.2090 C   0  0  0  0  0  3  0  0  0  0  0  0
  187.0330  178.2000  147.0440 C   0  0  0  0  0  3  0  0  0  0  0  0
  188.8920  177.2850  145.7990 C   0  0  0  0  0  3  0  0  0  0  0  0
  189.1200  177.7160  148.1700 C   0  0  0  0  0  3  0  0  0  0  0  0
  189.6640  177.2630  146.9640 C   0  0  0  0  0  0  0  0  0  0  0  0
  187.5680  177.7520  145.8260 C   0  0  0  0  0  0  0  0  0  0  0  0
  191.4670  176.5670  145.5320 N   0  0  0  0  0  1  0  0  0  0  0  0
  191.0700  176.7800  146.9130 C   0  0  0  0  0  2  0  0  0  0  0  0
  183.8660  178.3130  142.8710 C   0  0  0  0  0  2  0  0  0  0  0  0
  183.8790  178.2300  141.3540 C   0  0  0  0  0  2  0  0  0  0  0  0
  182.5480  178.6830  140.7860 C   0  0  0  0  0  2  0  0  0  0  0  0
  182.2730  177.9530  139.4880 C   0  0  2  0  0  3  0  0  0  0  0  0
  183.0240  178.6000  138.4020 N   0  0  0  0  0  0  0  0  0  0  0  0
  181.5830  178.8440  138.5650 C   0  0  0  0  0  2  0  0  0  0  0  0
  183.1580  177.6430  137.3870 N   0  0  0  0  0  2  0  0  0  0  0  0
  184.5200  177.1360  137.4520 C   0  0  0  0  0  2  0  0  0  0  0  0
  184.6120  175.9450  136.7320 O   0  0  0  0  0  0  0  0  0  0  0  0
  185.9700  175.6260  136.7500 C   0  0  0  0  0  2  0  0  0  0  0  0
  186.7530  176.7560  137.3890 C   0  0  0  0  0  2  0  0  0  0  0  0
  188.0050  176.8670  136.7830 O   0  0  0  0  0  0  0  0  0  0  0  0
  188.0670  178.1870  136.3390 C   0  0  0  0  0  2  0  0  0  0  0  0
  188.8020  179.2330  138.3550 O   0  0  0  0  0  1  0  0  0  0  0  0
  189.1880  178.9200  137.0500 C   0  0  0  0  0  2  0  0  0  0  0  0
  188.7310  177.3620  141.4240 C   0  0  0  0  0  2  0  0  0  0  0  0
  189.9910  176.5570  141.1890 C   0  0  0  0  0  2  0  0  0  0  0  0
  190.9020  177.3180  140.2480 C   0  0  0  0  0  2  0  0  0  0  0  0
  192.2220  177.4370  140.8440 N   0  0  0  0  0  2  0  0  0  0  0  0
  193.1890  177.4250  139.7570 C   0  0  0  0  0  2  0  0  0  0  0  0
  192.6700  176.5960  138.5900 C   0  0  0  0  0  2  0  0  0  0  0  0
  193.6380  176.6070  137.5050 N   0  0  0  0  0  2  0  0  0  0  0  0
  193.9070  174.4500  135.7560 O   0  0  0  0  0  0  0  0  0  0  0  0
  194.6100  174.4570  136.8010 C   0  0  0  0  0  0  0  0  0  0  0  0
  194.5090  175.5320  137.7330 N   0  0  0  0  0  2  0  0  0  0  0  0
  195.4910  173.4120  137.0480 O   0  0  0  0  0  1  0  0  0  0  0  0
  1  3  2  0  0  0  0
  2  3  1  0  0  0  0
  2  6  1  0  0  0  0
  3  4  1  0  0  0  0
  4  5  1  0  0  0  0
  4 12  1  0  0  0  0
  6 15  1  6  0  0  0
  6  5  1  0  0  0  0
  8  7  2  0  0  0  0
  9 12  2  0  0  0  0
  9 11  1  0  0  0  0
 10  7  1  0  0  0  0
 11 10  2  0  0  0  0
 12  8  1  0  0  0  0
 13 14  1  0  0  0  0
 14 11  1  0  0  0  0
 16 15  1  0  0  0  0
 17 16  1  0  0  0  0
 18 17  1  1  0  0  0
 19 20  1  0  0  0  0
 19 18  1  0  0  0  0
 20 18  1  0  0  0  0
 21 22  1  0  0  0  0
 21 19  1  0  0  0  0
 23 24  1  0  0  0  0
 23 22  1  0  0  0  0
 24 25  1  0  0  0  0
 26 25  1  0  0  0  0
 27 26  1  0  0  0  0
 27 29  1  0  0  0  0
 29 28  1  0  0  0  0
 30  1  1  0  0  0  0
 31 30  1  0  0  0  0
 32 33  1  0  0  0  0
 32 31  1  0  0  0  0
 34 33  1  0  0  0  0
 35 34  1  0  0  0  0
 36 39  1  0  0  0  0
 36 35  1  0  0  0  0
 37 38  2  0  0  0  0
 38 40  1  0  0  0  0
 38 39  1  0  0  0  0
M  END
>  <MODEL>
7

>  <REMARK>
 VINA RESULT:      -6.0      2.730      4.642
  Name = 
  22 active torsions:
  status: ('A' for Active; 'I' for Inactive)
    1  A    between atoms: O_1  and  C_8
    2  A    between atoms: O_1  and  C_22
    3  A    between atoms: C_2  and  O_4
    4  A    between atoms: C_2  and  C_8
    5  A    between atoms: N_3  and  C_26
    6  A    between atoms: N_3  and  N_27
    7  A    between atoms: O_4  and  C_19
    8  A    between atoms: C_5  and  C_20
    9  A    between atoms: C_7  and  C_40
   10  A    between atoms: C_16  and  N_17
   11  A    between atoms: C_16  and  C_26
   12  A    between atoms: N_17  and  C_31
   13  A    between atoms: C_18  and  C_35
   14  A    between atoms: C_19  and  C_24
   15  A    between atoms: C_20  and  C_28
   16  A    between atoms: C_22  and  N_32
   17  A    between atoms: C_25  and  C_37
   18  A    between atoms: C_25  and  C_38
   19  A    between atoms: C_28  and  C_31
   20  A    between atoms: N_29  and  C_39
   21  A    between atoms: N_32  and  N_33
   22  A    between atoms: C_37  and  C_40
                            x       y       z     vdW  Elec       q    Type
                         _______ _______ _______ _____ _____    ______ ____

>  <TORSDO>
F 22

$$$$
=
 OpenBabel10222421593D

 40 42  0  0  1  0  0  0  0  0999 V2000
  187.2410  177.6960  143.7980 C   0  0  0  0  0  3  0  0  0  0  0  0
  188.3090  177.1050  141.7480 O   0  0  0  0  0  0  0  0  0  0  0  0
  188.3220  177.4280  143.0700 C   0  0  0  0  0  0  0  0  0  0  0  0
  189.6600  177.4470  143.5190 N   0  0  0  0  0  0  0  0  0  0  0  0
  190.5020  177.2920  142.4570 O   0  0  0  0  0  0  0  0  0  0  0  0
  189.6630  176.8620  141.3830 C   0  0  2  0  0  3  0  0  0  0  0  0
  191.7780  176.3210  146.3890 C   0  0  0  0  0  3  0  0  0  0  0  0
  191.3150  176.5420  145.0890 C   0  0  0  0  0  3  0  0  0  0  0  0
  189.3820  177.6920  145.9730 C   0  0  0  0  0  3  0  0  0  0  0  0
  191.0440  176.7850  147.4820 C   0  0  0  0  0  3  0  0  0  0  0  0
  189.8450  177.4750  147.2740 C   0  0  0  0  0  0  0  0  0  0  0  0
  190.1130  177.2290  144.8670 C   0  0  0  0  0  0  0  0  0  0  0  0
  187.6360  177.9510  148.1000 N   0  0  0  0  0  1  0  0  0  0  0  0
  189.0500  177.9570  148.4360 C   0  0  0  0  0  2  0  0  0  0  0  0
  190.0160  177.6250  140.1140 C   0  0  0  0  0  2  0  0  0  0  0  0
  190.5480  176.6830  139.0470 C   0  0  0  0  0  2  0  0  0  0  0  0
  189.4020  176.0170  138.3090 C   0  0  0  0  0  2  0  0  0  0  0  0
  189.9330  175.2980  137.0870 C   0  0  2  0  0  3  0  0  0  0  0  0
  191.0690  176.0530  136.5380 N   0  0  0  0  0  0  0  0  0  0  0  0
  189.7420  176.1330  135.9090 C   0  0  0  0  0  2  0  0  0  0  0  0
  191.8190  175.1450  135.7790 N   0  0  0  0  0  2  0  0  0  0  0  0
  193.1510  175.7090  135.6280 C   0  0  0  0  0  2  0  0  0  0  0  0
  193.7190  175.9170  136.8860 O   0  0  0  0  0  0  0  0  0  0  0  0
  194.8500  175.0990  136.9020 C   0  0  0  0  0  2  0  0  0  0  0  0
  195.1440  174.6600  138.3230 C   0  0  0  0  0  2  0  0  0  0  0  0
  196.5000  174.8320  138.6010 O   0  0  0  0  0  0  0  0  0  0  0  0
  197.0920  173.6260  138.2280 C   0  0  0  0  0  2  0  0  0  0  0  0
  198.4220  175.0950  136.8970 O   0  0  0  0  0  1  0  0  0  0  0  0
  198.4470  173.8880  137.5970 C   0  0  0  0  0  2  0  0  0  0  0  0
  185.8780  177.6590  143.2030 C   0  0  0  0  0  2  0  0  0  0  0  0
  185.6160  178.9510  142.4600 C   0  0  0  0  0  2  0  0  0  0  0  0
  184.5730  178.7090  141.3880 C   0  0  0  0  0  2  0  0  0  0  0  0
  184.7690  179.6510  140.3000 N   0  0  0  0  0  2  0  0  0  0  0  0
  184.0290  179.1480  139.1530 C   0  0  0  0  0  2  0  0  0  0  0  0
  184.6250  177.8330  138.6700 C   0  0  0  0  0  2  0  0  0  0  0  0
  185.3890  178.0520  137.4520 N   0  0  0  0  0  2  0  0  0  0  0  0
  187.4560  178.6220  135.6680 O   0  0  0  0  0  0  0  0  0  0  0  0
  187.6260  178.9080  136.8830 C   0  0  0  0  0  0  0  0  0  0  0  0
  186.6050  178.6320  137.8400 N   0  0  0  0  0  2  0  0  0  0  0  0
  188.8150  179.4950  137.2950 O   0  0  0  0  0  1  0  0  0  0  0  0
  2  3  1  0  0  0  0
  3  4  1  0  0  0  0
  3  1  2  0  0  0  0
  4 12  1  0  0  0  0
  5  4  1  0  0  0  0
  6 15  1  6  0  0  0
  6  2  1  0  0  0  0
  6  5  1  0  0  0  0
  7 10  1  0  0  0  0
  8  7  2  0  0  0  0
  9 11  1  0  0  0  0
 11 10  2  0  0  0  0
 11 14  1  0  0  0  0
 12  8  1  0  0  0  0
 12  9  2  0  0  0  0
 13 14  1  0  0  0  0
 16 15  1  0  0  0  0
 17 16  1  0  0  0  0
 18 17  1  1  0  0  0
 19 18  1  0  0  0  0
 20 19  1  0  0  0  0
 20 18  1  0  0  0  0
 21 19  1  0  0  0  0
 22 21  1  0  0  0  0
 22 23  1  0  0  0  0
 23 24  1  0  0  0  0
 24 25  1  0  0  0  0
 25 26  1  0  0  0  0
 27 26  1  0  0  0  0
 28 29  1  0  0  0  0
 29 27  1  0  0  0  0
 30  1  1  0  0  0  0
 31 30  1  0  0  0  0
 32 31  1  0  0  0  0
 33 32  1  0  0  0  0
 34 33  1  0  0  0  0
 35 34  1  0  0  0  0
 36 39  1  0  0  0  0
 36 35  1  0  0  0  0
 37 38  2  0  0  0  0
 38 40  1  0  0  0  0
 38 39  1  0  0  0  0
M  END
>  <MODEL>
8

>  <REMARK>
 VINA RESULT:      -5.9      3.820      7.596
  Name = 
  22 active torsions:
  status: ('A' for Active; 'I' for Inactive)
    1  A    between atoms: O_1  and  C_8
    2  A    between atoms: O_1  and  C_22
    3  A    between atoms: C_2  and  O_4
    4  A    between atoms: C_2  and  C_8
    5  A    between atoms: N_3  and  C_26
    6  A    between atoms: N_3  and  N_27
    7  A    between atoms: O_4  and  C_19
    8  A    between atoms: C_5  and  C_20
    9  A    between atoms: C_7  and  C_40
   10  A    between atoms: C_16  and  N_17
   11  A    between atoms: C_16  and  C_26
   12  A    between atoms: N_17  and  C_31
   13  A    between atoms: C_18  and  C_35
   14  A    between atoms: C_19  and  C_24
   15  A    between atoms: C_20  and  C_28
   16  A    between atoms: C_22  and  N_32
   17  A    between atoms: C_25  and  C_37
   18  A    between atoms: C_25  and  C_38
   19  A    between atoms: C_28  and  C_31
   20  A    between atoms: N_29  and  C_39
   21  A    between atoms: N_32  and  N_33
   22  A    between atoms: C_37  and  C_40
                            x       y       z     vdW  Elec       q    Type
                         _______ _______ _______ _____ _____    ______ ____

>  <TORSDO>
F 22

$$$$
=
 OpenBabel10222421593D

 40 42  0  0  1  0  0  0  0  0999 V2000
  190.9320  176.8160  138.3710 C   0  0  0  0  0  3  0  0  0  0  0  0
  190.8840  176.8080  140.7570 O   0  0  0  0  0  0  0  0  0  0  0  0
  190.3500  177.0870  139.5370 C   0  0  0  0  0  0  0  0  0  0  0  0
  189.1010  177.7180  139.7230 N   0  0  0  0  0  0  0  0  0  0  0  0
  188.9130  177.9820  141.0480 O   0  0  0  0  0  0  0  0  0  0  0  0
  189.9210  177.2230  141.7190 C   0  0  2  0  0  3  0  0  0  0  0  0
  187.1560  177.3160  136.5520 C   0  0  0  0  0  3  0  0  0  0  0  0
  188.2120  177.3260  137.4690 C   0  0  0  0  0  3  0  0  0  0  0  0
  186.7070  178.1060  139.1930 C   0  0  0  0  0  3  0  0  0  0  0  0
  185.8760  177.7010  136.9550 C   0  0  0  0  0  3  0  0  0  0  0  0
  185.6500  178.0930  138.2780 C   0  0  0  0  0  0  0  0  0  0  0  0
  187.9990  177.7210  138.7980 C   0  0  0  0  0  0  0  0  0  0  0  0
  184.3270  179.9070  139.1430 N   0  0  0  0  0  1  0  0  0  0  0  0
  184.2910  178.5210  138.7090 C   0  0  0  0  0  2  0  0  0  0  0  0
  190.5780  178.0750  142.7950 C   0  0  0  0  0  2  0  0  0  0  0  0
  191.3860  177.2120  143.7500 C   0  0  0  0  0  2  0  0  0  0  0  0
  191.2430  177.7190  145.1730 C   0  0  0  0  0  2  0  0  0  0  0  0
  190.1920  176.9060  145.8990 C   0  0  2  0  0  3  0  0  0  0  0  0
  189.7800  177.6240  147.1140 N   0  0  0  0  0  0  0  0  0  0  0  0
  190.7090  176.4870  147.1950 C   0  0  0  0  0  2  0  0  0  0  0  0
  188.5130  177.1320  147.4540 N   0  0  0  0  0  2  0  0  0  0  0  0
  187.5580  178.2020  147.2150 C   0  0  0  0  0  2  0  0  0  0  0  0
  186.5080  177.7290  146.4270 O   0  0  0  0  0  0  0  0  0  0  0  0
  185.3720  178.3590  146.9350 C   0  0  0  0  0  2  0  0  0  0  0  0
  184.4670  178.7800  145.7940 C   0  0  0  0  0  2  0  0  0  0  0  0
  185.2370  179.1580  144.6930 O   0  0  0  0  0  0  0  0  0  0  0  0
  184.3070  179.5390  143.7270 C   0  0  0  0  0  2  0  0  0  0  0  0
  182.9530  178.6210  141.9870 O   0  0  0  0  0  1  0  0  0  0  0  0
  184.1310  178.4260  142.7110 C   0  0  0  0  0  2  0  0  0  0  0  0
  192.2650  176.1580  138.3060 C   0  0  0  0  0  2  0  0  0  0  0  0
  192.1840  174.9420  137.4090 C   0  0  0  0  0  2  0  0  0  0  0  0
  193.3230  174.9800  136.4110 C   0  0  0  0  0  2  0  0  0  0  0  0
  194.4140  175.7730  136.9520 N   0  0  0  0  0  2  0  0  0  0  0  0
  195.5540  174.8860  137.1150 C   0  0  0  0  0  2  0  0  0  0  0  0
  196.7460  175.3960  136.3160 C   0  0  0  0  0  2  0  0  0  0  0  0
  197.9710  175.2000  137.0720 N   0  0  0  0  0  2  0  0  0  0  0  0
  199.7810  175.3450  139.1920 O   0  0  0  0  0  0  0  0  0  0  0  0
  198.5640  175.1590  139.4620 C   0  0  0  0  0  0  0  0  0  0  0  0
  197.5970  175.0710  138.4170 N   0  0  0  0  0  2  0  0  0  0  0  0
  198.1610  175.0400  140.7850 O   0  0  0  0  0  1  0  0  0  0  0  0
  1  3  2  0  0  0  0
  2  6  1  0  0  0  0
  3  4  1  0  0  0  0
  3  2  1  0  0  0  0
  4  5  1  0  0  0  0
  5  6  1  0  0  0  0
  6 15  1  1  0  0  0
  7 10  2  0  0  0  0
  7  8  1  0  0  0  0
  8 12  2  0  0  0  0
 10 11  1  0  0  0  0
 11 14  1  0  0  0  0
 11  9  2  0  0  0  0
 12  9  1  0  0  0  0
 12  4  1  0  0  0  0
 14 13  1  0  0  0  0
 15 16  1  0  0  0  0
 16 17  1  0  0  0  0
 18 17  1  6  0  0  0
 18 19  1  0  0  0  0
 18 20  1  0  0  0  0
 19 20  1  0  0  0  0
 19 21  1  0  0  0  0
 22 21  1  0  0  0  0
 23 24  1  0  0  0  0
 23 22  1  0  0  0  0
 25 24  1  0  0  0  0
 26 25  1  0  0  0  0
 27 26  1  0  0  0  0
 28 29  1  0  0  0  0
 29 27  1  0  0  0  0
 30  1  1  0  0  0  0
 31 30  1  0  0  0  0
 32 33  1  0  0  0  0
 32 31  1  0  0  0  0
 33 34  1  0  0  0  0
 35 36  1  0  0  0  0
 35 34  1  0  0  0  0
 36 39  1  0  0  0  0
 37 38  2  0  0  0  0
 38 40  1  0  0  0  0
 39 38  1  0  0  0  0
M  END
>  <MODEL>
9

>  <REMARK>
 VINA RESULT:      -5.9      4.108      8.779
  Name = 
  22 active torsions:
  status: ('A' for Active; 'I' for Inactive)
    1  A    between atoms: O_1  and  C_8
    2  A    between atoms: O_1  and  C_22
    3  A    between atoms: C_2  and  O_4
    4  A    between atoms: C_2  and  C_8
    5  A    between atoms: N_3  and  C_26
    6  A    between atoms: N_3  and  N_27
    7  A    between atoms: O_4  and  C_19
    8  A    between atoms: C_5  and  C_20
    9  A    between atoms: C_7  and  C_40
   10  A    between atoms: C_16  and  N_17
   11  A    between atoms: C_16  and  C_26
   12  A    between atoms: N_17  and  C_31
   13  A    between atoms: C_18  and  C_35
   14  A    between atoms: C_19  and  C_24
   15  A    between atoms: C_20  and  C_28
   16  A    between atoms: C_22  and  N_32
   17  A    between atoms: C_25  and  C_37
   18  A    between atoms: C_25  and  C_38
   19  A    between atoms: C_28  and  C_31
   20  A    between atoms: N_29  and  C_39
   21  A    between atoms: N_32  and  N_33
   22  A    between atoms: C_37  and  C_40
                            x       y       z     vdW  Elec       q    Type
                         _______ _______ _______ _____ _____    ______ ____

>  <TORSDO>
F 22

$$$$
