=
 OpenBabel10232409343D

 33 37  0  0  1  0  0  0  0  0999 V2000
  184.4610  178.4860  141.2350 C   0  0  0  0  0  3  0  0  0  0  0  0
  186.2450  178.3620  139.5660 C   0  0  0  0  0  0  0  0  0  0  0  0
  184.8870  178.5450  139.8970 C   0  0  0  0  0  3  0  0  0  0  0  0
  185.2520  178.1140  143.7010 C   0  0  2  0  0  3  0  0  0  0  0  0
  188.5340  177.9190  140.2760 O   0  0  0  0  0  1  0  0  0  0  0  0
  186.6200  177.8360  144.1530 N   0  0  0  0  0  0  0  0  0  0  0  0
  188.8400  177.5610  143.2480 N   0  0  0  0  0  2  0  0  0  0  0  0
  187.1910  178.1130  140.5790 C   0  0  0  0  0  0  0  0  0  0  0  0
  186.7380  178.0630  141.8990 C   0  0  0  0  0  0  0  0  0  0  0  0
  185.4200  178.2510  142.2200 C   0  0  0  0  0  0  0  0  0  0  0  0
  187.4320  177.8110  143.1420 C   0  0  0  0  0  0  0  0  0  0  0  0
  186.6910  175.0350  136.2540 C   0  0  0  0  0  3  0  0  0  0  0  0
  186.6490  178.4270  138.2010 N   0  0  0  0  0  0  0  0  0  0  0  0
  186.9390  177.8010  136.8840 C   0  0  1  0  0  0  0  0  0  0  0  0
  188.3320  176.0560  134.3590 Cl  0  0  0  0  0  0  0  0  0  0  0  0
  185.6680  177.2890  136.2080 C   0  0  0  0  0  2  0  0  0  0  0  0
  185.5850  175.7910  136.3210 C   0  0  0  0  0  3  0  0  0  0  0  0
  188.0500  175.6640  136.0760 C   0  0  1  0  0  3  0  0  0  0  0  0
  187.1080  179.1640  136.9820 C   0  0  0  0  0  2  0  0  0  0  0  0
  188.1940  176.9230  136.9400 C   0  0  0  0  0  2  0  0  0  0  0  0
  189.0480  177.5910  145.7170 C   0  0  0  0  0  3  0  0  0  0  0  0
  191.0970  176.8090  146.7780 C   0  0  0  0  0  0  0  0  0  0  0  0
  189.7880  177.3460  146.8780 C   0  0  0  0  0  0  0  0  0  0  0  0
  190.8670  176.7890  144.3530 C   0  0  0  0  0  3  0  0  0  0  0  0
  189.5800  177.3160  144.4510 C   0  0  0  0  0  0  0  0  0  0  0  0
  189.1410  177.6690  148.1820 C   0  0  0  0  0  1  0  0  0  0  0  0
  191.6170  176.5380  145.5050 C   0  0  0  0  0  3  0  0  0  0  0  0
  191.9560  176.5170  147.9520 C   0  0  0  0  0  0  0  0  0  0  0  0
  192.3340  177.5490  148.8060 O   0  0  0  0  0  1  0  0  0  0  0  0
  192.3570  175.3490  148.1990 O   0  0  0  0  0  0  0  0  0  0  0  0
  184.7730  179.4230  144.3180 C   0  0  0  0  0  2  0  0  0  0  0  0
  184.4340  178.7880  146.4590 O   0  0  0  0  0  1  0  0  0  0  0  0
  183.7710  179.1660  145.3410 N   0  0  0  0  0  2  0  0  0  0  0  0
  1 10  1  0  0  0  0
  2  3  1  0  0  0  0
  2  8  2  0  0  0  0
  3  1  2  0  0  0  0
  4  6  1  0  0  0  0
  4 31  1  1  0  0  0
  5  8  1  0  0  0  0
  7 25  1  0  0  0  0
  8  9  1  0  0  0  0
  9 10  2  0  0  0  0
  9 11  1  0  0  0  0
 10  4  1  0  0  0  0
 11  7  1  0  0  0  0
 11  6  2  0  0  0  0
 12 17  2  0  0  0  0
 13  2  1  0  0  0  0
 14 16  1  6  0  0  0
 14 20  1  0  0  0  0
 14 19  1  0  0  0  0
 14 13  1  0  0  0  0
 16 17  1  0  0  0  0
 18 15  1  6  0  0  0
 18 12  1  0  0  0  0
 18 20  1  0  0  0  0
 19 13  1  0  0  0  0
 21 23  1  0  0  0  0
 22 23  2  0  0  0  0
 22 28  1  0  0  0  0
 23 26  1  0  0  0  0
 24 25  1  0  0  0  0
 24 27  2  0  0  0  0
 25 21  2  0  0  0  0
 27 22  1  0  0  0  0
 28 30  2  0  0  0  0
 28 29  1  0  0  0  0
 31 33  1  0  0  0  0
 33 32  1  0  0  0  0
M  END
>  <MODEL>
1

>  <REMARK>
 VINA RESULT:      -8.9      0.000      0.000
  Name = 
  5 active torsions:
  status: ('A' for Active; 'I' for Inactive)
    1  A    between atoms: C_1  and  C_8
    2  A    between atoms: N_3  and  C_11
    3  A    between atoms: N_13  and  C_18
    4  A    between atoms: C_18  and  C_19
    5  A    between atoms: C_22  and  N_25
                            x       y       z     vdW  Elec       q    Type
                         _______ _______ _______ _____ _____    ______ ____

>  <TORSDO>
F 5

$$$$
=
 OpenBabel10232409343D

 33 37  0  0  1  0  0  0  0  0999 V2000
  188.1520  178.1950  138.0790 C   0  0  0  0  0  3  0  0  0  0  0  0
  185.9700  178.5680  139.1180 C   0  0  0  0  0  0  0  0  0  0  0  0
  186.7860  178.5070  137.9710 C   0  0  0  0  0  3  0  0  0  0  0  0
  190.0720  177.6150  139.7600 C   0  0  2  0  0  3  0  0  0  0  0  0
  185.7380  178.3860  141.5380 O   0  0  0  0  0  1  0  0  0  0  0  0
  189.9600  177.5100  141.2190 N   0  0  0  0  0  0  0  0  0  0  0  0
  188.3000  177.7060  142.9600 N   0  0  0  0  0  2  0  0  0  0  0  0
  186.5210  178.3210  140.3900 C   0  0  0  0  0  0  0  0  0  0  0  0
  187.8800  178.0110  140.4660 C   0  0  0  0  0  0  0  0  0  0  0  0
  188.6700  177.9420  139.3490 C   0  0  0  0  0  0  0  0  0  0  0  0
  188.7390  177.7320  141.5940 C   0  0  0  0  0  0  0  0  0  0  0  0
  182.1620  175.8560  138.5050 C   0  0  0  0  0  3  0  0  0  0  0  0
  184.5880  178.8860  138.9790 N   0  0  0  0  0  0  0  0  0  0  0  0
  183.1640  178.5060  138.7850 C   0  0  1  0  0  0  0  0  0  0  0  0
  180.2340  177.4590  137.4860 Cl  0  0  0  0  0  0  0  0  0  0  0  0
  182.6000  177.7760  140.0040 C   0  0  0  0  0  2  0  0  0  0  0  0
  182.4950  176.3010  139.7250 C   0  0  0  0  0  3  0  0  0  0  0  0
  181.8950  176.8160  137.3740 C   0  0  1  0  0  3  0  0  0  0  0  0
  183.4430  179.8480  138.9140 C   0  0  0  0  0  2  0  0  0  0  0  0
  182.9110  177.9650  137.3730 C   0  0  0  0  0  2  0  0  0  0  0  0
  188.5830  177.4870  145.4120 C   0  0  0  0  0  3  0  0  0  0  0  0
  190.7480  176.8610  146.3390 C   0  0  0  0  0  0  0  0  0  0  0  0
  189.3860  177.2110  146.5240 C   0  0  0  0  0  0  0  0  0  0  0  0
  190.4430  177.0810  143.9320 C   0  0  0  0  0  3  0  0  0  0  0  0
  189.1040  177.4250  144.1130 C   0  0  0  0  0  0  0  0  0  0  0  0
  188.7460  177.3010  147.8680 C   0  0  0  0  0  1  0  0  0  0  0  0
  191.2550  176.8030  145.0330 C   0  0  0  0  0  3  0  0  0  0  0  0
  191.6740  176.5530  147.4560 C   0  0  0  0  0  0  0  0  0  0  0  0
  192.1410  175.2530  147.6270 O   0  0  0  0  0  0  0  0  0  0  0  0
  192.0520  177.4430  148.2620 O   0  0  0  0  0  1  0  0  0  0  0  0
  190.5080  176.2710  139.1890 C   0  0  0  0  0  2  0  0  0  0  0  0
  192.6850  176.8350  138.9840 O   0  0  0  0  0  1  0  0  0  0  0  0
  191.6100  176.4490  138.2560 N   0  0  0  0  0  2  0  0  0  0  0  0
  1 10  1  0  0  0  0
  2  8  2  0  0  0  0
  3  1  2  0  0  0  0
  3  2  1  0  0  0  0
  4 31  1  6  0  0  0
  4  6  1  0  0  0  0
  6 11  2  0  0  0  0
  7 25  1  0  0  0  0
  8  9  1  0  0  0  0
  8  5  1  0  0  0  0
  9 11  1  0  0  0  0
 10  4  1  0  0  0  0
 10  9  2  0  0  0  0
 11  7  1  0  0  0  0
 12 17  2  0  0  0  0
 13  2  1  0  0  0  0
 14 20  1  6  0  0  0
 14 19  1  0  0  0  0
 14 13  1  0  0  0  0
 14 16  1  0  0  0  0
 17 16  1  0  0  0  0
 18 15  1  1  0  0  0
 18 12  1  0  0  0  0
 19 13  1  0  0  0  0
 20 18  1  0  0  0  0
 21 23  1  0  0  0  0
 22 23  2  0  0  0  0
 22 28  1  0  0  0  0
 23 26  1  0  0  0  0
 24 25  1  0  0  0  0
 24 27  2  0  0  0  0
 25 21  2  0  0  0  0
 27 22  1  0  0  0  0
 28 29  2  0  0  0  0
 28 30  1  0  0  0  0
 33 32  1  0  0  0  0
 33 31  1  0  0  0  0
M  END
>  <MODEL>
2

>  <REMARK>
 VINA RESULT:      -8.7      2.775      4.662
  Name = 
  5 active torsions:
  status: ('A' for Active; 'I' for Inactive)
    1  A    between atoms: C_1  and  C_8
    2  A    between atoms: N_3  and  C_11
    3  A    between atoms: N_13  and  C_18
    4  A    between atoms: C_18  and  C_19
    5  A    between atoms: C_22  and  N_25
                            x       y       z     vdW  Elec       q    Type
                         _______ _______ _______ _____ _____    ______ ____

>  <TORSDO>
F 5

$$$$
=
 OpenBabel10232409343D

 33 37  0  0  1  0  0  0  0  0999 V2000
  191.4820  177.4890  142.8400 C   0  0  0  0  0  3  0  0  0  0  0  0
  191.0560  177.1270  140.4590 C   0  0  0  0  0  0  0  0  0  0  0  0
  191.9490  177.1960  141.5480 C   0  0  0  0  0  3  0  0  0  0  0  0
  189.3500  178.0490  144.2520 C   0  0  2  0  0  3  0  0  0  0  0  0
  188.7840  177.3060  139.5970 O   0  0  0  0  0  1  0  0  0  0  0  0
  187.9750  178.1730  143.7560 N   0  0  0  0  0  0  0  0  0  0  0  0
  186.7360  177.9900  141.6930 N   0  0  0  0  0  2  0  0  0  0  0  0
  189.6820  177.3580  140.6580 C   0  0  0  0  0  0  0  0  0  0  0  0
  189.2470  177.6450  141.9530 C   0  0  0  0  0  0  0  0  0  0  0  0
  190.1130  177.7000  143.0120 C   0  0  0  0  0  0  0  0  0  0  0  0
  187.9350  177.9450  142.4800 C   0  0  0  0  0  0  0  0  0  0  0  0
  189.2020  174.7340  136.8430 C   0  0  0  0  0  3  0  0  0  0  0  0
  191.5580  176.8280  139.1600 N   0  0  0  0  0  0  0  0  0  0  0  0
  191.4380  176.2050  137.8140 C   0  0  1  0  0  0  0  0  0  0  0  0
  191.2740  174.0140  135.2580 Cl  0  0  0  0  0  0  0  0  0  0  0  0
  190.3850  176.9050  136.9570 C   0  0  0  0  0  2  0  0  0  0  0  0
  189.1340  176.0730  136.8850 C   0  0  0  0  0  3  0  0  0  0  0  0
  190.5310  174.0240  136.8800 C   0  0  1  0  0  3  0  0  0  0  0  0
  192.6010  176.8900  138.0870 C   0  0  0  0  0  2  0  0  0  0  0  0
  191.4790  174.6750  137.8950 C   0  0  0  0  0  2  0  0  0  0  0  0
  185.1340  178.4760  143.5200 C   0  0  0  0  0  3  0  0  0  0  0  0
  182.7760  178.8220  143.0150 C   0  0  0  0  0  0  0  0  0  0  0  0
  183.8340  178.7490  143.9570 C   0  0  0  0  0  0  0  0  0  0  0  0
  184.3710  178.3440  141.2370 C   0  0  0  0  0  3  0  0  0  0  0  0
  185.4120  178.2720  142.1630 C   0  0  0  0  0  0  0  0  0  0  0  0
  183.6330  178.9520  145.4200 C   0  0  0  0  0  1  0  0  0  0  0  0
  183.0680  178.6160  141.6590 C   0  0  0  0  0  3  0  0  0  0  0  0
  181.3680  179.1040  143.3840 C   0  0  0  0  0  0  0  0  0  0  0  0
  180.7430  180.2490  142.9000 O   0  0  0  0  0  0  0  0  0  0  0  0
  180.7160  178.3290  144.1320 O   0  0  0  0  0  1  0  0  0  0  0  0
  189.4200  176.9180  145.2710 C   0  0  0  0  0  2  0  0  0  0  0  0
  191.4140  176.5390  146.2630 O   0  0  0  0  0  1  0  0  0  0  0  0
  190.2890  177.2840  146.3780 N   0  0  0  0  0  2  0  0  0  0  0  0
  1 10  1  0  0  0  0
  2  8  2  0  0  0  0
  2  3  1  0  0  0  0
  3  1  2  0  0  0  0
  4 31  1  1  0  0  0
  5  8  1  0  0  0  0
  6  4  1  0  0  0  0
  7 25  1  0  0  0  0
  7 11  1  0  0  0  0
  8  9  1  0  0  0  0
  9 11  1  0  0  0  0
  9 10  2  0  0  0  0
 10  4  1  0  0  0  0
 11  6  2  0  0  0  0
 12 18  1  0  0  0  0
 12 17  2  0  0  0  0
 13  2  1  0  0  0  0
 14 16  1  6  0  0  0
 14 20  1  0  0  0  0
 14 19  1  0  0  0  0
 14 13  1  0  0  0  0
 17 16  1  0  0  0  0
 18 15  1  6  0  0  0
 18 20  1  0  0  0  0
 19 13  1  0  0  0  0
 21 23  1  0  0  0  0
 22 28  1  0  0  0  0
 22 23  2  0  0  0  0
 23 26  1  0  0  0  0
 24 27  2  0  0  0  0
 24 25  1  0  0  0  0
 25 21  2  0  0  0  0
 27 22  1  0  0  0  0
 28 30  1  0  0  0  0
 29 28  2  0  0  0  0
 31 33  1  0  0  0  0
 32 33  1  0  0  0  0
M  END
>  <MODEL>
3

>  <REMARK>
 VINA RESULT:      -8.1      2.746      6.367
  Name = 
  5 active torsions:
  status: ('A' for Active; 'I' for Inactive)
    1  A    between atoms: C_1  and  C_8
    2  A    between atoms: N_3  and  C_11
    3  A    between atoms: N_13  and  C_18
    4  A    between atoms: C_18  and  C_19
    5  A    between atoms: C_22  and  N_25
                            x       y       z     vdW  Elec       q    Type
                         _______ _______ _______ _____ _____    ______ ____

>  <TORSDO>
F 5

$$$$
=
 OpenBabel10232409343D

 33 37  0  0  1  0  0  0  0  0999 V2000
  184.2030  178.9970  145.6070 C   0  0  0  0  0  3  0  0  0  0  0  0
  186.3700  178.1150  144.8950 C   0  0  0  0  0  0  0  0  0  0  0  0
  185.5160  178.5970  145.9080 C   0  0  0  0  0  3  0  0  0  0  0  0
  182.4530  179.2650  143.6800 C   0  0  2  0  0  3  0  0  0  0  0  0
  186.7410  177.5720  142.5480 O   0  0  0  0  0  1  0  0  0  0  0  0
  182.6550  178.9570  142.2600 N   0  0  0  0  0  0  0  0  0  0  0  0
  184.3620  178.1040  140.7840 N   0  0  0  0  0  2  0  0  0  0  0  0
  185.9130  178.0350  143.5650 C   0  0  0  0  0  0  0  0  0  0  0  0
  184.6030  178.4370  143.2980 C   0  0  0  0  0  0  0  0  0  0  0  0
  183.7710  178.8950  144.2850 C   0  0  0  0  0  0  0  0  0  0  0  0
  183.8520  178.4970  142.0650 C   0  0  0  0  0  0  0  0  0  0  0  0
  190.2530  177.5930  142.2700 C   0  0  0  0  0  3  0  0  0  0  0  0
  187.6970  177.7160  145.2280 N   0  0  0  0  0  0  0  0  0  0  0  0
  189.1080  177.4140  144.8710 C   0  0  1  0  0  0  0  0  0  0  0  0
  191.9160  175.9840  143.6720 Cl  0  0  0  0  0  0  0  0  0  0  0  0
  189.8730  178.6730  144.4640 C   0  0  0  0  0  2  0  0  0  0  0  0
  190.0460  178.7180  142.9710 C   0  0  0  0  0  3  0  0  0  0  0  0
  190.3050  176.2520  142.9540 C   0  0  1  0  0  3  0  0  0  0  0  0
  188.7530  177.2790  146.1940 C   0  0  0  0  0  2  0  0  0  0  0  0
  189.2170  176.1370  144.0300 C   0  0  0  0  0  2  0  0  0  0  0  0
  182.8900  179.2360  139.1430 C   0  0  0  0  0  3  0  0  0  0  0  0
  182.3020  178.1210  137.0580 C   0  0  0  0  0  0  0  0  0  0  0  0
  182.2110  179.2430  137.9200 C   0  0  0  0  0  0  0  0  0  0  0  0
  183.7490  177.0300  138.6870 C   0  0  0  0  0  3  0  0  0  0  0  0
  183.6600  178.1340  139.5350 C   0  0  0  0  0  0  0  0  0  0  0  0
  181.4160  180.4590  137.5870 C   0  0  0  0  0  1  0  0  0  0  0  0
  183.0770  177.0240  137.4630 C   0  0  0  0  0  3  0  0  0  0  0  0
  181.6190  178.0370  135.7450 C   0  0  0  0  0  0  0  0  0  0  0  0
  180.2720  177.6950  135.6870 O   0  0  0  0  0  1  0  0  0  0  0  0
  182.2310  178.2690  134.6690 O   0  0  0  0  0  0  0  0  0  0  0  0
  181.3340  178.3900  144.2340 C   0  0  0  0  0  2  0  0  0  0  0  0
  179.9820  180.0000  143.4090 O   0  0  0  0  0  1  0  0  0  0  0  0
  180.0870  178.6560  143.5340 N   0  0  0  0  0  2  0  0  0  0  0  0
  1  3  1  0  0  0  0
  2 13  1  0  0  0  0
  2  3  2  0  0  0  0
  4 31  1  1  0  0  0
  4 10  1  0  0  0  0
  5  8  1  0  0  0  0
  6  4  1  0  0  0  0
  7 11  1  0  0  0  0
  8  2  1  0  0  0  0
  9  8  2  0  0  0  0
  9 10  1  0  0  0  0
 10  1  2  0  0  0  0
 11  6  2  0  0  0  0
 11  9  1  0  0  0  0
 12 18  1  0  0  0  0
 12 17  2  0  0  0  0
 13 19  1  0  0  0  0
 14 20  1  6  0  0  0
 14 13  1  0  0  0  0
 14 19  1  0  0  0  0
 16 14  1  0  0  0  0
 17 16  1  0  0  0  0
 18 15  1  1  0  0  0
 18 20  1  0  0  0  0
 21 25  1  0  0  0  0
 22 27  2  0  0  0  0
 22 23  1  0  0  0  0
 23 21  2  0  0  0  0
 24 25  2  0  0  0  0
 25  7  1  0  0  0  0
 26 23  1  0  0  0  0
 27 24  1  0  0  0  0
 28 22  1  0  0  0  0
 29 28  1  0  0  0  0
 30 28  2  0  0  0  0
 32 33  1  0  0  0  0
 33 31  1  0  0  0  0
M  END
>  <MODEL>
4

>  <REMARK>
 VINA RESULT:      -8.1      3.832      8.891
  Name = 
  5 active torsions:
  status: ('A' for Active; 'I' for Inactive)
    1  A    between atoms: C_1  and  C_8
    2  A    between atoms: N_3  and  C_11
    3  A    between atoms: N_13  and  C_18
    4  A    between atoms: C_18  and  C_19
    5  A    between atoms: C_22  and  N_25
                            x       y       z     vdW  Elec       q    Type
                         _______ _______ _______ _____ _____    ______ ____

>  <TORSDO>
F 5

$$$$
=
 OpenBabel10232409343D

 33 37  0  0  1  0  0  0  0  0999 V2000
  189.4980  176.8860  137.3010 C   0  0  0  0  0  3  0  0  0  0  0  0
  191.9050  176.5120  137.5170 C   0  0  0  0  0  0  0  0  0  0  0  0
  190.7520  176.6440  136.7160 C   0  0  0  0  0  3  0  0  0  0  0  0
  188.2430  177.2240  139.5730 C   0  0  2  0  0  3  0  0  0  0  0  0
  192.9290  176.4780  139.7280 O   0  0  0  0  0  1  0  0  0  0  0  0
  188.8340  177.1980  140.9150 N   0  0  0  0  0  0  0  0  0  0  0  0
  190.9800  176.9130  141.9790 N   0  0  0  0  0  2  0  0  0  0  0  0
  191.8070  176.6160  138.9170 C   0  0  0  0  0  0  0  0  0  0  0  0
  190.5480  176.8580  139.4700 C   0  0  0  0  0  0  0  0  0  0  0  0
  189.4300  176.9980  138.6900 C   0  0  0  0  0  0  0  0  0  0  0  0
  190.1120  176.9950  140.8410 C   0  0  0  0  0  0  0  0  0  0  0  0
  194.2440  172.5190  136.6060 C   0  0  0  0  0  3  0  0  0  0  0  0
  193.1640  176.2680  136.8970 N   0  0  0  0  0  0  0  0  0  0  0  0
  194.2420  175.3610  136.4190 C   0  0  1  0  0  0  0  0  0  0  0  0
  196.8350  173.2130  136.2490 Cl  0  0  0  0  0  0  0  0  0  0  0  0
  193.7900  174.5220  135.2240 C   0  0  0  0  0  2  0  0  0  0  0  0
  193.5020  173.1100  135.6570 C   0  0  0  0  0  3  0  0  0  0  0  0
  195.3760  173.2540  137.2750 C   0  0  1  0  0  3  0  0  0  0  0  0
  194.4250  176.7100  136.2230 C   0  0  0  0  0  2  0  0  0  0  0  0
  194.9860  174.7050  137.5880 C   0  0  0  0  0  2  0  0  0  0  0  0
  191.4040  176.5570  144.3950 C   0  0  0  0  0  3  0  0  0  0  0  0
  189.8000  177.3550  146.0450 C   0  0  0  0  0  0  0  0  0  0  0  0
  191.0180  176.7010  145.7310 C   0  0  0  0  0  0  0  0  0  0  0  0
  189.4070  177.6940  143.6650 C   0  0  0  0  0  3  0  0  0  0  0  0
  190.6050  177.0500  143.3560 C   0  0  0  0  0  0  0  0  0  0  0  0
  191.9310  176.1450  146.7710 C   0  0  0  0  0  1  0  0  0  0  0  0
  189.0100  177.8440  144.9950 C   0  0  0  0  0  3  0  0  0  0  0  0
  189.3080  177.5540  147.4300 C   0  0  0  0  0  0  0  0  0  0  0  0
  188.2570  176.7780  147.9080 O   0  0  0  0  0  0  0  0  0  0  0  0
  189.8210  178.4140  148.1930 O   0  0  0  0  0  1  0  0  0  0  0  0
  187.6280  178.5960  139.3180 C   0  0  0  0  0  2  0  0  0  0  0  0
  185.5150  179.1160  139.9190 O   0  0  0  0  0  1  0  0  0  0  0  0
  186.2230  178.4650  138.9660 N   0  0  0  0  0  2  0  0  0  0  0  0
  1 10  1  0  0  0  0
  2  8  2  0  0  0  0
  3  1  2  0  0  0  0
  3  2  1  0  0  0  0
  4 31  1  6  0  0  0
  4  6  1  0  0  0  0
  7 25  1  0  0  0  0
  8  9  1  0  0  0  0
  8  5  1  0  0  0  0
  9 11  1  0  0  0  0
 10  9  2  0  0  0  0
 10  4  1  0  0  0  0
 11  6  2  0  0  0  0
 11  7  1  0  0  0  0
 12 18  1  0  0  0  0
 13  2  1  0  0  0  0
 14 16  1  6  0  0  0
 14 13  1  0  0  0  0
 14 20  1  0  0  0  0
 16 17  1  0  0  0  0
 17 12  2  0  0  0  0
 18 15  1  6  0  0  0
 18 20  1  0  0  0  0
 19 14  1  0  0  0  0
 19 13  1  0  0  0  0
 21 23  1  0  0  0  0
 22 28  1  0  0  0  0
 23 22  2  0  0  0  0
 23 26  1  0  0  0  0
 24 27  2  0  0  0  0
 25 24  1  0  0  0  0
 25 21  2  0  0  0  0
 27 22  1  0  0  0  0
 28 29  2  0  0  0  0
 28 30  1  0  0  0  0
 33 31  1  0  0  0  0
 33 32  1  0  0  0  0
M  END
>  <MODEL>
5

>  <REMARK>
 VINA RESULT:      -7.9      4.230      5.707
  Name = 
  5 active torsions:
  status: ('A' for Active; 'I' for Inactive)
    1  A    between atoms: C_1  and  C_8
    2  A    between atoms: N_3  and  C_11
    3  A    between atoms: N_13  and  C_18
    4  A    between atoms: C_18  and  C_19
    5  A    between atoms: C_22  and  N_25
                            x       y       z     vdW  Elec       q    Type
                         _______ _______ _______ _____ _____    ______ ____

>  <TORSDO>
F 5

$$$$
=
 OpenBabel10232409343D

 33 37  0  0  1  0  0  0  0  0999 V2000
  190.8730  176.1870  135.6500 C   0  0  0  0  0  3  0  0  0  0  0  0
  193.2200  175.9190  136.2800 C   0  0  0  0  0  0  0  0  0  0  0  0
  192.2080  175.9240  135.2990 C   0  0  0  0  0  3  0  0  0  0  0  0
  189.2670  176.7300  137.6440 C   0  0  2  0  0  3  0  0  0  0  0  0
  193.8790  176.1620  138.6140 O   0  0  0  0  0  1  0  0  0  0  0  0
  189.6370  176.8710  139.0570 N   0  0  0  0  0  0  0  0  0  0  0  0
  191.5910  176.7750  140.4690 N   0  0  0  0  0  2  0  0  0  0  0  0
  192.8990  176.1720  137.6280 C   0  0  0  0  0  0  0  0  0  0  0  0
  191.5650  176.4320  137.9450 C   0  0  0  0  0  0  0  0  0  0  0  0
  190.5830  176.4480  136.9890 C   0  0  0  0  0  0  0  0  0  0  0  0
  190.9140  176.7030  139.2060 C   0  0  0  0  0  0  0  0  0  0  0  0
  195.8320  171.9980  136.4970 C   0  0  0  0  0  3  0  0  0  0  0  0
  194.5660  175.6500  135.8970 N   0  0  0  0  0  0  0  0  0  0  0  0
  195.7380  174.7460  135.7570 C   0  0  1  0  0  0  0  0  0  0  0  0
  198.4160  172.7900  136.3650 Cl  0  0  0  0  0  0  0  0  0  0  0  0
  195.5020  173.6680  134.7000 C   0  0  0  0  0  2  0  0  0  0  0  0
  195.2130  172.3470  135.3590 C   0  0  0  0  0  3  0  0  0  0  0  0
  196.8220  172.9230  137.1560 C   0  0  1  0  0  3  0  0  0  0  0  0
  195.8920  176.0440  135.3260 C   0  0  0  0  0  2  0  0  0  0  0  0
  196.3310  174.3750  137.1220 C   0  0  0  0  0  2  0  0  0  0  0  0
  191.3490  178.1780  142.4970 C   0  0  0  0  0  3  0  0  0  0  0  0
  189.7920  177.5250  144.2540 C   0  0  0  0  0  0  0  0  0  0  0  0
  190.7600  178.4260  143.7410 C   0  0  0  0  0  0  0  0  0  0  0  0
  190.0480  176.1640  142.2490 C   0  0  0  0  0  3  0  0  0  0  0  0
  190.9990  177.0500  141.7450 C   0  0  0  0  0  0  0  0  0  0  0  0
  191.1930  179.6520  144.4710 C   0  0  0  0  0  1  0  0  0  0  0  0
  189.4510  176.3990  143.4900 C   0  0  0  0  0  3  0  0  0  0  0  0
  189.1150  177.7040  145.5610 C   0  0  0  0  0  0  0  0  0  0  0  0
  187.7670  178.0460  145.6000 O   0  0  0  0  0  0  0  0  0  0  0  0
  189.7340  177.5550  146.6480 O   0  0  0  0  0  1  0  0  0  0  0  0
  188.6800  178.0440  137.1420 C   0  0  0  0  0  2  0  0  0  0  0  0
  186.7510  178.4520  138.2430 O   0  0  0  0  0  1  0  0  0  0  0  0
  188.0650  178.7780  138.2370 N   0  0  0  0  0  2  0  0  0  0  0  0
  1 10  1  0  0  0  0
  2  8  2  0  0  0  0
  3  1  2  0  0  0  0
  3  2  1  0  0  0  0
  4 31  1  6  0  0  0
  4  6  1  0  0  0  0
  6 11  2  0  0  0  0
  7 25  1  0  0  0  0
  8  9  1  0  0  0  0
  8  5  1  0  0  0  0
  9 11  1  0  0  0  0
 10  4  1  0  0  0  0
 10  9  2  0  0  0  0
 11  7  1  0  0  0  0
 12 18  1  0  0  0  0
 13  2  1  0  0  0  0
 14 16  1  6  0  0  0
 14 13  1  0  0  0  0
 14 20  1  0  0  0  0
 16 17  1  0  0  0  0
 17 12  2  0  0  0  0
 18 15  1  6  0  0  0
 19 14  1  0  0  0  0
 19 13  1  0  0  0  0
 20 18  1  0  0  0  0
 21 23  1  0  0  0  0
 22 28  1  0  0  0  0
 23 22  2  0  0  0  0
 23 26  1  0  0  0  0
 24 27  2  0  0  0  0
 25 24  1  0  0  0  0
 25 21  2  0  0  0  0
 27 22  1  0  0  0  0
 28 29  2  0  0  0  0
 28 30  1  0  0  0  0
 31 33  1  0  0  0  0
 33 32  1  0  0  0  0
M  END
>  <MODEL>
6

>  <REMARK>
 VINA RESULT:      -7.9      5.244      7.242
  Name = 
  5 active torsions:
  status: ('A' for Active; 'I' for Inactive)
    1  A    between atoms: C_1  and  C_8
    2  A    between atoms: N_3  and  C_11
    3  A    between atoms: N_13  and  C_18
    4  A    between atoms: C_18  and  C_19
    5  A    between atoms: C_22  and  N_25
                            x       y       z     vdW  Elec       q    Type
                         _______ _______ _______ _____ _____    ______ ____

>  <TORSDO>
F 5

$$$$
=
 OpenBabel10232409343D

 33 37  0  0  1  0  0  0  0  0999 V2000
  192.9980  177.3850  141.2410 C   0  0  0  0  0  3  0  0  0  0  0  0
  191.9560  176.7350  139.1260 C   0  0  0  0  0  0  0  0  0  0  0  0
  193.1090  176.9540  139.9080 C   0  0  0  0  0  3  0  0  0  0  0  0
  191.3090  178.0540  143.1240 C   0  0  2  0  0  3  0  0  0  0  0  0
  189.5280  176.7530  138.9200 O   0  0  0  0  0  1  0  0  0  0  0  0
  189.8460  178.0840  143.0220 N   0  0  0  0  0  0  0  0  0  0  0  0
  188.1000  177.6280  141.4200 N   0  0  0  0  0  2  0  0  0  0  0  0
  190.6780  176.9530  139.6760 C   0  0  0  0  0  0  0  0  0  0  0  0
  190.6000  177.3790  141.0030 C   0  0  0  0  0  0  0  0  0  0  0  0
  191.7200  177.5810  141.7650 C   0  0  0  0  0  0  0  0  0  0  0  0
  189.4690  177.7060  141.8400 C   0  0  0  0  0  0  0  0  0  0  0  0
  195.2100  174.0550  137.0110 C   0  0  0  0  0  3  0  0  0  0  0  0
  192.0980  176.2970  137.7780 N   0  0  0  0  0  0  0  0  0  0  0  0
  192.8120  175.5590  136.7020 C   0  0  1  0  0  0  0  0  0  0  0  0
  195.0350  174.5840  134.3630 Cl  0  0  0  0  0  0  0  0  0  0  0  0
  192.7370  174.0460  136.9060 C   0  0  0  0  0  2  0  0  0  0  0  0
  194.0500  173.5250  137.4250 C   0  0  0  0  0  3  0  0  0  0  0  0
  195.2340  175.1960  136.0270 C   0  0  1  0  0  3  0  0  0  0  0  0
  191.6550  176.2160  136.3500 C   0  0  0  0  0  2  0  0  0  0  0  0
  194.1450  176.2270  136.3480 C   0  0  0  0  0  2  0  0  0  0  0  0
  186.8990  177.6850  143.5870 C   0  0  0  0  0  3  0  0  0  0  0  0
  184.6240  178.5490  143.6980 C   0  0  0  0  0  0  0  0  0  0  0  0
  185.7570  177.9860  144.3370 C   0  0  0  0  0  0  0  0  0  0  0  0
  185.8270  178.4840  141.5800 C   0  0  0  0  0  3  0  0  0  0  0  0
  186.9420  177.9300  142.2090 C   0  0  0  0  0  0  0  0  0  0  0  0
  185.8020  177.6910  145.7980 C   0  0  0  0  0  1  0  0  0  0  0  0
  184.6810  178.7900  142.3180 C   0  0  0  0  0  3  0  0  0  0  0  0
  183.3710  178.9000  144.4100 C   0  0  0  0  0  0  0  0  0  0  0  0
  182.1410  178.5950  143.8350 O   0  0  0  0  0  0  0  0  0  0  0  0
  183.3900  179.4730  145.5310 O   0  0  0  0  0  1  0  0  0  0  0  0
  191.7200  177.0530  144.1980 C   0  0  0  0  0  2  0  0  0  0  0  0
  190.8540  177.5070  146.2330 O   0  0  0  0  0  1  0  0  0  0  0  0
  190.6130  176.7970  145.1050 N   0  0  0  0  0  2  0  0  0  0  0  0
  1 10  1  0  0  0  0
  2  8  2  0  0  0  0
  2  3  1  0  0  0  0
  3  1  2  0  0  0  0
  4 31  1  1  0  0  0
  5  8  1  0  0  0  0
  6  4  1  0  0  0  0
  7 11  1  0  0  0  0
  7 25  1  0  0  0  0
  8  9  1  0  0  0  0
  9 10  2  0  0  0  0
  9 11  1  0  0  0  0
 10  4  1  0  0  0  0
 11  6  2  0  0  0  0
 12 17  2  0  0  0  0
 13  2  1  0  0  0  0
 14 20  1  6  0  0  0
 14 16  1  0  0  0  0
 14 13  1  0  0  0  0
 16 17  1  0  0  0  0
 18 15  1  6  0  0  0
 18 20  1  0  0  0  0
 18 12  1  0  0  0  0
 19 14  1  0  0  0  0
 19 13  1  0  0  0  0
 21 23  1  0  0  0  0
 22 23  2  0  0  0  0
 22 28  1  0  0  0  0
 23 26  1  0  0  0  0
 24 25  1  0  0  0  0
 24 27  2  0  0  0  0
 25 21  2  0  0  0  0
 27 22  1  0  0  0  0
 28 30  1  0  0  0  0
 29 28  2  0  0  0  0
 31 33  1  0  0  0  0
 33 32  1  0  0  0  0
M  END
>  <MODEL>
7

>  <REMARK>
 VINA RESULT:      -7.7      3.814      6.642
  Name = 
  5 active torsions:
  status: ('A' for Active; 'I' for Inactive)
    1  A    between atoms: C_1  and  C_8
    2  A    between atoms: N_3  and  C_11
    3  A    between atoms: N_13  and  C_18
    4  A    between atoms: C_18  and  C_19
    5  A    between atoms: C_22  and  N_25
                            x       y       z     vdW  Elec       q    Type
                         _______ _______ _______ _____ _____    ______ ____

>  <TORSDO>
F 5

$$$$
=
 OpenBabel10232409343D

 33 37  0  0  1  0  0  0  0  0999 V2000
  190.9160  177.3690  141.6460 C   0  0  0  0  0  3  0  0  0  0  0  0
  190.2350  177.1830  139.3040 C   0  0  0  0  0  0  0  0  0  0  0  0
  191.2370  177.1470  140.2960 C   0  0  0  0  0  3  0  0  0  0  0  0
  188.9640  177.9070  143.3040 C   0  0  2  0  0  3  0  0  0  0  0  0
  187.8960  177.4990  138.6970 O   0  0  0  0  0  1  0  0  0  0  0  0
  187.5520  178.1130  142.9630 N   0  0  0  0  0  0  0  0  0  0  0  0
  186.1030  178.1130  141.0340 N   0  0  0  0  0  2  0  0  0  0  0  0
  188.8990  177.4480  139.6590 C   0  0  0  0  0  0  0  0  0  0  0  0
  188.6100  177.6620  141.0080 C   0  0  0  0  0  0  0  0  0  0  0  0
  189.5820  177.6160  141.9720 C   0  0  0  0  0  0  0  0  0  0  0  0
  187.3730  177.9720  141.6870 C   0  0  0  0  0  0  0  0  0  0  0  0
  193.1530  174.0730  137.2900 C   0  0  0  0  0  3  0  0  0  0  0  0
  190.5890  176.9540  137.9430 N   0  0  0  0  0  0  0  0  0  0  0  0
  191.3410  176.2320  136.8830 C   0  0  1  0  0  0  0  0  0  0  0  0
  193.7600  175.0630  134.8460 Cl  0  0  0  0  0  0  0  0  0  0  0  0
  190.8540  174.7930  136.7210 C   0  0  0  0  0  2  0  0  0  0  0  0
  191.8330  173.8380  137.3460 C   0  0  0  0  0  3  0  0  0  0  0  0
  193.6920  175.3060  136.6120 C   0  0  1  0  0  3  0  0  0  0  0  0
  190.5000  177.2430  136.4770 C   0  0  0  0  0  2  0  0  0  0  0  0
  192.8420  176.5380  136.9470 C   0  0  0  0  0  2  0  0  0  0  0  0
  184.7380  178.6420  143.0330 C   0  0  0  0  0  3  0  0  0  0  0  0
  182.3360  178.9850  142.8130 C   0  0  0  0  0  0  0  0  0  0  0  0
  183.5010  178.9280  143.6190 C   0  0  0  0  0  0  0  0  0  0  0  0
  183.7010  178.4650  140.8630 C   0  0  0  0  0  3  0  0  0  0  0  0
  184.8470  178.4090  141.6560 C   0  0  0  0  0  0  0  0  0  0  0  0
  183.4800  179.1630  145.0920 C   0  0  0  0  0  1  0  0  0  0  0  0
  182.4590  178.7490  141.4360 C   0  0  0  0  0  3  0  0  0  0  0  0
  180.9830  179.2800  143.3450 C   0  0  0  0  0  0  0  0  0  0  0  0
  180.3570  180.4780  143.0150 O   0  0  0  0  0  0  0  0  0  0  0  0
  180.3810  178.4690  144.0960 O   0  0  0  0  0  1  0  0  0  0  0  0
  189.0900  176.7090  144.2370 C   0  0  0  0  0  2  0  0  0  0  0  0
  189.5460  177.3640  146.3500 O   0  0  0  0  0  1  0  0  0  0  0  0
  190.1440  176.9330  145.2140 N   0  0  0  0  0  2  0  0  0  0  0  0
  1 10  1  0  0  0  0
  2  8  2  0  0  0  0
  2  3  1  0  0  0  0
  3  1  2  0  0  0  0
  4 31  1  1  0  0  0
  5  8  1  0  0  0  0
  6  4  1  0  0  0  0
  7 25  1  0  0  0  0
  7 11  1  0  0  0  0
  8  9  1  0  0  0  0
  9 11  1  0  0  0  0
  9 10  2  0  0  0  0
 10  4  1  0  0  0  0
 11  6  2  0  0  0  0
 12 17  2  0  0  0  0
 13  2  1  0  0  0  0
 14 19  1  6  0  0  0
 14 20  1  0  0  0  0
 14 13  1  0  0  0  0
 16 14  1  0  0  0  0
 16 17  1  0  0  0  0
 18 15  1  6  0  0  0
 18 20  1  0  0  0  0
 18 12  1  0  0  0  0
 19 13  1  0  0  0  0
 21 23  1  0  0  0  0
 22 28  1  0  0  0  0
 22 23  2  0  0  0  0
 23 26  1  0  0  0  0
 24 27  2  0  0  0  0
 24 25  1  0  0  0  0
 25 21  2  0  0  0  0
 27 22  1  0  0  0  0
 28 30  1  0  0  0  0
 29 28  2  0  0  0  0
 31 33  1  0  0  0  0
 33 32  1  0  0  0  0
M  END
>  <MODEL>
8

>  <REMARK>
 VINA RESULT:      -7.7      3.243      6.635
  Name = 
  5 active torsions:
  status: ('A' for Active; 'I' for Inactive)
    1  A    between atoms: C_1  and  C_8
    2  A    between atoms: N_3  and  C_11
    3  A    between atoms: N_13  and  C_18
    4  A    between atoms: C_18  and  C_19
    5  A    between atoms: C_22  and  N_25
                            x       y       z     vdW  Elec       q    Type
                         _______ _______ _______ _____ _____    ______ ____

>  <TORSDO>
F 5

$$$$
=
 OpenBabel10232409343D

 33 37  0  0  1  0  0  0  0  0999 V2000
  186.5100  177.6750  144.8480 C   0  0  0  0  0  3  0  0  0  0  0  0
  185.0750  178.2680  142.9580 C   0  0  0  0  0  0  0  0  0  0  0  0
  185.2640  178.0830  144.3430 C   0  0  0  0  0  3  0  0  0  0  0  0
  188.9550  177.0130  144.1890 C   0  0  2  0  0  3  0  0  0  0  0  0
  185.9720  178.2040  140.6930 O   0  0  0  0  0  1  0  0  0  0  0  0
  189.5160  176.9570  142.8340 N   0  0  0  0  0  0  0  0  0  0  0  0
  188.8540  177.3520  140.5480 N   0  0  0  0  0  2  0  0  0  0  0  0
  186.1380  178.0380  142.0640 C   0  0  0  0  0  0  0  0  0  0  0  0
  187.3650  177.6360  142.5950 C   0  0  0  0  0  0  0  0  0  0  0  0
  187.5510  177.4680  143.9410 C   0  0  0  0  0  0  0  0  0  0  0  0
  188.6210  177.3060  141.9620 C   0  0  0  0  0  0  0  0  0  0  0  0
  182.9640  177.7160  138.7780 C   0  0  0  0  0  3  0  0  0  0  0  0
  183.8010  178.6820  142.4740 N   0  0  0  0  0  0  0  0  0  0  0  0
  182.7650  178.7790  141.4120 C   0  0  1  0  0  0  0  0  0  0  0  0
  181.0270  179.6010  138.6420 Cl  0  0  0  0  0  0  0  0  0  0  0  0
  182.1470  177.4180  141.0950 C   0  0  0  0  0  2  0  0  0  0  0  0
  182.6910  176.8880  139.7970 C   0  0  0  0  0  3  0  0  0  0  0  0
  182.7460  179.2020  138.9060 C   0  0  1  0  0  3  0  0  0  0  0  0
  182.4700  179.3500  142.6290 C   0  0  0  0  0  2  0  0  0  0  0  0
  183.2060  179.7120  140.2770 C   0  0  0  0  0  2  0  0  0  0  0  0
  190.1110  176.2400  138.7240 C   0  0  0  0  0  3  0  0  0  0  0  0
  192.5310  176.4830  138.5860 C   0  0  0  0  0  0  0  0  0  0  0  0
  191.3180  175.9520  138.0790 C   0  0  0  0  0  0  0  0  0  0  0  0
  191.2720  177.5670  140.3680 C   0  0  0  0  0  3  0  0  0  0  0  0
  190.0790  177.0460  139.8690 C   0  0  0  0  0  0  0  0  0  0  0  0
  191.2550  175.0870  136.8670 C   0  0  0  0  0  1  0  0  0  0  0  0
  192.4840  177.2880  139.7330 C   0  0  0  0  0  3  0  0  0  0  0  0
  193.8570  176.2330  137.9710 C   0  0  0  0  0  0  0  0  0  0  0  0
  194.2210  176.9130  136.8130 O   0  0  0  0  0  0  0  0  0  0  0  0
  194.6700  175.4120  138.4710 O   0  0  0  0  0  1  0  0  0  0  0  0
  189.7230  178.0420  145.0110 C   0  0  0  0  0  2  0  0  0  0  0  0
  191.6190  177.2820  145.9770 O   0  0  0  0  0  1  0  0  0  0  0  0
  191.1570  177.8590  144.8420 N   0  0  0  0  0  2  0  0  0  0  0  0
  2  3  2  0  0  0  0
  3  1  1  0  0  0  0
  4 31  1  1  0  0  0
  5  8  1  0  0  0  0
  6  4  1  0  0  0  0
  7 11  1  0  0  0  0
  8  9  2  0  0  0  0
  8  2  1  0  0  0  0
  9 10  1  0  0  0  0
 10  4  1  0  0  0  0
 10  1  2  0  0  0  0
 11  9  1  0  0  0  0
 11  6  2  0  0  0  0
 12 18  1  0  0  0  0
 12 17  2  0  0  0  0
 13 19  1  0  0  0  0
 13  2  1  0  0  0  0
 14 20  1  6  0  0  0
 14 13  1  0  0  0  0
 14 19  1  0  0  0  0
 16 14  1  0  0  0  0
 17 16  1  0  0  0  0
 18 15  1  1  0  0  0
 18 20  1  0  0  0  0
 21 25  1  0  0  0  0
 22 27  2  0  0  0  0
 23 22  1  0  0  0  0
 23 21  2  0  0  0  0
 25 24  2  0  0  0  0
 25  7  1  0  0  0  0
 26 23  1  0  0  0  0
 27 24  1  0  0  0  0
 28 30  1  0  0  0  0
 28 22  1  0  0  0  0
 29 28  2  0  0  0  0
 33 31  1  0  0  0  0
 33 32  1  0  0  0  0
M  END
>  <MODEL>
9

>  <REMARK>
 VINA RESULT:      -7.5      3.495      6.492
  Name = 
  5 active torsions:
  status: ('A' for Active; 'I' for Inactive)
    1  A    between atoms: C_1  and  C_8
    2  A    between atoms: N_3  and  C_11
    3  A    between atoms: N_13  and  C_18
    4  A    between atoms: C_18  and  C_19
    5  A    between atoms: C_22  and  N_25
                            x       y       z     vdW  Elec       q    Type
                         _______ _______ _______ _____ _____    ______ ____

>  <TORSDO>
F 5

$$$$
