=
 OpenBabel10232409153D

 67 72  0  0  1  0  0  0  0  0999 V2000
  192.1530  177.6580  142.8770 N   0  0  0  0  0  0  0  0  0  0  0  0
  190.5000  175.5380  136.8900 O   0  0  0  0  0  0  0  0  0  0  0  0
  191.4470  175.5970  139.0340 C   0  0  0  0  0  2  0  0  0  0  0  0
  187.6730  177.5450  137.8630 C   0  0  1  0  0  3  0  0  0  0  0  0
  191.6590  175.1660  137.6100 C   0  0  2  0  0  3  0  0  0  0  0  0
  190.4240  177.1530  141.3130 N   0  0  0  0  0  2  0  0  0  0  0  0
  188.4160  178.6670  138.5910 C   0  0  0  0  0  2  0  0  0  0  0  0
  188.5390  176.2820  137.7580 C   0  0  0  0  0  2  0  0  0  0  0  0
  191.7090  177.6750  141.6540 C   0  0  0  0  0  3  0  0  0  0  0  0
  189.8850  177.3460  140.0030 C   0  0  0  0  0  0  0  0  0  0  0  0
  190.6790  176.8460  138.7950 C   0  0  2  0  0  3  0  0  0  0  0  0
  189.9420  176.6180  137.5330 N   0  0  1  0  0  0  0  0  0  0  0  0
  188.9230  178.2100  139.8740 N   0  0  0  0  0  0  0  0  0  0  0  0
  191.4540  177.0590  143.9690 C   0  0  0  0  0  0  0  0  0  0  0  0
  190.6870  177.8260  144.7510 C   0  0  0  0  0  3  0  0  0  0  0  0
  188.4210  177.2310  145.5410 C   0  0  0  0  0  1  0  0  0  0  0  0
  189.8960  177.2940  145.9000 C   0  0  0  0  0  2  0  0  0  0  0  0
  191.5520  175.5740  144.1700 C   0  0  0  0  0  2  0  0  0  0  0  0
  190.7190  174.9100  143.2630 O   0  0  0  0  0  1  0  0  0  0  0  0
  186.3470  177.1650  138.5410 C   0  0  0  0  0  2  0  0  0  0  0  0
  185.1020  177.4540  137.6920 C   0  0  1  0  0  3  0  0  0  0  0  0
  184.1600  178.3930  138.3800 C   0  0  0  0  0  0  0  0  0  0  0  0
  183.1100  177.8870  139.2140 N   0  0  0  0  0  2  0  0  0  0  0  0
  184.3210  179.6360  138.2430 O   0  0  0  0  0  0  0  0  0  0  0  0
  182.0570  178.7340  139.7710 C   0  0  0  0  0  2  0  0  0  0  0  0
  182.9500  179.3780  145.2220 O   0  0  0  0  0  1  0  0  0  0  0  0
  181.4580  178.7480  143.4750 C   0  0  0  0  0  0  0  0  0  0  0  0
  183.9820  178.9700  143.0860 C   0  0  1  0  0  3  0  0  0  0  0  0
  183.6570  178.4990  141.6710 C   0  0  0  0  0  2  0  0  0  0  0  0
  182.3820  179.1840  141.1950 C   0  0  2  0  0  3  0  0  0  0  0  0
  181.2510  178.9220  142.1600 C   0  0  0  0  0  3  0  0  0  0  0  0
  180.3870  178.5270  144.2790 F   0  0  0  0  0  0  0  0  0  0  0  0
  182.8460  178.6100  144.0620 C   0  0  1  0  0  3  0  0  0  0  0  0
  185.1720  178.3650  143.5160 O   0  0  0  0  0  0  0  0  0  0  0  0
  185.0530  178.2660  144.9070 C   0  0  0  0  0  2  0  0  0  0  0  0
  185.9180  179.1670  145.5140 O   0  0  0  0  0  1  0  0  0  0  0  0
  185.4600  177.9330  136.3570 N   0  0  0  0  0  2  0  0  0  0  0  0
  185.4870  176.8410  135.4700 N   0  0  0  0  0  2  0  0  0  0  0  0
  181.4180  172.3670  135.6310 C   0  0  0  0  0  3  0  0  0  0  0  0
  182.6570  171.6750  135.4470 O   0  0  0  0  0  0  0  0  0  0  0  0
  181.8050  173.8470  135.8450 C   0  0  0  0  0  3  0  0  0  0  0  0
  184.4040  174.6370  135.6980 C   0  0  0  0  0  0  0  0  0  0  0  0
  185.4600  173.9700  135.3560 N   0  0  0  0  0  0  0  0  0  0  0  0
  185.1290  172.5380  135.3210 C   0  0  0  0  0  2  0  0  0  0  0  0
  183.6790  172.5680  135.6370 C   0  0  0  0  0  0  0  0  0  0  0  0
  183.2790  173.7500  135.9320 C   0  0  0  0  0  0  0  0  0  0  0  0
  184.3470  176.0630  135.7310 N   0  0  0  0  0  2  0  0  0  0  0  0
  192.8620  175.8870  136.9980 C   0  0  0  0  0  2  0  0  0  0  0  0
  194.7400  174.5300  135.8840 C   0  0  1  0  0  0  0  0  0  0  0  0
  195.4750  174.8400  137.2030 C   0  0  0  0  0  1  0  0  0  0  0  0
  194.0170  173.1730  135.9240 C   0  0  1  0  0  3  0  0  0  0  0  0
  192.7010  173.8670  135.5930 C   0  0  0  0  0  2  0  0  0  0  0  0
  193.3710  175.2280  135.7150 C   0  0  1  0  0  3  0  0  0  0  0  0
  194.4890  172.1030  134.9250 C   0  0  2  0  0  3  0  0  0  0  0  0
  193.6430  170.9920  134.8940 O   0  0  0  0  0  1  0  0  0  0  0  0
  195.9100  171.6760  135.2700 C   0  0  0  0  0  2  0  0  0  0  0  0
  195.9230  171.1060  136.5490 O   0  0  0  0  0  0  0  0  0  0  0  0
  196.3120  169.7620  136.3930 C   0  0  1  0  0  3  0  0  0  0  0  0
  198.3850  170.7240  137.2700 O   0  0  0  0  0  0  0  0  0  0  0  0
  198.1300  168.4840  137.1000 O   0  0  0  0  0  0  0  0  0  0  0  0
  197.6970  169.6170  136.8180 N   0  0  0  0  0  0  0  0  0  0  0  0
  195.4110  168.8410  137.2370 C   0  0  0  0  0  2  0  0  0  0  0  0
  194.8210  169.5540  138.4470 C   0  0  0  0  0  2  0  0  0  0  0  0
  194.5970  168.6250  139.6020 C   0  0  0  0  0  3  0  0  0  0  0  0
  194.3800  169.0620  140.7190 O   0  0  0  0  0  0  0  0  0  0  0  0
  195.5180  174.7570  134.7160 O   0  0  0  0  0  0  0  0  0  0  0  0
  195.9150  176.1020  134.6730 C   0  0  0  0  0  1  0  0  0  0  0  0
  1 14  1  0  0  0  0
  2 12  1  0  0  0  0
  2  5  1  0  0  0  0
  4 20  1  1  0  0  0
  4  7  1  0  0  0  0
  5 48  1  6  0  0  0
  5  3  1  0  0  0  0
  6  9  1  0  0  0  0
  7 13  1  0  0  0  0
  8  4  1  0  0  0  0
  9  1  2  0  0  0  0
 10  6  1  0  0  0  0
 11  3  1  1  0  0  0
 11 10  1  0  0  0  0
 12  8  1  1  0  0  0
 12 11  1  0  0  0  0
 13 10  2  0  0  0  0
 14 18  1  0  0  0  0
 14 15  2  0  0  0  0
 15 17  1  0  0  0  0
 16 17  1  0  0  0  0
 19 18  1  0  0  0  0
 21 22  1  0  0  0  0
 21 20  1  1  0  0  0
 22 23  1  0  0  0  0
 23 25  1  0  0  0  0
 24 22  2  0  0  0  0
 27 33  1  0  0  0  0
 27 32  1  0  0  0  0
 28 34  1  1  0  0  0
 28 33  1  0  0  0  0
 29 28  1  0  0  0  0
 30 25  1  6  0  0  0
 30 29  1  0  0  0  0
 30 31  1  0  0  0  0
 31 27  2  0  0  0  0
 33 26  1  1  0  0  0
 34 35  1  0  0  0  0
 35 36  1  0  0  0  0
 37 21  1  0  0  0  0
 38 47  1  0  0  0  0
 38 37  1  0  0  0  0
 39 41  2  0  0  0  0
 40 39  1  0  0  0  0
 40 45  1  0  0  0  0
 41 46  1  0  0  0  0
 42 47  1  0  0  0  0
 42 46  1  0  0  0  0
 43 42  2  0  0  0  0
 44 43  1  0  0  0  0
 44 45  1  0  0  0  0
 45 46  2  0  0  0  0
 49 51  1  0  0  0  0
 49 50  1  1  0  0  0
 51 54  1  6  0  0  0
 52 53  1  0  0  0  0
 52 51  1  0  0  0  0
 53 49  1  0  0  0  0
 53 48  1  1  0  0  0
 54 55  1  1  0  0  0
 54 56  1  0  0  0  0
 56 57  1  0  0  0  0
 58 57  1  0  0  0  0
 58 61  1  0  0  0  0
 58 62  1  1  0  0  0
 61 60  2  0  0  0  0
 61 59  2  0  0  0  0
 62 63  1  0  0  0  0
 63 64  1  0  0  0  0
 64 65  2  0  0  0  0
 66 49  1  0  0  0  0
 67 66  1  0  0  0  0
M  END
>  <MODEL>
1

>  <REMARK>
 VINA RESULT:      -5.6      0.000      0.000
  Name = 
  24 active torsions:
  status: ('A' for Active; 'I' for Inactive)
    1  A    between atoms: C_1  and  O_51
    2  A    between atoms: N_4  and  CA_29
    3  A    between atoms: C_7  and  C_32
    4  A    between atoms: C_7  and  N_54
    5  A    between atoms: C_10  and  C_25
    6  A    between atoms: C_10  and  C_38
    7  A    between atoms: C_14  and  O_18
    8  A    between atoms: C_15  and  C_34
    9  A    between atoms: C_16  and  O_18
   10  A    between atoms: C_19  and  C_30
   11  A    between atoms: C_19  and  C_65
   12  A    between atoms: C_21  and  C_48
   13  A    between atoms: C_22  and  N_37
   14  A    between atoms: C_22  and  C_48
   15  A    between atoms: C_22  and  C_52
   16  A    between atoms: C_25  and  O_60
   17  A    between atoms: C_26  and  C_45
   18  A    between atoms: CA_29  and  C_40
   19  A    between atoms: N_37  and  N_39
   20  A    between atoms: N_39  and  N_63
   21  A    between atoms: C_44  and  C_45
   22  A    between atoms: C_44  and  C_50
   23  A    between atoms: C_50  and  O_60
   24  A    between atoms: C_50  and  N_66
                            x       y       z     vdW  Elec       q    Type
                         _______ _______ _______ _____ _____    ______ ____

>  <TORSDO>
F 24

$$$$
=
 OpenBabel10232409153D

 67 72  0  0  1  0  0  0  0  0999 V2000
  184.4550  173.3220  136.1200 N   0  0  0  0  0  0  0  0  0  0  0  0
  186.6680  179.4620  136.8060 O   0  0  0  0  0  0  0  0  0  0  0  0
  185.9530  177.4660  135.8050 C   0  0  0  0  0  2  0  0  0  0  0  0
  184.5200  179.0360  139.6650 C   0  0  1  0  0  3  0  0  0  0  0  0
  186.9290  178.6050  135.7120 C   0  0  2  0  0  3  0  0  0  0  0  0
  184.1210  175.5060  137.0180 N   0  0  0  0  0  2  0  0  0  0  0  0
  184.8550  177.5810  140.0000 C   0  0  0  0  0  2  0  0  0  0  0  0
  184.8890  179.3710  138.2130 C   0  0  0  0  0  2  0  0  0  0  0  0
  184.9440  174.3890  136.6820 C   0  0  0  0  0  3  0  0  0  0  0  0
  184.6440  176.5880  137.7940 C   0  0  0  0  0  0  0  0  0  0  0  0
  185.8760  177.3380  137.2830 C   0  0  2  0  0  3  0  0  0  0  0  0
  186.1200  178.6980  137.8090 N   0  0  1  0  0  0  0  0  0  0  0  0
  184.2600  176.6730  139.0320 N   0  0  0  0  0  0  0  0  0  0  0  0
  183.0920  173.1880  135.7180 C   0  0  0  0  0  0  0  0  0  0  0  0
  182.1320  173.7310  136.4760 C   0  0  0  0  0  3  0  0  0  0  0  0
  180.0940  175.0700  136.0690 C   0  0  0  0  0  1  0  0  0  0  0  0
  180.6810  173.6700  136.1300 C   0  0  0  0  0  2  0  0  0  0  0  0
  182.7780  172.4960  134.4220 C   0  0  0  0  0  2  0  0  0  0  0  0
  183.3500  171.2200  134.4090 O   0  0  0  0  0  1  0  0  0  0  0  0
  183.0360  179.3740  139.8760 C   0  0  0  0  0  2  0  0  0  0  0  0
  182.2830  178.3710  140.7610 C   0  0  1  0  0  3  0  0  0  0  0  0
  182.3980  178.7110  142.2150 C   0  0  0  0  0  0  0  0  0  0  0  0
  183.6820  178.9620  142.8030 N   0  0  0  0  0  2  0  0  0  0  0  0
  181.3510  178.8070  142.9090 O   0  0  0  0  0  0  0  0  0  0  0  0
  183.8800  179.1270  144.2410 C   0  0  0  0  0  2  0  0  0  0  0  0
  188.9000  177.8050  146.2350 O   0  0  0  0  0  1  0  0  0  0  0  0
  186.6150  178.3130  146.6780 C   0  0  0  0  0  0  0  0  0  0  0  0
  187.4280  177.6620  144.3350 C   0  0  1  0  0  3  0  0  0  0  0  0
  185.9550  177.7730  143.9530 C   0  0  0  0  0  2  0  0  0  0  0  0
  185.3510  178.9950  144.6330 C   0  0  2  0  0  3  0  0  0  0  0  0
  185.5500  178.9190  146.1280 C   0  0  0  0  0  3  0  0  0  0  0  0
  186.7270  178.2960  148.0300 F   0  0  0  0  0  0  0  0  0  0  0  0
  187.5920  177.4990  145.8580 C   0  0  1  0  0  3  0  0  0  0  0  0
  187.9960  176.5560  143.6860 O   0  0  0  0  0  0  0  0  0  0  0  0
  189.2090  177.0180  143.1640 C   0  0  0  0  0  2  0  0  0  0  0  0
  190.2480  176.6600  144.0130 O   0  0  0  0  0  1  0  0  0  0  0  0
  180.8860  178.2340  140.3500 N   0  0  0  0  0  2  0  0  0  0  0  0
  180.3800  179.5050  140.0170 N   0  0  0  0  0  2  0  0  0  0  0  0
  180.0810  181.5980  134.3490 C   0  0  0  0  0  3  0  0  0  0  0  0
  180.2740  182.7840  135.1260 O   0  0  0  0  0  0  0  0  0  0  0  0
  180.2110  180.4290  135.3510 C   0  0  0  0  0  3  0  0  0  0  0  0
  180.5940  180.9090  138.0010 C   0  0  0  0  0  0  0  0  0  0  0  0
  180.5880  182.0260  138.6560 N   0  0  0  0  0  0  0  0  0  0  0  0
  180.6390  183.1400  137.6970 C   0  0  0  0  0  2  0  0  0  0  0  0
  180.5980  182.4120  136.4040 C   0  0  0  0  0  0  0  0  0  0  0  0
  180.6540  181.1410  136.5700 C   0  0  0  0  0  0  0  0  0  0  0  0
  180.4510  179.6300  138.6210 N   0  0  0  0  0  2  0  0  0  0  0  0
  188.3670  178.0980  135.8250 C   0  0  0  0  0  2  0  0  0  0  0  0
  189.3420  175.8210  136.5120 C   0  0  1  0  0  0  0  0  0  0  0  0
  189.5500  175.6750  134.9920 C   0  0  0  0  0  1  0  0  0  0  0  0
  190.5890  176.3750  137.2210 C   0  0  1  0  0  3  0  0  0  0  0  0
  189.7590  177.5250  137.7780 C   0  0  0  0  0  2  0  0  0  0  0  0
  188.5610  177.0810  136.9500 C   0  0  1  0  0  3  0  0  0  0  0  0
  191.2660  175.4620  138.2580 C   0  0  2  0  0  3  0  0  0  0  0  0
  190.9890  175.8500  139.5700 O   0  0  0  0  0  1  0  0  0  0  0  0
  192.7690  175.4450  138.0170 C   0  0  0  0  0  2  0  0  0  0  0  0
  193.0430  176.0230  136.7710 O   0  0  0  0  0  0  0  0  0  0  0  0
  194.2290  175.4300  136.2980 C   0  0  1  0  0  3  0  0  0  0  0  0
  196.1070  176.0980  134.8780 O   0  0  0  0  0  0  0  0  0  0  0  0
  194.6870  177.6420  135.7220 O   0  0  0  0  0  0  0  0  0  0  0  0
  195.0830  176.4620  135.7290 N   0  0  0  0  0  0  0  0  0  0  0  0
  194.9690  174.7190  137.4470 C   0  0  0  0  0  2  0  0  0  0  0  0
  195.8420  173.5720  136.9540 C   0  0  0  0  0  2  0  0  0  0  0  0
  195.1570  172.2430  137.0700 C   0  0  0  0  0  3  0  0  0  0  0  0
  193.9630  172.1380  136.8480 O   0  0  0  0  0  0  0  0  0  0  0  0
  188.7610  174.6810  137.1330 O   0  0  0  0  0  0  0  0  0  0  0  0
  188.3720  173.7610  136.1480 C   0  0  0  0  0  1  0  0  0  0  0  0
  1  9  2  0  0  0  0
  2 12  1  0  0  0  0
  4 20  1  6  0  0  0
  4  7  1  0  0  0  0
  5  3  1  0  0  0  0
  5 48  1  1  0  0  0
  5  2  1  0  0  0  0
  6 10  1  0  0  0  0
  8  4  1  0  0  0  0
  9  6  1  0  0  0  0
 10 13  2  0  0  0  0
 11  3  1  6  0  0  0
 11 10  1  0  0  0  0
 11 12  1  0  0  0  0
 12  8  1  6  0  0  0
 13  7  1  0  0  0  0
 14  1  1  0  0  0  0
 14 15  2  0  0  0  0
 16 17  1  0  0  0  0
 17 15  1  0  0  0  0
 18 14  1  0  0  0  0
 19 18  1  0  0  0  0
 21 20  1  6  0  0  0
 21 22  1  0  0  0  0
 22 23  1  0  0  0  0
 22 24  2  0  0  0  0
 23 25  1  0  0  0  0
 27 32  1  0  0  0  0
 28 34  1  6  0  0  0
 28 33  1  0  0  0  0
 29 28  1  0  0  0  0
 29 30  1  0  0  0  0
 30 25  1  1  0  0  0
 30 31  1  0  0  0  0
 31 27  2  0  0  0  0
 33 26  1  1  0  0  0
 33 27  1  0  0  0  0
 35 34  1  0  0  0  0
 35 36  1  0  0  0  0
 37 21  1  0  0  0  0
 38 37  1  0  0  0  0
 39 40  1  0  0  0  0
 39 41  2  0  0  0  0
 40 45  1  0  0  0  0
 41 46  1  0  0  0  0
 42 47  1  0  0  0  0
 42 43  2  0  0  0  0
 44 43  1  0  0  0  0
 45 46  2  0  0  0  0
 45 44  1  0  0  0  0
 46 42  1  0  0  0  0
 47 38  1  0  0  0  0
 49 50  1  6  0  0  0
 49 53  1  0  0  0  0
 49 66  1  0  0  0  0
 49 51  1  0  0  0  0
 51 52  1  0  0  0  0
 51 54  1  1  0  0  0
 53 48  1  6  0  0  0
 53 52  1  0  0  0  0
 54 55  1  1  0  0  0
 56 54  1  0  0  0  0
 57 56  1  0  0  0  0
 58 57  1  0  0  0  0
 58 62  1  1  0  0  0
 59 61  2  0  0  0  0
 60 61  2  0  0  0  0
 61 58  1  0  0  0  0
 63 64  1  0  0  0  0
 63 62  1  0  0  0  0
 65 64  2  0  0  0  0
 67 66  1  0  0  0  0
M  END
>  <MODEL>
2

>  <REMARK>
 VINA RESULT:      -5.3      2.841      7.309
  Name = 
  24 active torsions:
  status: ('A' for Active; 'I' for Inactive)
    1  A    between atoms: C_1  and  O_51
    2  A    between atoms: N_4  and  CA_29
    3  A    between atoms: C_7  and  C_32
    4  A    between atoms: C_7  and  N_54
    5  A    between atoms: C_10  and  C_25
    6  A    between atoms: C_10  and  C_38
    7  A    between atoms: C_14  and  O_18
    8  A    between atoms: C_15  and  C_34
    9  A    between atoms: C_16  and  O_18
   10  A    between atoms: C_19  and  C_30
   11  A    between atoms: C_19  and  C_65
   12  A    between atoms: C_21  and  C_48
   13  A    between atoms: C_22  and  N_37
   14  A    between atoms: C_22  and  C_48
   15  A    between atoms: C_22  and  C_52
   16  A    between atoms: C_25  and  O_60
   17  A    between atoms: C_26  and  C_45
   18  A    between atoms: CA_29  and  C_40
   19  A    between atoms: N_37  and  N_39
   20  A    between atoms: N_39  and  N_63
   21  A    between atoms: C_44  and  C_45
   22  A    between atoms: C_44  and  C_50
   23  A    between atoms: C_50  and  O_60
   24  A    between atoms: C_50  and  N_66
                            x       y       z     vdW  Elec       q    Type
                         _______ _______ _______ _____ _____    ______ ____

>  <TORSDO>
F 24

$$$$
=
 OpenBabel10232409153D

 67 72  0  0  1  0  0  0  0  0999 V2000
  189.1730  176.2290  143.4990 N   0  0  0  0  0  0  0  0  0  0  0  0
  187.8010  178.5270  137.5070 O   0  0  0  0  0  0  0  0  0  0  0  0
  188.0340  178.4220  139.8380 C   0  0  0  0  0  2  0  0  0  0  0  0
  190.5930  176.3260  136.9270 C   0  0  1  0  0  3  0  0  0  0  0  0
  187.1780  178.9280  138.7110 C   0  0  2  0  0  3  0  0  0  0  0  0
  189.9360  176.7090  141.2920 N   0  0  0  0  0  2  0  0  0  0  0  0
  190.2280  175.2140  137.9130 C   0  0  0  0  0  2  0  0  0  0  0  0
  189.8780  177.6380  137.2800 C   0  0  0  0  0  2  0  0  0  0  0  0
  188.9540  176.2430  142.2170 C   0  0  0  0  0  3  0  0  0  0  0  0
  189.7440  176.5480  139.8830 C   0  0  0  0  0  0  0  0  0  0  0  0
  188.4950  177.1450  139.2340 C   0  0  2  0  0  3  0  0  0  0  0  0
  188.5270  177.3900  137.7760 N   0  0  1  0  0  0  0  0  0  0  0  0
  190.4540  175.6390  139.2850 N   0  0  0  0  0  0  0  0  0  0  0  0
  190.3590  176.7370  144.1100 C   0  0  0  0  0  0  0  0  0  0  0  0
  190.7150  176.2890  145.3190 C   0  0  0  0  0  3  0  0  0  0  0  0
  192.0320  176.0860  147.4010 C   0  0  0  0  0  1  0  0  0  0  0  0
  191.9490  176.7360  146.0310 C   0  0  0  0  0  2  0  0  0  0  0  0
  191.2080  177.7160  143.3500 C   0  0  0  0  0  2  0  0  0  0  0  0
  190.8460  179.0260  143.6810 O   0  0  0  0  0  1  0  0  0  0  0  0
  192.1030  176.6010  136.8650 C   0  0  0  0  0  2  0  0  0  0  0  0
  192.8150  175.9340  135.6800 C   0  0  1  0  0  3  0  0  0  0  0  0
  194.2640  176.3050  135.6160 C   0  0  0  0  0  0  0  0  0  0  0  0
  195.1630  175.5790  134.7660 N   0  0  0  0  0  2  0  0  0  0  0  0
  194.6790  177.2850  136.2910 O   0  0  0  0  0  0  0  0  0  0  0  0
  196.6110  175.7760  134.7870 C   0  0  0  0  0  2  0  0  0  0  0  0
  200.0660  172.4540  137.6080 O   0  0  0  0  0  1  0  0  0  0  0  0
  199.3760  173.3440  135.5080 C   0  0  0  0  0  0  0  0  0  0  0  0
  198.6640  174.4080  137.7300 C   0  0  1  0  0  3  0  0  0  0  0  0
  197.9820  175.4470  136.8450 C   0  0  0  0  0  2  0  0  0  0  0  0
  197.3140  174.7450  135.6700 C   0  0  2  0  0  3  0  0  0  0  0  0
  198.3200  173.9160  134.9080 C   0  0  0  0  0  3  0  0  0  0  0  0
  200.2310  172.6060  134.7560 F   0  0  0  0  0  0  0  0  0  0  0  0
  199.7450  173.6390  136.9460 C   0  0  1  0  0  3  0  0  0  0  0  0
  199.2550  175.0470  138.8290 O   0  0  0  0  0  0  0  0  0  0  0  0
  198.1880  175.4440  139.6420 C   0  0  0  0  0  2  0  0  0  0  0  0
  198.1940  174.7030  140.8160 O   0  0  0  0  0  1  0  0  0  0  0  0
  192.6320  174.4820  135.6910 N   0  0  0  0  0  2  0  0  0  0  0  0
  192.8840  173.9990  136.9890 N   0  0  0  0  0  2  0  0  0  0  0  0
  197.2260  169.7860  136.9810 C   0  0  0  0  0  3  0  0  0  0  0  0
  196.1000  169.0960  136.4320 O   0  0  0  0  0  0  0  0  0  0  0  0
  196.7720  171.2550  137.1280 C   0  0  0  0  0  3  0  0  0  0  0  0
  194.2290  171.9910  136.4970 C   0  0  0  0  0  0  0  0  0  0  0  0
  193.2100  171.2660  136.1640 N   0  0  0  0  0  0  0  0  0  0  0  0
  193.6740  169.9050  135.8560 C   0  0  0  0  0  2  0  0  0  0  0  0
  195.1220  170.0170  136.1600 C   0  0  0  0  0  0  0  0  0  0  0  0
  195.4590  171.2210  136.4470 C   0  0  0  0  0  0  0  0  0  0  0  0
  194.1230  173.3400  136.9550 N   0  0  0  0  0  2  0  0  0  0  0  0
  185.7830  178.3030  138.7660 C   0  0  0  0  0  2  0  0  0  0  0  0
  183.5980  178.2490  140.1180 C   0  0  1  0  0  0  0  0  0  0  0  0
  183.4400  176.8780  139.4320 C   0  0  0  0  0  1  0  0  0  0  0  0
  184.2570  178.1350  141.5040 C   0  0  1  0  0  3  0  0  0  0  0  0
  185.3520  179.0980  141.0600 C   0  0  0  0  0  2  0  0  0  0  0  0
  184.8040  179.0890  139.6390 C   0  0  1  0  0  3  0  0  0  0  0  0
  183.4160  178.5760  142.7140 C   0  0  2  0  0  3  0  0  0  0  0  0
  182.0570  178.6830  142.4090 O   0  0  0  0  0  1  0  0  0  0  0  0
  183.9440  179.9020  143.2450 C   0  0  0  0  0  2  0  0  0  0  0  0
  185.1200  179.6730  143.9710 O   0  0  0  0  0  0  0  0  0  0  0  0
  184.9570  178.4410  144.6320 C   0  0  1  0  0  3  0  0  0  0  0  0
  187.2520  178.1970  143.8180 O   0  0  0  0  0  0  0  0  0  0  0  0
  186.3080  176.6030  145.1150 O   0  0  0  0  0  0  0  0  0  0  0  0
  186.1540  177.6350  144.4370 N   0  0  0  0  0  0  0  0  0  0  0  0
  184.7230  178.6670  146.1380 C   0  0  0  0  0  2  0  0  0  0  0  0
  185.8160  179.5160  146.7750 C   0  0  0  0  0  2  0  0  0  0  0  0
  186.5950  178.7600  147.8100 C   0  0  0  0  0  3  0  0  0  0  0  0
  187.6170  178.1690  147.5100 O   0  0  0  0  0  0  0  0  0  0  0  0
  182.4300  179.0590  140.0790 O   0  0  0  0  0  0  0  0  0  0  0  0
  182.3510  179.7050  138.8360 C   0  0  0  0  0  1  0  0  0  0  0  0
  1 14  1  0  0  0  0
  2 12  1  0  0  0  0
  2  5  1  0  0  0  0
  4 20  1  1  0  0  0
  4  8  1  0  0  0  0
  4  7  1  0  0  0  0
  5 48  1  1  0  0  0
  5  3  1  0  0  0  0
  6  9  1  0  0  0  0
  7 13  1  0  0  0  0
  9  1  2  0  0  0  0
 10  6  1  0  0  0  0
 11  3  1  1  0  0  0
 11 10  1  0  0  0  0
 12  8  1  1  0  0  0
 12 11  1  0  0  0  0
 13 10  2  0  0  0  0
 14 15  2  0  0  0  0
 15 17  1  0  0  0  0
 17 16  1  0  0  0  0
 18 19  1  0  0  0  0
 18 14  1  0  0  0  0
 21 37  1  0  0  0  0
 21 20  1  1  0  0  0
 22 21  1  0  0  0  0
 22 24  2  0  0  0  0
 23 25  1  0  0  0  0
 23 22  1  0  0  0  0
 27 33  1  0  0  0  0
 28 34  1  1  0  0  0
 29 28  1  0  0  0  0
 30 25  1  6  0  0  0
 30 29  1  0  0  0  0
 31 27  2  0  0  0  0
 31 30  1  0  0  0  0
 32 27  1  0  0  0  0
 33 26  1  1  0  0  0
 33 28  1  0  0  0  0
 34 35  1  0  0  0  0
 35 36  1  0  0  0  0
 37 38  1  0  0  0  0
 39 41  2  0  0  0  0
 40 39  1  0  0  0  0
 42 47  1  0  0  0  0
 43 42  2  0  0  0  0
 44 45  1  0  0  0  0
 44 43  1  0  0  0  0
 45 40  1  0  0  0  0
 45 46  2  0  0  0  0
 46 42  1  0  0  0  0
 46 41  1  0  0  0  0
 47 38  1  0  0  0  0
 49 50  1  6  0  0  0
 49 51  1  0  0  0  0
 51 54  1  1  0  0  0
 52 51  1  0  0  0  0
 53 48  1  6  0  0  0
 53 49  1  0  0  0  0
 53 52  1  0  0  0  0
 54 55  1  6  0  0  0
 54 56  1  0  0  0  0
 56 57  1  0  0  0  0
 57 58  1  0  0  0  0
 58 62  1  1  0  0  0
 59 61  2  0  0  0  0
 61 58  1  0  0  0  0
 61 60  2  0  0  0  0
 62 63  1  0  0  0  0
 63 64  1  0  0  0  0
 65 64  2  0  0  0  0
 66 49  1  0  0  0  0
 67 66  1  0  0  0  0
M  END
>  <MODEL>
3

>  <REMARK>
 VINA RESULT:      -5.1      4.113     12.216
  Name = 
  24 active torsions:
  status: ('A' for Active; 'I' for Inactive)
    1  A    between atoms: C_1  and  O_51
    2  A    between atoms: N_4  and  CA_29
    3  A    between atoms: C_7  and  C_32
    4  A    between atoms: C_7  and  N_54
    5  A    between atoms: C_10  and  C_25
    6  A    between atoms: C_10  and  C_38
    7  A    between atoms: C_14  and  O_18
    8  A    between atoms: C_15  and  C_34
    9  A    between atoms: C_16  and  O_18
   10  A    between atoms: C_19  and  C_30
   11  A    between atoms: C_19  and  C_65
   12  A    between atoms: C_21  and  C_48
   13  A    between atoms: C_22  and  N_37
   14  A    between atoms: C_22  and  C_48
   15  A    between atoms: C_22  and  C_52
   16  A    between atoms: C_25  and  O_60
   17  A    between atoms: C_26  and  C_45
   18  A    between atoms: CA_29  and  C_40
   19  A    between atoms: N_37  and  N_39
   20  A    between atoms: N_39  and  N_63
   21  A    between atoms: C_44  and  C_45
   22  A    between atoms: C_44  and  C_50
   23  A    between atoms: C_50  and  O_60
   24  A    between atoms: C_50  and  N_66
                            x       y       z     vdW  Elec       q    Type
                         _______ _______ _______ _____ _____    ______ ____

>  <TORSDO>
F 24

$$$$
=
 OpenBabel10232409153D

 67 72  0  0  1  0  0  0  0  0999 V2000
  187.3940  176.8550  146.3940 N   0  0  0  0  0  0  0  0  0  0  0  0
  186.4000  179.3040  140.3870 O   0  0  0  0  0  0  0  0  0  0  0  0
  186.4380  179.1210  142.7240 C   0  0  0  0  0  2  0  0  0  0  0  0
  189.3620  177.2960  139.9790 C   0  0  1  0  0  3  0  0  0  0  0  0
  185.6520  179.6200  141.5450 C   0  0  2  0  0  3  0  0  0  0  0  0
  188.3120  177.4660  144.2800 N   0  0  0  0  0  2  0  0  0  0  0  0
  188.9840  176.1260  140.8900 C   0  0  0  0  0  2  0  0  0  0  0  0
  188.5400  178.5490  140.3130 C   0  0  0  0  0  2  0  0  0  0  0  0
  187.2850  176.9070  145.0990 C   0  0  0  0  0  3  0  0  0  0  0  0
  188.2510  177.3500  142.8560 C   0  0  0  0  0  0  0  0  0  0  0  0
  187.0280  177.8980  142.1200 C   0  0  2  0  0  3  0  0  0  0  0  0
  187.1690  178.2020  140.6800 N   0  0  1  0  0  0  0  0  0  0  0  0
  189.0650  176.5090  142.2910 N   0  0  0  0  0  0  0  0  0  0  0  0
  188.4900  177.4080  147.1240 C   0  0  0  0  0  0  0  0  0  0  0  0
  189.7260  176.9560  146.8860 C   0  0  0  0  0  3  0  0  0  0  0  0
  191.9340  176.3640  147.8280 C   0  0  0  0  0  1  0  0  0  0  0  0
  190.9400  177.4850  147.5750 C   0  0  0  0  0  2  0  0  0  0  0  0
  188.2300  178.5260  148.0920 C   0  0  0  0  0  2  0  0  0  0  0  0
  188.3010  178.0510  149.4050 O   0  0  0  0  0  1  0  0  0  0  0  0
  190.8520  177.6620  140.0590 C   0  0  0  0  0  2  0  0  0  0  0  0
  191.6400  177.3710  138.7750 C   0  0  1  0  0  3  0  0  0  0  0  0
  192.9850  176.7780  139.0650 C   0  0  0  0  0  0  0  0  0  0  0  0
  193.6220  175.9210  138.1080 N   0  0  0  0  0  2  0  0  0  0  0  0
  193.5650  177.0690  140.1450 O   0  0  0  0  0  0  0  0  0  0  0  0
  194.8460  175.1770  138.3980 C   0  0  0  0  0  2  0  0  0  0  0  0
  196.5570  170.9680  135.1900 O   0  0  0  0  0  1  0  0  0  0  0  0
  196.7580  173.2640  135.7980 C   0  0  0  0  0  0  0  0  0  0  0  0
  195.5530  171.5670  137.2940 C   0  0  1  0  0  3  0  0  0  0  0  0
  195.3890  172.7470  138.2480 C   0  0  0  0  0  2  0  0  0  0  0  0
  195.0310  173.9930  137.4490 C   0  0  2  0  0  3  0  0  0  0  0  0
  196.0730  174.2550  136.3880 C   0  0  0  0  0  3  0  0  0  0  0  0
  197.6710  173.5810  134.8440 F   0  0  0  0  0  0  0  0  0  0  0  0
  196.6810  171.8320  136.2790 C   0  0  1  0  0  3  0  0  0  0  0  0
  195.8520  170.4110  138.0300 O   0  0  0  0  0  0  0  0  0  0  0  0
  194.7520  169.5650  137.8490 C   0  0  0  0  0  2  0  0  0  0  0  0
  195.1940  168.2900  137.5200 O   0  0  0  0  0  1  0  0  0  0  0  0
  190.8730  176.5360  137.8500 N   0  0  0  0  0  2  0  0  0  0  0  0
  191.1340  175.1820  138.1320 N   0  0  0  0  0  2  0  0  0  0  0  0
  186.5970  172.0930  135.5880 C   0  0  0  0  0  3  0  0  0  0  0  0
  187.7190  171.7660  134.7620 O   0  0  0  0  0  0  0  0  0  0  0  0
  187.1790  172.9180  136.7570 C   0  0  0  0  0  3  0  0  0  0  0  0
  189.8250  173.5470  136.8310 C   0  0  0  0  0  0  0  0  0  0  0  0
  190.7530  173.3550  135.9480 N   0  0  0  0  0  0  0  0  0  0  0  0
  190.2500  172.4270  134.9230 C   0  0  0  0  0  2  0  0  0  0  0  0
  188.8550  172.2160  135.3820 C   0  0  0  0  0  0  0  0  0  0  0  0
  188.6310  172.7850  136.5100 C   0  0  0  0  0  0  0  0  0  0  0  0
  189.9430  174.4720  137.9120 N   0  0  0  0  0  2  0  0  0  0  0  0
  184.2990  178.9120  141.4560 C   0  0  0  0  0  2  0  0  0  0  0  0
  182.5980  177.7660  139.9070 C   0  0  1  0  0  0  0  0  0  0  0  0
  181.7300  177.7760  141.1810 C   0  0  0  0  0  1  0  0  0  0  0  0
  182.3320  178.9880  139.0110 C   0  0  1  0  0  3  0  0  0  0  0  0
  183.8090  179.3580  139.0810 C   0  0  0  0  0  2  0  0  0  0  0  0
  184.0520  178.2520  140.0990 C   0  0  1  0  0  3  0  0  0  0  0  0
  181.7670  178.7130  137.6070 C   0  0  2  0  0  3  0  0  0  0  0  0
  180.7410  177.7660  137.6210 O   0  0  0  0  0  1  0  0  0  0  0  0
  182.8920  178.2610  136.6860 C   0  0  0  0  0  2  0  0  0  0  0  0
  182.5400  177.0420  136.0910 O   0  0  0  0  0  0  0  0  0  0  0  0
  183.6840  176.2230  136.1330 C   0  0  1  0  0  3  0  0  0  0  0  0
  184.9080  174.9890  134.4110 O   0  0  0  0  0  0  0  0  0  0  0  0
  182.6800  174.7100  134.6710 O   0  0  0  0  0  0  0  0  0  0  0  0
  183.6980  175.3660  134.9560 N   0  0  0  0  0  0  0  0  0  0  0  0
  184.9610  177.0850  136.1640 C   0  0  0  0  0  2  0  0  0  0  0  0
  185.9470  176.6240  137.2290 C   0  0  0  0  0  2  0  0  0  0  0  0
  187.3540  177.0450  136.9240 C   0  0  0  0  0  3  0  0  0  0  0  0
  187.9790  176.5170  136.0210 O   0  0  0  0  0  0  0  0  0  0  0  0
  182.6160  176.5190  139.2240 O   0  0  0  0  0  0  0  0  0  0  0  0
  181.4680  175.7860  139.5610 C   0  0  0  0  0  1  0  0  0  0  0  0
  1 14  1  0  0  0  0
  2 12  1  0  0  0  0
  2  5  1  0  0  0  0
  4 20  1  1  0  0  0
  4  8  1  0  0  0  0
  4  7  1  0  0  0  0
  5 48  1  6  0  0  0
  5  3  1  0  0  0  0
  6  9  1  0  0  0  0
  7 13  1  0  0  0  0
  9  1  2  0  0  0  0
 10  6  1  0  0  0  0
 11  3  1  1  0  0  0
 11 10  1  0  0  0  0
 12  8  1  1  0  0  0
 12 11  1  0  0  0  0
 13 10  2  0  0  0  0
 14 18  1  0  0  0  0
 15 14  2  0  0  0  0
 15 17  1  0  0  0  0
 17 16  1  0  0  0  0
 18 19  1  0  0  0  0
 21 22  1  0  0  0  0
 21 20  1  1  0  0  0
 22 24  2  0  0  0  0
 23 25  1  0  0  0  0
 23 22  1  0  0  0  0
 27 33  1  0  0  0  0
 27 31  2  0  0  0  0
 28 34  1  1  0  0  0
 28 29  1  0  0  0  0
 30 29  1  0  0  0  0
 30 25  1  1  0  0  0
 31 30  1  0  0  0  0
 32 27  1  0  0  0  0
 33 26  1  6  0  0  0
 33 28  1  0  0  0  0
 35 34  1  0  0  0  0
 36 35  1  0  0  0  0
 37 38  1  0  0  0  0
 37 21  1  0  0  0  0
 39 41  2  0  0  0  0
 40 45  1  0  0  0  0
 40 39  1  0  0  0  0
 42 47  1  0  0  0  0
 43 42  2  0  0  0  0
 44 45  1  0  0  0  0
 44 43  1  0  0  0  0
 45 46  2  0  0  0  0
 46 41  1  0  0  0  0
 46 42  1  0  0  0  0
 47 38  1  0  0  0  0
 49 53  1  0  0  0  0
 49 50  1  1  0  0  0
 51 54  1  6  0  0  0
 51 52  1  0  0  0  0
 51 49  1  0  0  0  0
 52 53  1  0  0  0  0
 53 48  1  1  0  0  0
 54 55  1  1  0  0  0
 56 54  1  0  0  0  0
 57 58  1  0  0  0  0
 57 56  1  0  0  0  0
 58 62  1  6  0  0  0
 59 61  2  0  0  0  0
 60 61  2  0  0  0  0
 61 58  1  0  0  0  0
 62 63  1  0  0  0  0
 64 63  1  0  0  0  0
 65 64  2  0  0  0  0
 66 67  1  0  0  0  0
 66 49  1  0  0  0  0
M  END
>  <MODEL>
4

>  <REMARK>
 VINA RESULT:      -4.7      3.662     10.925
  Name = 
  24 active torsions:
  status: ('A' for Active; 'I' for Inactive)
    1  A    between atoms: C_1  and  O_51
    2  A    between atoms: N_4  and  CA_29
    3  A    between atoms: C_7  and  C_32
    4  A    between atoms: C_7  and  N_54
    5  A    between atoms: C_10  and  C_25
    6  A    between atoms: C_10  and  C_38
    7  A    between atoms: C_14  and  O_18
    8  A    between atoms: C_15  and  C_34
    9  A    between atoms: C_16  and  O_18
   10  A    between atoms: C_19  and  C_30
   11  A    between atoms: C_19  and  C_65
   12  A    between atoms: C_21  and  C_48
   13  A    between atoms: C_22  and  N_37
   14  A    between atoms: C_22  and  C_48
   15  A    between atoms: C_22  and  C_52
   16  A    between atoms: C_25  and  O_60
   17  A    between atoms: C_26  and  C_45
   18  A    between atoms: CA_29  and  C_40
   19  A    between atoms: N_37  and  N_39
   20  A    between atoms: N_39  and  N_63
   21  A    between atoms: C_44  and  C_45
   22  A    between atoms: C_44  and  C_50
   23  A    between atoms: C_50  and  O_60
   24  A    between atoms: C_50  and  N_66
                            x       y       z     vdW  Elec       q    Type
                         _______ _______ _______ _____ _____    ______ ____

>  <TORSDO>
F 24

$$$$
=
 OpenBabel10232409153D

 67 72  0  0  1  0  0  0  0  0999 V2000
  185.9790  177.3080  145.7520 N   0  0  0  0  0  0  0  0  0  0  0  0
  185.6760  179.1660  139.4650 O   0  0  0  0  0  0  0  0  0  0  0  0
  185.3330  179.1390  141.7840 C   0  0  0  0  0  2  0  0  0  0  0  0
  188.9450  177.6770  139.7280 C   0  0  1  0  0  3  0  0  0  0  0  0
  184.6960  179.4200  140.4520 C   0  0  2  0  0  3  0  0  0  0  0  0
  187.1440  177.9340  143.7680 N   0  0  0  0  0  2  0  0  0  0  0  0
  188.6040  176.5190  140.6690 C   0  0  0  0  0  2  0  0  0  0  0  0
  187.8880  178.7880  139.8080 C   0  0  0  0  0  2  0  0  0  0  0  0
  186.0910  177.2580  144.4570 C   0  0  0  0  0  3  0  0  0  0  0  0
  187.3530  177.7200  142.3690 C   0  0  0  0  0  0  0  0  0  0  0  0
  186.2060  178.0010  141.3970 C   0  0  2  0  0  3  0  0  0  0  0  0
  186.5470  178.2340  139.9780 N   0  0  1  0  0  0  0  0  0  0  0  0
  188.3760  176.9970  142.0230 N   0  0  0  0  0  0  0  0  0  0  0  0
  186.8280  178.0860  146.5960 C   0  0  0  0  0  0  0  0  0  0  0  0
  188.0420  177.6210  146.9060 C   0  0  0  0  0  3  0  0  0  0  0  0
  188.7950  178.0370  149.2240 C   0  0  0  0  0  1  0  0  0  0  0  0
  189.0150  178.3690  147.7580 C   0  0  0  0  0  2  0  0  0  0  0  0
  186.3560  179.4350  147.0590 C   0  0  0  0  0  2  0  0  0  0  0  0
  184.9780  179.5590  146.8540 O   0  0  0  0  0  1  0  0  0  0  0  0
  190.3200  178.2980  140.0150 C   0  0  0  0  0  2  0  0  0  0  0  0
  191.3840  177.2890  140.4650 C   0  0  1  0  0  3  0  0  0  0  0  0
  192.4350  177.0780  139.4190 C   0  0  0  0  0  0  0  0  0  0  0  0
  192.0830  176.5520  138.1320 N   0  0  0  0  0  2  0  0  0  0  0  0
  193.6270  177.3990  139.6700 O   0  0  0  0  0  0  0  0  0  0  0  0
  193.0760  176.1620  137.1330 C   0  0  0  0  0  2  0  0  0  0  0  0
  196.2830  171.6770  137.8620 O   0  0  0  0  0  1  0  0  0  0  0  0
  194.2760  172.6100  136.9800 C   0  0  0  0  0  0  0  0  0  0  0  0
  196.2540  174.0780  137.6900 C   0  0  1  0  0  3  0  0  0  0  0  0
  195.3900  175.2310  137.1850 C   0  0  0  0  0  2  0  0  0  0  0  0
  193.9470  175.0030  137.6180 C   0  0  2  0  0  3  0  0  0  0  0  0
  193.4550  173.6620  137.1300 C   0  0  0  0  0  3  0  0  0  0  0  0
  193.7540  171.4340  136.5460 F   0  0  0  0  0  0  0  0  0  0  0  0
  195.7780  172.7350  137.1050 C   0  0  1  0  0  3  0  0  0  0  0  0
  197.5880  174.2990  137.3200 O   0  0  0  0  0  0  0  0  0  0  0  0
  198.2860  174.4410  138.5250 C   0  0  0  0  0  2  0  0  0  0  0  0
  198.3760  175.7860  138.8560 O   0  0  0  0  0  1  0  0  0  0  0  0
  191.9740  177.6640  141.7500 N   0  0  0  0  0  2  0  0  0  0  0  0
  191.0080  178.3460  142.5150 N   0  0  0  0  0  2  0  0  0  0  0  0
  191.8230  175.8380  147.9600 C   0  0  0  0  0  3  0  0  0  0  0  0
  191.9860  174.7350  147.0640 O   0  0  0  0  0  0  0  0  0  0  0  0
  191.6870  177.0820  147.0540 C   0  0  0  0  0  3  0  0  0  0  0  0
  191.6690  176.8300  144.3450 C   0  0  0  0  0  0  0  0  0  0  0  0
  191.6510  175.7670  143.6060 N   0  0  0  0  0  0  0  0  0  0  0  0
  191.9520  174.5980  144.4470 C   0  0  0  0  0  2  0  0  0  0  0  0
  192.0620  175.2260  145.7870 C   0  0  0  0  0  0  0  0  0  0  0  0
  191.9820  176.5040  145.7240 C   0  0  0  0  0  0  0  0  0  0  0  0
  191.3180  178.1300  143.8670 N   0  0  0  0  0  2  0  0  0  0  0  0
  183.5100  178.4860  140.2090 C   0  0  0  0  0  2  0  0  0  0  0  0
  182.3540  177.0070  138.4530 C   0  0  1  0  0  0  0  0  0  0  0  0
  181.1460  177.1750  139.3970 C   0  0  0  0  0  1  0  0  0  0  0  0
  182.3590  178.0490  137.3220 C   0  0  1  0  0  3  0  0  0  0  0  0
  183.7470  178.5090  137.7550 C   0  0  0  0  0  2  0  0  0  0  0  0
  183.6830  177.6000  138.9750 C   0  0  1  0  0  3  0  0  0  0  0  0
  182.2400  177.5160  135.8830 C   0  0  2  0  0  3  0  0  0  0  0  0
  180.9980  176.9300  135.6330 O   0  0  0  0  0  1  0  0  0  0  0  0
  183.3590  176.5180  135.6160 C   0  0  0  0  0  2  0  0  0  0  0  0
  184.4920  177.2060  135.1600 O   0  0  0  0  0  0  0  0  0  0  0  0
  185.5780  176.3170  135.2650 C   0  0  1  0  0  3  0  0  0  0  0  0
  187.9850  176.4120  135.6980 O   0  0  0  0  0  0  0  0  0  0  0  0
  186.8370  178.2750  135.1330 O   0  0  0  0  0  0  0  0  0  0  0  0
  186.7980  177.0810  135.4830 N   0  0  0  0  0  0  0  0  0  0  0  0
  185.3610  175.3400  136.4370 C   0  0  0  0  0  2  0  0  0  0  0  0
  185.7560  173.9120  136.0830 C   0  0  0  0  0  2  0  0  0  0  0  0
  186.9830  173.4610  136.8180 C   0  0  0  0  0  3  0  0  0  0  0  0
  187.8890  172.8980  136.2290 O   0  0  0  0  0  0  0  0  0  0  0  0
  182.5830  175.6680  138.0320 O   0  0  0  0  0  0  0  0  0  0  0  0
  181.4920  174.8680  138.4070 C   0  0  0  0  0  1  0  0  0  0  0  0
  1 14  1  0  0  0  0
  2 12  1  0  0  0  0
  2  5  1  0  0  0  0
  4  8  1  0  0  0  0
  4 20  1  1  0  0  0
  4  7  1  0  0  0  0
  5 48  1  6  0  0  0
  5  3  1  0  0  0  0
  6  9  1  0  0  0  0
  7 13  1  0  0  0  0
  9  1  2  0  0  0  0
 10  6  1  0  0  0  0
 11  3  1  1  0  0  0
 11 10  1  0  0  0  0
 12  8  1  1  0  0  0
 12 11  1  0  0  0  0
 13 10  2  0  0  0  0
 14 15  2  0  0  0  0
 14 18  1  0  0  0  0
 15 17  1  0  0  0  0
 17 16  1  0  0  0  0
 19 18  1  0  0  0  0
 21 20  1  6  0  0  0
 21 37  1  0  0  0  0
 22 24  2  0  0  0  0
 22 21  1  0  0  0  0
 23 22  1  0  0  0  0
 25 23  1  0  0  0  0
 27 33  1  0  0  0  0
 27 31  2  0  0  0  0
 28 34  1  6  0  0  0
 29 30  1  0  0  0  0
 29 28  1  0  0  0  0
 30 25  1  6  0  0  0
 31 30  1  0  0  0  0
 32 27  1  0  0  0  0
 33 28  1  0  0  0  0
 33 26  1  1  0  0  0
 34 35  1  0  0  0  0
 35 36  1  0  0  0  0
 37 38  1  0  0  0  0
 38 47  1  0  0  0  0
 40 39  1  0  0  0  0
 41 39  2  0  0  0  0
 42 46  1  0  0  0  0
 43 42  2  0  0  0  0
 43 44  1  0  0  0  0
 44 45  1  0  0  0  0
 45 40  1  0  0  0  0
 46 45  2  0  0  0  0
 46 41  1  0  0  0  0
 47 42  1  0  0  0  0
 49 53  1  0  0  0  0
 49 50  1  1  0  0  0
 51 54  1  6  0  0  0
 51 52  1  0  0  0  0
 51 49  1  0  0  0  0
 52 53  1  0  0  0  0
 53 48  1  1  0  0  0
 54 55  1  1  0  0  0
 56 54  1  0  0  0  0
 57 58  1  0  0  0  0
 57 56  1  0  0  0  0
 58 61  1  0  0  0  0
 58 62  1  1  0  0  0
 60 61  2  0  0  0  0
 61 59  2  0  0  0  0
 63 62  1  0  0  0  0
 63 64  1  0  0  0  0
 65 64  2  0  0  0  0
 66 67  1  0  0  0  0
 66 49  1  0  0  0  0
M  END
>  <MODEL>
5

>  <REMARK>
 VINA RESULT:      -4.4      3.417     11.147
  Name = 
  24 active torsions:
  status: ('A' for Active; 'I' for Inactive)
    1  A    between atoms: C_1  and  O_51
    2  A    between atoms: N_4  and  CA_29
    3  A    between atoms: C_7  and  C_32
    4  A    between atoms: C_7  and  N_54
    5  A    between atoms: C_10  and  C_25
    6  A    between atoms: C_10  and  C_38
    7  A    between atoms: C_14  and  O_18
    8  A    between atoms: C_15  and  C_34
    9  A    between atoms: C_16  and  O_18
   10  A    between atoms: C_19  and  C_30
   11  A    between atoms: C_19  and  C_65
   12  A    between atoms: C_21  and  C_48
   13  A    between atoms: C_22  and  N_37
   14  A    between atoms: C_22  and  C_48
   15  A    between atoms: C_22  and  C_52
   16  A    between atoms: C_25  and  O_60
   17  A    between atoms: C_26  and  C_45
   18  A    between atoms: CA_29  and  C_40
   19  A    between atoms: N_37  and  N_39
   20  A    between atoms: N_39  and  N_63
   21  A    between atoms: C_44  and  C_45
   22  A    between atoms: C_44  and  C_50
   23  A    between atoms: C_50  and  O_60
   24  A    between atoms: C_50  and  N_66
                            x       y       z     vdW  Elec       q    Type
                         _______ _______ _______ _____ _____    ______ ____

>  <TORSDO>
F 24

$$$$
=
 OpenBabel10232409153D

 67 72  0  0  1  0  0  0  0  0999 V2000
  189.7790  178.5070  143.6490 N   0  0  0  0  0  0  0  0  0  0  0  0
  188.8520  176.2390  137.5600 O   0  0  0  0  0  0  0  0  0  0  0  0
  189.6090  176.3910  139.7740 C   0  0  0  0  0  2  0  0  0  0  0  0
  185.7620  177.9400  138.2860 C   0  0  1  0  0  3  0  0  0  0  0  0
  189.9800  175.9880  138.3750 C   0  0  2  0  0  3  0  0  0  0  0  0
  188.2460  177.8290  141.9520 N   0  0  0  0  0  2  0  0  0  0  0  0
  186.3230  179.1320  139.0650 C   0  0  0  0  0  2  0  0  0  0  0  0
  186.7600  176.7740  138.2600 C   0  0  0  0  0  2  0  0  0  0  0  0
  189.4380  178.4810  142.3940 C   0  0  0  0  0  3  0  0  0  0  0  0
  187.7990  177.9670  140.6010 C   0  0  0  0  0  0  0  0  0  0  0  0
  188.7380  177.5540  139.4650 C   0  0  2  0  0  3  0  0  0  0  0  0
  188.1350  177.2540  138.1490 N   0  0  1  0  0  0  0  0  0  0  0  0
  186.7670  178.7270  140.3890 N   0  0  0  0  0  0  0  0  0  0  0  0
  189.0600  177.8370  144.6840 C   0  0  0  0  0  0  0  0  0  0  0  0
  187.8590  178.3010  145.0490 C   0  0  0  0  0  3  0  0  0  0  0  0
  185.8580  178.5680  146.4760 C   0  0  0  0  0  1  0  0  0  0  0  0
  187.0160  177.6580  146.1000 C   0  0  0  0  0  2  0  0  0  0  0  0
  189.6430  176.5930  145.2900 C   0  0  0  0  0  2  0  0  0  0  0  0
  190.5610  176.9300  146.2900 O   0  0  0  0  0  1  0  0  0  0  0  0
  184.4320  177.4240  138.8560 C   0  0  0  0  0  2  0  0  0  0  0  0
  183.5110  176.7770  137.8130 C   0  0  1  0  0  3  0  0  0  0  0  0
  184.2540  175.8350  136.9160 C   0  0  0  0  0  0  0  0  0  0  0  0
  184.6840  176.2580  135.6150 N   0  0  0  0  0  2  0  0  0  0  0  0
  184.5270  174.6770  137.3310 O   0  0  0  0  0  0  0  0  0  0  0  0
  185.2570  175.3430  134.6300 C   0  0  0  0  0  2  0  0  0  0  0  0
  187.2190  170.3170  135.9770 O   0  0  0  0  0  1  0  0  0  0  0  0
  185.6040  171.6110  134.7960 C   0  0  0  0  0  0  0  0  0  0  0  0
  187.7710  172.6440  135.6960 C   0  0  1  0  0  3  0  0  0  0  0  0
  187.2660  173.9200  135.0310 C   0  0  0  0  0  2  0  0  0  0  0  0
  185.7690  174.0570  135.2770 C   0  0  2  0  0  3  0  0  0  0  0  0
  185.0400  172.8290  134.7870 C   0  0  0  0  0  3  0  0  0  0  0  0
  184.8790  170.5550  134.3480 F   0  0  0  0  0  0  0  0  0  0  0  0
  187.0690  171.4030  135.1130 C   0  0  1  0  0  3  0  0  0  0  0  0
  189.1550  172.5300  135.4980 O   0  0  0  0  0  0  0  0  0  0  0  0
  189.5090  173.6440  134.7300 C   0  0  0  0  0  2  0  0  0  0  0  0
  190.8400  173.5420  134.3470 O   0  0  0  0  0  1  0  0  0  0  0  0
  182.3610  176.1260  138.4400 N   0  0  0  0  0  2  0  0  0  0  0  0
  181.3450  177.0800  138.6360 N   0  0  0  0  0  2  0  0  0  0  0  0
  179.9830  181.2340  134.4530 C   0  0  0  0  0  3  0  0  0  0  0  0
  180.2060  182.0160  135.6310 O   0  0  0  0  0  0  0  0  0  0  0  0
  180.3620  179.7890  134.8470 C   0  0  0  0  0  3  0  0  0  0  0  0
  181.1250  179.1970  137.3900 C   0  0  0  0  0  0  0  0  0  0  0  0
  181.1380  179.9400  138.4510 N   0  0  0  0  0  0  0  0  0  0  0  0
  180.9490  181.3430  138.0530 C   0  0  0  0  0  2  0  0  0  0  0  0
  180.7580  181.2050  136.5880 C   0  0  0  0  0  0  0  0  0  0  0  0
  180.9370  179.9970  136.1940 C   0  0  0  0  0  0  0  0  0  0  0  0
  181.1820  177.7710  137.4250 N   0  0  0  0  0  2  0  0  0  0  0  0
  191.1480  176.8310  137.8590 C   0  0  0  0  0  2  0  0  0  0  0  0
  193.5420  175.9890  137.4490 C   0  0  1  0  0  0  0  0  0  0  0  0
  193.8590  176.9180  138.6380 C   0  0  0  0  0  1  0  0  0  0  0  0
  193.2920  174.5380  137.8940 C   0  0  1  0  0  3  0  0  0  0  0  0
  191.9190  174.5740  137.2320 C   0  0  0  0  0  2  0  0  0  0  0  0
  192.0870  176.0570  136.9330 C   0  0  1  0  0  3  0  0  0  0  0  0
  194.2690  173.4700  137.3720 C   0  0  2  0  0  3  0  0  0  0  0  0
  193.6130  172.4130  136.7390 O   0  0  0  0  0  1  0  0  0  0  0  0
  195.1190  172.9520  138.5240 C   0  0  0  0  0  2  0  0  0  0  0  0
  195.5160  171.6370  138.2500 O   0  0  0  0  0  0  0  0  0  0  0  0
  196.8160  171.7070  137.7150 C   0  0  1  0  0  3  0  0  0  0  0  0
  195.8580  170.1270  136.1100 O   0  0  0  0  0  0  0  0  0  0  0  0
  197.4660  171.5860  135.4790 O   0  0  0  0  0  0  0  0  0  0  0  0
  196.8280  171.0610  136.4100 N   0  0  0  0  0  0  0  0  0  0  0  0
  197.2600  173.1750  137.5720 C   0  0  0  0  0  2  0  0  0  0  0  0
  198.7590  173.3510  137.7760 C   0  0  0  0  0  2  0  0  0  0  0  0
  199.0900  174.6170  138.5090 C   0  0  0  0  0  3  0  0  0  0  0  0
  200.2310  175.0450  138.5260 O   0  0  0  0  0  0  0  0  0  0  0  0
  194.4290  176.1290  136.3460 O   0  0  0  0  0  0  0  0  0  0  0  0
  193.7040  176.5270  135.2130 C   0  0  0  0  0  1  0  0  0  0  0  0
  1 14  1  0  0  0  0
  2 12  1  0  0  0  0
  2  5  1  0  0  0  0
  4 20  1  1  0  0  0
  4  7  1  0  0  0  0
  5 48  1  6  0  0  0
  5  3  1  0  0  0  0
  6  9  1  0  0  0  0
  7 13  1  0  0  0  0
  8  4  1  0  0  0  0
  9  1  2  0  0  0  0
 10  6  1  0  0  0  0
 11  3  1  1  0  0  0
 11 10  1  0  0  0  0
 12  8  1  1  0  0  0
 12 11  1  0  0  0  0
 13 10  2  0  0  0  0
 14 15  2  0  0  0  0
 14 18  1  0  0  0  0
 15 17  1  0  0  0  0
 17 16  1  0  0  0  0
 18 19  1  0  0  0  0
 21 37  1  0  0  0  0
 21 20  1  1  0  0  0
 22 24  2  0  0  0  0
 22 21  1  0  0  0  0
 23 22  1  0  0  0  0
 25 23  1  0  0  0  0
 27 33  1  0  0  0  0
 28 34  1  6  0  0  0
 29 30  1  0  0  0  0
 29 28  1  0  0  0  0
 30 25  1  6  0  0  0
 31 27  2  0  0  0  0
 31 30  1  0  0  0  0
 32 27  1  0  0  0  0
 33 28  1  0  0  0  0
 33 26  1  1  0  0  0
 35 34  1  0  0  0  0
 36 35  1  0  0  0  0
 37 38  1  0  0  0  0
 39 41  2  0  0  0  0
 39 40  1  0  0  0  0
 40 45  1  0  0  0  0
 41 46  1  0  0  0  0
 42 47  1  0  0  0  0
 42 43  2  0  0  0  0
 44 43  1  0  0  0  0
 45 44  1  0  0  0  0
 46 45  2  0  0  0  0
 46 42  1  0  0  0  0
 47 38  1  0  0  0  0
 49 51  1  0  0  0  0
 49 50  1  1  0  0  0
 51 54  1  6  0  0  0
 52 51  1  0  0  0  0
 53 52  1  0  0  0  0
 53 49  1  0  0  0  0
 53 48  1  1  0  0  0
 54 55  1  1  0  0  0
 54 56  1  0  0  0  0
 57 56  1  0  0  0  0
 58 62  1  6  0  0  0
 58 57  1  0  0  0  0
 59 61  2  0  0  0  0
 60 61  2  0  0  0  0
 61 58  1  0  0  0  0
 62 63  1  0  0  0  0
 63 64  1  0  0  0  0
 64 65  2  0  0  0  0
 66 49  1  0  0  0  0
 67 66  1  0  0  0  0
M  END
>  <MODEL>
6

>  <REMARK>
 VINA RESULT:      -4.4      3.270      6.230
  Name = 
  24 active torsions:
  status: ('A' for Active; 'I' for Inactive)
    1  A    between atoms: C_1  and  O_51
    2  A    between atoms: N_4  and  CA_29
    3  A    between atoms: C_7  and  C_32
    4  A    between atoms: C_7  and  N_54
    5  A    between atoms: C_10  and  C_25
    6  A    between atoms: C_10  and  C_38
    7  A    between atoms: C_14  and  O_18
    8  A    between atoms: C_15  and  C_34
    9  A    between atoms: C_16  and  O_18
   10  A    between atoms: C_19  and  C_30
   11  A    between atoms: C_19  and  C_65
   12  A    between atoms: C_21  and  C_48
   13  A    between atoms: C_22  and  N_37
   14  A    between atoms: C_22  and  C_48
   15  A    between atoms: C_22  and  C_52
   16  A    between atoms: C_25  and  O_60
   17  A    between atoms: C_26  and  C_45
   18  A    between atoms: CA_29  and  C_40
   19  A    between atoms: N_37  and  N_39
   20  A    between atoms: N_39  and  N_63
   21  A    between atoms: C_44  and  C_45
   22  A    between atoms: C_44  and  C_50
   23  A    between atoms: C_50  and  O_60
   24  A    between atoms: C_50  and  N_66
                            x       y       z     vdW  Elec       q    Type
                         _______ _______ _______ _____ _____    ______ ____

>  <TORSDO>
F 24

$$$$
=
 OpenBabel10232409153D

 67 72  0  0  1  0  0  0  0  0999 V2000
  188.2510  176.6200  146.5810 N   0  0  0  0  0  0  0  0  0  0  0  0
  185.9070  179.4780  141.1580 O   0  0  0  0  0  0  0  0  0  0  0  0
  186.4550  179.1150  143.4090 C   0  0  0  0  0  2  0  0  0  0  0  0
  188.7730  177.6580  139.9580 C   0  0  1  0  0  3  0  0  0  0  0  0
  185.4170  179.6660  142.4710 C   0  0  2  0  0  3  0  0  0  0  0  0
  188.6720  177.4400  144.3810 N   0  0  0  0  0  2  0  0  0  0  0  0
  188.6390  176.4030  140.8230 C   0  0  0  0  0  2  0  0  0  0  0  0
  188.0040  178.8380  140.5660 C   0  0  0  0  0  2  0  0  0  0  0  0
  187.8640  176.7680  145.3480 C   0  0  0  0  0  3  0  0  0  0  0  0
  188.3090  177.4320  142.9980 C   0  0  0  0  0  0  0  0  0  0  0  0
  186.9380  177.9750  142.5890 C   0  0  2  0  0  3  0  0  0  0  0  0
  186.7560  178.3970  141.1840 N   0  0  1  0  0  0  0  0  0  0  0  0
  189.0070  176.6790  142.2020 N   0  0  0  0  0  0  0  0  0  0  0  0
  189.4600  177.1690  147.1060 C   0  0  0  0  0  0  0  0  0  0  0  0
  190.6210  176.5560  146.8460 C   0  0  0  0  0  3  0  0  0  0  0  0
  192.7170  175.9480  148.0070 C   0  0  0  0  0  1  0  0  0  0  0  0
  191.9420  177.0630  147.3260 C   0  0  0  0  0  2  0  0  0  0  0  0
  189.4010  178.4520  147.8830 C   0  0  0  0  0  2  0  0  0  0  0  0
  188.1820  178.5490  148.5610 O   0  0  0  0  0  1  0  0  0  0  0  0
  190.2340  178.0900  139.7510 C   0  0  0  0  0  2  0  0  0  0  0  0
  191.0080  177.2250  138.7470 C   0  0  1  0  0  3  0  0  0  0  0  0
  190.3080  177.1360  137.4260 C   0  0  0  0  0  0  0  0  0  0  0  0
  190.3840  175.9370  136.6430 N   0  0  0  0  0  2  0  0  0  0  0  0
  189.6220  178.1150  137.0260 O   0  0  0  0  0  0  0  0  0  0  0  0
  189.8730  175.8450  135.2780 C   0  0  0  0  0  2  0  0  0  0  0  0
  185.6400  172.2830  135.8470 O   0  0  0  0  0  1  0  0  0  0  0  0
  187.7390  173.0770  136.6450 C   0  0  0  0  0  0  0  0  0  0  0  0
  186.3090  174.4390  135.0100 C   0  0  1  0  0  3  0  0  0  0  0  0
  187.4070  175.4890  135.1540 C   0  0  0  0  0  2  0  0  0  0  0  0
  188.7650  174.7990  135.1530 C   0  0  2  0  0  3  0  0  0  0  0  0
  188.8260  173.7540  136.2410 C   0  0  0  0  0  3  0  0  0  0  0  0
  187.8790  172.1460  137.6220 F   0  0  0  0  0  0  0  0  0  0  0  0
  186.3450  173.4390  136.1820 C   0  0  1  0  0  3  0  0  0  0  0  0
  185.0580  175.0730  134.9800 O   0  0  0  0  0  0  0  0  0  0  0  0
  184.7700  175.3830  136.3140 C   0  0  0  0  0  2  0  0  0  0  0  0
  185.0270  176.7280  136.5450 O   0  0  0  0  0  1  0  0  0  0  0  0
  192.3880  177.6850  138.5930 N   0  0  0  0  0  2  0  0  0  0  0  0
  193.2320  176.8700  139.3720 N   0  0  0  0  0  2  0  0  0  0  0  0
  195.6390  172.1520  136.4480 C   0  0  0  0  0  3  0  0  0  0  0  0
  196.6920  172.5670  137.3220 O   0  0  0  0  0  0  0  0  0  0  0  0
  194.4220  173.0220  136.8340 C   0  0  0  0  0  3  0  0  0  0  0  0
  194.6430  174.9480  138.7440 C   0  0  0  0  0  0  0  0  0  0  0  0
  195.6880  175.3790  139.3750 N   0  0  0  0  0  0  0  0  0  0  0  0
  196.8030  174.4490  139.1430 C   0  0  0  0  0  2  0  0  0  0  0  0
  196.1810  173.4790  138.2080 C   0  0  0  0  0  0  0  0  0  0  0  0
  194.9310  173.7100  138.0410 C   0  0  0  0  0  0  0  0  0  0  0  0
  193.4110  175.6660  138.6720 N   0  0  0  0  0  2  0  0  0  0  0  0
  184.1000  178.9010  142.6100 C   0  0  0  0  0  2  0  0  0  0  0  0
  182.9460  178.0720  140.4680 C   0  0  1  0  0  0  0  0  0  0  0  0
  183.9980  176.9500  140.5740 C   0  0  0  0  0  1  0  0  0  0  0  0
  181.6130  177.6860  141.1300 C   0  0  1  0  0  3  0  0  0  0  0  0
  181.7040  178.9150  142.0260 C   0  0  0  0  0  2  0  0  0  0  0  0
  183.1000  179.2150  141.4970 C   0  0  1  0  0  3  0  0  0  0  0  0
  180.3790  177.6040  140.2150 C   0  0  2  0  0  3  0  0  0  0  0  0
  180.5810  176.7600  139.1210 O   0  0  0  0  0  1  0  0  0  0  0  0
  180.0010  179.0010  139.7430 C   0  0  0  0  0  2  0  0  0  0  0  0
  180.4890  179.1980  138.4450 O   0  0  0  0  0  0  0  0  0  0  0  0
  179.9990  180.4430  138.0090 C   0  0  1  0  0  3  0  0  0  0  0  0
  181.9800  181.8110  138.4480 O   0  0  0  0  0  0  0  0  0  0  0  0
  179.9850  182.3340  139.3730 O   0  0  0  0  0  0  0  0  0  0  0  0
  180.6690  181.5030  138.7490 N   0  0  0  0  0  0  0  0  0  0  0  0
  180.2520  180.6220  136.5000 C   0  0  0  0  0  2  0  0  0  0  0  0
  181.4680  179.8410  136.0190 C   0  0  0  0  0  2  0  0  0  0  0  0
  181.0900  178.6710  135.1600 C   0  0  0  0  0  3  0  0  0  0  0  0
  181.0840  177.5410  135.6160 O   0  0  0  0  0  0  0  0  0  0  0  0
  182.8250  178.6360  139.1680 O   0  0  0  0  0  0  0  0  0  0  0  0
  183.9880  179.3600  138.8640 C   0  0  0  0  0  1  0  0  0  0  0  0
  1 14  1  0  0  0  0
  2 12  1  0  0  0  0
  2  5  1  0  0  0  0
  4 20  1  1  0  0  0
  4  8  1  0  0  0  0
  4  7  1  0  0  0  0
  5 48  1  6  0  0  0
  5  3  1  0  0  0  0
  6  9  1  0  0  0  0
  7 13  1  0  0  0  0
  9  1  2  0  0  0  0
 10  6  1  0  0  0  0
 11 10  1  0  0  0  0
 11  3  1  1  0  0  0
 12  8  1  1  0  0  0
 12 11  1  0  0  0  0
 13 10  2  0  0  0  0
 14 18  1  0  0  0  0
 15 14  2  0  0  0  0
 15 17  1  0  0  0  0
 17 16  1  0  0  0  0
 18 19  1  0  0  0  0
 21 20  1  1  0  0  0
 22 21  1  0  0  0  0
 23 22  1  0  0  0  0
 24 22  2  0  0  0  0
 25 23  1  0  0  0  0
 27 32  1  0  0  0  0
 28 34  1  1  0  0  0
 28 29  1  0  0  0  0
 28 33  1  0  0  0  0
 30 29  1  0  0  0  0
 30 25  1  1  0  0  0
 30 31  1  0  0  0  0
 31 27  2  0  0  0  0
 33 26  1  6  0  0  0
 33 27  1  0  0  0  0
 34 35  1  0  0  0  0
 35 36  1  0  0  0  0
 37 21  1  0  0  0  0
 37 38  1  0  0  0  0
 39 41  2  0  0  0  0
 39 40  1  0  0  0  0
 40 45  1  0  0  0  0
 41 46  1  0  0  0  0
 42 43  2  0  0  0  0
 44 43  1  0  0  0  0
 45 44  1  0  0  0  0
 46 45  2  0  0  0  0
 46 42  1  0  0  0  0
 47 42  1  0  0  0  0
 47 38  1  0  0  0  0
 49 50  1  1  0  0  0
 49 51  1  0  0  0  0
 49 53  1  0  0  0  0
 51 54  1  6  0  0  0
 51 52  1  0  0  0  0
 53 52  1  0  0  0  0
 53 48  1  1  0  0  0
 54 55  1  6  0  0  0
 56 54  1  0  0  0  0
 57 56  1  0  0  0  0
 58 62  1  6  0  0  0
 58 57  1  0  0  0  0
 58 61  1  0  0  0  0
 59 61  2  0  0  0  0
 61 60  2  0  0  0  0
 63 62  1  0  0  0  0
 64 65  2  0  0  0  0
 64 63  1  0  0  0  0
 66 49  1  0  0  0  0
 67 66  1  0  0  0  0
M  END
>  <MODEL>
7

>  <REMARK>
 VINA RESULT:      -3.3      3.417     11.476
  Name = 
  24 active torsions:
  status: ('A' for Active; 'I' for Inactive)
    1  A    between atoms: C_1  and  O_51
    2  A    between atoms: N_4  and  CA_29
    3  A    between atoms: C_7  and  C_32
    4  A    between atoms: C_7  and  N_54
    5  A    between atoms: C_10  and  C_25
    6  A    between atoms: C_10  and  C_38
    7  A    between atoms: C_14  and  O_18
    8  A    between atoms: C_15  and  C_34
    9  A    between atoms: C_16  and  O_18
   10  A    between atoms: C_19  and  C_30
   11  A    between atoms: C_19  and  C_65
   12  A    between atoms: C_21  and  C_48
   13  A    between atoms: C_22  and  N_37
   14  A    between atoms: C_22  and  C_48
   15  A    between atoms: C_22  and  C_52
   16  A    between atoms: C_25  and  O_60
   17  A    between atoms: C_26  and  C_45
   18  A    between atoms: CA_29  and  C_40
   19  A    between atoms: N_37  and  N_39
   20  A    between atoms: N_39  and  N_63
   21  A    between atoms: C_44  and  C_45
   22  A    between atoms: C_44  and  C_50
   23  A    between atoms: C_50  and  O_60
   24  A    between atoms: C_50  and  N_66
                            x       y       z     vdW  Elec       q    Type
                         _______ _______ _______ _____ _____    ______ ____

>  <TORSDO>
F 24

$$$$
=
 OpenBabel10232409153D

 67 72  0  0  1  0  0  0  0  0999 V2000
  188.8510  173.1310  136.1210 N   0  0  0  0  0  0  0  0  0  0  0  0
  192.9560  177.3180  139.0670 O   0  0  0  0  0  0  0  0  0  0  0  0
  191.9110  176.0510  137.3940 C   0  0  0  0  0  2  0  0  0  0  0  0
  189.9350  177.6260  141.0030 C   0  0  1  0  0  3  0  0  0  0  0  0
  193.2260  176.5840  137.8890 C   0  0  2  0  0  3  0  0  0  0  0  0
  189.1340  175.0770  137.4690 N   0  0  0  0  0  2  0  0  0  0  0  0
  189.4960  176.1600  140.9960 C   0  0  0  0  0  2  0  0  0  0  0  0
  190.9150  177.9190  139.8580 C   0  0  0  0  0  2  0  0  0  0  0  0
  189.4880  173.7530  137.0690 C   0  0  0  0  0  3  0  0  0  0  0  0
  189.7270  175.6710  138.6280 C   0  0  0  0  0  0  0  0  0  0  0  0
  191.2500  175.7940  138.6990 C   0  0  2  0  0  3  0  0  0  0  0  0
  191.8160  176.7930  139.6300 N   0  0  1  0  0  0  0  0  0  0  0  0
  188.9850  175.7760  139.6900 N   0  0  0  0  0  0  0  0  0  0  0  0
  187.8060  173.7180  135.3460 C   0  0  0  0  0  0  0  0  0  0  0  0
  187.6090  175.0390  135.4110 C   0  0  0  0  0  3  0  0  0  0  0  0
  185.3650  176.0740  135.5000 C   0  0  0  0  0  1  0  0  0  0  0  0
  186.5620  175.7530  134.6210 C   0  0  0  0  0  2  0  0  0  0  0  0
  186.9980  172.8430  134.4310 C   0  0  0  0  0  2  0  0  0  0  0  0
  186.8000  171.5880  135.0160 O   0  0  0  0  0  1  0  0  0  0  0  0
  188.7560  178.6050  140.8920 C   0  0  0  0  0  2  0  0  0  0  0  0
  187.6730  178.4090  141.9610 C   0  0  1  0  0  3  0  0  0  0  0  0
  186.3600  178.9980  141.5440 C   0  0  0  0  0  0  0  0  0  0  0  0
  185.2050  178.1620  141.3920 N   0  0  0  0  0  2  0  0  0  0  0  0
  186.2750  180.2410  141.3600 O   0  0  0  0  0  0  0  0  0  0  0  0
  183.9460  178.6410  140.8240 C   0  0  0  0  0  2  0  0  0  0  0  0
  180.9850  175.2790  137.5290 O   0  0  0  0  0  1  0  0  0  0  0  0
  181.6540  175.8760  139.7370 C   0  0  0  0  0  0  0  0  0  0  0  0
  181.9690  177.4650  137.7490 C   0  0  1  0  0  3  0  0  0  0  0  0
  182.5050  178.4350  138.7980 C   0  0  0  0  0  2  0  0  0  0  0  0
  183.3880  177.6750  139.7800 C   0  0  2  0  0  3  0  0  0  0  0  0
  182.6240  176.5280  140.3970 C   0  0  0  0  0  3  0  0  0  0  0  0
  181.0210  174.8490  140.3580 F   0  0  0  0  0  0  0  0  0  0  0  0
  181.1230  176.3570  138.4040 C   0  0  1  0  0  3  0  0  0  0  0  0
  181.1800  178.1670  136.8260 O   0  0  0  0  0  0  0  0  0  0  0  0
  181.7210  179.4560  136.7840 C   0  0  0  0  0  2  0  0  0  0  0  0
  180.6960  180.3930  136.8100 O   0  0  0  0  0  1  0  0  0  0  0  0
  187.5350  177.0010  142.3350 N   0  0  0  0  0  2  0  0  0  0  0  0
  186.6320  176.9000  143.4110 N   0  0  0  0  0  2  0  0  0  0  0  0
  189.1980  178.1490  148.7450 C   0  0  0  0  0  3  0  0  0  0  0  0
  187.9670  178.8760  148.7960 O   0  0  0  0  0  0  0  0  0  0  0  0
  189.1310  177.3250  147.4400 C   0  0  0  0  0  3  0  0  0  0  0  0
  187.0070  177.5630  145.7560 C   0  0  0  0  0  0  0  0  0  0  0  0
  186.0020  178.3790  145.7920 N   0  0  0  0  0  0  0  0  0  0  0  0
  185.9690  179.0370  147.1070 C   0  0  0  0  0  2  0  0  0  0  0  0
  187.1880  178.4770  147.7420 C   0  0  0  0  0  0  0  0  0  0  0  0
  187.7380  177.5780  147.0100 C   0  0  0  0  0  0  0  0  0  0  0  0
  187.3920  176.8360  144.5890 N   0  0  0  0  0  2  0  0  0  0  0  0
  194.1780  175.4390  138.2400 C   0  0  0  0  0  2  0  0  0  0  0  0
  196.0440  173.8700  137.4240 C   0  0  1  0  0  0  0  0  0  0  0  0
  196.1270  173.5150  138.9220 C   0  0  0  0  0  1  0  0  0  0  0  0
  195.1300  172.9080  136.6470 C   0  0  1  0  0  3  0  0  0  0  0  0
  194.2870  174.0890  136.1800 C   0  0  0  0  0  2  0  0  0  0  0  0
  195.0810  175.0280  137.0760 C   0  0  1  0  0  3  0  0  0  0  0  0
  195.7860  172.0630  135.5410 C   0  0  2  0  0  3  0  0  0  0  0  0
  195.0390  172.0560  134.3620 O   0  0  0  0  0  1  0  0  0  0  0  0
  195.9950  170.6410  136.0430 C   0  0  0  0  0  2  0  0  0  0  0  0
  197.2850  170.5250  136.5770 O   0  0  0  0  0  0  0  0  0  0  0  0
  197.7620  169.2500  136.2170 C   0  0  1  0  0  3  0  0  0  0  0  0
  200.0240  168.3160  136.2120 O   0  0  0  0  0  0  0  0  0  0  0  0
  199.3560  169.7220  137.8520 O   0  0  0  0  0  0  0  0  0  0  0  0
  199.0380  169.0160  136.8770 N   0  0  0  0  0  0  0  0  0  0  0  0
  196.7540  168.1620  136.6350 C   0  0  0  0  0  2  0  0  0  0  0  0
  196.7440  167.9280  138.1400 C   0  0  0  0  0  2  0  0  0  0  0  0
  195.7280  168.7790  138.8430 C   0  0  0  0  0  3  0  0  0  0  0  0
  194.7180  168.2830  139.3120 O   0  0  0  0  0  0  0  0  0  0  0  0
  197.3030  174.1200  136.8130 O   0  0  0  0  0  0  0  0  0  0  0  0
  198.1300  174.8090  137.7140 C   0  0  0  0  0  1  0  0  0  0  0  0
  1  9  2  0  0  0  0
  2 12  1  0  0  0  0
  3  5  1  0  0  0  0
  4 20  1  6  0  0  0
  5 48  1  1  0  0  0
  5  2  1  0  0  0  0
  6 10  1  0  0  0  0
  7  4  1  0  0  0  0
  8  4  1  0  0  0  0
  9  6  1  0  0  0  0
 10 11  1  0  0  0  0
 10 13  2  0  0  0  0
 11  3  1  6  0  0  0
 11 12  1  0  0  0  0
 12  8  1  6  0  0  0
 13  7  1  0  0  0  0
 14 15  2  0  0  0  0
 14  1  1  0  0  0  0
 17 15  1  0  0  0  0
 17 16  1  0  0  0  0
 18 19  1  0  0  0  0
 18 14  1  0  0  0  0
 21 20  1  6  0  0  0
 21 37  1  0  0  0  0
 22 21  1  0  0  0  0
 23 22  1  0  0  0  0
 24 22  2  0  0  0  0
 25 23  1  0  0  0  0
 27 32  1  0  0  0  0
 27 31  2  0  0  0  0
 28 34  1  6  0  0  0
 28 33  1  0  0  0  0
 28 29  1  0  0  0  0
 29 30  1  0  0  0  0
 30 31  1  0  0  0  0
 30 25  1  1  0  0  0
 33 26  1  6  0  0  0
 33 27  1  0  0  0  0
 35 36  1  0  0  0  0
 35 34  1  0  0  0  0
 37 38  1  0  0  0  0
 38 47  1  0  0  0  0
 39 40  1  0  0  0  0
 41 39  2  0  0  0  0
 42 43  2  0  0  0  0
 42 46  1  0  0  0  0
 43 44  1  0  0  0  0
 44 45  1  0  0  0  0
 45 40  1  0  0  0  0
 46 41  1  0  0  0  0
 46 45  2  0  0  0  0
 47 42  1  0  0  0  0
 49 50  1  1  0  0  0
 51 54  1  6  0  0  0
 51 49  1  0  0  0  0
 52 51  1  0  0  0  0
 52 53  1  0  0  0  0
 53 49  1  0  0  0  0
 53 48  1  1  0  0  0
 54 55  1  6  0  0  0
 54 56  1  0  0  0  0
 56 57  1  0  0  0  0
 58 57  1  0  0  0  0
 58 62  1  1  0  0  0
 58 61  1  0  0  0  0
 59 61  2  0  0  0  0
 61 60  2  0  0  0  0
 62 63  1  0  0  0  0
 63 64  1  0  0  0  0
 64 65  2  0  0  0  0
 66 49  1  0  0  0  0
 66 67  1  0  0  0  0
M  END
>  <MODEL>
8

>  <REMARK>
 VINA RESULT:      -3.0      2.788      6.949
  Name = 
  24 active torsions:
  status: ('A' for Active; 'I' for Inactive)
    1  A    between atoms: C_1  and  O_51
    2  A    between atoms: N_4  and  CA_29
    3  A    between atoms: C_7  and  C_32
    4  A    between atoms: C_7  and  N_54
    5  A    between atoms: C_10  and  C_25
    6  A    between atoms: C_10  and  C_38
    7  A    between atoms: C_14  and  O_18
    8  A    between atoms: C_15  and  C_34
    9  A    between atoms: C_16  and  O_18
   10  A    between atoms: C_19  and  C_30
   11  A    between atoms: C_19  and  C_65
   12  A    between atoms: C_21  and  C_48
   13  A    between atoms: C_22  and  N_37
   14  A    between atoms: C_22  and  C_48
   15  A    between atoms: C_22  and  C_52
   16  A    between atoms: C_25  and  O_60
   17  A    between atoms: C_26  and  C_45
   18  A    between atoms: CA_29  and  C_40
   19  A    between atoms: N_37  and  N_39
   20  A    between atoms: N_39  and  N_63
   21  A    between atoms: C_44  and  C_45
   22  A    between atoms: C_44  and  C_50
   23  A    between atoms: C_50  and  O_60
   24  A    between atoms: C_50  and  N_66
                            x       y       z     vdW  Elec       q    Type
                         _______ _______ _______ _____ _____    ______ ____

>  <TORSDO>
F 24

$$$$
=
 OpenBabel10232409153D

 67 72  0  0  1  0  0  0  0  0999 V2000
  185.2710  177.6910  146.2830 N   0  0  0  0  0  0  0  0  0  0  0  0
  185.5310  179.3510  139.9390 O   0  0  0  0  0  0  0  0  0  0  0  0
  185.0470  179.4380  142.2310 C   0  0  0  0  0  2  0  0  0  0  0  0
  188.6180  177.5690  140.4520 C   0  0  1  0  0  3  0  0  0  0  0  0
  184.5220  179.7320  140.8540 C   0  0  2  0  0  3  0  0  0  0  0  0
  186.6100  178.1350  144.3600 N   0  0  0  0  0  2  0  0  0  0  0  0
  188.1110  176.4820  141.4020 C   0  0  0  0  0  2  0  0  0  0  0  0
  187.6710  178.7770  140.4330 C   0  0  0  0  0  2  0  0  0  0  0  0
  185.4570  177.5870  145.0000 C   0  0  0  0  0  3  0  0  0  0  0  0
  186.8810  177.8540  142.9840 C   0  0  0  0  0  0  0  0  0  0  0  0
  185.8270  178.2090  141.9340 C   0  0  2  0  0  3  0  0  0  0  0  0
  186.2750  178.3590  140.5330 N   0  0  1  0  0  0  0  0  0  0  0  0
  187.8490  177.0260  142.7240 N   0  0  0  0  0  0  0  0  0  0  0  0
  186.1390  178.4150  147.1570 C   0  0  0  0  0  0  0  0  0  0  0  0
  187.4030  178.0040  147.3070 C   0  0  0  0  0  3  0  0  0  0  0  0
  188.8520  177.7910  149.2990 C   0  0  0  0  0  1  0  0  0  0  0  0
  188.3960  178.7050  148.1740 C   0  0  0  0  0  2  0  0  0  0  0  0
  185.6240  179.6530  147.8330 C   0  0  0  0  0  2  0  0  0  0  0  0
  186.0260  180.7900  147.1250 O   0  0  0  0  0  1  0  0  0  0  0  0
  190.0270  178.0670  140.8080 C   0  0  0  0  0  2  0  0  0  0  0  0
  191.0930  176.9630  140.8430 C   0  0  1  0  0  3  0  0  0  0  0  0
  192.2680  177.2900  139.9740 C   0  0  0  0  0  0  0  0  0  0  0  0
  192.3460  176.7800  138.6360 N   0  0  0  0  0  2  0  0  0  0  0  0
  193.1720  178.0470  140.4200 O   0  0  0  0  0  0  0  0  0  0  0  0
  193.5370  176.9170  137.8000 C   0  0  0  0  0  2  0  0  0  0  0  0
  193.8780  171.9110  135.4020 O   0  0  0  0  0  1  0  0  0  0  0  0
  194.3170  173.2810  137.3010 C   0  0  0  0  0  0  0  0  0  0  0  0
  192.6640  173.9880  135.4740 C   0  0  1  0  0  3  0  0  0  0  0  0
  192.4270  175.2050  136.3650 C   0  0  0  0  0  2  0  0  0  0  0  0
  193.7610  175.6860  136.9220 C   0  0  2  0  0  3  0  0  0  0  0  0
  194.4620  174.5680  137.6540 C   0  0  0  0  0  3  0  0  0  0  0  0
  194.9890  172.3340  138.0040 F   0  0  0  0  0  0  0  0  0  0  0  0
  193.3000  172.8350  136.2730 C   0  0  1  0  0  3  0  0  0  0  0  0
  191.4420  173.5600  134.9350 O   0  0  0  0  0  0  0  0  0  0  0  0
  190.6830  173.1370  136.0330 C   0  0  0  0  0  2  0  0  0  0  0  0
  189.3340  173.3240  135.7660 O   0  0  0  0  0  1  0  0  0  0  0  0
  191.5070  176.6580  142.2130 N   0  0  0  0  0  2  0  0  0  0  0  0
  191.0660  175.3640  142.5470 N   0  0  0  0  0  2  0  0  0  0  0  0
  192.7440  176.0150  148.3230 C   0  0  0  0  0  3  0  0  0  0  0  0
  191.9830  177.1990  148.0680 O   0  0  0  0  0  0  0  0  0  0  0  0
  192.5930  175.1510  147.0510 C   0  0  0  0  0  3  0  0  0  0  0  0
  191.1980  176.0750  144.9050 C   0  0  0  0  0  0  0  0  0  0  0  0
  190.6760  177.2400  144.6880 N   0  0  0  0  0  0  0  0  0  0  0  0
  190.6650  177.9990  145.9470 C   0  0  0  0  0  2  0  0  0  0  0  0
  191.3470  177.0510  146.8630 C   0  0  0  0  0  0  0  0  0  0  0  0
  191.5800  175.9230  146.2970 C   0  0  0  0  0  0  0  0  0  0  0  0
  191.4540  175.1200  143.8740 N   0  0  0  0  0  2  0  0  0  0  0  0
  183.2680  178.9060  140.5630 C   0  0  0  0  0  2  0  0  0  0  0  0
  182.1730  177.2230  138.9580 C   0  0  1  0  0  0  0  0  0  0  0  0
  180.9050  177.5930  139.7530 C   0  0  0  0  0  1  0  0  0  0  0  0
  182.3320  178.0720  137.6860 C   0  0  1  0  0  3  0  0  0  0  0  0
  183.7040  178.5310  138.1660 C   0  0  0  0  0  2  0  0  0  0  0  0
  183.4880  177.8300  139.5000 C   0  0  1  0  0  3  0  0  0  0  0  0
  182.2990  177.3250  136.3410 C   0  0  2  0  0  3  0  0  0  0  0  0
  181.4840  176.1920  136.3810 O   0  0  0  0  0  1  0  0  0  0  0  0
  183.7170  176.9440  135.9360 C   0  0  0  0  0  2  0  0  0  0  0  0
  183.8810  175.5610  136.0790 O   0  0  0  0  0  0  0  0  0  0  0  0
  185.0030  175.3670  136.9080 C   0  0  1  0  0  3  0  0  0  0  0  0
  186.4830  173.4230  136.7740 O   0  0  0  0  0  0  0  0  0  0  0  0
  184.4590  173.2700  137.7710 O   0  0  0  0  0  0  0  0  0  0  0  0
  185.2370  173.9390  137.0650 N   0  0  0  0  0  0  0  0  0  0  0  0
  186.2480  176.0330  136.2900 C   0  0  0  0  0  2  0  0  0  0  0  0
  187.0750  176.7870  137.3230 C   0  0  0  0  0  2  0  0  0  0  0  0
  188.4360  177.1510  136.8080 C   0  0  0  0  0  3  0  0  0  0  0  0
  188.9050  178.2560  137.0160 O   0  0  0  0  0  0  0  0  0  0  0  0
  182.3550  175.8260  138.7690 O   0  0  0  0  0  0  0  0  0  0  0  0
  181.2650  175.1340  139.3190 C   0  0  0  0  0  1  0  0  0  0  0  0
  1 14  1  0  0  0  0
  2 12  1  0  0  0  0
  2  5  1  0  0  0  0
  4 20  1  1  0  0  0
  4  7  1  0  0  0  0
  5 48  1  6  0  0  0
  5  3  1  0  0  0  0
  6  9  1  0  0  0  0
  7 13  1  0  0  0  0
  8  4  1  0  0  0  0
  9  1  2  0  0  0  0
 10  6  1  0  0  0  0
 11  3  1  1  0  0  0
 11 10  1  0  0  0  0
 12  8  1  1  0  0  0
 12 11  1  0  0  0  0
 13 10  2  0  0  0  0
 14 15  2  0  0  0  0
 14 18  1  0  0  0  0
 15 17  1  0  0  0  0
 17 16  1  0  0  0  0
 19 18  1  0  0  0  0
 21 20  1  1  0  0  0
 21 37  1  0  0  0  0
 22 24  2  0  0  0  0
 22 21  1  0  0  0  0
 23 22  1  0  0  0  0
 25 23  1  0  0  0  0
 27 31  2  0  0  0  0
 27 32  1  0  0  0  0
 28 34  1  1  0  0  0
 28 33  1  0  0  0  0
 28 29  1  0  0  0  0
 29 30  1  0  0  0  0
 30 31  1  0  0  0  0
 30 25  1  1  0  0  0
 33 26  1  6  0  0  0
 33 27  1  0  0  0  0
 34 35  1  0  0  0  0
 36 35  1  0  0  0  0
 37 38  1  0  0  0  0
 38 47  1  0  0  0  0
 40 39  1  0  0  0  0
 41 39  2  0  0  0  0
 42 46  1  0  0  0  0
 43 42  2  0  0  0  0
 43 44  1  0  0  0  0
 44 45  1  0  0  0  0
 45 40  1  0  0  0  0
 46 45  2  0  0  0  0
 46 41  1  0  0  0  0
 47 42  1  0  0  0  0
 49 53  1  0  0  0  0
 49 50  1  1  0  0  0
 51 54  1  6  0  0  0
 51 52  1  0  0  0  0
 51 49  1  0  0  0  0
 52 53  1  0  0  0  0
 53 48  1  1  0  0  0
 54 55  1  1  0  0  0
 56 57  1  0  0  0  0
 56 54  1  0  0  0  0
 57 58  1  0  0  0  0
 58 62  1  6  0  0  0
 58 61  1  0  0  0  0
 59 61  2  0  0  0  0
 61 60  2  0  0  0  0
 62 63  1  0  0  0  0
 64 65  2  0  0  0  0
 64 63  1  0  0  0  0
 66 49  1  0  0  0  0
 66 67  1  0  0  0  0
M  END
>  <MODEL>
9

>  <REMARK>
 VINA RESULT:      -3.0      3.631     11.141
  Name = 
  24 active torsions:
  status: ('A' for Active; 'I' for Inactive)
    1  A    between atoms: C_1  and  O_51
    2  A    between atoms: N_4  and  CA_29
    3  A    between atoms: C_7  and  C_32
    4  A    between atoms: C_7  and  N_54
    5  A    between atoms: C_10  and  C_25
    6  A    between atoms: C_10  and  C_38
    7  A    between atoms: C_14  and  O_18
    8  A    between atoms: C_15  and  C_34
    9  A    between atoms: C_16  and  O_18
   10  A    between atoms: C_19  and  C_30
   11  A    between atoms: C_19  and  C_65
   12  A    between atoms: C_21  and  C_48
   13  A    between atoms: C_22  and  N_37
   14  A    between atoms: C_22  and  C_48
   15  A    between atoms: C_22  and  C_52
   16  A    between atoms: C_25  and  O_60
   17  A    between atoms: C_26  and  C_45
   18  A    between atoms: CA_29  and  C_40
   19  A    between atoms: N_37  and  N_39
   20  A    between atoms: N_39  and  N_63
   21  A    between atoms: C_44  and  C_45
   22  A    between atoms: C_44  and  C_50
   23  A    between atoms: C_50  and  O_60
   24  A    between atoms: C_50  and  N_66
                            x       y       z     vdW  Elec       q    Type
                         _______ _______ _______ _____ _____    ______ ____

>  <TORSDO>
F 24

$$$$
