=
 OpenBabel10232408513D

 25 28  0  0  1  0  0  0  0  0999 V2000
  186.0200  178.4480  146.0000 C   0  0  0  0  0  0  0  0  0  0  0  0
  191.4110  176.3230  146.5180 C   0  0  0  0  0  0  0  0  0  0  0  0
  185.4170  179.3280  143.1440 C   0  0  0  0  0  2  0  0  0  0  0  0
  187.4000  178.0470  143.8670 C   0  0  0  0  0  0  0  0  0  0  0  0
  183.0010  179.0660  143.6350 C   0  0  0  0  0  1  0  0  0  0  0  0
  183.6940  178.6030  146.2900 O   0  0  0  0  0  0  0  0  0  0  0  0
  190.3310  176.9870  146.9340 C   0  0  0  0  0  3  0  0  0  0  0  0
  184.6540  178.6750  145.4750 C   0  0  0  0  0  0  0  0  0  0  0  0
  186.2610  178.2930  147.4070 N   0  0  0  0  0  2  0  0  0  0  0  0
  190.8710  176.6130  144.1210 C   0  0  0  0  0  0  0  0  0  0  0  0
  186.2840  178.1210  142.8570 C   0  0  2  0  0  3  0  0  0  0  0  0
  188.1580  177.9270  146.2880 C   0  0  0  0  0  0  0  0  0  0  0  0
  187.5060  177.9790  147.5850 C   0  0  0  0  0  3  0  0  0  0  0  0
  189.3760  177.5110  145.9470 C   0  0  1  0  0  3  0  0  0  0  0  0
  188.6400  177.6560  143.5080 C   0  0  0  0  0  3  0  0  0  0  0  0
  192.3640  175.7780  147.5170 C   0  0  0  0  0  1  0  0  0  0  0  0
  187.1430  178.2390  145.3120 C   0  0  0  0  0  0  0  0  0  0  0  0
  191.6350  176.0600  145.0790 C   0  0  0  0  0  3  0  0  0  0  0  0
  184.3780  178.9780  144.0950 N   0  0  0  0  0  0  0  0  0  0  0  0
  186.7810  178.2220  141.4210 C   0  0  0  0  0  1  0  0  0  0  0  0
  189.7990  177.6120  144.4910 C   0  0  2  0  0  3  0  0  0  0  0  0
  191.0950  176.3310  142.7650 O   0  0  0  0  0  0  0  0  0  0  0  0
  191.7790  177.2130  141.8790 C   0  0  0  0  0  2  0  0  0  0  0  0
  190.9620  177.4230  140.6170 C   0  0  0  0  0  2  0  0  0  0  0  0
  190.5440  176.1890  140.1250 O   0  0  0  0  0  1  0  0  0  0  0  0
  1  9  1  0  0  0  0
  2  7  2  0  0  0  0
  2 16  1  0  0  0  0
  3 19  1  0  0  0  0
  4 17  1  0  0  0  0
  5 19  1  0  0  0  0
  8  1  1  0  0  0  0
  8  6  2  0  0  0  0
  9 13  1  0  0  0  0
 10 21  1  0  0  0  0
 10 18  2  0  0  0  0
 11 20  1  6  0  0  0
 11  3  1  0  0  0  0
 11  4  1  0  0  0  0
 12 13  2  0  0  0  0
 14 12  1  0  0  0  0
 14  7  1  1  0  0  0
 15  4  2  0  0  0  0
 17  1  2  0  0  0  0
 17 12  1  0  0  0  0
 18  2  1  0  0  0  0
 19  8  1  0  0  0  0
 21 15  1  6  0  0  0
 21 14  1  0  0  0  0
 22 10  1  0  0  0  0
 23 22  1  0  0  0  0
 24 23  1  0  0  0  0
 25 24  1  0  0  0  0
M  END
>  <MODEL>
1

>  <REMARK>
 VINA RESULT:      -9.6      0.000      0.000
  Name = 
  3 active torsions:
  status: ('A' for Active; 'I' for Inactive)
    1  A    between atoms: C_3  and  C_10
    2  A    between atoms: C_10  and  O_16
    3  A    between atoms: C_12  and  O_16
                            x       y       z     vdW  Elec       q    Type
                         _______ _______ _______ _____ _____    ______ ____

>  <TORSDO>
F 3

$$$$
=
 OpenBabel10232408513D

 25 28  0  0  1  0  0  0  0  0999 V2000
  190.5560  177.0730  142.3240 C   0  0  0  0  0  0  0  0  0  0  0  0
  187.8650  177.8800  147.4190 C   0  0  0  0  0  0  0  0  0  0  0  0
  188.6180  177.2520  139.9770 C   0  0  0  0  0  2  0  0  0  0  0  0
  188.1040  177.8490  142.3170 C   0  0  0  0  0  0  0  0  0  0  0  0
  190.5400  177.7970  138.5080 C   0  0  0  0  0  1  0  0  0  0  0  0
  192.2120  177.2750  140.6700 O   0  0  0  0  0  0  0  0  0  0  0  0
  188.7730  177.3350  146.6070 C   0  0  0  0  0  3  0  0  0  0  0  0
  190.9760  177.2800  140.9190 C   0  0  0  0  0  0  0  0  0  0  0  0
  191.5090  176.7350  143.3440 N   0  0  0  0  0  2  0  0  0  0  0  0
  186.3190  178.4550  145.5750 C   0  0  0  0  0  0  0  0  0  0  0  0
  188.0140  178.3030  140.8830 C   0  0  2  0  0  3  0  0  0  0  0  0
  189.5100  177.0670  144.2820 C   0  0  0  0  0  0  0  0  0  0  0  0
  190.9100  176.7390  144.4940 C   0  0  0  0  0  3  0  0  0  0  0  0
  188.5410  177.3320  145.1560 C   0  0  1  0  0  3  0  0  0  0  0  0
  187.1040  178.0920  143.1890 C   0  0  0  0  0  3  0  0  0  0  0  0
  188.1110  177.8990  148.8830 C   0  0  0  0  0  1  0  0  0  0  0  0
  189.3520  177.2700  142.8630 C   0  0  0  0  0  0  0  0  0  0  0  0
  186.6520  178.5290  146.8760 C   0  0  0  0  0  3  0  0  0  0  0  0
  190.0460  177.4780  139.8380 N   0  0  0  0  0  0  0  0  0  0  0  0
  186.5840  178.5610  140.4250 C   0  0  0  0  0  1  0  0  0  0  0  0
  187.1430  177.6100  144.6310 C   0  0  2  0  0  3  0  0  0  0  0  0
  185.1710  179.0960  145.0840 O   0  0  0  0  0  0  0  0  0  0  0  0
  183.8460  178.7540  145.4810 C   0  0  0  0  0  2  0  0  0  0  0  0
  182.9090  178.8280  144.2910 C   0  0  0  0  0  2  0  0  0  0  0  0
  183.6300  178.6210  143.1170 O   0  0  0  0  0  1  0  0  0  0  0  0
  1 17  2  0  0  0  0
  1  9  1  0  0  0  0
  2 16  1  0  0  0  0
  3 11  1  0  0  0  0
  4 17  1  0  0  0  0
  4 15  2  0  0  0  0
  5 19  1  0  0  0  0
  6  8  2  0  0  0  0
  7  2  2  0  0  0  0
  8  1  1  0  0  0  0
  9 13  1  0  0  0  0
 10 18  2  0  0  0  0
 11 20  1  6  0  0  0
 11  4  1  0  0  0  0
 12 13  2  0  0  0  0
 12 14  1  0  0  0  0
 14  7  1  1  0  0  0
 17 12  1  0  0  0  0
 18  2  1  0  0  0  0
 19  3  1  0  0  0  0
 19  8  1  0  0  0  0
 21 15  1  6  0  0  0
 21 14  1  0  0  0  0
 21 10  1  0  0  0  0
 22 23  1  0  0  0  0
 22 10  1  0  0  0  0
 24 23  1  0  0  0  0
 25 24  1  0  0  0  0
M  END
>  <MODEL>
2

>  <REMARK>
 VINA RESULT:      -9.3      2.438      5.827
  Name = 
  3 active torsions:
  status: ('A' for Active; 'I' for Inactive)
    1  A    between atoms: C_3  and  C_10
    2  A    between atoms: C_10  and  O_16
    3  A    between atoms: C_12  and  O_16
                            x       y       z     vdW  Elec       q    Type
                         _______ _______ _______ _____ _____    ______ ____

>  <TORSDO>
F 3

$$$$
=
 OpenBabel10232408513D

 25 28  0  0  1  0  0  0  0  0999 V2000
  187.9610  177.6320  146.7630 C   0  0  0  0  0  0  0  0  0  0  0  0
  184.7840  178.7290  142.0140 C   0  0  0  0  0  0  0  0  0  0  0  0
  190.7650  176.6670  146.0540 C   0  0  0  0  0  2  0  0  0  0  0  0
  189.1200  177.6010  144.4670 C   0  0  0  0  0  0  0  0  0  0  0  0
  191.5260  177.4190  148.2900 C   0  0  0  0  0  1  0  0  0  0  0  0
  188.8640  177.9420  148.9100 O   0  0  0  0  0  0  0  0  0  0  0  0
  184.9750  178.3150  143.2690 C   0  0  0  0  0  3  0  0  0  0  0  0
  189.0990  177.6290  147.7110 C   0  0  0  0  0  0  0  0  0  0  0  0
  186.6150  177.8440  147.2160 N   0  0  0  0  0  2  0  0  0  0  0  0
  187.1410  178.3660  141.3570 C   0  0  0  0  0  0  0  0  0  0  0  0
  190.5510  177.6630  144.9340 C   0  0  2  0  0  3  0  0  0  0  0  0
  186.6380  177.7580  144.9850 C   0  0  0  0  0  0  0  0  0  0  0  0
  185.8350  177.9290  146.1840 C   0  0  0  0  0  3  0  0  0  0  0  0
  186.3200  177.9080  143.7010 C   0  0  1  0  0  3  0  0  0  0  0  0
  188.8070  177.7210  143.1600 C   0  0  0  0  0  3  0  0  0  0  0  0
  183.4280  179.1580  141.5850 C   0  0  0  0  0  1  0  0  0  0  0  0
  187.9960  177.5710  145.4310 C   0  0  0  0  0  0  0  0  0  0  0  0
  185.9150  178.8350  141.0670 C   0  0  0  0  0  3  0  0  0  0  0  0
  190.4430  177.2790  147.3300 N   0  0  0  0  0  0  0  0  0  0  0  0
  191.5550  177.3610  143.8290 C   0  0  0  0  0  1  0  0  0  0  0  0
  187.3780  177.6190  142.6500 C   0  0  2  0  0  3  0  0  0  0  0  0
  188.2000  178.4960  140.4460 O   0  0  0  0  0  0  0  0  0  0  0  0
  188.2240  177.8640  139.1690 C   0  0  0  0  0  2  0  0  0  0  0  0
  189.3420  178.4420  138.3210 C   0  0  0  0  0  2  0  0  0  0  0  0
  188.8990  179.6090  137.7020 O   0  0  0  0  0  1  0  0  0  0  0  0
  1  9  1  0  0  0  0
  1  8  1  0  0  0  0
  2  7  2  0  0  0  0
  3 19  1  0  0  0  0
  4 11  1  0  0  0  0
  4 17  1  0  0  0  0
  8  6  2  0  0  0  0
 10 21  1  0  0  0  0
 11 20  1  6  0  0  0
 11  3  1  0  0  0  0
 12 17  1  0  0  0  0
 12 13  2  0  0  0  0
 13  9  1  0  0  0  0
 14  7  1  6  0  0  0
 14 12  1  0  0  0  0
 15  4  2  0  0  0  0
 16  2  1  0  0  0  0
 17  1  2  0  0  0  0
 18 10  2  0  0  0  0
 18  2  1  0  0  0  0
 19  8  1  0  0  0  0
 19  5  1  0  0  0  0
 21 15  1  1  0  0  0
 21 14  1  0  0  0  0
 22 10  1  0  0  0  0
 23 22  1  0  0  0  0
 24 23  1  0  0  0  0
 25 24  1  0  0  0  0
M  END
>  <MODEL>
3

>  <REMARK>
 VINA RESULT:      -9.0      2.218      5.424
  Name = 
  3 active torsions:
  status: ('A' for Active; 'I' for Inactive)
    1  A    between atoms: C_3  and  C_10
    2  A    between atoms: C_10  and  O_16
    3  A    between atoms: C_12  and  O_16
                            x       y       z     vdW  Elec       q    Type
                         _______ _______ _______ _____ _____    ______ ____

>  <TORSDO>
F 3

$$$$
=
 OpenBabel10232408513D

 25 28  0  0  1  0  0  0  0  0999 V2000
  185.7520  178.7240  140.5000 C   0  0  0  0  0  0  0  0  0  0  0  0
  190.2300  177.7800  144.0920 C   0  0  0  0  0  0  0  0  0  0  0  0
  183.0720  178.3350  141.9020 C   0  0  0  0  0  2  0  0  0  0  0  0
  185.2780  178.4060  143.0080 C   0  0  0  0  0  0  0  0  0  0  0  0
  182.0290  179.7870  140.1840 C   0  0  0  0  0  1  0  0  0  0  0  0
  184.4650  179.7760  138.8390 O   0  0  0  0  0  0  0  0  0  0  0  0
  189.6010  177.7540  142.9150 C   0  0  0  0  0  3  0  0  0  0  0  0
  184.4640  179.2400  139.9810 C   0  0  0  0  0  0  0  0  0  0  0  0
  186.9310  178.7050  139.6810 N   0  0  0  0  0  0  0  0  0  0  0  0
  188.1330  177.8560  145.4000 C   0  0  0  0  0  0  0  0  0  0  0  0
  183.8680  178.9340  143.0420 C   0  0  2  0  0  3  0  0  0  0  0  0
  187.4620  178.0710  141.7550 C   0  0  0  0  0  0  0  0  0  0  0  0
  187.9390  178.3350  140.4080 C   0  0  0  0  0  3  0  0  0  0  0  0
  188.1330  177.8120  142.8760 C   0  0  1  0  0  3  0  0  0  0  0  0
  185.9410  178.1140  144.1460 C   0  0  0  0  0  2  0  0  0  0  0  0
  191.7140  177.7400  144.1280 C   0  0  0  0  0  1  0  0  0  0  0  0
  186.0460  178.3430  141.7440 C   0  0  0  0  0  0  0  0  0  0  0  0
  189.4750  177.9200  145.3550 C   0  0  0  0  0  3  0  0  0  0  0  0
  183.2260  179.1480  140.7090 N   0  0  0  0  0  0  0  0  0  0  0  0
  183.1420  178.6220  144.3450 C   0  0  0  0  0  1  0  0  0  0  0  0
  187.3490  177.5390  144.1480 C   0  0  2  0  0  3  0  0  0  0  0  0
  187.4410  178.0100  146.6110 O   0  0  0  0  0  0  0  0  0  0  0  0
  187.7050  177.2330  147.7750 C   0  0  0  0  0  2  0  0  0  0  0  0
  188.1920  178.1260  148.9010 C   0  0  0  0  0  2  0  0  0  0  0  0
  189.5510  178.3830  148.7350 O   0  0  0  0  0  1  0  0  0  0  0  0
  1 17  1  0  0  0  0
  2 16  1  0  0  0  0
  2 18  1  0  0  0  0
  3 11  1  0  0  0  0
  4 11  1  0  0  0  0
  4 15  1  0  0  0  0
  5 19  1  0  0  0  0
  6  8  2  0  0  0  0
  7  2  2  0  0  0  0
  8  1  1  0  0  0  0
  8 19  1  0  0  0  0
  9 13  1  0  0  0  0
  9  1  2  0  0  0  0
 10 22  1  0  0  0  0
 11 20  1  1  0  0  0
 12 14  1  0  0  0  0
 13 12  2  0  0  0  0
 14  7  1  6  0  0  0
 14 21  1  0  0  0  0
 17 12  1  0  0  0  0
 17  4  2  0  0  0  0
 18 10  2  0  0  0  0
 19  3  1  0  0  0  0
 21 15  1  6  0  0  0
 21 10  1  0  0  0  0
 22 23  1  0  0  0  0
 23 24  1  0  0  0  0
 25 24  1  0  0  0  0
M  END
>  <MODEL>
4

>  <REMARK>
 VINA RESULT:      -8.8      3.001      5.135
  Name = 
  3 active torsions:
  status: ('A' for Active; 'I' for Inactive)
    1  A    between atoms: C_3  and  C_10
    2  A    between atoms: C_10  and  O_16
    3  A    between atoms: C_12  and  O_16
                            x       y       z     vdW  Elec       q    Type
                         _______ _______ _______ _____ _____    ______ ____

>  <TORSDO>
F 3

$$$$
=
 OpenBabel10232408513D

 25 28  0  0  1  0  0  0  0  0999 V2000
  183.1940  178.8200  144.2000 C   0  0  0  0  0  0  0  0  0  0  0  0
  188.6460  177.2960  145.5400 C   0  0  0  0  0  0  0  0  0  0  0  0
  182.8330  179.2190  141.1990 C   0  0  0  0  0  2  0  0  0  0  0  0
  184.8190  178.2430  142.2920 C   0  0  0  0  0  0  0  0  0  0  0  0
  180.4050  178.8100  141.4950 C   0  0  0  0  0  1  0  0  0  0  0  0
  180.8440  178.8020  144.2430 O   0  0  0  0  0  0  0  0  0  0  0  0
  187.4800  177.9110  145.7470 C   0  0  0  0  0  3  0  0  0  0  0  0
  181.8780  178.8430  143.5210 C   0  0  0  0  0  0  0  0  0  0  0  0
  183.2950  178.8940  145.6300 N   0  0  0  0  0  2  0  0  0  0  0  0
  188.3430  177.1850  143.0880 C   0  0  0  0  0  0  0  0  0  0  0  0
  183.8150  178.0670  141.1830 C   0  0  2  0  0  3  0  0  0  0  0  0
  185.3230  178.5450  144.7630 C   0  0  0  0  0  0  0  0  0  0  0  0
  184.5340  178.7240  145.9710 C   0  0  0  0  0  3  0  0  0  0  0  0
  186.5980  178.1970  144.6060 C   0  0  1  0  0  3  0  0  0  0  0  0
  186.1170  177.9190  142.1150 C   0  0  0  0  0  3  0  0  0  0  0  0
  189.5260  176.9900  146.6970 C   0  0  0  0  0  1  0  0  0  0  0  0
  184.3970  178.6180  143.6610 C   0  0  0  0  0  0  0  0  0  0  0  0
  189.0410  176.8490  144.1870 C   0  0  0  0  0  3  0  0  0  0  0  0
  181.7280  178.9170  142.0910 N   0  0  0  0  0  0  0  0  0  0  0  0
  184.4530  178.0040  139.8010 C   0  0  0  0  0  1  0  0  0  0  0  0
  187.1650  178.1240  143.1980 C   0  0  2  0  0  3  0  0  0  0  0  0
  188.7320  176.7320  141.8180 O   0  0  0  0  0  0  0  0  0  0  0  0
  189.6590  177.4210  140.9840 C   0  0  0  0  0  2  0  0  0  0  0  0
  189.0970  177.5620  139.5820 C   0  0  0  0  0  2  0  0  0  0  0  0
  188.3550  178.7370  139.4950 O   0  0  0  0  0  1  0  0  0  0  0  0
  1  9  1  0  0  0  0
  2  7  2  0  0  0  0
  2 16  1  0  0  0  0
  3 19  1  0  0  0  0
  4 17  1  0  0  0  0
  5 19  1  0  0  0  0
  8  1  1  0  0  0  0
  8  6  2  0  0  0  0
  9 13  1  0  0  0  0
 10 21  1  0  0  0  0
 10 18  2  0  0  0  0
 11 20  1  6  0  0  0
 11  3  1  0  0  0  0
 11  4  1  0  0  0  0
 12 13  2  0  0  0  0
 14 12  1  0  0  0  0
 14  7  1  1  0  0  0
 15  4  2  0  0  0  0
 17  1  2  0  0  0  0
 17 12  1  0  0  0  0
 18  2  1  0  0  0  0
 19  8  1  0  0  0  0
 21 15  1  6  0  0  0
 21 14  1  0  0  0  0
 22 10  1  0  0  0  0
 23 22  1  0  0  0  0
 24 23  1  0  0  0  0
 25 24  1  0  0  0  0
M  END
>  <MODEL>
5

>  <REMARK>
 VINA RESULT:      -8.7      1.971      3.107
  Name = 
  3 active torsions:
  status: ('A' for Active; 'I' for Inactive)
    1  A    between atoms: C_3  and  C_10
    2  A    between atoms: C_10  and  O_16
    3  A    between atoms: C_12  and  O_16
                            x       y       z     vdW  Elec       q    Type
                         _______ _______ _______ _____ _____    ______ ____

>  <TORSDO>
F 3

$$$$
=
 OpenBabel10232408513D

 25 28  0  0  1  0  0  0  0  0999 V2000
  188.3520  177.9020  140.3030 C   0  0  0  0  0  0  0  0  0  0  0  0
  184.7900  178.4780  144.8670 C   0  0  0  0  0  0  0  0  0  0  0  0
  191.2120  177.2900  141.1660 C   0  0  0  0  0  2  0  0  0  0  0  0
  189.2330  177.2920  142.6410 C   0  0  0  0  0  0  0  0  0  0  0  0
  191.6140  176.3010  138.9280 C   0  0  0  0  0  1  0  0  0  0  0  0
  189.0950  177.2180  138.1810 O   0  0  0  0  0  0  0  0  0  0  0  0
  185.2370  178.7620  143.6410 C   0  0  0  0  0  3  0  0  0  0  0  0
  189.3870  177.3440  139.4020 C   0  0  0  0  0  0  0  0  0  0  0  0
  187.1130  178.4130  139.7880 N   0  0  0  0  0  0  0  0  0  0  0  0
  186.9640  177.5780  145.6320 C   0  0  0  0  0  0  0  0  0  0  0  0
  190.4580  176.5190  142.2290 C   0  0  2  0  0  3  0  0  0  0  0  0
  187.0490  178.4300  142.0200 C   0  0  0  0  0  0  0  0  0  0  0  0
  186.3400  178.7150  140.7830 C   0  0  0  0  0  3  0  0  0  0  0  0
  186.6250  178.4370  143.2820 C   0  0  1  0  0  3  0  0  0  0  0  0
  188.8270  177.3210  143.9280 C   0  0  0  0  0  2  0  0  0  0  0  0
  183.3830  178.7900  145.2210 C   0  0  0  0  0  1  0  0  0  0  0  0
  188.3370  177.9090  141.6360 C   0  0  0  0  0  0  0  0  0  0  0  0
  185.6550  177.7920  145.8520 C   0  0  0  0  0  3  0  0  0  0  0  0
  190.6980  176.9530  139.8510 N   0  0  0  0  0  0  0  0  0  0  0  0
  191.4110  176.2460  143.3850 C   0  0  0  0  0  1  0  0  0  0  0  0
  187.6210  178.1260  144.3860 C   0  0  2  0  0  3  0  0  0  0  0  0
  187.7560  176.9080  146.5770 O   0  0  0  0  0  0  0  0  0  0  0  0
  188.1500  177.4790  147.8210 C   0  0  0  0  0  2  0  0  0  0  0  0
  189.6460  177.7330  147.8290 C   0  0  0  0  0  2  0  0  0  0  0  0
  190.3000  176.6730  147.2040 O   0  0  0  0  0  1  0  0  0  0  0  0
  1 17  1  0  0  0  0
  2 16  1  0  0  0  0
  2 18  1  0  0  0  0
  3 11  1  0  0  0  0
  4 15  1  0  0  0  0
  5 19  1  0  0  0  0
  6  8  2  0  0  0  0
  7  2  2  0  0  0  0
  8 19  1  0  0  0  0
  8  1  1  0  0  0  0
  9  1  2  0  0  0  0
  9 13  1  0  0  0  0
 10 18  2  0  0  0  0
 10 22  1  0  0  0  0
 11  4  1  0  0  0  0
 11 20  1  1  0  0  0
 12 14  1  0  0  0  0
 13 12  2  0  0  0  0
 14  7  1  1  0  0  0
 14 21  1  0  0  0  0
 17 12  1  0  0  0  0
 17  4  2  0  0  0  0
 19  3  1  0  0  0  0
 21 15  1  6  0  0  0
 21 10  1  0  0  0  0
 22 23  1  0  0  0  0
 23 24  1  0  0  0  0
 25 24  1  0  0  0  0
M  END
>  <MODEL>
6

>  <REMARK>
 VINA RESULT:      -8.7      2.617      6.463
  Name = 
  3 active torsions:
  status: ('A' for Active; 'I' for Inactive)
    1  A    between atoms: C_3  and  C_10
    2  A    between atoms: C_10  and  O_16
    3  A    between atoms: C_12  and  O_16
                            x       y       z     vdW  Elec       q    Type
                         _______ _______ _______ _____ _____    ______ ____

>  <TORSDO>
F 3

$$$$
=
 OpenBabel10232408513D

 25 28  0  0  1  0  0  0  0  0999 V2000
  187.7560  177.7360  146.2780 C   0  0  0  0  0  0  0  0  0  0  0  0
  182.8380  179.1120  143.4910 C   0  0  0  0  0  0  0  0  0  0  0  0
  189.8630  176.6200  144.3770 C   0  0  0  0  0  2  0  0  0  0  0  0
  187.7370  177.6800  143.7070 C   0  0  0  0  0  0  0  0  0  0  0  0
  191.6050  177.2820  146.0130 C   0  0  0  0  0  1  0  0  0  0  0  0
  189.5560  177.9510  147.7730 O   0  0  0  0  0  0  0  0  0  0  0  0
  183.5550  178.6630  144.5240 C   0  0  0  0  0  3  0  0  0  0  0  0
  189.1980  177.6470  146.6020 C   0  0  0  0  0  0  0  0  0  0  0  0
  186.7810  178.0190  147.2930 N   0  0  0  0  0  2  0  0  0  0  0  0
  184.6090  178.6220  141.8340 C   0  0  0  0  0  0  0  0  0  0  0  0
  189.2240  177.6480  143.4690 C   0  0  2  0  0  3  0  0  0  0  0  0
  185.7790  177.9750  145.2980 C   0  0  0  0  0  0  0  0  0  0  0  0
  185.6230  178.1710  146.7290 C   0  0  0  0  0  3  0  0  0  0  0  0
  184.9210  178.1690  144.2990 C   0  0  1  0  0  3  0  0  0  0  0  0
  186.8700  177.8440  142.6850 C   0  0  0  0  0  3  0  0  0  0  0  0
  181.4660  179.6290  143.7230 C   0  0  0  0  0  1  0  0  0  0  0  0
  187.1770  177.6990  145.0770 C   0  0  0  0  0  0  0  0  0  0  0  0
  183.4170  179.1690  142.1310 C   0  0  0  0  0  3  0  0  0  0  0  0
  190.1960  177.2250  145.6540 N   0  0  0  0  0  0  0  0  0  0  0  0
  189.5930  177.3080  142.0310 C   0  0  0  0  0  1  0  0  0  0  0  0
  185.3630  177.8370  142.8840 C   0  0  2  0  0  3  0  0  0  0  0  0
  185.1420  178.7060  140.5390 O   0  0  0  0  0  0  0  0  0  0  0  0
  184.3650  179.0070  139.3840 C   0  0  0  0  0  2  0  0  0  0  0  0
  184.9860  178.3720  138.1550 C   0  0  0  0  0  2  0  0  0  0  0  0
  186.3370  178.7090  138.0910 O   0  0  0  0  0  1  0  0  0  0  0  0
  1  8  1  0  0  0  0
  1  9  1  0  0  0  0
  2 16  1  0  0  0  0
  2  7  2  0  0  0  0
  3 19  1  0  0  0  0
  4 17  1  0  0  0  0
  8  6  2  0  0  0  0
 10 18  2  0  0  0  0
 10 21  1  0  0  0  0
 11 20  1  6  0  0  0
 11  4  1  0  0  0  0
 11  3  1  0  0  0  0
 12 13  2  0  0  0  0
 13  9  1  0  0  0  0
 14  7  1  1  0  0  0
 14 12  1  0  0  0  0
 15  4  2  0  0  0  0
 17 12  1  0  0  0  0
 17  1  2  0  0  0  0
 18  2  1  0  0  0  0
 19  5  1  0  0  0  0
 19  8  1  0  0  0  0
 21 15  1  1  0  0  0
 21 14  1  0  0  0  0
 22 10  1  0  0  0  0
 23 22  1  0  0  0  0
 24 23  1  0  0  0  0
 25 24  1  0  0  0  0
M  END
>  <MODEL>
7

>  <REMARK>
 VINA RESULT:      -8.5      2.522      6.008
  Name = 
  3 active torsions:
  status: ('A' for Active; 'I' for Inactive)
    1  A    between atoms: C_3  and  C_10
    2  A    between atoms: C_10  and  O_16
    3  A    between atoms: C_12  and  O_16
                            x       y       z     vdW  Elec       q    Type
                         _______ _______ _______ _____ _____    ______ ____

>  <TORSDO>
F 3

$$$$
=
 OpenBabel10232408513D

 25 28  0  0  1  0  0  0  0  0999 V2000
  190.3860  177.0950  142.9150 C   0  0  0  0  0  0  0  0  0  0  0  0
  185.4290  178.2560  145.7290 C   0  0  0  0  0  0  0  0  0  0  0  0
  189.9800  176.9960  139.8950 C   0  0  0  0  0  2  0  0  0  0  0  0
  188.3200  177.7810  141.5450 C   0  0  0  0  0  0  0  0  0  0  0  0
  192.3960  177.4770  139.6120 C   0  0  0  0  0  1  0  0  0  0  0  0
  192.6690  177.2080  142.3690 O   0  0  0  0  0  0  0  0  0  0  0  0
  186.6190  177.6730  145.5730 C   0  0  0  0  0  3  0  0  0  0  0  0
  191.4870  177.1920  141.9290 C   0  0  0  0  0  0  0  0  0  0  0  0
  190.6530  176.8830  144.3100 N   0  0  0  0  0  2  0  0  0  0  0  0
  185.0960  178.6100  143.3040 C   0  0  0  0  0  0  0  0  0  0  0  0
  189.0070  178.1020  140.2430 C   0  0  2  0  0  3  0  0  0  0  0  0
  188.4660  177.2260  144.0200 C   0  0  0  0  0  0  0  0  0  0  0  0
  189.5390  176.9680  144.9660 C   0  0  0  0  0  3  0  0  0  0  0  0
  187.1870  177.5330  144.2240 C   0  0  1  0  0  3  0  0  0  0  0  0
  187.0150  178.0650  141.7340 C   0  0  0  0  0  3  0  0  0  0  0  0
  184.8660  178.4140  147.0950 C   0  0  0  0  0  1  0  0  0  0  0  0
  189.0830  177.2970  142.7190 C   0  0  0  0  0  0  0  0  0  0  0  0
  184.6950  178.8110  144.5710 C   0  0  0  0  0  3  0  0  0  0  0  0
  191.2700  177.2600  140.5070 N   0  0  0  0  0  0  0  0  0  0  0  0
  188.0370  178.2680  139.0800 C   0  0  0  0  0  1  0  0  0  0  0  0
  186.2800  177.7140  143.0190 C   0  0  2  0  0  3  0  0  0  0  0  0
  184.3910  179.1640  142.2250 O   0  0  0  0  0  0  0  0  0  0  0  0
  183.4720  178.4280  141.4220 C   0  0  0  0  0  2  0  0  0  0  0  0
  183.6660  178.7710  139.9570 C   0  0  0  0  0  2  0  0  0  0  0  0
  184.6020  179.7970  139.8410 O   0  0  0  0  0  1  0  0  0  0  0  0
  1  9  1  0  0  0  0
  2 16  1  0  0  0  0
  3 11  1  0  0  0  0
  3 19  1  0  0  0  0
  4 15  2  0  0  0  0
  4 17  1  0  0  0  0
  5 19  1  0  0  0  0
  7  2  2  0  0  0  0
  8  6  2  0  0  0  0
  8  1  1  0  0  0  0
  9 13  1  0  0  0  0
 10 18  2  0  0  0  0
 11 20  1  6  0  0  0
 11  4  1  0  0  0  0
 12 14  1  0  0  0  0
 12 13  2  0  0  0  0
 14  7  1  1  0  0  0
 17  1  2  0  0  0  0
 17 12  1  0  0  0  0
 18  2  1  0  0  0  0
 19  8  1  0  0  0  0
 21 15  1  6  0  0  0
 21 10  1  0  0  0  0
 21 14  1  0  0  0  0
 22 10  1  0  0  0  0
 23 22  1  0  0  0  0
 24 23  1  0  0  0  0
 25 24  1  0  0  0  0
M  END
>  <MODEL>
8

>  <REMARK>
 VINA RESULT:      -8.4      2.866      6.178
  Name = 
  3 active torsions:
  status: ('A' for Active; 'I' for Inactive)
    1  A    between atoms: C_3  and  C_10
    2  A    between atoms: C_10  and  O_16
    3  A    between atoms: C_12  and  O_16
                            x       y       z     vdW  Elec       q    Type
                         _______ _______ _______ _____ _____    ______ ____

>  <TORSDO>
F 3

$$$$
=
 OpenBabel10232408513D

 25 28  0  0  1  0  0  0  0  0999 V2000
  186.6020  178.4150  139.6600 C   0  0  0  0  0  0  0  0  0  0  0  0
  185.9030  178.2820  145.4340 C   0  0  0  0  0  0  0  0  0  0  0  0
  189.5230  178.0630  138.8620 C   0  0  0  0  0  2  0  0  0  0  0  0
  188.6030  177.7470  141.1310 C   0  0  0  0  0  0  0  0  0  0  0  0
  188.7610  177.2800  136.6370 C   0  0  0  0  0  1  0  0  0  0  0  0
  186.1720  177.9640  137.3940 O   0  0  0  0  0  0  0  0  0  0  0  0
  185.6300  178.6960  144.1950 C   0  0  0  0  0  3  0  0  0  0  0  0
  187.0480  178.0380  138.2990 C   0  0  0  0  0  0  0  0  0  0  0  0
  185.2480  178.8210  139.9130 N   0  0  0  0  0  0  0  0  0  0  0  0
  188.2060  177.5750  144.8700 C   0  0  0  0  0  0  0  0  0  0  0  0
  189.4780  177.1430  140.0630 C   0  0  2  0  0  3  0  0  0  0  0  0
  186.3510  178.6780  141.8490 C   0  0  0  0  0  0  0  0  0  0  0  0
  185.0880  178.9670  141.1910 C   0  0  0  0  0  3  0  0  0  0  0  0
  186.6450  178.5510  143.1410 C   0  0  1  0  0  3  0  0  0  0  0  0
  188.9240  177.6430  142.4370 C   0  0  0  0  0  2  0  0  0  0  0  0
  184.8690  178.4120  146.4920 C   0  0  0  0  0  1  0  0  0  0  0  0
  187.2810  178.3290  140.8040 C   0  0  0  0  0  0  0  0  0  0  0  0
  187.1910  177.6290  145.7520 C   0  0  0  0  0  3  0  0  0  0  0  0
  188.4220  177.7630  137.9660 N   0  0  0  0  0  0  0  0  0  0  0  0
  190.9070  176.8980  140.5290 C   0  0  0  0  0  1  0  0  0  0  0  0
  188.0860  178.2770  143.5370 C   0  0  2  0  0  3  0  0  0  0  0  0
  189.4110  176.9340  145.1930 O   0  0  0  0  0  0  0  0  0  0  0  0
  190.2030  177.2680  146.3290 C   0  0  0  0  0  2  0  0  0  0  0  0
  191.6040  176.7060  146.1740 C   0  0  0  0  0  2  0  0  0  0  0  0
  192.1470  176.4590  147.4330 O   0  0  0  0  0  1  0  0  0  0  0  0
  1  9  2  0  0  0  0
  1 17  1  0  0  0  0
  2 18  1  0  0  0  0
  2 16  1  0  0  0  0
  3 11  1  0  0  0  0
  4 15  1  0  0  0  0
  5 19  1  0  0  0  0
  6  8  2  0  0  0  0
  7  2  2  0  0  0  0
  8  1  1  0  0  0  0
  9 13  1  0  0  0  0
 10 22  1  0  0  0  0
 10 18  2  0  0  0  0
 11 20  1  1  0  0  0
 11  4  1  0  0  0  0
 12 14  1  0  0  0  0
 13 12  2  0  0  0  0
 14 21  1  0  0  0  0
 14  7  1  1  0  0  0
 17  4  2  0  0  0  0
 17 12  1  0  0  0  0
 19  8  1  0  0  0  0
 19  3  1  0  0  0  0
 21 15  1  6  0  0  0
 21 10  1  0  0  0  0
 22 23  1  0  0  0  0
 24 23  1  0  0  0  0
 24 25  1  0  0  0  0
M  END
>  <MODEL>
9

>  <REMARK>
 VINA RESULT:      -8.3      2.788      5.874
  Name = 
  3 active torsions:
  status: ('A' for Active; 'I' for Inactive)
    1  A    between atoms: C_3  and  C_10
    2  A    between atoms: C_10  and  O_16
    3  A    between atoms: C_12  and  O_16
                            x       y       z     vdW  Elec       q    Type
                         _______ _______ _______ _____ _____    ______ ____

>  <TORSDO>
F 3

$$$$
