=
 OpenBabel10222422013D

 44 47  0  0  1  0  0  0  0  0999 V2000
  184.7580  178.6350  144.2060 O   0  0  0  0  0  0  0  0  0  0  0  0
  188.6960  176.5670  143.8640 C   0  0  1  0  0  3  0  0  0  0  0  0
  186.7660  178.2060  146.3570 C   0  0  0  0  0  0  0  0  0  0  0  0
  189.9260  177.2200  141.9230 C   0  0  1  0  0  3  0  0  0  0  0  0
  186.6090  177.4820  145.0710 C   0  0  0  0  0  0  0  0  0  0  0  0
  187.9490  178.0070  146.8650 N   0  0  0  0  0  0  0  0  0  0  0  0
  188.6210  177.1100  145.9850 C   0  0  2  0  0  3  0  0  0  0  0  0
  188.4970  176.8660  142.4100 C   0  0  0  0  0  2  0  0  0  0  0  0
  191.9270  177.5630  143.2930 O   0  0  0  0  0  0  0  0  0  0  0  0
  189.9410  176.7750  144.2780 N   0  0  0  0  0  0  0  0  0  0  0  0
  190.7300  177.1880  143.1860 C   0  0  0  0  0  0  0  0  0  0  0  0
  189.9360  177.2180  145.5540 C   0  0  0  0  0  2  0  0  0  0  0  0
  185.7780  177.7180  144.1040 N   0  0  0  0  0  0  0  0  0  0  0  0
  187.8420  176.7390  144.9280 C   0  0  2  0  0  3  0  0  0  0  0  0
  184.5790  178.6160  147.1920 O   0  0  0  0  0  0  0  0  0  0  0  0
  186.1310  180.2370  147.6160 O   0  0  0  0  0  1  0  0  0  0  0  0
  185.7610  179.0230  147.0540 C   0  0  0  0  0  0  0  0  0  0  0  0
  190.3840  176.2240  141.0400 O   0  0  0  0  0  0  0  0  0  0  0  0
  191.9030  177.4910  139.9020 O   0  0  0  0  0  1  0  0  0  0  0  0
  190.8450  175.8240  138.8010 O   0  0  0  0  0  1  0  0  0  0  0  0
  190.6920  176.8070  139.7870 C   0  0  0  0  0  0  0  0  0  0  0  0
  189.6950  177.7530  137.4750 C   0  0  0  0  0  1  0  0  0  0  0  0
  189.3990  177.9950  139.2550 S   0  0  0  0  0  0  0  0  0  0  0  0
  183.9460  178.9320  143.0840 C   0  0  1  0  0  3  0  0  0  0  0  0
  185.3240  179.0960  141.0050 C   0  0  0  0  0  1  0  0  0  0  0  0
  184.4840  178.1800  141.8760 C   0  0  0  0  0  2  0  0  0  0  0  0
  182.5100  178.5110  143.3730 C   0  0  0  0  0  2  0  0  0  0  0  0
  181.5440  179.3490  142.5610 C   0  0  0  0  0  2  0  0  0  0  0  0
  180.6780  178.4440  141.7080 C   0  0  0  0  0  2  0  0  0  0  0  0
  181.3270  178.2210  140.4280 N   0  0  0  0  0  2  0  0  0  0  0  0
  181.4390  179.5180  139.7800 C   0  0  0  0  0  2  0  0  0  0  0  0
  182.4420  179.4410  138.6450 C   0  0  0  0  0  2  0  0  0  0  0  0
  181.9320  178.4950  137.5710 C   0  0  0  0  0  2  0  0  0  0  0  0
  184.3110  177.8160  137.9300 C   0  0  0  0  0  2  0  0  0  0  0  0
  184.6060  174.7670  136.8890 C   0  0  1  0  0  3  0  0  0  0  0  0
  183.5680  175.0550  137.9920 C   0  0  0  0  0  2  0  0  0  0  0  0
  181.6450  175.5320  136.5430 N   0  0  0  0  0  1  0  0  0  0  0  0
  182.4750  176.0650  137.6090 C   0  0  2  0  0  3  0  0  0  0  0  0
  185.5450  177.1260  137.3230 C   0  0  0  0  0  2  0  0  0  0  0  0
  182.9920  177.4620  137.2280 C   0  0  1  0  0  3  0  0  0  0  0  0
  185.2180  176.0450  136.2860 C   0  0  0  0  0  2  0  0  0  0  0  0
  185.0530  172.8090  137.9680 O   0  0  0  0  0  1  0  0  0  0  0  0
  185.6580  173.8850  137.4060 N   0  0  0  0  0  0  0  0  0  0  0  0
  186.3580  173.4120  136.3440 O   0  0  0  0  0  1  0  0  0  0  0  0
  2  8  1  6  0  0  0
  2 10  1  0  0  0  0
  2 14  1  0  0  0  0
  3  6  2  0  0  0  0
  3 17  1  0  0  0  0
  4 18  1  6  0  0  0
  4  8  1  0  0  0  0
  4 11  1  0  0  0  0
  5  3  1  0  0  0  0
  7 12  1  6  0  0  0
  7  6  1  0  0  0  0
 10 12  1  0  0  0  0
 11  9  2  0  0  0  0
 11 10  1  0  0  0  0
 13  1  1  0  0  0  0
 13  5  2  0  0  0  0
 14  5  1  6  0  0  0
 14  7  1  0  0  0  0
 17 15  2  0  0  0  0
 17 16  1  0  0  0  0
 20 21  1  0  0  0  0
 21 19  1  0  0  0  0
 21 18  1  0  0  0  0
 22 23  1  0  0  0  0
 23 21  1  0  0  0  0
 24 26  1  6  0  0  0
 24 27  1  0  0  0  0
 24  1  1  0  0  0  0
 25 26  1  0  0  0  0
 28 27  1  0  0  0  0
 29 28  1  0  0  0  0
 30 29  1  0  0  0  0
 31 30  1  0  0  0  0
 32 31  1  0  0  0  0
 33 32  1  0  0  0  0
 35 43  1  1  0  0  0
 35 36  1  0  0  0  0
 38 37  1  6  0  0  0
 38 36  1  0  0  0  0
 39 34  1  0  0  0  0
 40 33  1  1  0  0  0
 40 38  1  0  0  0  0
 40 34  1  0  0  0  0
 41 35  1  0  0  0  0
 41 39  1  0  0  0  0
 43 42  1  0  0  0  0
 44 43  1  0  0  0  0
M  END
>  <MODEL>
1

>  <REMARK>
 VINA RESULT:      -7.5      0.000      0.000
  Name = 
  16 active torsions:
  status: ('A' for Active; 'I' for Inactive)
    1  A    between atoms: O_1  and  C_10
    2  A    between atoms: O_1  and  C_33
    3  A    between atoms: O_3  and  C_12
    4  A    between atoms: O_3  and  N_42
    5  A    between atoms: C_5  and  C_17
    6  A    between atoms: C_5  and  C_41
    7  A    between atoms: C_6  and  N_14
    8  A    between atoms: C_6  and  C_25
    9  A    between atoms: C_8  and  C_12
   10  A    between atoms: C_8  and  C_25
   11  A    between atoms: CA_9  and  C_38
   12  A    between atoms: C_12  and  C_26
   13  A    between atoms: N_14  and  C_37
   14  A    between atoms: C_15  and  N_39
   15  A    between atoms: C_17  and  C_37
   16  A    between atoms: S_28  and  C_33
                            x       y       z     vdW  Elec       q    Type
                         _______ _______ _______ _____ _____    ______ ____

>  <TORSDO>
F 16

$$$$
=
 OpenBabel10222422013D

 44 47  0  0  1  0  0  0  0  0999 V2000
  184.8440  179.4300  139.7120 O   0  0  0  0  0  0  0  0  0  0  0  0
  187.1280  176.9780  136.7670 C   0  0  1  0  0  3  0  0  0  0  0  0
  183.7450  177.5370  137.7000 C   0  0  0  0  0  0  0  0  0  0  0  0
  189.0310  175.9010  137.7290 C   0  0  1  0  0  3  0  0  0  0  0  0
  185.0700  178.2030  137.7260 C   0  0  0  0  0  0  0  0  0  0  0  0
  183.7510  176.5140  136.8940 N   0  0  0  0  0  0  0  0  0  0  0  0
  185.0470  176.4700  136.3060 C   0  0  2  0  0  3  0  0  0  0  0  0
  188.2480  177.2400  137.7260 C   0  0  0  0  0  2  0  0  0  0  0  0
  188.3630  173.7810  136.7000 O   0  0  0  0  0  0  0  0  0  0  0  0
  187.1020  175.7290  136.3170 N   0  0  0  0  0  0  0  0  0  0  0  0
  188.1890  175.0180  136.8610 C   0  0  0  0  0  0  0  0  0  0  0  0
  185.8250  175.3350  136.1200 C   0  0  0  0  0  2  0  0  0  0  0  0
  185.5740  178.9720  138.6410 N   0  0  0  0  0  0  0  0  0  0  0  0
  185.8490  177.4840  136.7410 C   0  0  2  0  0  3  0  0  0  0  0  0
  182.0080  177.1800  139.2820 O   0  0  0  0  0  1  0  0  0  0  0  0
  181.9680  179.1850  138.1890 O   0  0  0  0  0  0  0  0  0  0  0  0
  182.5260  177.9360  138.4210 C   0  0  0  0  0  0  0  0  0  0  0  0
  190.2930  176.0910  137.1350 O   0  0  0  0  0  0  0  0  0  0  0  0
  190.8800  175.7970  139.3200 O   0  0  0  0  0  1  0  0  0  0  0  0
  191.5150  174.2390  137.8110 O   0  0  0  0  0  1  0  0  0  0  0  0
  191.3020  175.6100  138.0030 C   0  0  0  0  0  0  0  0  0  0  0  0
  193.7890  175.0480  137.1460 C   0  0  0  0  0  1  0  0  0  0  0  0
  192.8860  176.5040  137.7650 S   0  0  0  0  0  0  0  0  0  0  0  0
  184.9260  178.7770  140.9680 C   0  0  1  0  0  3  0  0  0  0  0  0
  187.3440  178.3870  141.4670 C   0  0  0  0  0  1  0  0  0  0  0  0
  186.1510  179.2920  141.7090 C   0  0  0  0  0  2  0  0  0  0  0  0
  183.6630  179.0610  141.7700 C   0  0  0  0  0  2  0  0  0  0  0  0
  183.7740  178.4560  143.1550 C   0  0  0  0  0  2  0  0  0  0  0  0
  182.9920  179.3000  144.1420 C   0  0  0  0  0  2  0  0  0  0  0  0
  183.4940  179.0620  145.4830 N   0  0  0  0  0  2  0  0  0  0  0  0
  184.6260  178.1590  145.3570 C   0  0  0  0  0  2  0  0  0  0  0  0
  185.8650  178.7990  145.9520 C   0  0  0  0  0  2  0  0  0  0  0  0
  187.0690  178.5030  145.0730 C   0  0  0  0  0  2  0  0  0  0  0  0
  187.8220  177.1660  147.0470 C   0  0  0  0  0  2  0  0  0  0  0  0
  191.0500  177.0050  146.9220 C   0  0  1  0  0  3  0  0  0  0  0  0
  190.2550  176.4710  145.7140 C   0  0  0  0  0  2  0  0  0  0  0  0
  190.1500  178.5550  144.4210 N   0  0  0  0  0  1  0  0  0  0  0  0
  189.3490  177.5040  145.0240 C   0  0  2  0  0  3  0  0  0  0  0  0
  188.8220  177.0650  148.2120 C   0  0  0  0  0  2  0  0  0  0  0  0
  188.2660  178.1170  145.9260 C   0  0  1  0  0  3  0  0  0  0  0  0
  190.1710  177.7430  147.9460 C   0  0  0  0  0  2  0  0  0  0  0  0
  192.4570  175.2410  146.5960 O   0  0  0  0  0  1  0  0  0  0  0  0
  191.7830  175.9090  147.5640 N   0  0  0  0  0  0  0  0  0  0  0  0
  192.7280  176.4600  148.3690 O   0  0  0  0  0  1  0  0  0  0  0  0
  1 24  1  0  0  0  0
  2  8  1  1  0  0  0
  3  5  1  0  0  0  0
  3 17  1  0  0  0  0
  4 18  1  6  0  0  0
  5 13  2  0  0  0  0
  6  3  2  0  0  0  0
  7 12  1  1  0  0  0
  7 14  1  0  0  0  0
  7  6  1  0  0  0  0
  8  4  1  0  0  0  0
  9 11  2  0  0  0  0
 10  2  1  0  0  0  0
 10 11  1  0  0  0  0
 11  4  1  0  0  0  0
 12 10  1  0  0  0  0
 13  1  1  0  0  0  0
 14  2  1  0  0  0  0
 14  5  1  1  0  0  0
 16 17  2  0  0  0  0
 17 15  1  0  0  0  0
 18 21  1  0  0  0  0
 20 21  1  0  0  0  0
 21 19  1  0  0  0  0
 22 23  1  0  0  0  0
 23 21  1  0  0  0  0
 24 26  1  1  0  0  0
 24 27  1  0  0  0  0
 25 26  1  0  0  0  0
 27 28  1  0  0  0  0
 28 29  1  0  0  0  0
 29 30  1  0  0  0  0
 31 30  1  0  0  0  0
 31 32  1  0  0  0  0
 33 32  1  0  0  0  0
 34 39  1  0  0  0  0
 35 43  1  1  0  0  0
 35 41  1  0  0  0  0
 36 35  1  0  0  0  0
 38 37  1  1  0  0  0
 38 36  1  0  0  0  0
 38 40  1  0  0  0  0
 40 33  1  6  0  0  0
 40 34  1  0  0  0  0
 41 39  1  0  0  0  0
 42 43  1  0  0  0  0
 43 44  1  0  0  0  0
M  END
>  <MODEL>
2

>  <REMARK>
 VINA RESULT:      -7.2      2.735      8.190
  Name = 
  16 active torsions:
  status: ('A' for Active; 'I' for Inactive)
    1  A    between atoms: O_1  and  C_10
    2  A    between atoms: O_1  and  C_33
    3  A    between atoms: O_3  and  C_12
    4  A    between atoms: O_3  and  N_42
    5  A    between atoms: C_5  and  C_17
    6  A    between atoms: C_5  and  C_41
    7  A    between atoms: C_6  and  N_14
    8  A    between atoms: C_6  and  C_25
    9  A    between atoms: C_8  and  C_12
   10  A    between atoms: C_8  and  C_25
   11  A    between atoms: CA_9  and  C_38
   12  A    between atoms: C_12  and  C_26
   13  A    between atoms: N_14  and  C_37
   14  A    between atoms: C_15  and  N_39
   15  A    between atoms: C_17  and  C_37
   16  A    between atoms: S_28  and  C_33
                            x       y       z     vdW  Elec       q    Type
                         _______ _______ _______ _____ _____    ______ ____

>  <TORSDO>
F 16

$$$$
=
 OpenBabel10222422013D

 44 47  0  0  1  0  0  0  0  0999 V2000
  186.4490  177.9990  144.7740 O   0  0  0  0  0  0  0  0  0  0  0  0
  189.6570  176.4320  142.0990 C   0  0  1  0  0  3  0  0  0  0  0  0
  189.1850  177.1330  145.5500 C   0  0  0  0  0  0  0  0  0  0  0  0
  189.9040  177.7080  140.0940 C   0  0  1  0  0  3  0  0  0  0  0  0
  188.4130  176.7970  144.3290 C   0  0  0  0  0  0  0  0  0  0  0  0
  190.4540  176.8910  145.3840 N   0  0  0  0  0  0  0  0  0  0  0  0
  190.5930  176.3390  144.0780 C   0  0  2  0  0  3  0  0  0  0  0  0
  188.8360  177.1170  141.0510 C   0  0  0  0  0  2  0  0  0  0  0  0
  192.3270  177.8020  140.4390 O   0  0  0  0  0  0  0  0  0  0  0  0
  190.9650  176.6110  141.9430 N   0  0  0  0  0  0  0  0  0  0  0  0
  191.1920  177.3790  140.7840 C   0  0  0  0  0  0  0  0  0  0  0  0
  191.5700  176.6690  143.1480 C   0  0  0  0  0  2  0  0  0  0  0  0
  187.2500  177.2320  143.9590 N   0  0  0  0  0  0  0  0  0  0  0  0
  189.3960  176.2250  143.4340 C   0  0  2  0  0  3  0  0  0  0  0  0
  188.6330  178.8690  147.0780 O   0  0  0  0  0  0  0  0  0  0  0  0
  188.1490  176.7430  147.7610 O   0  0  0  0  0  1  0  0  0  0  0  0
  188.6640  177.6350  146.8310 C   0  0  0  0  0  0  0  0  0  0  0  0
  189.8450  177.0440  138.8540 O   0  0  0  0  0  0  0  0  0  0  0  0
  189.0390  179.1390  138.4400 O   0  0  0  0  0  1  0  0  0  0  0  0
  189.8480  177.9300  136.7090 O   0  0  0  0  0  1  0  0  0  0  0  0
  189.1480  177.8490  137.9200 C   0  0  0  0  0  0  0  0  0  0  0  0
  187.1570  178.2910  136.1660 C   0  0  0  0  0  1  0  0  0  0  0  0
  187.4600  177.2050  137.5960 S   0  0  0  0  0  0  0  0  0  0  0  0
  185.1350  178.3420  144.3690 C   0  0  1  0  0  3  0  0  0  0  0  0
  185.0610  178.3410  146.8680 C   0  0  0  0  0  1  0  0  0  0  0  0
  184.3320  178.7400  145.5990 C   0  0  0  0  0  2  0  0  0  0  0  0
  185.1950  179.4980  143.3790 C   0  0  0  0  0  2  0  0  0  0  0  0
  185.0630  178.9810  141.9600 C   0  0  0  0  0  2  0  0  0  0  0  0
  183.7220  178.2950  141.7930 C   0  0  0  0  0  2  0  0  0  0  0  0
  183.0590  178.8140  140.6100 N   0  0  0  0  0  2  0  0  0  0  0  0
  184.0960  179.3610  139.7500 C   0  0  0  0  0  2  0  0  0  0  0  0
  184.1520  178.5820  138.4510 C   0  0  0  0  0  2  0  0  0  0  0  0
  182.7430  178.3250  137.9430 C   0  0  0  0  0  2  0  0  0  0  0  0
  183.3510  176.8080  136.0510 C   0  0  0  0  0  2  0  0  0  0  0  0
  182.7910  173.7770  137.0320 C   0  0  1  0  0  3  0  0  0  0  0  0
  183.7700  174.6330  137.8600 C   0  0  0  0  0  2  0  0  0  0  0  0
  182.1440  175.6080  139.4200 N   0  0  0  0  0  1  0  0  0  0  0  0
  183.1730  175.9240  138.4430 C   0  0  2  0  0  3  0  0  0  0  0  0
  182.9340  175.5900  135.2090 C   0  0  0  0  0  2  0  0  0  0  0  0
  182.6250  176.9110  137.4000 C   0  0  1  0  0  3  0  0  0  0  0  0
  182.0480  174.5830  135.9520 C   0  0  0  0  0  2  0  0  0  0  0  0
  184.8290  172.8800  136.5450 O   0  0  0  0  0  1  0  0  0  0  0  0
  183.4990  172.6400  136.4340 N   0  0  0  0  0  0  0  0  0  0  0  0
  183.2470  171.5490  137.2010 O   0  0  0  0  0  1  0  0  0  0  0  0
  2  8  1  1  0  0  0
  2 14  1  0  0  0  0
  3 17  1  0  0  0  0
  4 18  1  6  0  0  0
  4 11  1  0  0  0  0
  4  8  1  0  0  0  0
  5  3  1  0  0  0  0
  6  3  2  0  0  0  0
  7 12  1  6  0  0  0
  7  6  1  0  0  0  0
  9 11  2  0  0  0  0
 10  2  1  0  0  0  0
 10 12  1  0  0  0  0
 11 10  1  0  0  0  0
 13  5  2  0  0  0  0
 13  1  1  0  0  0  0
 14  7  1  0  0  0  0
 14  5  1  1  0  0  0
 17 15  2  0  0  0  0
 17 16  1  0  0  0  0
 20 21  1  0  0  0  0
 21 19  1  0  0  0  0
 21 18  1  0  0  0  0
 22 23  1  0  0  0  0
 23 21  1  0  0  0  0
 24 27  1  6  0  0  0
 24  1  1  0  0  0  0
 24 26  1  0  0  0  0
 26 25  1  0  0  0  0
 28 27  1  0  0  0  0
 29 28  1  0  0  0  0
 30 29  1  0  0  0  0
 31 30  1  0  0  0  0
 32 31  1  0  0  0  0
 33 32  1  0  0  0  0
 34 40  1  0  0  0  0
 35 43  1  6  0  0  0
 35 36  1  0  0  0  0
 36 38  1  0  0  0  0
 38 37  1  1  0  0  0
 39 41  1  0  0  0  0
 39 34  1  0  0  0  0
 40 33  1  1  0  0  0
 40 38  1  0  0  0  0
 41 35  1  0  0  0  0
 43 42  1  0  0  0  0
 43 44  1  0  0  0  0
M  END
>  <MODEL>
3

>  <REMARK>
 VINA RESULT:      -7.1      1.849      2.786
  Name = 
  16 active torsions:
  status: ('A' for Active; 'I' for Inactive)
    1  A    between atoms: O_1  and  C_10
    2  A    between atoms: O_1  and  C_33
    3  A    between atoms: O_3  and  C_12
    4  A    between atoms: O_3  and  N_42
    5  A    between atoms: C_5  and  C_17
    6  A    between atoms: C_5  and  C_41
    7  A    between atoms: C_6  and  N_14
    8  A    between atoms: C_6  and  C_25
    9  A    between atoms: C_8  and  C_12
   10  A    between atoms: C_8  and  C_25
   11  A    between atoms: CA_9  and  C_38
   12  A    between atoms: C_12  and  C_26
   13  A    between atoms: N_14  and  C_37
   14  A    between atoms: C_15  and  N_39
   15  A    between atoms: C_17  and  C_37
   16  A    between atoms: S_28  and  C_33
                            x       y       z     vdW  Elec       q    Type
                         _______ _______ _______ _____ _____    ______ ____

>  <TORSDO>
F 16

$$$$
=
 OpenBabel10222422013D

 44 47  0  0  1  0  0  0  0  0999 V2000
  183.7720  179.1360  142.0340 O   0  0  0  0  0  0  0  0  0  0  0  0
  183.0920  177.8630  137.8130 C   0  0  1  0  0  3  0  0  0  0  0  0
  181.1640  178.7620  140.6590 C   0  0  0  0  0  0  0  0  0  0  0  0
  184.4600  176.0150  137.1650 C   0  0  1  0  0  3  0  0  0  0  0  0
  182.5070  178.9740  140.0660 C   0  0  0  0  0  0  0  0  0  0  0  0
  180.3350  178.2740  139.7800 N   0  0  0  0  0  0  0  0  0  0  0  0
  181.0550  178.1820  138.5540 C   0  0  2  0  0  3  0  0  0  0  0  0
  184.4910  177.3480  137.9570 C   0  0  0  0  0  2  0  0  0  0  0  0
  182.5000  174.8770  136.2360 O   0  0  0  0  0  0  0  0  0  0  0  0
  182.2870  177.0260  137.1690 N   0  0  0  0  0  0  0  0  0  0  0  0
  183.0210  175.8920  136.7710 C   0  0  0  0  0  0  0  0  0  0  0  0
  181.0350  177.1110  137.6700 C   0  0  0  0  0  2  0  0  0  0  0  0
  183.6530  179.0650  140.6660 N   0  0  0  0  0  0  0  0  0  0  0  0
  182.3380  178.6300  138.6710 C   0  0  2  0  0  3  0  0  0  0  0  0
  180.5980  178.1610  142.8880 O   0  0  0  0  0  1  0  0  0  0  0  0
  180.5080  180.3910  142.4000 O   0  0  0  0  0  0  0  0  0  0  0  0
  180.7290  179.0720  142.0300 C   0  0  0  0  0  0  0  0  0  0  0  0
  185.2620  176.1330  136.0130 O   0  0  0  0  0  0  0  0  0  0  0  0
  186.2430  174.4410  137.1900 O   0  0  0  0  0  1  0  0  0  0  0  0
  185.6030  174.0460  135.0580 O   0  0  0  0  0  1  0  0  0  0  0  0
  186.1270  175.0150  135.9230 C   0  0  0  0  0  0  0  0  0  0  0  0
  187.6380  177.2390  135.8520 C   0  0  0  0  0  1  0  0  0  0  0  0
  187.8000  175.4970  135.3450 S   0  0  0  0  0  0  0  0  0  0  0  0
  185.0470  179.0500  142.6480 C   0  0  1  0  0  3  0  0  0  0  0  0
  183.5270  179.0180  144.6310 C   0  0  0  0  0  1  0  0  0  0  0  0
  184.8710  178.5760  144.0820 C   0  0  0  0  0  2  0  0  0  0  0  0
  185.9190  178.0720  141.8700 C   0  0  0  0  0  2  0  0  0  0  0  0
  187.1960  178.7520  141.4180 C   0  0  0  0  0  2  0  0  0  0  0  0
  187.4070  178.5040  139.9380 C   0  0  0  0  0  2  0  0  0  0  0  0
  188.2690  177.3490  139.7610 N   0  0  0  0  0  2  0  0  0  0  0  0
  189.6340  177.8460  139.6960 C   0  0  0  0  0  2  0  0  0  0  0  0
  190.5840  176.8210  140.2830 C   0  0  0  0  0  2  0  0  0  0  0  0
  191.3700  177.4420  141.4260 C   0  0  0  0  0  2  0  0  0  0  0  0
  189.7340  176.1900  142.8430 C   0  0  0  0  0  2  0  0  0  0  0  0
  189.5480  177.7290  145.6810 C   0  0  1  0  0  3  0  0  0  0  0  0
  190.9300  177.2200  145.2270 C   0  0  0  0  0  2  0  0  0  0  0  0
  191.6520  179.2250  144.0070 N   0  0  0  0  0  1  0  0  0  0  0  0
  191.4270  177.7940  143.8900 C   0  0  2  0  0  3  0  0  0  0  0  0
  188.5330  176.2950  143.7980 C   0  0  0  0  0  2  0  0  0  0  0  0
  190.5200  177.4990  142.6840 C   0  0  1  0  0  3  0  0  0  0  0  0
  188.4690  177.6060  144.5900 C   0  0  0  0  0  2  0  0  0  0  0  0
  190.0030  177.3600  147.8850 O   0  0  0  0  0  1  0  0  0  0  0  0
  189.1310  177.0280  146.9010 N   0  0  0  0  0  0  0  0  0  0  0  0
  187.9290  177.5340  147.2770 O   0  0  0  0  0  1  0  0  0  0  0  0
  1 24  1  0  0  0  0
  2  8  1  1  0  0  0
  2 14  1  0  0  0  0
  3 17  1  0  0  0  0
  4 18  1  6  0  0  0
  4  8  1  0  0  0  0
  5  3  1  0  0  0  0
  5 13  2  0  0  0  0
  6  3  2  0  0  0  0
  7 12  1  1  0  0  0
  7 14  1  0  0  0  0
  7  6  1  0  0  0  0
  9 11  2  0  0  0  0
 10 12  1  0  0  0  0
 10  2  1  0  0  0  0
 11  4  1  0  0  0  0
 11 10  1  0  0  0  0
 13  1  1  0  0  0  0
 14  5  1  1  0  0  0
 17 16  2  0  0  0  0
 17 15  1  0  0  0  0
 20 21  1  0  0  0  0
 21 18  1  0  0  0  0
 21 19  1  0  0  0  0
 23 22  1  0  0  0  0
 23 21  1  0  0  0  0
 24 27  1  6  0  0  0
 24 26  1  0  0  0  0
 26 25  1  0  0  0  0
 28 27  1  0  0  0  0
 29 28  1  0  0  0  0
 30 29  1  0  0  0  0
 31 30  1  0  0  0  0
 31 32  1  0  0  0  0
 32 33  1  0  0  0  0
 34 39  1  0  0  0  0
 35 43  1  1  0  0  0
 36 35  1  0  0  0  0
 38 37  1  1  0  0  0
 38 36  1  0  0  0  0
 39 41  1  0  0  0  0
 40 33  1  6  0  0  0
 40 34  1  0  0  0  0
 40 38  1  0  0  0  0
 41 35  1  0  0  0  0
 43 44  1  0  0  0  0
 43 42  1  0  0  0  0
M  END
>  <MODEL>
4

>  <REMARK>
 VINA RESULT:      -7.1      2.617      8.324
  Name = 
  16 active torsions:
  status: ('A' for Active; 'I' for Inactive)
    1  A    between atoms: O_1  and  C_10
    2  A    between atoms: O_1  and  C_33
    3  A    between atoms: O_3  and  C_12
    4  A    between atoms: O_3  and  N_42
    5  A    between atoms: C_5  and  C_17
    6  A    between atoms: C_5  and  C_41
    7  A    between atoms: C_6  and  N_14
    8  A    between atoms: C_6  and  C_25
    9  A    between atoms: C_8  and  C_12
   10  A    between atoms: C_8  and  C_25
   11  A    between atoms: CA_9  and  C_38
   12  A    between atoms: C_12  and  C_26
   13  A    between atoms: N_14  and  C_37
   14  A    between atoms: C_15  and  N_39
   15  A    between atoms: C_17  and  C_37
   16  A    between atoms: S_28  and  C_33
                            x       y       z     vdW  Elec       q    Type
                         _______ _______ _______ _____ _____    ______ ____

>  <TORSDO>
F 16

$$$$
=
 OpenBabel10222422013D

 44 47  0  0  1  0  0  0  0  0999 V2000
  184.5980  179.1000  140.2400 O   0  0  0  0  0  0  0  0  0  0  0  0
  186.7220  177.0980  136.8660 C   0  0  1  0  0  3  0  0  0  0  0  0
  183.4180  177.3430  138.1520 C   0  0  0  0  0  0  0  0  0  0  0  0
  188.7650  176.0590  137.5360 C   0  0  1  0  0  3  0  0  0  0  0  0
  184.7000  178.0890  138.1260 C   0  0  0  0  0  0  0  0  0  0  0  0
  183.4030  176.4050  137.2480 N   0  0  0  0  0  0  0  0  0  0  0  0
  184.6380  176.5030  136.5440 C   0  0  2  0  0  3  0  0  0  0  0  0
  187.9130  177.3380  137.7410 C   0  0  0  0  0  2  0  0  0  0  0  0
  188.1210  174.0090  136.3610 O   0  0  0  0  0  0  0  0  0  0  0  0
  186.7220  175.8990  136.2940 N   0  0  0  0  0  0  0  0  0  0  0  0
  187.8940  175.2110  136.6620 C   0  0  0  0  0  0  0  0  0  0  0  0
  185.4560  175.4440  136.1740 C   0  0  0  0  0  2  0  0  0  0  0  0
  185.2470  178.7960  139.0660 N   0  0  0  0  0  0  0  0  0  0  0  0
  185.4200  177.5200  137.0060 C   0  0  2  0  0  3  0  0  0  0  0  0
  181.4590  178.5360  138.7760 O   0  0  0  0  0  0  0  0  0  0  0  0
  181.9970  176.7410  140.0830 O   0  0  0  0  0  1  0  0  0  0  0  0
  182.2540  177.5910  139.0170 C   0  0  0  0  0  0  0  0  0  0  0  0
  189.9520  176.3870  136.8540 O   0  0  0  0  0  0  0  0  0  0  0  0
  191.3190  176.9240  138.6000 O   0  0  0  0  0  1  0  0  0  0  0  0
  190.8060  174.7490  138.2570 O   0  0  0  0  0  1  0  0  0  0  0  0
  191.0680  175.9670  137.6160 C   0  0  0  0  0  0  0  0  0  0  0  0
  193.2080  174.3420  137.4820 C   0  0  0  0  0  1  0  0  0  0  0  0
  192.5700  175.7890  136.5780 S   0  0  0  0  0  0  0  0  0  0  0  0
  185.0940  178.6190  141.4780 C   0  0  1  0  0  3  0  0  0  0  0  0
  187.5650  178.6900  141.1110 C   0  0  0  0  0  1  0  0  0  0  0  0
  186.3880  179.3480  141.8050 C   0  0  0  0  0  2  0  0  0  0  0  0
  184.0570  178.8620  142.5670 C   0  0  0  0  0  2  0  0  0  0  0  0
  184.7290  178.9390  143.9230 C   0  0  0  0  0  2  0  0  0  0  0  0
  183.7020  178.7060  145.0130 C   0  0  0  0  0  2  0  0  0  0  0  0
  184.3570  178.7460  146.3090 N   0  0  0  0  0  2  0  0  0  0  0  0
  185.6700  179.3350  146.1020 C   0  0  0  0  0  2  0  0  0  0  0  0
  186.6850  178.6610  147.0030 C   0  0  0  0  0  2  0  0  0  0  0  0
  186.7990  177.1900  146.6410 C   0  0  0  0  0  2  0  0  0  0  0  0
  187.6860  177.1690  144.3030 C   0  0  0  0  0  2  0  0  0  0  0  0
  190.9130  177.1050  144.5010 C   0  0  1  0  0  3  0  0  0  0  0  0
  190.1730  178.2740  145.1810 C   0  0  0  0  0  2  0  0  0  0  0  0
  189.8580  177.2480  147.3880 N   0  0  0  0  0  1  0  0  0  0  0  0
  189.1670  177.8620  146.2680 C   0  0  2  0  0  3  0  0  0  0  0  0
  188.6930  176.5370  143.3270 C   0  0  0  0  0  2  0  0  0  0  0  0
  188.0300  176.9490  145.7830 C   0  0  1  0  0  3  0  0  0  0  0  0
  189.9670  176.0030  143.9930 C   0  0  0  0  0  2  0  0  0  0  0  0
  191.2250  177.1620  142.2430 O   0  0  0  0  0  1  0  0  0  0  0  0
  191.7530  177.6090  143.4090 N   0  0  0  0  0  0  0  0  0  0  0  0
  191.6310  178.9600  143.3850 O   0  0  0  0  0  1  0  0  0  0  0  0
  1 24  1  0  0  0  0
  2 14  1  0  0  0  0
  2  8  1  1  0  0  0
  3 17  1  0  0  0  0
  4 18  1  6  0  0  0
  4  8  1  0  0  0  0
  5  3  1  0  0  0  0
  5 13  2  0  0  0  0
  6  3  2  0  0  0  0
  7 12  1  1  0  0  0
  7 14  1  0  0  0  0
  7  6  1  0  0  0  0
  9 11  2  0  0  0  0
 10 11  1  0  0  0  0
 10  2  1  0  0  0  0
 11  4  1  0  0  0  0
 12 10  1  0  0  0  0
 13  1  1  0  0  0  0
 14  5  1  1  0  0  0
 15 17  2  0  0  0  0
 17 16  1  0  0  0  0
 18 21  1  0  0  0  0
 21 20  1  0  0  0  0
 21 19  1  0  0  0  0
 23 22  1  0  0  0  0
 23 21  1  0  0  0  0
 24 26  1  1  0  0  0
 24 27  1  0  0  0  0
 25 26  1  0  0  0  0
 27 28  1  0  0  0  0
 28 29  1  0  0  0  0
 29 30  1  0  0  0  0
 31 30  1  0  0  0  0
 31 32  1  0  0  0  0
 33 32  1  0  0  0  0
 34 40  1  0  0  0  0
 35 43  1  6  0  0  0
 35 36  1  0  0  0  0
 36 38  1  0  0  0  0
 38 37  1  1  0  0  0
 39 41  1  0  0  0  0
 39 34  1  0  0  0  0
 40 38  1  0  0  0  0
 40 33  1  1  0  0  0
 41 35  1  0  0  0  0
 42 43  1  0  0  0  0
 44 43  1  0  0  0  0
M  END
>  <MODEL>
5

>  <REMARK>
 VINA RESULT:      -7.0      2.496      7.708
  Name = 
  16 active torsions:
  status: ('A' for Active; 'I' for Inactive)
    1  A    between atoms: O_1  and  C_10
    2  A    between atoms: O_1  and  C_33
    3  A    between atoms: O_3  and  C_12
    4  A    between atoms: O_3  and  N_42
    5  A    between atoms: C_5  and  C_17
    6  A    between atoms: C_5  and  C_41
    7  A    between atoms: C_6  and  N_14
    8  A    between atoms: C_6  and  C_25
    9  A    between atoms: C_8  and  C_12
   10  A    between atoms: C_8  and  C_25
   11  A    between atoms: CA_9  and  C_38
   12  A    between atoms: C_12  and  C_26
   13  A    between atoms: N_14  and  C_37
   14  A    between atoms: C_15  and  N_39
   15  A    between atoms: C_17  and  C_37
   16  A    between atoms: S_28  and  C_33
                            x       y       z     vdW  Elec       q    Type
                         _______ _______ _______ _____ _____    ______ ____

>  <TORSDO>
F 16

$$$$
=
 OpenBabel10222422013D

 44 47  0  0  1  0  0  0  0  0999 V2000
  189.0390  178.0620  138.7320 O   0  0  0  0  0  0  0  0  0  0  0  0
  192.1270  175.8400  136.4010 C   0  0  1  0  0  3  0  0  0  0  0  0
  188.6050  176.3110  136.3690 C   0  0  0  0  0  0  0  0  0  0  0  0
  193.7070  174.7080  137.7900 C   0  0  1  0  0  3  0  0  0  0  0  0
  189.8510  176.9810  136.8150 C   0  0  0  0  0  0  0  0  0  0  0  0
  188.8650  175.3470  135.5320 N   0  0  0  0  0  0  0  0  0  0  0  0
  190.2760  175.3530  135.3350 C   0  0  2  0  0  3  0  0  0  0  0  0
  192.9230  176.0390  137.6540 C   0  0  0  0  0  2  0  0  0  0  0  0
  193.4130  172.6620  136.4760 O   0  0  0  0  0  0  0  0  0  0  0  0
  192.2620  174.6260  135.8800 N   0  0  0  0  0  0  0  0  0  0  0  0
  193.1690  173.8840  136.6620 C   0  0  0  0  0  0  0  0  0  0  0  0
  191.1030  174.2390  135.3030 C   0  0  0  0  0  2  0  0  0  0  0  0
  190.0550  177.6860  137.8840 N   0  0  0  0  0  0  0  0  0  0  0  0
  190.8950  176.3390  136.0460 C   0  0  2  0  0  3  0  0  0  0  0  0
  186.7590  177.8000  136.5250 O   0  0  0  0  0  0  0  0  0  0  0  0
  186.3970  175.6770  137.2840 O   0  0  0  0  0  1  0  0  0  0  0  0
  187.2220  176.6500  136.7390 C   0  0  0  0  0  0  0  0  0  0  0  0
  195.0800  174.9480  137.5940 O   0  0  0  0  0  0  0  0  0  0  0  0
  195.5530  175.3530  139.7890 O   0  0  0  0  0  1  0  0  0  0  0  0
  195.3930  173.2080  139.0960 O   0  0  0  0  0  1  0  0  0  0  0  0
  195.8060  174.4920  138.7210 C   0  0  0  0  0  0  0  0  0  0  0  0
  198.0610  175.1490  140.0320 C   0  0  0  0  0  1  0  0  0  0  0  0
  197.6130  174.4730  138.4020 S   0  0  0  0  0  0  0  0  0  0  0  0
  188.9240  177.4750  140.0170 C   0  0  1  0  0  3  0  0  0  0  0  0
  190.2420  176.5100  141.9080 C   0  0  0  0  0  1  0  0  0  0  0  0
  190.3170  177.1710  140.5440 C   0  0  0  0  0  2  0  0  0  0  0  0
  188.2020  178.4390  140.9500 C   0  0  0  0  0  2  0  0  0  0  0  0
  186.7310  178.5120  140.5950 C   0  0  0  0  0  2  0  0  0  0  0  0
  185.9540  179.0870  141.7620 C   0  0  0  0  0  2  0  0  0  0  0  0
  185.4450  178.0040  142.5830 N   0  0  0  0  0  2  0  0  0  0  0  0
  184.6820  178.6120  143.6610 C   0  0  0  0  0  2  0  0  0  0  0  0
  185.6250  179.1670  144.7110 C   0  0  0  0  0  2  0  0  0  0  0  0
  185.6600  178.2370  145.9130 C   0  0  0  0  0  2  0  0  0  0  0  0
  187.0530  177.4330  147.8270 C   0  0  0  0  0  2  0  0  0  0  0  0
  190.1350  177.4510  146.8450 C   0  0  1  0  0  3  0  0  0  0  0  0
  189.1270  176.6080  146.0390 C   0  0  0  0  0  2  0  0  0  0  0  0
  188.4390  178.3330  144.4330 N   0  0  0  0  0  1  0  0  0  0  0  0
  187.9550  177.3980  145.4350 C   0  0  2  0  0  3  0  0  0  0  0  0
  188.3240  177.6620  148.6630 C   0  0  0  0  0  2  0  0  0  0  0  0
  187.0740  178.1310  146.4590 C   0  0  1  0  0  3  0  0  0  0  0  0
  189.4660  178.3460  147.9030 C   0  0  0  0  0  2  0  0  0  0  0  0
  191.9160  176.0760  146.4760 O   0  0  0  0  0  1  0  0  0  0  0  0
  191.1370  176.5780  147.4660 N   0  0  0  0  0  0  0  0  0  0  0  0
  191.9480  177.3560  148.2260 O   0  0  0  0  0  1  0  0  0  0  0  0
  1 24  1  0  0  0  0
  2  8  1  1  0  0  0
  3 17  1  0  0  0  0
  3  5  1  0  0  0  0
  4 18  1  6  0  0  0
  5 13  2  0  0  0  0
  6  3  2  0  0  0  0
  7 12  1  1  0  0  0
  7  6  1  0  0  0  0
  7 14  1  0  0  0  0
  8  4  1  0  0  0  0
  9 11  2  0  0  0  0
 10  2  1  0  0  0  0
 10 11  1  0  0  0  0
 11  4  1  0  0  0  0
 12 10  1  0  0  0  0
 13  1  1  0  0  0  0
 14  2  1  0  0  0  0
 14  5  1  1  0  0  0
 15 17  2  0  0  0  0
 17 16  1  0  0  0  0
 18 21  1  0  0  0  0
 21 20  1  0  0  0  0
 21 19  1  0  0  0  0
 23 21  1  0  0  0  0
 23 22  1  0  0  0  0
 24 26  1  1  0  0  0
 24 27  1  0  0  0  0
 26 25  1  0  0  0  0
 28 27  1  0  0  0  0
 28 29  1  0  0  0  0
 29 30  1  0  0  0  0
 30 31  1  0  0  0  0
 31 32  1  0  0  0  0
 32 33  1  0  0  0  0
 34 39  1  0  0  0  0
 35 43  1  1  0  0  0
 35 41  1  0  0  0  0
 36 35  1  0  0  0  0
 38 37  1  6  0  0  0
 38 36  1  0  0  0  0
 38 40  1  0  0  0  0
 40 33  1  6  0  0  0
 40 34  1  0  0  0  0
 41 39  1  0  0  0  0
 42 43  1  0  0  0  0
 43 44  1  0  0  0  0
M  END
>  <MODEL>
6

>  <REMARK>
 VINA RESULT:      -6.9      3.749      8.964
  Name = 
  16 active torsions:
  status: ('A' for Active; 'I' for Inactive)
    1  A    between atoms: O_1  and  C_10
    2  A    between atoms: O_1  and  C_33
    3  A    between atoms: O_3  and  C_12
    4  A    between atoms: O_3  and  N_42
    5  A    between atoms: C_5  and  C_17
    6  A    between atoms: C_5  and  C_41
    7  A    between atoms: C_6  and  N_14
    8  A    between atoms: C_6  and  C_25
    9  A    between atoms: C_8  and  C_12
   10  A    between atoms: C_8  and  C_25
   11  A    between atoms: CA_9  and  C_38
   12  A    between atoms: C_12  and  C_26
   13  A    between atoms: N_14  and  C_37
   14  A    between atoms: C_15  and  N_39
   15  A    between atoms: C_17  and  C_37
   16  A    between atoms: S_28  and  C_33
                            x       y       z     vdW  Elec       q    Type
                         _______ _______ _______ _____ _____    ______ ____

>  <TORSDO>
F 16

$$$$
=
 OpenBabel10222422013D

 44 47  0  0  1  0  0  0  0  0999 V2000
  186.7920  178.1640  145.1200 O   0  0  0  0  0  0  0  0  0  0  0  0
  189.6180  176.4510  142.1220 C   0  0  1  0  0  3  0  0  0  0  0  0
  189.5040  177.0540  145.6220 C   0  0  0  0  0  0  0  0  0  0  0  0
  189.7960  177.7790  140.1440 C   0  0  1  0  0  3  0  0  0  0  0  0
  188.6050  176.8270  144.4650 C   0  0  0  0  0  0  0  0  0  0  0  0
  190.7300  176.7190  145.3360 N   0  0  0  0  0  0  0  0  0  0  0  0
  190.7100  176.2080  144.0060 C   0  0  2  0  0  3  0  0  0  0  0  0
  188.7690  177.2390  141.1730 C   0  0  0  0  0  2  0  0  0  0  0  0
  192.2390  177.6670  140.2750 O   0  0  0  0  0  0  0  0  0  0  0  0
  190.9170  176.5310  141.8560 N   0  0  0  0  0  0  0  0  0  0  0  0
  191.1060  177.3230  140.7070 C   0  0  0  0  0  0  0  0  0  0  0  0
  191.6270  176.4940  143.0040 C   0  0  0  0  0  2  0  0  0  0  0  0
  187.4540  177.3680  144.2130 N   0  0  0  0  0  0  0  0  0  0  0  0
  189.4570  176.2140  143.4680 C   0  0  2  0  0  3  0  0  0  0  0  0
  189.3570  178.7400  147.2910 O   0  0  0  0  0  0  0  0  0  0  0  0
  188.4960  176.7000  147.8520 O   0  0  0  0  0  1  0  0  0  0  0  0
  189.1380  177.5460  146.9590 C   0  0  0  0  0  0  0  0  0  0  0  0
  189.5750  177.1700  138.8940 O   0  0  0  0  0  0  0  0  0  0  0  0
  188.9880  179.3570  138.6080 O   0  0  0  0  0  1  0  0  0  0  0  0
  189.5950  178.1540  136.7930 O   0  0  0  0  0  1  0  0  0  0  0  0
  188.9350  178.0890  138.0270 C   0  0  0  0  0  0  0  0  0  0  0  0
  187.5450  176.0190  137.0200 C   0  0  0  0  0  1  0  0  0  0  0  0
  187.1770  177.6470  137.7480 S   0  0  0  0  0  0  0  0  0  0  0  0
  185.3880  178.0550  145.2780 C   0  0  1  0  0  3  0  0  0  0  0  0
  185.9830  179.4170  147.2880 C   0  0  0  0  0  1  0  0  0  0  0  0
  185.0310  178.3810  146.7200 C   0  0  0  0  0  2  0  0  0  0  0  0
  184.6950  179.0240  144.3280 C   0  0  0  0  0  2  0  0  0  0  0  0
  183.2500  179.2210  144.7420 C   0  0  0  0  0  2  0  0  0  0  0  0
  182.3360  178.7910  143.6120 C   0  0  0  0  0  2  0  0  0  0  0  0
  180.9780  178.6690  144.1110 N   0  0  0  0  0  2  0  0  0  0  0  0
  180.0920  178.8200  142.9680 C   0  0  0  0  0  2  0  0  0  0  0  0
  180.8650  178.5930  141.6840 C   0  0  0  0  0  2  0  0  0  0  0  0
  180.1100  177.6170  140.7960 C   0  0  0  0  0  2  0  0  0  0  0  0
  182.0030  178.3880  139.3550 C   0  0  0  0  0  2  0  0  0  0  0  0
  182.6980  175.9780  137.3130 C   0  0  1  0  0  3  0  0  0  0  0  0
  182.7690  175.6850  138.8250 C   0  0  0  0  0  2  0  0  0  0  0  0
  180.4470  174.9560  139.1460 N   0  0  0  0  0  1  0  0  0  0  0  0
  181.4550  175.9020  139.5920 C   0  0  2  0  0  3  0  0  0  0  0  0
  182.5630  178.4760  137.9250 C   0  0  0  0  0  2  0  0  0  0  0  0
  180.9000  177.3340  139.5290 C   0  0  1  0  0  3  0  0  0  0  0  0
  182.0900  177.3550  136.9920 C   0  0  0  0  0  2  0  0  0  0  0  0
  184.0650  174.6760  136.0350 O   0  0  0  0  0  1  0  0  0  0  0  0
  184.0300  175.8490  136.7130 N   0  0  0  0  0  0  0  0  0  0  0  0
  184.1590  176.8270  135.7810 O   0  0  0  0  0  1  0  0  0  0  0  0
  1 24  1  0  0  0  0
  2  8  1  1  0  0  0
  2 14  1  0  0  0  0
  3 17  1  0  0  0  0
  4 18  1  6  0  0  0
  4 11  1  0  0  0  0
  4  8  1  0  0  0  0
  5  3  1  0  0  0  0
  6  3  2  0  0  0  0
  7 12  1  6  0  0  0
  7  6  1  0  0  0  0
  9 11  2  0  0  0  0
 10  2  1  0  0  0  0
 10 12  1  0  0  0  0
 11 10  1  0  0  0  0
 13  5  2  0  0  0  0
 13  1  1  0  0  0  0
 14  7  1  0  0  0  0
 14  5  1  1  0  0  0
 17 15  2  0  0  0  0
 17 16  1  0  0  0  0
 20 21  1  0  0  0  0
 21 19  1  0  0  0  0
 21 18  1  0  0  0  0
 22 23  1  0  0  0  0
 23 21  1  0  0  0  0
 24 27  1  6  0  0  0
 24 26  1  0  0  0  0
 26 25  1  0  0  0  0
 27 28  1  0  0  0  0
 29 30  1  0  0  0  0
 29 28  1  0  0  0  0
 31 30  1  0  0  0  0
 32 31  1  0  0  0  0
 33 32  1  0  0  0  0
 34 40  1  0  0  0  0
 35 43  1  1  0  0  0
 35 36  1  0  0  0  0
 36 38  1  0  0  0  0
 38 37  1  6  0  0  0
 39 34  1  0  0  0  0
 40 38  1  0  0  0  0
 40 33  1  1  0  0  0
 41 35  1  0  0  0  0
 41 39  1  0  0  0  0
 42 43  1  0  0  0  0
 44 43  1  0  0  0  0
M  END
>  <MODEL>
7

>  <REMARK>
 VINA RESULT:      -6.9      2.027      3.147
  Name = 
  16 active torsions:
  status: ('A' for Active; 'I' for Inactive)
    1  A    between atoms: O_1  and  C_10
    2  A    between atoms: O_1  and  C_33
    3  A    between atoms: O_3  and  C_12
    4  A    between atoms: O_3  and  N_42
    5  A    between atoms: C_5  and  C_17
    6  A    between atoms: C_5  and  C_41
    7  A    between atoms: C_6  and  N_14
    8  A    between atoms: C_6  and  C_25
    9  A    between atoms: C_8  and  C_12
   10  A    between atoms: C_8  and  C_25
   11  A    between atoms: CA_9  and  C_38
   12  A    between atoms: C_12  and  C_26
   13  A    between atoms: N_14  and  C_37
   14  A    between atoms: C_15  and  N_39
   15  A    between atoms: C_17  and  C_37
   16  A    between atoms: S_28  and  C_33
                            x       y       z     vdW  Elec       q    Type
                         _______ _______ _______ _____ _____    ______ ____

>  <TORSDO>
F 16

$$$$
=
 OpenBabel10222422013D

 44 47  0  0  1  0  0  0  0  0999 V2000
  183.1040  178.5280  140.5370 O   0  0  0  0  0  0  0  0  0  0  0  0
  184.3160  177.2720  136.4320 C   0  0  1  0  0  3  0  0  0  0  0  0
  181.4910  176.9920  138.5690 C   0  0  0  0  0  0  0  0  0  0  0  0
  186.5200  176.3540  136.3500 C   0  0  1  0  0  3  0  0  0  0  0  0
  182.6720  177.8570  138.3320 C   0  0  0  0  0  0  0  0  0  0  0  0
  181.2780  176.2010  137.5550 N   0  0  0  0  0  0  0  0  0  0  0  0
  182.2610  176.5260  136.5760 C   0  0  2  0  0  3  0  0  0  0  0  0
  185.6880  177.4970  136.9880 C   0  0  0  0  0  2  0  0  0  0  0  0
  185.6900  174.4480  135.0560 O   0  0  0  0  0  0  0  0  0  0  0  0
  184.2240  176.1770  135.6850 N   0  0  0  0  0  0  0  0  0  0  0  0
  185.4890  175.5630  135.6060 C   0  0  0  0  0  0  0  0  0  0  0  0
  183.0020  175.6210  135.8280 C   0  0  0  0  0  2  0  0  0  0  0  0
  183.4170  178.4680  139.1990 N   0  0  0  0  0  0  0  0  0  0  0  0
  183.0830  177.5360  136.9820 C   0  0  2  0  0  3  0  0  0  0  0  0
  180.4280  175.9460  140.4190 O   0  0  0  0  0  1  0  0  0  0  0  0
  179.9820  178.1680  140.1350 O   0  0  0  0  0  0  0  0  0  0  0  0
  180.6010  176.9900  139.7400 C   0  0  0  0  0  0  0  0  0  0  0  0
  187.4510  176.8970  135.4440 O   0  0  0  0  0  0  0  0  0  0  0  0
  188.8610  175.1130  135.2540 O   0  0  0  0  0  1  0  0  0  0  0  0
  189.7310  177.1970  135.1340 O   0  0  0  0  0  1  0  0  0  0  0  0
  188.7460  176.4130  135.7490 C   0  0  0  0  0  0  0  0  0  0  0  0
  189.3480  178.1690  137.6960 C   0  0  0  0  0  1  0  0  0  0  0  0
  189.0490  176.3770  137.5580 S   0  0  0  0  0  0  0  0  0  0  0  0
  184.0930  178.2610  141.5170 C   0  0  1  0  0  3  0  0  0  0  0  0
  186.4740  178.5480  140.8120 C   0  0  0  0  0  1  0  0  0  0  0  0
  185.2360  179.2490  141.3410 C   0  0  0  0  0  2  0  0  0  0  0  0
  183.4810  178.4010  142.9050 C   0  0  0  0  0  2  0  0  0  0  0  0
  184.5700  178.4540  143.9570 C   0  0  0  0  0  2  0  0  0  0  0  0
  184.0430  179.1390  145.2020 C   0  0  0  0  0  2  0  0  0  0  0  0
  184.5530  178.4590  146.3790 N   0  0  0  0  0  2  0  0  0  0  0  0
  185.9800  178.7310  146.4390 C   0  0  0  0  0  2  0  0  0  0  0  0
  186.7480  177.4300  146.5600 C   0  0  0  0  0  2  0  0  0  0  0  0
  188.2410  177.7130  146.5780 C   0  0  0  0  0  2  0  0  0  0  0  0
  187.8410  177.2590  144.1520 C   0  0  0  0  0  2  0  0  0  0  0  0
  190.7370  177.0020  142.7340 C   0  0  1  0  0  3  0  0  0  0  0  0
  190.4130  178.3130  143.4780 C   0  0  0  0  0  2  0  0  0  0  0  0
  191.2620  177.6750  145.6910 N   0  0  0  0  0  1  0  0  0  0  0  0
  190.0930  178.1510  144.9720 C   0  0  2  0  0  3  0  0  0  0  0  0
  188.2390  176.4110  142.9310 C   0  0  0  0  0  2  0  0  0  0  0  0
  188.8830  177.2530  145.2800 C   0  0  1  0  0  3  0  0  0  0  0  0
  189.6850  175.9020  142.9600 C   0  0  0  0  0  2  0  0  0  0  0  0
  192.2400  177.3670  141.0580 O   0  0  0  0  0  1  0  0  0  0  0  0
  190.9100  177.2670  141.3020 N   0  0  0  0  0  0  0  0  0  0  0  0
  190.4840  176.1690  140.6260 O   0  0  0  0  0  1  0  0  0  0  0  0
  1 24  1  0  0  0  0
  2 14  1  0  0  0  0
  2  8  1  1  0  0  0
  3 17  1  0  0  0  0
  4 18  1  6  0  0  0
  4  8  1  0  0  0  0
  5  3  1  0  0  0  0
  5 13  2  0  0  0  0
  6  3  2  0  0  0  0
  7 12  1  1  0  0  0
  7 14  1  0  0  0  0
  7  6  1  0  0  0  0
  9 11  2  0  0  0  0
 10 12  1  0  0  0  0
 10  2  1  0  0  0  0
 11 10  1  0  0  0  0
 11  4  1  0  0  0  0
 13  1  1  0  0  0  0
 14  5  1  1  0  0  0
 17 16  2  0  0  0  0
 17 15  1  0  0  0  0
 18 21  1  0  0  0  0
 19 21  1  0  0  0  0
 20 21  1  0  0  0  0
 21 23  1  0  0  0  0
 23 22  1  0  0  0  0
 24 26  1  1  0  0  0
 24 27  1  0  0  0  0
 25 26  1  0  0  0  0
 27 28  1  0  0  0  0
 28 29  1  0  0  0  0
 29 30  1  0  0  0  0
 30 31  1  0  0  0  0
 31 32  1  0  0  0  0
 32 33  1  0  0  0  0
 34 40  1  0  0  0  0
 35 43  1  6  0  0  0
 35 41  1  0  0  0  0
 35 36  1  0  0  0  0
 36 38  1  0  0  0  0
 38 40  1  0  0  0  0
 38 37  1  1  0  0  0
 39 41  1  0  0  0  0
 39 34  1  0  0  0  0
 40 33  1  1  0  0  0
 42 43  1  0  0  0  0
 44 43  1  0  0  0  0
M  END
>  <MODEL>
8

>  <REMARK>
 VINA RESULT:      -6.8      2.391      7.962
  Name = 
  16 active torsions:
  status: ('A' for Active; 'I' for Inactive)
    1  A    between atoms: O_1  and  C_10
    2  A    between atoms: O_1  and  C_33
    3  A    between atoms: O_3  and  C_12
    4  A    between atoms: O_3  and  N_42
    5  A    between atoms: C_5  and  C_17
    6  A    between atoms: C_5  and  C_41
    7  A    between atoms: C_6  and  N_14
    8  A    between atoms: C_6  and  C_25
    9  A    between atoms: C_8  and  C_12
   10  A    between atoms: C_8  and  C_25
   11  A    between atoms: CA_9  and  C_38
   12  A    between atoms: C_12  and  C_26
   13  A    between atoms: N_14  and  C_37
   14  A    between atoms: C_15  and  N_39
   15  A    between atoms: C_17  and  C_37
   16  A    between atoms: S_28  and  C_33
                            x       y       z     vdW  Elec       q    Type
                         _______ _______ _______ _____ _____    ______ ____

>  <TORSDO>
F 16

$$$$
=
 OpenBabel10222422013D

 44 47  0  0  1  0  0  0  0  0999 V2000
  183.5040  177.5510  139.4240 O   0  0  0  0  0  0  0  0  0  0  0  0
  186.7570  176.8630  136.4490 C   0  0  1  0  0  3  0  0  0  0  0  0
  183.2370  176.4320  136.6820 C   0  0  0  0  0  0  0  0  0  0  0  0
  188.6910  175.8370  137.4040 C   0  0  1  0  0  3  0  0  0  0  0  0
  184.3360  177.2510  137.2510 C   0  0  0  0  0  0  0  0  0  0  0  0
  183.6220  175.8190  135.5990 N   0  0  0  0  0  0  0  0  0  0  0  0
  184.9650  176.2290  135.3580 C   0  0  2  0  0  3  0  0  0  0  0  0
  187.6130  176.9180  137.6760 C   0  0  0  0  0  2  0  0  0  0  0  0
  188.7380  174.2030  135.5800 O   0  0  0  0  0  0  0  0  0  0  0  0
  187.1110  175.9020  135.6030 N   0  0  0  0  0  0  0  0  0  0  0  0
  188.2410  175.2320  136.1100 C   0  0  0  0  0  0  0  0  0  0  0  0
  186.0180  175.4050  134.9840 C   0  0  0  0  0  2  0  0  0  0  0  0
  184.4840  177.6770  138.4670 N   0  0  0  0  0  0  0  0  0  0  0  0
  185.4130  177.1150  136.2940 C   0  0  2  0  0  3  0  0  0  0  0  0
  181.0430  177.2580  137.0770 O   0  0  0  0  0  0  0  0  0  0  0  0
  181.4360  175.1070  137.7370 O   0  0  0  0  0  1  0  0  0  0  0  0
  181.8600  176.3070  137.1840 C   0  0  0  0  0  0  0  0  0  0  0  0
  189.9440  176.4550  137.2310 O   0  0  0  0  0  0  0  0  0  0  0  0
  190.5330  176.1630  139.4160 O   0  0  0  0  0  1  0  0  0  0  0  0
  190.8850  174.4660  137.9660 O   0  0  0  0  0  1  0  0  0  0  0  0
  190.8890  175.8600  138.1020 C   0  0  0  0  0  0  0  0  0  0  0  0
  193.3470  174.8370  137.7150 C   0  0  0  0  0  1  0  0  0  0  0  0
  192.5850  176.4890  137.7950 S   0  0  0  0  0  0  0  0  0  0  0  0
  182.9740  178.7010  140.0620 C   0  0  1  0  0  3  0  0  0  0  0  0
  181.2810  180.3160  139.1830 C   0  0  0  0  0  1  0  0  0  0  0  0
  182.6800  179.7560  139.0070 C   0  0  0  0  0  2  0  0  0  0  0  0
  181.6990  178.3240  140.8050 C   0  0  0  0  0  2  0  0  0  0  0  0
  181.8600  178.5820  142.2890 C   0  0  0  0  0  2  0  0  0  0  0  0
  183.2920  178.9830  142.5820 C   0  0  0  0  0  2  0  0  0  0  0  0
  183.6490  178.5500  143.9220 N   0  0  0  0  0  2  0  0  0  0  0  0
  184.3120  179.6710  144.5660 C   0  0  0  0  0  2  0  0  0  0  0  0
  185.2320  179.1670  145.6610 C   0  0  0  0  0  2  0  0  0  0  0  0
  185.7390  177.7790  145.3080 C   0  0  0  0  0  2  0  0  0  0  0  0
  188.1390  177.2680  145.7910 C   0  0  0  0  0  2  0  0  0  0  0  0
  189.7530  177.5090  142.9990 C   0  0  1  0  0  3  0  0  0  0  0  0
  188.5800  176.5100  143.0690 C   0  0  0  0  0  2  0  0  0  0  0  0
  186.7900  178.0280  142.3490 N   0  0  0  0  0  1  0  0  0  0  0  0
  187.2170  177.1320  143.4100 C   0  0  2  0  0  3  0  0  0  0  0  0
  189.6020  177.6850  145.5630 C   0  0  0  0  0  2  0  0  0  0  0  0
  187.1570  177.8540  144.7660 C   0  0  1  0  0  3  0  0  0  0  0  0
  189.8510  178.4150  144.2390 C   0  0  0  0  0  2  0  0  0  0  0  0
  191.9810  177.4390  143.4750 O   0  0  0  0  0  1  0  0  0  0  0  0
  191.0130  176.7900  142.7830 N   0  0  0  0  0  0  0  0  0  0  0  0
  190.8930  175.5670  143.3600 O   0  0  0  0  0  1  0  0  0  0  0  0
  1 24  1  0  0  0  0
  2  8  1  1  0  0  0
  3 17  1  0  0  0  0
  3  5  1  0  0  0  0
  4 18  1  6  0  0  0
  4  8  1  0  0  0  0
  5 13  2  0  0  0  0
  6  3  2  0  0  0  0
  7 12  1  1  0  0  0
  7  6  1  0  0  0  0
  7 14  1  0  0  0  0
  9 11  2  0  0  0  0
 10 11  1  0  0  0  0
 10  2  1  0  0  0  0
 11  4  1  0  0  0  0
 12 10  1  0  0  0  0
 13  1  1  0  0  0  0
 14  2  1  0  0  0  0
 14  5  1  1  0  0  0
 15 17  2  0  0  0  0
 17 16  1  0  0  0  0
 18 21  1  0  0  0  0
 20 21  1  0  0  0  0
 21 19  1  0  0  0  0
 22 23  1  0  0  0  0
 23 21  1  0  0  0  0
 24 26  1  6  0  0  0
 24 27  1  0  0  0  0
 26 25  1  0  0  0  0
 27 28  1  0  0  0  0
 28 29  1  0  0  0  0
 29 30  1  0  0  0  0
 30 31  1  0  0  0  0
 31 32  1  0  0  0  0
 33 32  1  0  0  0  0
 35 43  1  1  0  0  0
 35 36  1  0  0  0  0
 35 41  1  0  0  0  0
 36 38  1  0  0  0  0
 38 37  1  6  0  0  0
 38 40  1  0  0  0  0
 39 34  1  0  0  0  0
 40 33  1  1  0  0  0
 40 34  1  0  0  0  0
 41 39  1  0  0  0  0
 43 44  1  0  0  0  0
 43 42  1  0  0  0  0
M  END
>  <MODEL>
9

>  <REMARK>
 VINA RESULT:      -6.7      2.627      7.619
  Name = 
  16 active torsions:
  status: ('A' for Active; 'I' for Inactive)
    1  A    between atoms: O_1  and  C_10
    2  A    between atoms: O_1  and  C_33
    3  A    between atoms: O_3  and  C_12
    4  A    between atoms: O_3  and  N_42
    5  A    between atoms: C_5  and  C_17
    6  A    between atoms: C_5  and  C_41
    7  A    between atoms: C_6  and  N_14
    8  A    between atoms: C_6  and  C_25
    9  A    between atoms: C_8  and  C_12
   10  A    between atoms: C_8  and  C_25
   11  A    between atoms: CA_9  and  C_38
   12  A    between atoms: C_12  and  C_26
   13  A    between atoms: N_14  and  C_37
   14  A    between atoms: C_15  and  N_39
   15  A    between atoms: C_17  and  C_37
   16  A    between atoms: S_28  and  C_33
                            x       y       z     vdW  Elec       q    Type
                         _______ _______ _______ _____ _____    ______ ____

>  <TORSDO>
F 16

$$$$
