=
 OpenBabel10232411213D

 37 40  0  0  1  0  0  0  0  0999 V2000
  188.6370  177.3880  137.9030 C   0  0  0  0  0  0  0  0  0  0  0  0
  189.4060  177.1620  140.1520 N   0  0  0  0  0  0  0  0  0  0  0  0
  187.3480  178.3160  139.7400 C   0  0  0  0  0  0  0  0  0  0  0  0
  187.5260  178.0830  138.3760 C   0  0  0  0  0  3  0  0  0  0  0  0
  188.3240  177.8310  140.6410 C   0  0  0  0  0  0  0  0  0  0  0  0
  189.5990  176.9270  138.8250 C   0  0  0  0  0  0  0  0  0  0  0  0
  188.7260  177.0410  136.1450 S   0  0  0  0  0  1  0  0  0  0  0  0
  192.7130  174.8060  136.4460 C   0  0  0  0  0  3  0  0  0  0  0  0
  192.2440  177.3860  140.0350 O   0  0  0  0  0  1  0  0  0  0  0  0
  193.2670  176.5830  138.0980 C   0  0  0  0  0  3  0  0  0  0  0  0
  190.8140  176.1950  138.4090 C   0  0  0  0  0  0  0  0  0  0  0  0
  191.7580  174.1270  137.3670 C   0  0  0  0  0  2  0  0  0  0  0  0
  190.6430  175.0400  137.7540 C   0  0  0  0  0  3  0  0  0  0  0  0
  193.4080  175.8850  136.8050 C   0  0  0  0  0  3  0  0  0  0  0  0
  192.1520  176.6940  138.8330 C   0  0  0  0  0  0  0  0  0  0  0  0
  188.6900  176.0180  143.3230 C   0  0  0  0  0  2  0  0  0  0  0  0
  189.9210  178.3620  142.7970 S   0  0  0  0  0  0  0  0  0  0  0  0
  189.7890  176.8960  143.8680 C   0  0  2  0  0  3  0  0  0  0  0  0
  187.5920  176.9410  142.8550 C   0  0  0  0  0  2  0  0  0  0  0  0
  188.2500  178.0940  142.1160 C   0  0  2  0  0  3  0  0  0  0  0  0
  191.0980  176.1290  143.8800 C   0  0  0  0  0  2  0  0  0  0  0  0
  191.9670  176.6530  144.9200 N   0  0  0  0  0  2  0  0  0  0  0  0
  191.8590  175.7490  146.0500 C   0  0  0  0  0  2  0  0  0  0  0  0
  191.5290  176.5180  147.2800 C   0  0  0  0  0  0  0  0  0  0  0  0
  192.3970  176.6790  148.1760 O   0  0  0  0  0  1  0  0  0  0  0  0
  190.2510  177.0340  147.4530 O   0  0  0  0  0  0  0  0  0  0  0  0
  186.1810  179.0480  140.1440 N   0  0  0  0  0  2  0  0  0  0  0  0
  184.1940  179.9750  139.3600 O   0  0  0  0  0  1  0  0  0  0  0  0
  184.8150  178.7780  139.7210 C   0  0  2  0  0  3  0  0  0  0  0  0
  184.1110  178.1900  140.7720 O   0  0  0  0  0  0  0  0  0  0  0  0
  184.4910  178.9180  141.9030 C   0  0  0  0  0  2  0  0  0  0  0  0
  183.3420  178.9720  142.8960 C   0  0  0  0  0  2  0  0  0  0  0  0
  183.5810  178.6820  145.2220 C   0  0  0  0  0  2  0  0  0  0  0  0
  185.5340  179.0990  146.6780 C   0  0  0  0  0  1  0  0  0  0  0  0
  185.0630  178.4420  145.3960 C   0  0  2  0  0  3  0  0  0  0  0  0
  185.2090  179.4150  144.2460 C   0  0  0  0  0  2  0  0  0  0  0  0
  183.7710  179.6270  144.1270 N   0  0  0  0  0  0  0  0  0  0  0  0
  1  4  2  0  0  0  0
  1  6  1  0  0  0  0
  2  5  1  0  0  0  0
  3 27  1  0  0  0  0
  3  5  2  0  0  0  0
  4  3  1  0  0  0  0
  6  2  2  0  0  0  0
  7  1  1  0  0  0  0
  8 14  2  0  0  0  0
  8 12  1  0  0  0  0
 10 15  2  0  0  0  0
 11  6  1  0  0  0  0
 11 15  1  0  0  0  0
 12 13  1  0  0  0  0
 13 11  2  0  0  0  0
 14 10  1  0  0  0  0
 15  9  1  0  0  0  0
 16 18  1  0  0  0  0
 17 18  1  0  0  0  0
 18 21  1  6  0  0  0
 19 16  1  0  0  0  0
 20  5  1  6  0  0  0
 20 17  1  0  0  0  0
 20 19  1  0  0  0  0
 21 22  1  0  0  0  0
 22 23  1  0  0  0  0
 23 24  1  0  0  0  0
 24 26  2  0  0  0  0
 24 25  1  0  0  0  0
 29 28  1  1  0  0  0
 29 27  1  0  0  0  0
 29 30  1  0  0  0  0
 30 31  1  0  0  0  0
 31 32  1  0  0  0  0
 32 37  1  0  0  0  0
 33 35  1  0  0  0  0
 35 34  1  1  0  0  0
 36 35  1  0  0  0  0
 37 36  1  0  0  0  0
 37 33  1  0  0  0  0
M  END
>  <MODEL>
1

>  <REMARK>
 VINA RESULT:      -7.7      0.000      0.000
  Name = 
  12 active torsions:
  status: ('A' for Active; 'I' for Inactive)
    1  A    between atoms: C_1  and  C_9
    2  A    between atoms: C_1  and  N_13
    3  A    between atoms: C_5  and  N_29
    4  A    between atoms: C_11  and  C_35
    5  A    between atoms: C_12  and  C_20
    6  A    between atoms: N_13  and  C_17
    7  A    between atoms: C_15  and  N_32
    8  A    between atoms: C_15  and  C_37
    9  A    between atoms: C_17  and  C_18
   10  A    between atoms: N_29  and  C_31
   11  A    between atoms: C_31  and  O_34
   12  A    between atoms: O_34  and  C_37
                            x       y       z     vdW  Elec       q    Type
                         _______ _______ _______ _____ _____    ______ ____

>  <TORSDO>
F 12

$$$$
=
 OpenBabel10232411213D

 37 40  0  0  1  0  0  0  0  0999 V2000
  185.4920  178.5490  141.0360 C   0  0  0  0  0  0  0  0  0  0  0  0
  186.7980  178.3050  139.0530 N   0  0  0  0  0  0  0  0  0  0  0  0
  187.9170  178.5080  141.1610 C   0  0  0  0  0  0  0  0  0  0  0  0
  186.6700  178.6050  141.7780 C   0  0  0  0  0  3  0  0  0  0  0  0
  187.9640  178.3490  139.7570 C   0  0  0  0  0  0  0  0  0  0  0  0
  185.5730  178.4020  139.6360 C   0  0  0  0  0  0  0  0  0  0  0  0
  183.9350  178.5720  141.9270 S   0  0  0  0  0  1  0  0  0  0  0  0
  181.7840  177.1600  137.6450 C   0  0  0  0  0  3  0  0  0  0  0  0
  184.0310  180.7920  138.8760 O   0  0  0  0  0  1  0  0  0  0  0  0
  182.1480  179.4620  138.5180 C   0  0  0  0  0  3  0  0  0  0  0  0
  184.3750  178.3470  138.7720 C   0  0  0  0  0  0  0  0  0  0  0  0
  183.1270  177.0990  137.0000 C   0  0  0  0  0  2  0  0  0  0  0  0
  184.2150  177.2590  138.0080 C   0  0  0  0  0  3  0  0  0  0  0  0
  181.3490  178.2420  138.2900 C   0  0  0  0  0  3  0  0  0  0  0  0
  183.4750  179.5320  138.6890 C   0  0  0  0  0  0  0  0  0  0  0  0
  189.3840  176.2150  137.7450 C   0  0  0  0  0  2  0  0  0  0  0  0
  189.0090  178.8480  137.2780 S   0  0  0  0  0  0  0  0  0  0  0  0
  189.5020  177.2210  136.6260 C   0  0  2  0  0  3  0  0  0  0  0  0
  189.8560  176.9070  139.0000 C   0  0  0  0  0  2  0  0  0  0  0  0
  189.2600  178.3050  139.0010 C   0  0  2  0  0  3  0  0  0  0  0  0
  188.6010  176.8160  135.4750 C   0  0  0  0  0  2  0  0  0  0  0  0
  187.2460  176.6150  135.9570 N   0  0  0  0  0  2  0  0  0  0  0  0
  186.6830  175.5260  135.1810 C   0  0  0  0  0  2  0  0  0  0  0  0
  185.9510  174.5930  136.0790 C   0  0  0  0  0  0  0  0  0  0  0  0
  186.3320  174.4300  137.2670 O   0  0  0  0  0  1  0  0  0  0  0  0
  184.8630  173.8770  135.5970 O   0  0  0  0  0  0  0  0  0  0  0  0
  189.0820  178.5850  141.9970 N   0  0  0  0  0  2  0  0  0  0  0  0
  188.7490  176.4220  142.7900 O   0  0  0  0  0  1  0  0  0  0  0  0
  189.5180  177.5750  142.9490 C   0  0  2  0  0  3  0  0  0  0  0  0
  189.3600  178.0620  144.2460 O   0  0  0  0  0  0  0  0  0  0  0  0
  188.6350  177.0700  144.9110 C   0  0  0  0  0  2  0  0  0  0  0  0
  188.1740  177.5820  146.2660 C   0  0  0  0  0  2  0  0  0  0  0  0
  186.1760  178.6780  146.8610 C   0  0  0  0  0  2  0  0  0  0  0  0
  184.0270  178.8250  145.6480 C   0  0  0  0  0  1  0  0  0  0  0  0
  185.5300  178.9810  145.5280 C   0  0  2  0  0  3  0  0  0  0  0  0
  186.1420  177.6660  145.0960 C   0  0  0  0  0  2  0  0  0  0  0  0
  186.7320  177.4090  146.4050 N   0  0  0  0  0  0  0  0  0  0  0  0
  1  4  1  0  0  0  0
  1  7  1  0  0  0  0
  2  6  1  0  0  0  0
  2  5  2  0  0  0  0
  3  4  2  0  0  0  0
  3 27  1  0  0  0  0
  5  3  1  0  0  0  0
  6  1  2  0  0  0  0
  8 14  2  0  0  0  0
 10 15  2  0  0  0  0
 11  6  1  0  0  0  0
 12  8  1  0  0  0  0
 12 13  1  0  0  0  0
 13 11  2  0  0  0  0
 14 10  1  0  0  0  0
 15 11  1  0  0  0  0
 15  9  1  0  0  0  0
 16 19  1  0  0  0  0
 17 20  1  0  0  0  0
 18 21  1  6  0  0  0
 18 17  1  0  0  0  0
 18 16  1  0  0  0  0
 19 20  1  0  0  0  0
 20  5  1  1  0  0  0
 21 22  1  0  0  0  0
 23 22  1  0  0  0  0
 23 24  1  0  0  0  0
 24 25  1  0  0  0  0
 26 24  2  0  0  0  0
 27 29  1  0  0  0  0
 29 28  1  1  0  0  0
 29 30  1  0  0  0  0
 30 31  1  0  0  0  0
 31 32  1  0  0  0  0
 32 37  1  0  0  0  0
 35 34  1  1  0  0  0
 35 33  1  0  0  0  0
 36 35  1  0  0  0  0
 36 37  1  0  0  0  0
 37 33  1  0  0  0  0
M  END
>  <MODEL>
2

>  <REMARK>
 VINA RESULT:      -7.7      2.999      7.501
  Name = 
  12 active torsions:
  status: ('A' for Active; 'I' for Inactive)
    1  A    between atoms: C_1  and  C_9
    2  A    between atoms: C_1  and  N_13
    3  A    between atoms: C_5  and  N_29
    4  A    between atoms: C_11  and  C_35
    5  A    between atoms: C_12  and  C_20
    6  A    between atoms: N_13  and  C_17
    7  A    between atoms: C_15  and  N_32
    8  A    between atoms: C_15  and  C_37
    9  A    between atoms: C_17  and  C_18
   10  A    between atoms: N_29  and  C_31
   11  A    between atoms: C_31  and  O_34
   12  A    between atoms: O_34  and  C_37
                            x       y       z     vdW  Elec       q    Type
                         _______ _______ _______ _____ _____    ______ ____

>  <TORSDO>
F 12

$$$$
=
 OpenBabel10232411213D

 37 40  0  0  1  0  0  0  0  0999 V2000
  187.9090  176.7330  137.0330 C   0  0  0  0  0  0  0  0  0  0  0  0
  189.4930  177.0470  138.7900 N   0  0  0  0  0  0  0  0  0  0  0  0
  187.3020  177.9840  139.0230 C   0  0  0  0  0  0  0  0  0  0  0  0
  186.9790  177.4630  137.7700 C   0  0  0  0  0  3  0  0  0  0  0  0
  188.6000  177.7570  139.5350 C   0  0  0  0  0  0  0  0  0  0  0  0
  189.1990  176.5330  137.5650 C   0  0  0  0  0  0  0  0  0  0  0  0
  187.3690  176.0080  135.4820 S   0  0  0  0  0  1  0  0  0  0  0  0
  193.0710  175.2330  135.7840 C   0  0  0  0  0  3  0  0  0  0  0  0
  189.3100  173.5920  137.4900 O   0  0  0  0  0  1  0  0  0  0  0  0
  191.6030  173.6910  137.0710 C   0  0  0  0  0  3  0  0  0  0  0  0
  190.2490  175.7840  136.8440 C   0  0  0  0  0  0  0  0  0  0  0  0
  191.9370  175.7970  134.9980 C   0  0  0  0  0  2  0  0  0  0  0  0
  190.9290  176.4370  135.8930 C   0  0  0  0  0  3  0  0  0  0  0  0
  192.9070  174.2640  136.6830 C   0  0  0  0  0  3  0  0  0  0  0  0
  190.4250  174.3280  137.1080 C   0  0  0  0  0  0  0  0  0  0  0  0
  188.5960  176.7420  142.6310 C   0  0  0  0  0  2  0  0  0  0  0  0
  190.7150  177.7110  141.2680 S   0  0  0  0  0  0  0  0  0  0  0  0
  190.0910  176.8950  142.7710 C   0  0  2  0  0  3  0  0  0  0  0  0
  188.0930  178.0010  141.9670 C   0  0  0  0  0  2  0  0  0  0  0  0
  189.0570  178.3370  140.8410 C   0  0  2  0  0  3  0  0  0  0  0  0
  190.7310  175.5300  142.9390 C   0  0  0  0  0  2  0  0  0  0  0  0
  191.5140  175.4990  144.1620 N   0  0  0  0  0  2  0  0  0  0  0  0
  191.5210  176.8520  144.6870 C   0  0  0  0  0  2  0  0  0  0  0  0
  191.0440  176.8470  146.0970 C   0  0  0  0  0  0  0  0  0  0  0  0
  189.8110  176.8220  146.3460 O   0  0  0  0  0  0  0  0  0  0  0  0
  191.9610  176.8980  147.1390 O   0  0  0  0  0  1  0  0  0  0  0  0
  186.2900  178.7330  139.7140 N   0  0  0  0  0  2  0  0  0  0  0  0
  184.4250  179.9930  139.1190 O   0  0  0  0  0  1  0  0  0  0  0  0
  184.8630  178.7050  139.4290 C   0  0  2  0  0  3  0  0  0  0  0  0
  184.1760  178.2400  140.5490 O   0  0  0  0  0  0  0  0  0  0  0  0
  184.6360  179.0340  141.6030 C   0  0  0  0  0  2  0  0  0  0  0  0
  183.8260  178.7530  142.8580 C   0  0  0  0  0  2  0  0  0  0  0  0
  183.7580  178.9600  145.2040 C   0  0  0  0  0  2  0  0  0  0  0  0
  185.6000  178.9410  146.8510 C   0  0  0  0  0  1  0  0  0  0  0  0
  184.9980  178.2260  145.6580 C   0  0  2  0  0  3  0  0  0  0  0  0
  185.6090  178.7640  144.3830 C   0  0  0  0  0  2  0  0  0  0  0  0
  184.3940  179.4700  143.9940 N   0  0  0  0  0  0  0  0  0  0  0  0
  1  6  2  0  0  0  0
  1  4  1  0  0  0  0
  2  5  2  0  0  0  0
  3  5  1  0  0  0  0
  3 27  1  0  0  0  0
  4  3  2  0  0  0  0
  6  2  1  0  0  0  0
  7  1  1  0  0  0  0
  8 14  2  0  0  0  0
 10 15  2  0  0  0  0
 11 15  1  0  0  0  0
 11  6  1  0  0  0  0
 12  8  1  0  0  0  0
 12 13  1  0  0  0  0
 13 11  2  0  0  0  0
 14 10  1  0  0  0  0
 15  9  1  0  0  0  0
 16 18  1  0  0  0  0
 17 18  1  0  0  0  0
 18 21  1  6  0  0  0
 19 16  1  0  0  0  0
 20  5  1  6  0  0  0
 20 17  1  0  0  0  0
 20 19  1  0  0  0  0
 21 22  1  0  0  0  0
 22 23  1  0  0  0  0
 23 24  1  0  0  0  0
 24 25  2  0  0  0  0
 24 26  1  0  0  0  0
 29 28  1  1  0  0  0
 29 27  1  0  0  0  0
 29 30  1  0  0  0  0
 30 31  1  0  0  0  0
 31 32  1  0  0  0  0
 32 37  1  0  0  0  0
 33 35  1  0  0  0  0
 35 34  1  1  0  0  0
 36 35  1  0  0  0  0
 37 36  1  0  0  0  0
 37 33  1  0  0  0  0
M  END
>  <MODEL>
3

>  <REMARK>
 VINA RESULT:      -7.3      1.475      1.798
  Name = 
  12 active torsions:
  status: ('A' for Active; 'I' for Inactive)
    1  A    between atoms: C_1  and  C_9
    2  A    between atoms: C_1  and  N_13
    3  A    between atoms: C_5  and  N_29
    4  A    between atoms: C_11  and  C_35
    5  A    between atoms: C_12  and  C_20
    6  A    between atoms: N_13  and  C_17
    7  A    between atoms: C_15  and  N_32
    8  A    between atoms: C_15  and  C_37
    9  A    between atoms: C_17  and  C_18
   10  A    between atoms: N_29  and  C_31
   11  A    between atoms: C_31  and  O_34
   12  A    between atoms: O_34  and  C_37
                            x       y       z     vdW  Elec       q    Type
                         _______ _______ _______ _____ _____    ______ ____

>  <TORSDO>
F 12

$$$$
=
 OpenBabel10232411213D

 37 40  0  0  1  0  0  0  0  0999 V2000
  188.1290  178.0350  140.5650 C   0  0  0  0  0  0  0  0  0  0  0  0
  186.1720  178.4140  139.2520 N   0  0  0  0  0  0  0  0  0  0  0  0
  186.1010  178.8790  141.6000 C   0  0  0  0  0  0  0  0  0  0  0  0
  187.4310  178.4670  141.6910 C   0  0  0  0  0  3  0  0  0  0  0  0
  185.4690  178.8490  140.3350 C   0  0  0  0  0  0  0  0  0  0  0  0
  187.4680  178.0050  139.3200 C   0  0  0  0  0  0  0  0  0  0  0  0
  189.8660  177.6290  140.7580 S   0  0  0  0  0  1  0  0  0  0  0  0
  188.4390  175.9000  135.5140 C   0  0  0  0  0  3  0  0  0  0  0  0
  189.0280  179.7930  137.5770 O   0  0  0  0  0  1  0  0  0  0  0  0
  188.6410  178.3670  135.7710 C   0  0  0  0  0  3  0  0  0  0  0  0
  188.1290  177.5470  138.0800 C   0  0  0  0  0  0  0  0  0  0  0  0
  189.1080  175.6230  136.8170 C   0  0  0  0  0  2  0  0  0  0  0  0
  188.3520  176.2330  137.9490 C   0  0  0  0  0  3  0  0  0  0  0  0
  188.2720  177.1360  135.0450 C   0  0  0  0  0  3  0  0  0  0  0  0
  188.6250  178.5520  137.0980 C   0  0  0  0  0  0  0  0  0  0  0  0
  183.2490  178.3600  138.0010 C   0  0  0  0  0  2  0  0  0  0  0  0
  182.9580  177.8050  140.6260 S   0  0  0  0  0  0  0  0  0  0  0  0
  182.2980  177.6560  138.9360 C   0  0  2  0  0  3  0  0  0  0  0  0
  183.7220  179.6010  138.7190 C   0  0  0  0  0  2  0  0  0  0  0  0
  184.0240  179.2070  140.1560 C   0  0  2  0  0  3  0  0  0  0  0  0
  182.1790  176.1960  138.5410 C   0  0  0  0  0  2  0  0  0  0  0  0
  183.4810  175.6810  138.1540 N   0  0  0  0  0  2  0  0  0  0  0  0
  183.2510  174.3940  137.5260 C   0  0  0  0  0  2  0  0  0  0  0  0
  184.5320  173.6430  137.4330 C   0  0  0  0  0  0  0  0  0  0  0  0
  184.5660  172.4140  137.7010 O   0  0  0  0  0  1  0  0  0  0  0  0
  185.7000  174.3060  137.0780 O   0  0  0  0  0  0  0  0  0  0  0  0
  185.4510  179.3010  142.8090 N   0  0  0  0  0  2  0  0  0  0  0  0
  183.6860  178.4940  144.0950 O   0  0  0  0  0  1  0  0  0  0  0  0
  185.0690  178.4400  143.9180 C   0  0  2  0  0  3  0  0  0  0  0  0
  185.7020  178.8760  145.0820 O   0  0  0  0  0  0  0  0  0  0  0  0
  186.1130  177.7040  145.7220 C   0  0  0  0  0  2  0  0  0  0  0  0
  187.3640  177.9700  146.5420 C   0  0  0  0  0  2  0  0  0  0  0  0
  188.6920  177.1320  144.7850 C   0  0  0  0  0  2  0  0  0  0  0  0
  191.1370  176.7910  144.6710 C   0  0  0  0  0  1  0  0  0  0  0  0
  190.0390  177.7730  145.0260 C   0  0  2  0  0  3  0  0  0  0  0  0
  189.6850  177.6290  146.4900 C   0  0  0  0  0  2  0  0  0  0  0  0
  188.4010  176.9990  146.2080 N   0  0  0  0  0  0  0  0  0  0  0  0
  1  7  1  0  0  0  0
  1  4  1  0  0  0  0
  2  6  1  0  0  0  0
  2  5  2  0  0  0  0
  3  4  2  0  0  0  0
  3 27  1  0  0  0  0
  5  3  1  0  0  0  0
  6  1  2  0  0  0  0
  8 12  1  0  0  0  0
 10 15  2  0  0  0  0
 11  6  1  0  0  0  0
 12 13  1  0  0  0  0
 13 11  2  0  0  0  0
 14  8  2  0  0  0  0
 14 10  1  0  0  0  0
 15  9  1  0  0  0  0
 15 11  1  0  0  0  0
 16 19  1  0  0  0  0
 16 18  1  0  0  0  0
 18 21  1  6  0  0  0
 18 17  1  0  0  0  0
 19 20  1  0  0  0  0
 20  5  1  6  0  0  0
 20 17  1  0  0  0  0
 22 21  1  0  0  0  0
 23 22  1  0  0  0  0
 24 23  1  0  0  0  0
 24 25  1  0  0  0  0
 26 24  2  0  0  0  0
 27 29  1  0  0  0  0
 29 28  1  1  0  0  0
 29 30  1  0  0  0  0
 30 31  1  0  0  0  0
 31 32  1  0  0  0  0
 33 35  1  0  0  0  0
 33 37  1  0  0  0  0
 35 34  1  1  0  0  0
 35 36  1  0  0  0  0
 37 36  1  0  0  0  0
 37 32  1  0  0  0  0
M  END
>  <MODEL>
4

>  <REMARK>
 VINA RESULT:      -7.2      3.168      6.606
  Name = 
  12 active torsions:
  status: ('A' for Active; 'I' for Inactive)
    1  A    between atoms: C_1  and  C_9
    2  A    between atoms: C_1  and  N_13
    3  A    between atoms: C_5  and  N_29
    4  A    between atoms: C_11  and  C_35
    5  A    between atoms: C_12  and  C_20
    6  A    between atoms: N_13  and  C_17
    7  A    between atoms: C_15  and  N_32
    8  A    between atoms: C_15  and  C_37
    9  A    between atoms: C_17  and  C_18
   10  A    between atoms: N_29  and  C_31
   11  A    between atoms: C_31  and  O_34
   12  A    between atoms: O_34  and  C_37
                            x       y       z     vdW  Elec       q    Type
                         _______ _______ _______ _____ _____    ______ ____

>  <TORSDO>
F 12

$$$$
=
 OpenBabel10232411213D

 37 40  0  0  1  0  0  0  0  0999 V2000
  185.4750  178.5530  141.1240 C   0  0  0  0  0  0  0  0  0  0  0  0
  186.6720  178.3530  139.0690 N   0  0  0  0  0  0  0  0  0  0  0  0
  187.9010  178.4470  141.1230 C   0  0  0  0  0  0  0  0  0  0  0  0
  186.6890  178.5520  141.8070 C   0  0  0  0  0  3  0  0  0  0  0  0
  187.8730  178.3410  139.7130 C   0  0  0  0  0  0  0  0  0  0  0  0
  185.4800  178.4580  139.7170 C   0  0  0  0  0  0  0  0  0  0  0  0
  183.9650  178.5810  142.0940 S   0  0  0  0  0  1  0  0  0  0  0  0
  181.4860  177.4790  138.0010 C   0  0  0  0  0  3  0  0  0  0  0  0
  184.1520  180.9350  138.8410 O   0  0  0  0  0  1  0  0  0  0  0  0
  182.1280  179.7880  138.6730 C   0  0  0  0  0  3  0  0  0  0  0  0
  184.2390  178.4660  138.9140 C   0  0  0  0  0  0  0  0  0  0  0  0
  182.7800  177.2300  137.3030 C   0  0  0  0  0  2  0  0  0  0  0  0
  183.9300  177.3480  138.2460 C   0  0  0  0  0  3  0  0  0  0  0  0
  181.1980  178.6450  138.5770 C   0  0  0  0  0  3  0  0  0  0  0  0
  183.4620  179.7300  138.7790 C   0  0  0  0  0  0  0  0  0  0  0  0
  189.1990  176.1850  137.6610 C   0  0  0  0  0  2  0  0  0  0  0  0
  188.7820  178.8070  137.1760 S   0  0  0  0  0  0  0  0  0  0  0  0
  189.2520  177.1740  136.5230 C   0  0  2  0  0  3  0  0  0  0  0  0
  189.7320  176.8990  138.8790 C   0  0  0  0  0  2  0  0  0  0  0  0
  189.1270  178.2930  138.8910 C   0  0  2  0  0  3  0  0  0  0  0  0
  188.2940  176.7450  135.4280 C   0  0  0  0  0  2  0  0  0  0  0  0
  186.9740  176.5160  135.9890 N   0  0  0  0  0  2  0  0  0  0  0  0
  186.4650  175.3030  135.3770 C   0  0  0  0  0  2  0  0  0  0  0  0
  186.0130  174.3570  136.4330 C   0  0  0  0  0  0  0  0  0  0  0  0
  184.8010  174.3200  136.7710 O   0  0  0  0  0  0  0  0  0  0  0  0
  186.9350  173.5360  137.0680 O   0  0  0  0  0  1  0  0  0  0  0  0
  189.1080  178.4630  141.9000 N   0  0  0  0  0  2  0  0  0  0  0  0
  189.0830  176.2400  142.5910 O   0  0  0  0  0  1  0  0  0  0  0  0
  189.9170  177.3040  142.2450 C   0  0  2  0  0  3  0  0  0  0  0  0
  190.7390  177.6190  143.3280 O   0  0  0  0  0  0  0  0  0  0  0  0
  190.6310  176.5210  144.1860 C   0  0  0  0  0  2  0  0  0  0  0  0
  191.1950  176.8710  145.5520 C   0  0  0  0  0  2  0  0  0  0  0  0
  188.9370  177.2650  146.0990 C   0  0  0  0  0  2  0  0  0  0  0  0
  187.8980  177.7460  148.2890 C   0  0  0  0  0  1  0  0  0  0  0  0
  188.8430  176.8270  147.5420 C   0  0  2  0  0  3  0  0  0  0  0  0
  190.2550  177.3600  147.6460 C   0  0  0  0  0  2  0  0  0  0  0  0
  190.2930  177.7810  146.2500 N   0  0  0  0  0  0  0  0  0  0  0  0
  1  4  1  0  0  0  0
  1  7  1  0  0  0  0
  2  5  2  0  0  0  0
  2  6  1  0  0  0  0
  3  4  2  0  0  0  0
  3 27  1  0  0  0  0
  5  3  1  0  0  0  0
  6  1  2  0  0  0  0
  8 14  2  0  0  0  0
 10 15  2  0  0  0  0
 11  6  1  0  0  0  0
 12  8  1  0  0  0  0
 12 13  1  0  0  0  0
 13 11  2  0  0  0  0
 14 10  1  0  0  0  0
 15  9  1  0  0  0  0
 15 11  1  0  0  0  0
 16 19  1  0  0  0  0
 17 20  1  0  0  0  0
 18 21  1  6  0  0  0
 18 17  1  0  0  0  0
 18 16  1  0  0  0  0
 19 20  1  0  0  0  0
 20  5  1  1  0  0  0
 21 22  1  0  0  0  0
 23 22  1  0  0  0  0
 23 24  1  0  0  0  0
 24 25  2  0  0  0  0
 24 26  1  0  0  0  0
 27 29  1  0  0  0  0
 29 28  1  1  0  0  0
 29 30  1  0  0  0  0
 30 31  1  0  0  0  0
 31 32  1  0  0  0  0
 32 37  1  0  0  0  0
 33 37  1  0  0  0  0
 33 35  1  0  0  0  0
 35 36  1  0  0  0  0
 35 34  1  1  0  0  0
 37 36  1  0  0  0  0
M  END
>  <MODEL>
5

>  <REMARK>
 VINA RESULT:      -7.1      2.980      7.868
  Name = 
  12 active torsions:
  status: ('A' for Active; 'I' for Inactive)
    1  A    between atoms: C_1  and  C_9
    2  A    between atoms: C_1  and  N_13
    3  A    between atoms: C_5  and  N_29
    4  A    between atoms: C_11  and  C_35
    5  A    between atoms: C_12  and  C_20
    6  A    between atoms: N_13  and  C_17
    7  A    between atoms: C_15  and  N_32
    8  A    between atoms: C_15  and  C_37
    9  A    between atoms: C_17  and  C_18
   10  A    between atoms: N_29  and  C_31
   11  A    between atoms: C_31  and  O_34
   12  A    between atoms: O_34  and  C_37
                            x       y       z     vdW  Elec       q    Type
                         _______ _______ _______ _____ _____    ______ ____

>  <TORSDO>
F 12

$$$$
=
 OpenBabel10232411213D

 37 40  0  0  1  0  0  0  0  0999 V2000
  185.4210  178.8210  141.0520 C   0  0  0  0  0  0  0  0  0  0  0  0
  186.0060  178.4110  138.7750 N   0  0  0  0  0  0  0  0  0  0  0  0
  187.7240  178.3530  140.4430 C   0  0  0  0  0  0  0  0  0  0  0  0
  186.7580  178.6490  141.4040 C   0  0  0  0  0  3  0  0  0  0  0  0
  187.3180  178.2300  139.0940 C   0  0  0  0  0  0  0  0  0  0  0  0
  185.0490  178.7040  139.6980 C   0  0  0  0  0  0  0  0  0  0  0  0
  184.2330  179.0910  142.3710 S   0  0  0  0  0  1  0  0  0  0  0  0
  181.4250  179.8980  137.3980 C   0  0  0  0  0  3  0  0  0  0  0  0
  182.9850  176.6220  139.9640 O   0  0  0  0  0  1  0  0  0  0  0  0
  181.8030  177.5700  138.1900 C   0  0  0  0  0  3  0  0  0  0  0  0
  183.6570  178.8850  139.2360 C   0  0  0  0  0  0  0  0  0  0  0  0
  181.8220  180.4990  138.7030 C   0  0  0  0  0  2  0  0  0  0  0  0
  183.2270  180.1400  139.0530 C   0  0  0  0  0  3  0  0  0  0  0  0
  181.3870  178.5810  137.1980 C   0  0  0  0  0  3  0  0  0  0  0  0
  182.7640  177.6990  139.1140 C   0  0  0  0  0  0  0  0  0  0  0  0
  188.1580  175.6420  137.3010 C   0  0  0  0  0  2  0  0  0  0  0  0
  187.4620  178.0770  136.3670 S   0  0  0  0  0  0  0  0  0  0  0  0
  187.8330  176.3330  136.0000 C   0  0  2  0  0  3  0  0  0  0  0  0
  188.9610  176.6210  138.1220 C   0  0  0  0  0  2  0  0  0  0  0  0
  188.2970  177.9810  137.9850 C   0  0  2  0  0  3  0  0  0  0  0  0
  186.6390  175.6620  135.3480 C   0  0  0  0  0  2  0  0  0  0  0  0
  185.6790  175.2680  136.3640 N   0  0  0  0  0  2  0  0  0  0  0  0
  184.8450  174.2370  135.7740 C   0  0  0  0  0  2  0  0  0  0  0  0
  184.1260  173.4970  136.8460 C   0  0  0  0  0  0  0  0  0  0  0  0
  184.6320  172.4600  137.3460 O   0  0  0  0  0  1  0  0  0  0  0  0
  182.8800  173.9360  137.2750 O   0  0  0  0  0  0  0  0  0  0  0  0
  189.0810  178.2000  140.8870 N   0  0  0  0  0  2  0  0  0  0  0  0
  190.8890  178.0380  142.3430 O   0  0  0  0  0  1  0  0  0  0  0  0
  189.5060  177.8910  142.2430 C   0  0  2  0  0  3  0  0  0  0  0  0
  189.1570  176.5750  142.5500 O   0  0  0  0  0  0  0  0  0  0  0  0
  189.1180  176.5350  143.9460 C   0  0  0  0  0  2  0  0  0  0  0  0
  187.7990  177.0980  144.4460 C   0  0  0  0  0  2  0  0  0  0  0  0
  187.1870  177.6570  146.6510 C   0  0  0  0  0  2  0  0  0  0  0  0
  188.6060  178.1140  148.6220 C   0  0  0  0  0  1  0  0  0  0  0  0
  188.3490  177.1550  147.4770 C   0  0  2  0  0  3  0  0  0  0  0  0
  189.1850  177.5580  146.2830 C   0  0  0  0  0  2  0  0  0  0  0  0
  188.0350  178.0460  145.5300 N   0  0  0  0  0  0  0  0  0  0  0  0
  1  4  1  0  0  0  0
  1  7  1  0  0  0  0
  2  5  2  0  0  0  0
  2  6  1  0  0  0  0
  3 27  1  0  0  0  0
  3  4  2  0  0  0  0
  5  3  1  0  0  0  0
  6  1  2  0  0  0  0
  8 12  1  0  0  0  0
 10 15  2  0  0  0  0
 11  6  1  0  0  0  0
 12 13  1  0  0  0  0
 13 11  2  0  0  0  0
 14  8  2  0  0  0  0
 14 10  1  0  0  0  0
 15 11  1  0  0  0  0
 15  9  1  0  0  0  0
 16 19  1  0  0  0  0
 17 20  1  0  0  0  0
 18 21  1  1  0  0  0
 18 17  1  0  0  0  0
 18 16  1  0  0  0  0
 20 19  1  0  0  0  0
 20  5  1  1  0  0  0
 21 22  1  0  0  0  0
 23 22  1  0  0  0  0
 23 24  1  0  0  0  0
 24 26  2  0  0  0  0
 24 25  1  0  0  0  0
 27 29  1  0  0  0  0
 29 28  1  6  0  0  0
 29 30  1  0  0  0  0
 30 31  1  0  0  0  0
 31 32  1  0  0  0  0
 32 37  1  0  0  0  0
 33 35  1  0  0  0  0
 35 34  1  1  0  0  0
 36 35  1  0  0  0  0
 37 36  1  0  0  0  0
 37 33  1  0  0  0  0
M  END
>  <MODEL>
6

>  <REMARK>
 VINA RESULT:      -7.0      3.283      8.064
  Name = 
  12 active torsions:
  status: ('A' for Active; 'I' for Inactive)
    1  A    between atoms: C_1  and  C_9
    2  A    between atoms: C_1  and  N_13
    3  A    between atoms: C_5  and  N_29
    4  A    between atoms: C_11  and  C_35
    5  A    between atoms: C_12  and  C_20
    6  A    between atoms: N_13  and  C_17
    7  A    between atoms: C_15  and  N_32
    8  A    between atoms: C_15  and  C_37
    9  A    between atoms: C_17  and  C_18
   10  A    between atoms: N_29  and  C_31
   11  A    between atoms: C_31  and  O_34
   12  A    between atoms: O_34  and  C_37
                            x       y       z     vdW  Elec       q    Type
                         _______ _______ _______ _____ _____    ______ ____

>  <TORSDO>
F 12

$$$$
=
 OpenBabel10232411213D

 37 40  0  0  1  0  0  0  0  0999 V2000
  189.3200  177.4230  141.5540 C   0  0  0  0  0  0  0  0  0  0  0  0
  187.5320  178.5420  142.6700 N   0  0  0  0  0  0  0  0  0  0  0  0
  187.4190  178.2580  140.2950 C   0  0  0  0  0  0  0  0  0  0  0  0
  188.6530  177.6080  140.3450 C   0  0  0  0  0  3  0  0  0  0  0  0
  186.8550  178.7290  141.5030 C   0  0  0  0  0  0  0  0  0  0  0  0
  188.7370  177.9130  142.7400 C   0  0  0  0  0  0  0  0  0  0  0  0
  190.8470  176.4800  141.5350 S   0  0  0  0  0  1  0  0  0  0  0  0
  190.5300  176.2700  146.4740 C   0  0  0  0  0  3  0  0  0  0  0  0
  190.8550  179.7220  143.6930 O   0  0  0  0  0  1  0  0  0  0  0  0
  191.6270  178.0570  145.1330 C   0  0  0  0  0  3  0  0  0  0  0  0
  189.3830  177.7720  144.0620 C   0  0  0  0  0  0  0  0  0  0  0  0
  189.1900  176.9210  146.4060 C   0  0  0  0  0  2  0  0  0  0  0  0
  188.7330  177.0620  144.9930 C   0  0  0  0  0  3  0  0  0  0  0  0
  191.6180  176.8130  145.9280 C   0  0  0  0  0  3  0  0  0  0  0  0
  190.6440  178.5130  144.3450 C   0  0  0  0  0  0  0  0  0  0  0  0
  183.7620  178.0100  142.2340 C   0  0  0  0  0  2  0  0  0  0  0  0
  185.2070  180.0600  143.2330 S   0  0  0  0  0  0  0  0  0  0  0  0
  183.6820  179.0690  143.3060 C   0  0  2  0  0  3  0  0  0  0  0  0
  184.4040  178.6600  141.0330 C   0  0  0  0  0  2  0  0  0  0  0  0
  185.5670  179.4980  141.5360 C   0  0  2  0  0  3  0  0  0  0  0  0
  183.5410  178.4120  144.6660 C   0  0  0  0  0  2  0  0  0  0  0  0
  184.2750  179.1740  145.6610 N   0  0  0  0  0  2  0  0  0  0  0  0
  184.9090  178.2110  146.5420 C   0  0  0  0  0  2  0  0  0  0  0  0
  185.9670  178.8820  147.3440 C   0  0  0  0  0  0  0  0  0  0  0  0
  185.9830  180.1360  147.4440 O   0  0  0  0  0  0  0  0  0  0  0  0
  186.9550  178.1250  147.9590 O   0  0  0  0  0  1  0  0  0  0  0  0
  186.8030  178.4180  139.0080 N   0  0  0  0  0  2  0  0  0  0  0  0
  187.6000  179.2440  136.9830 O   0  0  0  0  0  1  0  0  0  0  0  0
  187.4020  178.0800  137.7260 C   0  0  2  0  0  3  0  0  0  0  0  0
  186.5500  177.2240  137.0280 O   0  0  0  0  0  0  0  0  0  0  0  0
  187.2830  176.0440  136.8700 C   0  0  0  0  0  2  0  0  0  0  0  0
  188.4130  176.2620  135.8780 C   0  0  0  0  0  2  0  0  0  0  0  0
  190.7650  176.1430  135.8950 C   0  0  0  0  0  2  0  0  0  0  0  0
  192.3060  175.4980  137.7160 C   0  0  0  0  0  1  0  0  0  0  0  0
  191.1180  176.3640  137.3470 C   0  0  2  0  0  3  0  0  0  0  0  0
  189.8370  175.6090  137.6240 C   0  0  0  0  0  2  0  0  0  0  0  0
  189.5470  175.4060  136.2100 N   0  0  0  0  0  0  0  0  0  0  0  0
  1  6  1  0  0  0  0
  2  6  2  0  0  0  0
  3  4  1  0  0  0  0
  3  5  2  0  0  0  0
  4  1  2  0  0  0  0
  5  2  1  0  0  0  0
  6 11  1  0  0  0  0
  7  1  1  0  0  0  0
  9 15  1  0  0  0  0
 10 14  1  0  0  0  0
 11 15  1  0  0  0  0
 11 13  2  0  0  0  0
 12  8  1  0  0  0  0
 13 12  1  0  0  0  0
 14  8  2  0  0  0  0
 15 10  2  0  0  0  0
 16 18  1  0  0  0  0
 17 18  1  0  0  0  0
 18 21  1  1  0  0  0
 19 20  1  0  0  0  0
 19 16  1  0  0  0  0
 20  5  1  1  0  0  0
 20 17  1  0  0  0  0
 21 22  1  0  0  0  0
 22 23  1  0  0  0  0
 23 24  1  0  0  0  0
 24 25  2  0  0  0  0
 24 26  1  0  0  0  0
 27  3  1  0  0  0  0
 29 28  1  6  0  0  0
 29 27  1  0  0  0  0
 30 29  1  0  0  0  0
 31 30  1  0  0  0  0
 32 37  1  0  0  0  0
 32 31  1  0  0  0  0
 33 37  1  0  0  0  0
 33 35  1  0  0  0  0
 35 36  1  0  0  0  0
 35 34  1  1  0  0  0
 37 36  1  0  0  0  0
M  END
>  <MODEL>
7

>  <REMARK>
 VINA RESULT:      -6.9      2.498      6.883
  Name = 
  12 active torsions:
  status: ('A' for Active; 'I' for Inactive)
    1  A    between atoms: C_1  and  C_9
    2  A    between atoms: C_1  and  N_13
    3  A    between atoms: C_5  and  N_29
    4  A    between atoms: C_11  and  C_35
    5  A    between atoms: C_12  and  C_20
    6  A    between atoms: N_13  and  C_17
    7  A    between atoms: C_15  and  N_32
    8  A    between atoms: C_15  and  C_37
    9  A    between atoms: C_17  and  C_18
   10  A    between atoms: N_29  and  C_31
   11  A    between atoms: C_31  and  O_34
   12  A    between atoms: O_34  and  C_37
                            x       y       z     vdW  Elec       q    Type
                         _______ _______ _______ _____ _____    ______ ____

>  <TORSDO>
F 12

$$$$
=
 OpenBabel10232411213D

 37 40  0  0  1  0  0  0  0  0999 V2000
  188.3980  178.0800  138.3410 C   0  0  0  0  0  0  0  0  0  0  0  0
  188.3890  177.5130  140.6590 N   0  0  0  0  0  0  0  0  0  0  0  0
  190.4130  177.2440  139.4080 C   0  0  0  0  0  0  0  0  0  0  0  0
  189.7400  177.7100  138.2780 C   0  0  0  0  0  3  0  0  0  0  0  0
  189.7030  177.1530  140.6270 C   0  0  0  0  0  0  0  0  0  0  0  0
  187.7140  177.9670  139.5680 C   0  0  0  0  0  0  0  0  0  0  0  0
  187.6470  178.7720  136.8650 S   0  0  0  0  0  1  0  0  0  0  0  0
  183.2590  177.8970  139.5370 C   0  0  0  0  0  3  0  0  0  0  0  0
  186.6890  179.5680  141.8170 O   0  0  0  0  0  1  0  0  0  0  0  0
  184.5740  178.6290  141.5190 C   0  0  0  0  0  3  0  0  0  0  0  0
  186.2880  178.3230  139.7200 C   0  0  0  0  0  0  0  0  0  0  0  0
  184.0900  178.6890  138.5850 C   0  0  0  0  0  2  0  0  0  0  0  0
  185.5160  178.2550  138.6280 C   0  0  0  0  0  3  0  0  0  0  0  0
  183.4690  177.9120  140.8530 C   0  0  0  0  0  3  0  0  0  0  0  0
  185.7990  178.8540  141.0230 C   0  0  0  0  0  0  0  0  0  0  0  0
  190.5160  178.3790  143.5340 C   0  0  0  0  0  2  0  0  0  0  0  0
  189.0360  176.1650  143.0890 S   0  0  0  0  0  0  0  0  0  0  0  0
  189.6610  177.3870  144.2850 C   0  0  2  0  0  3  0  0  0  0  0  0
  191.2880  177.5910  142.5040 C   0  0  0  0  0  2  0  0  0  0  0  0
  190.3250  176.5990  141.8740 C   0  0  2  0  0  3  0  0  0  0  0  0
  188.5090  178.1100  144.9560 C   0  0  0  0  0  2  0  0  0  0  0  0
  187.2470  177.5360  144.5220 N   0  0  0  0  0  2  0  0  0  0  0  0
  186.4020  177.4480  145.6980 C   0  0  0  0  0  2  0  0  0  0  0  0
  185.6970  178.7410  145.9100 C   0  0  0  0  0  0  0  0  0  0  0  0
  185.6100  179.2310  147.0660 O   0  0  0  0  0  1  0  0  0  0  0  0
  185.1090  179.3940  144.8350 O   0  0  0  0  0  0  0  0  0  0  0  0
  191.7920  176.8740  139.2560 N   0  0  0  0  0  2  0  0  0  0  0  0
  191.8270  174.8800  138.0570 O   0  0  0  0  0  1  0  0  0  0  0  0
  192.3660  176.1650  138.1230 C   0  0  2  0  0  3  0  0  0  0  0  0
  193.7490  176.0790  138.2820 O   0  0  0  0  0  0  0  0  0  0  0  0
  194.0630  174.7570  137.9560 C   0  0  0  0  0  2  0  0  0  0  0  0
  195.4080  174.3790  138.5520 C   0  0  0  0  0  2  0  0  0  0  0  0
  197.7490  174.5050  138.3240 C   0  0  0  0  0  2  0  0  0  0  0  0
  199.1580  174.3100  136.3020 C   0  0  0  0  0  1  0  0  0  0  0  0
  198.0280  173.6780  137.0900 C   0  0  2  0  0  3  0  0  0  0  0  0
  196.7040  174.2230  136.6020 C   0  0  0  0  0  2  0  0  0  0  0  0
  196.4860  175.0180  137.8050 N   0  0  0  0  0  0  0  0  0  0  0  0
  1  6  1  0  0  0  0
  3  5  2  0  0  0  0
  4  1  2  0  0  0  0
  4  3  1  0  0  0  0
  5  2  1  0  0  0  0
  6 11  1  0  0  0  0
  6  2  2  0  0  0  0
  7  1  1  0  0  0  0
  8 14  2  0  0  0  0
 11 15  1  0  0  0  0
 12 13  1  0  0  0  0
 12  8  1  0  0  0  0
 13 11  2  0  0  0  0
 14 10  1  0  0  0  0
 15 10  2  0  0  0  0
 15  9  1  0  0  0  0
 16 18  1  0  0  0  0
 17 18  1  0  0  0  0
 18 21  1  6  0  0  0
 19 16  1  0  0  0  0
 20  5  1  6  0  0  0
 20 19  1  0  0  0  0
 20 17  1  0  0  0  0
 22 21  1  0  0  0  0
 22 23  1  0  0  0  0
 23 24  1  0  0  0  0
 24 25  1  0  0  0  0
 26 24  2  0  0  0  0
 27  3  1  0  0  0  0
 29 28  1  1  0  0  0
 29 30  1  0  0  0  0
 29 27  1  0  0  0  0
 31 30  1  0  0  0  0
 31 32  1  0  0  0  0
 35 34  1  6  0  0  0
 35 33  1  0  0  0  0
 36 35  1  0  0  0  0
 36 37  1  0  0  0  0
 37 33  1  0  0  0  0
 37 32  1  0  0  0  0
M  END
>  <MODEL>
8

>  <REMARK>
 VINA RESULT:      -6.8      2.935      8.551
  Name = 
  12 active torsions:
  status: ('A' for Active; 'I' for Inactive)
    1  A    between atoms: C_1  and  C_9
    2  A    between atoms: C_1  and  N_13
    3  A    between atoms: C_5  and  N_29
    4  A    between atoms: C_11  and  C_35
    5  A    between atoms: C_12  and  C_20
    6  A    between atoms: N_13  and  C_17
    7  A    between atoms: C_15  and  N_32
    8  A    between atoms: C_15  and  C_37
    9  A    between atoms: C_17  and  C_18
   10  A    between atoms: N_29  and  C_31
   11  A    between atoms: C_31  and  O_34
   12  A    between atoms: O_34  and  C_37
                            x       y       z     vdW  Elec       q    Type
                         _______ _______ _______ _____ _____    ______ ____

>  <TORSDO>
F 12

$$$$
=
 OpenBabel10232411213D

 37 40  0  0  1  0  0  0  0  0999 V2000
  189.3940  177.4530  141.5780 C   0  0  0  0  0  0  0  0  0  0  0  0
  187.5790  178.5480  142.6750 N   0  0  0  0  0  0  0  0  0  0  0  0
  187.5220  178.3130  140.2920 C   0  0  0  0  0  0  0  0  0  0  0  0
  188.7550  177.6630  140.3580 C   0  0  0  0  0  3  0  0  0  0  0  0
  186.9290  178.7590  141.4960 C   0  0  0  0  0  0  0  0  0  0  0  0
  188.7830  177.9190  142.7600 C   0  0  0  0  0  0  0  0  0  0  0  0
  190.9220  176.5110  141.5750 S   0  0  0  0  0  1  0  0  0  0  0  0
  190.4310  176.2040  146.5280 C   0  0  0  0  0  3  0  0  0  0  0  0
  190.9650  179.6300  143.7470 O   0  0  0  0  0  1  0  0  0  0  0  0
  191.6330  177.9340  145.2040 C   0  0  0  0  0  3  0  0  0  0  0  0
  189.3980  177.7510  144.0930 C   0  0  0  0  0  0  0  0  0  0  0  0
  189.1240  176.9160  146.4340 C   0  0  0  0  0  2  0  0  0  0  0  0
  188.6990  177.0740  145.0130 C   0  0  0  0  0  3  0  0  0  0  0  0
  191.5520  176.6940  146.0010 C   0  0  0  0  0  3  0  0  0  0  0  0
  190.6870  178.4330  144.3970 C   0  0  0  0  0  0  0  0  0  0  0  0
  183.8260  178.0310  142.1700 C   0  0  0  0  0  2  0  0  0  0  0  0
  185.2520  180.0730  143.2100 S   0  0  0  0  0  0  0  0  0  0  0  0
  183.7270  179.0810  143.2500 C   0  0  2  0  0  3  0  0  0  0  0  0
  184.4870  178.6920  140.9850 C   0  0  0  0  0  2  0  0  0  0  0  0
  185.6410  179.5260  141.5140 C   0  0  2  0  0  3  0  0  0  0  0  0
  183.5650  178.4110  144.6010 C   0  0  0  0  0  2  0  0  0  0  0  0
  184.2860  179.1620  145.6140 N   0  0  0  0  0  2  0  0  0  0  0  0
  185.0200  178.1950  146.4080 C   0  0  0  0  0  2  0  0  0  0  0  0
  185.9920  178.8990  147.2880 C   0  0  0  0  0  0  0  0  0  0  0  0
  185.9770  180.1550  147.3660 O   0  0  0  0  0  0  0  0  0  0  0  0
  186.9350  178.1710  148.0010 O   0  0  0  0  0  1  0  0  0  0  0  0
  186.9360  178.4980  138.9950 N   0  0  0  0  0  2  0  0  0  0  0  0
  188.4160  179.4260  137.4560 O   0  0  0  0  0  1  0  0  0  0  0  0
  187.6110  178.3170  137.7190 C   0  0  2  0  0  3  0  0  0  0  0  0
  186.6600  178.1860  136.7060 O   0  0  0  0  0  0  0  0  0  0  0  0
  186.8730  176.9070  136.1850 C   0  0  0  0  0  2  0  0  0  0  0  0
  185.9670  175.9040  136.8810 C   0  0  0  0  0  2  0  0  0  0  0  0
  186.0370  173.5510  136.9610 C   0  0  0  0  0  2  0  0  0  0  0  0
  187.8610  171.9980  136.3490 C   0  0  0  0  0  1  0  0  0  0  0  0
  187.0460  173.1920  135.8940 C   0  0  2  0  0  3  0  0  0  0  0  0
  187.7370  174.4680  136.3220 C   0  0  0  0  0  2  0  0  0  0  0  0
  186.7470  174.7640  137.3510 N   0  0  0  0  0  0  0  0  0  0  0  0
  1  6  1  0  0  0  0
  2  6  2  0  0  0  0
  3  4  1  0  0  0  0
  3  5  2  0  0  0  0
  4  1  2  0  0  0  0
  5  2  1  0  0  0  0
  6 11  1  0  0  0  0
  7  1  1  0  0  0  0
  9 15  1  0  0  0  0
 10 14  1  0  0  0  0
 11 15  1  0  0  0  0
 11 13  2  0  0  0  0
 12  8  1  0  0  0  0
 13 12  1  0  0  0  0
 14  8  2  0  0  0  0
 15 10  2  0  0  0  0
 16 18  1  0  0  0  0
 17 18  1  0  0  0  0
 18 21  1  1  0  0  0
 19 20  1  0  0  0  0
 19 16  1  0  0  0  0
 20  5  1  1  0  0  0
 20 17  1  0  0  0  0
 21 22  1  0  0  0  0
 22 23  1  0  0  0  0
 23 24  1  0  0  0  0
 24 25  2  0  0  0  0
 24 26  1  0  0  0  0
 27  3  1  0  0  0  0
 29 28  1  6  0  0  0
 29 27  1  0  0  0  0
 30 29  1  0  0  0  0
 31 30  1  0  0  0  0
 31 32  1  0  0  0  0
 32 37  1  0  0  0  0
 33 37  1  0  0  0  0
 35 36  1  0  0  0  0
 35 34  1  1  0  0  0
 35 33  1  0  0  0  0
 36 37  1  0  0  0  0
M  END
>  <MODEL>
9

>  <REMARK>
 VINA RESULT:      -6.6      3.098      6.791
  Name = 
  12 active torsions:
  status: ('A' for Active; 'I' for Inactive)
    1  A    between atoms: C_1  and  C_9
    2  A    between atoms: C_1  and  N_13
    3  A    between atoms: C_5  and  N_29
    4  A    between atoms: C_11  and  C_35
    5  A    between atoms: C_12  and  C_20
    6  A    between atoms: N_13  and  C_17
    7  A    between atoms: C_15  and  N_32
    8  A    between atoms: C_15  and  C_37
    9  A    between atoms: C_17  and  C_18
   10  A    between atoms: N_29  and  C_31
   11  A    between atoms: C_31  and  O_34
   12  A    between atoms: O_34  and  C_37
                            x       y       z     vdW  Elec       q    Type
                         _______ _______ _______ _____ _____    ______ ____

>  <TORSDO>
F 12

$$$$
