=
 OpenBabel10232412073D

 66 71  0  0  1  0  0  0  0  0999 V2000
  191.5660  176.0930  138.3580 C   0  0  0  0  0  0  0  0  0  0  0  0
  193.7060  174.8290  137.1340 C   0  0  2  0  0  3  0  0  0  0  0  0
  190.6780  176.7520  139.0620 C   0  0  0  0  0  0  0  0  0  0  0  0
  191.8540  173.4800  136.1190 C   0  0  0  0  0  1  0  0  0  0  0  0
  192.6040  174.7960  136.1970 C   0  0  1  0  0  0  0  0  0  0  0  0
  192.3650  175.4480  137.5580 C   0  0  0  0  0  0  0  0  0  0  0  0
  189.7170  176.1240  141.7050 S   0  0  0  0  0  0  0  0  0  0  0  0
  190.6040  176.8420  143.0740 N   0  0  0  0  0  0  0  0  0  0  0  0
  191.7570  177.6060  141.1170 C   0  0  0  0  0  3  0  0  0  0  0  0
  191.6590  177.5960  142.5270 N   0  0  0  0  0  2  0  0  0  0  0  0
  190.8330  176.8740  140.5330 C   0  0  0  0  0  0  0  0  0  0  0  0
  189.7230  177.7890  143.7470 C   0  0  0  0  0  2  0  0  0  0  0  0
  188.9870  177.1290  144.9060 C   0  0  1  0  0  3  0  0  0  0  0  0
  189.3900  177.7790  146.2230 C   0  0  0  0  0  1  0  0  0  0  0  0
  187.4940  177.3040  144.7010 C   0  0  0  0  0  2  0  0  0  0  0  0
  187.0380  178.5010  145.3950 N   0  0  0  0  0  2  0  0  0  0  0  0
  185.1420  178.2100  146.7870 C   0  0  0  0  0  2  0  0  0  0  0  0
  185.6640  178.7410  145.6920 C   0  0  0  0  0  0  0  0  0  0  0  0
  184.8480  179.6840  144.8560 C   0  0  0  0  0  2  0  0  0  0  0  0
  184.5880  178.1690  142.7570 C   0  0  0  0  0  1  0  0  0  0  0  0
  183.9830  178.9550  143.8700 C   0  0  0  0  0  0  0  0  0  0  0  0
  182.6750  178.8670  144.0830 C   0  0  0  0  0  2  0  0  0  0  0  0
  188.5970  176.5000  137.7630 C   0  0  0  0  0  3  0  0  0  0  0  0
  187.7740  178.5810  137.8700 C   0  0  0  0  0  3  0  0  0  0  0  0
  187.5390  177.2920  137.4040 C   0  0  0  0  0  0  0  0  0  0  0  0
  189.5130  177.2630  138.3880 N   0  0  0  0  0  0  0  0  0  0  0  0
  189.0220  178.5240  138.4700 C   0  0  0  0  0  3  0  0  0  0  0  0
  186.2980  176.7460  136.9280 N   0  0  0  0  0  0  0  0  0  0  0  0
  185.0640  176.9460  137.3160 C   0  0  0  0  0  0  0  0  0  0  0  0
  183.1560  173.7880  136.3600 N   0  0  0  0  0  0  0  0  0  0  0  0
  181.5190  171.4150  135.4120 C   0  0  0  0  0  0  0  0  0  0  0  0
  182.8440  170.8810  135.2830 N   0  0  0  0  0  0  0  0  0  0  0  0
  185.1310  174.2320  137.5900 F   0  0  0  0  0  0  0  0  0  0  0  0
  184.0960  174.7430  136.8690 C   0  0  2  0  0  3  0  0  0  0  0  0
  183.0830  169.4970  135.6670 C   0  0  0  0  0  1  0  0  0  0  0  0
  184.0240  176.0800  136.7070 C   0  0  0  0  0  0  0  0  0  0  0  0
  180.1340  174.7700  134.4520 C   0  0  0  0  0  3  0  0  0  0  0  0
  181.2350  172.7950  135.1290 N   0  0  0  0  0  0  0  0  0  0  0  0
  181.4130  175.0450  135.1750 C   0  0  0  0  0  0  0  0  0  0  0  0
  181.9930  173.9230  135.5460 C   0  0  0  0  0  0  0  0  0  0  0  0
  181.8230  176.4120  135.4550 C   0  0  0  0  0  3  0  0  0  0  0  0
  179.9920  173.2510  134.5340 C   0  0  0  0  0  3  0  0  0  0  0  0
  180.5650  170.6470  135.7240 O   0  0  0  0  0  0  0  0  0  0  0  0
  182.9110  176.8310  136.0900 C   0  0  0  0  0  3  0  0  0  0  0  0
  183.8390  171.5520  134.4540 C   0  0  0  0  0  2  0  0  0  0  0  0
  185.2010  170.9090  134.6280 C   0  0  0  0  0  1  0  0  0  0  0  0
  185.0150  179.1670  138.1720 O   0  0  0  0  0  0  0  0  0  0  0  0
  184.6770  177.9660  138.3290 C   0  0  0  0  0  0  0  0  0  0  0  0
  184.0160  177.6030  139.4980 O   0  0  0  0  0  1  0  0  0  0  0  0
  194.7460  175.9320  136.9430 C   0  0  0  0  0  2  0  0  0  0  0  0
  198.6520  174.1280  136.3050 O   0  0  0  0  0  0  0  0  0  0  0  0
  196.3350  173.9890  136.6330 N   0  0  0  0  0  2  0  0  0  0  0  0
  196.0680  175.3890  136.4960 C   0  0  0  0  0  0  0  0  0  0  0  0
  197.6350  173.4040  136.4960 C   0  0  0  0  0  0  0  0  0  0  0  0
  196.9710  176.1760  136.0910 O   0  0  0  0  0  0  0  0  0  0  0  0
  197.8330  171.9240  136.6120 C   0  0  0  0  0  2  0  0  0  0  0  0
  197.1790  171.0980  135.4960 C   0  0  0  0  0  2  0  0  0  0  0  0
  196.7390  169.8380  135.9280 O   0  0  0  0  0  0  0  0  0  0  0  0
  194.3570  168.7180  138.3170 S   0  0  0  0  0  0  0  0  0  0  0  0
  197.0080  168.5370  137.9030 C   0  0  0  0  0  2  0  0  0  0  0  0
  195.1820  170.2290  137.7370 C   0  0  0  0  0  2  0  0  0  0  0  0
  196.6170  169.8900  137.3260 C   0  0  2  0  0  3  0  0  0  0  0  0
  195.9620  168.1220  138.9200 C   0  0  0  0  0  2  0  0  0  0  0  0
  192.3090  175.7750  135.0380 C   0  0  0  0  0  2  0  0  0  0  0  0
  190.3420  176.6210  134.6940 O   0  0  0  0  0  1  0  0  0  0  0  0
  191.0860  175.5730  134.3850 O   0  0  0  0  0  0  0  0  0  0  0  0
  1  3  2  0  0  0  0
  2 50  1  6  0  0  0
  2  6  1  0  0  0  0
  3 11  1  0  0  0  0
  5  4  1  6  0  0  0
  5  2  1  0  0  0  0
  5  6  1  0  0  0  0
  6  1  2  0  0  0  0
  7  8  1  0  0  0  0
  8 12  1  0  0  0  0
  9 10  1  0  0  0  0
 10  8  1  0  0  0  0
 11  9  2  0  0  0  0
 11  7  1  0  0  0  0
 12 13  1  0  0  0  0
 13 14  1  1  0  0  0
 15 13  1  0  0  0  0
 15 16  1  0  0  0  0
 16 18  1  0  0  0  0
 18 17  2  0  0  0  0
 19 18  1  0  0  0  0
 20 21  1  0  0  0  0
 21 22  2  0  0  0  0
 21 19  1  0  0  0  0
 23 26  1  0  0  0  0
 24 27  2  0  0  0  0
 25 23  2  0  0  0  0
 25 24  1  0  0  0  0
 26 27  1  0  0  0  0
 26  3  1  0  0  0  0
 28 29  2  0  0  0  0
 28 25  1  0  0  0  0
 29 48  1  0  0  0  0
 30 34  1  0  0  0  0
 31 43  2  0  0  0  0
 32 31  1  0  0  0  0
 32 35  1  0  0  0  0
 34 33  1  1  0  0  0
 36 34  1  0  0  0  0
 36 29  1  0  0  0  0
 37 42  2  0  0  0  0
 37 39  1  0  0  0  0
 38 31  1  0  0  0  0
 38 40  1  0  0  0  0
 39 41  2  0  0  0  0
 39 40  1  0  0  0  0
 40 30  2  0  0  0  0
 41 44  1  0  0  0  0
 42 38  1  0  0  0  0
 44 36  2  0  0  0  0
 45 46  1  0  0  0  0
 45 32  1  0  0  0  0
 47 48  2  0  0  0  0
 48 49  1  0  0  0  0
 51 54  2  0  0  0  0
 53 52  1  0  0  0  0
 53 50  1  0  0  0  0
 54 56  1  0  0  0  0
 54 52  1  0  0  0  0
 55 53  2  0  0  0  0
 57 58  1  0  0  0  0
 57 56  1  0  0  0  0
 59 63  1  0  0  0  0
 60 63  1  0  0  0  0
 61 59  1  0  0  0  0
 62 58  1  6  0  0  0
 62 61  1  0  0  0  0
 62 60  1  0  0  0  0
 64  5  1  0  0  0  0
 66 65  1  0  0  0  0
 66 64  1  0  0  0  0
M  END
>  <MODEL>
1

>  <REMARK>
 VINA RESULT:      -6.7      0.000      0.000
  Name = 
  21 active torsions:
  status: ('A' for Active; 'I' for Inactive)
    1  A    between atoms: C_5  and  C_11
    2  A    between atoms: C_5  and  C_32
    3  A    between atoms: N_8  and  C_26
    4  A    between atoms: O_10  and  C_43
    5  A    between atoms: C_11  and  N_47
    6  A    between atoms: N_12  and  C_41
    7  A    between atoms: C_14  and  C_44
    8  A    between atoms: C_14  and  C_51
    9  A    between atoms: O_18  and  C_38
   10  A    between atoms: O_18  and  C_44
   11  A    between atoms: C_19  and  CA_54
   12  A    between atoms: C_20  and  C_62
   13  A    between atoms: C_20  and  C_65
   14  A    between atoms: C_31  and  C_36
   15  A    between atoms: C_31  and  C_37
   16  A    between atoms: N_34  and  C_62
   17  A    between atoms: N_40  and  C_49
   18  A    between atoms: C_43  and  C_57
   19  A    between atoms: C_45  and  CA_54
   20  A    between atoms: N_47  and  C_65
   21  A    between atoms: C_49  and  C_58
                            x       y       z     vdW  Elec       q    Type
                         _______ _______ _______ _____ _____    ______ ____

>  <TORSDO>
F 21

$$$$
=
 OpenBabel10232412073D

 66 71  0  0  1  0  0  0  0  0999 V2000
  189.4300  175.8390  135.6340 C   0  0  0  0  0  0  0  0  0  0  0  0
  191.5260  174.2970  134.6840 C   0  0  2  0  0  3  0  0  0  0  0  0
  188.3300  176.4250  136.0390 C   0  0  0  0  0  0  0  0  0  0  0  0
  192.6330  176.5420  134.5490 C   0  0  0  0  0  1  0  0  0  0  0  0
  192.1110  175.4050  135.4070 C   0  0  1  0  0  0  0  0  0  0  0  0
  190.5880  175.3400  135.3110 C   0  0  0  0  0  0  0  0  0  0  0  0
  185.7770  177.3850  135.1100 S   0  0  0  0  0  0  0  0  0  0  0  0
  184.6980  176.1880  134.3470 N   0  0  0  0  0  0  0  0  0  0  0  0
  186.6740  174.9630  134.9260 C   0  0  0  0  0  3  0  0  0  0  0  0
  185.3820  174.9580  134.3540 N   0  0  0  0  0  0  0  0  0  0  0  0
  187.0420  176.1510  135.3530 C   0  0  2  0  0  3  0  0  0  0  0  0
  183.5270  176.0160  135.1990 C   0  0  0  0  0  2  0  0  0  0  0  0
  182.8490  177.3510  135.4800 C   0  0  1  0  0  3  0  0  0  0  0  0
  181.5790  177.4800  134.6500 C   0  0  0  0  0  1  0  0  0  0  0  0
  182.4900  177.4180  136.9530 C   0  0  0  0  0  2  0  0  0  0  0  0
  183.6560  177.0780  137.7590 N   0  0  0  0  0  2  0  0  0  0  0  0
  184.7040  178.7300  139.0970 C   0  0  0  0  0  2  0  0  0  0  0  0
  183.9100  177.6710  139.0300 C   0  0  0  0  0  0  0  0  0  0  0  0
  183.1930  177.1960  140.2610 C   0  0  0  0  0  2  0  0  0  0  0  0
  181.4990  179.0990  140.7880 C   0  0  0  0  0  1  0  0  0  0  0  0
  182.7380  178.3390  141.1200 C   0  0  0  0  0  0  0  0  0  0  0  0
  183.3450  178.5720  142.2780 C   0  0  0  0  0  2  0  0  0  0  0  0
  188.0860  177.1730  138.3760 C   0  0  0  0  0  3  0  0  0  0  0  0
  189.1260  179.1550  138.2990 C   0  0  0  0  0  3  0  0  0  0  0  0
  188.4760  178.2490  139.1290 C   0  0  0  0  0  0  0  0  0  0  0  0
  188.4220  177.4020  137.0930 N   0  0  0  0  0  0  0  0  0  0  0  0
  189.0630  178.5950  137.0340 C   0  0  0  0  0  3  0  0  0  0  0  0
  188.4730  178.2230  140.5650 N   0  0  0  0  0  0  0  0  0  0  0  0
  189.2710  177.6290  141.4170 C   0  0  0  0  0  0  0  0  0  0  0  0
  189.5850  177.9250  145.2040 N   0  0  0  0  0  0  0  0  0  0  0  0
  189.5960  178.0540  148.2360 C   0  0  0  0  0  0  0  0  0  0  0  0
  190.7900  177.2920  148.0070 N   0  0  0  0  0  0  0  0  0  0  0  0
  191.1180  177.9540  143.4000 F   0  0  0  0  0  0  0  0  0  0  0  0
  189.8210  177.8390  143.7930 C   0  0  0  0  0  0  0  0  0  0  0  0
  191.9630  177.5630  148.8250 C   0  0  0  0  0  1  0  0  0  0  0  0
  188.8740  177.6750  142.8470 C   0  0  0  0  0  0  0  0  0  0  0  0
  186.1890  177.7810  146.6830 C   0  0  0  0  0  3  0  0  0  0  0  0
  188.4320  177.8920  147.4090 N   0  0  0  0  0  0  0  0  0  0  0  0
  187.1630  177.7370  145.5490 C   0  0  0  0  0  0  0  0  0  0  0  0
  188.4010  177.8130  145.9900 C   0  0  1  0  0  3  0  0  0  0  0  0
  186.6920  177.7070  144.1730 C   0  0  0  0  0  3  0  0  0  0  0  0
  187.0740  177.9940  147.9100 C   0  0  0  0  0  3  0  0  0  0  0  0
  189.5390  178.8430  149.2210 O   0  0  0  0  0  0  0  0  0  0  0  0
  187.4110  177.6780  143.0570 C   0  0  0  0  0  3  0  0  0  0  0  0
  190.7410  176.0410  147.2570 C   0  0  0  0  0  2  0  0  0  0  0  0
  192.1400  175.5860  146.8880 C   0  0  0  0  0  1  0  0  0  0  0  0
  190.6830  175.7140  141.3470 O   0  0  0  0  0  1  0  0  0  0  0  0
  190.5140  176.9160  141.0170 C   0  0  0  0  0  0  0  0  0  0  0  0
  191.5390  177.5780  140.3490 O   0  0  0  0  0  0  0  0  0  0  0  0
  191.3970  172.9710  135.4310 C   0  0  0  0  0  2  0  0  0  0  0  0
  195.1050  170.8530  134.6050 O   0  0  0  0  0  0  0  0  0  0  0  0
  193.8870  172.8130  135.0190 N   0  0  0  0  0  2  0  0  0  0  0  0
  192.6600  172.1670  135.3770 C   0  0  0  0  0  0  0  0  0  0  0  0
  195.0890  172.1130  134.6750 C   0  0  0  0  0  0  0  0  0  0  0  0
  192.6220  170.9160  135.5520 O   0  0  0  0  0  0  0  0  0  0  0  0
  196.3490  172.8550  134.3530 C   0  0  0  0  0  2  0  0  0  0  0  0
  197.6230  172.0000  134.3750 C   0  0  0  0  0  2  0  0  0  0  0  0
  197.9880  171.5880  135.6650 O   0  0  0  0  0  0  0  0  0  0  0  0
  198.8040  168.3000  136.7450 S   0  0  0  0  0  0  0  0  0  0  0  0
  198.8010  169.7070  134.4530 C   0  0  0  0  0  2  0  0  0  0  0  0
  199.3880  170.0170  136.8570 C   0  0  0  0  0  2  0  0  0  0  0  0
  199.0960  170.7340  135.5380 C   0  0  2  0  0  3  0  0  0  0  0  0
  199.1810  168.3330  134.9680 C   0  0  0  0  0  2  0  0  0  0  0  0
  192.5880  175.4380  136.8770 C   0  0  0  0  0  2  0  0  0  0  0  0
  194.3610  175.6010  138.1160 O   0  0  0  0  0  1  0  0  0  0  0  0
  193.8670  174.9120  137.1020 O   0  0  0  0  0  0  0  0  0  0  0  0
  1  3  2  0  0  0  0
  2  6  1  0  0  0  0
  2  5  1  0  0  0  0
  2 50  1  1  0  0  0
  3 26  1  0  0  0  0
  5  4  1  6  0  0  0
  5 64  1  0  0  0  0
  6  5  1  0  0  0  0
  6  1  2  0  0  0  0
  7 11  1  0  0  0  0
  8 10  1  0  0  0  0
  8  7  1  0  0  0  0
  8 12  1  0  0  0  0
  9 11  1  0  0  0  0
 10  9  2  0  0  0  0
 11  3  1  1  0  0  0
 12 13  1  0  0  0  0
 13 14  1  6  0  0  0
 13 15  1  0  0  0  0
 15 16  1  0  0  0  0
 16 18  1  0  0  0  0
 18 17  2  0  0  0  0
 18 19  1  0  0  0  0
 19 21  1  0  0  0  0
 20 21  1  0  0  0  0
 21 22  2  0  0  0  0
 23 25  2  0  0  0  0
 24 25  1  0  0  0  0
 25 28  1  0  0  0  0
 26 23  1  0  0  0  0
 27 26  1  0  0  0  0
 27 24  2  0  0  0  0
 28 29  2  0  0  0  0
 29 36  1  0  0  0  0
 31 43  2  0  0  0  0
 32 31  1  0  0  0  0
 32 35  1  0  0  0  0
 33 34  1  0  0  0  0
 34 30  2  0  0  0  0
 36 44  2  0  0  0  0
 36 34  1  0  0  0  0
 37 42  2  0  0  0  0
 38 42  1  0  0  0  0
 38 31  1  0  0  0  0
 39 40  1  0  0  0  0
 39 37  1  0  0  0  0
 40 30  1  6  0  0  0
 40 38  1  0  0  0  0
 41 39  2  0  0  0  0
 44 41  1  0  0  0  0
 45 32  1  0  0  0  0
 46 45  1  0  0  0  0
 48 47  1  0  0  0  0
 48 29  1  0  0  0  0
 49 48  2  0  0  0  0
 51 54  2  0  0  0  0
 52 53  1  0  0  0  0
 53 50  1  0  0  0  0
 53 55  2  0  0  0  0
 54 52  1  0  0  0  0
 56 57  1  0  0  0  0
 56 54  1  0  0  0  0
 57 58  1  0  0  0  0
 59 61  1  0  0  0  0
 60 63  1  0  0  0  0
 60 62  1  0  0  0  0
 62 58  1  1  0  0  0
 62 61  1  0  0  0  0
 63 59  1  0  0  0  0
 64 66  1  0  0  0  0
 66 65  1  0  0  0  0
M  END
>  <MODEL>
2

>  <REMARK>
 VINA RESULT:      -6.4      3.607      8.624
  Name = 
  21 active torsions:
  status: ('A' for Active; 'I' for Inactive)
    1  A    between atoms: C_5  and  C_11
    2  A    between atoms: C_5  and  C_32
    3  A    between atoms: N_8  and  C_26
    4  A    between atoms: O_10  and  C_43
    5  A    between atoms: C_11  and  N_47
    6  A    between atoms: N_12  and  C_41
    7  A    between atoms: C_14  and  C_44
    8  A    between atoms: C_14  and  C_51
    9  A    between atoms: O_18  and  C_38
   10  A    between atoms: O_18  and  C_44
   11  A    between atoms: C_19  and  CA_54
   12  A    between atoms: C_20  and  C_62
   13  A    between atoms: C_20  and  C_65
   14  A    between atoms: C_31  and  C_36
   15  A    between atoms: C_31  and  C_37
   16  A    between atoms: N_34  and  C_62
   17  A    between atoms: N_40  and  C_49
   18  A    between atoms: C_43  and  C_57
   19  A    between atoms: C_45  and  CA_54
   20  A    between atoms: N_47  and  C_65
   21  A    between atoms: C_49  and  C_58
                            x       y       z     vdW  Elec       q    Type
                         _______ _______ _______ _____ _____    ______ ____

>  <TORSDO>
F 21

$$$$
=
 OpenBabel10232412073D

 66 71  0  0  1  0  0  0  0  0999 V2000
  187.0360  177.4250  137.6480 C   0  0  0  0  0  0  0  0  0  0  0  0
  185.7700  176.9850  135.2230 C   0  0  2  0  0  3  0  0  0  0  0  0
  187.4650  177.6260  138.8700 C   0  0  0  0  0  0  0  0  0  0  0  0
  187.9260  177.9170  134.3480 C   0  0  0  0  0  1  0  0  0  0  0  0
  187.1840  176.7700  135.0060 C   0  0  1  0  0  0  0  0  0  0  0  0
  186.7310  177.1820  136.4060 C   0  0  0  0  0  0  0  0  0  0  0  0
  186.9860  178.4630  141.5850 S   0  0  0  0  0  0  0  0  0  0  0  0
  185.5160  179.4280  141.8820 N   0  0  0  0  0  0  0  0  0  0  0  0
  185.5100  178.9930  139.5250 C   0  0  0  0  0  3  0  0  0  0  0  0
  184.8780  179.5920  140.6380 N   0  0  0  0  0  2  0  0  0  0  0  0
  186.6300  178.3790  139.8390 C   0  0  0  0  0  0  0  0  0  0  0  0
  184.6100  178.6420  142.7110 C   0  0  0  0  0  2  0  0  0  0  0  0
  184.1770  179.4240  143.9460 C   0  0  1  0  0  3  0  0  0  0  0  0
  183.0670  178.6800  144.6760 C   0  0  0  0  0  1  0  0  0  0  0  0
  185.3690  179.5750  144.8730 C   0  0  0  0  0  2  0  0  0  0  0  0
  185.6180  178.3160  145.5630 N   0  0  0  0  0  2  0  0  0  0  0  0
  186.5220  179.0900  147.6130 C   0  0  0  0  0  2  0  0  0  0  0  0
  186.5530  178.1990  146.6330 C   0  0  0  0  0  0  0  0  0  0  0  0
  187.4750  177.0170  146.7270 C   0  0  0  0  0  2  0  0  0  0  0  0
  190.0450  176.9110  147.1160 C   0  0  0  0  0  1  0  0  0  0  0  0
  188.8740  177.3630  146.3110 C   0  0  0  0  0  0  0  0  0  0  0  0
  189.0870  177.9320  145.1310 C   0  0  0  0  0  2  0  0  0  0  0  0
  189.4100  176.1260  138.6590 C   0  0  0  0  0  3  0  0  0  0  0  0
  190.9360  177.2340  139.8680 C   0  0  0  0  0  3  0  0  0  0  0  0
  190.7150  176.1140  139.0750 C   0  0  0  0  0  0  0  0  0  0  0  0
  188.7930  177.1860  139.2110 N   0  0  0  0  0  0  0  0  0  0  0  0
  189.7080  177.8730  139.9380 C   0  0  0  0  0  3  0  0  0  0  0  0
  191.7010  175.2500  138.4860 N   0  0  0  0  0  0  0  0  0  0  0  0
  192.1410  175.1580  137.2560 C   0  0  0  0  0  0  0  0  0  0  0  0
  195.3000  173.0260  137.2400 N   0  0  0  0  0  0  0  0  0  0  0  0
  197.7130  171.1990  137.0220 C   0  0  0  0  0  0  0  0  0  0  0  0
  198.3510  172.4800  136.9200 N   0  0  0  0  0  0  0  0  0  0  0  0
  194.7140  175.1250  138.1660 F   0  0  0  0  0  0  0  0  0  0  0  0
  194.3180  174.0530  137.4280 C   0  0  2  0  0  3  0  0  0  0  0  0
  199.6190  172.6900  137.6030 C   0  0  0  0  0  1  0  0  0  0  0  0
  193.0550  174.0270  136.9570 C   0  0  0  0  0  0  0  0  0  0  0  0
  194.5930  169.8870  135.3990 C   0  0  0  0  0  3  0  0  0  0  0  0
  196.4230  170.9550  136.4400 N   0  0  0  0  0  0  0  0  0  0  0  0
  194.2430  171.2400  135.9300 C   0  0  0  0  0  0  0  0  0  0  0  0
  195.2820  171.7990  136.5130 C   0  0  0  0  0  0  0  0  0  0  0  0
  192.8780  171.7360  135.8410 C   0  0  0  0  0  3  0  0  0  0  0  0
  196.0370  169.6840  135.8540 C   0  0  0  0  0  3  0  0  0  0  0  0
  198.3210  170.2440  137.5830 O   0  0  0  0  0  0  0  0  0  0  0  0
  192.3960  172.8980  136.2680 C   0  0  0  0  0  3  0  0  0  0  0  0
  197.9610  173.4230  135.8770 C   0  0  0  0  0  2  0  0  0  0  0  0
  198.2910  174.8440  136.2920 C   0  0  0  0  0  1  0  0  0  0  0  0
  190.8310  176.9350  136.3650 O   0  0  0  0  0  1  0  0  0  0  0  0
  191.7570  176.1060  136.1740 C   0  0  0  0  0  0  0  0  0  0  0  0
  192.3500  176.0400  134.9180 O   0  0  0  0  0  0  0  0  0  0  0  0
  184.9080  175.7470  135.4590 C   0  0  0  0  0  2  0  0  0  0  0  0
  180.7050  176.7200  136.0140 O   0  0  0  0  0  0  0  0  0  0  0  0
  182.4410  175.2040  135.5870 N   0  0  0  0  0  2  0  0  0  0  0  0
  183.5160  176.1020  135.8850 C   0  0  0  0  0  0  0  0  0  0  0  0
  181.0560  175.5490  135.6990 C   0  0  0  0  0  0  0  0  0  0  0  0
  183.2830  177.2250  136.4150 O   0  0  0  0  0  0  0  0  0  0  0  0
  179.9840  174.5440  135.4110 C   0  0  0  0  0  2  0  0  0  0  0  0
  180.1570  173.1960  136.1240 C   0  0  0  0  0  2  0  0  0  0  0  0
  180.6480  172.1860  135.2820 O   0  0  0  0  0  0  0  0  0  0  0  0
  183.3140  169.8520  134.9930 S   0  0  0  0  0  0  0  0  0  0  0  0
  182.4810  171.7280  136.7310 C   0  0  0  0  0  2  0  0  0  0  0  0
  181.5230  169.9320  135.2890 C   0  0  0  0  0  2  0  0  0  0  0  0
  181.2040  171.1890  136.1010 C   0  0  2  0  0  3  0  0  0  0  0  0
  183.5720  170.6850  136.5860 C   0  0  0  0  0  2  0  0  0  0  0  0
  187.9590  175.4320  135.0290 C   0  0  0  0  0  2  0  0  0  0  0  0
  188.5060  173.5890  136.0320 O   0  0  0  0  0  1  0  0  0  0  0  0
  187.9860  174.7800  136.2690 O   0  0  0  0  0  0  0  0  0  0  0  0
  1  3  2  0  0  0  0
  2 50  1  1  0  0  0
  2  6  1  0  0  0  0
  3 26  1  0  0  0  0
  3 11  1  0  0  0  0
  5  4  1  6  0  0  0
  5 64  1  0  0  0  0
  5  2  1  0  0  0  0
  5  6  1  0  0  0  0
  6  1  2  0  0  0  0
  7  8  1  0  0  0  0
  8 12  1  0  0  0  0
  9 11  2  0  0  0  0
  9 10  1  0  0  0  0
 10  8  1  0  0  0  0
 11  7  1  0  0  0  0
 12 13  1  0  0  0  0
 13 14  1  1  0  0  0
 13 15  1  0  0  0  0
 15 16  1  0  0  0  0
 16 18  1  0  0  0  0
 18 19  1  0  0  0  0
 18 17  2  0  0  0  0
 21 19  1  0  0  0  0
 21 20  1  0  0  0  0
 22 21  2  0  0  0  0
 23 25  2  0  0  0  0
 23 26  1  0  0  0  0
 24 27  2  0  0  0  0
 25 24  1  0  0  0  0
 26 27  1  0  0  0  0
 28 25  1  0  0  0  0
 29 28  2  0  0  0  0
 30 34  1  0  0  0  0
 31 43  2  0  0  0  0
 32 31  1  0  0  0  0
 32 35  1  0  0  0  0
 34 33  1  1  0  0  0
 36 29  1  0  0  0  0
 36 34  1  0  0  0  0
 37 42  2  0  0  0  0
 37 39  1  0  0  0  0
 38 40  1  0  0  0  0
 38 31  1  0  0  0  0
 39 40  1  0  0  0  0
 40 30  2  0  0  0  0
 41 39  2  0  0  0  0
 41 44  1  0  0  0  0
 42 38  1  0  0  0  0
 44 36  2  0  0  0  0
 45 46  1  0  0  0  0
 45 32  1  0  0  0  0
 48 47  1  0  0  0  0
 48 29  1  0  0  0  0
 49 48  2  0  0  0  0
 50 53  1  0  0  0  0
 52 54  1  0  0  0  0
 52 53  1  0  0  0  0
 53 55  2  0  0  0  0
 54 51  2  0  0  0  0
 56 54  1  0  0  0  0
 56 57  1  0  0  0  0
 58 57  1  0  0  0  0
 59 61  1  0  0  0  0
 59 63  1  0  0  0  0
 61 62  1  0  0  0  0
 62 58  1  6  0  0  0
 62 60  1  0  0  0  0
 63 60  1  0  0  0  0
 64 66  1  0  0  0  0
 65 66  1  0  0  0  0
M  END
>  <MODEL>
3

>  <REMARK>
 VINA RESULT:      -6.4      2.750     10.584
  Name = 
  21 active torsions:
  status: ('A' for Active; 'I' for Inactive)
    1  A    between atoms: C_5  and  C_11
    2  A    between atoms: C_5  and  C_32
    3  A    between atoms: N_8  and  C_26
    4  A    between atoms: O_10  and  C_43
    5  A    between atoms: C_11  and  N_47
    6  A    between atoms: N_12  and  C_41
    7  A    between atoms: C_14  and  C_44
    8  A    between atoms: C_14  and  C_51
    9  A    between atoms: O_18  and  C_38
   10  A    between atoms: O_18  and  C_44
   11  A    between atoms: C_19  and  CA_54
   12  A    between atoms: C_20  and  C_62
   13  A    between atoms: C_20  and  C_65
   14  A    between atoms: C_31  and  C_36
   15  A    between atoms: C_31  and  C_37
   16  A    between atoms: N_34  and  C_62
   17  A    between atoms: N_40  and  C_49
   18  A    between atoms: C_43  and  C_57
   19  A    between atoms: C_45  and  CA_54
   20  A    between atoms: N_47  and  C_65
   21  A    between atoms: C_49  and  C_58
                            x       y       z     vdW  Elec       q    Type
                         _______ _______ _______ _____ _____    ______ ____

>  <TORSDO>
F 21

$$$$
=
 OpenBabel10232412073D

 66 71  0  0  1  0  0  0  0  0999 V2000
  185.7530  177.9690  140.8800 C   0  0  0  0  0  0  0  0  0  0  0  0
  183.0940  178.0800  140.1100 C   0  0  2  0  0  3  0  0  0  0  0  0
  186.9540  177.7980  141.3760 C   0  0  0  0  0  0  0  0  0  0  0  0
  183.8770  180.2020  139.0300 C   0  0  0  0  0  1  0  0  0  0  0  0
  183.8670  178.6860  139.0470 C   0  0  1  0  0  0  0  0  0  0  0  0
  184.6180  178.1760  140.2770 C   0  0  0  0  0  0  0  0  0  0  0  0
  186.4110  178.5830  144.0950 S   0  0  0  0  0  0  0  0  0  0  0  0
  187.1920  177.6240  145.3790 N   0  0  0  0  0  0  0  0  0  0  0  0
  187.9000  176.6090  143.3280 C   0  0  0  0  0  3  0  0  0  0  0  0
  187.9410  176.6180  144.7400 N   0  0  0  0  0  2  0  0  0  0  0  0
  187.1340  177.5540  142.8290 C   0  0  0  0  0  0  0  0  0  0  0  0
  188.1510  178.4780  146.0710 C   0  0  0  0  0  2  0  0  0  0  0  0
  188.1640  178.1910  147.5680 C   0  0  1  0  0  3  0  0  0  0  0  0
  187.2270  177.0360  147.8900 C   0  0  0  0  0  1  0  0  0  0  0  0
  189.5750  177.8180  147.9820 C   0  0  0  0  0  2  0  0  0  0  0  0
  190.0430  176.6940  147.1800 N   0  0  0  0  0  2  0  0  0  0  0  0
  192.2090  175.7410  147.0450 C   0  0  0  0  0  2  0  0  0  0  0  0
  191.3490  176.6490  146.6090 C   0  0  0  0  0  0  0  0  0  0  0  0
  191.7120  177.5230  145.4430 C   0  0  0  0  0  2  0  0  0  0  0  0
  191.4560  177.5740  142.8550 C   0  0  0  0  0  1  0  0  0  0  0  0
  191.5330  176.8120  144.1340 C   0  0  0  0  0  0  0  0  0  0  0  0
  191.6120  175.4870  144.0900 C   0  0  0  0  0  2  0  0  0  0  0  0
  188.9810  176.9780  140.2370 C   0  0  0  0  0  3  0  0  0  0  0  0
  189.3710  178.6540  138.8020 C   0  0  0  0  0  3  0  0  0  0  0  0
  189.8020  177.4020  139.2260 C   0  0  0  0  0  0  0  0  0  0  0  0
  188.0850  177.9480  140.4980 N   0  0  0  0  0  0  0  0  0  0  0  0
  188.3030  178.9650  139.6280 C   0  0  0  0  0  3  0  0  0  0  0  0
  190.7140  176.5170  138.5550 N   0  0  0  0  0  0  0  0  0  0  0  0
  190.6180  175.8880  137.4100 C   0  0  0  0  0  0  0  0  0  0  0  0
  194.0450  174.2210  137.4040 N   0  0  0  0  0  0  0  0  0  0  0  0
  196.6970  172.7600  137.1860 C   0  0  0  0  0  0  0  0  0  0  0  0
  197.1490  174.1210  137.1500 N   0  0  0  0  0  0  0  0  0  0  0  0
  193.1490  176.1780  138.3900 F   0  0  0  0  0  0  0  0  0  0  0  0
  192.9240  175.0920  137.6020 C   0  0  2  0  0  3  0  0  0  0  0  0
  198.3590  174.4780  137.8760 C   0  0  0  0  0  1  0  0  0  0  0  0
  191.6890  174.9090  137.0950 C   0  0  0  0  0  0  0  0  0  0  0  0
  193.8290  171.0920  135.4290 C   0  0  0  0  0  3  0  0  0  0  0  0
  195.4670  172.3610  136.5600 N   0  0  0  0  0  0  0  0  0  0  0  0
  193.2800  172.3590  136.0000 C   0  0  0  0  0  0  0  0  0  0  0  0
  194.2170  173.0340  136.6320 C   0  0  0  0  0  0  0  0  0  0  0  0
  191.8620  172.6630  135.8910 C   0  0  0  0  0  3  0  0  0  0  0  0
  195.2770  171.0740  135.9170 C   0  0  0  0  0  3  0  0  0  0  0  0
  197.4200  171.8770  137.7290 O   0  0  0  0  0  0  0  0  0  0  0  0
  191.2110  173.7270  136.3470 C   0  0  0  0  0  3  0  0  0  0  0  0
  196.6540  175.0410  136.1320 C   0  0  0  0  0  2  0  0  0  0  0  0
  197.3370  174.7840  134.8020 C   0  0  0  0  0  1  0  0  0  0  0  0
  188.4360  175.4410  136.5700 O   0  0  0  0  0  1  0  0  0  0  0  0
  189.5010  176.0990  136.4490 C   0  0  0  0  0  0  0  0  0  0  0  0
  189.6410  176.9560  135.3620 O   0  0  0  0  0  0  0  0  0  0  0  0
  182.6860  176.6200  139.9270 C   0  0  0  0  0  2  0  0  0  0  0  0
  179.9830  175.9570  136.5840 O   0  0  0  0  0  0  0  0  0  0  0  0
  181.3640  175.1880  138.3150 N   0  0  0  0  0  2  0  0  0  0  0  0
  181.5810  176.4640  138.9270 C   0  0  0  0  0  0  0  0  0  0  0  0
  180.5320  174.9820  137.1680 C   0  0  0  0  0  0  0  0  0  0  0  0
  180.9120  177.4720  138.5610 O   0  0  0  0  0  0  0  0  0  0  0  0
  180.3170  173.6100  136.6060 C   0  0  0  0  0  2  0  0  0  0  0  0
  181.4640  173.0870  135.7310 C   0  0  0  0  0  2  0  0  0  0  0  0
  182.1930  174.1100  135.1060 O   0  0  0  0  0  0  0  0  0  0  0  0
  184.7640  173.8210  137.5440 S   0  0  0  0  0  0  0  0  0  0  0  0
  183.6460  172.2990  135.6300 C   0  0  0  0  0  2  0  0  0  0  0  0
  184.3820  174.6570  135.9760 C   0  0  0  0  0  2  0  0  0  0  0  0
  183.5430  173.7220  135.1010 C   0  0  2  0  0  3  0  0  0  0  0  0
  184.7640  172.2390  136.6520 C   0  0  0  0  0  2  0  0  0  0  0  0
  184.3840  178.0240  137.7490 C   0  0  0  0  0  2  0  0  0  0  0  0
  186.3430  178.0250  136.8190 O   0  0  0  0  0  1  0  0  0  0  0  0
  185.6770  177.4900  137.8270 O   0  0  0  0  0  0  0  0  0  0  0  0
  1  3  2  0  0  0  0
  2 50  1  6  0  0  0
  2  6  1  0  0  0  0
  3 11  1  0  0  0  0
  5  4  1  6  0  0  0
  5  2  1  0  0  0  0
  5  6  1  0  0  0  0
  6  1  2  0  0  0  0
  7  8  1  0  0  0  0
  8 12  1  0  0  0  0
  9 10  1  0  0  0  0
 10  8  1  0  0  0  0
 11  9  2  0  0  0  0
 11  7  1  0  0  0  0
 12 13  1  0  0  0  0
 13 14  1  6  0  0  0
 13 15  1  0  0  0  0
 16 15  1  0  0  0  0
 18 17  2  0  0  0  0
 18 16  1  0  0  0  0
 19 18  1  0  0  0  0
 20 21  1  0  0  0  0
 21 19  1  0  0  0  0
 22 21  2  0  0  0  0
 23 26  1  0  0  0  0
 24 25  1  0  0  0  0
 24 27  2  0  0  0  0
 25 23  2  0  0  0  0
 26  3  1  0  0  0  0
 27 26  1  0  0  0  0
 28 25  1  0  0  0  0
 29 28  2  0  0  0  0
 30 34  1  0  0  0  0
 31 43  2  0  0  0  0
 32 31  1  0  0  0  0
 32 35  1  0  0  0  0
 34 33  1  1  0  0  0
 36 29  1  0  0  0  0
 36 34  1  0  0  0  0
 37 42  2  0  0  0  0
 37 39  1  0  0  0  0
 38 40  1  0  0  0  0
 38 31  1  0  0  0  0
 39 40  1  0  0  0  0
 40 30  2  0  0  0  0
 41 39  2  0  0  0  0
 41 44  1  0  0  0  0
 42 38  1  0  0  0  0
 44 36  2  0  0  0  0
 45 32  1  0  0  0  0
 46 45  1  0  0  0  0
 48 47  1  0  0  0  0
 48 29  1  0  0  0  0
 49 48  2  0  0  0  0
 51 54  2  0  0  0  0
 52 53  1  0  0  0  0
 53 50  1  0  0  0  0
 54 52  1  0  0  0  0
 55 53  2  0  0  0  0
 56 54  1  0  0  0  0
 57 56  1  0  0  0  0
 58 57  1  0  0  0  0
 60 63  1  0  0  0  0
 61 59  1  0  0  0  0
 62 58  1  1  0  0  0
 62 60  1  0  0  0  0
 62 61  1  0  0  0  0
 63 59  1  0  0  0  0
 64 66  1  0  0  0  0
 64  5  1  0  0  0  0
 65 66  1  0  0  0  0
M  END
>  <MODEL>
4

>  <REMARK>
 VINA RESULT:      -5.9      2.993     10.471
  Name = 
  21 active torsions:
  status: ('A' for Active; 'I' for Inactive)
    1  A    between atoms: C_5  and  C_11
    2  A    between atoms: C_5  and  C_32
    3  A    between atoms: N_8  and  C_26
    4  A    between atoms: O_10  and  C_43
    5  A    between atoms: C_11  and  N_47
    6  A    between atoms: N_12  and  C_41
    7  A    between atoms: C_14  and  C_44
    8  A    between atoms: C_14  and  C_51
    9  A    between atoms: O_18  and  C_38
   10  A    between atoms: O_18  and  C_44
   11  A    between atoms: C_19  and  CA_54
   12  A    between atoms: C_20  and  C_62
   13  A    between atoms: C_20  and  C_65
   14  A    between atoms: C_31  and  C_36
   15  A    between atoms: C_31  and  C_37
   16  A    between atoms: N_34  and  C_62
   17  A    between atoms: N_40  and  C_49
   18  A    between atoms: C_43  and  C_57
   19  A    between atoms: C_45  and  CA_54
   20  A    between atoms: N_47  and  C_65
   21  A    between atoms: C_49  and  C_58
                            x       y       z     vdW  Elec       q    Type
                         _______ _______ _______ _____ _____    ______ ____

>  <TORSDO>
F 21

$$$$
=
 OpenBabel10232412073D

 66 71  0  0  1  0  0  0  0  0999 V2000
  191.5520  177.5380  141.5380 C   0  0  0  0  0  0  0  0  0  0  0  0
  191.8210  178.0290  144.2520 C   0  0  2  0  0  3  0  0  0  0  0  0
  191.5490  177.1700  140.2810 C   0  0  0  0  0  0  0  0  0  0  0  0
  190.8580  180.2410  143.5730 C   0  0  0  0  0  1  0  0  0  0  0  0
  190.6530  178.7570  143.8050 C   0  0  1  0  0  0  0  0  0  0  0  0
  191.4370  177.9570  142.7660 C   0  0  0  0  0  0  0  0  0  0  0  0
  192.8830  176.1290  137.9480 S   0  0  0  0  0  0  0  0  0  0  0  0
  194.5760  175.6120  138.1550 N   0  0  0  0  0  0  0  0  0  0  0  0
  193.9040  176.4150  140.3100 C   0  0  0  0  0  3  0  0  0  0  0  0
  194.9170  175.8570  139.4980 N   0  0  0  0  0  0  0  0  0  0  0  0
  192.7850  176.6370  139.6560 C   0  0  2  0  0  3  0  0  0  0  0  0
  194.6420  174.1680  137.9670 C   0  0  0  0  0  2  0  0  0  0  0  0
  195.4090  173.8120  136.6990 C   0  0  1  0  0  3  0  0  0  0  0  0
  196.3900  174.9220  136.3490 C   0  0  0  0  0  1  0  0  0  0  0  0
  196.1770  172.5250  136.9370 C   0  0  0  0  0  2  0  0  0  0  0  0
  195.2870  171.5170  137.4990 N   0  0  0  0  0  2  0  0  0  0  0  0
  195.1450  169.2600  138.2090 C   0  0  0  0  0  2  0  0  0  0  0  0
  195.4520  170.1230  137.2510 C   0  0  0  0  0  0  0  0  0  0  0  0
  195.8400  169.6210  135.8910 C   0  0  0  0  0  2  0  0  0  0  0  0
  198.0940  169.1130  137.0870 C   0  0  0  0  0  1  0  0  0  0  0  0
  197.2740  169.1790  135.8440 C   0  0  0  0  0  0  0  0  0  0  0  0
  197.7710  168.6820  134.7180 C   0  0  0  0  0  2  0  0  0  0  0  0
  189.7440  176.4410  138.7670 C   0  0  0  0  0  3  0  0  0  0  0  0
  188.3750  178.2120  138.8520 C   0  0  0  0  0  3  0  0  0  0  0  0
  188.5460  176.9370  138.3260 C   0  0  0  0  0  0  0  0  0  0  0  0
  190.3540  177.3860  139.5070 N   0  0  0  0  0  0  0  0  0  0  0  0
  189.5300  178.4600  139.5760 C   0  0  0  0  0  3  0  0  0  0  0  0
  187.5510  176.1040  137.7080 N   0  0  0  0  0  0  0  0  0  0  0  0
  187.5920  175.3770  136.6200 C   0  0  0  0  0  0  0  0  0  0  0  0
  184.8640  172.7620  136.1280 N   0  0  0  0  0  0  0  0  0  0  0  0
  182.5950  170.8320  135.5440 C   0  0  0  0  0  0  0  0  0  0  0  0
  183.7220  169.9610  135.3770 N   0  0  0  0  0  0  0  0  0  0  0  0
  186.9930  172.7700  137.1630 F   0  0  0  0  0  0  0  0  0  0  0  0
  186.0590  173.4750  136.4690 C   0  0  2  0  0  3  0  0  0  0  0  0
  183.6380  168.5980  135.8820 C   0  0  0  0  0  1  0  0  0  0  0  0
  186.3130  174.7670  136.1770 C   0  0  0  0  0  0  0  0  0  0  0  0
  182.0230  174.3440  134.3480 C   0  0  0  0  0  3  0  0  0  0  0  0
  182.6460  172.2100  135.1430 N   0  0  0  0  0  0  0  0  0  0  0  0
  183.3920  174.3310  134.9460 C   0  0  0  0  0  0  0  0  0  0  0  0
  183.7000  173.1300  135.3890 C   0  0  0  0  0  0  0  0  0  0  0  0
  184.1600  175.5620  135.0560 C   0  0  0  0  0  3  0  0  0  0  0  0
  181.5080  172.9260  134.5940 C   0  0  0  0  0  3  0  0  0  0  0  0
  181.5110  170.3680  135.9990 O   0  0  0  0  0  0  0  0  0  0  0  0
  185.3750  175.7310  135.5660 C   0  0  0  0  0  3  0  0  0  0  0  0
  184.7720  170.2800  134.4150 C   0  0  0  0  0  2  0  0  0  0  0  0
  186.1380  169.9490  134.9860 C   0  0  0  0  0  1  0  0  0  0  0  0
  189.1410  175.9680  134.9110 O   0  0  0  0  0  0  0  0  0  0  0  0
  188.8310  175.1600  135.8240 C   0  0  0  0  0  0  0  0  0  0  0  0
  189.6170  174.0290  136.0130 O   0  0  0  0  0  1  0  0  0  0  0  0
  191.5840  176.6730  144.9130 C   0  0  0  0  0  2  0  0  0  0  0  0
  189.1930  177.5790  148.4320 O   0  0  0  0  0  0  0  0  0  0  0  0
  189.4530  176.7010  146.2740 N   0  0  0  0  0  2  0  0  0  0  0  0
  190.8800  176.8020  146.2290 C   0  0  0  0  0  0  0  0  0  0  0  0
  188.6590  177.0690  147.4070 C   0  0  0  0  0  0  0  0  0  0  0  0
  191.5340  177.0920  147.2710 O   0  0  0  0  0  0  0  0  0  0  0  0
  187.1710  176.8960  147.3990 C   0  0  0  0  0  2  0  0  0  0  0  0
  186.4430  177.6390  146.2720 C   0  0  0  0  0  2  0  0  0  0  0  0
  185.1670  178.0890  146.6420 O   0  0  0  0  0  0  0  0  0  0  0  0
  184.9550  178.3830  143.1060 S   0  0  0  0  0  0  0  0  0  0  0  0
  183.3840  178.8200  145.2440 C   0  0  0  0  0  2  0  0  0  0  0  0
  185.7570  179.1430  144.5470 C   0  0  0  0  0  2  0  0  0  0  0  0
  184.7970  179.0980  145.7380 C   0  0  2  0  0  3  0  0  0  0  0  0
  183.3570  178.9730  143.7360 C   0  0  0  0  0  2  0  0  0  0  0  0
  189.1730  178.3130  143.8660 C   0  0  0  0  0  2  0  0  0  0  0  0
  188.5280  176.4530  142.9570 O   0  0  0  0  0  1  0  0  0  0  0  0
  188.6740  177.7400  142.6900 O   0  0  0  0  0  0  0  0  0  0  0  0
  1  6  2  0  0  0  0
  2 50  1  1  0  0  0
  3  1  2  0  0  0  0
  5  4  1  6  0  0  0
  5 64  1  0  0  0  0
  5  2  1  0  0  0  0
  6  5  1  0  0  0  0
  6  2  1  0  0  0  0
  7  8  1  0  0  0  0
  7 11  1  0  0  0  0
  8 10  1  0  0  0  0
 10  9  2  0  0  0  0
 11  3  1  1  0  0  0
 11  9  1  0  0  0  0
 12  8  1  0  0  0  0
 13 14  1  1  0  0  0
 13 15  1  0  0  0  0
 13 12  1  0  0  0  0
 15 16  1  0  0  0  0
 18 16  1  0  0  0  0
 18 17  2  0  0  0  0
 19 18  1  0  0  0  0
 21 19  1  0  0  0  0
 21 20  1  0  0  0  0
 22 21  2  0  0  0  0
 23 26  1  0  0  0  0
 24 27  2  0  0  0  0
 25 23  2  0  0  0  0
 25 24  1  0  0  0  0
 26 27  1  0  0  0  0
 26  3  1  0  0  0  0
 28 25  1  0  0  0  0
 29 28  2  0  0  0  0
 30 34  1  0  0  0  0
 31 43  2  0  0  0  0
 32 31  1  0  0  0  0
 32 35  1  0  0  0  0
 34 33  1  1  0  0  0
 36 34  1  0  0  0  0
 36 29  1  0  0  0  0
 37 42  2  0  0  0  0
 37 39  1  0  0  0  0
 38 40  1  0  0  0  0
 38 31  1  0  0  0  0
 39 41  2  0  0  0  0
 39 40  1  0  0  0  0
 40 30  2  0  0  0  0
 41 44  1  0  0  0  0
 42 38  1  0  0  0  0
 44 36  2  0  0  0  0
 45 46  1  0  0  0  0
 45 32  1  0  0  0  0
 47 48  2  0  0  0  0
 48 49  1  0  0  0  0
 48 29  1  0  0  0  0
 50 53  1  0  0  0  0
 52 54  1  0  0  0  0
 53 52  1  0  0  0  0
 53 55  2  0  0  0  0
 54 51  2  0  0  0  0
 56 54  1  0  0  0  0
 57 58  1  0  0  0  0
 57 56  1  0  0  0  0
 59 63  1  0  0  0  0
 59 61  1  0  0  0  0
 60 62  1  0  0  0  0
 61 62  1  0  0  0  0
 62 58  1  1  0  0  0
 63 60  1  0  0  0  0
 66 65  1  0  0  0  0
 66 64  1  0  0  0  0
M  END
>  <MODEL>
5

>  <REMARK>
 VINA RESULT:      -5.7      2.979      9.961
  Name = 
  21 active torsions:
  status: ('A' for Active; 'I' for Inactive)
    1  A    between atoms: C_5  and  C_11
    2  A    between atoms: C_5  and  C_32
    3  A    between atoms: N_8  and  C_26
    4  A    between atoms: O_10  and  C_43
    5  A    between atoms: C_11  and  N_47
    6  A    between atoms: N_12  and  C_41
    7  A    between atoms: C_14  and  C_44
    8  A    between atoms: C_14  and  C_51
    9  A    between atoms: O_18  and  C_38
   10  A    between atoms: O_18  and  C_44
   11  A    between atoms: C_19  and  CA_54
   12  A    between atoms: C_20  and  C_62
   13  A    between atoms: C_20  and  C_65
   14  A    between atoms: C_31  and  C_36
   15  A    between atoms: C_31  and  C_37
   16  A    between atoms: N_34  and  C_62
   17  A    between atoms: N_40  and  C_49
   18  A    between atoms: C_43  and  C_57
   19  A    between atoms: C_45  and  CA_54
   20  A    between atoms: N_47  and  C_65
   21  A    between atoms: C_49  and  C_58
                            x       y       z     vdW  Elec       q    Type
                         _______ _______ _______ _____ _____    ______ ____

>  <TORSDO>
F 21

$$$$
=
 OpenBabel10232412073D

 66 71  0  0  1  0  0  0  0  0999 V2000
  191.5260  177.3370  140.8300 C   0  0  0  0  0  0  0  0  0  0  0  0
  191.9490  177.5490  143.5600 C   0  0  2  0  0  3  0  0  0  0  0  0
  191.4490  177.0990  139.5440 C   0  0  0  0  0  0  0  0  0  0  0  0
  190.9660  179.8200  143.1640 C   0  0  0  0  0  1  0  0  0  0  0  0
  190.7640  178.3200  143.2560 C   0  0  1  0  0  0  0  0  0  0  0  0
  191.4820  177.6280  142.0980 C   0  0  0  0  0  0  0  0  0  0  0  0
  192.8750  176.8850  137.0490 S   0  0  0  0  0  0  0  0  0  0  0  0
  194.4110  175.9800  137.0760 N   0  0  0  0  0  0  0  0  0  0  0  0
  193.6120  175.9180  139.3340 C   0  0  0  0  0  3  0  0  0  0  0  0
  194.6110  175.5540  138.4020 N   0  0  0  0  0  0  0  0  0  0  0  0
  192.6450  176.6300  138.7990 C   0  0  2  0  0  3  0  0  0  0  0  0
  194.2490  174.7740  136.2730 C   0  0  0  0  0  2  0  0  0  0  0  0
  193.8370  173.5880  137.1370 C   0  0  1  0  0  3  0  0  0  0  0  0
  192.4540  173.0970  136.7310 C   0  0  0  0  0  1  0  0  0  0  0  0
  194.8410  172.4680  136.9410 C   0  0  0  0  0  2  0  0  0  0  0  0
  196.1950  172.9950  137.0580 N   0  0  0  0  0  2  0  0  0  0  0  0
  197.8480  171.3420  136.6650 C   0  0  0  0  0  2  0  0  0  0  0  0
  197.2860  172.4840  136.2960 C   0  0  0  0  0  0  0  0  0  0  0  0
  197.7160  173.1500  135.0200 C   0  0  0  0  0  2  0  0  0  0  0  0
  199.8510  174.5510  135.5160 C   0  0  0  0  0  1  0  0  0  0  0  0
  198.3820  174.4700  135.2740 C   0  0  0  0  0  0  0  0  0  0  0  0
  197.6930  175.5940  135.1170 C   0  0  0  0  0  2  0  0  0  0  0  0
  189.4620  176.4820  138.2210 C   0  0  0  0  0  3  0  0  0  0  0  0
  188.2660  178.3720  138.3420 C   0  0  0  0  0  3  0  0  0  0  0  0
  188.2770  177.0680  137.8600 C   0  0  0  0  0  0  0  0  0  0  0  0
  190.2140  177.3930  138.8640 N   0  0  0  0  0  0  0  0  0  0  0  0
  189.4980  178.5410  138.9550 C   0  0  0  0  0  3  0  0  0  0  0  0
  187.1630  176.3080  137.3660 N   0  0  0  0  0  0  0  0  0  0  0  0
  186.7270  176.1120  136.1470 C   0  0  0  0  0  0  0  0  0  0  0  0
  184.1990  173.2600  136.1810 N   0  0  0  0  0  0  0  0  0  0  0  0
  182.0290  171.1420  136.0610 C   0  0  0  0  0  0  0  0  0  0  0  0
  183.1400  170.4020  135.5350 N   0  0  0  0  0  0  0  0  0  0  0  0
  186.5190  173.4320  136.6180 F   0  0  0  0  0  0  0  0  0  0  0  0
  185.3770  174.0730  136.2520 C   0  0  2  0  0  3  0  0  0  0  0  0
  183.3100  169.0120  135.9340 C   0  0  0  0  0  1  0  0  0  0  0  0
  185.4330  175.3980  136.0080 C   0  0  0  0  0  0  0  0  0  0  0  0
  180.8610  174.6360  135.3410 C   0  0  0  0  0  3  0  0  0  0  0  0
  181.8530  172.5380  135.7720 N   0  0  0  0  0  0  0  0  0  0  0  0
  182.3370  174.7320  135.5560 C   0  0  0  0  0  0  0  0  0  0  0  0
  182.8530  173.5470  135.8050 C   0  0  0  0  0  0  0  0  0  0  0  0
  182.9990  176.0270  135.5580 C   0  0  0  0  0  3  0  0  0  0  0  0
  180.5540  173.1620  135.6000 C   0  0  0  0  0  3  0  0  0  0  0  0
  181.1510  170.5440  136.7460 O   0  0  0  0  0  0  0  0  0  0  0  0
  184.2870  176.2930  135.7440 C   0  0  0  0  0  3  0  0  0  0  0  0
  183.8610  170.8790  134.3600 C   0  0  0  0  0  2  0  0  0  0  0  0
  185.2800  170.3420  134.3500 C   0  0  0  0  0  1  0  0  0  0  0  0
  188.3980  175.8990  134.4640 O   0  0  0  0  0  1  0  0  0  0  0  0
  187.4490  176.5800  134.9320 C   0  0  0  0  0  0  0  0  0  0  0  0
  187.1500  177.8050  134.3460 O   0  0  0  0  0  0  0  0  0  0  0  0
  191.7390  176.1330  144.0920 C   0  0  0  0  0  2  0  0  0  0  0  0
  190.6550  176.7830  148.2540 O   0  0  0  0  0  0  0  0  0  0  0  0
  190.1130  176.5270  145.9880 N   0  0  0  0  0  2  0  0  0  0  0  0
  191.4160  176.1220  145.5540 C   0  0  0  0  0  0  0  0  0  0  0  0
  189.7740  176.8130  147.3500 C   0  0  0  0  0  0  0  0  0  0  0  0
  192.3150  175.8490  146.4000 O   0  0  0  0  0  0  0  0  0  0  0  0
  188.3780  177.1910  147.7360 C   0  0  0  0  0  2  0  0  0  0  0  0
  187.9410  178.5900  147.2840 C   0  0  0  0  0  2  0  0  0  0  0  0
  186.5580  178.7980  147.3920 O   0  0  0  0  0  0  0  0  0  0  0  0
  184.2000  179.1550  144.7550 S   0  0  0  0  0  0  0  0  0  0  0  0
  186.6220  178.0500  145.1330 C   0  0  0  0  0  2  0  0  0  0  0  0
  184.4470  178.2840  146.3310 C   0  0  0  0  0  2  0  0  0  0  0  0
  185.9280  177.9320  146.4830 C   0  0  2  0  0  3  0  0  0  0  0  0
  185.5670  178.1860  144.0540 C   0  0  0  0  0  2  0  0  0  0  0  0
  189.2860  177.8750  143.3550 C   0  0  0  0  0  2  0  0  0  0  0  0
  188.2660  176.0220  142.8770 O   0  0  0  0  0  1  0  0  0  0  0  0
  188.8350  177.0670  142.3030 O   0  0  0  0  0  0  0  0  0  0  0  0
  1  6  2  0  0  0  0
  2 50  1  1  0  0  0
  3  1  2  0  0  0  0
  5  4  1  1  0  0  0
  5 64  1  0  0  0  0
  5  2  1  0  0  0  0
  6  5  1  0  0  0  0
  6  2  1  0  0  0  0
  7  8  1  0  0  0  0
  7 11  1  0  0  0  0
  8 10  1  0  0  0  0
 10  9  2  0  0  0  0
 11  9  1  0  0  0  0
 11  3  1  6  0  0  0
 12  8  1  0  0  0  0
 12 13  1  0  0  0  0
 13 14  1  6  0  0  0
 15 16  1  0  0  0  0
 15 13  1  0  0  0  0
 18 17  2  0  0  0  0
 18 16  1  0  0  0  0
 19 21  1  0  0  0  0
 19 18  1  0  0  0  0
 21 20  1  0  0  0  0
 22 21  2  0  0  0  0
 23 26  1  0  0  0  0
 24 27  2  0  0  0  0
 25 23  2  0  0  0  0
 25 24  1  0  0  0  0
 26 27  1  0  0  0  0
 26  3  1  0  0  0  0
 28 25  1  0  0  0  0
 29 28  2  0  0  0  0
 30 34  1  0  0  0  0
 31 43  2  0  0  0  0
 32 35  1  0  0  0  0
 32 31  1  0  0  0  0
 34 33  1  1  0  0  0
 36 29  1  0  0  0  0
 36 34  1  0  0  0  0
 37 39  1  0  0  0  0
 37 42  2  0  0  0  0
 38 40  1  0  0  0  0
 38 31  1  0  0  0  0
 39 41  2  0  0  0  0
 39 40  1  0  0  0  0
 40 30  2  0  0  0  0
 41 44  1  0  0  0  0
 42 38  1  0  0  0  0
 44 36  2  0  0  0  0
 45 32  1  0  0  0  0
 46 45  1  0  0  0  0
 47 48  1  0  0  0  0
 48 29  1  0  0  0  0
 49 48  2  0  0  0  0
 50 53  1  0  0  0  0
 52 54  1  0  0  0  0
 53 52  1  0  0  0  0
 53 55  2  0  0  0  0
 54 56  1  0  0  0  0
 54 51  2  0  0  0  0
 57 58  1  0  0  0  0
 57 56  1  0  0  0  0
 59 61  1  0  0  0  0
 60 62  1  0  0  0  0
 61 62  1  0  0  0  0
 62 58  1  1  0  0  0
 63 59  1  0  0  0  0
 63 60  1  0  0  0  0
 66 65  1  0  0  0  0
 66 64  1  0  0  0  0
M  END
>  <MODEL>
6

>  <REMARK>
 VINA RESULT:      -5.6      3.094      9.587
  Name = 
  21 active torsions:
  status: ('A' for Active; 'I' for Inactive)
    1  A    between atoms: C_5  and  C_11
    2  A    between atoms: C_5  and  C_32
    3  A    between atoms: N_8  and  C_26
    4  A    between atoms: O_10  and  C_43
    5  A    between atoms: C_11  and  N_47
    6  A    between atoms: N_12  and  C_41
    7  A    between atoms: C_14  and  C_44
    8  A    between atoms: C_14  and  C_51
    9  A    between atoms: O_18  and  C_38
   10  A    between atoms: O_18  and  C_44
   11  A    between atoms: C_19  and  CA_54
   12  A    between atoms: C_20  and  C_62
   13  A    between atoms: C_20  and  C_65
   14  A    between atoms: C_31  and  C_36
   15  A    between atoms: C_31  and  C_37
   16  A    between atoms: N_34  and  C_62
   17  A    between atoms: N_40  and  C_49
   18  A    between atoms: C_43  and  C_57
   19  A    between atoms: C_45  and  CA_54
   20  A    between atoms: N_47  and  C_65
   21  A    between atoms: C_49  and  C_58
                            x       y       z     vdW  Elec       q    Type
                         _______ _______ _______ _____ _____    ______ ____

>  <TORSDO>
F 21

$$$$
=
 OpenBabel10232412073D

 66 71  0  0  1  0  0  0  0  0999 V2000
  187.3090  177.7770  137.4820 C   0  0  0  0  0  0  0  0  0  0  0  0
  186.1480  177.8270  134.9680 C   0  0  2  0  0  3  0  0  0  0  0  0
  187.6850  177.7450  138.7370 C   0  0  0  0  0  0  0  0  0  0  0  0
  188.3910  178.7600  134.3530 C   0  0  0  0  0  1  0  0  0  0  0  0
  187.5570  177.5660  134.7760 C   0  0  1  0  0  0  0  0  0  0  0  0
  187.0560  177.7640  136.2060 C   0  0  0  0  0  0  0  0  0  0  0  0
  187.3580  178.5510  141.4840 S   0  0  0  0  0  0  0  0  0  0  0  0
  185.7890  179.2730  141.9280 N   0  0  0  0  0  0  0  0  0  0  0  0
  185.6130  178.7940  139.5870 C   0  0  0  0  0  3  0  0  0  0  0  0
  185.0090  179.3070  140.7570 N   0  0  0  0  0  2  0  0  0  0  0  0
  186.8430  178.3740  139.7850 C   0  0  0  0  0  0  0  0  0  0  0  0
  185.1120  178.3700  142.8510 C   0  0  0  0  0  2  0  0  0  0  0  0
  185.0960  178.9380  144.2650 C   0  0  1  0  0  3  0  0  0  0  0  0
  183.6660  179.0270  144.7800 C   0  0  0  0  0  1  0  0  0  0  0  0
  185.8950  178.0200  145.1700 C   0  0  0  0  0  2  0  0  0  0  0  0
  187.3000  178.4090  145.1490 N   0  0  0  0  0  2  0  0  0  0  0  0
  188.1490  176.4910  144.0450 C   0  0  0  0  0  2  0  0  0  0  0  0
  188.3510  177.4770  144.9060 C   0  0  0  0  0  0  0  0  0  0  0  0
  189.7120  177.6730  145.5100 C   0  0  0  0  0  2  0  0  0  0  0  0
  191.0910  176.5710  147.4200 C   0  0  0  0  0  1  0  0  0  0  0  0
  189.8000  177.0970  146.8930 C   0  0  0  0  0  0  0  0  0  0  0  0
  188.7650  177.2070  147.7170 C   0  0  0  0  0  2  0  0  0  0  0  0
  189.5950  176.2460  138.3070 C   0  0  0  0  0  3  0  0  0  0  0  0
  191.0550  176.9630  139.8480 C   0  0  0  0  0  3  0  0  0  0  0  0
  190.8630  176.0740  138.7970 C   0  0  0  0  0  0  0  0  0  0  0  0
  188.9690  177.1740  139.0540 N   0  0  0  0  0  0  0  0  0  0  0  0
  189.8450  177.6250  139.9850 C   0  0  0  0  0  3  0  0  0  0  0  0
  191.8650  175.3270  138.0870 N   0  0  0  0  0  0  0  0  0  0  0  0
  191.7610  174.3290  137.2460 C   0  0  0  0  0  0  0  0  0  0  0  0
  195.4640  173.4300  137.1710 N   0  0  0  0  0  0  0  0  0  0  0  0
  198.3720  172.6170  136.8700 C   0  0  0  0  0  0  0  0  0  0  0  0
  198.5240  174.0160  137.1470 N   0  0  0  0  0  0  0  0  0  0  0  0
  194.1360  174.9060  138.4610 F   0  0  0  0  0  0  0  0  0  0  0  0
  194.1760  173.9930  137.4540 C   0  0  2  0  0  3  0  0  0  0  0  0
  199.6040  174.4450  138.0240 C   0  0  0  0  0  1  0  0  0  0  0  0
  193.0270  173.6780  136.8240 C   0  0  0  0  0  0  0  0  0  0  0  0
  195.9910  170.8230  134.5900 C   0  0  0  0  0  3  0  0  0  0  0  0
  197.2790  172.1230  136.0800 N   0  0  0  0  0  0  0  0  0  0  0  0
  195.1640  171.7990  135.3610 C   0  0  0  0  0  0  0  0  0  0  0  0
  195.9120  172.4970  136.1890 C   0  0  0  0  0  0  0  0  0  0  0  0
  193.7180  171.8270  135.2050 C   0  0  0  0  0  3  0  0  0  0  0  0
  197.3910  170.9930  135.1760 C   0  0  0  0  0  3  0  0  0  0  0  0
  199.2490  171.8030  137.2770 O   0  0  0  0  0  0  0  0  0  0  0  0
  192.8390  172.6140  135.8150 C   0  0  0  0  0  3  0  0  0  0  0  0
  197.8790  175.0150  136.3020 C   0  0  0  0  0  2  0  0  0  0  0  0
  198.5430  175.0720  134.9390 C   0  0  0  0  0  1  0  0  0  0  0  0
  189.5610  173.4640  137.5290 O   0  0  0  0  0  1  0  0  0  0  0  0
  190.4600  173.8260  136.7270 C   0  0  0  0  0  0  0  0  0  0  0  0
  190.2440  173.6690  135.3620 O   0  0  0  0  0  0  0  0  0  0  0  0
  185.2100  176.6220  134.9540 C   0  0  0  0  0  2  0  0  0  0  0  0
  182.2900  177.5150  138.0520 O   0  0  0  0  0  0  0  0  0  0  0  0
  182.9470  177.3620  135.8070 N   0  0  0  0  0  2  0  0  0  0  0  0
  184.1880  176.6900  136.0470 C   0  0  0  0  0  0  0  0  0  0  0  0
  182.0190  177.7220  136.8370 C   0  0  0  0  0  0  0  0  0  0  0  0
  184.4610  176.2410  137.1970 O   0  0  0  0  0  0  0  0  0  0  0  0
  180.7180  178.3870  136.5070 C   0  0  0  0  0  2  0  0  0  0  0  0
  180.7390  179.2470  135.2370 C   0  0  0  0  0  2  0  0  0  0  0  0
  179.9830  180.4230  135.3550 O   0  0  0  0  0  0  0  0  0  0  0  0
  180.0340  183.9770  135.4310 S   0  0  0  0  0  0  0  0  0  0  0  0
  180.1590  181.9400  137.1810 C   0  0  0  0  0  2  0  0  0  0  0  0
  181.0470  182.5530  134.9330 C   0  0  0  0  0  2  0  0  0  0  0  0
  180.8160  181.4040  135.9170 C   0  0  2  0  0  3  0  0  0  0  0  0
  180.2230  183.4540  137.1600 C   0  0  0  0  0  2  0  0  0  0  0  0
  188.2580  176.1990  134.6040 C   0  0  0  0  0  2  0  0  0  0  0  0
  187.1340  174.3440  134.6040 O   0  0  0  0  0  1  0  0  0  0  0  0
  187.7670  175.1700  135.4180 O   0  0  0  0  0  0  0  0  0  0  0  0
  1  3  2  0  0  0  0
  2 50  1  1  0  0  0
  2  6  1  0  0  0  0
  3 26  1  0  0  0  0
  3 11  1  0  0  0  0
  5  4  1  6  0  0  0
  5  2  1  0  0  0  0
  5  6  1  0  0  0  0
  6  1  2  0  0  0  0
  7  8  1  0  0  0  0
  8 12  1  0  0  0  0
  9 11  2  0  0  0  0
  9 10  1  0  0  0  0
 10  8  1  0  0  0  0
 11  7  1  0  0  0  0
 12 13  1  0  0  0  0
 13 14  1  1  0  0  0
 13 15  1  0  0  0  0
 16 15  1  0  0  0  0
 17 18  2  0  0  0  0
 18 16  1  0  0  0  0
 18 19  1  0  0  0  0
 19 21  1  0  0  0  0
 21 20  1  0  0  0  0
 21 22  2  0  0  0  0
 23 25  2  0  0  0  0
 23 26  1  0  0  0  0
 24 27  2  0  0  0  0
 25 24  1  0  0  0  0
 26 27  1  0  0  0  0
 28 25  1  0  0  0  0
 29 28  2  0  0  0  0
 30 34  1  0  0  0  0
 31 32  1  0  0  0  0
 31 43  2  0  0  0  0
 32 35  1  0  0  0  0
 34 33  1  1  0  0  0
 36 29  1  0  0  0  0
 36 34  1  0  0  0  0
 37 42  2  0  0  0  0
 37 39  1  0  0  0  0
 38 40  1  0  0  0  0
 38 31  1  0  0  0  0
 39 40  1  0  0  0  0
 40 30  2  0  0  0  0
 41 39  2  0  0  0  0
 41 44  1  0  0  0  0
 42 38  1  0  0  0  0
 44 36  2  0  0  0  0
 45 32  1  0  0  0  0
 46 45  1  0  0  0  0
 48 29  1  0  0  0  0
 48 47  1  0  0  0  0
 49 48  2  0  0  0  0
 50 53  1  0  0  0  0
 52 53  1  0  0  0  0
 52 54  1  0  0  0  0
 53 55  2  0  0  0  0
 54 51  2  0  0  0  0
 56 54  1  0  0  0  0
 57 58  1  0  0  0  0
 57 56  1  0  0  0  0
 59 63  1  0  0  0  0
 61 59  1  0  0  0  0
 61 62  1  0  0  0  0
 62 58  1  6  0  0  0
 62 60  1  0  0  0  0
 63 60  1  0  0  0  0
 64  5  1  0  0  0  0
 64 66  1  0  0  0  0
 65 66  1  0  0  0  0
M  END
>  <MODEL>
7

>  <REMARK>
 VINA RESULT:      -5.3      3.560     11.612
  Name = 
  21 active torsions:
  status: ('A' for Active; 'I' for Inactive)
    1  A    between atoms: C_5  and  C_11
    2  A    between atoms: C_5  and  C_32
    3  A    between atoms: N_8  and  C_26
    4  A    between atoms: O_10  and  C_43
    5  A    between atoms: C_11  and  N_47
    6  A    between atoms: N_12  and  C_41
    7  A    between atoms: C_14  and  C_44
    8  A    between atoms: C_14  and  C_51
    9  A    between atoms: O_18  and  C_38
   10  A    between atoms: O_18  and  C_44
   11  A    between atoms: C_19  and  CA_54
   12  A    between atoms: C_20  and  C_62
   13  A    between atoms: C_20  and  C_65
   14  A    between atoms: C_31  and  C_36
   15  A    between atoms: C_31  and  C_37
   16  A    between atoms: N_34  and  C_62
   17  A    between atoms: N_40  and  C_49
   18  A    between atoms: C_43  and  C_57
   19  A    between atoms: C_45  and  CA_54
   20  A    between atoms: N_47  and  C_65
   21  A    between atoms: C_49  and  C_58
                            x       y       z     vdW  Elec       q    Type
                         _______ _______ _______ _____ _____    ______ ____

>  <TORSDO>
F 21

$$$$
=
 OpenBabel10232412073D

 66 71  0  0  1  0  0  0  0  0999 V2000
  183.8710  177.6570  139.1640 C   0  0  0  0  0  0  0  0  0  0  0  0
  181.3810  176.7120  138.4030 C   0  0  2  0  0  3  0  0  0  0  0  0
  185.0080  178.0380  139.6930 C   0  0  0  0  0  0  0  0  0  0  0  0
  181.7360  178.3490  136.5400 C   0  0  0  0  0  1  0  0  0  0  0  0
  182.1010  177.0290  137.1890 C   0  0  1  0  0  0  0  0  0  0  0  0
  182.8020  177.2830  138.5230 C   0  0  0  0  0  0  0  0  0  0  0  0
  186.5840  178.5480  142.0510 S   0  0  0  0  0  0  0  0  0  0  0  0
  185.6960  179.0160  143.5240 N   0  0  0  0  0  0  0  0  0  0  0  0
  184.0090  178.7250  141.8480 C   0  0  0  0  0  3  0  0  0  0  0  0
  184.3310  179.0500  143.1850 N   0  0  0  0  0  2  0  0  0  0  0  0
  185.0670  178.4560  141.1150 C   0  0  0  0  0  0  0  0  0  0  0  0
  185.8520  177.9540  144.5110 C   0  0  0  0  0  2  0  0  0  0  0  0
  187.0780  178.1890  145.3850 C   0  0  1  0  0  3  0  0  0  0  0  0
  186.8000  177.7400  146.8130 C   0  0  0  0  0  1  0  0  0  0  0  0
  188.2380  177.3860  144.8270 C   0  0  0  0  0  2  0  0  0  0  0  0
  189.4070  177.5500  145.6830 N   0  0  0  0  0  2  0  0  0  0  0  0
  191.4120  176.5610  146.4680 C   0  0  0  0  0  2  0  0  0  0  0  0
  190.6370  176.8720  145.4390 C   0  0  0  0  0  0  0  0  0  0  0  0
  190.9980  176.3970  144.0620 C   0  0  0  0  0  2  0  0  0  0  0  0
  191.7340  178.8240  143.4830 C   0  0  0  0  0  1  0  0  0  0  0  0
  191.1030  177.5330  143.0870 C   0  0  0  0  0  0  0  0  0  0  0  0
  190.7850  177.3360  141.8130 C   0  0  0  0  0  2  0  0  0  0  0  0
  187.2190  177.2960  138.8910 C   0  0  0  0  0  3  0  0  0  0  0  0
  187.4440  178.5460  137.0450 C   0  0  0  0  0  3  0  0  0  0  0  0
  188.0360  177.5560  137.8220 C   0  0  0  0  0  0  0  0  0  0  0  0
  186.1640  178.1300  138.8390 N   0  0  0  0  0  0  0  0  0  0  0  0
  186.2820  178.8860  137.7190 C   0  0  0  0  0  3  0  0  0  0  0  0
  189.1230  176.6900  137.4580 N   0  0  0  0  0  0  0  0  0  0  0  0
  189.5720  176.3170  136.2860 C   0  0  0  0  0  0  0  0  0  0  0  0
  192.7150  174.3990  137.2700 N   0  0  0  0  0  0  0  0  0  0  0  0
  195.2010  172.7490  137.8220 C   0  0  0  0  0  0  0  0  0  0  0  0
  195.7300  174.0720  137.9840 N   0  0  0  0  0  0  0  0  0  0  0  0
  191.6840  176.3980  138.0120 F   0  0  0  0  0  0  0  0  0  0  0  0
  191.6470  175.3470  137.1490 C   0  0  2  0  0  3  0  0  0  0  0  0
  196.6740  174.3240  139.0630 C   0  0  0  0  0  1  0  0  0  0  0  0
  190.6210  175.2670  136.2770 C   0  0  0  0  0  0  0  0  0  0  0  0
  192.9220  171.3340  135.1960 C   0  0  0  0  0  3  0  0  0  0  0  0
  194.2050  172.4560  136.8290 N   0  0  0  0  0  0  0  0  0  0  0  0
  192.3060  172.6270  135.6210 C   0  0  0  0  0  0  0  0  0  0  0  0
  193.0410  173.2180  136.5400 C   0  0  0  0  0  0  0  0  0  0  0  0
  191.0150  173.0390  135.0920 C   0  0  0  0  0  3  0  0  0  0  0  0
  194.1420  171.1990  136.1060 C   0  0  0  0  0  3  0  0  0  0  0  0
  195.6610  171.8040  138.5240 O   0  0  0  0  0  0  0  0  0  0  0  0
  190.3250  174.1390  135.3680 C   0  0  0  0  0  3  0  0  0  0  0  0
  195.6380  175.0480  136.9030 C   0  0  0  0  0  2  0  0  0  0  0  0
  196.3830  174.5570  135.6760 C   0  0  0  0  0  1  0  0  0  0  0  0
  188.0580  176.3740  134.4490 O   0  0  0  0  0  1  0  0  0  0  0  0
  189.0710  176.8750  135.0000 C   0  0  0  0  0  0  0  0  0  0  0  0
  189.7540  177.8960  134.3470 O   0  0  0  0  0  0  0  0  0  0  0  0
  181.3740  175.2500  138.8450 C   0  0  0  0  0  2  0  0  0  0  0  0
  180.5450  172.5790  135.5130 O   0  0  0  0  0  0  0  0  0  0  0  0
  181.4080  173.0230  137.6470 N   0  0  0  0  0  2  0  0  0  0  0  0
  180.8580  174.3390  137.7730 C   0  0  0  0  0  0  0  0  0  0  0  0
  181.1950  172.1720  136.5150 C   0  0  0  0  0  0  0  0  0  0  0  0
  180.0160  174.7640  136.9320 O   0  0  0  0  0  0  0  0  0  0  0  0
  181.7680  170.7880  136.4700 C   0  0  0  0  0  2  0  0  0  0  0  0
  183.0220  170.6390  135.6000 C   0  0  0  0  0  2  0  0  0  0  0  0
  184.1900  170.4230  136.3470 O   0  0  0  0  0  0  0  0  0  0  0  0
  185.8450  173.1310  134.7440 S   0  0  0  0  0  0  0  0  0  0  0  0
  186.4950  171.0140  136.2700 C   0  0  0  0  0  2  0  0  0  0  0  0
  184.9760  171.5780  134.3740 C   0  0  0  0  0  2  0  0  0  0  0  0
  185.2810  170.5580  135.4730 C   0  0  2  0  0  3  0  0  0  0  0  0
  187.1610  172.1580  135.5310 C   0  0  0  0  0  2  0  0  0  0  0  0
  182.9180  176.0740  136.2900 C   0  0  0  0  0  2  0  0  0  0  0  0
  185.0160  175.6280  135.9680 O   0  0  0  0  0  1  0  0  0  0  0  0
  184.1280  176.5940  135.8130 O   0  0  0  0  0  0  0  0  0  0  0  0
  1  3  2  0  0  0  0
  2  6  1  0  0  0  0
  2 50  1  6  0  0  0
  3 11  1  0  0  0  0
  5  4  1  6  0  0  0
  5  2  1  0  0  0  0
  5  6  1  0  0  0  0
  6  1  2  0  0  0  0
  7  8  1  0  0  0  0
  8 12  1  0  0  0  0
  9 10  1  0  0  0  0
 10  8  1  0  0  0  0
 11  9  2  0  0  0  0
 11  7  1  0  0  0  0
 12 13  1  0  0  0  0
 13 14  1  1  0  0  0
 15 13  1  0  0  0  0
 15 16  1  0  0  0  0
 18 16  1  0  0  0  0
 18 17  2  0  0  0  0
 19 18  1  0  0  0  0
 21 20  1  0  0  0  0
 21 19  1  0  0  0  0
 22 21  2  0  0  0  0
 24 27  2  0  0  0  0
 24 25  1  0  0  0  0
 25 23  2  0  0  0  0
 26 23  1  0  0  0  0
 26  3  1  0  0  0  0
 27 26  1  0  0  0  0
 28 25  1  0  0  0  0
 29 28  2  0  0  0  0
 31 32  1  0  0  0  0
 31 43  2  0  0  0  0
 32 35  1  0  0  0  0
 34 30  1  0  0  0  0
 34 33  1  1  0  0  0
 36 29  1  0  0  0  0
 36 34  1  0  0  0  0
 37 39  1  0  0  0  0
 37 42  2  0  0  0  0
 38 31  1  0  0  0  0
 39 40  1  0  0  0  0
 40 38  1  0  0  0  0
 40 30  2  0  0  0  0
 41 44  1  0  0  0  0
 41 39  2  0  0  0  0
 42 38  1  0  0  0  0
 44 36  2  0  0  0  0
 45 32  1  0  0  0  0
 46 45  1  0  0  0  0
 47 48  1  0  0  0  0
 48 29  1  0  0  0  0
 49 48  2  0  0  0  0
 51 54  2  0  0  0  0
 52 53  1  0  0  0  0
 53 50  1  0  0  0  0
 54 52  1  0  0  0  0
 55 53  2  0  0  0  0
 56 54  1  0  0  0  0
 57 58  1  0  0  0  0
 57 56  1  0  0  0  0
 59 63  1  0  0  0  0
 61 59  1  0  0  0  0
 61 62  1  0  0  0  0
 62 60  1  0  0  0  0
 62 58  1  1  0  0  0
 63 60  1  0  0  0  0
 64  5  1  0  0  0  0
 66 65  1  0  0  0  0
 66 64  1  0  0  0  0
M  END
>  <MODEL>
8

>  <REMARK>
 VINA RESULT:      -5.2      2.781      9.955
  Name = 
  21 active torsions:
  status: ('A' for Active; 'I' for Inactive)
    1  A    between atoms: C_5  and  C_11
    2  A    between atoms: C_5  and  C_32
    3  A    between atoms: N_8  and  C_26
    4  A    between atoms: O_10  and  C_43
    5  A    between atoms: C_11  and  N_47
    6  A    between atoms: N_12  and  C_41
    7  A    between atoms: C_14  and  C_44
    8  A    between atoms: C_14  and  C_51
    9  A    between atoms: O_18  and  C_38
   10  A    between atoms: O_18  and  C_44
   11  A    between atoms: C_19  and  CA_54
   12  A    between atoms: C_20  and  C_62
   13  A    between atoms: C_20  and  C_65
   14  A    between atoms: C_31  and  C_36
   15  A    between atoms: C_31  and  C_37
   16  A    between atoms: N_34  and  C_62
   17  A    between atoms: N_40  and  C_49
   18  A    between atoms: C_43  and  C_57
   19  A    between atoms: C_45  and  CA_54
   20  A    between atoms: N_47  and  C_65
   21  A    between atoms: C_49  and  C_58
                            x       y       z     vdW  Elec       q    Type
                         _______ _______ _______ _____ _____    ______ ____

>  <TORSDO>
F 21

$$$$
=
 OpenBabel10232412073D

 66 71  0  0  1  0  0  0  0  0999 V2000
  188.4220  177.4600  142.0110 C   0  0  0  0  0  0  0  0  0  0  0  0
  189.0450  176.6000  144.5690 C   0  0  2  0  0  3  0  0  0  0  0  0
  188.0020  177.9760  140.8820 C   0  0  0  0  0  0  0  0  0  0  0  0
  190.0240  174.6810  143.2900 C   0  0  0  0  0  1  0  0  0  0  0  0
  190.1040  176.1380  143.7000 C   0  0  1  0  0  0  0  0  0  0  0  0
  188.9520  176.9180  143.0690 C   0  0  0  0  0  0  0  0  0  0  0  0
  185.5090  177.7010  139.4630 S   0  0  0  0  0  0  0  0  0  0  0  0
  184.1650  178.7480  139.9900 N   0  0  0  0  0  0  0  0  0  0  0  0
  185.9880  179.2970  141.4440 C   0  0  0  0  0  3  0  0  0  0  0  0
  184.6450  179.5190  141.0650 N   0  0  0  0  0  2  0  0  0  0  0  0
  186.5790  178.3690  140.7250 C   0  0  0  0  0  0  0  0  0  0  0  0
  183.8600  179.6820  138.9130 C   0  0  0  0  0  2  0  0  0  0  0  0
  182.3710  179.6840  138.5900 C   0  0  1  0  0  3  0  0  0  0  0  0
  181.9190  181.0860  138.2030 C   0  0  0  0  0  1  0  0  0  0  0  0
  182.1200  178.7410  137.4280 C   0  0  0  0  0  2  0  0  0  0  0  0
  181.9690  177.3790  137.9240 N   0  0  0  0  0  2  0  0  0  0  0  0
  180.2480  175.7660  137.6890 C   0  0  0  0  0  2  0  0  0  0  0  0
  181.3170  176.3570  137.1740 C   0  0  0  0  0  0  0  0  0  0  0  0
  181.7430  176.0380  135.7700 C   0  0  0  0  0  2  0  0  0  0  0  0
  184.3370  175.8600  135.8440 C   0  0  0  0  0  1  0  0  0  0  0  0
  182.9970  175.2150  135.7380 C   0  0  0  0  0  0  0  0  0  0  0  0
  182.9150  173.8910  135.7840 C   0  0  0  0  0  2  0  0  0  0  0  0
  189.9410  177.2030  139.5700 C   0  0  0  0  0  3  0  0  0  0  0  0
  189.7580  178.4850  137.7420 C   0  0  0  0  0  3  0  0  0  0  0  0
  190.4890  177.4670  138.3420 C   0  0  0  0  0  0  0  0  0  0  0  0
  188.9260  178.0600  139.7800 N   0  0  0  0  0  0  0  0  0  0  0  0
  188.7960  178.8360  138.6760 C   0  0  0  0  0  3  0  0  0  0  0  0
  191.4370  176.5850  137.7190 N   0  0  0  0  0  0  0  0  0  0  0  0
  191.3660  175.8850  136.6140 C   0  0  0  0  0  0  0  0  0  0  0  0
  194.9200  174.5430  136.3210 N   0  0  0  0  0  0  0  0  0  0  0  0
  197.6540  173.2800  135.9400 C   0  0  0  0  0  0  0  0  0  0  0  0
  197.9110  174.6020  135.4460 N   0  0  0  0  0  0  0  0  0  0  0  0
  193.9740  176.6300  136.9170 F   0  0  0  0  0  0  0  0  0  0  0  0
  193.7510  175.3500  136.5150 C   0  0  2  0  0  3  0  0  0  0  0  0
  199.1770  175.2410  135.7750 C   0  0  0  0  0  1  0  0  0  0  0  0
  192.4780  174.9380  136.3510 C   0  0  0  0  0  0  0  0  0  0  0  0
  194.7540  170.9710  135.3460 C   0  0  0  0  0  3  0  0  0  0  0  0
  196.3920  172.6290  135.7200 N   0  0  0  0  0  0  0  0  0  0  0  0
  194.1590  172.3050  135.6620 C   0  0  0  0  0  0  0  0  0  0  0  0
  195.1010  173.2000  135.8760 C   0  0  0  0  0  0  0  0  0  0  0  0
  192.7180  172.4600  135.7810 C   0  0  0  0  0  3  0  0  0  0  0  0
  196.2570  171.2000  135.5000 C   0  0  0  0  0  3  0  0  0  0  0  0
  198.5730  172.6460  136.5320 O   0  0  0  0  0  0  0  0  0  0  0  0
  192.0290  173.5600  136.0650 C   0  0  0  0  0  3  0  0  0  0  0  0
  197.1210  175.1520  134.3500 C   0  0  0  0  0  2  0  0  0  0  0  0
  196.9260  176.6460  134.5290 C   0  0  0  0  0  1  0  0  0  0  0  0
  190.4100  176.5420  134.5350 O   0  0  0  0  0  0  0  0  0  0  0  0
  190.2360  175.9870  135.6500 C   0  0  0  0  0  0  0  0  0  0  0  0
  188.9590  175.5540  135.9910 O   0  0  0  0  0  1  0  0  0  0  0  0
  189.3010  177.8850  145.3550 C   0  0  0  0  0  2  0  0  0  0  0  0
  185.9690  179.2280  147.8070 O   0  0  0  0  0  0  0  0  0  0  0  0
  186.8500  178.1640  145.9130 N   0  0  0  0  0  2  0  0  0  0  0  0
  188.2150  178.1660  146.3470 C   0  0  0  0  0  0  0  0  0  0  0  0
  185.7620  178.6740  146.6910 C   0  0  0  0  0  0  0  0  0  0  0  0
  188.5090  178.4940  147.5320 O   0  0  0  0  0  0  0  0  0  0  0  0
  184.3520  178.6010  146.1900 C   0  0  0  0  0  2  0  0  0  0  0  0
  184.1820  178.9130  144.6970 C   0  0  0  0  0  2  0  0  0  0  0  0
  183.1760  178.1510  144.0850 O   0  0  0  0  0  0  0  0  0  0  0  0
  180.2240  177.9150  142.1180 S   0  0  0  0  0  0  0  0  0  0  0  0
  181.3010  179.6070  143.9100 C   0  0  0  0  0  2  0  0  0  0  0  0
  182.0110  178.2120  141.9680 C   0  0  0  0  0  2  0  0  0  0  0  0
  182.4950  178.9930  143.1910 C   0  0  2  0  0  3  0  0  0  0  0  0
  180.0810  179.4870  143.0170 C   0  0  0  0  0  2  0  0  0  0  0  0
  191.4680  176.8110  143.4190 C   0  0  0  0  0  2  0  0  0  0  0  0
  192.5260  177.1130  141.5500 O   0  0  0  0  0  1  0  0  0  0  0  0
  191.5180  177.5930  142.2580 O   0  0  0  0  0  0  0  0  0  0  0  0
  1  6  2  0  0  0  0
  2 50  1  1  0  0  0
  3  1  2  0  0  0  0
  5  4  1  6  0  0  0
  5  2  1  0  0  0  0
  6  5  1  0  0  0  0
  6  2  1  0  0  0  0
  7  8  1  0  0  0  0
  7 11  1  0  0  0  0
  8 10  1  0  0  0  0
 10  9  1  0  0  0  0
 11  3  1  0  0  0  0
 11  9  2  0  0  0  0
 12  8  1  0  0  0  0
 13 14  1  6  0  0  0
 13 12  1  0  0  0  0
 15 16  1  0  0  0  0
 15 13  1  0  0  0  0
 18 17  2  0  0  0  0
 18 16  1  0  0  0  0
 19 18  1  0  0  0  0
 21 19  1  0  0  0  0
 21 22  2  0  0  0  0
 21 20  1  0  0  0  0
 23 26  1  0  0  0  0
 24 25  1  0  0  0  0
 24 27  2  0  0  0  0
 25 23  2  0  0  0  0
 26  3  1  0  0  0  0
 27 26  1  0  0  0  0
 28 25  1  0  0  0  0
 29 28  2  0  0  0  0
 30 34  1  0  0  0  0
 31 43  2  0  0  0  0
 32 35  1  0  0  0  0
 32 31  1  0  0  0  0
 34 33  1  1  0  0  0
 36 34  1  0  0  0  0
 36 29  1  0  0  0  0
 37 42  2  0  0  0  0
 37 39  1  0  0  0  0
 38 40  1  0  0  0  0
 38 31  1  0  0  0  0
 39 41  2  0  0  0  0
 39 40  1  0  0  0  0
 40 30  2  0  0  0  0
 41 44  1  0  0  0  0
 42 38  1  0  0  0  0
 44 36  2  0  0  0  0
 45 46  1  0  0  0  0
 45 32  1  0  0  0  0
 47 48  2  0  0  0  0
 48 49  1  0  0  0  0
 48 29  1  0  0  0  0
 50 53  1  0  0  0  0
 52 53  1  0  0  0  0
 52 54  1  0  0  0  0
 53 55  2  0  0  0  0
 54 51  2  0  0  0  0
 56 54  1  0  0  0  0
 57 56  1  0  0  0  0
 58 57  1  0  0  0  0
 59 63  1  0  0  0  0
 61 59  1  0  0  0  0
 61 62  1  0  0  0  0
 62 60  1  0  0  0  0
 62 58  1  1  0  0  0
 63 60  1  0  0  0  0
 64  5  1  0  0  0  0
 65 66  1  0  0  0  0
 66 64  1  0  0  0  0
M  END
>  <MODEL>
9

>  <REMARK>
 VINA RESULT:      -5.1      3.445     11.642
  Name = 
  21 active torsions:
  status: ('A' for Active; 'I' for Inactive)
    1  A    between atoms: C_5  and  C_11
    2  A    between atoms: C_5  and  C_32
    3  A    between atoms: N_8  and  C_26
    4  A    between atoms: O_10  and  C_43
    5  A    between atoms: C_11  and  N_47
    6  A    between atoms: N_12  and  C_41
    7  A    between atoms: C_14  and  C_44
    8  A    between atoms: C_14  and  C_51
    9  A    between atoms: O_18  and  C_38
   10  A    between atoms: O_18  and  C_44
   11  A    between atoms: C_19  and  CA_54
   12  A    between atoms: C_20  and  C_62
   13  A    between atoms: C_20  and  C_65
   14  A    between atoms: C_31  and  C_36
   15  A    between atoms: C_31  and  C_37
   16  A    between atoms: N_34  and  C_62
   17  A    between atoms: N_40  and  C_49
   18  A    between atoms: C_43  and  C_57
   19  A    between atoms: C_45  and  CA_54
   20  A    between atoms: N_47  and  C_65
   21  A    between atoms: C_49  and  C_58
                            x       y       z     vdW  Elec       q    Type
                         _______ _______ _______ _____ _____    ______ ____

>  <TORSDO>
F 21

$$$$
