=
 OpenBabel10232411133D

 33 37  0  0  1  0  0  0  0  0999 V2000
  189.8190  176.9380  141.0110 C   0  0  2  0  0  3  0  0  0  0  0  0
  188.5660  177.9180  137.4130 C   0  0  0  0  0  3  0  0  0  0  0  0
  185.2370  178.7780  138.7400 N   0  0  0  0  0  0  0  0  0  0  0  0
  187.4610  178.3630  139.4630 C   0  0  0  0  0  0  0  0  0  0  0  0
  184.8560  178.9850  140.0320 C   0  0  0  0  0  3  0  0  0  0  0  0
  188.6260  177.0660  141.9540 C   0  0  0  0  0  2  0  0  0  0  0  0
  187.0910  178.2300  137.1310 C   0  0  0  0  0  3  0  0  0  0  0  0
  189.3760  176.7370  139.5380 C   0  0  1  0  0  3  0  0  0  0  0  0
  186.5290  178.4690  138.4700 C   0  0  0  0  0  0  0  0  0  0  0  0
  188.8140  178.0430  138.9350 C   0  0  1  0  0  3  0  0  0  0  0  0
  187.0720  178.5800  140.7850 C   0  0  0  0  0  0  0  0  0  0  0  0
  188.0430  178.4670  141.9080 C   0  0  0  0  0  2  0  0  0  0  0  0
  185.7690  178.8860  141.0420 N   0  0  0  0  0  0  0  0  0  0  0  0
  191.7300  177.1080  138.6780 C   0  0  0  0  0  2  0  0  0  0  0  0
  191.3160  174.2440  136.1250 C   0  0  2  0  0  0  0  0  0  0  0  0
  193.0150  174.5520  137.9610 O   0  0  0  0  0  0  0  0  0  0  0  0
  192.1130  172.9580  136.3350 C   0  0  0  0  0  2  0  0  0  0  0  0
  190.5110  176.1870  138.6510 C   0  0  2  0  0  3  0  0  0  0  0  0
  193.7660  174.5980  135.6680 O   0  0  0  0  0  1  0  0  0  0  0  0
  192.7610  174.3060  136.5970 C   0  0  1  0  0  0  0  0  0  0  0  0
  190.2320  174.5560  137.1650 C   0  0  1  0  0  3  0  0  0  0  0  0
  190.0810  175.9360  137.3400 O   0  0  0  0  0  0  0  0  0  0  0  0
  192.5950  176.8160  137.6180 O   0  0  0  0  0  0  0  0  0  0  0  0
  193.5120  175.8670  138.0970 C   0  0  0  0  0  2  0  0  0  0  0  0
  187.7710  174.8080  135.7590 S   0  0  0  0  0  1  0  0  0  0  0  0
  188.9150  173.9300  136.8160 C   0  0  0  0  0  0  0  0  0  0  0  0
  188.6260  172.8180  137.2290 O   0  0  0  0  0  0  0  0  0  0  0  0
  191.1490  174.6840  134.8010 O   0  0  0  0  0  0  0  0  0  0  0  0
  191.1260  176.0020  134.8550 O   0  0  0  0  0  1  0  0  0  0  0  0
  190.6120  175.8730  141.4500 O   0  0  0  0  0  0  0  0  0  0  0  0
  190.3460  175.7630  142.8180 C   0  0  0  0  0  2  0  0  0  0  0  0
  191.2280  176.9670  144.8090 C   0  0  0  0  0  1  0  0  0  0  0  0
  191.5890  176.1010  143.6190 C   0  0  0  0  0  2  0  0  0  0  0  0
  1 30  1  1  0  0  0
  1  6  1  0  0  0  0
  3  5  1  0  0  0  0
  4 11  2  0  0  0  0
  5 13  2  0  0  0  0
  7  2  2  0  0  0  0
  7  9  1  0  0  0  0
  8 18  1  6  0  0  0
  8  1  1  0  0  0  0
  9  3  2  0  0  0  0
  9  4  1  0  0  0  0
 10  2  1  6  0  0  0
 10  4  1  0  0  0  0
 10  8  1  0  0  0  0
 11 13  1  0  0  0  0
 11 12  1  0  0  0  0
 12  6  1  0  0  0  0
 15 28  1  6  0  0  0
 15 17  1  0  0  0  0
 15 20  1  0  0  0  0
 15 21  1  0  0  0  0
 16 24  1  0  0  0  0
 17 20  1  0  0  0  0
 18 14  1  6  0  0  0
 20 19  1  6  0  0  0
 20 16  1  0  0  0  0
 21 26  1  6  0  0  0
 21 22  1  0  0  0  0
 22 18  1  0  0  0  0
 23 24  1  0  0  0  0
 23 14  1  0  0  0  0
 25 26  1  0  0  0  0
 26 27  2  0  0  0  0
 28 29  1  0  0  0  0
 30 31  1  0  0  0  0
 31 33  1  0  0  0  0
 33 32  1  0  0  0  0
M  END
>  <MODEL>
1

>  <REMARK>
 VINA RESULT:      -6.5      0.000      0.000
  Name = 
  6 active torsions:
  status: ('A' for Active; 'I' for Inactive)
    1  A    between atoms: C_2  and  O_6
    2  A    between atoms: C_3  and  O_12
    3  A    between atoms: O_12  and  C_27
    4  A    between atoms: C_13  and  C_19
    5  A    between atoms: C_18  and  C_28
    6  A    between atoms: C_27  and  C_29
                            x       y       z     vdW  Elec       q    Type
                         _______ _______ _______ _____ _____    ______ ____

>  <TORSDO>
F 6

$$$$
=
 OpenBabel10232411133D

 33 37  0  0  1  0  0  0  0  0999 V2000
  189.1920  176.7990  141.9870 C   0  0  2  0  0  3  0  0  0  0  0  0
  187.3270  178.4810  138.9580 C   0  0  0  0  0  3  0  0  0  0  0  0
  184.2510  178.8180  140.9610 N   0  0  0  0  0  0  0  0  0  0  0  0
  186.5750  178.3880  141.2050 C   0  0  0  0  0  0  0  0  0  0  0  0
  184.0890  178.7080  142.3090 C   0  0  0  0  0  3  0  0  0  0  0  0
  188.1720  176.6400  143.1120 C   0  0  0  0  0  2  0  0  0  0  0  0
  185.8190  178.7570  138.9940 C   0  0  0  0  0  3  0  0  0  0  0  0
  188.5110  176.9060  140.5970 C   0  0  1  0  0  3  0  0  0  0  0  0
  185.4860  178.6560  140.4250 C   0  0  0  0  0  0  0  0  0  0  0  0
  187.8260  178.2770  140.4090 C   0  0  1  0  0  3  0  0  0  0  0  0
  186.4090  178.2800  142.5860 C   0  0  0  0  0  0  0  0  0  0  0  0
  187.5590  177.9780  143.4830 C   0  0  0  0  0  2  0  0  0  0  0  0
  185.1620  178.4410  143.1100 N   0  0  0  0  0  0  0  0  0  0  0  0
  190.7430  177.5070  139.5610 C   0  0  0  0  0  2  0  0  0  0  0  0
  189.8660  175.5230  136.3690 C   0  0  2  0  0  0  0  0  0  0  0  0
  191.8070  175.2720  137.9580 O   0  0  0  0  0  0  0  0  0  0  0  0
  190.6270  174.2300  136.0810 C   0  0  0  0  0  2  0  0  0  0  0  0
  189.4920  176.6380  139.4380 C   0  0  2  0  0  3  0  0  0  0  0  0
  192.2470  175.9880  135.6960 O   0  0  0  0  0  1  0  0  0  0  0  0
  191.3630  175.4390  136.6310 C   0  0  1  0  0  0  0  0  0  0  0  0
  188.9460  175.5180  137.5970 C   0  0  1  0  0  3  0  0  0  0  0  0
  188.8810  176.7860  138.1850 O   0  0  0  0  0  0  0  0  0  0  0  0
  191.4460  177.5370  138.3510 O   0  0  0  0  0  0  0  0  0  0  0  0
  192.3760  176.4860  138.4000 C   0  0  0  0  0  2  0  0  0  0  0  0
  186.3970  176.1300  136.4890 S   0  0  0  0  0  1  0  0  0  0  0  0
  187.5680  175.0270  137.2690 C   0  0  0  0  0  0  0  0  0  0  0  0
  187.2450  173.8740  137.5100 O   0  0  0  0  0  0  0  0  0  0  0  0
  189.5450  176.3330  135.2670 O   0  0  0  0  0  0  0  0  0  0  0  0
  189.5670  177.5760  135.7110 O   0  0  0  0  0  1  0  0  0  0  0  0
  190.0720  175.7130  142.0360 O   0  0  0  0  0  0  0  0  0  0  0  0
  190.8060  175.8960  143.2120 C   0  0  0  0  0  2  0  0  0  0  0  0
  191.5560  177.9220  144.4470 C   0  0  0  0  0  1  0  0  0  0  0  0
  191.6130  177.1790  143.1280 C   0  0  0  0  0  2  0  0  0  0  0  0
  1 30  1  6  0  0  0
  1  6  1  0  0  0  0
  2  7  2  0  0  0  0
  3  5  1  0  0  0  0
  4 11  2  0  0  0  0
  5 13  2  0  0  0  0
  6 12  1  0  0  0  0
  7  9  1  0  0  0  0
  8 18  1  6  0  0  0
  8  1  1  0  0  0  0
  9  3  2  0  0  0  0
  9  4  1  0  0  0  0
 10  2  1  6  0  0  0
 10  8  1  0  0  0  0
 10  4  1  0  0  0  0
 11 13  1  0  0  0  0
 11 12  1  0  0  0  0
 15 28  1  6  0  0  0
 15 20  1  0  0  0  0
 15 21  1  0  0  0  0
 16 24  1  0  0  0  0
 17 15  1  0  0  0  0
 17 20  1  0  0  0  0
 18 14  1  6  0  0  0
 20 19  1  6  0  0  0
 20 16  1  0  0  0  0
 21 26  1  6  0  0  0
 21 22  1  0  0  0  0
 22 18  1  0  0  0  0
 23 24  1  0  0  0  0
 23 14  1  0  0  0  0
 25 26  1  0  0  0  0
 26 27  2  0  0  0  0
 28 29  1  0  0  0  0
 30 31  1  0  0  0  0
 33 31  1  0  0  0  0
 33 32  1  0  0  0  0
M  END
>  <MODEL>
2

>  <REMARK>
 VINA RESULT:      -5.6      1.444      1.791
  Name = 
  6 active torsions:
  status: ('A' for Active; 'I' for Inactive)
    1  A    between atoms: C_2  and  O_6
    2  A    between atoms: C_3  and  O_12
    3  A    between atoms: O_12  and  C_27
    4  A    between atoms: C_13  and  C_19
    5  A    between atoms: C_18  and  C_28
    6  A    between atoms: C_27  and  C_29
                            x       y       z     vdW  Elec       q    Type
                         _______ _______ _______ _____ _____    ______ ____

>  <TORSDO>
F 6

$$$$
=
 OpenBabel10232411133D

 33 37  0  0  1  0  0  0  0  0999 V2000
  190.8390  176.7590  137.6620 C   0  0  2  0  0  3  0  0  0  0  0  0
  187.8980  178.0780  139.9170 C   0  0  0  0  0  3  0  0  0  0  0  0
  189.8320  177.3530  142.9690 N   0  0  0  0  0  0  0  0  0  0  0  0
  190.1080  177.5890  140.6220 C   0  0  0  0  0  0  0  0  0  0  0  0
  191.1630  177.0900  143.0990 C   0  0  0  0  0  3  0  0  0  0  0  0
  191.9190  176.2220  138.5970 C   0  0  0  0  0  2  0  0  0  0  0  0
  187.9120  177.9070  141.4410 C   0  0  0  0  0  3  0  0  0  0  0  0
  189.4430  176.7800  138.3370 C   0  0  1  0  0  3  0  0  0  0  0  0
  189.3200  177.5970  141.7370 C   0  0  0  0  0  0  0  0  0  0  0  0
  189.3420  177.9080  139.3880 C   0  0  1  0  0  3  0  0  0  0  0  0
  191.4720  177.3250  140.7560 C   0  0  0  0  0  0  0  0  0  0  0  0
  192.3750  177.2930  139.5720 C   0  0  0  0  0  2  0  0  0  0  0  0
  191.9710  177.0770  141.9990 N   0  0  0  0  0  0  0  0  0  0  0  0
  187.8970  178.3610  137.1000 C   0  0  0  0  0  2  0  0  0  0  0  0
  185.7740  175.3970  135.8360 C   0  0  2  0  0  0  0  0  0  0  0  0
  186.9960  177.1870  134.5500 O   0  0  0  0  0  0  0  0  0  0  0  0
  185.8190  175.0480  134.3490 C   0  0  0  0  0  2  0  0  0  0  0  0
  188.2950  176.9010  137.3150 C   0  0  2  0  0  3  0  0  0  0  0  0
  184.5850  177.1300  134.4510 O   0  0  0  0  0  1  0  0  0  0  0  0
  185.7880  176.5010  134.7900 C   0  0  1  0  0  0  0  0  0  0  0  0
  187.0680  175.1770  136.6310 C   0  0  1  0  0  3  0  0  0  0  0  0
  187.1910  176.1110  137.6660 O   0  0  0  0  0  0  0  0  0  0  0  0
  186.6480  178.4480  136.4750 O   0  0  0  0  0  0  0  0  0  0  0  0
  186.8920  178.4860  135.0930 C   0  0  0  0  0  2  0  0  0  0  0  0
  188.6320  172.8090  136.8430 S   0  0  0  0  0  1  0  0  0  0  0  0
  187.1700  173.7840  137.1740 C   0  0  0  0  0  0  0  0  0  0  0  0
  186.2740  173.3160  137.8600 O   0  0  0  0  0  0  0  0  0  0  0  0
  184.5340  175.2690  136.4850 O   0  0  0  0  0  0  0  0  0  0  0  0
  184.5640  176.1150  137.4970 O   0  0  0  0  0  1  0  0  0  0  0  0
  190.8290  175.9710  136.5060 O   0  0  0  0  0  0  0  0  0  0  0  0
  192.1720  175.8560  136.1360 C   0  0  0  0  0  2  0  0  0  0  0  0
  193.6100  173.8330  135.9510 C   0  0  0  0  0  1  0  0  0  0  0  0
  192.3980  174.5520  135.3940 C   0  0  0  0  0  2  0  0  0  0  0  0
  1 30  1  6  0  0  0
  1  8  1  0  0  0  0
  1  6  1  0  0  0  0
  2  7  2  0  0  0  0
  3  5  1  0  0  0  0
  4 11  2  0  0  0  0
  4  9  1  0  0  0  0
  6 12  1  0  0  0  0
  7  9  1  0  0  0  0
  8 18  1  6  0  0  0
  8 10  1  0  0  0  0
  9  3  2  0  0  0  0
 10  2  1  1  0  0  0
 10  4  1  0  0  0  0
 11 13  1  0  0  0  0
 12 11  1  0  0  0  0
 13  5  2  0  0  0  0
 15 28  1  1  0  0  0
 15 21  1  0  0  0  0
 16 20  1  0  0  0  0
 16 24  1  0  0  0  0
 17 20  1  0  0  0  0
 17 15  1  0  0  0  0
 18 14  1  1  0  0  0
 18 22  1  0  0  0  0
 20 19  1  6  0  0  0
 20 15  1  0  0  0  0
 21 26  1  1  0  0  0
 21 22  1  0  0  0  0
 23 14  1  0  0  0  0
 24 23  1  0  0  0  0
 25 26  1  0  0  0  0
 26 27  2  0  0  0  0
 28 29  1  0  0  0  0
 31 30  1  0  0  0  0
 33 32  1  0  0  0  0
 33 31  1  0  0  0  0
M  END
>  <MODEL>
3

>  <REMARK>
 VINA RESULT:      -5.4      2.945      5.645
  Name = 
  6 active torsions:
  status: ('A' for Active; 'I' for Inactive)
    1  A    between atoms: C_2  and  O_6
    2  A    between atoms: C_3  and  O_12
    3  A    between atoms: O_12  and  C_27
    4  A    between atoms: C_13  and  C_19
    5  A    between atoms: C_18  and  C_28
    6  A    between atoms: C_27  and  C_29
                            x       y       z     vdW  Elec       q    Type
                         _______ _______ _______ _____ _____    ______ ____

>  <TORSDO>
F 6

$$$$
=
 OpenBabel10232411133D

 33 37  0  0  1  0  0  0  0  0999 V2000
  189.0540  176.7010  138.5710 C   0  0  2  0  0  3  0  0  0  0  0  0
  189.8140  175.1550  135.0350 C   0  0  0  0  0  3  0  0  0  0  0  0
  193.3670  176.0920  135.3210 N   0  0  0  0  0  0  0  0  0  0  0  0
  191.4100  175.8500  136.6450 C   0  0  0  0  0  0  0  0  0  0  0  0
  194.0670  176.4750  136.4260 C   0  0  0  0  0  3  0  0  0  0  0  0
  190.3460  177.3460  139.0690 C   0  0  0  0  0  2  0  0  0  0  0  0
  191.1710  175.3470  134.3460 C   0  0  0  0  0  3  0  0  0  0  0  0
  189.0310  176.5650  137.0260 C   0  0  1  0  0  3  0  0  0  0  0  0
  192.0520  175.7860  135.4410 C   0  0  0  0  0  0  0  0  0  0  0  0
  189.9820  175.4470  136.5450 C   0  0  1  0  0  3  0  0  0  0  0  0
  192.1280  176.2370  137.7770 C   0  0  0  0  0  0  0  0  0  0  0  0
  191.4760  176.3340  139.1120 C   0  0  0  0  0  2  0  0  0  0  0  0
  193.4480  176.5450  137.6410 N   0  0  0  0  0  0  0  0  0  0  0  0
  186.8440  177.6430  136.3400 C   0  0  0  0  0  2  0  0  0  0  0  0
  185.1480  174.1860  136.0810 C   0  0  2  0  0  0  0  0  0  0  0  0
  185.4260  175.9950  134.3480 O   0  0  0  0  0  0  0  0  0  0  0  0
  184.7670  173.6620  134.6980 C   0  0  0  0  0  2  0  0  0  0  0  0
  187.6100  176.3270  136.4770 C   0  0  2  0  0  3  0  0  0  0  0  0
  183.2020  175.4610  135.1210 O   0  0  0  0  0  1  0  0  0  0  0  0
  184.5590  175.1260  135.0410 C   0  0  1  0  0  0  0  0  0  0  0  0
  186.6490  174.3250  136.3710 C   0  0  1  0  0  3  0  0  0  0  0  0
  186.8980  175.3920  137.2420 O   0  0  0  0  0  0  0  0  0  0  0  0
  185.4720  177.4050  136.1990 O   0  0  0  0  0  0  0  0  0  0  0  0
  185.2200  177.3090  134.8210 C   0  0  0  0  0  2  0  0  0  0  0  0
  188.1790  171.9860  135.8400 S   0  0  0  0  0  1  0  0  0  0  0  0
  187.2400  173.0610  136.9170 C   0  0  0  0  0  0  0  0  0  0  0  0
  187.1060  172.7690  138.0950 O   0  0  0  0  0  0  0  0  0  0  0  0
  184.2640  173.9070  137.1360 O   0  0  0  0  0  0  0  0  0  0  0  0
  184.1110  175.0410  137.7920 O   0  0  0  0  0  1  0  0  0  0  0  0
  187.9780  177.4700  139.0260 O   0  0  0  0  0  0  0  0  0  0  0  0
  188.5340  178.3620  139.9470 C   0  0  0  0  0  2  0  0  0  0  0  0
  188.5080  178.0220  142.4120 C   0  0  0  0  0  1  0  0  0  0  0  0
  187.6840  178.4130  141.2030 C   0  0  0  0  0  2  0  0  0  0  0  0
  1 30  1  6  0  0  0
  1  6  1  0  0  0  0
  3  9  2  0  0  0  0
  3  5  1  0  0  0  0
  4 11  2  0  0  0  0
  5 13  2  0  0  0  0
  6 12  1  0  0  0  0
  7  2  2  0  0  0  0
  7  9  1  0  0  0  0
  8 18  1  1  0  0  0
  8  1  1  0  0  0  0
  9  4  1  0  0  0  0
 10  2  1  6  0  0  0
 10  4  1  0  0  0  0
 10  8  1  0  0  0  0
 11 12  1  0  0  0  0
 13 11  1  0  0  0  0
 15 21  1  0  0  0  0
 15 28  1  1  0  0  0
 16 24  1  0  0  0  0
 16 20  1  0  0  0  0
 17 20  1  0  0  0  0
 17 15  1  0  0  0  0
 18 14  1  1  0  0  0
 18 22  1  0  0  0  0
 20 19  1  1  0  0  0
 20 15  1  0  0  0  0
 21 26  1  1  0  0  0
 21 22  1  0  0  0  0
 23 14  1  0  0  0  0
 24 23  1  0  0  0  0
 25 26  1  0  0  0  0
 26 27  2  0  0  0  0
 28 29  1  0  0  0  0
 30 31  1  0  0  0  0
 31 33  1  0  0  0  0
 33 32  1  0  0  0  0
M  END
>  <MODEL>
4

>  <REMARK>
 VINA RESULT:      -5.4      3.650      6.144
  Name = 
  6 active torsions:
  status: ('A' for Active; 'I' for Inactive)
    1  A    between atoms: C_2  and  O_6
    2  A    between atoms: C_3  and  O_12
    3  A    between atoms: O_12  and  C_27
    4  A    between atoms: C_13  and  C_19
    5  A    between atoms: C_18  and  C_28
    6  A    between atoms: C_27  and  C_29
                            x       y       z     vdW  Elec       q    Type
                         _______ _______ _______ _____ _____    ______ ____

>  <TORSDO>
F 6

$$$$
=
 OpenBabel10232411133D

 33 37  0  0  1  0  0  0  0  0999 V2000
  191.0670  177.2950  139.8710 C   0  0  2  0  0  3  0  0  0  0  0  0
  187.4280  178.0920  141.1350 C   0  0  0  0  0  3  0  0  0  0  0  0
  188.3370  177.0990  144.5660 N   0  0  0  0  0  0  0  0  0  0  0  0
  189.3300  177.6670  142.4840 C   0  0  0  0  0  0  0  0  0  0  0  0
  189.5740  176.9140  145.1060 C   0  0  0  0  0  3  0  0  0  0  0  0
  191.8380  176.7140  141.0530 C   0  0  0  0  0  2  0  0  0  0  0  0
  186.9670  177.7180  142.5490 C   0  0  0  0  0  3  0  0  0  0  0  0
  189.5340  177.1280  140.0380 C   0  0  1  0  0  3  0  0  0  0  0  0
  188.2280  177.4700  143.2660 C   0  0  0  0  0  0  0  0  0  0  0  0
  188.9750  178.0950  141.1050 C   0  0  1  0  0  3  0  0  0  0  0  0
  190.5970  177.4830  143.0390 C   0  0  0  0  0  0  0  0  0  0  0  0
  191.8330  177.6720  142.2300 C   0  0  0  0  0  2  0  0  0  0  0  0
  190.6920  177.1050  144.3450 N   0  0  0  0  0  0  0  0  0  0  0  0
  187.9050  178.5630  138.7320 C   0  0  0  0  0  2  0  0  0  0  0  0
  187.5910  175.8420  136.0140 C   0  0  2  0  0  0  0  0  0  0  0  0
  188.3070  178.2520  135.8280 O   0  0  0  0  0  0  0  0  0  0  0  0
  188.1890  176.1160  134.6350 C   0  0  0  0  0  2  0  0  0  0  0  0
  188.7730  177.3060  138.7090 C   0  0  2  0  0  3  0  0  0  0  0  0
  186.2540  177.5670  134.7590 O   0  0  0  0  0  1  0  0  0  0  0  0
  187.4580  177.2190  135.3800 C   0  0  1  0  0  0  0  0  0  0  0  0
  188.5830  175.7060  137.1760 C   0  0  1  0  0  3  0  0  0  0  0  0
  188.0250  176.1670  138.3730 O   0  0  0  0  0  0  0  0  0  0  0  0
  186.9570  178.5300  137.7030 O   0  0  0  0  0  0  0  0  0  0  0  0
  187.5450  179.1600  136.5950 C   0  0  0  0  0  2  0  0  0  0  0  0
  187.9900  172.9330  136.9440 S   0  0  0  0  0  1  0  0  0  0  0  0
  189.0730  174.2990  137.3400 C   0  0  0  0  0  0  0  0  0  0  0  0
  190.2120  174.0770  137.7200 O   0  0  0  0  0  0  0  0  0  0  0  0
  186.3770  175.1360  136.0550 O   0  0  0  0  0  0  0  0  0  0  0  0
  185.6580  175.7040  137.0040 O   0  0  0  0  0  1  0  0  0  0  0  0
  191.5190  176.6710  138.7030 O   0  0  0  0  0  0  0  0  0  0  0  0
  192.9070  176.8320  138.7210 C   0  0  0  0  0  2  0  0  0  0  0  0
  193.6800  174.6890  137.7200 C   0  0  0  0  0  1  0  0  0  0  0  0
  193.5230  176.1800  137.4980 C   0  0  0  0  0  2  0  0  0  0  0  0
  1 30  1  6  0  0  0
  1  8  1  0  0  0  0
  1  6  1  0  0  0  0
  2  7  2  0  0  0  0
  3  5  1  0  0  0  0
  4 11  2  0  0  0  0
  4  9  1  0  0  0  0
  6 12  1  0  0  0  0
  7  9  1  0  0  0  0
  8 18  1  6  0  0  0
  8 10  1  0  0  0  0
  9  3  2  0  0  0  0
 10  2  1  1  0  0  0
 10  4  1  0  0  0  0
 11 13  1  0  0  0  0
 12 11  1  0  0  0  0
 13  5  2  0  0  0  0
 15 28  1  1  0  0  0
 15 21  1  0  0  0  0
 16 24  1  0  0  0  0
 17 20  1  0  0  0  0
 17 15  1  0  0  0  0
 18 14  1  1  0  0  0
 20 19  1  6  0  0  0
 20 16  1  0  0  0  0
 20 15  1  0  0  0  0
 21 26  1  1  0  0  0
 21 22  1  0  0  0  0
 22 18  1  0  0  0  0
 23 14  1  0  0  0  0
 24 23  1  0  0  0  0
 25 26  1  0  0  0  0
 26 27  2  0  0  0  0
 28 29  1  0  0  0  0
 30 31  1  0  0  0  0
 33 32  1  0  0  0  0
 33 31  1  0  0  0  0
M  END
>  <MODEL>
5

>  <REMARK>
 VINA RESULT:      -5.4      2.533      4.872
  Name = 
  6 active torsions:
  status: ('A' for Active; 'I' for Inactive)
    1  A    between atoms: C_2  and  O_6
    2  A    between atoms: C_3  and  O_12
    3  A    between atoms: O_12  and  C_27
    4  A    between atoms: C_13  and  C_19
    5  A    between atoms: C_18  and  C_28
    6  A    between atoms: C_27  and  C_29
                            x       y       z     vdW  Elec       q    Type
                         _______ _______ _______ _____ _____    ______ ____

>  <TORSDO>
F 6

$$$$
=
 OpenBabel10232411133D

 33 37  0  0  1  0  0  0  0  0999 V2000
  186.9840  178.3220  138.2120 C   0  0  2  0  0  3  0  0  0  0  0  0
  185.2700  178.6620  141.7370 C   0  0  0  0  0  3  0  0  0  0  0  0
  188.2730  177.3150  143.3950 N   0  0  0  0  0  0  0  0  0  0  0  0
  187.5610  178.2190  141.3180 C   0  0  0  0  0  0  0  0  0  0  0  0
  189.5320  177.1610  142.8960 C   0  0  0  0  0  3  0  0  0  0  0  0
  188.3400  177.6570  138.4330 C   0  0  0  0  0  2  0  0  0  0  0  0
  185.9080  178.0760  143.0030 C   0  0  0  0  0  3  0  0  0  0  0  0
  185.9920  178.0140  139.3650 C   0  0  1  0  0  3  0  0  0  0  0  0
  187.3050  177.8390  142.6040 C   0  0  0  0  0  0  0  0  0  0  0  0
  186.3620  178.7900  140.6490 C   0  0  1  0  0  3  0  0  0  0  0  0
  188.8510  178.0660  140.8090 C   0  0  0  0  0  0  0  0  0  0  0  0
  189.1840  178.4550  139.4100 C   0  0  0  0  0  2  0  0  0  0  0  0
  189.8130  177.5350  141.6140 N   0  0  0  0  0  0  0  0  0  0  0  0
  183.9600  179.4700  139.7750 C   0  0  0  0  0  2  0  0  0  0  0  0
  181.7600  177.1020  137.6650 C   0  0  2  0  0  0  0  0  0  0  0  0
  182.2230  179.5660  137.3940 O   0  0  0  0  0  0  0  0  0  0  0  0
  181.2420  177.5970  136.3160 C   0  0  0  0  0  2  0  0  0  0  0  0
  184.5280  178.2990  138.9740 C   0  0  2  0  0  3  0  0  0  0  0  0
  179.9830  178.8610  137.9530 O   0  0  0  0  0  1  0  0  0  0  0  0
  181.2690  178.5340  137.5100 C   0  0  1  0  0  0  0  0  0  0  0  0
  183.2770  176.8980  137.7830 C   0  0  1  0  0  3  0  0  0  0  0  0
  183.7210  177.1570  139.0850 O   0  0  0  0  0  0  0  0  0  0  0  0
  182.5630  179.4930  139.6950 O   0  0  0  0  0  0  0  0  0  0  0  0
  182.2360  180.3040  138.5970 C   0  0  0  0  0  2  0  0  0  0  0  0
  184.2400  175.2510  135.6720 S   0  0  0  0  0  1  0  0  0  0  0  0
  183.6990  175.5260  137.3550 C   0  0  0  0  0  0  0  0  0  0  0  0
  183.6980  174.5970  138.1480 O   0  0  0  0  0  0  0  0  0  0  0  0
  180.8940  176.3020  138.4280 O   0  0  0  0  0  0  0  0  0  0  0  0
  181.1940  176.5410  139.6900 O   0  0  0  0  0  1  0  0  0  0  0  0
  186.4780  177.8880  136.9820 O   0  0  0  0  0  0  0  0  0  0  0  0
  187.3530  178.4140  136.0270 C   0  0  0  0  0  2  0  0  0  0  0  0
  188.0290  176.3040  134.8930 C   0  0  0  0  0  1  0  0  0  0  0  0
  187.2700  177.6070  134.7450 C   0  0  0  0  0  2  0  0  0  0  0  0
  1 30  1  6  0  0  0
  1  6  1  0  0  0  0
  1  8  1  0  0  0  0
  2  7  2  0  0  0  0
  4  9  1  0  0  0  0
  5  3  1  0  0  0  0
  6 12  1  0  0  0  0
  8 18  1  6  0  0  0
  8 10  1  0  0  0  0
  9  7  1  0  0  0  0
  9  3  2  0  0  0  0
 10  4  1  0  0  0  0
 10  2  1  1  0  0  0
 11  4  2  0  0  0  0
 11 13  1  0  0  0  0
 12 11  1  0  0  0  0
 13  5  2  0  0  0  0
 15 21  1  0  0  0  0
 15 28  1  1  0  0  0
 16 20  1  0  0  0  0
 16 24  1  0  0  0  0
 17 20  1  0  0  0  0
 17 15  1  0  0  0  0
 18 22  1  0  0  0  0
 18 14  1  1  0  0  0
 20 15  1  0  0  0  0
 20 19  1  1  0  0  0
 21 26  1  1  0  0  0
 21 22  1  0  0  0  0
 23 14  1  0  0  0  0
 24 23  1  0  0  0  0
 25 26  1  0  0  0  0
 26 27  2  0  0  0  0
 28 29  1  0  0  0  0
 31 30  1  0  0  0  0
 33 32  1  0  0  0  0
 33 31  1  0  0  0  0
M  END
>  <MODEL>
6

>  <REMARK>
 VINA RESULT:      -5.4      4.572      7.932
  Name = 
  6 active torsions:
  status: ('A' for Active; 'I' for Inactive)
    1  A    between atoms: C_2  and  O_6
    2  A    between atoms: C_3  and  O_12
    3  A    between atoms: O_12  and  C_27
    4  A    between atoms: C_13  and  C_19
    5  A    between atoms: C_18  and  C_28
    6  A    between atoms: C_27  and  C_29
                            x       y       z     vdW  Elec       q    Type
                         _______ _______ _______ _____ _____    ______ ____

>  <TORSDO>
F 6

$$$$
=
 OpenBabel10232411133D

 33 37  0  0  1  0  0  0  0  0999 V2000
  188.5510  177.2820  141.6430 C   0  0  2  0  0  3  0  0  0  0  0  0
  185.8130  178.8670  139.3040 C   0  0  0  0  0  3  0  0  0  0  0  0
  183.3400  178.7740  142.0360 N   0  0  0  0  0  0  0  0  0  0  0  0
  185.6780  178.5980  141.6560 C   0  0  0  0  0  0  0  0  0  0  0  0
  183.5430  178.5910  143.3710 C   0  0  0  0  0  3  0  0  0  0  0  0
  187.8770  176.9630  142.9750 C   0  0  0  0  0  2  0  0  0  0  0  0
  184.3460  178.9710  139.7380 C   0  0  0  0  0  3  0  0  0  0  0  0
  187.5280  177.3690  140.4800 C   0  0  1  0  0  3  0  0  0  0  0  0
  184.4050  178.7740  141.1960 C   0  0  0  0  0  0  0  0  0  0  0  0
  186.6870  178.6610  140.5650 C   0  0  1  0  0  3  0  0  0  0  0  0
  185.8860  178.4160  143.0240 C   0  0  0  0  0  0  0  0  0  0  0  0
  187.2520  178.2080  143.5790 C   0  0  0  0  0  2  0  0  0  0  0  0
  184.8070  178.4130  143.8550 N   0  0  0  0  0  0  0  0  0  0  0  0
  189.3660  178.2380  138.9690 C   0  0  0  0  0  2  0  0  0  0  0  0
  187.8630  176.3550  135.9540 C   0  0  2  0  0  0  0  0  0  0  0  0
  190.1590  176.2070  136.9840 O   0  0  0  0  0  0  0  0  0  0  0  0
  188.6260  175.1590  135.3870 C   0  0  0  0  0  2  0  0  0  0  0  0
  188.1990  177.2600  139.0960 C   0  0  2  0  0  3  0  0  0  0  0  0
  189.9470  177.0840  134.7450 O   0  0  0  0  0  1  0  0  0  0  0  0
  189.3780  176.4020  135.8260 C   0  0  1  0  0  0  0  0  0  0  0  0
  187.2910  176.1940  137.3680 C   0  0  1  0  0  3  0  0  0  0  0  0
  187.2770  177.4160  138.0500 O   0  0  0  0  0  0  0  0  0  0  0  0
  189.7310  178.4020  137.6280 O   0  0  0  0  0  0  0  0  0  0  0  0
  190.7230  177.4450  137.3610 C   0  0  0  0  0  2  0  0  0  0  0  0
  185.7350  173.8110  137.3470 S   0  0  0  0  0  1  0  0  0  0  0  0
  185.9190  175.5900  137.3590 C   0  0  0  0  0  0  0  0  0  0  0  0
  184.9260  176.3000  137.3820 O   0  0  0  0  0  0  0  0  0  0  0  0
  187.2070  177.1890  135.0330 O   0  0  0  0  0  0  0  0  0  0  0  0
  187.1980  178.3920  135.5740 O   0  0  0  0  0  1  0  0  0  0  0  0
  189.5160  176.3000  141.3940 O   0  0  0  0  0  0  0  0  0  0  0  0
  190.2140  176.1670  142.5980 C   0  0  0  0  0  2  0  0  0  0  0  0
  191.5310  177.9650  143.7050 C   0  0  0  0  0  1  0  0  0  0  0  0
  191.4930  176.9820  142.5520 C   0  0  0  0  0  2  0  0  0  0  0  0
  1 30  1  6  0  0  0
  1  6  1  0  0  0  0
  2  7  2  0  0  0  0
  3  5  1  0  0  0  0
  4 11  2  0  0  0  0
  5 13  2  0  0  0  0
  6 12  1  0  0  0  0
  7  9  1  0  0  0  0
  8 18  1  6  0  0  0
  8 10  1  0  0  0  0
  8  1  1  0  0  0  0
  9  4  1  0  0  0  0
  9  3  2  0  0  0  0
 10  2  1  6  0  0  0
 10  4  1  0  0  0  0
 11 12  1  0  0  0  0
 11 13  1  0  0  0  0
 15 28  1  6  0  0  0
 15 21  1  0  0  0  0
 16 24  1  0  0  0  0
 17 20  1  0  0  0  0
 17 15  1  0  0  0  0
 18 14  1  1  0  0  0
 20 19  1  6  0  0  0
 20 15  1  0  0  0  0
 20 16  1  0  0  0  0
 21 26  1  6  0  0  0
 21 22  1  0  0  0  0
 22 18  1  0  0  0  0
 23 14  1  0  0  0  0
 24 23  1  0  0  0  0
 25 26  1  0  0  0  0
 26 27  2  0  0  0  0
 28 29  1  0  0  0  0
 30 31  1  0  0  0  0
 33 31  1  0  0  0  0
 33 32  1  0  0  0  0
M  END
>  <MODEL>
7

>  <REMARK>
 VINA RESULT:      -5.3      2.333      3.237
  Name = 
  6 active torsions:
  status: ('A' for Active; 'I' for Inactive)
    1  A    between atoms: C_2  and  O_6
    2  A    between atoms: C_3  and  O_12
    3  A    between atoms: O_12  and  C_27
    4  A    between atoms: C_13  and  C_19
    5  A    between atoms: C_18  and  C_28
    6  A    between atoms: C_27  and  C_29
                            x       y       z     vdW  Elec       q    Type
                         _______ _______ _______ _____ _____    ______ ____

>  <TORSDO>
F 6

$$$$
=
 OpenBabel10232411133D

 33 37  0  0  1  0  0  0  0  0999 V2000
  184.7120  178.8000  141.3730 C   0  0  2  0  0  3  0  0  0  0  0  0
  187.8510  177.0470  142.9710 C   0  0  0  0  0  3  0  0  0  0  0  0
  186.8430  178.1700  146.3330 N   0  0  0  0  0  0  0  0  0  0  0  0
  185.9820  177.9280  144.1330 C   0  0  0  0  0  0  0  0  0  0  0  0
  185.6420  178.6620  146.7490 C   0  0  0  0  0  3  0  0  0  0  0  0
  183.9880  179.5380  142.4960 C   0  0  0  0  0  2  0  0  0  0  0  0
  188.2280  177.2550  144.4430 C   0  0  0  0  0  3  0  0  0  0  0  0
  186.2060  178.5540  141.7090 C   0  0  1  0  0  3  0  0  0  0  0  0
  187.0000  177.8110  145.0350 C   0  0  0  0  0  0  0  0  0  0  0  0
  186.3700  177.4520  142.7790 C   0  0  1  0  0  3  0  0  0  0  0  0
  184.7510  178.4280  144.5600 C   0  0  0  0  0  0  0  0  0  0  0  0
  183.6100  178.5870  143.6170 C   0  0  0  0  0  2  0  0  0  0  0  0
  184.6080  178.7880  145.8660 N   0  0  0  0  0  0  0  0  0  0  0  0
  188.4280  178.8530  140.5290 C   0  0  0  0  0  2  0  0  0  0  0  0
  187.0030  177.2710  137.3100 C   0  0  2  0  0  0  0  0  0  0  0  0
  188.9820  176.5930  138.7170 O   0  0  0  0  0  0  0  0  0  0  0  0
  187.5120  175.8940  136.8870 C   0  0  0  0  0  2  0  0  0  0  0  0
  187.0430  178.2110  140.4600 C   0  0  2  0  0  3  0  0  0  0  0  0
  189.3740  177.3870  136.4720 O   0  0  0  0  0  1  0  0  0  0  0  0
  188.4780  176.9250  137.4430 C   0  0  1  0  0  0  0  0  0  0  0  0
  186.1850  177.3290  138.6070 C   0  0  1  0  0  3  0  0  0  0  0  0
  186.3770  178.5460  139.2710 O   0  0  0  0  0  0  0  0  0  0  0  0
  189.0380  178.8530  139.2700 O   0  0  0  0  0  0  0  0  0  0  0  0
  189.7780  177.6630  139.1800 C   0  0  0  0  0  2  0  0  0  0  0  0
  183.9890  177.6060  136.8190 S   0  0  0  0  0  1  0  0  0  0  0  0
  184.7240  177.0950  138.3670 C   0  0  0  0  0  0  0  0  0  0  0  0
  184.0360  176.5380  139.2080 O   0  0  0  0  0  0  0  0  0  0  0  0
  186.7450  178.1990  136.2880 O   0  0  0  0  0  0  0  0  0  0  0  0
  187.1930  179.3590  136.7280 O   0  0  0  0  0  1  0  0  0  0  0  0
  184.5750  179.5460  140.1980 O   0  0  0  0  0  0  0  0  0  0  0  0
  183.1960  179.6290  139.9820 C   0  0  0  0  0  2  0  0  0  0  0  0
  181.4570  180.4670  138.4120 C   0  0  0  0  0  1  0  0  0  0  0  0
  182.9040  180.5910  138.8460 C   0  0  0  0  0  2  0  0  0  0  0  0
  1 30  1  6  0  0  0
  1  8  1  0  0  0  0
  1  6  1  0  0  0  0
  2  7  2  0  0  0  0
  3  5  1  0  0  0  0
  4 11  2  0  0  0  0
  4  9  1  0  0  0  0
  6 12  1  0  0  0  0
  7  9  1  0  0  0  0
  8 18  1  6  0  0  0
  8 10  1  0  0  0  0
  9  3  2  0  0  0  0
 10  2  1  1  0  0  0
 10  4  1  0  0  0  0
 11 13  1  0  0  0  0
 12 11  1  0  0  0  0
 13  5  2  0  0  0  0
 15 28  1  6  0  0  0
 15 20  1  0  0  0  0
 15 21  1  0  0  0  0
 16 24  1  0  0  0  0
 17 15  1  0  0  0  0
 17 20  1  0  0  0  0
 18 14  1  1  0  0  0
 20 19  1  6  0  0  0
 20 16  1  0  0  0  0
 21 26  1  6  0  0  0
 21 22  1  0  0  0  0
 22 18  1  0  0  0  0
 23 14  1  0  0  0  0
 24 23  1  0  0  0  0
 25 26  1  0  0  0  0
 26 27  2  0  0  0  0
 28 29  1  0  0  0  0
 31 30  1  0  0  0  0
 32 33  1  0  0  0  0
 33 31  1  0  0  0  0
M  END
>  <MODEL>
8

>  <REMARK>
 VINA RESULT:      -5.2      3.484      6.114
  Name = 
  6 active torsions:
  status: ('A' for Active; 'I' for Inactive)
    1  A    between atoms: C_2  and  O_6
    2  A    between atoms: C_3  and  O_12
    3  A    between atoms: O_12  and  C_27
    4  A    between atoms: C_13  and  C_19
    5  A    between atoms: C_18  and  C_28
    6  A    between atoms: C_27  and  C_29
                            x       y       z     vdW  Elec       q    Type
                         _______ _______ _______ _____ _____    ______ ____

>  <TORSDO>
F 6

$$$$
=
 OpenBabel10232411133D

 33 37  0  0  1  0  0  0  0  0999 V2000
  186.8200  178.0320  142.5120 C   0  0  2  0  0  3  0  0  0  0  0  0
  184.5130  179.3300  139.6020 C   0  0  0  0  0  3  0  0  0  0  0  0
  181.5280  178.9950  141.7370 N   0  0  0  0  0  0  0  0  0  0  0  0
  183.8980  179.0530  141.8750 C   0  0  0  0  0  0  0  0  0  0  0  0
  181.4530  178.8360  143.0880 C   0  0  0  0  0  3  0  0  0  0  0  0
  185.9070  177.6500  143.6750 C   0  0  0  0  0  2  0  0  0  0  0  0
  182.9830  179.2870  139.7060 C   0  0  0  0  0  3  0  0  0  0  0  0
  186.0700  178.0140  141.1550 C   0  0  1  0  0  3  0  0  0  0  0  0
  182.7440  179.1000  141.1470 C   0  0  0  0  0  0  0  0  0  0  0  0
  185.1080  179.2150  141.0250 C   0  0  1  0  0  3  0  0  0  0  0  0
  183.8210  178.8950  143.2590 C   0  0  0  0  0  0  0  0  0  0  0  0
  185.0470  178.8270  144.1010 C   0  0  0  0  0  2  0  0  0  0  0  0
  182.5930  178.7870  143.8380 N   0  0  0  0  0  0  0  0  0  0  0  0
  188.2950  178.7870  140.2230 C   0  0  0  0  0  2  0  0  0  0  0  0
  187.3510  177.4780  136.7160 C   0  0  2  0  0  0  0  0  0  0  0  0
  189.3100  176.9010  138.1950 O   0  0  0  0  0  0  0  0  0  0  0  0
  188.0920  176.2600  136.1680 C   0  0  0  0  0  2  0  0  0  0  0  0
  187.0320  177.9700  139.9510 C   0  0  2  0  0  3  0  0  0  0  0  0
  189.7280  178.0460  136.1110 O   0  0  0  0  0  1  0  0  0  0  0  0
  188.8500  177.3310  136.9330 C   0  0  1  0  0  0  0  0  0  0  0  0
  186.4470  177.2390  137.9330 C   0  0  1  0  0  3  0  0  0  0  0  0
  186.4050  178.3670  138.7600 O   0  0  0  0  0  0  0  0  0  0  0  0
  188.9810  179.0480  139.0310 O   0  0  0  0  0  0  0  0  0  0  0  0
  189.8990  178.0000  138.8580 C   0  0  0  0  0  2  0  0  0  0  0  0
  184.5470  175.1320  137.7250 S   0  0  0  0  0  1  0  0  0  0  0  0
  185.0600  176.8350  137.5370 C   0  0  0  0  0  0  0  0  0  0  0  0
  184.2680  177.6600  137.1090 O   0  0  0  0  0  0  0  0  0  0  0  0
  187.0240  178.4930  135.8010 O   0  0  0  0  0  0  0  0  0  0  0  0
  187.1210  179.6280  136.4660 O   0  0  0  0  0  1  0  0  0  0  0  0
  187.9060  177.1520  142.5010 O   0  0  0  0  0  0  0  0  0  0  0  0
  188.0850  176.7820  143.8370 C   0  0  0  0  0  2  0  0  0  0  0  0
  189.3480  177.3070  145.9160 C   0  0  0  0  0  1  0  0  0  0  0  0
  189.3100  177.4710  144.4100 C   0  0  0  0  0  2  0  0  0  0  0  0
  1 30  1  6  0  0  0
  1  6  1  0  0  0  0
  2  7  2  0  0  0  0
  3  5  1  0  0  0  0
  4 11  2  0  0  0  0
  5 13  2  0  0  0  0
  6 12  1  0  0  0  0
  7  9  1  0  0  0  0
  8 18  1  6  0  0  0
  8  1  1  0  0  0  0
  9  3  2  0  0  0  0
  9  4  1  0  0  0  0
 10  2  1  6  0  0  0
 10  8  1  0  0  0  0
 10  4  1  0  0  0  0
 11 13  1  0  0  0  0
 11 12  1  0  0  0  0
 15 28  1  6  0  0  0
 15 20  1  0  0  0  0
 15 21  1  0  0  0  0
 16 24  1  0  0  0  0
 17 15  1  0  0  0  0
 17 20  1  0  0  0  0
 18 14  1  1  0  0  0
 20 19  1  6  0  0  0
 20 16  1  0  0  0  0
 21 26  1  6  0  0  0
 21 22  1  0  0  0  0
 22 18  1  0  0  0  0
 23 14  1  0  0  0  0
 24 23  1  0  0  0  0
 26 25  1  0  0  0  0
 27 26  2  0  0  0  0
 28 29  1  0  0  0  0
 30 31  1  0  0  0  0
 31 33  1  0  0  0  0
 33 32  1  0  0  0  0
M  END
>  <MODEL>
9

>  <REMARK>
 VINA RESULT:      -5.2      3.080      4.456
  Name = 
  6 active torsions:
  status: ('A' for Active; 'I' for Inactive)
    1  A    between atoms: C_2  and  O_6
    2  A    between atoms: C_3  and  O_12
    3  A    between atoms: O_12  and  C_27
    4  A    between atoms: C_13  and  C_19
    5  A    between atoms: C_18  and  C_28
    6  A    between atoms: C_27  and  C_29
                            x       y       z     vdW  Elec       q    Type
                         _______ _______ _______ _____ _____    ______ ____

>  <TORSDO>
F 6

$$$$
