=
 OpenBabel10232410273D

 43 49  0  0  1  0  0  0  0  0999 V2000
  186.0920  177.6750  142.1450 O   0  0  0  0  0  0  0  0  0  0  0  0
  185.5080  178.9530  142.1780 C   0  0  0  0  0  2  0  0  0  0  0  0
  192.9030  176.7570  138.1230 C   0  0  0  0  0  1  0  0  0  0  0  0
  184.2000  179.9250  139.2290 N   0  0  0  0  0  0  0  0  0  0  0  0
  189.7310  177.9120  138.4210 O   0  0  0  0  0  0  0  0  0  0  0  0
  187.2640  176.4250  137.9780 O   0  0  0  0  0  0  0  0  0  0  0  0
  191.7590  174.9040  136.9410 C   0  0  0  0  0  2  0  0  0  0  0  0
  190.2620  173.8550  136.8330 S   0  0  0  0  0  0  0  0  0  0  0  0
  189.0290  176.6160  140.2870 C   0  0  0  0  0  2  0  0  0  0  0  0
  189.5810  176.5720  138.8760 C   0  0  1  0  0  0  0  0  0  0  0  0
  184.4120  179.4960  137.9970 N   0  0  0  0  0  0  0  0  0  0  0  0
  189.2330  178.7630  139.4260 C   0  0  0  0  0  2  0  0  0  0  0  0
  184.1430  178.9130  141.5110 C   0  0  0  0  0  2  0  0  0  0  0  0
  189.0230  175.1840  136.6310 C   0  0  1  0  0  3  0  0  0  0  0  0
  188.5480  175.8000  138.0010 C   0  0  2  0  0  3  0  0  0  0  0  0
  186.1770  177.8020  136.2530 N   0  0  1  0  0  0  0  0  0  0  0  0
  184.6170  178.1670  138.0840 C   0  0  0  0  0  0  0  0  0  0  0  0
  184.2820  178.8470  140.0280 C   0  0  0  0  0  0  0  0  0  0  0  0
  188.3670  178.5300  141.7510 C   0  0  0  0  0  2  0  0  0  0  0  0
  184.9730  177.2960  136.9160 C   0  0  1  0  0  3  0  0  0  0  0  0
  187.4060  177.7570  142.6600 C   0  0  1  0  0  3  0  0  0  0  0  0
  187.3460  177.3770  136.9570 C   0  0  2  0  0  3  0  0  0  0  0  0
  188.0860  176.9730  134.9510 C   0  0  0  0  0  2  0  0  0  0  0  0
  191.5560  176.1670  137.7630 C   0  0  1  0  0  3  0  0  0  0  0  0
  184.5540  177.7140  139.3510 N   0  0  0  0  0  2  0  0  0  0  0  0
  189.3190  176.1510  135.4410 C   0  0  0  0  0  2  0  0  0  0  0  0
  190.8260  175.8980  138.9330 O   0  0  0  0  0  0  0  0  0  0  0  0
  188.3690  177.9520  140.3460 C   0  0  2  0  0  3  0  0  0  0  0  0
  186.9410  176.6690  135.7910 N   0  0  2  0  0  0  0  0  0  0  0  0
  183.8360  177.1960  135.9430 C   0  0  0  0  0  3  0  0  0  0  0  0
  182.6520  176.8940  136.3340 N   0  0  0  0  0  2  0  0  0  0  0  0
  187.4260  178.2660  143.9660 O   0  0  0  0  0  0  0  0  0  0  0  0
  187.9290  177.2290  144.7530 C   0  0  1  0  0  3  0  0  0  0  0  0
  191.2770  177.9940  142.6190 O   0  0  0  0  0  0  0  0  0  0  0  0
  189.2270  177.5420  146.9630 C   0  0  1  0  0  3  0  0  0  0  0  0
  189.3310  176.8490  144.2730 C   0  0  0  0  0  2  0  0  0  0  0  0
  190.3350  178.2240  146.1550 C   0  0  0  0  0  2  0  0  0  0  0  0
  190.3140  177.8240  144.7440 N   0  0  0  0  0  0  0  0  0  0  0  0
  191.2850  178.3510  143.8270 C   0  0  0  0  0  0  0  0  0  0  0  0
  187.8820  177.6450  146.2340 C   0  0  0  0  0  2  0  0  0  0  0  0
  192.3170  179.3300  144.2780 C   0  0  0  0  0  1  0  0  0  0  0  0
  190.9070  176.2160  147.5260 C   0  0  0  0  0  1  0  0  0  0  0  0
  189.5520  176.2030  147.1950 O   0  0  0  0  0  0  0  0  0  0  0  0
  1  2  1  0  0  0  0
  1 21  1  0  0  0  0
  4 18  2  0  0  0  0
  5 10  1  0  0  0  0
  5 12  1  0  0  0  0
  7 24  1  0  0  0  0
  8  7  1  0  0  0  0
  9 28  1  0  0  0  0
 10 27  1  0  0  0  0
 10  9  1  1  0  0  0
 11 17  2  0  0  0  0
 11  4  1  0  0  0  0
 12 28  1  0  0  0  0
 13  2  1  0  0  0  0
 14 26  1  6  0  0  0
 14  8  1  0  0  0  0
 14 15  1  0  0  0  0
 15  6  1  6  0  0  0
 15 10  1  0  0  0  0
 16 20  1  0  0  0  0
 16 22  1  0  0  0  0
 17 25  1  0  0  0  0
 18 13  1  0  0  0  0
 19 21  1  0  0  0  0
 20 17  1  0  0  0  0
 21 32  1  0  0  0  0
 22  6  1  0  0  0  0
 23 26  1  0  0  0  0
 23 29  1  0  0  0  0
 24  3  1  0  0  0  0
 24 27  1  0  0  0  0
 25 18  1  0  0  0  0
 28 19  1  0  0  0  0
 29 16  1  0  0  0  0
 29 22  1  0  0  0  0
 30 31  2  0  0  0  0
 30 20  1  0  0  0  0
 32 33  1  0  0  0  0
 33 40  1  0  0  0  0
 34 39  2  0  0  0  0
 35 43  1  0  0  0  0
 36 38  1  0  0  0  0
 36 33  1  0  0  0  0
 37 35  1  0  0  0  0
 38 37  1  0  0  0  0
 39 41  1  0  0  0  0
 39 38  1  0  0  0  0
 40 35  1  0  0  0  0
 43 42  1  0  0  0  0
M  END
>  <MODEL>
1

>  <REMARK>
 VINA RESULT:      -7.9      0.000      0.000
  Name = 
  4 active torsions:
  status: ('A' for Active; 'I' for Inactive)
    1  A    between atoms: C_1  and  O_6
    2  A    between atoms: O_6  and  C_31
    3  A    between atoms: C_8  and  C_30
    4  A    between atoms: C_14  and  O_40
                            x       y       z     vdW  Elec       q    Type
                         _______ _______ _______ _____ _____    ______ ____

>  <TORSDO>
F 4

$$$$
=
 OpenBabel10232410273D

 43 49  0  0  1  0  0  0  0  0999 V2000
  186.5140  177.9040  141.5070 O   0  0  0  0  0  0  0  0  0  0  0  0
  186.0030  179.2020  141.6780 C   0  0  0  0  0  2  0  0  0  0  0  0
  190.2810  176.2140  134.6980 C   0  0  0  0  0  1  0  0  0  0  0  0
  183.3370  179.8800  139.7320 N   0  0  0  0  0  0  0  0  0  0  0  0
  187.6960  177.5380  136.4440 O   0  0  0  0  0  0  0  0  0  0  0  0
  185.3890  176.1220  137.5250 O   0  0  0  0  0  0  0  0  0  0  0  0
  188.7320  174.2880  134.5150 C   0  0  0  0  0  2  0  0  0  0  0  0
  187.4180  173.3030  135.3260 S   0  0  0  0  0  0  0  0  0  0  0  0
  188.0890  176.5020  138.5480 C   0  0  0  0  0  2  0  0  0  0  0  0
  187.8320  176.2690  137.0730 C   0  0  1  0  0  0  0  0  0  0  0  0
  182.8910  179.3000  138.6320 N   0  0  0  0  0  0  0  0  0  0  0  0
  187.7700  178.5220  137.4480 C   0  0  0  0  0  2  0  0  0  0  0  0
  184.4910  179.1460  141.8220 C   0  0  0  0  0  2  0  0  0  0  0  0
  186.2240  174.6540  135.6290 C   0  0  1  0  0  3  0  0  0  0  0  0
  186.5130  175.4470  136.9590 C   0  0  2  0  0  3  0  0  0  0  0  0
  183.5360  177.3350  136.4530 N   0  0  1  0  0  0  0  0  0  0  0  0
  183.1400  177.9830  138.7640 C   0  0  0  0  0  0  0  0  0  0  0  0
  183.8440  178.8990  140.5020 C   0  0  0  0  0  0  0  0  0  0  0  0
  188.2370  178.6020  139.8950 C   0  0  0  0  0  2  0  0  0  0  0  0
  182.8600  176.9650  137.6980 C   0  0  1  0  0  3  0  0  0  0  0  0
  187.9030  177.9850  141.2560 C   0  0  1  0  0  3  0  0  0  0  0  0
  184.9100  176.9430  136.4990 C   0  0  2  0  0  3  0  0  0  0  0  0
  184.5150  176.2740  134.4670 C   0  0  0  0  0  2  0  0  0  0  0  0
  188.9550  175.6460  135.1600 C   0  0  1  0  0  3  0  0  0  0  0  0
  183.7510  177.6840  139.9270 N   0  0  0  0  0  2  0  0  0  0  0  0
  185.8410  175.4600  134.3480 C   0  0  0  0  0  2  0  0  0  0  0  0
  188.9420  175.5500  136.5630 O   0  0  0  0  0  0  0  0  0  0  0  0
  187.5250  177.8650  138.7730 C   0  0  2  0  0  3  0  0  0  0  0  0
  183.9760  176.1230  135.8070 N   0  0  2  0  0  0  0  0  0  0  0  0
  181.3860  176.8040  137.4720 C   0  0  0  0  0  3  0  0  0  0  0  0
  180.5920  176.5260  138.4400 N   0  0  0  0  0  2  0  0  0  0  0  0
  188.5840  178.6430  142.2900 O   0  0  0  0  0  0  0  0  0  0  0  0
  189.0730  177.6240  143.1090 C   0  0  1  0  0  3  0  0  0  0  0  0
  190.9550  176.5570  139.6920 O   0  0  0  0  0  0  0  0  0  0  0  0
  191.3260  177.6890  144.3680 C   0  0  1  0  0  3  0  0  0  0  0  0
  189.8570  176.6150  142.2660 C   0  0  0  0  0  2  0  0  0  0  0  0
  192.0280  177.7020  143.0070 C   0  0  0  0  0  2  0  0  0  0  0  0
  191.1840  177.1400  141.9470 N   0  0  0  0  0  0  0  0  0  0  0  0
  191.6730  177.0570  140.5990 C   0  0  0  0  0  0  0  0  0  0  0  0
  189.9010  178.2400  144.2500 C   0  0  0  0  0  2  0  0  0  0  0  0
  193.0320  177.5600  140.2420 C   0  0  0  0  0  1  0  0  0  0  0  0
  191.7120  176.5280  146.2130 C   0  0  0  0  0  1  0  0  0  0  0  0
  191.3020  176.3910  144.8870 O   0  0  0  0  0  0  0  0  0  0  0  0
  1  2  1  0  0  0  0
  2 13  1  0  0  0  0
  3 24  1  0  0  0  0
  4 18  2  0  0  0  0
  5 10  1  0  0  0  0
  5 12  1  0  0  0  0
  7 24  1  0  0  0  0
  7  8  1  0  0  0  0
  8 14  1  0  0  0  0
  9 28  1  0  0  0  0
 10  9  1  1  0  0  0
 11 17  2  0  0  0  0
 11  4  1  0  0  0  0
 12 28  1  0  0  0  0
 14 26  1  6  0  0  0
 14 15  1  0  0  0  0
 15 10  1  0  0  0  0
 15  6  1  6  0  0  0
 16 22  1  0  0  0  0
 16 20  1  0  0  0  0
 17 25  1  0  0  0  0
 18 13  1  0  0  0  0
 19 21  1  0  0  0  0
 20 17  1  0  0  0  0
 21  1  1  0  0  0  0
 21 32  1  0  0  0  0
 22  6  1  0  0  0  0
 23 29  1  0  0  0  0
 24 27  1  0  0  0  0
 25 18  1  0  0  0  0
 26 23  1  0  0  0  0
 27 10  1  0  0  0  0
 28 19  1  0  0  0  0
 29 16  1  0  0  0  0
 29 22  1  0  0  0  0
 30 20  1  0  0  0  0
 30 31  2  0  0  0  0
 32 33  1  0  0  0  0
 33 40  1  0  0  0  0
 34 39  2  0  0  0  0
 35 43  1  0  0  0  0
 36 33  1  0  0  0  0
 37 35  1  0  0  0  0
 38 36  1  0  0  0  0
 38 37  1  0  0  0  0
 39 38  1  0  0  0  0
 40 35  1  0  0  0  0
 41 39  1  0  0  0  0
 43 42  1  0  0  0  0
M  END
>  <MODEL>
2

>  <REMARK>
 VINA RESULT:      -7.8      1.888      2.684
  Name = 
  4 active torsions:
  status: ('A' for Active; 'I' for Inactive)
    1  A    between atoms: C_1  and  O_6
    2  A    between atoms: O_6  and  C_31
    3  A    between atoms: C_8  and  C_30
    4  A    between atoms: C_14  and  O_40
                            x       y       z     vdW  Elec       q    Type
                         _______ _______ _______ _____ _____    ______ ____

>  <TORSDO>
F 4

$$$$
=
 OpenBabel10232410273D

 43 49  0  0  1  0  0  0  0  0999 V2000
  186.4080  177.7330  142.1100 O   0  0  0  0  0  0  0  0  0  0  0  0
  185.8540  179.0250  142.1350 C   0  0  0  0  0  2  0  0  0  0  0  0
  193.0110  176.5560  137.8170 C   0  0  0  0  0  1  0  0  0  0  0  0
  184.4380  179.9500  139.2210 N   0  0  0  0  0  0  0  0  0  0  0  0
  189.8820  177.7910  138.2240 O   0  0  0  0  0  0  0  0  0  0  0  0
  187.3650  176.3500  137.9300 O   0  0  0  0  0  0  0  0  0  0  0  0
  191.7750  174.7000  136.7370 C   0  0  0  0  0  2  0  0  0  0  0  0
  190.2520  173.6830  136.7230 S   0  0  0  0  0  0  0  0  0  0  0  0
  189.2350  176.5590  140.1530 C   0  0  0  0  0  2  0  0  0  0  0  0
  189.7220  176.4670  138.7210 C   0  0  1  0  0  0  0  0  0  0  0  0
  184.5850  179.4850  137.9930 N   0  0  0  0  0  0  0  0  0  0  0  0
  189.4470  178.6790  139.2270 C   0  0  0  0  0  2  0  0  0  0  0  0
  184.4600  178.9990  141.5310 C   0  0  0  0  0  2  0  0  0  0  0  0
  189.0340  175.0350  136.5410 C   0  0  1  0  0  3  0  0  0  0  0  0
  188.6350  175.6960  137.9130 C   0  0  2  0  0  3  0  0  0  0  0  0
  186.2320  177.7060  136.2190 N   0  0  1  0  0  0  0  0  0  0  0  0
  184.7640  178.1550  138.1060 C   0  0  0  0  0  0  0  0  0  0  0  0
  184.5310  178.8910  140.0450 C   0  0  0  0  0  0  0  0  0  0  0  0
  188.6810  178.5250  141.5940 C   0  0  0  0  0  2  0  0  0  0  0  0
  185.0490  177.2460  136.9480 C   0  0  1  0  0  3  0  0  0  0  0  0
  187.7450  177.7970  142.5640 C   0  0  1  0  0  3  0  0  0  0  0  0
  187.4220  177.2730  136.8820 C   0  0  2  0  0  3  0  0  0  0  0  0
  188.0630  176.8010  134.8570 C   0  0  0  0  0  2  0  0  0  0  0  0
  191.6370  175.9870  137.5330 C   0  0  1  0  0  3  0  0  0  0  0  0
  184.7480  177.7360  139.3860 N   0  0  0  0  0  2  0  0  0  0  0  0
  189.2980  175.9640  135.3130 C   0  0  0  0  0  2  0  0  0  0  0  0
  190.9540  175.7650  138.7410 O   0  0  0  0  0  0  0  0  0  0  0  0
  188.6080  177.9120  140.2060 C   0  0  2  0  0  3  0  0  0  0  0  0
  186.9500  176.5450  135.7540 N   0  0  2  0  0  0  0  0  0  0  0  0
  183.8670  177.1470  136.0290 C   0  0  0  0  0  3  0  0  0  0  0  0
  182.7010  176.8540  136.4750 N   0  0  0  0  0  2  0  0  0  0  0  0
  187.8350  178.3400  143.8540 O   0  0  0  0  0  0  0  0  0  0  0  0
  186.6560  177.9530  144.4940 C   0  0  1  0  0  3  0  0  0  0  0  0
  189.2810  176.3890  147.1430 O   0  0  0  0  0  0  0  0  0  0  0  0
  185.4920  179.2770  146.3800 C   0  0  1  0  0  3  0  0  0  0  0  0
  186.9870  177.0410  145.6780 C   0  0  0  0  0  2  0  0  0  0  0  0
  186.7210  179.0120  147.2540 C   0  0  0  0  0  2  0  0  0  0  0  0
  187.4680  177.8310  146.8110 N   0  0  0  0  0  0  0  0  0  0  0  0
  188.6500  177.4140  147.5140 C   0  0  0  0  0  0  0  0  0  0  0  0
  185.8580  179.2060  144.8930 C   0  0  0  0  0  2  0  0  0  0  0  0
  189.1550  178.1820  148.6890 C   0  0  0  0  0  1  0  0  0  0  0  0
  183.5180  178.5560  145.6850 C   0  0  0  0  0  1  0  0  0  0  0  0
  184.4820  178.3570  146.6750 O   0  0  0  0  0  0  0  0  0  0  0  0
  1  2  1  0  0  0  0
  1 21  1  0  0  0  0
  4 18  2  0  0  0  0
  5 10  1  0  0  0  0
  5 12  1  0  0  0  0
  7 24  1  0  0  0  0
  8  7  1  0  0  0  0
  9 28  1  0  0  0  0
 10 27  1  0  0  0  0
 10  9  1  1  0  0  0
 11 17  2  0  0  0  0
 11  4  1  0  0  0  0
 12 28  1  0  0  0  0
 13  2  1  0  0  0  0
 14 26  1  6  0  0  0
 14  8  1  0  0  0  0
 14 15  1  0  0  0  0
 15  6  1  6  0  0  0
 15 10  1  0  0  0  0
 16 22  1  0  0  0  0
 16 20  1  0  0  0  0
 17 25  1  0  0  0  0
 18 13  1  0  0  0  0
 19 21  1  0  0  0  0
 20 17  1  0  0  0  0
 21 32  1  0  0  0  0
 22  6  1  0  0  0  0
 23 26  1  0  0  0  0
 23 29  1  0  0  0  0
 24  3  1  0  0  0  0
 24 27  1  0  0  0  0
 25 18  1  0  0  0  0
 28 19  1  0  0  0  0
 29 16  1  0  0  0  0
 29 22  1  0  0  0  0
 30 31  2  0  0  0  0
 30 20  1  0  0  0  0
 32 33  1  0  0  0  0
 33 40  1  0  0  0  0
 33 36  1  0  0  0  0
 34 39  2  0  0  0  0
 35 43  1  0  0  0  0
 35 37  1  0  0  0  0
 36 38  1  0  0  0  0
 38 37  1  0  0  0  0
 38 39  1  0  0  0  0
 39 41  1  0  0  0  0
 40 35  1  0  0  0  0
 42 43  1  0  0  0  0
M  END
>  <MODEL>
3

>  <REMARK>
 VINA RESULT:      -7.0      1.389      2.353
  Name = 
  4 active torsions:
  status: ('A' for Active; 'I' for Inactive)
    1  A    between atoms: C_1  and  O_6
    2  A    between atoms: O_6  and  C_31
    3  A    between atoms: C_8  and  C_30
    4  A    between atoms: C_14  and  O_40
                            x       y       z     vdW  Elec       q    Type
                         _______ _______ _______ _____ _____    ______ ____

>  <TORSDO>
F 4

$$$$
=
 OpenBabel10232410273D

 43 49  0  0  1  0  0  0  0  0999 V2000
  187.0750  177.9540  141.5020 O   0  0  0  0  0  0  0  0  0  0  0  0
  186.5360  179.2480  141.6040 C   0  0  0  0  0  2  0  0  0  0  0  0
  191.4350  176.1940  135.0750 C   0  0  0  0  0  1  0  0  0  0  0  0
  184.0400  179.8560  139.4230 N   0  0  0  0  0  0  0  0  0  0  0  0
  188.6940  177.5140  136.5670 O   0  0  0  0  0  0  0  0  0  0  0  0
  186.3190  176.0880  137.4710 O   0  0  0  0  0  0  0  0  0  0  0  0
  189.9300  174.2460  134.7960 C   0  0  0  0  0  2  0  0  0  0  0  0
  188.5630  173.2570  135.5080 S   0  0  0  0  0  0  0  0  0  0  0  0
  188.9150  176.5220  138.7160 C   0  0  0  0  0  2  0  0  0  0  0  0
  188.7900  176.2590  137.2290 C   0  0  1  0  0  0  0  0  0  0  0  0
  183.6980  179.2510  138.2990 N   0  0  0  0  0  0  0  0  0  0  0  0
  188.6700  178.5180  137.5550 C   0  0  0  0  0  2  0  0  0  0  0  0
  185.0180  179.1740  141.6180 C   0  0  0  0  0  2  0  0  0  0  0  0
  187.3320  174.5970  135.6830 C   0  0  1  0  0  3  0  0  0  0  0  0
  187.4960  175.4170  137.0170 C   0  0  2  0  0  3  0  0  0  0  0  0
  184.5510  177.2560  136.2210 N   0  0  1  0  0  0  0  0  0  0  0  0
  183.9500  177.9400  138.4770 C   0  0  0  0  0  0  0  0  0  0  0  0
  184.4910  178.8960  140.2510 C   0  0  0  0  0  0  0  0  0  0  0  0
  188.9230  178.6470  140.0310 C   0  0  0  0  0  2  0  0  0  0  0  0
  183.7750  176.9000  137.4100 C   0  0  1  0  0  3  0  0  0  0  0  0
  188.4790  178.0500  141.3700 C   0  0  1  0  0  3  0  0  0  0  0  0
  185.9210  176.8840  136.3930 C   0  0  2  0  0  3  0  0  0  0  0  0
  185.7100  176.1740  134.3470 C   0  0  0  0  0  2  0  0  0  0  0  0
  190.0820  175.6180  135.4320 C   0  0  1  0  0  3  0  0  0  0  0  0
  184.4620  177.6700  139.6930 N   0  0  0  0  0  2  0  0  0  0  0  0
  187.0520  175.3760  134.3580 C   0  0  0  0  0  2  0  0  0  0  0  0
  189.9490  175.5460  136.8300 O   0  0  0  0  0  0  0  0  0  0  0  0
  188.3190  177.8800  138.8660 C   0  0  2  0  0  3  0  0  0  0  0  0
  185.0600  176.0390  135.6390 N   0  0  2  0  0  0  0  0  0  0  0  0
  182.3280  176.7150  137.0610 C   0  0  0  0  0  3  0  0  0  0  0  0
  181.4480  176.5020  137.9690 N   0  0  0  0  0  2  0  0  0  0  0  0
  189.0610  178.7340  142.4450 O   0  0  0  0  0  0  0  0  0  0  0  0
  190.2850  178.0990  142.6610 C   0  0  1  0  0  3  0  0  0  0  0  0
  189.4350  179.0160  146.5070 O   0  0  0  0  0  0  0  0  0  0  0  0
  190.5730  175.6110  143.2850 C   0  0  1  0  0  3  0  0  0  0  0  0
  190.6970  178.2570  144.1270 C   0  0  0  0  0  2  0  0  0  0  0  0
  189.8540  175.9100  144.6030 C   0  0  0  0  0  2  0  0  0  0  0  0
  189.9460  177.3280  144.9710 N   0  0  0  0  0  0  0  0  0  0  0  0
  189.3410  177.8030  146.1830 C   0  0  0  0  0  0  0  0  0  0  0  0
  190.1850  176.6320  142.2090 C   0  0  0  0  0  2  0  0  0  0  0  0
  188.5880  176.8780  147.0800 C   0  0  0  0  0  1  0  0  0  0  0  0
  192.1830  174.6450  144.4580 C   0  0  0  0  0  1  0  0  0  0  0  0
  191.9580  175.6130  143.4780 O   0  0  0  0  0  0  0  0  0  0  0  0
  1  2  1  0  0  0  0
  2 13  1  0  0  0  0
  3 24  1  0  0  0  0
  4 18  2  0  0  0  0
  5 10  1  0  0  0  0
  5 12  1  0  0  0  0
  7 24  1  0  0  0  0
  7  8  1  0  0  0  0
  8 14  1  0  0  0  0
  9 28  1  0  0  0  0
 10  9  1  1  0  0  0
 11 17  2  0  0  0  0
 11  4  1  0  0  0  0
 12 28  1  0  0  0  0
 14 26  1  6  0  0  0
 14 15  1  0  0  0  0
 15 10  1  0  0  0  0
 15  6  1  6  0  0  0
 16 22  1  0  0  0  0
 16 20  1  0  0  0  0
 17 25  1  0  0  0  0
 18 13  1  0  0  0  0
 19 21  1  0  0  0  0
 20 17  1  0  0  0  0
 21  1  1  0  0  0  0
 21 32  1  0  0  0  0
 22  6  1  0  0  0  0
 23 26  1  0  0  0  0
 23 29  1  0  0  0  0
 24 27  1  0  0  0  0
 25 18  1  0  0  0  0
 27 10  1  0  0  0  0
 28 19  1  0  0  0  0
 29 16  1  0  0  0  0
 29 22  1  0  0  0  0
 30 20  1  0  0  0  0
 30 31  2  0  0  0  0
 32 33  1  0  0  0  0
 33 36  1  0  0  0  0
 35 43  1  0  0  0  0
 35 37  1  0  0  0  0
 36 38  1  0  0  0  0
 37 38  1  0  0  0  0
 38 39  1  0  0  0  0
 39 34  2  0  0  0  0
 39 41  1  0  0  0  0
 40 33  1  0  0  0  0
 40 35  1  0  0  0  0
 43 42  1  0  0  0  0
M  END
>  <MODEL>
4

>  <REMARK>
 VINA RESULT:      -6.3      1.688      2.493
  Name = 
  4 active torsions:
  status: ('A' for Active; 'I' for Inactive)
    1  A    between atoms: C_1  and  O_6
    2  A    between atoms: O_6  and  C_31
    3  A    between atoms: C_8  and  C_30
    4  A    between atoms: C_14  and  O_40
                            x       y       z     vdW  Elec       q    Type
                         _______ _______ _______ _____ _____    ______ ____

>  <TORSDO>
F 4

$$$$
=
 OpenBabel10232410273D

 43 49  0  0  1  0  0  0  0  0999 V2000
  187.9730  176.7200  138.4700 O   0  0  0  0  0  0  0  0  0  0  0  0
  189.0450  177.5930  138.7230 C   0  0  0  0  0  2  0  0  0  0  0  0
  180.7160  179.8610  137.5250 C   0  0  0  0  0  1  0  0  0  0  0  0
  188.9660  178.9890  141.7890 N   0  0  0  0  0  0  0  0  0  0  0  0
  183.6700  179.5800  139.1610 O   0  0  0  0  0  0  0  0  0  0  0  0
  184.4190  177.5490  141.1130 O   0  0  0  0  0  0  0  0  0  0  0  0
  179.9820  178.2630  139.2710 C   0  0  0  0  0  2  0  0  0  0  0  0
  180.4430  176.8480  140.3370 S   0  0  0  0  0  0  0  0  0  0  0  0
  184.4450  177.5480  138.2010 C   0  0  0  0  0  2  0  0  0  0  0  0
  183.3260  178.2120  138.9770 C   0  0  1  0  0  0  0  0  0  0  0  0
  187.9790  179.1330  142.6560 N   0  0  0  0  0  0  0  0  0  0  0  0
  184.9570  179.7740  138.6220 C   0  0  0  0  0  2  0  0  0  0  0  0
  189.6440  177.2910  140.0870 C   0  0  0  0  0  2  0  0  0  0  0  0
  181.8810  177.6060  141.1730 C   0  0  1  0  0  3  0  0  0  0  0  0
  183.2160  177.4770  140.3460 C   0  0  2  0  0  3  0  0  0  0  0  0
  185.0070  178.9420  143.0540 N   0  0  1  0  0  0  0  0  0  0  0  0
  187.2060  178.0350  142.5440 C   0  0  0  0  0  0  0  0  0  0  0  0
  188.7650  177.8080  141.1750 C   0  0  0  0  0  0  0  0  0  0  0  0
  186.6160  178.4320  137.3350 C   0  0  0  0  0  2  0  0  0  0  0  0
  185.9270  177.8290  143.2990 C   0  0  1  0  0  3  0  0  0  0  0  0
  187.3550  177.0920  137.2540 C   0  0  1  0  0  3  0  0  0  0  0  0
  184.3290  178.7590  141.8090 C   0  0  2  0  0  3  0  0  0  0  0  0
  182.5960  179.3920  142.9610 C   0  0  0  0  0  2  0  0  0  0  0  0
  181.1780  178.9840  138.6700 C   0  0  1  0  0  3  0  0  0  0  0  0
  187.6600  177.1740  141.6120 N   0  0  0  0  0  2  0  0  0  0  0  0
  181.5640  178.9670  141.8700 C   0  0  0  0  0  2  0  0  0  0  0  0
  182.1420  178.0700  138.2110 O   0  0  0  0  0  0  0  0  0  0  0  0
  185.6140  178.4330  138.4760 C   0  0  2  0  0  3  0  0  0  0  0  0
  183.6660  178.4130  143.0190 N   0  0  2  0  0  0  0  0  0  0  0  0
  186.1820  177.6690  144.7690 C   0  0  0  0  0  3  0  0  0  0  0  0
  185.9800  178.6360  145.5870 N   0  0  0  0  0  2  0  0  0  0  0  0
  188.2570  177.0770  136.1820 O   0  0  0  0  0  0  0  0  0  0  0  0
  188.0080  175.8760  135.5140 C   0  0  1  0  0  3  0  0  0  0  0  0
  192.0490  175.7370  135.4460 O   0  0  0  0  0  0  0  0  0  0  0  0
  187.9150  173.5510  136.6340 C   0  0  1  0  0  3  0  0  0  0  0  0
  189.3230  175.2950  134.9890 C   0  0  0  0  0  2  0  0  0  0  0  0
  189.4000  173.7110  136.9710 C   0  0  0  0  0  2  0  0  0  0  0  0
  190.0690  174.6600  136.0750 N   0  0  0  0  0  0  0  0  0  0  0  0
  191.4710  174.9350  136.2270 C   0  0  0  0  0  0  0  0  0  0  0  0
  187.2490  174.9200  136.4510 C   0  0  0  0  0  2  0  0  0  0  0  0
  192.2680  174.2860  137.3070 C   0  0  0  0  0  1  0  0  0  0  0  0
  187.7450  171.4590  135.9300 C   0  0  0  0  0  1  0  0  0  0  0  0
  187.7610  172.7800  135.4780 O   0  0  0  0  0  0  0  0  0  0  0  0
  1  2  1  0  0  0  0
  2 13  1  0  0  0  0
  3 24  1  0  0  0  0
  4 11  1  0  0  0  0
  6 22  1  0  0  0  0
  7  8  1  0  0  0  0
  8 14  1  0  0  0  0
  9 28  1  0  0  0  0
 10  9  1  6  0  0  0
 10  5  1  0  0  0  0
 10 15  1  0  0  0  0
 12  5  1  0  0  0  0
 13 18  1  0  0  0  0
 14 26  1  6  0  0  0
 15  6  1  1  0  0  0
 15 14  1  0  0  0  0
 16 20  1  0  0  0  0
 17 11  2  0  0  0  0
 17 20  1  0  0  0  0
 18 25  1  0  0  0  0
 18  4  2  0  0  0  0
 19 28  1  0  0  0  0
 20 30  1  0  0  0  0
 21 19  1  0  0  0  0
 21  1  1  0  0  0  0
 22 29  1  0  0  0  0
 22 16  1  0  0  0  0
 23 29  1  0  0  0  0
 24  7  1  0  0  0  0
 25 17  1  0  0  0  0
 26 23  1  0  0  0  0
 27 24  1  0  0  0  0
 27 10  1  0  0  0  0
 28 12  1  0  0  0  0
 29 16  1  0  0  0  0
 30 31  2  0  0  0  0
 32 21  1  0  0  0  0
 33 32  1  0  0  0  0
 33 40  1  0  0  0  0
 34 39  2  0  0  0  0
 35 37  1  0  0  0  0
 36 33  1  0  0  0  0
 36 38  1  0  0  0  0
 38 39  1  0  0  0  0
 38 37  1  0  0  0  0
 39 41  1  0  0  0  0
 40 35  1  0  0  0  0
 43 42  1  0  0  0  0
 43 35  1  0  0  0  0
M  END
>  <MODEL>
5

>  <REMARK>
 VINA RESULT:      -5.6      3.621      8.245
  Name = 
  4 active torsions:
  status: ('A' for Active; 'I' for Inactive)
    1  A    between atoms: C_1  and  O_6
    2  A    between atoms: O_6  and  C_31
    3  A    between atoms: C_8  and  C_30
    4  A    between atoms: C_14  and  O_40
                            x       y       z     vdW  Elec       q    Type
                         _______ _______ _______ _____ _____    ______ ____

>  <TORSDO>
F 4

$$$$
=
 OpenBabel10232410273D

 43 49  0  0  1  0  0  0  0  0999 V2000
  188.5650  178.8520  139.8960 O   0  0  0  0  0  0  0  0  0  0  0  0
  187.5600  178.2100  139.1520 C   0  0  0  0  0  2  0  0  0  0  0  0
  191.9430  174.8500  145.8940 C   0  0  0  0  0  1  0  0  0  0  0  0
  184.6760  177.7910  140.8410 N   0  0  0  0  0  0  0  0  0  0  0  0
  189.2420  175.9050  144.1410 O   0  0  0  0  0  0  0  0  0  0  0  0
  187.9120  178.4910  144.3390 O   0  0  0  0  0  0  0  0  0  0  0  0
  191.3780  176.8120  147.2980 C   0  0  0  0  0  2  0  0  0  0  0  0
  190.7200  178.5200  147.3420 S   0  0  0  0  0  0  0  0  0  0  0  0
  190.2680  177.6270  142.8620 C   0  0  0  0  0  2  0  0  0  0  0  0
  189.9830  177.1140  144.2590 C   0  0  1  0  0  0  0  0  0  0  0  0
  184.4120  177.8120  142.1360 N   0  0  0  0  0  0  0  0  0  0  0  0
  188.9860  175.6930  142.7730 C   0  0  0  0  0  2  0  0  0  0  0  0
  186.2490  178.9640  139.2960 C   0  0  0  0  0  2  0  0  0  0  0  0
  189.0970  178.1970  146.5650 C   0  0  1  0  0  3  0  0  0  0  0  0
  189.1510  178.2090  144.9910 C   0  0  2  0  0  3  0  0  0  0  0  0
  185.6130  177.8090  144.8900 N   0  0  1  0  0  0  0  0  0  0  0  0
  185.2240  178.7420  142.6770 C   0  0  0  0  0  0  0  0  0  0  0  0
  185.6380  178.7070  140.6320 C   0  0  0  0  0  0  0  0  0  0  0  0
  189.6290  176.7510  140.6100 C   0  0  0  0  0  2  0  0  0  0  0  0
  185.3030  179.0310  144.1460 C   0  0  1  0  0  3  0  0  0  0  0  0
  189.7440  178.0740  139.8460 C   0  0  1  0  0  3  0  0  0  0  0  0
  187.0170  177.5420  144.8420 C   0  0  2  0  0  3  0  0  0  0  0  0
  186.7390  177.1070  146.9550 C   0  0  0  0  0  2  0  0  0  0  0  0
  191.0550  176.0700  146.0110 C   0  0  1  0  0  3  0  0  0  0  0  0
  186.0230  179.3270  141.7650 N   0  0  0  0  0  2  0  0  0  0  0  0
  188.2670  177.0810  147.2750 C   0  0  0  0  0  2  0  0  0  0  0  0
  191.2350  176.8990  144.8900 O   0  0  0  0  0  0  0  0  0  0  0  0
  189.1950  176.9880  142.0460 C   0  0  2  0  0  3  0  0  0  0  0  0
  186.4660  178.1640  145.9970 N   0  0  2  0  0  0  0  0  0  0  0  0
  184.0320  179.6480  144.6500 C   0  0  0  0  0  3  0  0  0  0  0  0
  183.2520  179.0090  145.4430 N   0  0  0  0  0  2  0  0  0  0  0  0
  190.1760  177.8610  138.5300 O   0  0  0  0  0  0  0  0  0  0  0  0
  190.7600  176.5930  138.5400 C   0  0  1  0  0  3  0  0  0  0  0  0
  187.3980  175.6530  136.4980 O   0  0  0  0  0  0  0  0  0  0  0  0
  192.2200  175.6200  136.6460 C   0  0  1  0  0  3  0  0  0  0  0  0
  189.7770  175.5670  137.9710 C   0  0  0  0  0  2  0  0  0  0  0  0
  190.9860  175.6650  135.7410 C   0  0  0  0  0  2  0  0  0  0  0  0
  189.7380  175.6540  136.5110 N   0  0  0  0  0  0  0  0  0  0  0  0
  188.4700  175.6800  135.8370 C   0  0  0  0  0  0  0  0  0  0  0  0
  192.0980  176.6420  137.7820 C   0  0  0  0  0  2  0  0  0  0  0  0
  188.3920  175.7440  134.3490 C   0  0  0  0  0  1  0  0  0  0  0  0
  193.6810  174.3360  137.7030 C   0  0  0  0  0  1  0  0  0  0  0  0
  192.3920  174.3350  137.1670 O   0  0  0  0  0  0  0  0  0  0  0  0
  2 13  1  0  0  0  0
  2  1  1  0  0  0  0
  3 24  1  0  0  0  0
  4 11  1  0  0  0  0
  5 10  1  0  0  0  0
  6 22  1  0  0  0  0
  7  8  1  0  0  0  0
 10  9  1  6  0  0  0
 10 27  1  0  0  0  0
 10 15  1  0  0  0  0
 11 17  2  0  0  0  0
 12  5  1  0  0  0  0
 13 18  1  0  0  0  0
 14 26  1  6  0  0  0
 14  8  1  0  0  0  0
 15  6  1  6  0  0  0
 15 14  1  0  0  0  0
 16 29  1  0  0  0  0
 17 20  1  0  0  0  0
 18  4  2  0  0  0  0
 18 25  1  0  0  0  0
 19 28  1  0  0  0  0
 20 30  1  0  0  0  0
 20 16  1  0  0  0  0
 21  1  1  0  0  0  0
 21 19  1  0  0  0  0
 22 16  1  0  0  0  0
 22 29  1  0  0  0  0
 23 26  1  0  0  0  0
 24  7  1  0  0  0  0
 25 17  1  0  0  0  0
 27 24  1  0  0  0  0
 28 12  1  0  0  0  0
 28  9  1  0  0  0  0
 29 23  1  0  0  0  0
 30 31  2  0  0  0  0
 32 33  1  0  0  0  0
 32 21  1  0  0  0  0
 35 43  1  0  0  0  0
 35 40  1  0  0  0  0
 36 33  1  0  0  0  0
 37 38  1  0  0  0  0
 37 35  1  0  0  0  0
 38 36  1  0  0  0  0
 39 34  2  0  0  0  0
 39 38  1  0  0  0  0
 40 33  1  0  0  0  0
 41 39  1  0  0  0  0
 43 42  1  0  0  0  0
M  END
>  <MODEL>
6

>  <REMARK>
 VINA RESULT:      -5.3      2.798      7.781
  Name = 
  4 active torsions:
  status: ('A' for Active; 'I' for Inactive)
    1  A    between atoms: C_1  and  O_6
    2  A    between atoms: O_6  and  C_31
    3  A    between atoms: C_8  and  C_30
    4  A    between atoms: C_14  and  O_40
                            x       y       z     vdW  Elec       q    Type
                         _______ _______ _______ _____ _____    ______ ____

>  <TORSDO>
F 4

$$$$
=
 OpenBabel10232410273D

 43 49  0  0  1  0  0  0  0  0999 V2000
  187.7930  176.8930  139.1170 O   0  0  0  0  0  0  0  0  0  0  0  0
  188.4330  178.1100  139.4040 C   0  0  0  0  0  2  0  0  0  0  0  0
  180.8930  177.1170  135.1490 C   0  0  0  0  0  1  0  0  0  0  0  0
  186.8530  179.9570  141.7370 N   0  0  0  0  0  0  0  0  0  0  0  0
  182.9770  178.1840  137.5980 O   0  0  0  0  0  0  0  0  0  0  0  0
  183.4200  176.9480  140.2000 O   0  0  0  0  0  0  0  0  0  0  0  0
  179.9820  175.7320  136.9910 C   0  0  0  0  0  2  0  0  0  0  0  0
  180.3480  174.7930  138.5210 S   0  0  0  0  0  0  0  0  0  0  0  0
  184.5430  176.3950  137.5710 C   0  0  0  0  0  2  0  0  0  0  0  0
  183.0850  176.7720  137.7400 C   0  0  1  0  0  0  0  0  0  0  0  0
  185.6100  179.9190  142.1850 N   0  0  0  0  0  0  0  0  0  0  0  0
  184.2780  178.6980  137.4360 C   0  0  0  0  0  2  0  0  0  0  0  0
  188.5280  178.3000  140.9090 C   0  0  0  0  0  2  0  0  0  0  0  0
  181.1220  176.1430  139.4800 C   0  0  1  0  0  3  0  0  0  0  0  0
  182.6560  176.3220  139.1680 C   0  0  2  0  0  3  0  0  0  0  0  0
  182.8600  178.8030  141.7150 N   0  0  1  0  0  0  0  0  0  0  0  0
  185.2410  178.6230  142.1820 C   0  0  0  0  0  0  0  0  0  0  0  0
  187.2040  178.6850  141.4760 C   0  0  0  0  0  0  0  0  0  0  0  0
  186.5810  177.7840  137.1690 C   0  0  0  0  0  2  0  0  0  0  0  0
  183.8680  178.1420  142.5470 C   0  0  1  0  0  3  0  0  0  0  0  0
  187.6080  176.7890  137.7190 C   0  0  1  0  0  3  0  0  0  0  0  0
  182.7720  178.1630  140.4400 C   0  0  2  0  0  3  0  0  0  0  0  0
  180.6330  178.3750  140.7750 C   0  0  0  0  0  2  0  0  0  0  0  0
  181.0930  176.6880  136.5870 C   0  0  1  0  0  3  0  0  0  0  0  0
  186.2140  177.8080  141.7330 N   0  0  0  0  0  2  0  0  0  0  0  0
  180.2330  177.4200  139.6070 C   0  0  0  0  0  2  0  0  0  0  0  0
  182.3560  176.0890  136.7340 O   0  0  0  0  0  0  0  0  0  0  0  0
  185.2570  177.6620  137.9030 C   0  0  2  0  0  3  0  0  0  0  0  0
  181.8120  177.8510  141.4420 N   0  0  2  0  0  0  0  0  0  0  0  0
  183.5800  178.3640  144.0020 C   0  0  0  0  0  3  0  0  0  0  0  0
  182.6650  179.1790  144.3820 N   0  0  0  0  0  2  0  0  0  0  0  0
  188.8200  176.8770  137.0220 O   0  0  0  0  0  0  0  0  0  0  0  0
  188.7470  175.8880  136.0390 C   0  0  1  0  0  3  0  0  0  0  0  0
  192.7740  176.2100  136.2230 O   0  0  0  0  0  0  0  0  0  0  0  0
  188.8980  173.3490  136.4800 C   0  0  1  0  0  3  0  0  0  0  0  0
  190.1430  175.6200  135.4710 C   0  0  0  0  0  2  0  0  0  0  0  0
  190.3380  173.5680  136.9520 C   0  0  0  0  0  2  0  0  0  0  0  0
  190.9200  174.7940  136.3950 N   0  0  0  0  0  0  0  0  0  0  0  0
  192.2700  175.1660  136.7150 C   0  0  0  0  0  0  0  0  0  0  0  0
  188.0760  174.6340  136.6270 C   0  0  0  0  0  2  0  0  0  0  0  0
  193.0990  174.3340  137.6350 C   0  0  0  0  0  1  0  0  0  0  0  0
  187.5850  172.4570  134.9370 C   0  0  0  0  0  1  0  0  0  0  0  0
  188.8860  172.9150  135.1510 O   0  0  0  0  0  0  0  0  0  0  0  0
  1  2  1  0  0  0  0
  2 13  1  0  0  0  0
  3 24  1  0  0  0  0
  4 11  1  0  0  0  0
  5 10  1  0  0  0  0
  6 22  1  0  0  0  0
  7  8  1  0  0  0  0
  8 14  1  0  0  0  0
  9 28  1  0  0  0  0
 10  9  1  6  0  0  0
 10 15  1  0  0  0  0
 12  5  1  0  0  0  0
 12 28  1  0  0  0  0
 13 18  1  0  0  0  0
 14 26  1  6  0  0  0
 15 14  1  0  0  0  0
 15  6  1  1  0  0  0
 16 20  1  0  0  0  0
 17 11  2  0  0  0  0
 17 20  1  0  0  0  0
 18 25  1  0  0  0  0
 18  4  2  0  0  0  0
 19 21  1  0  0  0  0
 19 28  1  0  0  0  0
 20 30  1  0  0  0  0
 21  1  1  0  0  0  0
 22 29  1  0  0  0  0
 22 16  1  0  0  0  0
 23 29  1  0  0  0  0
 24 27  1  0  0  0  0
 24  7  1  0  0  0  0
 25 17  1  0  0  0  0
 26 23  1  0  0  0  0
 27 10  1  0  0  0  0
 29 16  1  0  0  0  0
 30 31  2  0  0  0  0
 32 21  1  0  0  0  0
 33 40  1  0  0  0  0
 33 32  1  0  0  0  0
 34 39  2  0  0  0  0
 35 40  1  0  0  0  0
 35 37  1  0  0  0  0
 36 33  1  0  0  0  0
 36 38  1  0  0  0  0
 38 39  1  0  0  0  0
 38 37  1  0  0  0  0
 39 41  1  0  0  0  0
 42 43  1  0  0  0  0
 43 35  1  0  0  0  0
M  END
>  <MODEL>
7

>  <REMARK>
 VINA RESULT:      -5.3      3.849      7.896
  Name = 
  4 active torsions:
  status: ('A' for Active; 'I' for Inactive)
    1  A    between atoms: C_1  and  O_6
    2  A    between atoms: O_6  and  C_31
    3  A    between atoms: C_8  and  C_30
    4  A    between atoms: C_14  and  O_40
                            x       y       z     vdW  Elec       q    Type
                         _______ _______ _______ _____ _____    ______ ____

>  <TORSDO>
F 4

$$$$
=
 OpenBabel10232410273D

 43 49  0  0  1  0  0  0  0  0999 V2000
  190.2110  176.2150  141.4760 O   0  0  0  0  0  0  0  0  0  0  0  0
  191.2800  176.8890  142.0920 C   0  0  0  0  0  2  0  0  0  0  0  0
  184.0750  180.5350  138.8150 C   0  0  0  0  0  1  0  0  0  0  0  0
  190.5220  178.1550  145.1210 N   0  0  0  0  0  0  0  0  0  0  0  0
  186.3560  179.7100  141.1810 O   0  0  0  0  0  0  0  0  0  0  0  0
  186.2060  177.5070  143.0830 O   0  0  0  0  0  0  0  0  0  0  0  0
  182.6430  179.0110  140.1440 C   0  0  0  0  0  2  0  0  0  0  0  0
  182.5650  177.4980  141.1730 S   0  0  0  0  0  0  0  0  0  0  0  0
  187.0720  177.6180  140.3050 C   0  0  0  0  0  2  0  0  0  0  0  0
  185.8850  178.4250  140.7920 C   0  0  1  0  0  0  0  0  0  0  0  0
  189.3590  178.4240  145.6870 N   0  0  0  0  0  0  0  0  0  0  0  0
  187.7570  179.7110  141.0410 C   0  0  0  0  0  2  0  0  0  0  0  0
  191.4080  176.4390  143.5380 C   0  0  0  0  0  2  0  0  0  0  0  0
  183.7950  177.9760  142.4380 C   0  0  1  0  0  3  0  0  0  0  0  0
  185.2780  177.6630  142.0090 C   0  0  2  0  0  3  0  0  0  0  0  0
  186.4040  178.7060  145.2230 N   0  0  1  0  0  0  0  0  0  0  0  0
  188.5000  177.4730  145.2710 C   0  0  0  0  0  0  0  0  0  0  0  0
  190.3380  177.0490  144.3770 C   0  0  0  0  0  0  0  0  0  0  0  0
  189.5050  178.1690  140.1580 C   0  0  0  0  0  2  0  0  0  0  0  0
  187.0420  177.4490  145.6190 C   0  0  1  0  0  3  0  0  0  0  0  0
  190.0320  176.7310  140.1730 C   0  0  1  0  0  3  0  0  0  0  0  0
  186.0950  178.6860  143.8270 C   0  0  2  0  0  3  0  0  0  0  0  0
  184.2150  179.5490  144.4990 C   0  0  0  0  0  2  0  0  0  0  0  0
  184.0530  179.5500  139.9640 C   0  0  1  0  0  3  0  0  0  0  0  0
  189.0730  176.5880  144.4330 N   0  0  0  0  0  2  0  0  0  0  0  0
  183.4910  179.3420  143.1320 C   0  0  0  0  0  2  0  0  0  0  0  0
  184.9650  178.5100  139.7160 O   0  0  0  0  0  0  0  0  0  0  0  0
  188.2260  178.2880  140.9700 C   0  0  2  0  0  3  0  0  0  0  0  0
  185.0680  178.4060  144.7700 N   0  0  2  0  0  0  0  0  0  0  0  0
  186.8350  177.1910  147.0820 C   0  0  0  0  0  3  0  0  0  0  0  0
  187.1240  178.0790  147.9620 N   0  0  0  0  0  2  0  0  0  0  0  0
  191.1930  176.6110  139.3970 O   0  0  0  0  0  0  0  0  0  0  0  0
  190.7450  176.5620  138.0760 C   0  0  1  0  0  3  0  0  0  0  0  0
  194.6320  175.6820  137.3890 O   0  0  0  0  0  0  0  0  0  0  0  0
  190.0080  174.4190  136.8390 C   0  0  1  0  0  3  0  0  0  0  0  0
  191.9380  176.3980  137.1310 C   0  0  0  0  0  2  0  0  0  0  0  0
  191.4470  173.9130  136.9640 C   0  0  0  0  0  2  0  0  0  0  0  0
  192.4040  175.0120  137.1350 N   0  0  0  0  0  0  0  0  0  0  0  0
  193.8090  174.7370  137.2600 C   0  0  0  0  0  0  0  0  0  0  0  0
  189.6950  175.4460  137.9340 C   0  0  0  0  0  2  0  0  0  0  0  0
  194.3220  173.3370  137.2430 C   0  0  0  0  0  1  0  0  0  0  0  0
  188.4240  175.2020  135.5050 C   0  0  0  0  0  1  0  0  0  0  0  0
  189.8000  174.9800  135.5760 O   0  0  0  0  0  0  0  0  0  0  0  0
  1  2  1  0  0  0  0
  2 13  1  0  0  0  0
  3 24  1  0  0  0  0
  4 11  1  0  0  0  0
  6 22  1  0  0  0  0
  7  8  1  0  0  0  0
  8 14  1  0  0  0  0
  9 28  1  0  0  0  0
 10  9  1  6  0  0  0
 10  5  1  0  0  0  0
 10 15  1  0  0  0  0
 12  5  1  0  0  0  0
 13 18  1  0  0  0  0
 14 26  1  6  0  0  0
 15 14  1  0  0  0  0
 15  6  1  1  0  0  0
 16 20  1  0  0  0  0
 17 20  1  0  0  0  0
 17 11  2  0  0  0  0
 18 25  1  0  0  0  0
 18  4  2  0  0  0  0
 19 21  1  0  0  0  0
 19 28  1  0  0  0  0
 20 30  1  0  0  0  0
 21  1  1  0  0  0  0
 22 29  1  0  0  0  0
 22 16  1  0  0  0  0
 23 29  1  0  0  0  0
 24  7  1  0  0  0  0
 25 17  1  0  0  0  0
 26 23  1  0  0  0  0
 27 24  1  0  0  0  0
 27 10  1  0  0  0  0
 28 12  1  0  0  0  0
 29 16  1  0  0  0  0
 30 31  2  0  0  0  0
 32 21  1  0  0  0  0
 33 32  1  0  0  0  0
 35 37  1  0  0  0  0
 35 40  1  0  0  0  0
 36 38  1  0  0  0  0
 36 33  1  0  0  0  0
 37 38  1  0  0  0  0
 38 39  1  0  0  0  0
 39 34  2  0  0  0  0
 40 33  1  0  0  0  0
 41 39  1  0  0  0  0
 42 43  1  0  0  0  0
 43 35  1  0  0  0  0
M  END
>  <MODEL>
8

>  <REMARK>
 VINA RESULT:      -5.2      3.506      8.165
  Name = 
  4 active torsions:
  status: ('A' for Active; 'I' for Inactive)
    1  A    between atoms: C_1  and  O_6
    2  A    between atoms: O_6  and  C_31
    3  A    between atoms: C_8  and  C_30
    4  A    between atoms: C_14  and  O_40
                            x       y       z     vdW  Elec       q    Type
                         _______ _______ _______ _____ _____    ______ ____

>  <TORSDO>
F 4

$$$$
=
 OpenBabel10232410273D

 43 49  0  0  1  0  0  0  0  0999 V2000
  188.7590  175.6110  138.1460 O   0  0  0  0  0  0  0  0  0  0  0  0
  187.7820  175.9070  137.1800 C   0  0  0  0  0  2  0  0  0  0  0  0
  196.4150  176.0150  135.9940 C   0  0  0  0  0  1  0  0  0  0  0  0
  187.4980  173.5660  134.7740 N   0  0  0  0  0  0  0  0  0  0  0  0
  193.2070  175.0490  135.4880 O   0  0  0  0  0  0  0  0  0  0  0  0
  191.8650  172.7240  136.6240 O   0  0  0  0  0  0  0  0  0  0  0  0
  196.6130  173.7130  136.8890 C   0  0  0  0  0  2  0  0  0  0  0  0
  195.7890  172.3480  137.7910 S   0  0  0  0  0  0  0  0  0  0  0  0
  192.3550  175.3930  137.6810 C   0  0  0  0  0  2  0  0  0  0  0  0
  193.3960  174.6730  136.8470 C   0  0  1  0  0  0  0  0  0  0  0  0
  188.3260  172.6130  134.3830 N   0  0  0  0  0  0  0  0  0  0  0  0
  192.0720  175.8810  135.4280 C   0  0  0  0  0  2  0  0  0  0  0  0
  186.9160  174.6830  136.9310 C   0  0  0  0  0  2  0  0  0  0  0  0
  194.3370  172.1500  136.6980 C   0  0  1  0  0  3  0  0  0  0  0  0
  193.1650  173.1450  137.0400 C   0  0  2  0  0  3  0  0  0  0  0  0
  191.1290  171.5520  134.5900 N   0  0  1  0  0  0  0  0  0  0  0  0
  188.9560  172.1740  135.4900 C   0  0  0  0  0  0  0  0  0  0  0  0
  187.6480  173.6790  136.1060 C   0  0  0  0  0  0  0  0  0  0  0  0
  190.5070  176.9500  137.0460 C   0  0  0  0  0  2  0  0  0  0  0  0
  190.0430  171.1410  135.4810 C   0  0  1  0  0  3  0  0  0  0  0  0
  189.6260  176.7200  138.2780 C   0  0  1  0  0  3  0  0  0  0  0  0
  191.9870  172.4840  135.2520 C   0  0  2  0  0  3  0  0  0  0  0  0
  193.5560  171.2800  134.3460 C   0  0  0  0  0  2  0  0  0  0  0  0
  195.6470  174.7640  136.3670 C   0  0  1  0  0  3  0  0  0  0  0  0
  188.5660  172.8270  136.6020 N   0  0  0  0  0  2  0  0  0  0  0  0
  194.7010  171.9130  135.1980 C   0  0  0  0  0  2  0  0  0  0  0  0
  194.6690  175.0750  137.3270 O   0  0  0  0  0  0  0  0  0  0  0  0
  191.2820  175.6930  136.6900 C   0  0  2  0  0  3  0  0  0  0  0  0
  192.3740  171.1170  135.1730 N   0  0  2  0  0  0  0  0  0  0  0  0
  189.5130  169.7950  135.0820 C   0  0  0  0  0  3  0  0  0  0  0  0
  188.3390  169.4130  135.4310 N   0  0  0  0  0  2  0  0  0  0  0  0
  188.9340  177.8870  138.6290 O   0  0  0  0  0  0  0  0  0  0  0  0
  189.5480  178.3350  139.8010 C   0  0  1  0  0  3  0  0  0  0  0  0
  185.7750  179.5200  140.6470 O   0  0  0  0  0  0  0  0  0  0  0  0
  189.6620  177.0100  142.0130 C   0  0  1  0  0  3  0  0  0  0  0  0
  188.5490  179.1480  140.6280 C   0  0  0  0  0  2  0  0  0  0  0  0
  188.1370  177.1200  142.0990 C   0  0  0  0  0  2  0  0  0  0  0  0
  187.6230  178.2580  141.3280 N   0  0  0  0  0  0  0  0  0  0  0  0
  186.2140  178.5330  141.2940 C   0  0  0  0  0  0  0  0  0  0  0  0
  190.1350  177.1330  140.5600 C   0  0  0  0  0  2  0  0  0  0  0  0
  185.2430  177.6600  142.0160 C   0  0  0  0  0  1  0  0  0  0  0  0
  191.2930  177.3330  143.4740 C   0  0  0  0  0  1  0  0  0  0  0  0
  190.2630  177.9940  142.8040 O   0  0  0  0  0  0  0  0  0  0  0  0
  1 21  1  0  0  0  0
  2  1  1  0  0  0  0
  3 24  1  0  0  0  0
  4 18  2  0  0  0  0
  5 10  1  0  0  0  0
  7  8  1  0  0  0  0
 10 15  1  0  0  0  0
 10 27  1  0  0  0  0
 10  9  1  1  0  0  0
 11  4  1  0  0  0  0
 11 17  2  0  0  0  0
 12  5  1  0  0  0  0
 12 28  1  0  0  0  0
 13  2  1  0  0  0  0
 14 26  1  6  0  0  0
 14 15  1  0  0  0  0
 14  8  1  0  0  0  0
 15  6  1  6  0  0  0
 16 29  1  0  0  0  0
 16 22  1  0  0  0  0
 16 20  1  0  0  0  0
 17 25  1  0  0  0  0
 18 25  1  0  0  0  0
 18 13  1  0  0  0  0
 19 21  1  0  0  0  0
 20 17  1  0  0  0  0
 21 32  1  0  0  0  0
 22  6  1  0  0  0  0
 23 29  1  0  0  0  0
 23 26  1  0  0  0  0
 24  7  1  0  0  0  0
 24 27  1  0  0  0  0
 28 19  1  0  0  0  0
 28  9  1  0  0  0  0
 29 22  1  0  0  0  0
 30 31  2  0  0  0  0
 30 20  1  0  0  0  0
 32 33  1  0  0  0  0
 33 40  1  0  0  0  0
 33 36  1  0  0  0  0
 34 39  2  0  0  0  0
 35 37  1  0  0  0  0
 35 43  1  0  0  0  0
 36 38  1  0  0  0  0
 38 37  1  0  0  0  0
 39 38  1  0  0  0  0
 39 41  1  0  0  0  0
 40 35  1  0  0  0  0
 43 42  1  0  0  0  0
M  END
>  <MODEL>
9

>  <REMARK>
 VINA RESULT:      -5.0      3.556      6.293
  Name = 
  4 active torsions:
  status: ('A' for Active; 'I' for Inactive)
    1  A    between atoms: C_1  and  O_6
    2  A    between atoms: O_6  and  C_31
    3  A    between atoms: C_8  and  C_30
    4  A    between atoms: C_14  and  O_40
                            x       y       z     vdW  Elec       q    Type
                         _______ _______ _______ _____ _____    ______ ____

>  <TORSDO>
F 4

$$$$
