=
 OpenBabel10232408063D

 38 42  0  0  1  0  0  0  0  0999 V2000
  187.1710  177.4970  144.9160 C   0  0  0  0  0  0  0  0  0  0  0  0
  189.0880  177.7410  147.6030 N   0  0  0  0  0  0  0  0  0  0  0  0
  185.7450  178.8010  146.9710 C   0  0  0  0  0  3  0  0  0  0  0  0
  187.4820  177.3600  146.2260 C   0  0  0  0  0  0  0  0  0  0  0  0
  188.4030  177.2900  144.2620 C   0  0  0  0  0  0  0  0  0  0  0  0
  187.9440  178.2790  148.1330 C   0  0  0  0  0  3  0  0  0  0  0  0
  186.9040  178.0600  147.2230 C   0  0  0  0  0  0  0  0  0  0  0  0
  188.7490  177.1780  146.4520 N   0  0  0  0  0  0  0  0  0  0  0  0
  185.2620  178.8200  145.6320 C   0  0  0  0  0  3  0  0  0  0  0  0
  189.3930  177.1750  145.2680 C   0  0  0  0  0  3  0  0  0  0  0  0
  185.9940  178.2010  144.5750 C   0  0  0  0  0  0  0  0  0  0  0  0
  188.6970  177.3820  142.8200 C   0  0  0  0  0  0  0  0  0  0  0  0
  188.0590  178.3500  142.0350 C   0  0  0  0  0  3  0  0  0  0  0  0
  189.6700  176.5610  142.2350 C   0  0  0  0  0  3  0  0  0  0  0  0
  189.9740  176.6830  140.8780 C   0  0  0  0  0  3  0  0  0  0  0  0
  188.3630  178.4710  140.6770 C   0  0  0  0  0  3  0  0  0  0  0  0
  189.3210  177.6340  140.0860 C   0  0  0  0  0  0  0  0  0  0  0  0
  187.3230  177.4880  137.6810 C   0  0  0  0  0  1  0  0  0  0  0  0
  189.6680  177.7270  138.6960 N   0  0  0  0  0  2  0  0  0  0  0  0
  188.7970  177.6740  137.5560 C   0  0  0  0  0  0  0  0  0  0  0  0
  189.2920  177.7810  136.4050 O   0  0  0  0  0  0  0  0  0  0  0  0
  185.5560  178.4010  143.1600 C   0  0  0  0  0  2  0  0  0  0  0  0
  184.0680  178.5570  143.0640 C   0  0  0  0  0  0  0  0  0  0  0  0
  183.3830  178.4380  141.8290 C   0  0  0  0  0  0  0  0  0  0  0  0
  181.9540  178.9680  144.1900 C   0  0  0  0  0  3  0  0  0  0  0  0
  183.3400  178.8100  144.2350 C   0  0  0  0  0  3  0  0  0  0  0  0
  181.2830  178.8740  142.9710 C   0  0  0  0  0  3  0  0  0  0  0  0
  181.9940  178.6060  141.8000 C   0  0  0  0  0  3  0  0  0  0  0  0
  184.5470  179.3850  139.8260 C   0  0  0  0  0  1  0  0  0  0  0  0
  184.0660  178.1240  140.5270 C   0  0  2  0  0  3  0  0  0  0  0  0
  183.1820  177.2770  139.6240 C   0  0  0  0  0  2  0  0  0  0  0  0
  183.1060  177.8690  138.2990 N   0  0  0  0  0  2  0  0  0  0  0  0
  183.4950  176.8410  137.3480 C   0  0  0  0  0  2  0  0  0  0  0  0
  183.2000  175.1950  138.0610 S   0  0  0  0  0  0  0  0  0  0  0  0
  184.6220  174.4670  137.1940 C   0  0  0  0  0  2  0  0  0  0  0  0
  184.8430  173.0410  137.6590 C   0  0  1  0  0  3  0  0  0  0  0  0
  184.4460  172.0920  136.5490 C   0  0  0  0  0  1  0  0  0  0  0  0
  186.1910  172.8510  137.9640 O   0  0  0  0  0  1  0  0  0  0  0  0
  1  4  1  0  0  0  0
  2  6  2  0  0  0  0
  3  7  1  0  0  0  0
  4  8  1  0  0  0  0
  4  7  2  0  0  0  0
  5  1  1  0  0  0  0
  5 10  2  0  0  0  0
  7  6  1  0  0  0  0
  8  2  1  0  0  0  0
  9  3  2  0  0  0  0
 10  8  1  0  0  0  0
 11  1  2  0  0  0  0
 11  9  1  0  0  0  0
 12  5  1  0  0  0  0
 13 12  2  0  0  0  0
 14 12  1  0  0  0  0
 15 14  2  0  0  0  0
 16 13  1  0  0  0  0
 17 16  2  0  0  0  0
 17 15  1  0  0  0  0
 19 17  1  0  0  0  0
 20 18  1  0  0  0  0
 20 19  1  0  0  0  0
 21 20  2  0  0  0  0
 22 11  1  0  0  0  0
 23 22  1  0  0  0  0
 23 26  1  0  0  0  0
 24 23  2  0  0  0  0
 25 26  2  0  0  0  0
 27 25  1  0  0  0  0
 28 24  1  0  0  0  0
 28 27  2  0  0  0  0
 30 29  1  6  0  0  0
 30 24  1  0  0  0  0
 31 30  1  0  0  0  0
 32 31  1  0  0  0  0
 33 34  1  0  0  0  0
 33 32  1  0  0  0  0
 35 36  1  0  0  0  0
 35 34  1  0  0  0  0
 36 37  1  6  0  0  0
 36 38  1  0  0  0  0
M  END
>  <MODEL>
1

>  <REMARK>
 VINA RESULT:      -9.6      0.000      0.000
  Name = 
  11 active torsions:
  status: ('A' for Active; 'I' for Inactive)
    1  A    between atoms: N_3  and  C_38
    2  A    between atoms: C_4  and  C_12
    3  A    between atoms: C_5  and  C_31
    4  A    between atoms: C_6  and  C_23
    5  A    between atoms: C_7  and  C_14
    6  A    between atoms: C_12  and  S_28
    7  A    between atoms: C_14  and  C_22
    8  A    between atoms: C_22  and  N_34
    9  A    between atoms: C_27  and  S_28
   10  A    between atoms: C_27  and  N_34
   11  A    between atoms: C_31  and  C_37
                            x       y       z     vdW  Elec       q    Type
                         _______ _______ _______ _____ _____    ______ ____

>  <TORSDO>
F 11

$$$$
=
 OpenBabel10232408063D

 38 42  0  0  1  0  0  0  0  0999 V2000
  189.2980  177.0080  145.9280 C   0  0  0  0  0  0  0  0  0  0  0  0
  191.6090  177.5490  148.2330 N   0  0  0  0  0  0  0  0  0  0  0  0
  188.1310  178.3190  148.1360 C   0  0  0  0  0  3  0  0  0  0  0  0
  189.8320  176.9710  147.1700 C   0  0  0  0  0  0  0  0  0  0  0  0
  190.4150  176.8560  145.0820 C   0  0  0  0  0  0  0  0  0  0  0  0
  190.5290  178.0300  148.9270 C   0  0  0  0  0  3  0  0  0  0  0  0
  189.3730  177.6820  148.2190 C   0  0  0  0  0  0  0  0  0  0  0  0
  191.1300  176.8960  147.1830 N   0  0  0  0  0  0  0  0  0  0  0  0
  187.4320  178.2250  146.9000 C   0  0  0  0  0  3  0  0  0  0  0  0
  191.5660  176.8730  145.9080 C   0  0  0  0  0  3  0  0  0  0  0  0
  188.0250  177.6020  145.7620 C   0  0  0  0  0  0  0  0  0  0  0  0
  190.4560  176.8860  143.6090 C   0  0  0  0  0  0  0  0  0  0  0  0
  191.5280  177.5020  142.9500 C   0  0  0  0  0  3  0  0  0  0  0  0
  189.4740  176.2350  142.8530 C   0  0  0  0  0  3  0  0  0  0  0  0
  189.5420  176.2300  141.4580 C   0  0  0  0  0  3  0  0  0  0  0  0
  191.5960  177.4970  141.5550 C   0  0  0  0  0  3  0  0  0  0  0  0
  190.5990  176.8650  140.7970 C   0  0  0  0  0  0  0  0  0  0  0  0
  189.0110  178.7620  138.8800 C   0  0  0  0  0  1  0  0  0  0  0  0
  190.6320  176.8330  139.3620 N   0  0  0  0  0  2  0  0  0  0  0  0
  189.9330  177.6790  138.4360 C   0  0  0  0  0  0  0  0  0  0  0  0
  190.0970  177.4990  137.2020 O   0  0  0  0  0  0  0  0  0  0  0  0
  187.3420  177.6870  144.4360 C   0  0  0  0  0  2  0  0  0  0  0  0
  185.9210  178.1430  144.5790 C   0  0  0  0  0  0  0  0  0  0  0  0
  185.0970  178.3850  143.4520 C   0  0  0  0  0  0  0  0  0  0  0  0
  184.0800  178.7440  146.0470 C   0  0  0  0  0  3  0  0  0  0  0  0
  185.3960  178.3150  145.8680 C   0  0  0  0  0  3  0  0  0  0  0  0
  183.2760  179.0050  144.9380 C   0  0  0  0  0  3  0  0  0  0  0  0
  183.7820  178.8220  143.6490 C   0  0  0  0  0  3  0  0  0  0  0  0
  186.8300  178.9560  141.7390 C   0  0  0  0  0  1  0  0  0  0  0  0
  185.5510  178.1870  142.0330 C   0  0  2  0  0  3  0  0  0  0  0  0
  184.4470  178.5260  141.0420 C   0  0  0  0  0  2  0  0  0  0  0  0
  184.9120  179.5280  140.0980 N   0  0  0  0  0  2  0  0  0  0  0  0
  184.0170  179.4830  138.9530 C   0  0  0  0  0  2  0  0  0  0  0  0
  183.8270  177.7670  138.3830 S   0  0  0  0  0  0  0  0  0  0  0  0
  185.5350  177.6910  137.7650 C   0  0  0  0  0  2  0  0  0  0  0  0
  185.6760  176.5700  136.7540 C   0  0  1  0  0  3  0  0  0  0  0  0
  186.9900  175.8570  136.9850 C   0  0  0  0  0  1  0  0  0  0  0  0
  184.6280  175.6620  136.9120 O   0  0  0  0  0  1  0  0  0  0  0  0
  1  4  1  0  0  0  0
  2  6  2  0  0  0  0
  3  7  1  0  0  0  0
  4  8  1  0  0  0  0
  4  7  2  0  0  0  0
  5 10  2  0  0  0  0
  5  1  1  0  0  0  0
  7  6  1  0  0  0  0
  8  2  1  0  0  0  0
  9  3  2  0  0  0  0
 10  8  1  0  0  0  0
 11  1  2  0  0  0  0
 11  9  1  0  0  0  0
 12  5  1  0  0  0  0
 13 12  1  0  0  0  0
 14 12  2  0  0  0  0
 15 14  1  0  0  0  0
 16 13  2  0  0  0  0
 17 15  2  0  0  0  0
 17 16  1  0  0  0  0
 19 17  1  0  0  0  0
 20 18  1  0  0  0  0
 20 19  1  0  0  0  0
 21 20  2  0  0  0  0
 22 23  1  0  0  0  0
 22 11  1  0  0  0  0
 23 26  1  0  0  0  0
 24 28  1  0  0  0  0
 24 23  2  0  0  0  0
 26 25  2  0  0  0  0
 27 25  1  0  0  0  0
 28 27  2  0  0  0  0
 30 29  1  6  0  0  0
 30 24  1  0  0  0  0
 31 30  1  0  0  0  0
 32 31  1  0  0  0  0
 33 32  1  0  0  0  0
 34 33  1  0  0  0  0
 35 34  1  0  0  0  0
 36 38  1  0  0  0  0
 36 37  1  1  0  0  0
 36 35  1  0  0  0  0
M  END
>  <MODEL>
2

>  <REMARK>
 VINA RESULT:      -9.5      1.881      2.638
  Name = 
  11 active torsions:
  status: ('A' for Active; 'I' for Inactive)
    1  A    between atoms: N_3  and  C_38
    2  A    between atoms: C_4  and  C_12
    3  A    between atoms: C_5  and  C_31
    4  A    between atoms: C_6  and  C_23
    5  A    between atoms: C_7  and  C_14
    6  A    between atoms: C_12  and  S_28
    7  A    between atoms: C_14  and  C_22
    8  A    between atoms: C_22  and  N_34
    9  A    between atoms: C_27  and  S_28
   10  A    between atoms: C_27  and  N_34
   11  A    between atoms: C_31  and  C_37
                            x       y       z     vdW  Elec       q    Type
                         _______ _______ _______ _____ _____    ______ ____

>  <TORSDO>
F 11

$$$$
=
 OpenBabel10232408063D

 38 42  0  0  1  0  0  0  0  0999 V2000
  189.3110  176.9940  145.8870 C   0  0  0  0  0  0  0  0  0  0  0  0
  191.5900  177.5870  148.2120 N   0  0  0  0  0  0  0  0  0  0  0  0
  188.0970  178.2810  148.0840 C   0  0  0  0  0  3  0  0  0  0  0  0
  189.8350  176.9690  147.1340 C   0  0  0  0  0  0  0  0  0  0  0  0
  190.4390  176.8660  145.0510 C   0  0  0  0  0  0  0  0  0  0  0  0
  190.4930  178.0450  148.8960 C   0  0  0  0  0  3  0  0  0  0  0  0
  189.3520  177.6720  148.1780 C   0  0  0  0  0  0  0  0  0  0  0  0
  191.1340  176.9230  147.1590 N   0  0  0  0  0  0  0  0  0  0  0  0
  187.4110  178.1710  146.8420 C   0  0  0  0  0  3  0  0  0  0  0  0
  191.5810  176.9080  145.8870 C   0  0  0  0  0  3  0  0  0  0  0  0
  188.0270  177.5600  145.7100 C   0  0  0  0  0  0  0  0  0  0  0  0
  190.4920  176.8950  143.5780 C   0  0  0  0  0  0  0  0  0  0  0  0
  191.5100  177.6040  142.9280 C   0  0  0  0  0  3  0  0  0  0  0  0
  189.5800  176.1560  142.8150 C   0  0  0  0  0  3  0  0  0  0  0  0
  189.6620  176.1530  141.4210 C   0  0  0  0  0  3  0  0  0  0  0  0
  191.5920  177.6010  141.5340 C   0  0  0  0  0  3  0  0  0  0  0  0
  190.6640  176.8800  140.7680 C   0  0  0  0  0  0  0  0  0  0  0  0
  188.9930  178.6820  138.8300 C   0  0  0  0  0  1  0  0  0  0  0  0
  190.7140  176.8470  139.3330 N   0  0  0  0  0  2  0  0  0  0  0  0
  189.9790  177.6510  138.3980 C   0  0  0  0  0  0  0  0  0  0  0  0
  190.1660  177.4780  137.1670 O   0  0  0  0  0  0  0  0  0  0  0  0
  187.3540  177.6290  144.3780 C   0  0  0  0  0  2  0  0  0  0  0  0
  185.9450  178.1260  144.5010 C   0  0  0  0  0  0  0  0  0  0  0  0
  185.1550  178.4230  143.3620 C   0  0  0  0  0  0  0  0  0  0  0  0
  184.0890  178.7470  145.9420 C   0  0  0  0  0  3  0  0  0  0  0  0
  185.3940  178.2810  145.7810 C   0  0  0  0  0  3  0  0  0  0  0  0
  183.3200  179.0620  144.8220 C   0  0  0  0  0  3  0  0  0  0  0  0
  183.8500  178.8960  143.5410 C   0  0  0  0  0  3  0  0  0  0  0  0
  186.8340  179.1350  141.6480 C   0  0  0  0  0  1  0  0  0  0  0  0
  185.6370  178.2480  141.9490 C   0  0  2  0  0  3  0  0  0  0  0  0
  184.5110  178.4580  140.9470 C   0  0  0  0  0  2  0  0  0  0  0  0
  184.8720  179.5000  140.0000 N   0  0  0  0  0  2  0  0  0  0  0  0
  183.7340  179.6840  139.1140 C   0  0  0  0  0  2  0  0  0  0  0  0
  183.3100  178.1060  138.3160 S   0  0  0  0  0  0  0  0  0  0  0  0
  181.6000  178.1530  138.9320 C   0  0  0  0  0  2  0  0  0  0  0  0
  181.0900  176.7460  139.1670 C   0  0  1  0  0  3  0  0  0  0  0  0
  182.2690  175.8190  139.3700 C   0  0  0  0  0  1  0  0  0  0  0  0
  180.2860  176.7220  140.3080 O   0  0  0  0  0  1  0  0  0  0  0  0
  1  4  1  0  0  0  0
  2  6  2  0  0  0  0
  3  7  1  0  0  0  0
  4  8  1  0  0  0  0
  4  7  2  0  0  0  0
  5  1  1  0  0  0  0
  5 10  2  0  0  0  0
  7  6  1  0  0  0  0
  8  2  1  0  0  0  0
  9  3  2  0  0  0  0
 10  8  1  0  0  0  0
 11  1  2  0  0  0  0
 11  9  1  0  0  0  0
 12  5  1  0  0  0  0
 13 12  1  0  0  0  0
 14 12  2  0  0  0  0
 15 14  1  0  0  0  0
 16 13  2  0  0  0  0
 17 15  2  0  0  0  0
 17 16  1  0  0  0  0
 19 17  1  0  0  0  0
 20 18  1  0  0  0  0
 20 19  1  0  0  0  0
 21 20  2  0  0  0  0
 22 23  1  0  0  0  0
 22 11  1  0  0  0  0
 23 26  1  0  0  0  0
 24 28  1  0  0  0  0
 24 23  2  0  0  0  0
 26 25  2  0  0  0  0
 27 25  1  0  0  0  0
 28 27  2  0  0  0  0
 30 29  1  6  0  0  0
 30 24  1  0  0  0  0
 31 30  1  0  0  0  0
 32 31  1  0  0  0  0
 33 32  1  0  0  0  0
 34 35  1  0  0  0  0
 34 33  1  0  0  0  0
 35 36  1  0  0  0  0
 36 37  1  1  0  0  0
 36 38  1  0  0  0  0
M  END
>  <MODEL>
3

>  <REMARK>
 VINA RESULT:      -9.3      2.184      3.005
  Name = 
  11 active torsions:
  status: ('A' for Active; 'I' for Inactive)
    1  A    between atoms: N_3  and  C_38
    2  A    between atoms: C_4  and  C_12
    3  A    between atoms: C_5  and  C_31
    4  A    between atoms: C_6  and  C_23
    5  A    between atoms: C_7  and  C_14
    6  A    between atoms: C_12  and  S_28
    7  A    between atoms: C_14  and  C_22
    8  A    between atoms: C_22  and  N_34
    9  A    between atoms: C_27  and  S_28
   10  A    between atoms: C_27  and  N_34
   11  A    between atoms: C_31  and  C_37
                            x       y       z     vdW  Elec       q    Type
                         _______ _______ _______ _____ _____    ______ ____

>  <TORSDO>
F 11

$$$$
=
 OpenBabel10232408063D

 38 42  0  0  1  0  0  0  0  0999 V2000
  187.2160  177.5060  144.9390 C   0  0  0  0  0  0  0  0  0  0  0  0
  189.1620  177.7720  147.6030 N   0  0  0  0  0  0  0  0  0  0  0  0
  185.7950  178.7810  147.0150 C   0  0  0  0  0  3  0  0  0  0  0  0
  187.5450  177.3700  146.2450 C   0  0  0  0  0  0  0  0  0  0  0  0
  188.4430  177.3200  144.2690 C   0  0  0  0  0  0  0  0  0  0  0  0
  188.0160  178.2900  148.1490 C   0  0  0  0  0  3  0  0  0  0  0  0
  186.9680  178.0580  147.2510 C   0  0  0  0  0  0  0  0  0  0  0  0
  188.8170  177.2060  146.4540 N   0  0  0  0  0  0  0  0  0  0  0  0
  185.2960  178.7970  145.6830 C   0  0  0  0  0  3  0  0  0  0  0  0
  189.4470  177.2180  145.2630 C   0  0  0  0  0  3  0  0  0  0  0  0
  186.0240  178.1930  144.6140 C   0  0  0  0  0  0  0  0  0  0  0  0
  188.7180  177.4210  142.8240 C   0  0  0  0  0  0  0  0  0  0  0  0
  188.0880  178.4100  142.0580 C   0  0  0  0  0  3  0  0  0  0  0  0
  189.6650  176.5880  142.2170 C   0  0  0  0  0  3  0  0  0  0  0  0
  189.9520  176.7170  140.8560 C   0  0  0  0  0  3  0  0  0  0  0  0
  188.3760  178.5390  140.6980 C   0  0  0  0  0  3  0  0  0  0  0  0
  189.3070  177.6890  140.0840 C   0  0  0  0  0  0  0  0  0  0  0  0
  187.2840  177.5030  137.7030 C   0  0  0  0  0  1  0  0  0  0  0  0
  189.6350  177.7900  138.6900 N   0  0  0  0  0  2  0  0  0  0  0  0
  188.7520  177.7190  137.5600 C   0  0  0  0  0  0  0  0  0  0  0  0
  189.2310  177.8370  136.4030 O   0  0  0  0  0  0  0  0  0  0  0  0
  185.5660  178.3910  143.2060 C   0  0  0  0  0  2  0  0  0  0  0  0
  184.0770  178.5540  143.1310 C   0  0  0  0  0  0  0  0  0  0  0  0
  183.3740  178.4470  141.9060 C   0  0  0  0  0  0  0  0  0  0  0  0
  181.9810  178.9670  144.2900 C   0  0  0  0  0  3  0  0  0  0  0  0
  183.3670  178.8020  144.3150 C   0  0  0  0  0  3  0  0  0  0  0  0
  181.2920  178.8860  143.0810 C   0  0  0  0  0  3  0  0  0  0  0  0
  181.9860  178.6220  141.8970 C   0  0  0  0  0  3  0  0  0  0  0  0
  184.4110  179.4060  139.8400 C   0  0  0  0  0  1  0  0  0  0  0  0
  184.0370  178.1390  140.5930 C   0  0  2  0  0  3  0  0  0  0  0  0
  183.1860  177.2070  139.7430 C   0  0  0  0  0  2  0  0  0  0  0  0
  183.3790  177.4980  138.3330 N   0  0  0  0  0  2  0  0  0  0  0  0
  182.1160  177.2280  137.6640 C   0  0  0  0  0  2  0  0  0  0  0  0
  180.8470  178.3910  138.2470 S   0  0  0  0  0  0  0  0  0  0  0  0
  181.1590  179.5520  136.8840 C   0  0  0  0  0  2  0  0  0  0  0  0
  180.7100  180.9470  137.2720 C   0  0  1  0  0  3  0  0  0  0  0  0
  181.6220  181.4760  138.3580 C   0  0  0  0  0  1  0  0  0  0  0  0
  180.7830  181.7890  136.1620 O   0  0  0  0  0  1  0  0  0  0  0  0
  1  4  1  0  0  0  0
  2  6  2  0  0  0  0
  3  7  1  0  0  0  0
  4  8  1  0  0  0  0
  4  7  2  0  0  0  0
  5  1  1  0  0  0  0
  5 10  2  0  0  0  0
  7  6  1  0  0  0  0
  8  2  1  0  0  0  0
  9  3  2  0  0  0  0
 10  8  1  0  0  0  0
 11  1  2  0  0  0  0
 11  9  1  0  0  0  0
 12  5  1  0  0  0  0
 13 12  2  0  0  0  0
 14 12  1  0  0  0  0
 15 14  2  0  0  0  0
 16 13  1  0  0  0  0
 17 16  2  0  0  0  0
 17 15  1  0  0  0  0
 19 17  1  0  0  0  0
 20 18  1  0  0  0  0
 20 19  1  0  0  0  0
 21 20  2  0  0  0  0
 22 11  1  0  0  0  0
 23 22  1  0  0  0  0
 23 26  1  0  0  0  0
 24 23  2  0  0  0  0
 25 26  2  0  0  0  0
 27 25  1  0  0  0  0
 28 24  1  0  0  0  0
 28 27  2  0  0  0  0
 30 29  1  6  0  0  0
 30 24  1  0  0  0  0
 31 30  1  0  0  0  0
 32 31  1  0  0  0  0
 33 34  1  0  0  0  0
 33 32  1  0  0  0  0
 35 36  1  0  0  0  0
 35 34  1  0  0  0  0
 36 37  1  1  0  0  0
 38 36  1  0  0  0  0
M  END
>  <MODEL>
4

>  <REMARK>
 VINA RESULT:      -9.3      2.043      3.025
  Name = 
  11 active torsions:
  status: ('A' for Active; 'I' for Inactive)
    1  A    between atoms: N_3  and  C_38
    2  A    between atoms: C_4  and  C_12
    3  A    between atoms: C_5  and  C_31
    4  A    between atoms: C_6  and  C_23
    5  A    between atoms: C_7  and  C_14
    6  A    between atoms: C_12  and  S_28
    7  A    between atoms: C_14  and  C_22
    8  A    between atoms: C_22  and  N_34
    9  A    between atoms: C_27  and  S_28
   10  A    between atoms: C_27  and  N_34
   11  A    between atoms: C_31  and  C_37
                            x       y       z     vdW  Elec       q    Type
                         _______ _______ _______ _____ _____    ______ ____

>  <TORSDO>
F 11

$$$$
=
 OpenBabel10232408063D

 38 42  0  0  1  0  0  0  0  0999 V2000
  186.0980  178.5140  143.7170 C   0  0  0  0  0  0  0  0  0  0  0  0
  184.1030  178.7880  146.3440 N   0  0  0  0  0  0  0  0  0  0  0  0
  187.3690  177.4100  145.9810 C   0  0  0  0  0  3  0  0  0  0  0  0
  185.7670  178.8540  144.9850 C   0  0  0  0  0  0  0  0  0  0  0  0
  184.9020  178.7160  142.9990 C   0  0  0  0  0  0  0  0  0  0  0  0
  185.1900  178.2480  146.9830 C   0  0  0  0  0  3  0  0  0  0  0  0
  186.2650  178.2610  146.0880 C   0  0  0  0  0  0  0  0  0  0  0  0
  184.5130  179.1590  145.1390 N   0  0  0  0  0  0  0  0  0  0  0  0
  187.8820  177.1680  144.6750 C   0  0  0  0  0  3  0  0  0  0  0  0
  183.9000  179.0420  143.9440 C   0  0  0  0  0  3  0  0  0  0  0  0
  187.2250  177.6850  143.5180 C   0  0  0  0  0  0  0  0  0  0  0  0
  184.6370  178.4450  141.5740 C   0  0  0  0  0  0  0  0  0  0  0  0
  183.5250  177.6780  141.2020 C   0  0  0  0  0  3  0  0  0  0  0  0
  185.4390  179.0120  140.5770 C   0  0  0  0  0  3  0  0  0  0  0  0
  185.1570  178.7860  139.2280 C   0  0  0  0  0  3  0  0  0  0  0  0
  183.2420  177.4530  139.8530 C   0  0  0  0  0  3  0  0  0  0  0  0
  184.0600  178.0010  138.8540 C   0  0  0  0  0  0  0  0  0  0  0  0
  184.9560  175.5250  137.1630 C   0  0  0  0  0  1  0  0  0  0  0  0
  183.8040  177.7980  137.4560 N   0  0  0  0  0  2  0  0  0  0  0  0
  184.1830  176.6840  136.6340 C   0  0  0  0  0  0  0  0  0  0  0  0
  183.8580  176.6840  135.4190 O   0  0  0  0  0  0  0  0  0  0  0  0
  187.6810  177.2570  142.1600 C   0  0  0  0  0  2  0  0  0  0  0  0
  189.1690  177.3740  142.0190 C   0  0  0  0  0  0  0  0  0  0  0  0
  189.8010  177.3780  140.7500 C   0  0  0  0  0  0  0  0  0  0  0  0
  191.3370  177.6070  143.0920 C   0  0  0  0  0  3  0  0  0  0  0  0
  189.9480  177.5020  143.1780 C   0  0  0  0  0  3  0  0  0  0  0  0
  191.9600  177.5860  141.8460 C   0  0  0  0  0  3  0  0  0  0  0  0
  191.1950  177.4770  140.6820 C   0  0  0  0  0  3  0  0  0  0  0  0
  189.6480  176.2420  138.5260 C   0  0  0  0  0  1  0  0  0  0  0  0
  189.0520  177.2930  139.4500 C   0  0  2  0  0  3  0  0  0  0  0  0
  188.9560  178.6510  138.7720 C   0  0  0  0  0  2  0  0  0  0  0  0
  189.1400  178.5110  137.3380 N   0  0  0  0  0  2  0  0  0  0  0  0
  187.8570  178.7880  136.7130 C   0  0  0  0  0  2  0  0  0  0  0  0
  187.5830  177.6410  135.3290 S   0  0  0  0  0  0  0  0  0  0  0  0
  189.3580  177.5230  134.9590 C   0  0  0  0  0  2  0  0  0  0  0  0
  189.7300  176.0910  134.6300 C   0  0  1  0  0  3  0  0  0  0  0  0
  191.1120  175.8010  135.1740 C   0  0  0  0  0  1  0  0  0  0  0  0
  188.8120  175.2210  135.2190 O   0  0  0  0  0  1  0  0  0  0  0  0
  1  4  1  0  0  0  0
  2  6  2  0  0  0  0
  3  7  1  0  0  0  0
  4  8  1  0  0  0  0
  4  7  2  0  0  0  0
  5  1  1  0  0  0  0
  5 10  2  0  0  0  0
  7  6  1  0  0  0  0
  8  2  1  0  0  0  0
  9  3  2  0  0  0  0
 10  8  1  0  0  0  0
 11  1  2  0  0  0  0
 11  9  1  0  0  0  0
 12  5  1  0  0  0  0
 13 12  1  0  0  0  0
 14 12  2  0  0  0  0
 15 14  1  0  0  0  0
 16 13  2  0  0  0  0
 17 15  2  0  0  0  0
 17 16  1  0  0  0  0
 19 17  1  0  0  0  0
 20 18  1  0  0  0  0
 20 19  1  0  0  0  0
 21 20  2  0  0  0  0
 22 11  1  0  0  0  0
 23 22  1  0  0  0  0
 23 26  1  0  0  0  0
 24 23  2  0  0  0  0
 25 26  2  0  0  0  0
 27 25  1  0  0  0  0
 28 24  1  0  0  0  0
 28 27  2  0  0  0  0
 30 29  1  6  0  0  0
 30 24  1  0  0  0  0
 31 30  1  0  0  0  0
 32 31  1  0  0  0  0
 33 32  1  0  0  0  0
 34 33  1  0  0  0  0
 35 34  1  0  0  0  0
 36 35  1  0  0  0  0
 36 37  1  1  0  0  0
 36 38  1  0  0  0  0
M  END
>  <MODEL>
5

>  <REMARK>
 VINA RESULT:      -9.1      2.267      5.553
  Name = 
  11 active torsions:
  status: ('A' for Active; 'I' for Inactive)
    1  A    between atoms: N_3  and  C_38
    2  A    between atoms: C_4  and  C_12
    3  A    between atoms: C_5  and  C_31
    4  A    between atoms: C_6  and  C_23
    5  A    between atoms: C_7  and  C_14
    6  A    between atoms: C_12  and  S_28
    7  A    between atoms: C_14  and  C_22
    8  A    between atoms: C_22  and  N_34
    9  A    between atoms: C_27  and  S_28
   10  A    between atoms: C_27  and  N_34
   11  A    between atoms: C_31  and  C_37
                            x       y       z     vdW  Elec       q    Type
                         _______ _______ _______ _____ _____    ______ ____

>  <TORSDO>
F 11

$$$$
=
 OpenBabel10232408063D

 38 42  0  0  1  0  0  0  0  0999 V2000
  184.8120  178.4220  138.7910 C   0  0  0  0  0  0  0  0  0  0  0  0
  182.5030  176.8770  136.9920 N   0  0  0  0  0  0  0  0  0  0  0  0
  182.4610  178.1400  140.3240 C   0  0  0  0  0  3  0  0  0  0  0  0
  183.5890  178.2540  138.2360 C   0  0  0  0  0  0  0  0  0  0  0  0
  185.6870  177.8690  137.8330 C   0  0  0  0  0  0  0  0  0  0  0  0
  181.7450  177.1240  138.1080 C   0  0  0  0  0  3  0  0  0  0  0  0
  182.4650  177.9940  138.9340 C   0  0  0  0  0  0  0  0  0  0  0  0
  183.6050  177.6040  137.1100 N   0  0  0  0  0  0  0  0  0  0  0  0
  183.6880  178.5080  140.9440 C   0  0  0  0  0  3  0  0  0  0  0  0
  184.8830  177.2860  136.8240 C   0  0  0  0  0  3  0  0  0  0  0  0
  184.8940  178.6130  140.1890 C   0  0  0  0  0  0  0  0  0  0  0  0
  187.1500  177.7100  137.9190 C   0  0  0  0  0  0  0  0  0  0  0  0
  187.9930  178.7700  137.5620 C   0  0  0  0  0  3  0  0  0  0  0  0
  187.7130  176.5340  138.4300 C   0  0  0  0  0  3  0  0  0  0  0  0
  189.0980  176.4060  138.5490 C   0  0  0  0  0  3  0  0  0  0  0  0
  189.3780  178.6420  137.6800 C   0  0  0  0  0  3  0  0  0  0  0  0
  189.9430  177.4550  138.1700 C   0  0  0  0  0  0  0  0  0  0  0  0
  191.7900  175.7910  136.2690 C   0  0  0  0  0  1  0  0  0  0  0  0
  191.3610  177.2820  138.3120 N   0  0  0  0  0  2  0  0  0  0  0  0
  192.2560  176.5390  137.4710 C   0  0  0  0  0  0  0  0  0  0  0  0
  193.4810  176.5100  137.7580 O   0  0  0  0  0  0  0  0  0  0  0  0
  186.1930  178.8160  140.9000 C   0  0  0  0  0  2  0  0  0  0  0  0
  186.0390  178.6480  142.3820 C   0  0  0  0  0  0  0  0  0  0  0  0
  186.8970  177.8050  143.1310 C   0  0  0  0  0  0  0  0  0  0  0  0
  184.8460  179.2310  144.4160 C   0  0  0  0  0  3  0  0  0  0  0  0
  185.0280  179.3630  143.0390 C   0  0  0  0  0  3  0  0  0  0  0  0
  185.6740  178.3820  145.1500 C   0  0  0  0  0  3  0  0  0  0  0  0
  186.6960  177.6780  144.5100 C   0  0  0  0  0  3  0  0  0  0  0  0
  188.3680  175.7910  143.3390 C   0  0  0  0  0  1  0  0  0  0  0  0
  188.0370  177.0330  142.5270 C   0  0  2  0  0  3  0  0  0  0  0  0
  189.2590  177.9150  142.3200 C   0  0  0  0  0  2  0  0  0  0  0  0
  190.3970  177.1080  141.9140 N   0  0  0  0  0  2  0  0  0  0  0  0
  191.5680  177.6550  142.5800 C   0  0  0  0  0  2  0  0  0  0  0  0
  191.1000  178.3300  144.2010 S   0  0  0  0  0  0  0  0  0  0  0  0
  191.6020  176.8170  145.0750 C   0  0  0  0  0  2  0  0  0  0  0  0
  191.2340  176.9130  146.5410 C   0  0  1  0  0  3  0  0  0  0  0  0
  189.7310  177.0390  146.6670 C   0  0  0  0  0  1  0  0  0  0  0  0
  191.6540  175.7610  147.2070 O   0  0  0  0  0  1  0  0  0  0  0  0
  1 11  1  0  0  0  0
  2  8  1  0  0  0  0
  2  6  2  0  0  0  0
  3  9  1  0  0  0  0
  4  1  2  0  0  0  0
  4  7  1  0  0  0  0
  5 12  1  0  0  0  0
  5  1  1  0  0  0  0
  6  7  1  0  0  0  0
  7  3  2  0  0  0  0
  8  4  1  0  0  0  0
 10  8  1  0  0  0  0
 10  5  2  0  0  0  0
 11 22  1  0  0  0  0
 11  9  2  0  0  0  0
 12 14  1  0  0  0  0
 13 16  1  0  0  0  0
 13 12  2  0  0  0  0
 14 15  2  0  0  0  0
 16 17  2  0  0  0  0
 17 19  1  0  0  0  0
 17 15  1  0  0  0  0
 18 20  1  0  0  0  0
 20 21  2  0  0  0  0
 20 19  1  0  0  0  0
 22 23  1  0  0  0  0
 23 26  2  0  0  0  0
 23 24  1  0  0  0  0
 24 28  2  0  0  0  0
 25 27  2  0  0  0  0
 26 25  1  0  0  0  0
 28 27  1  0  0  0  0
 30 24  1  0  0  0  0
 30 29  1  1  0  0  0
 31 30  1  0  0  0  0
 32 31  1  0  0  0  0
 32 33  1  0  0  0  0
 33 34  1  0  0  0  0
 34 35  1  0  0  0  0
 35 36  1  0  0  0  0
 36 37  1  6  0  0  0
 36 38  1  0  0  0  0
M  END
>  <MODEL>
6

>  <REMARK>
 VINA RESULT:      -8.9      3.202      7.271
  Name = 
  11 active torsions:
  status: ('A' for Active; 'I' for Inactive)
    1  A    between atoms: N_3  and  C_38
    2  A    between atoms: C_4  and  C_12
    3  A    between atoms: C_5  and  C_31
    4  A    between atoms: C_6  and  C_23
    5  A    between atoms: C_7  and  C_14
    6  A    between atoms: C_12  and  S_28
    7  A    between atoms: C_14  and  C_22
    8  A    between atoms: C_22  and  N_34
    9  A    between atoms: C_27  and  S_28
   10  A    between atoms: C_27  and  N_34
   11  A    between atoms: C_31  and  C_37
                            x       y       z     vdW  Elec       q    Type
                         _______ _______ _______ _____ _____    ______ ____

>  <TORSDO>
F 11

$$$$
=
 OpenBabel10232408063D

 38 42  0  0  1  0  0  0  0  0999 V2000
  189.0330  176.8260  144.0290 C   0  0  0  0  0  0  0  0  0  0  0  0
  191.7420  177.1420  145.9030 N   0  0  0  0  0  0  0  0  0  0  0  0
  188.2760  177.4490  146.6740 C   0  0  0  0  0  3  0  0  0  0  0  0
  189.8290  176.5850  145.0960 C   0  0  0  0  0  0  0  0  0  0  0  0
  189.9460  177.0140  142.9720 C   0  0  0  0  0  0  0  0  0  0  0  0
  190.8050  177.3100  146.8900 C   0  0  0  0  0  3  0  0  0  0  0  0
  189.5550  176.9790  146.3560 C   0  0  0  0  0  0  0  0  0  0  0  0
  191.0990  176.6810  144.8390 N   0  0  0  0  0  0  0  0  0  0  0  0
  187.3330  177.5400  145.6130 C   0  0  0  0  0  3  0  0  0  0  0  0
  191.2440  176.9990  143.5370 C   0  0  0  0  0  3  0  0  0  0  0  0
  187.7110  177.2690  144.2630 C   0  0  0  0  0  0  0  0  0  0  0  0
  189.6600  177.3750  141.5710 C   0  0  0  0  0  0  0  0  0  0  0  0
  190.1090  176.5530  140.5300 C   0  0  0  0  0  3  0  0  0  0  0  0
  188.8740  178.4930  141.2670 C   0  0  0  0  0  3  0  0  0  0  0  0
  188.5710  178.8050  139.9400 C   0  0  0  0  0  3  0  0  0  0  0  0
  189.8060  176.8650  139.2030 C   0  0  0  0  0  3  0  0  0  0  0  0
  189.0380  177.9980  138.8970 C   0  0  0  0  0  0  0  0  0  0  0  0
  186.5780  176.9350  137.2800 C   0  0  0  0  0  1  0  0  0  0  0  0
  188.6990  178.3540  137.5480 N   0  0  0  0  0  2  0  0  0  0  0  0
  187.5840  177.9050  136.7620 C   0  0  0  0  0  0  0  0  0  0  0  0
  187.4510  178.3390  135.5890 O   0  0  0  0  0  0  0  0  0  0  0  0
  186.7490  177.5560  143.1570 C   0  0  0  0  0  2  0  0  0  0  0  0
  185.4590  178.1120  143.6820 C   0  0  0  0  0  0  0  0  0  0  0  0
  184.3530  178.3660  142.8330 C   0  0  0  0  0  0  0  0  0  0  0  0
  184.1660  178.8920  145.5870 C   0  0  0  0  0  3  0  0  0  0  0  0
  185.3460  178.3690  145.0560 C   0  0  0  0  0  3  0  0  0  0  0  0
  183.0870  179.1640  144.7470 C   0  0  0  0  0  3  0  0  0  0  0  0
  183.1800  178.8980  143.3790 C   0  0  0  0  0  3  0  0  0  0  0  0
  184.9040  179.2580  140.5600 C   0  0  0  0  0  1  0  0  0  0  0  0
  184.3590  178.0830  141.3570 C   0  0  2  0  0  3  0  0  0  0  0  0
  182.9830  177.6580  140.8660 C   0  0  0  0  0  2  0  0  0  0  0  0
  182.4990  178.5890  139.8620 N   0  0  0  0  0  2  0  0  0  0  0  0
  181.1980  179.0610  140.3080 C   0  0  0  0  0  2  0  0  0  0  0  0
  180.2600  179.7180  138.8960 S   0  0  0  0  0  0  0  0  0  0  0  0
  181.6180  179.3970  137.7310 C   0  0  0  0  0  2  0  0  0  0  0  0
  181.0750  178.8180  136.4410 C   0  0  1  0  0  3  0  0  0  0  0  0
  180.7500  179.9490  135.4890 C   0  0  0  0  0  1  0  0  0  0  0  0
  182.0330  177.9890  135.8580 O   0  0  0  0  0  1  0  0  0  0  0  0
  1 11  2  0  0  0  0
  1  4  1  0  0  0  0
  2  6  2  0  0  0  0
  4  7  2  0  0  0  0
  5 10  2  0  0  0  0
  5  1  1  0  0  0  0
  7  3  1  0  0  0  0
  7  6  1  0  0  0  0
  8  4  1  0  0  0  0
  8  2  1  0  0  0  0
  9  3  2  0  0  0  0
 10  8  1  0  0  0  0
 11  9  1  0  0  0  0
 12  5  1  0  0  0  0
 13 12  2  0  0  0  0
 14 12  1  0  0  0  0
 15 14  2  0  0  0  0
 16 13  1  0  0  0  0
 17 16  2  0  0  0  0
 17 15  1  0  0  0  0
 19 17  1  0  0  0  0
 20 18  1  0  0  0  0
 20 19  1  0  0  0  0
 21 20  2  0  0  0  0
 22 23  1  0  0  0  0
 22 11  1  0  0  0  0
 23 26  1  0  0  0  0
 24 28  1  0  0  0  0
 24 23  2  0  0  0  0
 26 25  2  0  0  0  0
 27 25  1  0  0  0  0
 28 27  2  0  0  0  0
 30 29  1  6  0  0  0
 30 24  1  0  0  0  0
 31 30  1  0  0  0  0
 32 33  1  0  0  0  0
 32 31  1  0  0  0  0
 34 33  1  0  0  0  0
 35 34  1  0  0  0  0
 36 37  1  6  0  0  0
 36 35  1  0  0  0  0
 38 36  1  0  0  0  0
M  END
>  <MODEL>
7

>  <REMARK>
 VINA RESULT:      -8.7      2.282      3.301
  Name = 
  11 active torsions:
  status: ('A' for Active; 'I' for Inactive)
    1  A    between atoms: N_3  and  C_38
    2  A    between atoms: C_4  and  C_12
    3  A    between atoms: C_5  and  C_31
    4  A    between atoms: C_6  and  C_23
    5  A    between atoms: C_7  and  C_14
    6  A    between atoms: C_12  and  S_28
    7  A    between atoms: C_14  and  C_22
    8  A    between atoms: C_22  and  N_34
    9  A    between atoms: C_27  and  S_28
   10  A    between atoms: C_27  and  N_34
   11  A    between atoms: C_31  and  C_37
                            x       y       z     vdW  Elec       q    Type
                         _______ _______ _______ _____ _____    ______ ____

>  <TORSDO>
F 11

$$$$
=
 OpenBabel10232408063D

 38 42  0  0  1  0  0  0  0  0999 V2000
  183.8560  178.8800  139.8130 C   0  0  0  0  0  0  0  0  0  0  0  0
  181.0910  177.7470  138.3920 N   0  0  0  0  0  0  0  0  0  0  0  0
  181.8890  178.4580  141.7920 C   0  0  0  0  0  3  0  0  0  0  0  0
  182.5310  178.8570  139.5390 C   0  0  0  0  0  0  0  0  0  0  0  0
  184.4510  178.4520  138.6090 C   0  0  0  0  0  0  0  0  0  0  0  0
  180.6210  177.8430  139.6770 C   0  0  0  0  0  3  0  0  0  0  0  0
  181.5730  178.5370  140.4320 C   0  0  0  0  0  0  0  0  0  0  0  0
  182.2460  178.3970  138.3570 N   0  0  0  0  0  0  0  0  0  0  0  0
  183.2480  178.6680  142.1580 C   0  0  0  0  0  3  0  0  0  0  0  0
  183.4000  178.0740  137.7390 C   0  0  0  0  0  3  0  0  0  0  0  0
  184.2620  178.8410  141.1670 C   0  0  0  0  0  0  0  0  0  0  0  0
  185.8790  178.2170  138.3300 C   0  0  0  0  0  0  0  0  0  0  0  0
  186.3150  178.0420  137.0100 C   0  0  0  0  0  3  0  0  0  0  0  0
  186.8240  178.2440  139.3620 C   0  0  0  0  0  3  0  0  0  0  0  0
  188.1810  178.0640  139.0850 C   0  0  0  0  0  3  0  0  0  0  0  0
  187.6720  177.8620  136.7330 C   0  0  0  0  0  3  0  0  0  0  0  0
  188.6160  177.8660  137.7700 C   0  0  0  0  0  0  0  0  0  0  0  0
  190.1120  175.1250  137.5620 C   0  0  0  0  0  1  0  0  0  0  0  0
  190.0200  177.6880  137.5300 N   0  0  0  0  0  2  0  0  0  0  0  0
  190.7560  176.4610  137.4180 C   0  0  0  0  0  0  0  0  0  0  0  0
  191.9930  176.5090  137.1960 O   0  0  0  0  0  0  0  0  0  0  0  0
  185.6970  178.8700  141.5800 C   0  0  0  0  0  2  0  0  0  0  0  0
  185.8490  178.6500  143.0550 C   0  0  0  0  0  0  0  0  0  0  0  0
  186.8980  177.8610  143.5890 C   0  0  0  0  0  0  0  0  0  0  0  0
  185.0330  179.0760  145.3040 C   0  0  0  0  0  3  0  0  0  0  0  0
  184.9330  179.2590  143.9250 C   0  0  0  0  0  3  0  0  0  0  0  0
  186.0510  178.2800  145.8280 C   0  0  0  0  0  3  0  0  0  0  0  0
  186.9800  177.6810  144.9740 C   0  0  0  0  0  3  0  0  0  0  0  0
  188.3240  175.8280  143.2770 C   0  0  0  0  0  1  0  0  0  0  0  0
  187.9540  177.2040  142.7450 C   0  0  2  0  0  3  0  0  0  0  0  0
  189.1770  178.0960  142.5880 C   0  0  0  0  0  2  0  0  0  0  0  0
  190.2550  177.3610  141.9500 N   0  0  0  0  0  2  0  0  0  0  0  0
  191.4880  177.7440  142.6190 C   0  0  0  0  0  2  0  0  0  0  0  0
  191.1280  178.2920  144.3140 S   0  0  0  0  0  0  0  0  0  0  0  0
  191.5200  176.6630  145.0190 C   0  0  0  0  0  2  0  0  0  0  0  0
  191.5440  176.7400  146.5330 C   0  0  1  0  0  3  0  0  0  0  0  0
  190.1220  176.7670  147.0500 C   0  0  0  0  0  1  0  0  0  0  0  0
  192.1990  175.6220  147.0490 O   0  0  0  0  0  1  0  0  0  0  0  0
  1 11  1  0  0  0  0
  2  6  2  0  0  0  0
  3  9  1  0  0  0  0
  4  1  2  0  0  0  0
  4  7  1  0  0  0  0
  5  1  1  0  0  0  0
  6  7  1  0  0  0  0
  7  3  2  0  0  0  0
  8  2  1  0  0  0  0
  8  4  1  0  0  0  0
 10  8  1  0  0  0  0
 10  5  2  0  0  0  0
 11 22  1  0  0  0  0
 11  9  2  0  0  0  0
 12  5  1  0  0  0  0
 12 14  1  0  0  0  0
 13 12  2  0  0  0  0
 15 14  2  0  0  0  0
 16 13  1  0  0  0  0
 16 17  2  0  0  0  0
 17 15  1  0  0  0  0
 19 17  1  0  0  0  0
 20 19  1  0  0  0  0
 20 18  1  0  0  0  0
 21 20  2  0  0  0  0
 22 23  1  0  0  0  0
 23 24  2  0  0  0  0
 23 26  1  0  0  0  0
 24 28  1  0  0  0  0
 25 27  1  0  0  0  0
 26 25  2  0  0  0  0
 28 27  2  0  0  0  0
 30 29  1  1  0  0  0
 30 24  1  0  0  0  0
 31 30  1  0  0  0  0
 32 31  1  0  0  0  0
 32 33  1  0  0  0  0
 33 34  1  0  0  0  0
 34 35  1  0  0  0  0
 35 36  1  0  0  0  0
 36 38  1  0  0  0  0
 36 37  1  1  0  0  0
M  END
>  <MODEL>
8

>  <REMARK>
 VINA RESULT:      -8.6      3.104      7.142
  Name = 
  11 active torsions:
  status: ('A' for Active; 'I' for Inactive)
    1  A    between atoms: N_3  and  C_38
    2  A    between atoms: C_4  and  C_12
    3  A    between atoms: C_5  and  C_31
    4  A    between atoms: C_6  and  C_23
    5  A    between atoms: C_7  and  C_14
    6  A    between atoms: C_12  and  S_28
    7  A    between atoms: C_14  and  C_22
    8  A    between atoms: C_22  and  N_34
    9  A    between atoms: C_27  and  S_28
   10  A    between atoms: C_27  and  N_34
   11  A    between atoms: C_31  and  C_37
                            x       y       z     vdW  Elec       q    Type
                         _______ _______ _______ _____ _____    ______ ____

>  <TORSDO>
F 11

$$$$
=
 OpenBabel10232408063D

 38 42  0  0  1  0  0  0  0  0999 V2000
  190.6210  176.9360  138.6670 C   0  0  0  0  0  0  0  0  0  0  0  0
  193.8570  176.4110  139.1200 N   0  0  0  0  0  0  0  0  0  0  0  0
  191.6120  175.3240  136.5740 C   0  0  0  0  0  3  0  0  0  0  0  0
  191.9270  176.9110  138.3150 C   0  0  0  0  0  0  0  0  0  0  0  0
  190.6540  177.2700  140.0360 C   0  0  0  0  0  0  0  0  0  0  0  0
  193.7240  175.7680  137.9160 C   0  0  0  0  0  3  0  0  0  0  0  0
  192.4560  176.0670  137.4060 C   0  0  0  0  0  0  0  0  0  0  0  0
  192.7440  177.1080  139.3060 N   0  0  0  0  0  0  0  0  0  0  0  0
  190.2100  175.4630  136.7780 C   0  0  0  0  0  3  0  0  0  0  0  0
  192.0160  177.2880  140.4260 C   0  0  0  0  0  3  0  0  0  0  0  0
  189.6940  176.2410  137.8570 C   0  0  0  0  0  0  0  0  0  0  0  0
  189.5250  177.3780  140.9770 C   0  0  0  0  0  0  0  0  0  0  0  0
  189.4320  176.5000  142.0650 C   0  0  0  0  0  3  0  0  0  0  0  0
  188.5790  178.4010  140.8450 C   0  0  0  0  0  3  0  0  0  0  0  0
  187.5350  178.5240  141.7650 C   0  0  0  0  0  3  0  0  0  0  0  0
  188.3890  176.6230  142.9850 C   0  0  0  0  0  3  0  0  0  0  0  0
  187.4270  177.6340  142.8390 C   0  0  0  0  0  0  0  0  0  0  0  0
  187.6910  177.9990  145.9360 C   0  0  0  0  0  1  0  0  0  0  0  0
  186.3410  177.7990  143.7630 N   0  0  0  0  0  2  0  0  0  0  0  0
  186.4030  177.9770  145.1860 C   0  0  0  0  0  0  0  0  0  0  0  0
  185.3310  178.1130  145.8310 O   0  0  0  0  0  0  0  0  0  0  0  0
  188.2290  176.2110  138.1520 C   0  0  0  0  0  2  0  0  0  0  0  0
  187.4240  176.6810  136.9780 C   0  0  0  0  0  0  0  0  0  0  0  0
  186.3760  175.9000  136.4300 C   0  0  0  0  0  0  0  0  0  0  0  0
  186.9880  178.4120  135.3290 C   0  0  0  0  0  3  0  0  0  0  0  0
  187.7090  177.9380  136.4250 C   0  0  0  0  0  3  0  0  0  0  0  0
  185.9740  177.6320  134.7740 C   0  0  0  0  0  3  0  0  0  0  0  0
  185.6680  176.3860  135.3250 C   0  0  0  0  0  3  0  0  0  0  0  0
  186.7560  173.4270  136.3470 C   0  0  0  0  0  1  0  0  0  0  0  0
  185.9640  174.5620  136.9770 C   0  0  2  0  0  3  0  0  0  0  0  0
  184.4640  174.3450  136.8460 C   0  0  0  0  0  2  0  0  0  0  0  0
  183.7970  174.6850  138.0920 N   0  0  0  0  0  2  0  0  0  0  0  0
  182.7750  175.6700  137.7750 C   0  0  0  0  0  2  0  0  0  0  0  0
  182.4210  176.6860  139.2390 S   0  0  0  0  0  0  0  0  0  0  0  0
  183.8740  177.7440  138.9660 C   0  0  0  0  0  2  0  0  0  0  0  0
  183.7520  179.0190  139.7760 C   0  0  1  0  0  3  0  0  0  0  0  0
  183.9010  178.6890  141.2450 C   0  0  0  0  0  1  0  0  0  0  0  0
  184.7580  179.9100  139.4020 O   0  0  0  0  0  1  0  0  0  0  0  0
  1  5  1  0  0  0  0
  2  8  1  0  0  0  0
  3  9  2  0  0  0  0
  3  7  1  0  0  0  0
  4  1  1  0  0  0  0
  4  8  1  0  0  0  0
  5 10  2  0  0  0  0
  5 12  1  0  0  0  0
  6  2  2  0  0  0  0
  7  6  1  0  0  0  0
  7  4  2  0  0  0  0
  8 10  1  0  0  0  0
  9 11  1  0  0  0  0
 11 22  1  0  0  0  0
 11  1  2  0  0  0  0
 12 13  1  0  0  0  0
 13 16  2  0  0  0  0
 14 12  2  0  0  0  0
 14 15  1  0  0  0  0
 15 17  2  0  0  0  0
 17 16  1  0  0  0  0
 17 19  1  0  0  0  0
 19 20  1  0  0  0  0
 20 21  2  0  0  0  0
 20 18  1  0  0  0  0
 23 22  1  0  0  0  0
 24 30  1  0  0  0  0
 24 23  1  0  0  0  0
 25 26  1  0  0  0  0
 26 23  2  0  0  0  0
 27 28  1  0  0  0  0
 27 25  2  0  0  0  0
 28 24  2  0  0  0  0
 30 29  1  6  0  0  0
 31 30  1  0  0  0  0
 31 32  1  0  0  0  0
 33 32  1  0  0  0  0
 33 34  1  0  0  0  0
 35 34  1  0  0  0  0
 35 36  1  0  0  0  0
 36 37  1  1  0  0  0
 38 36  1  0  0  0  0
M  END
>  <MODEL>
9

>  <REMARK>
 VINA RESULT:      -8.5      2.904      7.324
  Name = 
  11 active torsions:
  status: ('A' for Active; 'I' for Inactive)
    1  A    between atoms: N_3  and  C_38
    2  A    between atoms: C_4  and  C_12
    3  A    between atoms: C_5  and  C_31
    4  A    between atoms: C_6  and  C_23
    5  A    between atoms: C_7  and  C_14
    6  A    between atoms: C_12  and  S_28
    7  A    between atoms: C_14  and  C_22
    8  A    between atoms: C_22  and  N_34
    9  A    between atoms: C_27  and  S_28
   10  A    between atoms: C_27  and  N_34
   11  A    between atoms: C_31  and  C_37
                            x       y       z     vdW  Elec       q    Type
                         _______ _______ _______ _____ _____    ______ ____

>  <TORSDO>
F 11

$$$$
