=
 OpenBabel10232407553D

 26 27  0  0  1  0  0  0  0  0999 V2000
  188.0720  177.5340  145.0810 C   0  0  0  0  0  0  0  0  0  0  0  0
  190.0090  176.8920  146.3520 N   0  0  0  0  0  0  0  0  0  0  0  0
  187.4610  177.7140  143.8370 C   0  0  0  0  0  3  0  0  0  0  0  0
  190.1170  176.8230  143.9520 C   0  0  0  0  0  0  0  0  0  0  0  0
  191.4410  176.3730  144.0470 C   0  0  0  0  0  3  0  0  0  0  0  0
  188.1640  177.4580  142.6600 C   0  0  0  0  0  3  0  0  0  0  0  0
  189.4020  177.0830  145.1460 C   0  0  0  0  0  0  0  0  0  0  0  0
  189.4950  177.0170  142.7030 C   0  0  0  0  0  0  0  0  0  0  0  0
  192.0320  176.1880  145.2960 C   0  0  0  0  0  3  0  0  0  0  0  0
  191.2930  176.4570  146.4490 C   0  0  0  0  0  0  0  0  0  0  0  0
  191.9100  176.2640  147.7860 C   0  0  0  0  0  1  0  0  0  0  0  0
  191.3520  177.5540  141.3120 O   0  0  0  0  0  1  0  0  0  0  0  0
  190.2250  176.7360  141.4200 C   0  0  2  0  0  3  0  0  0  0  0  0
  189.3080  176.9460  140.2280 C   0  0  0  0  0  2  0  0  0  0  0  0
  189.9060  177.8220  139.3180 O   0  0  0  0  0  0  0  0  0  0  0  0
  187.2140  178.4750  139.1150 O   0  0  0  0  0  1  0  0  0  0  0  0
  189.0260  179.6020  137.5960 O   0  0  0  0  0  1  0  0  0  0  0  0
  188.6650  178.2940  138.2640 P   0  0  0  0  0  0  0  0  0  0  0  0
  188.4660  177.1050  137.0790 O   0  0  0  0  0  0  0  0  0  0  0  0
  187.2800  177.8020  146.3200 C   0  0  0  0  0  2  0  0  0  0  0  0
  185.8270  177.8340  146.0030 C   0  0  0  0  0  3  0  0  0  0  0  0
  185.1950  178.9930  145.9110 C   0  0  0  0  0  3  0  0  0  0  0  0
  183.8000  179.0230  145.6080 N   0  0  0  0  0  2  0  0  0  0  0  0
  183.2860  178.9690  144.2730 C   0  0  0  0  0  0  0  0  0  0  0  0
  181.9950  178.7720  144.0310 C   0  0  0  0  0  2  0  0  0  0  0  0
  184.2190  179.1370  143.1280 C   0  0  0  0  0  1  0  0  0  0  0  0
  1  7  1  0  0  0  0
  1 20  1  0  0  0  0
  2 10  1  0  0  0  0
  3  1  2  0  0  0  0
  4  5  2  0  0  0  0
  4  7  1  0  0  0  0
  5  9  1  0  0  0  0
  6  8  2  0  0  0  0
  6  3  1  0  0  0  0
  7  2  2  0  0  0  0
  8  4  1  0  0  0  0
  9 10  2  0  0  0  0
 10 11  1  0  0  0  0
 13 12  1  6  0  0  0
 13  8  1  0  0  0  0
 14 13  1  0  0  0  0
 15 14  1  0  0  0  0
 17 18  1  0  0  0  0
 18 16  1  0  0  0  0
 18 15  1  0  0  0  0
 19 18  2  0  0  0  0
 21 20  1  0  0  0  0
 22 21  2  0  0  0  0
 23 22  1  0  0  0  0
 24 23  1  0  0  0  0
 25 24  2  0  0  0  0
 26 24  1  0  0  0  0
M  END
>  <MODEL>
1

>  <REMARK>
 VINA RESULT:      -8.5      0.000      0.000
  Name = 
  8 active torsions:
  status: ('A' for Active; 'I' for Inactive)
    1  A    between atoms: C_1  and  C_13
    2  A    between atoms: N_4  and  C_7
    3  A    between atoms: N_4  and  C_17
    4  A    between atoms: C_8  and  C_13
    5  A    between atoms: O_9  and  C_11
    6  A    between atoms: O_9  and  P_23
    7  A    between atoms: C_11  and  C_20
    8  A    between atoms: C_19  and  C_20
                            x       y       z     vdW  Elec       q    Type
                         _______ _______ _______ _____ _____    ______ ____

>  <TORSDO>
F 8

$$$$
=
 OpenBabel10232407553D

 26 27  0  0  1  0  0  0  0  0999 V2000
  185.7790  178.3320  144.6690 C   0  0  0  0  0  0  0  0  0  0  0  0
  186.9830  178.0800  146.7350 N   0  0  0  0  0  0  0  0  0  0  0  0
  185.7660  178.2570  143.2740 C   0  0  0  0  0  3  0  0  0  0  0  0
  188.1230  177.6480  144.6640 C   0  0  0  0  0  0  0  0  0  0  0  0
  189.2820  177.3440  145.3910 C   0  0  0  0  0  3  0  0  0  0  0  0
  186.9150  177.8880  142.5740 C   0  0  0  0  0  3  0  0  0  0  0  0
  186.9570  178.0220  145.3730 C   0  0  0  0  0  0  0  0  0  0  0  0
  188.1020  177.5850  143.2570 C   0  0  0  0  0  0  0  0  0  0  0  0
  189.2750  177.4120  146.7840 C   0  0  0  0  0  3  0  0  0  0  0  0
  188.1040  177.7860  147.4450 C   0  0  0  0  0  0  0  0  0  0  0  0
  188.0830  177.8630  148.9280 C   0  0  0  0  0  1  0  0  0  0  0  0
  190.3390  178.1210  142.6380 O   0  0  0  0  0  1  0  0  0  0  0  0
  189.3220  177.1780  142.4800 C   0  0  2  0  0  3  0  0  0  0  0  0
  188.9850  177.0120  141.0080 C   0  0  0  0  0  2  0  0  0  0  0  0
  189.4990  178.0880  140.2800 O   0  0  0  0  0  0  0  0  0  0  0  0
  186.9480  178.4490  139.2400 O   0  0  0  0  0  1  0  0  0  0  0  0
  189.0860  179.2580  137.9620 O   0  0  0  0  0  0  0  0  0  0  0  0
  188.5710  178.1570  138.8610 P   0  0  0  0  0  0  0  0  0  0  0  0
  188.6920  176.6780  138.0510 O   0  0  0  0  0  1  0  0  0  0  0  0
  184.5240  178.7140  145.3840 C   0  0  0  0  0  2  0  0  0  0  0  0
  183.5580  179.3260  144.4320 C   0  0  0  0  0  3  0  0  0  0  0  0
  182.4150  178.7140  144.1650 C   0  0  0  0  0  3  0  0  0  0  0  0
  181.4880  179.3010  143.2510 N   0  0  0  0  0  2  0  0  0  0  0  0
  181.3510  178.8750  141.8910 C   0  0  0  0  0  0  0  0  0  0  0  0
  180.1670  178.8330  141.2910 C   0  0  0  0  0  2  0  0  0  0  0  0
  182.5620  178.4700  141.1310 C   0  0  0  0  0  1  0  0  0  0  0  0
  1  7  1  0  0  0  0
  1 20  1  0  0  0  0
  2 10  1  0  0  0  0
  3  1  2  0  0  0  0
  4  7  1  0  0  0  0
  4  5  2  0  0  0  0
  5  9  1  0  0  0  0
  6  8  2  0  0  0  0
  6  3  1  0  0  0  0
  7  2  2  0  0  0  0
  8  4  1  0  0  0  0
  9 10  2  0  0  0  0
 10 11  1  0  0  0  0
 13 12  1  6  0  0  0
 13  8  1  0  0  0  0
 14 13  1  0  0  0  0
 15 14  1  0  0  0  0
 17 18  2  0  0  0  0
 18 16  1  0  0  0  0
 18 15  1  0  0  0  0
 19 18  1  0  0  0  0
 21 20  1  0  0  0  0
 22 21  2  0  0  0  0
 23 22  1  0  0  0  0
 24 23  1  0  0  0  0
 25 24  2  0  0  0  0
 26 24  1  0  0  0  0
M  END
>  <MODEL>
2

>  <REMARK>
 VINA RESULT:      -8.3      1.686      2.514
  Name = 
  8 active torsions:
  status: ('A' for Active; 'I' for Inactive)
    1  A    between atoms: C_1  and  C_13
    2  A    between atoms: N_4  and  C_7
    3  A    between atoms: N_4  and  C_17
    4  A    between atoms: C_8  and  C_13
    5  A    between atoms: O_9  and  C_11
    6  A    between atoms: O_9  and  P_23
    7  A    between atoms: C_11  and  C_20
    8  A    between atoms: C_19  and  C_20
                            x       y       z     vdW  Elec       q    Type
                         _______ _______ _______ _____ _____    ______ ____

>  <TORSDO>
F 8

$$$$
=
 OpenBabel10232407553D

 26 27  0  0  1  0  0  0  0  0999 V2000
  186.4260  178.0830  144.1650 C   0  0  0  0  0  0  0  0  0  0  0  0
  187.3130  177.8770  146.3900 N   0  0  0  0  0  0  0  0  0  0  0  0
  186.6250  178.0040  142.7840 C   0  0  0  0  0  3  0  0  0  0  0  0
  188.7650  177.4770  144.5180 C   0  0  0  0  0  0  0  0  0  0  0  0
  189.8110  177.2150  145.4130 C   0  0  0  0  0  3  0  0  0  0  0  0
  187.8780  177.6720  142.2680 C   0  0  0  0  0  3  0  0  0  0  0  0
  187.4930  177.8150  145.0400 C   0  0  0  0  0  0  0  0  0  0  0  0
  188.9580  177.4110  143.1230 C   0  0  0  0  0  0  0  0  0  0  0  0
  189.5920  177.2860  146.7890 C   0  0  0  0  0  3  0  0  0  0  0  0
  188.3240  177.6230  147.2630 C   0  0  0  0  0  0  0  0  0  0  0  0
  188.0770  177.7030  148.7250 C   0  0  0  0  0  1  0  0  0  0  0  0
  191.1750  178.1210  142.6230 O   0  0  0  0  0  1  0  0  0  0  0  0
  190.2930  177.0420  142.5410 C   0  0  2  0  0  3  0  0  0  0  0  0
  190.1400  176.5980  141.0970 C   0  0  0  0  0  2  0  0  0  0  0  0
  190.7440  177.5300  140.2490 O   0  0  0  0  0  0  0  0  0  0  0  0
  190.6490  177.2010  137.4920 O   0  0  0  0  0  0  0  0  0  0  0  0
  188.6010  176.6280  139.0210 O   0  0  0  0  0  1  0  0  0  0  0  0
  189.7540  177.5950  138.8730 P   0  0  0  0  0  0  0  0  0  0  0  0
  189.1440  179.1630  138.7080 O   0  0  0  0  0  1  0  0  0  0  0  0
  185.0660  178.4250  144.6810 C   0  0  0  0  0  2  0  0  0  0  0  0
  184.1010  178.5270  143.5520 C   0  0  0  0  0  3  0  0  0  0  0  0
  182.8910  179.0230  143.7590 C   0  0  0  0  0  3  0  0  0  0  0  0
  181.9660  179.1200  142.6770 N   0  0  0  0  0  2  0  0  0  0  0  0
  180.6400  178.5830  142.7260 C   0  0  0  0  0  0  0  0  0  0  0  0
  179.9830  178.2470  141.6220 C   0  0  0  0  0  2  0  0  0  0  0  0
  179.9820  178.3960  144.0460 C   0  0  0  0  0  1  0  0  0  0  0  0
  1 20  1  0  0  0  0
  1  7  1  0  0  0  0
  2 10  1  0  0  0  0
  3  1  2  0  0  0  0
  4  7  1  0  0  0  0
  4  5  2  0  0  0  0
  5  9  1  0  0  0  0
  6  3  1  0  0  0  0
  6  8  2  0  0  0  0
  7  2  2  0  0  0  0
  8  4  1  0  0  0  0
  9 10  2  0  0  0  0
 10 11  1  0  0  0  0
 13 12  1  6  0  0  0
 13  8  1  0  0  0  0
 14 13  1  0  0  0  0
 15 14  1  0  0  0  0
 16 18  2  0  0  0  0
 18 17  1  0  0  0  0
 18 15  1  0  0  0  0
 19 18  1  0  0  0  0
 21 22  2  0  0  0  0
 21 20  1  0  0  0  0
 23 24  1  0  0  0  0
 23 22  1  0  0  0  0
 24 26  1  0  0  0  0
 25 24  2  0  0  0  0
M  END
>  <MODEL>
3

>  <REMARK>
 VINA RESULT:      -8.2      1.677      2.677
  Name = 
  8 active torsions:
  status: ('A' for Active; 'I' for Inactive)
    1  A    between atoms: C_1  and  C_13
    2  A    between atoms: N_4  and  C_7
    3  A    between atoms: N_4  and  C_17
    4  A    between atoms: C_8  and  C_13
    5  A    between atoms: O_9  and  C_11
    6  A    between atoms: O_9  and  P_23
    7  A    between atoms: C_11  and  C_20
    8  A    between atoms: C_19  and  C_20
                            x       y       z     vdW  Elec       q    Type
                         _______ _______ _______ _____ _____    ______ ____

>  <TORSDO>
F 8

$$$$
=
 OpenBabel10232407553D

 26 27  0  0  1  0  0  0  0  0999 V2000
  187.0550  178.0040  143.1290 C   0  0  0  0  0  0  0  0  0  0  0  0
  184.7770  178.6110  143.5980 N   0  0  0  0  0  0  0  0  0  0  0  0
  188.3080  177.5980  143.5970 C   0  0  0  0  0  3  0  0  0  0  0  0
  186.2300  178.0460  145.4260 C   0  0  0  0  0  0  0  0  0  0  0  0
  185.1680  178.2730  146.3120 C   0  0  0  0  0  3  0  0  0  0  0  0
  188.5280  177.4210  144.9640 C   0  0  0  0  0  3  0  0  0  0  0  0
  186.0080  178.2260  144.0400 C   0  0  0  0  0  0  0  0  0  0  0  0
  187.5000  177.6460  145.8900 C   0  0  0  0  0  0  0  0  0  0  0  0
  183.9210  178.6670  145.8260 C   0  0  0  0  0  3  0  0  0  0  0  0
  183.7440  178.8330  144.4520 C   0  0  0  0  0  0  0  0  0  0  0  0
  182.4210  179.2530  143.9220 C   0  0  0  0  0  1  0  0  0  0  0  0
  187.8910  178.6620  148.0080 O   0  0  0  0  0  1  0  0  0  0  0  0
  187.7600  177.4350  147.3540 C   0  0  2  0  0  3  0  0  0  0  0  0
  189.0100  176.5970  147.5580 C   0  0  0  0  0  2  0  0  0  0  0  0
  190.0800  177.4210  147.9160 O   0  0  0  0  0  0  0  0  0  0  0  0
  192.7320  176.8560  148.5170 O   0  0  0  0  0  1  0  0  0  0  0  0
  191.1870  175.1110  147.3230 O   0  0  0  0  0  1  0  0  0  0  0  0
  191.4740  176.5920  147.4180 P   0  0  0  0  0  0  0  0  0  0  0  0
  191.9400  177.1640  145.8960 O   0  0  0  0  0  0  0  0  0  0  0  0
  186.8530  178.1660  141.6570 C   0  0  0  0  0  2  0  0  0  0  0  0
  188.1500  178.4660  140.9910 C   0  0  0  0  0  3  0  0  0  0  0  0
  188.5970  177.6750  140.0290 C   0  0  0  0  0  3  0  0  0  0  0  0
  189.8420  177.9620  139.3910 N   0  0  0  0  0  2  0  0  0  0  0  0
  191.0500  177.2470  139.6700 C   0  0  0  0  0  0  0  0  0  0  0  0
  191.6220  176.4640  138.7620 C   0  0  0  0  0  2  0  0  0  0  0  0
  191.6820  177.3840  141.0080 C   0  0  0  0  0  1  0  0  0  0  0  0
  1  3  2  0  0  0  0
  1  7  1  0  0  0  0
  2  7  2  0  0  0  0
  2 10  1  0  0  0  0
  3  6  1  0  0  0  0
  4  8  1  0  0  0  0
  4  5  2  0  0  0  0
  6  8  2  0  0  0  0
  7  4  1  0  0  0  0
  8 13  1  0  0  0  0
  9  5  1  0  0  0  0
 10  9  2  0  0  0  0
 11 10  1  0  0  0  0
 13 14  1  0  0  0  0
 13 12  1  1  0  0  0
 14 15  1  0  0  0  0
 17 18  1  0  0  0  0
 18 15  1  0  0  0  0
 18 16  1  0  0  0  0
 19 18  2  0  0  0  0
 20  1  1  0  0  0  0
 21 20  1  0  0  0  0
 22 21  2  0  0  0  0
 23 24  1  0  0  0  0
 23 22  1  0  0  0  0
 24 26  1  0  0  0  0
 25 24  2  0  0  0  0
M  END
>  <MODEL>
4

>  <REMARK>
 VINA RESULT:      -8.1      4.415      7.599
  Name = 
  8 active torsions:
  status: ('A' for Active; 'I' for Inactive)
    1  A    between atoms: C_1  and  C_13
    2  A    between atoms: N_4  and  C_7
    3  A    between atoms: N_4  and  C_17
    4  A    between atoms: C_8  and  C_13
    5  A    between atoms: O_9  and  C_11
    6  A    between atoms: O_9  and  P_23
    7  A    between atoms: C_11  and  C_20
    8  A    between atoms: C_19  and  C_20
                            x       y       z     vdW  Elec       q    Type
                         _______ _______ _______ _____ _____    ______ ____

>  <TORSDO>
F 8

$$$$
=
 OpenBabel10232407553D

 26 27  0  0  1  0  0  0  0  0999 V2000
  187.1920  178.0430  143.0080 C   0  0  0  0  0  0  0  0  0  0  0  0
  184.9090  178.5600  143.5540 N   0  0  0  0  0  0  0  0  0  0  0  0
  188.4730  177.6790  143.4340 C   0  0  0  0  0  3  0  0  0  0  0  0
  186.4370  178.0290  145.3300 C   0  0  0  0  0  0  0  0  0  0  0  0
  185.3950  178.2070  146.2510 C   0  0  0  0  0  3  0  0  0  0  0  0
  188.7410  177.4950  144.7910 C   0  0  0  0  0  3  0  0  0  0  0  0
  186.1660  178.2150  143.9540 C   0  0  0  0  0  0  0  0  0  0  0  0
  187.7340  177.6720  145.7500 C   0  0  0  0  0  0  0  0  0  0  0  0
  184.1200  178.5590  145.8080 C   0  0  0  0  0  3  0  0  0  0  0  0
  183.8940  178.7330  144.4420 C   0  0  0  0  0  0  0  0  0  0  0  0
  182.5410  179.1090  143.9570 C   0  0  0  0  0  1  0  0  0  0  0  0
  187.4160  178.4220  147.9880 O   0  0  0  0  0  1  0  0  0  0  0  0
  188.0470  177.4550  147.2030 C   0  0  2  0  0  3  0  0  0  0  0  0
  189.5480  177.4890  147.4360 C   0  0  0  0  0  2  0  0  0  0  0  0
  190.0490  176.1860  147.4850 O   0  0  0  0  0  0  0  0  0  0  0  0
  192.2150  174.8570  146.3630 O   0  0  0  0  0  1  0  0  0  0  0  0
  191.8550  177.4300  146.0330 O   0  0  0  0  0  0  0  0  0  0  0  0
  191.6810  176.3130  147.0380 P   0  0  0  0  0  0  0  0  0  0  0  0
  192.6030  176.6570  148.4130 O   0  0  0  0  0  1  0  0  0  0  0  0
  186.9380  178.2130  141.5460 C   0  0  0  0  0  2  0  0  0  0  0  0
  188.2280  178.2970  140.8080 C   0  0  0  0  0  3  0  0  0  0  0  0
  188.2690  178.0210  139.5140 C   0  0  0  0  0  3  0  0  0  0  0  0
  189.5070  178.1010  138.8070 N   0  0  0  0  0  2  0  0  0  0  0  0
  190.4100  176.9970  138.6780 C   0  0  0  0  0  0  0  0  0  0  0  0
  191.5550  176.9520  139.3490 C   0  0  0  0  0  2  0  0  0  0  0  0
  190.0570  175.8740  137.7710 C   0  0  0  0  0  1  0  0  0  0  0  0
  1  3  2  0  0  0  0
  1  7  1  0  0  0  0
  2  7  2  0  0  0  0
  2 10  1  0  0  0  0
  3  6  1  0  0  0  0
  4  8  1  0  0  0  0
  4  5  2  0  0  0  0
  6  8  2  0  0  0  0
  7  4  1  0  0  0  0
  8 13  1  0  0  0  0
  9  5  1  0  0  0  0
 10  9  2  0  0  0  0
 11 10  1  0  0  0  0
 13 14  1  0  0  0  0
 13 12  1  1  0  0  0
 14 15  1  0  0  0  0
 16 18  1  0  0  0  0
 17 18  2  0  0  0  0
 18 15  1  0  0  0  0
 18 19  1  0  0  0  0
 20  1  1  0  0  0  0
 21 20  1  0  0  0  0
 22 21  2  0  0  0  0
 23 22  1  0  0  0  0
 24 23  1  0  0  0  0
 24 25  2  0  0  0  0
 26 24  1  0  0  0  0
M  END
>  <MODEL>
5

>  <REMARK>
 VINA RESULT:      -7.7      4.408      7.527
  Name = 
  8 active torsions:
  status: ('A' for Active; 'I' for Inactive)
    1  A    between atoms: C_1  and  C_13
    2  A    between atoms: N_4  and  C_7
    3  A    between atoms: N_4  and  C_17
    4  A    between atoms: C_8  and  C_13
    5  A    between atoms: O_9  and  C_11
    6  A    between atoms: O_9  and  P_23
    7  A    between atoms: C_11  and  C_20
    8  A    between atoms: C_19  and  C_20
                            x       y       z     vdW  Elec       q    Type
                         _______ _______ _______ _____ _____    ______ ____

>  <TORSDO>
F 8

$$$$
=
 OpenBabel10232407553D

 26 27  0  0  1  0  0  0  0  0999 V2000
  187.3180  177.7270  144.1190 C   0  0  0  0  0  0  0  0  0  0  0  0
  185.0180  178.3740  143.8490 N   0  0  0  0  0  0  0  0  0  0  0  0
  188.5800  177.5260  143.5530 C   0  0  0  0  0  3  0  0  0  0  0  0
  186.4630  178.3870  141.9290 C   0  0  0  0  0  0  0  0  0  0  0  0
  185.3830  178.8220  141.1470 C   0  0  0  0  0  3  0  0  0  0  0  0
  188.7880  177.7460  142.1910 C   0  0  0  0  0  3  0  0  0  0  0  0
  186.2530  178.1630  143.3110 C   0  0  0  0  0  0  0  0  0  0  0  0
  187.7370  178.1720  141.3660 C   0  0  0  0  0  0  0  0  0  0  0  0
  184.1330  179.0280  141.7300 C   0  0  0  0  0  3  0  0  0  0  0  0
  183.9680  178.7960  143.0960 C   0  0  0  0  0  0  0  0  0  0  0  0
  182.6420  179.0110  143.7290 C   0  0  0  0  0  1  0  0  0  0  0  0
  187.2820  177.4950  139.1290 O   0  0  0  0  0  1  0  0  0  0  0  0
  187.9910  178.4140  139.9050 C   0  0  2  0  0  3  0  0  0  0  0  0
  189.4760  178.3230  139.6010 C   0  0  0  0  0  2  0  0  0  0  0  0
  189.6660  177.8100  138.3150 O   0  0  0  0  0  0  0  0  0  0  0  0
  192.1730  176.7360  137.7920 O   0  0  0  0  0  1  0  0  0  0  0  0
  190.8590  176.1660  139.9840 O   0  0  0  0  0  1  0  0  0  0  0  0
  190.6680  176.4560  138.5120 P   0  0  0  0  0  0  0  0  0  0  0  0
  189.9410  175.1210  137.7740 O   0  0  0  0  0  0  0  0  0  0  0  0
  187.1380  177.4980  145.5840 C   0  0  0  0  0  2  0  0  0  0  0  0
  188.3900  176.9510  146.1750 C   0  0  0  0  0  3  0  0  0  0  0  0
  189.0690  177.6610  147.0610 C   0  0  0  0  0  3  0  0  0  0  0  0
  190.2700  177.1370  147.6270 N   0  0  0  0  0  2  0  0  0  0  0  0
  191.3230  176.5650  146.8430 C   0  0  0  0  0  0  0  0  0  0  0  0
  192.0520  175.5500  147.2910 C   0  0  0  0  0  2  0  0  0  0  0  0
  191.6060  177.1210  145.4940 C   0  0  0  0  0  1  0  0  0  0  0  0
  1 20  1  0  0  0  0
  3  1  1  0  0  0  0
  4  7  1  0  0  0  0
  5  9  2  0  0  0  0
  5  4  1  0  0  0  0
  6  3  2  0  0  0  0
  7  2  1  0  0  0  0
  7  1  2  0  0  0  0
  8  4  2  0  0  0  0
  8  6  1  0  0  0  0
  9 10  1  0  0  0  0
 10 11  1  0  0  0  0
 10  2  2  0  0  0  0
 13 12  1  6  0  0  0
 13  8  1  0  0  0  0
 14 13  1  0  0  0  0
 15 18  1  0  0  0  0
 15 14  1  0  0  0  0
 16 18  1  0  0  0  0
 18 17  1  0  0  0  0
 19 18  2  0  0  0  0
 20 21  1  0  0  0  0
 21 22  2  0  0  0  0
 22 23  1  0  0  0  0
 24 25  2  0  0  0  0
 24 23  1  0  0  0  0
 26 24  1  0  0  0  0
M  END
>  <MODEL>
6

>  <REMARK>
 VINA RESULT:      -7.5      1.621      5.651
  Name = 
  8 active torsions:
  status: ('A' for Active; 'I' for Inactive)
    1  A    between atoms: C_1  and  C_13
    2  A    between atoms: N_4  and  C_7
    3  A    between atoms: N_4  and  C_17
    4  A    between atoms: C_8  and  C_13
    5  A    between atoms: O_9  and  C_11
    6  A    between atoms: O_9  and  P_23
    7  A    between atoms: C_11  and  C_20
    8  A    between atoms: C_19  and  C_20
                            x       y       z     vdW  Elec       q    Type
                         _______ _______ _______ _____ _____    ______ ____

>  <TORSDO>
F 8

$$$$
=
 OpenBabel10232407553D

 26 27  0  0  1  0  0  0  0  0999 V2000
  187.5130  177.5580  145.2400 C   0  0  0  0  0  0  0  0  0  0  0  0
  185.2550  178.2540  144.7980 N   0  0  0  0  0  0  0  0  0  0  0  0
  188.7690  177.1860  144.7530 C   0  0  0  0  0  3  0  0  0  0  0  0
  186.7200  177.8130  142.9450 C   0  0  0  0  0  0  0  0  0  0  0  0
  185.6740  178.1390  142.0700 C   0  0  0  0  0  3  0  0  0  0  0  0
  189.0040  177.1210  143.3790 C   0  0  0  0  0  3  0  0  0  0  0  0
  186.4820  177.8780  144.3390 C   0  0  0  0  0  0  0  0  0  0  0  0
  187.9870  177.4270  142.4640 C   0  0  0  0  0  0  0  0  0  0  0  0
  184.4300  178.5190  142.5730 C   0  0  0  0  0  3  0  0  0  0  0  0
  184.2380  178.5710  143.9540 C   0  0  0  0  0  0  0  0  0  0  0  0
  182.9180  178.9740  144.5030 C   0  0  0  0  0  1  0  0  0  0  0  0
  189.5420  176.8320  140.7610 O   0  0  0  0  0  1  0  0  0  0  0  0
  188.2700  177.3620  140.9900 C   0  0  2  0  0  3  0  0  0  0  0  0
  188.1560  178.7410  140.3640 C   0  0  0  0  0  2  0  0  0  0  0  0
  188.7550  178.7400  139.1020 O   0  0  0  0  0  0  0  0  0  0  0  0
  186.0070  178.6550  138.7100 O   0  0  0  0  0  1  0  0  0  0  0  0
  187.6650  179.1470  136.7440 O   0  0  0  0  0  0  0  0  0  0  0  0
  187.5160  178.3400  138.0140 P   0  0  0  0  0  0  0  0  0  0  0  0
  187.6210  176.6950  137.6410 O   0  0  0  0  0  1  0  0  0  0  0  0
  187.3040  177.6330  146.7180 C   0  0  0  0  0  2  0  0  0  0  0  0
  188.4850  177.0740  147.4310 C   0  0  0  0  0  3  0  0  0  0  0  0
  189.6440  177.7120  147.3920 C   0  0  0  0  0  3  0  0  0  0  0  0
  190.7770  177.1760  148.0750 N   0  0  0  0  0  2  0  0  0  0  0  0
  191.7880  176.3970  147.4270 C   0  0  0  0  0  0  0  0  0  0  0  0
  191.8570  176.3060  146.1040 C   0  0  0  0  0  2  0  0  0  0  0  0
  192.7870  175.6710  148.2550 C   0  0  0  0  0  1  0  0  0  0  0  0
  1 20  1  0  0  0  0
  3  1  1  0  0  0  0
  4  7  1  0  0  0  0
  5  9  2  0  0  0  0
  5  4  1  0  0  0  0
  6  3  2  0  0  0  0
  7  2  1  0  0  0  0
  7  1  2  0  0  0  0
  8  4  2  0  0  0  0
  8  6  1  0  0  0  0
  9 10  1  0  0  0  0
 10 11  1  0  0  0  0
 10  2  2  0  0  0  0
 13 12  1  1  0  0  0
 13  8  1  0  0  0  0
 14 13  1  0  0  0  0
 15 14  1  0  0  0  0
 17 18  2  0  0  0  0
 18 16  1  0  0  0  0
 18 15  1  0  0  0  0
 19 18  1  0  0  0  0
 20 21  1  0  0  0  0
 22 21  2  0  0  0  0
 22 23  1  0  0  0  0
 24 23  1  0  0  0  0
 24 26  1  0  0  0  0
 25 24  2  0  0  0  0
M  END
>  <MODEL>
7

>  <REMARK>
 VINA RESULT:      -7.4      1.342      5.370
  Name = 
  8 active torsions:
  status: ('A' for Active; 'I' for Inactive)
    1  A    between atoms: C_1  and  C_13
    2  A    between atoms: N_4  and  C_7
    3  A    between atoms: N_4  and  C_17
    4  A    between atoms: C_8  and  C_13
    5  A    between atoms: O_9  and  C_11
    6  A    between atoms: O_9  and  P_23
    7  A    between atoms: C_11  and  C_20
    8  A    between atoms: C_19  and  C_20
                            x       y       z     vdW  Elec       q    Type
                         _______ _______ _______ _____ _____    ______ ____

>  <TORSDO>
F 8

$$$$
=
 OpenBabel10232407553D

 26 27  0  0  1  0  0  0  0  0999 V2000
  188.3880  176.9880  143.4730 C   0  0  0  0  0  0  0  0  0  0  0  0
  189.6880  176.8380  145.4900 N   0  0  0  0  0  0  0  0  0  0  0  0
  187.2110  177.3870  142.8330 C   0  0  0  0  0  3  0  0  0  0  0  0
  187.5020  177.8300  145.5870 C   0  0  0  0  0  0  0  0  0  0  0  0
  187.6830  178.0410  146.9610 C   0  0  0  0  0  3  0  0  0  0  0  0
  186.1850  177.9970  143.5560 C   0  0  0  0  0  3  0  0  0  0  0  0
  188.5420  177.2120  144.8530 C   0  0  0  0  0  0  0  0  0  0  0  0
  186.3150  178.2200  144.9340 C   0  0  0  0  0  0  0  0  0  0  0  0
  188.8680  177.6470  147.5820 C   0  0  0  0  0  3  0  0  0  0  0  0
  189.8690  177.0400  146.8220 C   0  0  0  0  0  0  0  0  0  0  0  0
  191.1350  176.6150  147.4710 C   0  0  0  0  0  1  0  0  0  0  0  0
  184.5880  177.9880  146.5570 O   0  0  0  0  0  1  0  0  0  0  0  0
  185.2000  178.8900  145.6860 C   0  0  2  0  0  3  0  0  0  0  0  0
  184.1770  179.4650  144.7210 C   0  0  0  0  0  2  0  0  0  0  0  0
  182.8870  179.1630  145.1640 O   0  0  0  0  0  0  0  0  0  0  0  0
  180.7290  177.8390  144.0210 O   0  0  0  0  0  1  0  0  0  0  0  0
  181.3560  180.2910  143.3480 O   0  0  0  0  0  1  0  0  0  0  0  0
  181.9610  178.9670  143.7560 P   0  0  0  0  0  0  0  0  0  0  0  0
  182.9630  178.4100  142.5120 O   0  0  0  0  0  0  0  0  0  0  0  0
  189.4720  176.3540  142.6630 C   0  0  0  0  0  2  0  0  0  0  0  0
  189.5650  177.0100  141.3300 C   0  0  0  0  0  3  0  0  0  0  0  0
  190.6830  176.9220  140.6270 C   0  0  0  0  0  3  0  0  0  0  0  0
  190.7730  177.5520  139.3490 N   0  0  0  0  0  2  0  0  0  0  0  0
  189.7330  177.4860  138.3670 C   0  0  0  0  0  0  0  0  0  0  0  0
  189.1230  178.5790  137.9240 C   0  0  0  0  0  2  0  0  0  0  0  0
  189.3270  176.1620  137.8280 C   0  0  0  0  0  1  0  0  0  0  0  0
  1  7  1  0  0  0  0
  2 10  1  0  0  0  0
  3  1  2  0  0  0  0
  3  6  1  0  0  0  0
  4  5  2  0  0  0  0
  5  9  1  0  0  0  0
  6  8  2  0  0  0  0
  7  2  2  0  0  0  0
  7  4  1  0  0  0  0
  8  4  1  0  0  0  0
  8 13  1  0  0  0  0
 10 11  1  0  0  0  0
 10  9  2  0  0  0  0
 13 12  1  1  0  0  0
 14 15  1  0  0  0  0
 14 13  1  0  0  0  0
 17 18  1  0  0  0  0
 18 16  1  0  0  0  0
 18 15  1  0  0  0  0
 19 18  2  0  0  0  0
 20  1  1  0  0  0  0
 21 20  1  0  0  0  0
 22 21  2  0  0  0  0
 23 22  1  0  0  0  0
 24 23  1  0  0  0  0
 25 24  2  0  0  0  0
 26 24  1  0  0  0  0
M  END
>  <MODEL>
8

>  <REMARK>
 VINA RESULT:      -7.4      4.084      6.441
  Name = 
  8 active torsions:
  status: ('A' for Active; 'I' for Inactive)
    1  A    between atoms: C_1  and  C_13
    2  A    between atoms: N_4  and  C_7
    3  A    between atoms: N_4  and  C_17
    4  A    between atoms: C_8  and  C_13
    5  A    between atoms: O_9  and  C_11
    6  A    between atoms: O_9  and  P_23
    7  A    between atoms: C_11  and  C_20
    8  A    between atoms: C_19  and  C_20
                            x       y       z     vdW  Elec       q    Type
                         _______ _______ _______ _____ _____    ______ ____

>  <TORSDO>
F 8

$$$$
=
 OpenBabel10232407553D

 26 27  0  0  1  0  0  0  0  0999 V2000
  188.2100  177.1930  144.1030 C   0  0  0  0  0  0  0  0  0  0  0  0
  188.1450  177.6520  146.4620 N   0  0  0  0  0  0  0  0  0  0  0  0
  187.6050  177.2890  142.8470 C   0  0  0  0  0  3  0  0  0  0  0  0
  186.2990  178.3490  145.0910 C   0  0  0  0  0  0  0  0  0  0  0  0
  185.6770  178.8730  146.2320 C   0  0  0  0  0  3  0  0  0  0  0  0
  186.3590  177.9010  142.7070 C   0  0  0  0  0  3  0  0  0  0  0  0
  187.5630  177.7270  145.2320 C   0  0  0  0  0  0  0  0  0  0  0  0
  185.6930  178.4310  143.8210 C   0  0  0  0  0  0  0  0  0  0  0  0
  186.3000  178.7790  147.4770 C   0  0  0  0  0  3  0  0  0  0  0  0
  187.5460  178.1580  147.5730 C   0  0  0  0  0  0  0  0  0  0  0  0
  188.2210  178.0510  148.8920 C   0  0  0  0  0  1  0  0  0  0  0  0
  183.3710  178.4120  144.3510 O   0  0  0  0  0  1  0  0  0  0  0  0
  184.3580  179.0970  143.6410 C   0  0  2  0  0  3  0  0  0  0  0  0
  183.9920  179.1660  142.1680 C   0  0  0  0  0  2  0  0  0  0  0  0
  182.8500  178.3970  141.9270 O   0  0  0  0  0  0  0  0  0  0  0  0
  181.8520  179.6720  139.6700 O   0  0  0  0  0  1  0  0  0  0  0  0
  184.0740  178.2870  139.6030 O   0  0  0  0  0  0  0  0  0  0  0  0
  182.7030  178.3250  140.2390 P   0  0  0  0  0  0  0  0  0  0  0  0
  181.8590  176.9210  139.8200 O   0  0  0  0  0  1  0  0  0  0  0  0
  189.5520  176.5460  144.2110 C   0  0  0  0  0  2  0  0  0  0  0  0
  190.1590  176.3960  142.8600 C   0  0  0  0  0  3  0  0  0  0  0  0
  190.8070  177.4110  142.3100 C   0  0  0  0  0  3  0  0  0  0  0  0
  191.3880  177.2670  141.0140 N   0  0  0  0  0  2  0  0  0  0  0  0
  190.6200  177.2540  139.8060 C   0  0  0  0  0  0  0  0  0  0  0  0
  190.9810  176.5220  138.7590 C   0  0  0  0  0  2  0  0  0  0  0  0
  189.3860  178.0790  139.7210 C   0  0  0  0  0  1  0  0  0  0  0  0
  1 20  1  0  0  0  0
  1  7  1  0  0  0  0
  2 10  1  0  0  0  0
  3  1  2  0  0  0  0
  4  7  1  0  0  0  0
  4  5  2  0  0  0  0
  5  9  1  0  0  0  0
  6  3  1  0  0  0  0
  6  8  2  0  0  0  0
  7  2  2  0  0  0  0
  8  4  1  0  0  0  0
  9 10  2  0  0  0  0
 10 11  1  0  0  0  0
 13  8  1  0  0  0  0
 13 12  1  1  0  0  0
 14 13  1  0  0  0  0
 15 14  1  0  0  0  0
 16 18  1  0  0  0  0
 17 18  2  0  0  0  0
 18 15  1  0  0  0  0
 19 18  1  0  0  0  0
 21 20  1  0  0  0  0
 22 21  2  0  0  0  0
 23 22  1  0  0  0  0
 24 23  1  0  0  0  0
 25 24  2  0  0  0  0
 26 24  1  0  0  0  0
M  END
>  <MODEL>
9

>  <REMARK>
 VINA RESULT:      -7.3      3.267      6.008
  Name = 
  8 active torsions:
  status: ('A' for Active; 'I' for Inactive)
    1  A    between atoms: C_1  and  C_13
    2  A    between atoms: N_4  and  C_7
    3  A    between atoms: N_4  and  C_17
    4  A    between atoms: C_8  and  C_13
    5  A    between atoms: O_9  and  C_11
    6  A    between atoms: O_9  and  P_23
    7  A    between atoms: C_11  and  C_20
    8  A    between atoms: C_19  and  C_20
                            x       y       z     vdW  Elec       q    Type
                         _______ _______ _______ _____ _____    ______ ____

>  <TORSDO>
F 8

$$$$
