=
 OpenBabel10232409543D

 34 37  0  0  1  0  0  0  0  0999 V2000
  187.5530  176.8400  137.6240 C   0  0  0  0  0  0  0  0  0  0  0  0
  188.2460  175.0700  135.9510 C   0  0  1  0  0  3  0  0  0  0  0  0
  191.0650  175.4390  138.1100 C   0  0  0  0  0  0  0  0  0  0  0  0
  192.3280  177.3450  139.1990 C   0  0  2  0  0  3  0  0  0  0  0  0
  188.9150  176.7230  138.2910 C   0  0  1  0  0  3  0  0  0  0  0  0
  193.2590  176.0970  137.2030 C   0  0  0  0  0  1  0  0  0  0  0  0
  190.3460  176.7850  140.7080 C   0  0  2  0  0  3  0  0  0  0  0  0
  190.0640  176.2840  137.3600 C   0  0  2  0  0  3  0  0  0  0  0  0
  192.4190  175.9900  138.4670 C   0  0  2  0  0  3  0  0  0  0  0  0
  184.8750  179.7310  140.1250 O   0  0  0  0  0  0  0  0  0  0  0  0
  193.5800  177.9630  139.2390 O   0  0  0  0  0  1  0  0  0  0  0  0
  190.7750  174.3030  138.4510 O   0  0  0  0  0  0  0  0  0  0  0  0
  189.3720  177.9940  139.0130 C   0  0  0  0  0  2  0  0  0  0  0  0
  191.8160  177.2080  140.6340 C   0  0  0  0  0  2  0  0  0  0  0  0
  185.2700  177.6560  137.5730 C   0  0  0  0  0  0  0  0  0  0  0  0
  186.5100  177.6280  138.1440 C   0  0  0  0  0  0  0  0  0  0  0  0
  187.2340  176.0200  136.5090 C   0  0  0  0  0  0  0  0  0  0  0  0
  185.2670  178.9210  139.2450 C   0  0  0  0  0  0  0  0  0  0  0  0
  184.4560  178.4760  138.2540 N   0  0  0  0  0  2  0  0  0  0  0  0
  189.4500  177.8340  140.4120 O   0  0  0  0  0  0  0  0  0  0  0  0
  185.9470  176.0590  135.9320 C   0  0  0  0  0  3  0  0  0  0  0  0
  186.5290  178.4290  139.2220 N   0  0  0  0  0  2  0  0  0  0  0  0
  189.6260  175.7280  135.9860 C   0  0  1  0  0  3  0  0  0  0  0  0
  184.9450  176.8890  136.4590 C   0  0  0  0  0  3  0  0  0  0  0  0
  190.7800  173.7840  135.1880 O   0  0  0  0  0  0  0  0  0  0  0  0
  191.5940  177.2490  134.3460 C   0  0  0  0  0  1  0  0  0  0  0  0
  191.6200  175.7960  134.3990 N   0  0  0  0  0  2  0  0  0  0  0  0
  190.6890  175.0400  135.1740 C   0  0  0  0  0  0  0  0  0  0  0  0
  188.2120  173.7980  136.6900 C   0  0  0  0  0  0  0  0  0  0  0  0
  188.1840  172.7980  137.2720 N   0  0  0  0  0  0  0  0  0  0  0  0
  190.0220  176.1640  142.0650 C   0  0  0  0  0  2  0  0  0  0  0  0
  188.6580  176.5890  142.5990 C   0  0  0  0  0  2  0  0  0  0  0  0
  187.5040  177.0740  144.6190 O   0  0  0  0  0  1  0  0  0  0  0  0
  188.7710  177.0450  144.0400 C   0  0  0  0  0  2  0  0  0  0  0  0
  1 16  1  0  0  0  0
  1  5  1  0  0  0  0
  2 23  1  0  0  0  0
  2 17  1  0  0  0  0
  2 29  1  1  0  0  0
  3 12  2  0  0  0  0
  3  9  1  0  0  0  0
  4 11  1  1  0  0  0
  4 14  1  0  0  0  0
  5 13  1  6  0  0  0
  7 31  1  1  0  0  0
  8  3  1  1  0  0  0
  8  5  1  0  0  0  0
  9  6  1  6  0  0  0
  9  4  1  0  0  0  0
 13 20  1  0  0  0  0
 14  7  1  0  0  0  0
 15 16  2  0  0  0  0
 15 19  1  0  0  0  0
 16 22  1  0  0  0  0
 17  1  2  0  0  0  0
 18 10  2  0  0  0  0
 19 18  1  0  0  0  0
 20  7  1  0  0  0  0
 21 24  2  0  0  0  0
 21 17  1  0  0  0  0
 22 18  1  0  0  0  0
 23 28  1  1  0  0  0
 23  8  1  0  0  0  0
 24 15  1  0  0  0  0
 26 27  1  0  0  0  0
 27 28  1  0  0  0  0
 28 25  2  0  0  0  0
 29 30  3  0  0  0  0
 31 32  1  0  0  0  0
 32 34  1  0  0  0  0
 34 33  1  0  0  0  0
M  END
>  <MODEL>
1

>  <REMARK>
 VINA RESULT:      -5.2      0.000      0.000
  Name = 
  5 active torsions:
  status: ('A' for Active; 'I' for Inactive)
    1  A    between atoms: C_2  and  C_8
    2  A    between atoms: C_9  and  C_11
    3  A    between atoms: C_9  and  C_29
    4  A    between atoms: C_16  and  C_32
    5  A    between atoms: C_29  and  C_33
                            x       y       z     vdW  Elec       q    Type
                         _______ _______ _______ _____ _____    ______ ____

>  <TORSDO>
F 5

$$$$
=
 OpenBabel10232409543D

 34 37  0  0  1  0  0  0  0  0999 V2000
  185.5510  177.9120  139.4260 C   0  0  0  0  0  0  0  0  0  0  0  0
  187.4750  177.5680  137.8140 C   0  0  1  0  0  3  0  0  0  0  0  0
  184.5410  176.9350  135.8810 C   0  0  0  0  0  0  0  0  0  0  0  0
  182.3410  175.7200  136.1970 C   0  0  2  0  0  3  0  0  0  0  0  0
  184.5760  177.5610  138.3130 C   0  0  1  0  0  3  0  0  0  0  0  0
  184.2090  174.7520  134.7880 C   0  0  0  0  0  1  0  0  0  0  0  0
  182.0610  178.0640  137.1660 C   0  0  2  0  0  3  0  0  0  0  0  0
  185.1290  176.6080  137.2340 C   0  0  2  0  0  3  0  0  0  0  0  0
  183.5190  176.0280  135.2500 C   0  0  2  0  0  3  0  0  0  0  0  0
  183.1490  179.2470  143.1980 O   0  0  0  0  0  0  0  0  0  0  0  0
  181.5860  174.6530  135.7050 O   0  0  0  0  0  1  0  0  0  0  0  0
  184.8760  177.9530  135.2970 O   0  0  0  0  0  0  0  0  0  0  0  0
  183.2480  176.9730  138.8040 C   0  0  0  0  0  2  0  0  0  0  0  0
  181.4090  176.9180  136.3890 C   0  0  0  0  0  2  0  0  0  0  0  0
  186.0350  178.7520  141.6490 C   0  0  0  0  0  0  0  0  0  0  0  0
  185.1400  178.3670  140.6910 C   0  0  0  0  0  0  0  0  0  0  0  0
  186.9480  177.9340  139.1660 C   0  0  0  0  0  0  0  0  0  0  0  0
  184.0950  178.9810  142.4130 C   0  0  0  0  0  0  0  0  0  0  0  0
  185.3960  179.1470  142.7600 N   0  0  0  0  0  2  0  0  0  0  0  0
  182.1470  177.8190  138.5530 O   0  0  0  0  0  0  0  0  0  0  0  0
  187.8590  178.3370  140.1650 C   0  0  0  0  0  3  0  0  0  0  0  0
  183.8890  178.5100  141.1590 N   0  0  0  0  0  2  0  0  0  0  0  0
  186.6600  176.4000  137.2560 C   0  0  1  0  0  3  0  0  0  0  0  0
  187.4080  178.7480  141.4290 C   0  0  0  0  0  3  0  0  0  0  0  0
  187.6680  176.3860  135.0810 O   0  0  0  0  0  0  0  0  0  0  0  0
  186.8810  173.4340  137.0930 C   0  0  0  0  0  1  0  0  0  0  0  0
  187.3490  174.2850  136.0120 N   0  0  0  0  0  2  0  0  0  0  0  0
  187.2590  175.7100  136.0620 C   0  0  0  0  0  0  0  0  0  0  0  0
  187.4550  178.7410  136.9260 C   0  0  0  0  0  0  0  0  0  0  0  0
  187.4390  179.6640  136.2290 N   0  0  0  0  0  0  0  0  0  0  0  0
  181.3440  179.3860  136.8970 C   0  0  0  0  0  2  0  0  0  0  0  0
  180.9400  180.1110  138.1750 C   0  0  0  0  0  2  0  0  0  0  0  0
  183.0700  180.9500  138.8170 O   0  0  0  0  0  1  0  0  0  0  0  0
  181.8040  181.3400  138.3830 C   0  0  0  0  0  2  0  0  0  0  0  0
  1 16  1  0  0  0  0
  2 29  1  6  0  0  0
  2 17  1  0  0  0  0
  4 11  1  6  0  0  0
  4 14  1  0  0  0  0
  5 13  1  1  0  0  0
  5  1  1  0  0  0  0
  7 31  1  1  0  0  0
  7 20  1  0  0  0  0
  8  3  1  6  0  0  0
  8 23  1  0  0  0  0
  8  5  1  0  0  0  0
  9  6  1  1  0  0  0
  9  3  1  0  0  0  0
  9  4  1  0  0  0  0
 12  3  2  0  0  0  0
 14  7  1  0  0  0  0
 15 19  1  0  0  0  0
 16 22  1  0  0  0  0
 16 15  2  0  0  0  0
 17  1  2  0  0  0  0
 17 21  1  0  0  0  0
 18 19  1  0  0  0  0
 18 10  2  0  0  0  0
 20 13  1  0  0  0  0
 21 24  2  0  0  0  0
 22 18  1  0  0  0  0
 23 28  1  6  0  0  0
 23  2  1  0  0  0  0
 24 15  1  0  0  0  0
 25 28  2  0  0  0  0
 27 28  1  0  0  0  0
 27 26  1  0  0  0  0
 30 29  3  0  0  0  0
 31 32  1  0  0  0  0
 32 34  1  0  0  0  0
 34 33  1  0  0  0  0
M  END
>  <MODEL>
2

>  <REMARK>
 VINA RESULT:      -4.6      3.591      6.948
  Name = 
  5 active torsions:
  status: ('A' for Active; 'I' for Inactive)
    1  A    between atoms: C_2  and  C_8
    2  A    between atoms: C_9  and  C_11
    3  A    between atoms: C_9  and  C_29
    4  A    between atoms: C_16  and  C_32
    5  A    between atoms: C_29  and  C_33
                            x       y       z     vdW  Elec       q    Type
                         _______ _______ _______ _____ _____    ______ ____

>  <TORSDO>
F 5

$$$$
=
 OpenBabel10232409543D

 34 37  0  0  1  0  0  0  0  0999 V2000
  185.8550  177.5980  138.7470 C   0  0  0  0  0  0  0  0  0  0  0  0
  186.9640  176.5570  136.7220 C   0  0  1  0  0  3  0  0  0  0  0  0
  183.4800  176.5740  135.9460 C   0  0  0  0  0  0  0  0  0  0  0  0
  181.3110  176.0690  137.1520 C   0  0  2  0  0  3  0  0  0  0  0  0
  184.5010  177.4200  138.0790 C   0  0  1  0  0  3  0  0  0  0  0  0
  182.2960  174.4700  135.4540 C   0  0  0  0  0  1  0  0  0  0  0  0
  181.9310  178.4870  137.6850 C   0  0  2  0  0  3  0  0  0  0  0  0
  184.4090  176.2400  137.0890 C   0  0  2  0  0  3  0  0  0  0  0  0
  182.1230  175.9300  135.8480 C   0  0  2  0  0  3  0  0  0  0  0  0
  185.2890  179.9480  142.7400 O   0  0  0  0  0  0  0  0  0  0  0  0
  180.2080  175.2120  137.1330 O   0  0  0  0  0  1  0  0  0  0  0  0
  183.8150  177.3890  135.1000 O   0  0  0  0  0  0  0  0  0  0  0  0
  183.3300  177.2860  139.0580 C   0  0  0  0  0  2  0  0  0  0  0  0
  180.8060  177.4940  137.3840 C   0  0  0  0  0  2  0  0  0  0  0  0
  187.2610  178.4980  140.5060 C   0  0  0  0  0  0  0  0  0  0  0  0
  186.0260  178.2820  139.9640 C   0  0  0  0  0  0  0  0  0  0  0  0
  187.0390  177.1980  138.0720 C   0  0  0  0  0  0  0  0  0  0  0  0
  185.8160  179.3440  141.7690 C   0  0  0  0  0  0  0  0  0  0  0  0
  187.1560  179.1730  141.6610 N   0  0  0  0  0  2  0  0  0  0  0  0
  182.4360  178.3750  138.9980 O   0  0  0  0  0  0  0  0  0  0  0  0
  188.3080  177.4320  138.6450 C   0  0  0  0  0  3  0  0  0  0  0  0
  185.0840  178.8210  140.7560 N   0  0  0  0  0  2  0  0  0  0  0  0
  185.7610  175.6140  136.6800 C   0  0  1  0  0  3  0  0  0  0  0  0
  188.4310  178.0850  139.8810 C   0  0  0  0  0  3  0  0  0  0  0  0
  185.9120  175.0860  134.3460 O   0  0  0  0  0  0  0  0  0  0  0  0
  185.2370  172.7030  137.0390 C   0  0  0  0  0  1  0  0  0  0  0  0
  185.4750  173.2690  135.7210 N   0  0  0  0  0  2  0  0  0  0  0  0
  185.7310  174.6590  135.5170 C   0  0  0  0  0  0  0  0  0  0  0  0
  186.9070  177.5870  135.6720 C   0  0  0  0  0  0  0  0  0  0  0  0
  186.8610  178.3970  134.8480 N   0  0  0  0  0  0  0  0  0  0  0  0
  181.4900  179.9200  137.3970 C   0  0  0  0  0  2  0  0  0  0  0  0
  181.8090  180.8780  138.5400 C   0  0  0  0  0  2  0  0  0  0  0  0
  180.1680  180.6320  140.2420 O   0  0  0  0  0  1  0  0  0  0  0  0
  180.5300  181.4190  139.1500 C   0  0  0  0  0  2  0  0  0  0  0  0
  1 16  1  0  0  0  0
  2 29  1  6  0  0  0
  2 17  1  0  0  0  0
  4 11  1  6  0  0  0
  4 14  1  0  0  0  0
  5  1  1  0  0  0  0
  5 13  1  1  0  0  0
  7 31  1  1  0  0  0
  7 20  1  0  0  0  0
  8  3  1  6  0  0  0
  8  5  1  0  0  0  0
  9  6  1  1  0  0  0
  9  3  1  0  0  0  0
  9  4  1  0  0  0  0
 12  3  2  0  0  0  0
 14  7  1  0  0  0  0
 15 19  1  0  0  0  0
 16 15  2  0  0  0  0
 16 22  1  0  0  0  0
 17 21  1  0  0  0  0
 17  1  2  0  0  0  0
 18 10  2  0  0  0  0
 19 18  1  0  0  0  0
 20 13  1  0  0  0  0
 21 24  2  0  0  0  0
 22 18  1  0  0  0  0
 23 28  1  6  0  0  0
 23  2  1  0  0  0  0
 23  8  1  0  0  0  0
 24 15  1  0  0  0  0
 25 28  2  0  0  0  0
 27 26  1  0  0  0  0
 28 27  1  0  0  0  0
 30 29  3  0  0  0  0
 31 32  1  0  0  0  0
 32 34  1  0  0  0  0
 34 33  1  0  0  0  0
M  END
>  <MODEL>
3

>  <REMARK>
 VINA RESULT:      -4.6      3.693      7.229
  Name = 
  5 active torsions:
  status: ('A' for Active; 'I' for Inactive)
    1  A    between atoms: C_2  and  C_8
    2  A    between atoms: C_9  and  C_11
    3  A    between atoms: C_9  and  C_29
    4  A    between atoms: C_16  and  C_32
    5  A    between atoms: C_29  and  C_33
                            x       y       z     vdW  Elec       q    Type
                         _______ _______ _______ _____ _____    ______ ____

>  <TORSDO>
F 5

$$$$
=
 OpenBabel10232409543D

 34 37  0  0  1  0  0  0  0  0999 V2000
  187.1090  174.6080  136.0280 C   0  0  0  0  0  0  0  0  0  0  0  0
  185.5500  176.6040  136.0350 C   0  0  1  0  0  3  0  0  0  0  0  0
  188.4310  177.6900  137.8420 C   0  0  0  0  0  0  0  0  0  0  0  0
  189.9860  176.7330  139.5970 C   0  0  2  0  0  3  0  0  0  0  0  0
  188.1150  175.4100  136.8390 C   0  0  1  0  0  3  0  0  0  0  0  0
  188.2300  178.4630  140.1730 C   0  0  0  0  0  1  0  0  0  0  0  0
  190.8310  175.9460  137.3210 C   0  0  2  0  0  3  0  0  0  0  0  0
  187.5070  176.5000  137.7450 C   0  0  2  0  0  3  0  0  0  0  0  0
  189.1970  177.9650  139.1080 C   0  0  2  0  0  3  0  0  0  0  0  0
  189.0030  170.5010  134.8760 O   0  0  0  0  0  0  0  0  0  0  0  0
  190.4250  176.9250  140.9090 O   0  0  0  0  0  1  0  0  0  0  0  0
  188.5800  178.4300  136.8830 O   0  0  0  0  0  0  0  0  0  0  0  0
  189.0420  174.5560  137.7110 C   0  0  0  0  0  2  0  0  0  0  0  0
  191.2050  176.4300  138.7240 C   0  0  0  0  0  2  0  0  0  0  0  0
  186.4940  172.6590  134.7230 C   0  0  0  0  0  0  0  0  0  0  0  0
  187.3840  173.3280  135.5150 C   0  0  0  0  0  0  0  0  0  0  0  0
  185.8840  175.2040  135.6270 C   0  0  0  0  0  0  0  0  0  0  0  0
  188.2010  171.4660  134.9690 C   0  0  0  0  0  0  0  0  0  0  0  0
  186.9900  171.4660  134.3610 N   0  0  0  0  0  2  0  0  0  0  0  0
  190.3890  174.6050  137.2940 O   0  0  0  0  0  0  0  0  0  0  0  0
  184.9770  174.5000  134.8050 C   0  0  0  0  0  3  0  0  0  0  0  0
  188.4880  172.5830  135.6820 N   0  0  0  0  0  2  0  0  0  0  0  0
  186.0230  176.8350  137.4710 C   0  0  1  0  0  3  0  0  0  0  0  0
  185.2740  173.2080  134.3460 C   0  0  0  0  0  3  0  0  0  0  0  0
  186.1020  179.1630  138.0360 O   0  0  0  0  0  0  0  0  0  0  0  0
  183.5210  176.7940  139.0870 C   0  0  0  0  0  1  0  0  0  0  0  0
  184.2820  178.0200  138.9070 N   0  0  0  0  0  2  0  0  0  0  0  0
  185.4830  178.0710  138.1370 C   0  0  0  0  0  0  0  0  0  0  0  0
  186.1400  177.5640  135.0890 C   0  0  0  0  0  0  0  0  0  0  0  0
  186.6040  178.3200  134.3460 N   0  0  0  0  0  0  0  0  0  0  0  0
  191.9870  176.1510  136.3440 C   0  0  0  0  0  2  0  0  0  0  0  0
  192.7560  174.8660  136.0580 C   0  0  0  0  0  2  0  0  0  0  0  0
  194.6290  175.9370  137.0550 O   0  0  0  0  0  1  0  0  0  0  0  0
  193.9330  174.7310  137.0050 C   0  0  0  0  0  2  0  0  0  0  0  0
  1  5  1  0  0  0  0
  2 29  1  6  0  0  0
  2 23  1  0  0  0  0
  3  9  1  0  0  0  0
  4 11  1  1  0  0  0
  5 13  1  1  0  0  0
  5  8  1  0  0  0  0
  7 31  1  6  0  0  0
  7 14  1  0  0  0  0
  8  3  1  6  0  0  0
  9  4  1  0  0  0  0
  9  6  1  1  0  0  0
 10 18  2  0  0  0  0
 12  3  2  0  0  0  0
 14  4  1  0  0  0  0
 15 16  1  0  0  0  0
 16 22  1  0  0  0  0
 16  1  2  0  0  0  0
 17  1  1  0  0  0  0
 17  2  1  0  0  0  0
 18 22  1  0  0  0  0
 19 15  1  0  0  0  0
 19 18  1  0  0  0  0
 20  7  1  0  0  0  0
 20 13  1  0  0  0  0
 21 17  2  0  0  0  0
 23  8  1  0  0  0  0
 23 28  1  6  0  0  0
 24 15  2  0  0  0  0
 24 21  1  0  0  0  0
 25 28  2  0  0  0  0
 27 26  1  0  0  0  0
 28 27  1  0  0  0  0
 30 29  3  0  0  0  0
 32 31  1  0  0  0  0
 32 34  1  0  0  0  0
 34 33  1  0  0  0  0
M  END
>  <MODEL>
4

>  <REMARK>
 VINA RESULT:      -4.5      2.096      6.066
  Name = 
  5 active torsions:
  status: ('A' for Active; 'I' for Inactive)
    1  A    between atoms: C_2  and  C_8
    2  A    between atoms: C_9  and  C_11
    3  A    between atoms: C_9  and  C_29
    4  A    between atoms: C_16  and  C_32
    5  A    between atoms: C_29  and  C_33
                            x       y       z     vdW  Elec       q    Type
                         _______ _______ _______ _____ _____    ______ ____

>  <TORSDO>
F 5

$$$$
=
 OpenBabel10232409543D

 34 37  0  0  1  0  0  0  0  0999 V2000
  183.6570  177.6690  139.6200 C   0  0  0  0  0  0  0  0  0  0  0  0
  183.1120  176.2680  137.5810 C   0  0  1  0  0  3  0  0  0  0  0  0
  186.6090  176.9390  137.3210 C   0  0  0  0  0  0  0  0  0  0  0  0
  188.1460  178.9220  137.6680 C   0  0  2  0  0  3  0  0  0  0  0  0
  185.1040  177.7470  139.1620 C   0  0  1  0  0  3  0  0  0  0  0  0
  187.5150  178.1140  135.3540 C   0  0  0  0  0  1  0  0  0  0  0  0
  187.8020  177.8180  139.9440 C   0  0  2  0  0  3  0  0  0  0  0  0
  185.3140  177.6510  137.6370 C   0  0  2  0  0  3  0  0  0  0  0  0
  187.7940  177.7020  136.7920 C   0  0  2  0  0  3  0  0  0  0  0  0
  183.2740  179.6780  143.8160 O   0  0  0  0  0  0  0  0  0  0  0  0
  189.0330  179.7650  136.9960 O   0  0  0  0  0  1  0  0  0  0  0  0
  186.7110  175.7380  137.5120 O   0  0  0  0  0  0  0  0  0  0  0  0
  185.8500  178.9950  139.6470 C   0  0  0  0  0  2  0  0  0  0  0  0
  188.7800  178.5270  139.0030 C   0  0  0  0  0  2  0  0  0  0  0  0
  181.9260  178.0210  141.2830 C   0  0  0  0  0  0  0  0  0  0  0  0
  183.2150  178.1730  140.8570 C   0  0  0  0  0  0  0  0  0  0  0  0
  182.7090  176.9330  138.8600 C   0  0  0  0  0  0  0  0  0  0  0  0
  182.9990  179.0650  142.7520 C   0  0  0  0  0  0  0  0  0  0  0  0
  181.7600  178.5830  142.4890 N   0  0  0  0  0  2  0  0  0  0  0  0
  186.8850  178.6970  140.5590 O   0  0  0  0  0  0  0  0  0  0  0  0
  181.3810  176.7830  139.3160 C   0  0  0  0  0  3  0  0  0  0  0  0
  183.9230  178.8360  141.7870 N   0  0  0  0  0  2  0  0  0  0  0  0
  184.0850  177.1770  136.8290 C   0  0  1  0  0  3  0  0  0  0  0  0
  180.9730  177.3350  140.5390 C   0  0  0  0  0  3  0  0  0  0  0  0
  185.2620  176.0100  135.0960 O   0  0  0  0  0  0  0  0  0  0  0  0
  182.4590  178.3090  134.6040 C   0  0  0  0  0  1  0  0  0  0  0  0
  183.5370  177.3670  134.3460 N   0  0  0  0  0  2  0  0  0  0  0  0
  184.3320  176.8060  135.3920 C   0  0  0  0  0  0  0  0  0  0  0  0
  183.6820  174.9400  137.8560 C   0  0  0  0  0  0  0  0  0  0  0  0
  184.1320  173.8960  138.0700 N   0  0  0  0  0  0  0  0  0  0  0  0
  188.5490  176.9970  140.9940 C   0  0  0  0  0  2  0  0  0  0  0  0
  188.1290  177.3380  142.4190 C   0  0  0  0  0  2  0  0  0  0  0  0
  189.7140  175.6630  142.9960 O   0  0  0  0  0  1  0  0  0  0  0  0
  188.4820  176.2030  143.3610 C   0  0  0  0  0  2  0  0  0  0  0  0
  1 16  1  0  0  0  0
  2 29  1  1  0  0  0
  2 17  1  0  0  0  0
  3 12  2  0  0  0  0
  4 11  1  6  0  0  0
  4 14  1  0  0  0  0
  5  1  1  0  0  0  0
  5 13  1  6  0  0  0
  7 20  1  0  0  0  0
  7 31  1  1  0  0  0
  8  3  1  1  0  0  0
  8  5  1  0  0  0  0
  9  6  1  6  0  0  0
  9  3  1  0  0  0  0
  9  4  1  0  0  0  0
 13 20  1  0  0  0  0
 14  7  1  0  0  0  0
 15 19  1  0  0  0  0
 16 15  2  0  0  0  0
 16 22  1  0  0  0  0
 17 21  1  0  0  0  0
 17  1  2  0  0  0  0
 18 10  2  0  0  0  0
 19 18  1  0  0  0  0
 21 24  2  0  0  0  0
 22 18  1  0  0  0  0
 23 28  1  6  0  0  0
 23  2  1  0  0  0  0
 23  8  1  0  0  0  0
 24 15  1  0  0  0  0
 25 28  2  0  0  0  0
 27 26  1  0  0  0  0
 27 28  1  0  0  0  0
 29 30  3  0  0  0  0
 31 32  1  0  0  0  0
 32 34  1  0  0  0  0
 33 34  1  0  0  0  0
M  END
>  <MODEL>
5

>  <REMARK>
 VINA RESULT:      -4.5      3.402      4.927
  Name = 
  5 active torsions:
  status: ('A' for Active; 'I' for Inactive)
    1  A    between atoms: C_2  and  C_8
    2  A    between atoms: C_9  and  C_11
    3  A    between atoms: C_9  and  C_29
    4  A    between atoms: C_16  and  C_32
    5  A    between atoms: C_29  and  C_33
                            x       y       z     vdW  Elec       q    Type
                         _______ _______ _______ _____ _____    ______ ____

>  <TORSDO>
F 5

$$$$
=
 OpenBabel10232409543D

 34 37  0  0  1  0  0  0  0  0999 V2000
  184.8640  177.1990  137.4660 C   0  0  0  0  0  0  0  0  0  0  0  0
  183.9660  176.4120  135.2320 C   0  0  1  0  0  3  0  0  0  0  0  0
  181.1750  176.2340  137.4520 C   0  0  0  0  0  0  0  0  0  0  0  0
  180.7440  175.4720  139.8280 C   0  0  2  0  0  3  0  0  0  0  0  0
  183.4910  176.9760  138.0800 C   0  0  1  0  0  3  0  0  0  0  0  0
  180.0130  174.0950  137.8340 C   0  0  0  0  0  1  0  0  0  0  0  0
  181.5890  177.8780  139.9420 C   0  0  2  0  0  3  0  0  0  0  0  0
  182.6420  175.8780  137.4060 C   0  0  2  0  0  3  0  0  0  0  0  0
  180.2360  175.5010  138.3720 C   0  0  2  0  0  3  0  0  0  0  0  0
  187.6560  179.1670  140.6460 O   0  0  0  0  0  0  0  0  0  0  0  0
  180.0220  174.5410  140.5770 O   0  0  0  0  0  1  0  0  0  0  0  0
  180.7410  177.1370  136.7540 O   0  0  0  0  0  0  0  0  0  0  0  0
  183.5150  176.6760  139.5830 C   0  0  0  0  0  2  0  0  0  0  0  0
  180.6320  176.8320  140.5190 C   0  0  0  0  0  2  0  0  0  0  0  0
  187.1300  178.0550  137.5700 C   0  0  0  0  0  0  0  0  0  0  0  0
  185.9300  177.7920  138.1660 C   0  0  0  0  0  0  0  0  0  0  0  0
  185.0740  176.9440  136.0850 C   0  0  0  0  0  0  0  0  0  0  0  0
  187.2210  178.6850  139.5680 C   0  0  0  0  0  0  0  0  0  0  0  0
  187.9750  178.6240  138.4430 N   0  0  0  0  0  2  0  0  0  0  0  0
  182.9260  177.6970  140.3570 O   0  0  0  0  0  0  0  0  0  0  0  0
  186.3210  177.2240  135.4830 C   0  0  0  0  0  3  0  0  0  0  0  0
  185.9640  178.1930  139.4470 N   0  0  0  0  0  2  0  0  0  0  0  0
  183.1620  175.3890  136.0360 C   0  0  1  0  0  3  0  0  0  0  0  0
  187.3710  177.7820  136.2290 C   0  0  0  0  0  3  0  0  0  0  0  0
  181.3930  175.0690  134.4490 O   0  0  0  0  0  0  0  0  0  0  0  0
  183.1520  172.4180  136.2540 C   0  0  0  0  0  1  0  0  0  0  0  0
  182.2400  173.1110  135.3590 N   0  0  0  0  0  2  0  0  0  0  0  0
  182.2220  174.5330  135.2310 C   0  0  0  0  0  0  0  0  0  0  0  0
  183.1310  177.5170  134.7360 C   0  0  0  0  0  0  0  0  0  0  0  0
  182.4750  178.3870  134.3460 N   0  0  0  0  0  0  0  0  0  0  0  0
  181.1130  179.2930  140.2610 C   0  0  0  0  0  2  0  0  0  0  0  0
  180.2760  179.9030  139.1420 C   0  0  0  0  0  2  0  0  0  0  0  0
  181.8200  181.5880  138.4900 O   0  0  0  0  0  1  0  0  0  0  0  0
  181.1710  180.4390  138.0420 C   0  0  0  0  0  2  0  0  0  0  0  0
  1  5  1  0  0  0  0
  1 16  1  0  0  0  0
  2 29  1  1  0  0  0
  2 23  1  0  0  0  0
  2 17  1  0  0  0  0
  3  9  1  0  0  0  0
  4 14  1  0  0  0  0
  4 11  1  1  0  0  0
  5 13  1  1  0  0  0
  7 31  1  1  0  0  0
  7 20  1  0  0  0  0
  7 14  1  0  0  0  0
  8  3  1  6  0  0  0
  8  5  1  0  0  0  0
  9  6  1  6  0  0  0
  9  4  1  0  0  0  0
 12  3  2  0  0  0  0
 13 20  1  0  0  0  0
 15 16  2  0  0  0  0
 15 19  1  0  0  0  0
 16 22  1  0  0  0  0
 17  1  2  0  0  0  0
 18 10  2  0  0  0  0
 19 18  1  0  0  0  0
 21 17  1  0  0  0  0
 21 24  2  0  0  0  0
 22 18  1  0  0  0  0
 23 28  1  6  0  0  0
 23  8  1  0  0  0  0
 24 15  1  0  0  0  0
 25 28  2  0  0  0  0
 27 26  1  0  0  0  0
 28 27  1  0  0  0  0
 30 29  3  0  0  0  0
 32 31  1  0  0  0  0
 34 33  1  0  0  0  0
 34 32  1  0  0  0  0
M  END
>  <MODEL>
6

>  <REMARK>
 VINA RESULT:      -4.1      4.150      8.060
  Name = 
  5 active torsions:
  status: ('A' for Active; 'I' for Inactive)
    1  A    between atoms: C_2  and  C_8
    2  A    between atoms: C_9  and  C_11
    3  A    between atoms: C_9  and  C_29
    4  A    between atoms: C_16  and  C_32
    5  A    between atoms: C_29  and  C_33
                            x       y       z     vdW  Elec       q    Type
                         _______ _______ _______ _____ _____    ______ ____

>  <TORSDO>
F 5

$$$$
=
 OpenBabel10232409543D

 34 37  0  0  1  0  0  0  0  0999 V2000
  185.0330  176.8370  137.2790 C   0  0  0  0  0  0  0  0  0  0  0  0
  183.4720  175.2430  136.0810 C   0  0  1  0  0  3  0  0  0  0  0  0
  181.3570  177.1400  138.2420 C   0  0  0  0  0  0  0  0  0  0  0  0
  181.4290  177.9890  140.6270 C   0  0  2  0  0  3  0  0  0  0  0  0
  183.8470  177.4000  138.0450 C   0  0  1  0  0  3  0  0  0  0  0  0
  179.9880  176.0190  139.9560 C   0  0  0  0  0  1  0  0  0  0  0  0
  182.6690  179.6860  139.1780 C   0  0  2  0  0  3  0  0  0  0  0  0
  182.6810  176.4140  138.2640 C   0  0  2  0  0  3  0  0  0  0  0  0
  180.5760  177.3500  139.5110 C   0  0  2  0  0  3  0  0  0  0  0  0
  188.8400  179.3330  138.3120 O   0  0  0  0  0  0  0  0  0  0  0  0
  180.7770  177.8860  141.8580 O   0  0  0  0  0  1  0  0  0  0  0  0
  180.9170  177.5830  137.1920 O   0  0  0  0  0  0  0  0  0  0  0  0
  184.2060  177.9930  139.4120 C   0  0  0  0  0  2  0  0  0  0  0  0
  181.7290  179.4660  140.3670 C   0  0  0  0  0  2  0  0  0  0  0  0
  187.3610  176.9090  136.6040 C   0  0  0  0  0  0  0  0  0  0  0  0
  186.3280  177.3810  137.3620 C   0  0  0  0  0  0  0  0  0  0  0  0
  184.8360  175.8110  136.3170 C   0  0  0  0  0  0  0  0  0  0  0  0
  188.0680  178.4840  137.7950 C   0  0  0  0  0  0  0  0  0  0  0  0
  188.4860  177.5940  136.8620 N   0  0  0  0  0  2  0  0  0  0  0  0
  184.0170  179.3890  139.4720 O   0  0  0  0  0  0  0  0  0  0  0  0
  185.9140  175.3360  135.5390 C   0  0  0  0  0  3  0  0  0  0  0  0
  186.7580  178.3950  138.1300 N   0  0  0  0  0  2  0  0  0  0  0  0
  182.7400  175.1220  137.4190 C   0  0  1  0  0  3  0  0  0  0  0  0
  187.2000  175.8820  135.6810 C   0  0  0  0  0  3  0  0  0  0  0  0
  180.3620  174.8260  137.4320 O   0  0  0  0  0  0  0  0  0  0  0  0
  182.8490  172.1460  137.3430 C   0  0  0  0  0  1  0  0  0  0  0  0
  181.5790  172.8530  137.3630 N   0  0  0  0  0  2  0  0  0  0  0  0
  181.4950  174.2790  137.3980 C   0  0  0  0  0  0  0  0  0  0  0  0
  182.7360  176.0700  135.1120 C   0  0  0  0  0  0  0  0  0  0  0  0
  182.1580  176.7220  134.3510 N   0  0  0  0  0  0  0  0  0  0  0  0
  182.5360  181.1050  138.6290 C   0  0  0  0  0  2  0  0  0  0  0  0
  181.0890  181.5780  138.5540 C   0  0  0  0  0  2  0  0  0  0  0  0
  180.7660  180.8640  136.3100 O   0  0  0  0  0  1  0  0  0  0  0  0
  180.7380  181.9860  137.1370 C   0  0  0  0  0  2  0  0  0  0  0  0
  1 16  1  0  0  0  0
  1  5  1  0  0  0  0
  2 29  1  6  0  0  0
  2 17  1  0  0  0  0
  2 23  1  0  0  0  0
  3  9  1  0  0  0  0
  4 11  1  1  0  0  0
  5  8  1  0  0  0  0
  5 13  1  1  0  0  0
  7 31  1  1  0  0  0
  7 20  1  0  0  0  0
  7 14  1  0  0  0  0
  8  3  1  6  0  0  0
  9  6  1  1  0  0  0
  9  4  1  0  0  0  0
 12  3  2  0  0  0  0
 13 20  1  0  0  0  0
 14  4  1  0  0  0  0
 15 19  1  0  0  0  0
 15 16  2  0  0  0  0
 16 22  1  0  0  0  0
 17  1  2  0  0  0  0
 18 22  1  0  0  0  0
 18 10  2  0  0  0  0
 19 18  1  0  0  0  0
 21 24  2  0  0  0  0
 21 17  1  0  0  0  0
 23 28  1  6  0  0  0
 23  8  1  0  0  0  0
 24 15  1  0  0  0  0
 26 27  1  0  0  0  0
 27 28  1  0  0  0  0
 28 25  2  0  0  0  0
 30 29  3  0  0  0  0
 32 31  1  0  0  0  0
 33 34  1  0  0  0  0
 34 32  1  0  0  0  0
M  END
>  <MODEL>
7

>  <REMARK>
 VINA RESULT:      -4.1      3.862      8.190
  Name = 
  5 active torsions:
  status: ('A' for Active; 'I' for Inactive)
    1  A    between atoms: C_2  and  C_8
    2  A    between atoms: C_9  and  C_11
    3  A    between atoms: C_9  and  C_29
    4  A    between atoms: C_16  and  C_32
    5  A    between atoms: C_29  and  C_33
                            x       y       z     vdW  Elec       q    Type
                         _______ _______ _______ _____ _____    ______ ____

>  <TORSDO>
F 5

$$$$
=
 OpenBabel10232409543D

 34 37  0  0  1  0  0  0  0  0999 V2000
  183.6860  178.1220  140.4030 C   0  0  0  0  0  0  0  0  0  0  0  0
  181.2450  178.0150  139.7350 C   0  0  1  0  0  3  0  0  0  0  0  0
  183.0370  177.0780  136.7940 C   0  0  0  0  0  0  0  0  0  0  0  0
  185.1100  177.8510  135.5620 C   0  0  2  0  0  3  0  0  0  0  0  0
  184.0740  177.7060  138.9930 C   0  0  1  0  0  3  0  0  0  0  0  0
  182.7830  178.3660  134.7090 C   0  0  0  0  0  1  0  0  0  0  0  0
  185.8690  176.2470  137.3970 C   0  0  2  0  0  3  0  0  0  0  0  0
  183.0750  178.1150  137.8910 C   0  0  2  0  0  3  0  0  0  0  0  0
  183.6520  177.3600  135.4490 C   0  0  2  0  0  3  0  0  0  0  0  0
  187.5250  178.3150  143.0490 O   0  0  0  0  0  0  0  0  0  0  0  0
  185.5390  178.3870  134.3460 O   0  0  0  0  0  1  0  0  0  0  0  0
  182.5210  175.9900  136.9960 O   0  0  0  0  0  0  0  0  0  0  0  0
  185.4600  178.1910  138.5540 C   0  0  0  0  0  2  0  0  0  0  0  0
  186.0790  176.7370  135.9620 C   0  0  0  0  0  2  0  0  0  0  0  0
  184.2370  178.5530  142.7250 C   0  0  0  0  0  0  0  0  0  0  0  0
  184.6180  178.2560  141.4470 C   0  0  0  0  0  0  0  0  0  0  0  0
  182.3150  178.2450  140.7550 C   0  0  0  0  0  0  0  0  0  0  0  0
  186.3240  178.3500  142.6770 C   0  0  0  0  0  0  0  0  0  0  0  0
  185.3060  178.6210  143.5310 N   0  0  0  0  0  2  0  0  0  0  0  0
  186.3780  177.1360  138.3690 O   0  0  0  0  0  0  0  0  0  0  0  0
  181.9380  178.5500  142.0810 C   0  0  0  0  0  3  0  0  0  0  0  0
  185.9530  178.1160  141.3950 N   0  0  0  0  0  2  0  0  0  0  0  0
  181.6960  178.5960  138.3940 C   0  0  1  0  0  3  0  0  0  0  0  0
  182.9040  178.7130  143.0860 C   0  0  0  0  0  3  0  0  0  0  0  0
  179.9860  177.7170  136.9620 O   0  0  0  0  0  0  0  0  0  0  0  0
  181.0010  181.2250  137.1770 C   0  0  0  0  0  1  0  0  0  0  0  0
  180.3060  180.0080  136.7890 N   0  0  0  0  0  2  0  0  0  0  0  0
  180.6150  178.7340  137.3560 C   0  0  0  0  0  0  0  0  0  0  0  0
  180.9250  176.5820  139.6470 C   0  0  0  0  0  0  0  0  0  0  0  0
  180.6750  175.4540  139.5790 N   0  0  0  0  0  0  0  0  0  0  0  0
  186.4500  174.8480  137.5900 C   0  0  0  0  0  2  0  0  0  0  0  0
  185.6520  173.7700  136.8650 C   0  0  0  0  0  2  0  0  0  0  0  0
  184.0610  172.0710  137.3460 O   0  0  0  0  0  1  0  0  0  0  0  0
  184.4380  173.3700  137.6810 C   0  0  0  0  0  2  0  0  0  0  0  0
  1 17  2  0  0  0  0
  1 16  1  0  0  0  0
  2 29  1  6  0  0  0
  2 17  1  0  0  0  0
  3 12  2  0  0  0  0
  4 11  1  6  0  0  0
  4 14  1  0  0  0  0
  5 13  1  6  0  0  0
  5  1  1  0  0  0  0
  7 31  1  6  0  0  0
  7 20  1  0  0  0  0
  8  3  1  6  0  0  0
  8 23  1  0  0  0  0
  8  5  1  0  0  0  0
  9  6  1  1  0  0  0
  9  4  1  0  0  0  0
  9  3  1  0  0  0  0
 14  7  1  0  0  0  0
 15 24  1  0  0  0  0
 15 19  1  0  0  0  0
 16 15  2  0  0  0  0
 17 21  1  0  0  0  0
 18 10  2  0  0  0  0
 18 19  1  0  0  0  0
 20 13  1  0  0  0  0
 21 24  2  0  0  0  0
 22 16  1  0  0  0  0
 22 18  1  0  0  0  0
 23 28  1  6  0  0  0
 23  2  1  0  0  0  0
 25 28  2  0  0  0  0
 27 26  1  0  0  0  0
 27 28  1  0  0  0  0
 30 29  3  0  0  0  0
 32 31  1  0  0  0  0
 32 34  1  0  0  0  0
 33 34  1  0  0  0  0
M  END
>  <MODEL>
8

>  <REMARK>
 VINA RESULT:      -3.8      4.473      7.795
  Name = 
  5 active torsions:
  status: ('A' for Active; 'I' for Inactive)
    1  A    between atoms: C_2  and  C_8
    2  A    between atoms: C_9  and  C_11
    3  A    between atoms: C_9  and  C_29
    4  A    between atoms: C_16  and  C_32
    5  A    between atoms: C_29  and  C_33
                            x       y       z     vdW  Elec       q    Type
                         _______ _______ _______ _____ _____    ______ ____

>  <TORSDO>
F 5

$$$$
=
 OpenBabel10232409543D

 34 37  0  0  1  0  0  0  0  0999 V2000
  188.5210  178.0040  140.6920 C   0  0  0  0  0  0  0  0  0  0  0  0
  189.7750  177.0360  142.6680 C   0  0  1  0  0  3  0  0  0  0  0  0
  186.4940  177.7040  143.9070 C   0  0  0  0  0  0  0  0  0  0  0  0
  184.7840  179.5630  143.7150 C   0  0  2  0  0  3  0  0  0  0  0  0
  187.2860  178.1540  141.5670 C   0  0  1  0  0  3  0  0  0  0  0  0
  186.1620  179.2300  145.8130 C   0  0  0  0  0  1  0  0  0  0  0  0
  184.4820  178.0390  141.6900 C   0  0  2  0  0  3  0  0  0  0  0  0
  187.5700  178.3550  143.0700 C   0  0  2  0  0  3  0  0  0  0  0  0
  185.4800  178.5420  144.6390 C   0  0  2  0  0  3  0  0  0  0  0  0
  187.4300  179.1590  136.3030 O   0  0  0  0  0  0  0  0  0  0  0  0
  184.0910  180.5110  144.4710 O   0  0  0  0  0  1  0  0  0  0  0  0
  186.4260  176.4870  143.9800 O   0  0  0  0  0  0  0  0  0  0  0  0
  186.3370  179.2740  141.1270 C   0  0  0  0  0  2  0  0  0  0  0  0
  183.7960  178.9070  142.7480 C   0  0  0  0  0  2  0  0  0  0  0  0
  189.6160  178.0450  138.5280 C   0  0  0  0  0  0  0  0  0  0  0  0
  188.5170  178.2620  139.3090 C   0  0  0  0  0  0  0  0  0  0  0  0
  189.7090  177.4420  141.2290 C   0  0  0  0  0  0  0  0  0  0  0  0
  188.0660  178.7680  137.3160 C   0  0  0  0  0  0  0  0  0  0  0  0
  189.3570  178.3620  137.2510 N   0  0  0  0  0  2  0  0  0  0  0  0
  185.0950  178.7910  140.6650 O   0  0  0  0  0  0  0  0  0  0  0  0
  190.8360  177.2210  140.4080 C   0  0  0  0  0  3  0  0  0  0  0  0
  187.5080  178.7220  138.5500 N   0  0  0  0  0  2  0  0  0  0  0  0
  189.0210  178.0630  143.5140 C   0  0  1  0  0  3  0  0  0  0  0  0
  190.8020  177.5280  139.0390 C   0  0  0  0  0  3  0  0  0  0  0  0
  188.4890  177.2990  145.7230 O   0  0  0  0  0  0  0  0  0  0  0  0
  191.2720  179.5000  144.8330 C   0  0  0  0  0  1  0  0  0  0  0  0
  190.3490  178.6800  145.6010 N   0  0  0  0  0  2  0  0  0  0  0  0
  189.2610  177.9780  144.9970 C   0  0  0  0  0  0  0  0  0  0  0  0
  189.2460  175.6730  142.8370 C   0  0  0  0  0  0  0  0  0  0  0  0
  188.8320  174.6010  142.9710 N   0  0  0  0  0  0  0  0  0  0  0  0
  183.5070  177.0200  141.1010 C   0  0  0  0  0  2  0  0  0  0  0  0
  182.9370  177.4560  139.7560 C   0  0  0  0  0  2  0  0  0  0  0  0
  181.6010  179.4170  139.9010 O   0  0  0  0  0  1  0  0  0  0  0  0
  181.5420  178.0240  139.9310 C   0  0  0  0  0  2  0  0  0  0  0  0
  1 17  1  0  0  0  0
  1  5  1  0  0  0  0
  2 29  1  6  0  0  0
  2 23  1  0  0  0  0
  3 12  2  0  0  0  0
  3  9  1  0  0  0  0
  4 11  1  1  0  0  0
  4  9  1  0  0  0  0
  5 13  1  6  0  0  0
  5  8  1  0  0  0  0
  7 31  1  6  0  0  0
  7 14  1  0  0  0  0
  8 23  1  0  0  0  0
  8  3  1  1  0  0  0
  9  6  1  1  0  0  0
 10 18  2  0  0  0  0
 14  4  1  0  0  0  0
 15 24  2  0  0  0  0
 15 16  1  0  0  0  0
 16  1  2  0  0  0  0
 17  2  1  0  0  0  0
 18 22  1  0  0  0  0
 19 18  1  0  0  0  0
 19 15  1  0  0  0  0
 20 13  1  0  0  0  0
 20  7  1  0  0  0  0
 21 17  2  0  0  0  0
 22 16  1  0  0  0  0
 23 28  1  1  0  0  0
 24 21  1  0  0  0  0
 26 27  1  0  0  0  0
 28 27  1  0  0  0  0
 28 25  2  0  0  0  0
 29 30  3  0  0  0  0
 32 34  1  0  0  0  0
 32 31  1  0  0  0  0
 33 34  1  0  0  0  0
M  END
>  <MODEL>
9

>  <REMARK>
 VINA RESULT:      -3.7      3.451      7.398
  Name = 
  5 active torsions:
  status: ('A' for Active; 'I' for Inactive)
    1  A    between atoms: C_2  and  C_8
    2  A    between atoms: C_9  and  C_11
    3  A    between atoms: C_9  and  C_29
    4  A    between atoms: C_16  and  C_32
    5  A    between atoms: C_29  and  C_33
                            x       y       z     vdW  Elec       q    Type
                         _______ _______ _______ _____ _____    ______ ____

>  <TORSDO>
F 5

$$$$
