=
 OpenBabel10232408003D

 44 47  0  0  1  0  0  0  0  0999 V2000
  190.5080  177.1310  141.4600 C   0  0  0  0  0  0  0  0  0  0  0  0
  190.6020  177.0150  140.0720 O   0  0  0  0  0  0  0  0  0  0  0  0
  186.3130  178.1300  139.0090 N   0  0  0  0  0  0  0  0  0  0  0  0
  188.4970  177.2880  138.1870 C   0  0  0  0  0  0  0  0  0  0  0  0
  191.6350  177.2490  143.6070 C   0  0  0  0  0  3  0  0  0  0  0  0
  190.5140  178.0790  139.2510 O   0  0  0  0  0  0  0  0  0  0  0  0
  189.2210  177.1680  143.5220 C   0  0  0  0  0  3  0  0  0  0  0  0
  187.1470  177.2260  138.2490 C   0  0  0  0  0  0  0  0  0  0  0  0
  186.4610  178.7410  140.1550 C   0  0  0  0  0  0  0  0  0  0  0  0
  191.6860  177.1920  142.2110 C   0  0  0  0  0  3  0  0  0  0  0  0
  187.9740  177.1340  141.3800 C   0  0  0  0  0  2  0  0  0  0  0  0
  190.4000  177.2320  144.2760 C   0  0  0  0  0  0  0  0  0  0  0  0
  189.2640  177.1150  142.1260 C   0  0  0  0  0  0  0  0  0  0  0  0
  187.6580  178.5820  141.0430 C   0  0  0  0  0  2  0  0  0  0  0  0
  189.2020  178.2180  138.9630 O   0  0  0  0  0  0  0  0  0  0  0  0
  186.4100  176.2770  137.3540 C   0  0  0  0  0  1  0  0  0  0  0  0
  190.3460  177.2600  145.7530 C   0  0  0  0  0  0  0  0  0  0  0  0
  189.4170  177.9240  146.3650 N   0  0  0  0  0  2  0  0  0  0  0  0
  192.2520  175.5870  146.7110 N   0  0  0  0  0  0  0  0  0  0  0  0
  192.1800  176.5720  147.6720 N   0  0  0  0  0  2  0  0  0  0  0  0
  191.3830  176.5980  146.5470 C   0  0  0  0  0  0  0  0  0  0  0  0
  189.7840  175.1540  137.9630 C   0  0  0  0  0  1  0  0  0  0  0  0
  189.2420  176.3750  137.2390 C   0  0  2  0  0  3  0  0  0  0  0  0
  189.8160  177.5250  135.2070 O   0  0  0  0  0  1  0  0  0  0  0  0
  190.3220  177.1240  136.4460 C   0  0  2  0  0  3  0  0  0  0  0  0
  194.5850  175.4500  137.9920 O   0  0  0  0  0  0  0  0  0  0  0  0
  191.6230  175.5210  135.2300 O   0  0  0  0  0  0  0  0  0  0  0  0
  193.9470  175.8580  136.9800 C   0  0  0  0  0  0  0  0  0  0  0  0
  192.6220  176.3760  137.1650 N   0  0  0  0  0  2  0  0  0  0  0  0
  191.5450  176.2900  136.2270 C   0  0  0  0  0  0  0  0  0  0  0  0
  194.6140  175.8450  135.6590 C   0  0  0  0  0  0  0  0  0  0  0  0
  194.8550  174.7460  135.0950 O   0  0  0  0  0  0  0  0  0  0  0  0
  195.0800  177.1000  135.0090 C   0  0  0  0  0  1  0  0  0  0  0  0
  185.4450  179.6230  140.5480 O   0  0  0  0  0  0  0  0  0  0  0  0
  184.1820  179.1860  141.0450 C   0  0  1  0  0  3  0  0  0  0  0  0
  182.0400  179.2770  139.8550 C   0  0  0  0  0  2  0  0  0  0  0  0
  183.0800  179.5570  138.9440 O   0  0  0  0  0  0  0  0  0  0  0  0
  183.3460  178.5790  139.9290 C   0  0  1  0  0  3  0  0  0  0  0  0
  184.3800  178.1420  142.1330 C   0  0  0  0  0  2  0  0  0  0  0  0
  183.6390  178.5110  143.2850 O   0  0  0  0  0  0  0  0  0  0  0  0
  184.2630  178.7630  144.5030 C   0  0  0  0  0  0  0  0  0  0  0  0
  183.5740  179.1910  145.4680 O   0  0  0  0  0  0  0  0  0  0  0  0
  185.6330  178.5350  144.6570 O   0  0  0  0  0  0  0  0  0  0  0  0
  186.1420  177.7330  145.7050 C   0  0  0  0  0  1  0  0  0  0  0  0
  1 13  2  0  0  0  0
  1 10  1  0  0  0  0
  2  1  1  0  0  0  0
  3  9  2  0  0  0  0
  4  8  2  0  0  0  0
  4 15  1  0  0  0  0
  5 12  1  0  0  0  0
  6  2  1  0  0  0  0
  7 12  2  0  0  0  0
  8  3  1  0  0  0  0
  9 34  1  0  0  0  0
  9 14  1  0  0  0  0
 10  5  2  0  0  0  0
 11 13  1  0  0  0  0
 12 17  1  0  0  0  0
 13  7  1  0  0  0  0
 14 11  1  0  0  0  0
 15  6  1  0  0  0  0
 16  8  1  0  0  0  0
 17 18  2  0  0  0  0
 17 21  1  0  0  0  0
 19 20  1  0  0  0  0
 21 19  2  0  0  0  0
 21 20  1  0  0  0  0
 23 22  1  1  0  0  0
 23  4  1  0  0  0  0
 25 24  1  6  0  0  0
 25 23  1  0  0  0  0
 27 30  2  0  0  0  0
 28 29  1  0  0  0  0
 28 26  2  0  0  0  0
 30 25  1  0  0  0  0
 30 29  1  0  0  0  0
 31 28  1  0  0  0  0
 32 31  2  0  0  0  0
 33 31  1  0  0  0  0
 34 35  1  0  0  0  0
 35 39  1  1  0  0  0
 36 38  1  0  0  0  0
 37 36  1  0  0  0  0
 37 38  1  0  0  0  0
 38 35  1  1  0  0  0
 39 40  1  0  0  0  0
 40 41  1  0  0  0  0
 41 43  1  0  0  0  0
 41 42  2  0  0  0  0
 43 44  1  0  0  0  0
M  END
>  <MODEL>
1

>  <REMARK>
 VINA RESULT:      -7.4      0.000      0.000
  Name = 
  13 active torsions:
  status: ('A' for Active; 'I' for Inactive)
    1  A    between atoms: C_7  and  C_37
    2  A    between atoms: C_9  and  O_12
    3  A    between atoms: C_9  and  O_19
    4  A    between atoms: C_11  and  C_20
    5  A    between atoms: O_12  and  C_34
    6  A    between atoms: C_17  and  C_29
    7  A    between atoms: C_17  and  C_44
    8  A    between atoms: C_21  and  O_41
    9  A    between atoms: C_23  and  C_32
   10  A    between atoms: C_23  and  C_34
   11  A    between atoms: C_23  and  O_41
   12  A    between atoms: C_31  and  C_40
   13  A    between atoms: C_37  and  C_40
                            x       y       z     vdW  Elec       q    Type
                         _______ _______ _______ _____ _____    ______ ____

>  <TORSDO>
F 13

$$$$
=
 OpenBabel10232408003D

 44 47  0  0  1  0  0  0  0  0999 V2000
  187.7410  177.1570  137.7940 C   0  0  0  0  0  0  0  0  0  0  0  0
  188.9110  176.5710  137.3050 O   0  0  0  0  0  0  0  0  0  0  0  0
  191.4330  176.8350  141.0910 N   0  0  0  0  0  0  0  0  0  0  0  0
  191.3820  176.2890  138.6730 C   0  0  0  0  0  0  0  0  0  0  0  0
  185.3780  177.6230  137.4900 C   0  0  0  0  0  3  0  0  0  0  0  0
  189.3540  175.3740  137.7370 O   0  0  0  0  0  0  0  0  0  0  0  0
  186.5570  178.5760  139.3730 C   0  0  0  0  0  3  0  0  0  0  0  0
  191.9530  176.8860  139.7440 C   0  0  0  0  0  0  0  0  0  0  0  0
  190.2240  176.8200  141.5890 C   0  0  0  0  0  0  0  0  0  0  0  0
  186.5570  177.0020  137.0660 C   0  0  0  0  0  3  0  0  0  0  0  0
  188.9470  178.0910  139.8190 C   0  0  0  0  0  2  0  0  0  0  0  0
  185.3700  178.4200  138.6470 C   0  0  0  0  0  0  0  0  0  0  0  0
  187.7390  177.9560  138.9570 C   0  0  0  0  0  0  0  0  0  0  0  0
  188.9750  176.8990  140.7620 C   0  0  0  0  0  2  0  0  0  0  0  0
  190.1490  175.6340  138.7970 O   0  0  0  0  0  0  0  0  0  0  0  0
  193.3070  177.5130  139.6050 C   0  0  0  0  0  1  0  0  0  0  0  0
  184.1310  179.1030  139.0790 C   0  0  0  0  0  0  0  0  0  0  0  0
  183.9990  180.3830  138.9320 N   0  0  0  0  0  2  0  0  0  0  0  0
  182.3530  177.2230  139.8880 N   0  0  0  0  0  0  0  0  0  0  0  0
  182.0650  178.3020  140.6950 N   0  0  0  0  0  2  0  0  0  0  0  0
  183.0640  178.3540  139.7460 C   0  0  0  0  0  0  0  0  0  0  0  0
  191.2200  176.8400  136.2370 C   0  0  0  0  0  1  0  0  0  0  0  0
  192.1060  176.2930  137.3440 C   0  0  2  0  0  3  0  0  0  0  0  0
  192.1560  173.9430  137.8440 O   0  0  0  0  0  1  0  0  0  0  0  0
  192.6990  174.9190  137.0060 C   0  0  2  0  0  3  0  0  0  0  0  0
  196.8100  172.4860  137.7500 O   0  0  0  0  0  0  0  0  0  0  0  0
  194.8670  175.9290  136.8670 O   0  0  0  0  0  0  0  0  0  0  0  0
  196.2020  173.5710  137.9770 C   0  0  0  0  0  0  0  0  0  0  0  0
  194.8360  173.6950  137.5580 N   0  0  0  0  0  2  0  0  0  0  0  0
  194.1900  174.8990  137.1330 C   0  0  0  0  0  0  0  0  0  0  0  0
  196.9010  174.6420  138.7210 C   0  0  0  0  0  0  0  0  0  0  0  0
  197.8560  175.2560  138.1770 O   0  0  0  0  0  0  0  0  0  0  0  0
  196.5550  174.9650  140.1330 C   0  0  0  0  0  1  0  0  0  0  0  0
  190.1020  176.6880  142.9780 O   0  0  0  0  0  0  0  0  0  0  0  0
  189.5200  177.6900  143.8100 C   0  0  1  0  0  3  0  0  0  0  0  0
  187.0720  177.5950  143.7550 C   0  0  0  0  0  2  0  0  0  0  0  0
  187.5810  176.2850  143.6330 O   0  0  0  0  0  0  0  0  0  0  0  0
  188.2750  177.1580  144.5020 C   0  0  1  0  0  3  0  0  0  0  0  0
  190.5180  178.1340  144.8690 C   0  0  0  0  0  2  0  0  0  0  0  0
  191.0520  176.9940  145.5240 O   0  0  0  0  0  0  0  0  0  0  0  0
  190.9270  176.8180  146.8990 C   0  0  0  0  0  0  0  0  0  0  0  0
  189.7830  176.6340  147.3920 O   0  0  0  0  0  0  0  0  0  0  0  0
  192.0580  176.8380  147.7200 O   0  0  0  0  0  0  0  0  0  0  0  0
  192.7430  175.6520  148.0730 C   0  0  0  0  0  1  0  0  0  0  0  0
  1 13  1  0  0  0  0
  2  6  1  0  0  0  0
  2  1  1  0  0  0  0
  3  9  2  0  0  0  0
  4 15  1  0  0  0  0
  4  8  2  0  0  0  0
  5 12  2  0  0  0  0
  6 15  1  0  0  0  0
  8  3  1  0  0  0  0
  9 34  1  0  0  0  0
 10  5  1  0  0  0  0
 10  1  2  0  0  0  0
 11 14  1  0  0  0  0
 12 17  1  0  0  0  0
 12  7  1  0  0  0  0
 13  7  2  0  0  0  0
 13 11  1  0  0  0  0
 14  9  1  0  0  0  0
 16  8  1  0  0  0  0
 17 21  1  0  0  0  0
 18 17  2  0  0  0  0
 19 20  1  0  0  0  0
 21 19  2  0  0  0  0
 21 20  1  0  0  0  0
 23 22  1  6  0  0  0
 23  4  1  0  0  0  0
 25 30  1  0  0  0  0
 25 23  1  0  0  0  0
 25 24  1  1  0  0  0
 26 28  2  0  0  0  0
 27 30  2  0  0  0  0
 28 31  1  0  0  0  0
 29 28  1  0  0  0  0
 30 29  1  0  0  0  0
 31 33  1  0  0  0  0
 32 31  2  0  0  0  0
 34 35  1  0  0  0  0
 35 39  1  1  0  0  0
 36 38  1  0  0  0  0
 37 36  1  0  0  0  0
 37 38  1  0  0  0  0
 38 35  1  6  0  0  0
 39 40  1  0  0  0  0
 40 41  1  0  0  0  0
 41 42  2  0  0  0  0
 41 43  1  0  0  0  0
 43 44  1  0  0  0  0
M  END
>  <MODEL>
2

>  <REMARK>
 VINA RESULT:      -7.0      2.899      6.290
  Name = 
  13 active torsions:
  status: ('A' for Active; 'I' for Inactive)
    1  A    between atoms: C_7  and  C_37
    2  A    between atoms: C_9  and  O_12
    3  A    between atoms: C_9  and  O_19
    4  A    between atoms: C_11  and  C_20
    5  A    between atoms: O_12  and  C_34
    6  A    between atoms: C_17  and  C_29
    7  A    between atoms: C_17  and  C_44
    8  A    between atoms: C_21  and  O_41
    9  A    between atoms: C_23  and  C_32
   10  A    between atoms: C_23  and  C_34
   11  A    between atoms: C_23  and  O_41
   12  A    between atoms: C_31  and  C_40
   13  A    between atoms: C_37  and  C_40
                            x       y       z     vdW  Elec       q    Type
                         _______ _______ _______ _____ _____    ______ ____

>  <TORSDO>
F 13

$$$$
=
 OpenBabel10232408003D

 44 47  0  0  1  0  0  0  0  0999 V2000
  190.2120  177.5190  140.1420 C   0  0  0  0  0  0  0  0  0  0  0  0
  190.0620  177.7070  138.7660 O   0  0  0  0  0  0  0  0  0  0  0  0
  185.5830  178.5380  138.6800 N   0  0  0  0  0  0  0  0  0  0  0  0
  187.6380  178.1340  137.3520 C   0  0  0  0  0  0  0  0  0  0  0  0
  191.6960  177.3100  142.0510 C   0  0  0  0  0  3  0  0  0  0  0  0
  189.7500  178.9040  138.2300 O   0  0  0  0  0  0  0  0  0  0  0  0
  189.3180  176.9820  142.3370 C   0  0  0  0  0  3  0  0  0  0  0  0
  186.3290  177.9110  137.6130 C   0  0  0  0  0  0  0  0  0  0  0  0
  185.8890  178.9090  139.8960 C   0  0  0  0  0  0  0  0  0  0  0  0
  191.4990  177.5530  140.6880 C   0  0  0  0  0  3  0  0  0  0  0  0
  187.7120  177.2580  140.4690 C   0  0  0  0  0  2  0  0  0  0  0  0
  190.6060  177.0170  142.8870 C   0  0  0  0  0  0  0  0  0  0  0  0
  189.1120  177.2270  140.9760 C   0  0  0  0  0  0  0  0  0  0  0  0
  187.2360  178.7010  140.5220 C   0  0  0  0  0  2  0  0  0  0  0  0
  188.4020  178.9530  138.1950 O   0  0  0  0  0  0  0  0  0  0  0  0
  185.5150  177.0950  136.6570 C   0  0  0  0  0  1  0  0  0  0  0  0
  190.8170  176.7290  144.3220 C   0  0  0  0  0  0  0  0  0  0  0  0
  191.8420  176.0390  144.7120 N   0  0  0  0  0  2  0  0  0  0  0  0
  189.5520  177.7080  146.5110 N   0  0  0  0  0  0  0  0  0  0  0  0
  188.5160  177.2890  145.7050 N   0  0  0  0  0  2  0  0  0  0  0  0
  189.8330  177.1570  145.3180 C   0  0  0  0  0  0  0  0  0  0  0  0
  187.4490  177.8450  134.8740 C   0  0  0  0  0  1  0  0  0  0  0  0
  188.2640  177.5280  136.1160 C   0  0  2  0  0  3  0  0  0  0  0  0
  188.2980  175.6410  137.6050 O   0  0  0  0  0  1  0  0  0  0  0  0
  188.5330  176.0260  136.2830 C   0  0  2  0  0  3  0  0  0  0  0  0
  192.2550  172.9490  136.4960 O   0  0  0  0  0  0  0  0  0  0  0  0
  190.5690  176.3400  135.0600 O   0  0  0  0  0  0  0  0  0  0  0  0
  191.9320  174.1710  136.4790 C   0  0  0  0  0  0  0  0  0  0  0  0
  190.5400  174.5140  136.5210 N   0  0  0  0  0  2  0  0  0  0  0  0
  189.9330  175.6550  135.9070 C   0  0  0  0  0  0  0  0  0  0  0  0
  192.9990  175.1950  136.4800 C   0  0  0  0  0  0  0  0  0  0  0  0
  193.8040  175.2560  135.5150 O   0  0  0  0  0  0  0  0  0  0  0  0
  193.1980  176.1130  137.6350 C   0  0  0  0  0  1  0  0  0  0  0  0
  184.8990  179.5710  140.6350 O   0  0  0  0  0  0  0  0  0  0  0  0
  183.9740  178.8930  141.4820 C   0  0  1  0  0  3  0  0  0  0  0  0
  181.7770  178.0430  140.8060 C   0  0  0  0  0  2  0  0  0  0  0  0
  182.5090  178.3840  139.6490 O   0  0  0  0  0  0  0  0  0  0  0  0
  183.2380  177.8070  140.7140 C   0  0  1  0  0  3  0  0  0  0  0  0
  184.7080  178.2550  142.6520 C   0  0  0  0  0  2  0  0  0  0  0  0
  184.6270  179.1080  143.7840 O   0  0  0  0  0  0  0  0  0  0  0  0
  183.6360  178.9480  144.7480 C   0  0  0  0  0  0  0  0  0  0  0  0
  182.4420  178.7920  144.3790 O   0  0  0  0  0  0  0  0  0  0  0  0
  183.9640  178.9520  146.1060 O   0  0  0  0  0  0  0  0  0  0  0  0
  185.2390  178.5500  146.5660 C   0  0  0  0  0  1  0  0  0  0  0  0
  1 10  2  0  0  0  0
  1 13  1  0  0  0  0
  2  1  1  0  0  0  0
  3  9  2  0  0  0  0
  4  8  2  0  0  0  0
  4 15  1  0  0  0  0
  5 12  2  0  0  0  0
  6  2  1  0  0  0  0
  7 12  1  0  0  0  0
  8  3  1  0  0  0  0
  9 14  1  0  0  0  0
  9 34  1  0  0  0  0
 10  5  1  0  0  0  0
 11 14  1  0  0  0  0
 11 13  1  0  0  0  0
 12 17  1  0  0  0  0
 13  7  2  0  0  0  0
 15  6  1  0  0  0  0
 16  8  1  0  0  0  0
 17 18  2  0  0  0  0
 17 21  1  0  0  0  0
 20 19  1  0  0  0  0
 21 20  1  0  0  0  0
 21 19  2  0  0  0  0
 23 22  1  6  0  0  0
 23 25  1  0  0  0  0
 23  4  1  0  0  0  0
 25 24  1  1  0  0  0
 27 30  2  0  0  0  0
 28 31  1  0  0  0  0
 28 26  2  0  0  0  0
 28 29  1  0  0  0  0
 30 25  1  0  0  0  0
 30 29  1  0  0  0  0
 31 33  1  0  0  0  0
 32 31  2  0  0  0  0
 34 35  1  0  0  0  0
 35 39  1  1  0  0  0
 37 38  1  0  0  0  0
 37 36  1  0  0  0  0
 38 36  1  0  0  0  0
 38 35  1  1  0  0  0
 39 40  1  0  0  0  0
 40 41  1  0  0  0  0
 41 43  1  0  0  0  0
 42 41  2  0  0  0  0
 43 44  1  0  0  0  0
M  END
>  <MODEL>
3

>  <REMARK>
 VINA RESULT:      -6.9      1.483      2.060
  Name = 
  13 active torsions:
  status: ('A' for Active; 'I' for Inactive)
    1  A    between atoms: C_7  and  C_37
    2  A    between atoms: C_9  and  O_12
    3  A    between atoms: C_9  and  O_19
    4  A    between atoms: C_11  and  C_20
    5  A    between atoms: O_12  and  C_34
    6  A    between atoms: C_17  and  C_29
    7  A    between atoms: C_17  and  C_44
    8  A    between atoms: C_21  and  O_41
    9  A    between atoms: C_23  and  C_32
   10  A    between atoms: C_23  and  C_34
   11  A    between atoms: C_23  and  O_41
   12  A    between atoms: C_31  and  C_40
   13  A    between atoms: C_37  and  C_40
                            x       y       z     vdW  Elec       q    Type
                         _______ _______ _______ _____ _____    ______ ____

>  <TORSDO>
F 13

$$$$
=
 OpenBabel10232408003D

 44 47  0  0  1  0  0  0  0  0999 V2000
  187.5280  176.8980  137.4890 C   0  0  0  0  0  0  0  0  0  0  0  0
  188.6600  176.2110  137.0470 O   0  0  0  0  0  0  0  0  0  0  0  0
  191.4510  177.2090  140.5080 N   0  0  0  0  0  0  0  0  0  0  0  0
  191.2260  176.1820  138.2620 C   0  0  0  0  0  0  0  0  0  0  0  0
  185.1480  177.3210  137.2670 C   0  0  0  0  0  3  0  0  0  0  0  0
  189.1370  175.1210  137.6800 O   0  0  0  0  0  0  0  0  0  0  0  0
  186.4580  178.6230  138.8270 C   0  0  0  0  0  3  0  0  0  0  0  0
  191.8720  176.9770  139.1450 C   0  0  0  0  0  0  0  0  0  0  0  0
  190.2810  177.3100  141.0840 C   0  0  0  0  0  0  0  0  0  0  0  0
  186.2940  176.6130  136.8950 C   0  0  0  0  0  3  0  0  0  0  0  0
  188.8760  178.2090  139.1890 C   0  0  0  0  0  2  0  0  0  0  0  0
  185.2210  178.3370  138.2350 C   0  0  0  0  0  0  0  0  0  0  0  0
  187.6080  177.9160  138.4620 C   0  0  0  0  0  0  0  0  0  0  0  0
  188.9760  177.2340  140.3510 C   0  0  0  0  0  2  0  0  0  0  0  0
  190.0060  175.5820  138.6050 O   0  0  0  0  0  0  0  0  0  0  0  0
  193.2100  177.5470  138.7840 C   0  0  0  0  0  1  0  0  0  0  0  0
  184.0160  179.1080  138.6070 C   0  0  0  0  0  0  0  0  0  0  0  0
  184.1250  180.2740  139.1620 N   0  0  0  0  0  2  0  0  0  0  0  0
  181.6260  177.8660  138.9160 N   0  0  0  0  0  0  0  0  0  0  0  0
  181.5920  178.3010  137.6090 N   0  0  0  0  0  2  0  0  0  0  0  0
  182.6810  178.5350  138.4220 C   0  0  0  0  0  0  0  0  0  0  0  0
  190.9210  176.3190  135.7820 C   0  0  0  0  0  1  0  0  0  0  0  0
  191.8500  175.9080  136.9120 C   0  0  2  0  0  3  0  0  0  0  0  0
  191.6690  173.6470  137.7070 O   0  0  0  0  0  1  0  0  0  0  0  0
  192.3340  174.4570  136.7840 C   0  0  2  0  0  3  0  0  0  0  0  0
  196.1490  171.9000  138.2940 O   0  0  0  0  0  0  0  0  0  0  0  0
  194.5970  175.2060  136.5410 O   0  0  0  0  0  0  0  0  0  0  0  0
  195.6470  173.0590  138.2340 C   0  0  0  0  0  0  0  0  0  0  0  0
  194.3150  173.2050  137.7210 N   0  0  0  0  0  2  0  0  0  0  0  0
  193.8100  174.3310  136.9960 C   0  0  0  0  0  0  0  0  0  0  0  0
  196.4250  174.2050  138.7530 C   0  0  0  0  0  0  0  0  0  0  0  0
  195.9220  174.9490  139.6350 O   0  0  0  0  0  0  0  0  0  0  0  0
  197.7640  174.5510  138.2040 C   0  0  0  0  0  1  0  0  0  0  0  0
  190.2620  177.4640  142.4770 O   0  0  0  0  0  0  0  0  0  0  0  0
  189.8700  176.4260  143.3720 C   0  0  1  0  0  3  0  0  0  0  0  0
  191.6790  176.2380  145.0150 C   0  0  0  0  0  2  0  0  0  0  0  0
  191.4290  177.6030  144.7660 O   0  0  0  0  0  0  0  0  0  0  0  0
  190.3050  176.7480  144.7920 C   0  0  1  0  0  3  0  0  0  0  0  0
  188.3570  176.2590  143.3480 C   0  0  0  0  0  2  0  0  0  0  0  0
  187.7390  177.5170  143.5670 O   0  0  0  0  0  0  0  0  0  0  0  0
  186.5590  177.6320  144.2950 C   0  0  0  0  0  0  0  0  0  0  0  0
  186.5810  177.4160  145.5370 O   0  0  0  0  0  0  0  0  0  0  0  0
  185.3670  177.9890  143.6590 O   0  0  0  0  0  0  0  0  0  0  0  0
  185.3440  178.8990  142.5770 C   0  0  0  0  0  1  0  0  0  0  0  0
  1 13  1  0  0  0  0
  2  1  1  0  0  0  0
  2  6  1  0  0  0  0
  3  9  2  0  0  0  0
  4 15  1  0  0  0  0
  4  8  2  0  0  0  0
  5 12  2  0  0  0  0
  6 15  1  0  0  0  0
  8  3  1  0  0  0  0
  9 34  1  0  0  0  0
 10  5  1  0  0  0  0
 10  1  2  0  0  0  0
 11 14  1  0  0  0  0
 12 17  1  0  0  0  0
 12  7  1  0  0  0  0
 13  7  2  0  0  0  0
 13 11  1  0  0  0  0
 14  9  1  0  0  0  0
 16  8  1  0  0  0  0
 17 18  2  0  0  0  0
 20 21  1  0  0  0  0
 20 19  1  0  0  0  0
 21 17  1  0  0  0  0
 21 19  2  0  0  0  0
 23 22  1  6  0  0  0
 23  4  1  0  0  0  0
 25 23  1  0  0  0  0
 25 30  1  0  0  0  0
 25 24  1  1  0  0  0
 27 30  2  0  0  0  0
 28 26  2  0  0  0  0
 28 31  1  0  0  0  0
 29 28  1  0  0  0  0
 30 29  1  0  0  0  0
 31 32  2  0  0  0  0
 33 31  1  0  0  0  0
 34 35  1  0  0  0  0
 35 39  1  1  0  0  0
 37 38  1  0  0  0  0
 37 36  1  0  0  0  0
 38 35  1  6  0  0  0
 38 36  1  0  0  0  0
 39 40  1  0  0  0  0
 40 41  1  0  0  0  0
 41 42  2  0  0  0  0
 43 41  1  0  0  0  0
 44 43  1  0  0  0  0
M  END
>  <MODEL>
4

>  <REMARK>
 VINA RESULT:      -6.5      2.703      6.404
  Name = 
  13 active torsions:
  status: ('A' for Active; 'I' for Inactive)
    1  A    between atoms: C_7  and  C_37
    2  A    between atoms: C_9  and  O_12
    3  A    between atoms: C_9  and  O_19
    4  A    between atoms: C_11  and  C_20
    5  A    between atoms: O_12  and  C_34
    6  A    between atoms: C_17  and  C_29
    7  A    between atoms: C_17  and  C_44
    8  A    between atoms: C_21  and  O_41
    9  A    between atoms: C_23  and  C_32
   10  A    between atoms: C_23  and  C_34
   11  A    between atoms: C_23  and  O_41
   12  A    between atoms: C_31  and  C_40
   13  A    between atoms: C_37  and  C_40
                            x       y       z     vdW  Elec       q    Type
                         _______ _______ _______ _____ _____    ______ ____

>  <TORSDO>
F 13

$$$$
=
 OpenBabel10232408003D

 44 47  0  0  1  0  0  0  0  0999 V2000
  188.5970  176.2980  137.3140 C   0  0  0  0  0  0  0  0  0  0  0  0
  189.8800  175.7970  137.0820 O   0  0  0  0  0  0  0  0  0  0  0  0
  191.9280  177.4360  140.8080 N   0  0  0  0  0  0  0  0  0  0  0  0
  192.2080  176.2770  138.6340 C   0  0  0  0  0  0  0  0  0  0  0  0
  186.2380  176.2870  136.7400 C   0  0  0  0  0  3  0  0  0  0  0  0
  190.4320  174.8400  137.8530 O   0  0  0  0  0  0  0  0  0  0  0  0
  187.0710  177.8720  138.3640 C   0  0  0  0  0  3  0  0  0  0  0  0
  192.5760  177.2150  139.5360 C   0  0  0  0  0  0  0  0  0  0  0  0
  190.6860  177.3600  141.2110 C   0  0  0  0  0  0  0  0  0  0  0  0
  187.5280  175.7720  136.5800 C   0  0  0  0  0  3  0  0  0  0  0  0
  189.4440  177.9060  139.0810 C   0  0  0  0  0  2  0  0  0  0  0  0
  185.9990  177.3470  137.6310 C   0  0  0  0  0  0  0  0  0  0  0  0
  188.3640  177.3610  138.2120 C   0  0  0  0  0  0  0  0  0  0  0  0
  189.5330  177.0210  140.3140 C   0  0  0  0  0  2  0  0  0  0  0  0
  191.0680  175.4910  138.8510 O   0  0  0  0  0  0  0  0  0  0  0  0
  193.8400  177.9910  139.3200 C   0  0  0  0  0  1  0  0  0  0  0  0
  184.6410  177.9130  137.7780 C   0  0  0  0  0  0  0  0  0  0  0  0
  183.6710  177.5000  137.0240 N   0  0  0  0  0  2  0  0  0  0  0  0
  183.6760  180.0790  139.0910 N   0  0  0  0  0  0  0  0  0  0  0  0
  184.7060  179.6490  139.8990 N   0  0  0  0  0  2  0  0  0  0  0  0
  184.3870  178.9990  138.7260 C   0  0  0  0  0  0  0  0  0  0  0  0
  192.2310  176.1410  136.1360 C   0  0  0  0  0  1  0  0  0  0  0  0
  193.0600  176.0500  137.4060 C   0  0  2  0  0  3  0  0  0  0  0  0
  194.2510  174.5110  138.8180 O   0  0  0  0  0  1  0  0  0  0  0  0
  193.8670  174.7470  137.4960 C   0  0  2  0  0  3  0  0  0  0  0  0
  197.4420  172.4250  135.2160 O   0  0  0  0  0  0  0  0  0  0  0  0
  195.4510  175.8470  136.0740 O   0  0  0  0  0  0  0  0  0  0  0  0
  197.1450  173.4660  135.8680 C   0  0  0  0  0  0  0  0  0  0  0  0
  195.8330  173.5680  136.4400 N   0  0  0  0  0  2  0  0  0  0  0  0
  195.0870  174.7740  136.6300 C   0  0  0  0  0  0  0  0  0  0  0  0
  198.1780  174.5060  136.0700 C   0  0  0  0  0  0  0  0  0  0  0  0
  198.4580  174.8850  137.2370 O   0  0  0  0  0  0  0  0  0  0  0  0
  198.8460  175.1750  134.9210 C   0  0  0  0  0  1  0  0  0  0  0  0
  190.4370  177.5770  142.5720 O   0  0  0  0  0  0  0  0  0  0  0  0
  190.1570  176.5240  143.4930 C   0  0  1  0  0  3  0  0  0  0  0  0
  191.6340  176.3820  145.4430 C   0  0  0  0  0  2  0  0  0  0  0  0
  191.5880  177.7210  145.0030 O   0  0  0  0  0  0  0  0  0  0  0  0
  190.3840  176.9860  144.9230 C   0  0  1  0  0  3  0  0  0  0  0  0
  188.7120  176.0720  143.3470 C   0  0  0  0  0  2  0  0  0  0  0  0
  187.8810  176.8680  144.1770 O   0  0  0  0  0  0  0  0  0  0  0  0
  186.8310  177.6170  143.6550 C   0  0  0  0  0  0  0  0  0  0  0  0
  186.9280  178.0760  142.4850 O   0  0  0  0  0  0  0  0  0  0  0  0
  185.6820  177.8510  144.4150 O   0  0  0  0  0  0  0  0  0  0  0  0
  185.6430  178.8450  145.4200 C   0  0  0  0  0  1  0  0  0  0  0  0
  1 13  1  0  0  0  0
  2  1  1  0  0  0  0
  2  6  1  0  0  0  0
  3  9  2  0  0  0  0
  4 15  1  0  0  0  0
  4  8  2  0  0  0  0
  5 12  2  0  0  0  0
  6 15  1  0  0  0  0
  8  3  1  0  0  0  0
  9 34  1  0  0  0  0
 10  5  1  0  0  0  0
 10  1  2  0  0  0  0
 11 14  1  0  0  0  0
 12 17  1  0  0  0  0
 12  7  1  0  0  0  0
 13  7  2  0  0  0  0
 13 11  1  0  0  0  0
 14  9  1  0  0  0  0
 16  8  1  0  0  0  0
 17 21  1  0  0  0  0
 18 17  2  0  0  0  0
 19 20  1  0  0  0  0
 21 19  2  0  0  0  0
 21 20  1  0  0  0  0
 23 22  1  6  0  0  0
 23 25  1  0  0  0  0
 23  4  1  0  0  0  0
 25 24  1  1  0  0  0
 26 28  2  0  0  0  0
 27 30  2  0  0  0  0
 28 31  1  0  0  0  0
 28 29  1  0  0  0  0
 29 30  1  0  0  0  0
 30 25  1  0  0  0  0
 31 32  2  0  0  0  0
 33 31  1  0  0  0  0
 34 35  1  0  0  0  0
 35 39  1  1  0  0  0
 37 36  1  0  0  0  0
 38 35  1  6  0  0  0
 38 37  1  0  0  0  0
 38 36  1  0  0  0  0
 39 40  1  0  0  0  0
 41 40  1  0  0  0  0
 41 43  1  0  0  0  0
 42 41  2  0  0  0  0
 43 44  1  0  0  0  0
M  END
>  <MODEL>
5

>  <REMARK>
 VINA RESULT:      -6.4      2.650      6.385
  Name = 
  13 active torsions:
  status: ('A' for Active; 'I' for Inactive)
    1  A    between atoms: C_7  and  C_37
    2  A    between atoms: C_9  and  O_12
    3  A    between atoms: C_9  and  O_19
    4  A    between atoms: C_11  and  C_20
    5  A    between atoms: O_12  and  C_34
    6  A    between atoms: C_17  and  C_29
    7  A    between atoms: C_17  and  C_44
    8  A    between atoms: C_21  and  O_41
    9  A    between atoms: C_23  and  C_32
   10  A    between atoms: C_23  and  C_34
   11  A    between atoms: C_23  and  O_41
   12  A    between atoms: C_31  and  C_40
   13  A    between atoms: C_37  and  C_40
                            x       y       z     vdW  Elec       q    Type
                         _______ _______ _______ _____ _____    ______ ____

>  <TORSDO>
F 13

$$$$
=
 OpenBabel10232408003D

 44 47  0  0  1  0  0  0  0  0999 V2000
  190.2280  177.5980  140.6790 C   0  0  0  0  0  0  0  0  0  0  0  0
  190.0820  177.7860  139.3030 O   0  0  0  0  0  0  0  0  0  0  0  0
  185.5830  178.4970  139.1920 N   0  0  0  0  0  0  0  0  0  0  0  0
  187.6560  178.1510  137.8750 C   0  0  0  0  0  0  0  0  0  0  0  0
  191.7070  177.4250  142.5960 C   0  0  0  0  0  3  0  0  0  0  0  0
  189.7420  178.9750  138.7680 O   0  0  0  0  0  0  0  0  0  0  0  0
  189.3370  177.0320  142.8680 C   0  0  0  0  0  3  0  0  0  0  0  0
  186.3520  177.8930  138.1280 C   0  0  0  0  0  0  0  0  0  0  0  0
  185.8720  178.8730  140.4100 C   0  0  0  0  0  0  0  0  0  0  0  0
  191.5110  177.6650  141.2330 C   0  0  0  0  0  3  0  0  0  0  0  0
  187.7340  177.2700  140.9910 C   0  0  0  0  0  2  0  0  0  0  0  0
  190.6200  177.1000  143.4260 C   0  0  0  0  0  0  0  0  0  0  0  0
  189.1330  177.2750  141.5060 C   0  0  0  0  0  0  0  0  0  0  0  0
  187.2200  178.6990  141.0440 C   0  0  0  0  0  2  0  0  0  0  0  0
  188.3930  178.9880  138.7240 O   0  0  0  0  0  0  0  0  0  0  0  0
  185.5650  177.0570  137.1650 C   0  0  0  0  0  1  0  0  0  0  0  0
  190.8300  176.8150  144.8610 C   0  0  0  0  0  0  0  0  0  0  0  0
  191.8790  176.1650  145.2570 N   0  0  0  0  0  2  0  0  0  0  0  0
  189.3950  178.0350  146.8110 N   0  0  0  0  0  0  0  0  0  0  0  0
  188.6090  176.9570  146.4640 N   0  0  0  0  0  2  0  0  0  0  0  0
  189.8200  177.1970  145.8500 C   0  0  0  0  0  0  0  0  0  0  0  0
  187.4250  177.7460  135.4160 C   0  0  0  0  0  1  0  0  0  0  0  0
  188.3060  177.5650  136.6420 C   0  0  2  0  0  3  0  0  0  0  0  0
  188.4580  175.7110  138.1640 O   0  0  0  0  0  1  0  0  0  0  0  0
  188.7350  176.1060  136.8540 C   0  0  2  0  0  3  0  0  0  0  0  0
  192.8480  173.6920  137.6440 O   0  0  0  0  0  0  0  0  0  0  0  0
  190.7620  176.5360  135.6510 O   0  0  0  0  0  0  0  0  0  0  0  0
  192.3520  174.8340  137.4270 C   0  0  0  0  0  0  0  0  0  0  0  0
  190.9250  174.9670  137.3780 N   0  0  0  0  0  2  0  0  0  0  0  0
  190.1910  175.8980  136.5780 C   0  0  0  0  0  0  0  0  0  0  0  0
  193.2590  175.9960  137.2960 C   0  0  0  0  0  0  0  0  0  0  0  0
  193.2250  176.9110  138.1600 O   0  0  0  0  0  0  0  0  0  0  0  0
  194.1630  176.1530  136.1240 C   0  0  0  0  0  1  0  0  0  0  0  0
  184.8610  179.5060  141.1440 O   0  0  0  0  0  0  0  0  0  0  0  0
  184.0220  178.8190  142.0710 C   0  0  1  0  0  3  0  0  0  0  0  0
  184.0870  178.4900  144.4990 C   0  0  0  0  0  2  0  0  0  0  0  0
  185.2380  179.2030  144.1050 O   0  0  0  0  0  0  0  0  0  0  0  0
  184.0380  179.5110  143.4250 C   0  0  1  0  0  3  0  0  0  0  0  0
  182.5910  178.7850  141.5550 C   0  0  0  0  0  2  0  0  0  0  0  0
  182.4150  177.6500  140.7220 O   0  0  0  0  0  0  0  0  0  0  0  0
  181.2010  177.3860  140.0970 C   0  0  0  0  0  0  0  0  0  0  0  0
  180.2740  178.2360  140.1740 O   0  0  0  0  0  0  0  0  0  0  0  0
  181.0140  176.1960  139.3870 O   0  0  0  0  0  0  0  0  0  0  0  0
  180.3510  175.0850  139.9580 C   0  0  0  0  0  1  0  0  0  0  0  0
  1 10  2  0  0  0  0
  1 13  1  0  0  0  0
  2  1  1  0  0  0  0
  3  9  2  0  0  0  0
  4  8  2  0  0  0  0
  4 15  1  0  0  0  0
  5 12  2  0  0  0  0
  6  2  1  0  0  0  0
  7 12  1  0  0  0  0
  8  3  1  0  0  0  0
  9 14  1  0  0  0  0
  9 34  1  0  0  0  0
 10  5  1  0  0  0  0
 11 14  1  0  0  0  0
 11 13  1  0  0  0  0
 12 17  1  0  0  0  0
 13  7  2  0  0  0  0
 15  6  1  0  0  0  0
 16  8  1  0  0  0  0
 17 18  2  0  0  0  0
 17 21  1  0  0  0  0
 20 19  1  0  0  0  0
 21 20  1  0  0  0  0
 21 19  2  0  0  0  0
 23 22  1  6  0  0  0
 23 25  1  0  0  0  0
 23  4  1  0  0  0  0
 25 24  1  1  0  0  0
 27 30  2  0  0  0  0
 28 26  2  0  0  0  0
 29 28  1  0  0  0  0
 30 25  1  0  0  0  0
 30 29  1  0  0  0  0
 31 28  1  0  0  0  0
 31 32  2  0  0  0  0
 33 31  1  0  0  0  0
 34 35  1  0  0  0  0
 35 39  1  6  0  0  0
 37 36  1  0  0  0  0
 38 35  1  6  0  0  0
 38 37  1  0  0  0  0
 38 36  1  0  0  0  0
 40 39  1  0  0  0  0
 41 42  2  0  0  0  0
 41 40  1  0  0  0  0
 43 44  1  0  0  0  0
 43 41  1  0  0  0  0
M  END
>  <MODEL>
6

>  <REMARK>
 VINA RESULT:      -6.4      1.679      3.109
  Name = 
  13 active torsions:
  status: ('A' for Active; 'I' for Inactive)
    1  A    between atoms: C_7  and  C_37
    2  A    between atoms: C_9  and  O_12
    3  A    between atoms: C_9  and  O_19
    4  A    between atoms: C_11  and  C_20
    5  A    between atoms: O_12  and  C_34
    6  A    between atoms: C_17  and  C_29
    7  A    between atoms: C_17  and  C_44
    8  A    between atoms: C_21  and  O_41
    9  A    between atoms: C_23  and  C_32
   10  A    between atoms: C_23  and  C_34
   11  A    between atoms: C_23  and  O_41
   12  A    between atoms: C_31  and  C_40
   13  A    between atoms: C_37  and  C_40
                            x       y       z     vdW  Elec       q    Type
                         _______ _______ _______ _____ _____    ______ ____

>  <TORSDO>
F 13

$$$$
=
 OpenBabel10232408003D

 44 47  0  0  1  0  0  0  0  0999 V2000
  190.9580  176.9640  140.9520 C   0  0  0  0  0  0  0  0  0  0  0  0
  191.4270  176.7190  139.6600 O   0  0  0  0  0  0  0  0  0  0  0  0
  187.4940  177.1970  137.4090 N   0  0  0  0  0  0  0  0  0  0  0  0
  189.8830  176.5440  137.2850 C   0  0  0  0  0  0  0  0  0  0  0  0
  191.4590  177.4350  143.2800 C   0  0  0  0  0  3  0  0  0  0  0  0
  191.4670  177.6750  138.7120 O   0  0  0  0  0  0  0  0  0  0  0  0
  189.1710  177.0580  142.5980 C   0  0  0  0  0  3  0  0  0  0  0  0
  188.5770  176.3270  137.0100 C   0  0  0  0  0  0  0  0  0  0  0  0
  187.2770  177.9360  138.4660 C   0  0  0  0  0  0  0  0  0  0  0  0
  191.8850  177.2430  141.9620 C   0  0  0  0  0  3  0  0  0  0  0  0
  188.5470  176.6550  140.2320 C   0  0  0  0  0  2  0  0  0  0  0  0
  190.0980  177.3390  143.6110 C   0  0  0  0  0  0  0  0  0  0  0  0
  189.5880  176.8670  141.2770 C   0  0  0  0  0  0  0  0  0  0  0  0
  188.2050  178.0130  139.6410 C   0  0  0  0  0  2  0  0  0  0  0  0
  190.2720  177.6260  138.0860 O   0  0  0  0  0  0  0  0  0  0  0  0
  188.1920  175.2100  136.0880 C   0  0  0  0  0  1  0  0  0  0  0  0
  189.6500  177.5110  145.0090 C   0  0  0  0  0  0  0  0  0  0  0  0
  188.5030  178.0540  145.2720 N   0  0  0  0  0  2  0  0  0  0  0  0
  191.7620  176.9140  146.6010 N   0  0  0  0  0  0  0  0  0  0  0  0
  190.6790  176.7720  147.4410 N   0  0  0  0  0  2  0  0  0  0  0  0
  190.5270  177.1390  146.1210 C   0  0  0  0  0  0  0  0  0  0  0  0
  191.4870  174.6720  137.7200 C   0  0  0  0  0  1  0  0  0  0  0  0
  190.9320  175.6340  136.6830 C   0  0  2  0  0  3  0  0  0  0  0  0
  191.8450  176.3390  134.5740 O   0  0  0  0  0  1  0  0  0  0  0  0
  192.0300  176.4220  135.9560 C   0  0  2  0  0  3  0  0  0  0  0  0
  195.7890  173.5240  135.0350 O   0  0  0  0  0  0  0  0  0  0  0  0
  194.0820  176.4980  137.1910 O   0  0  0  0  0  0  0  0  0  0  0  0
  195.0930  174.0440  135.9530 C   0  0  0  0  0  0  0  0  0  0  0  0
  193.9290  174.8000  135.5900 N   0  0  0  0  0  2  0  0  0  0  0  0
  193.4010  175.9270  136.2960 C   0  0  0  0  0  0  0  0  0  0  0  0
  195.4690  173.8000  137.3630 C   0  0  0  0  0  0  0  0  0  0  0  0
  194.6550  173.2250  138.1330 O   0  0  0  0  0  0  0  0  0  0  0  0
  196.7600  174.2850  137.9220 C   0  0  0  0  0  1  0  0  0  0  0  0
  186.1190  178.7250  138.4710 O   0  0  0  0  0  0  0  0  0  0  0  0
  184.8630  178.2640  138.9640 C   0  0  1  0  0  3  0  0  0  0  0  0
  184.4320  178.5590  141.3590 C   0  0  0  0  0  2  0  0  0  0  0  0
  185.3550  179.5390  140.9380 O   0  0  0  0  0  0  0  0  0  0  0  0
  184.3250  179.2060  140.0290 C   0  0  1  0  0  3  0  0  0  0  0  0
  183.8540  178.1820  137.8280 C   0  0  0  0  0  2  0  0  0  0  0  0
  183.3760  176.8510  137.7140 O   0  0  0  0  0  0  0  0  0  0  0  0
  182.3530  176.3730  138.5260 C   0  0  0  0  0  0  0  0  0  0  0  0
  182.6460  175.7940  139.6060 O   0  0  0  0  0  0  0  0  0  0  0  0
  181.0160  176.5380  138.1520 O   0  0  0  0  0  0  0  0  0  0  0  0
  180.1270  177.3430  138.9010 C   0  0  0  0  0  1  0  0  0  0  0  0
  1 13  2  0  0  0  0
  1 10  1  0  0  0  0
  2  1  1  0  0  0  0
  3  9  2  0  0  0  0
  4 15  1  0  0  0  0
  5 12  1  0  0  0  0
  6  2  1  0  0  0  0
  7 12  2  0  0  0  0
  8  4  2  0  0  0  0
  8  3  1  0  0  0  0
  9 34  1  0  0  0  0
  9 14  1  0  0  0  0
 10  5  2  0  0  0  0
 11 13  1  0  0  0  0
 12 17  1  0  0  0  0
 13  7  1  0  0  0  0
 14 11  1  0  0  0  0
 15  6  1  0  0  0  0
 16  8  1  0  0  0  0
 17 18  2  0  0  0  0
 17 21  1  0  0  0  0
 19 20  1  0  0  0  0
 21 19  2  0  0  0  0
 21 20  1  0  0  0  0
 23  4  1  0  0  0  0
 23 22  1  1  0  0  0
 25 24  1  6  0  0  0
 25 30  1  0  0  0  0
 25 23  1  0  0  0  0
 26 28  2  0  0  0  0
 28 31  1  0  0  0  0
 29 28  1  0  0  0  0
 29 30  1  0  0  0  0
 30 27  2  0  0  0  0
 31 33  1  0  0  0  0
 31 32  2  0  0  0  0
 34 35  1  0  0  0  0
 35 39  1  6  0  0  0
 37 36  1  0  0  0  0
 38 35  1  6  0  0  0
 38 37  1  0  0  0  0
 38 36  1  0  0  0  0
 40 39  1  0  0  0  0
 40 41  1  0  0  0  0
 41 42  2  0  0  0  0
 43 41  1  0  0  0  0
 43 44  1  0  0  0  0
M  END
>  <MODEL>
7

>  <REMARK>
 VINA RESULT:      -6.3      1.867      3.248
  Name = 
  13 active torsions:
  status: ('A' for Active; 'I' for Inactive)
    1  A    between atoms: C_7  and  C_37
    2  A    between atoms: C_9  and  O_12
    3  A    between atoms: C_9  and  O_19
    4  A    between atoms: C_11  and  C_20
    5  A    between atoms: O_12  and  C_34
    6  A    between atoms: C_17  and  C_29
    7  A    between atoms: C_17  and  C_44
    8  A    between atoms: C_21  and  O_41
    9  A    between atoms: C_23  and  C_32
   10  A    between atoms: C_23  and  C_34
   11  A    between atoms: C_23  and  O_41
   12  A    between atoms: C_31  and  C_40
   13  A    between atoms: C_37  and  C_40
                            x       y       z     vdW  Elec       q    Type
                         _______ _______ _______ _____ _____    ______ ____

>  <TORSDO>
F 13

$$$$
=
 OpenBabel10232408003D

 44 47  0  0  1  0  0  0  0  0999 V2000
  191.9440  176.7440  139.9120 C   0  0  0  0  0  0  0  0  0  0  0  0
  192.7070  176.2750  138.8400 O   0  0  0  0  0  0  0  0  0  0  0  0
  189.4510  176.2460  135.6530 N   0  0  0  0  0  0  0  0  0  0  0  0
  191.7820  175.6310  136.2350 C   0  0  0  0  0  0  0  0  0  0  0  0
  191.8780  177.6480  142.1640 C   0  0  0  0  0  3  0  0  0  0  0  0
  192.9990  177.0400  137.7710 O   0  0  0  0  0  0  0  0  0  0  0  0
  189.8150  177.1030  141.0270 C   0  0  0  0  0  3  0  0  0  0  0  0
  190.5760  175.3400  135.6960 C   0  0  0  0  0  0  0  0  0  0  0  0
  189.0020  177.1630  136.4700 C   0  0  0  0  0  0  0  0  0  0  0  0
  192.6050  177.2250  141.0470 C   0  0  0  0  0  3  0  0  0  0  0  0
  189.7730  176.2570  138.6970 C   0  0  0  0  0  2  0  0  0  0  0  0
  190.4740  177.5860  142.1650 C   0  0  0  0  0  0  0  0  0  0  0  0
  190.5350  176.6800  139.9060 C   0  0  0  0  0  0  0  0  0  0  0  0
  189.6190  177.4750  137.8010 C   0  0  0  0  0  2  0  0  0  0  0  0
  191.9910  176.8510  136.8940 O   0  0  0  0  0  0  0  0  0  0  0  0
  190.3980  174.0640  134.9300 C   0  0  0  0  0  1  0  0  0  0  0  0
  189.7060  178.0040  143.3570 C   0  0  0  0  0  0  0  0  0  0  0  0
  190.2610  178.7240  144.2800 N   0  0  0  0  0  2  0  0  0  0  0  0
  187.4360  176.7870  144.2040 N   0  0  0  0  0  0  0  0  0  0  0  0
  186.9980  177.6060  143.1860 N   0  0  0  0  0  2  0  0  0  0  0  0
  188.3270  177.5500  143.5490 C   0  0  0  0  0  0  0  0  0  0  0  0
  193.0350  173.7460  137.3020 C   0  0  0  0  0  1  0  0  0  0  0  0
  192.9220  174.6490  136.0840 C   0  0  2  0  0  3  0  0  0  0  0  0
  194.3470  175.5190  134.3560 O   0  0  0  0  0  1  0  0  0  0  0  0
  194.2440  175.3470  135.7380 C   0  0  2  0  0  3  0  0  0  0  0  0
  197.6290  174.5550  139.0970 O   0  0  0  0  0  0  0  0  0  0  0  0
  195.8280  173.5540  135.6090 O   0  0  0  0  0  0  0  0  0  0  0  0
  197.4020  174.5840  137.8540 C   0  0  0  0  0  0  0  0  0  0  0  0
  196.1170  175.0310  137.4000 N   0  0  0  0  0  2  0  0  0  0  0  0
  195.4340  174.5820  136.2260 C   0  0  0  0  0  0  0  0  0  0  0  0
  198.4890  174.2210  136.9180 C   0  0  0  0  0  0  0  0  0  0  0  0
  199.0500  175.1190  136.2380 O   0  0  0  0  0  0  0  0  0  0  0  0
  198.8880  172.8040  136.6990 C   0  0  0  0  0  1  0  0  0  0  0  0
  187.8980  177.9150  136.0480 O   0  0  0  0  0  0  0  0  0  0  0  0
  186.5690  177.6760  136.5090 C   0  0  1  0  0  3  0  0  0  0  0  0
  184.8850  176.0380  135.8110 C   0  0  0  0  0  2  0  0  0  0  0  0
  186.0650  175.8240  135.0670 O   0  0  0  0  0  0  0  0  0  0  0  0
  186.2270  176.1970  136.4210 C   0  0  1  0  0  3  0  0  0  0  0  0
  186.4290  178.1270  137.9550 C   0  0  0  0  0  2  0  0  0  0  0  0
  185.4210  179.1220  138.0450 O   0  0  0  0  0  0  0  0  0  0  0  0
  184.5540  179.1850  139.1320 C   0  0  0  0  0  0  0  0  0  0  0  0
  183.8460  180.2150  139.2920 O   0  0  0  0  0  0  0  0  0  0  0  0
  184.4640  178.1170  140.0290 O   0  0  0  0  0  0  0  0  0  0  0  0
  183.2670  177.8250  140.7210 C   0  0  0  0  0  1  0  0  0  0  0  0
  1 10  1  0  0  0  0
  2  1  1  0  0  0  0
  3  8  1  0  0  0  0
  3  9  2  0  0  0  0
  4 15  1  0  0  0  0
  5 12  1  0  0  0  0
  6  2  1  0  0  0  0
  7 12  2  0  0  0  0
  8  4  2  0  0  0  0
  9 14  1  0  0  0  0
 10  5  2  0  0  0  0
 11 13  1  0  0  0  0
 12 17  1  0  0  0  0
 13  1  2  0  0  0  0
 13  7  1  0  0  0  0
 14 11  1  0  0  0  0
 15  6  1  0  0  0  0
 16  8  1  0  0  0  0
 17 21  1  0  0  0  0
 17 18  2  0  0  0  0
 20 21  1  0  0  0  0
 20 19  1  0  0  0  0
 21 19  2  0  0  0  0
 23  4  1  0  0  0  0
 23 22  1  1  0  0  0
 25 24  1  6  0  0  0
 25 23  1  0  0  0  0
 25 30  1  0  0  0  0
 27 30  2  0  0  0  0
 28 26  2  0  0  0  0
 29 28  1  0  0  0  0
 30 29  1  0  0  0  0
 31 28  1  0  0  0  0
 32 31  2  0  0  0  0
 33 31  1  0  0  0  0
 34  9  1  0  0  0  0
 34 35  1  0  0  0  0
 35 39  1  1  0  0  0
 36 38  1  0  0  0  0
 37 36  1  0  0  0  0
 37 38  1  0  0  0  0
 38 35  1  6  0  0  0
 39 40  1  0  0  0  0
 40 41  1  0  0  0  0
 41 42  2  0  0  0  0
 41 43  1  0  0  0  0
 43 44  1  0  0  0  0
M  END
>  <MODEL>
8

>  <REMARK>
 VINA RESULT:      -5.8      2.542      4.447
  Name = 
  13 active torsions:
  status: ('A' for Active; 'I' for Inactive)
    1  A    between atoms: C_7  and  C_37
    2  A    between atoms: C_9  and  O_12
    3  A    between atoms: C_9  and  O_19
    4  A    between atoms: C_11  and  C_20
    5  A    between atoms: O_12  and  C_34
    6  A    between atoms: C_17  and  C_29
    7  A    between atoms: C_17  and  C_44
    8  A    between atoms: C_21  and  O_41
    9  A    between atoms: C_23  and  C_32
   10  A    between atoms: C_23  and  C_34
   11  A    between atoms: C_23  and  O_41
   12  A    between atoms: C_31  and  C_40
   13  A    between atoms: C_37  and  C_40
                            x       y       z     vdW  Elec       q    Type
                         _______ _______ _______ _____ _____    ______ ____

>  <TORSDO>
F 13

$$$$
=
 OpenBabel10232408003D

 44 47  0  0  1  0  0  0  0  0999 V2000
  188.9870  177.2880  140.0050 C   0  0  0  0  0  0  0  0  0  0  0  0
  188.2250  177.1420  138.8440 O   0  0  0  0  0  0  0  0  0  0  0  0
  191.5180  175.6850  136.0520 N   0  0  0  0  0  0  0  0  0  0  0  0
  189.1640  176.4380  136.2600 C   0  0  0  0  0  0  0  0  0  0  0  0
  189.0510  177.6200  142.4090 C   0  0  0  0  0  3  0  0  0  0  0  0
  187.9670  175.9390  138.2950 O   0  0  0  0  0  0  0  0  0  0  0  0
  191.1120  177.5920  141.1460 C   0  0  0  0  0  3  0  0  0  0  0  0
  190.3680  176.4600  135.6430 C   0  0  0  0  0  0  0  0  0  0  0  0
  191.9810  175.3070  137.2140 C   0  0  0  0  0  0  0  0  0  0  0  0
  188.3260  177.4130  141.2310 C   0  0  0  0  0  3  0  0  0  0  0  0
  191.1590  177.1730  138.7030 C   0  0  0  0  0  2  0  0  0  0  0  0
  190.4520  177.7160  142.3750 C   0  0  0  0  0  0  0  0  0  0  0  0
  190.3940  177.3820  139.9640 C   0  0  0  0  0  0  0  0  0  0  0  0
  191.3570  175.6770  138.5260 C   0  0  0  0  0  2  0  0  0  0  0  0
  188.9800  175.6990  137.4360 O   0  0  0  0  0  0  0  0  0  0  0  0
  190.5200  177.1940  134.3460 C   0  0  0  0  0  1  0  0  0  0  0  0
  191.2170  177.9660  143.6160 C   0  0  0  0  0  0  0  0  0  0  0  0
  191.6060  179.1640  143.9200 N   0  0  0  0  0  2  0  0  0  0  0  0
  191.8560  176.3690  145.7110 N   0  0  0  0  0  0  0  0  0  0  0  0
  191.9970  175.5370  144.6220 N   0  0  0  0  0  2  0  0  0  0  0  0
  191.6120  176.8530  144.4820 C   0  0  0  0  0  0  0  0  0  0  0  0
  187.8000  178.5360  136.3080 C   0  0  0  0  0  1  0  0  0  0  0  0
  187.9990  177.1830  135.6450 C   0  0  2  0  0  3  0  0  0  0  0  0
  186.5570  175.7410  134.3740 O   0  0  0  0  0  1  0  0  0  0  0  0
  186.7190  176.3370  135.6260 C   0  0  2  0  0  3  0  0  0  0  0  0
  183.7920  178.4150  138.8640 O   0  0  0  0  0  0  0  0  0  0  0  0
  184.8440  177.7010  135.0190 O   0  0  0  0  0  0  0  0  0  0  0  0
  183.8310  177.7930  137.7650 C   0  0  0  0  0  0  0  0  0  0  0  0
  185.0910  177.2840  137.3070 N   0  0  0  0  0  2  0  0  0  0  0  0
  185.5010  177.1460  135.9430 C   0  0  0  0  0  0  0  0  0  0  0  0
  182.5690  177.5590  137.0280 C   0  0  0  0  0  0  0  0  0  0  0  0
  181.8390  178.5370  136.7210 O   0  0  0  0  0  0  0  0  0  0  0  0
  182.0980  176.1850  136.7050 C   0  0  0  0  0  1  0  0  0  0  0  0
  193.1110  174.4780  137.2170 O   0  0  0  0  0  0  0  0  0  0  0  0
  193.8580  174.1720  136.0410 C   0  0  1  0  0  3  0  0  0  0  0  0
  195.2240  175.8880  134.9480 C   0  0  0  0  0  2  0  0  0  0  0  0
  194.9890  176.2760  136.2840 O   0  0  0  0  0  0  0  0  0  0  0  0
  195.1940  174.8970  136.0500 C   0  0  1  0  0  3  0  0  0  0  0  0
  194.1130  172.6740  135.9590 C   0  0  0  0  0  2  0  0  0  0  0  0
  195.3490  172.3700  136.5860 O   0  0  0  0  0  0  0  0  0  0  0  0
  195.4030  171.8270  137.8670 C   0  0  0  0  0  0  0  0  0  0  0  0
  195.4600  172.6020  138.8590 O   0  0  0  0  0  0  0  0  0  0  0  0
  195.3850  170.4420  138.0500 O   0  0  0  0  0  0  0  0  0  0  0  0
  196.4920  169.6320  137.7070 C   0  0  0  0  0  1  0  0  0  0  0  0
  1 10  1  0  0  0  0
  2  1  1  0  0  0  0
  3  9  2  0  0  0  0
  4 15  1  0  0  0  0
  6  2  1  0  0  0  0
  7 12  2  0  0  0  0
  8  3  1  0  0  0  0
  8  4  2  0  0  0  0
  9 34  1  0  0  0  0
  9 14  1  0  0  0  0
 10  5  2  0  0  0  0
 11 13  1  0  0  0  0
 12  5  1  0  0  0  0
 12 17  1  0  0  0  0
 13  1  2  0  0  0  0
 13  7  1  0  0  0  0
 14 11  1  0  0  0  0
 15  6  1  0  0  0  0
 16  8  1  0  0  0  0
 17 18  2  0  0  0  0
 17 21  1  0  0  0  0
 20 19  1  0  0  0  0
 21 20  1  0  0  0  0
 21 19  2  0  0  0  0
 23  4  1  0  0  0  0
 23 22  1  1  0  0  0
 25 24  1  6  0  0  0
 25 23  1  0  0  0  0
 25 30  1  0  0  0  0
 27 30  2  0  0  0  0
 28 26  2  0  0  0  0
 29 28  1  0  0  0  0
 30 29  1  0  0  0  0
 31 28  1  0  0  0  0
 32 31  2  0  0  0  0
 33 31  1  0  0  0  0
 35 39  1  1  0  0  0
 35 34  1  0  0  0  0
 36 38  1  0  0  0  0
 36 37  1  0  0  0  0
 38 35  1  6  0  0  0
 38 37  1  0  0  0  0
 39 40  1  0  0  0  0
 40 41  1  0  0  0  0
 41 43  1  0  0  0  0
 41 42  2  0  0  0  0
 44 43  1  0  0  0  0
M  END
>  <MODEL>
9

>  <REMARK>
 VINA RESULT:      -5.7      2.665      8.633
  Name = 
  13 active torsions:
  status: ('A' for Active; 'I' for Inactive)
    1  A    between atoms: C_7  and  C_37
    2  A    between atoms: C_9  and  O_12
    3  A    between atoms: C_9  and  O_19
    4  A    between atoms: C_11  and  C_20
    5  A    between atoms: O_12  and  C_34
    6  A    between atoms: C_17  and  C_29
    7  A    between atoms: C_17  and  C_44
    8  A    between atoms: C_21  and  O_41
    9  A    between atoms: C_23  and  C_32
   10  A    between atoms: C_23  and  C_34
   11  A    between atoms: C_23  and  O_41
   12  A    between atoms: C_31  and  C_40
   13  A    between atoms: C_37  and  C_40
                            x       y       z     vdW  Elec       q    Type
                         _______ _______ _______ _____ _____    ______ ____

>  <TORSDO>
F 13

$$$$
