=
 OpenBabel10232412203D

 56 60  0  0  1  0  0  0  0  0999 V2000
  190.4840  175.6870  136.0230 C   0  0  0  0  0  3  0  0  0  0  0  0
  189.0860  175.6120  136.5240 C   0  0  0  0  0  2  0  0  0  0  0  0
  189.2350  177.3990  138.2190 C   0  0  0  0  0  3  0  0  0  0  0  0
  191.5310  175.9530  136.8100 C   0  0  0  0  0  0  0  0  0  0  0  0
  188.6610  176.9270  137.1090 C   0  0  0  0  0  0  0  0  0  0  0  0
  191.4000  176.1640  138.2700 C   0  0  0  0  0  3  0  0  0  0  0  0
  190.3740  176.7590  138.9150 C   0  0  0  0  0  0  0  0  0  0  0  0
  184.3370  177.7210  138.2090 C   0  0  0  0  0  0  0  0  0  0  0  0
  186.1100  175.9680  135.3310 C   0  0  0  0  0  2  0  0  0  0  0  0
  184.7480  178.9400  138.3710 N   0  0  0  0  0  0  0  0  0  0  0  0
  186.0180  179.0770  137.8070 N   0  0  0  0  0  0  0  0  0  0  0  0
  187.1210  177.1120  135.1370 C   0  0  0  0  0  2  0  0  0  0  0  0
  184.9060  176.4240  136.1550 C   0  0  0  0  0  2  0  0  0  0  0  0
  187.5830  177.7380  136.4600 C   0  0  1  0  0  3  0  0  0  0  0  0
  186.4000  177.9280  137.3570 C   0  0  0  0  0  0  0  0  0  0  0  0
  185.3620  176.8780  137.5340 C   0  0  1  0  0  3  0  0  0  0  0  0
  183.0430  177.2300  138.7460 C   0  0  0  0  0  2  0  0  0  0  0  0
  182.3750  178.2640  139.4020 O   0  0  0  0  0  0  0  0  0  0  0  0
  181.4440  177.6330  140.2330 C   0  0  0  0  0  2  0  0  0  0  0  0
  181.3980  178.3330  141.5800 C   0  0  0  0  0  2  0  0  0  0  0  0
  182.7350  178.7280  141.9870 N   0  0  0  0  0  2  0  0  0  0  0  0
  182.6360  179.2280  143.3520 C   0  0  1  0  0  3  0  0  0  0  0  0
  181.3410  178.7550  143.9850 C   0  0  0  0  0  1  0  0  0  0  0  0
  187.2140  177.2270  143.4970 C   0  0  0  0  0  1  0  0  0  0  0  0
  186.0830  177.9650  145.6030 C   0  0  0  0  0  3  0  0  0  0  0  0
  183.8630  178.9340  145.5490 C   0  0  0  0  0  3  0  0  0  0  0  0
  184.9890  178.5210  146.2730 C   0  0  0  0  0  3  0  0  0  0  0  0
  184.9230  178.2310  143.4870 C   0  0  0  0  0  3  0  0  0  0  0  0
  186.0490  177.8190  144.2100 C   0  0  0  0  0  0  0  0  0  0  0  0
  183.8300  178.7940  144.1510 C   0  0  0  0  0  0  0  0  0  0  0  0
  190.3680  176.8140  140.4220 C   0  0  2  0  0  3  0  0  0  0  0  0
  189.2840  177.6440  140.9290 N   0  0  0  0  0  1  0  0  0  0  0  0
  190.4030  175.4800  142.9330 O   0  0  0  0  0  0  0  0  0  0  0  0
  192.0240  177.0840  142.3720 N   0  0  0  0  0  2  0  0  0  0  0  0
  191.6970  177.2780  140.9880 C   0  0  0  0  0  0  0  0  0  0  0  0
  192.5560  177.8460  140.2440 O   0  0  0  0  0  0  0  0  0  0  0  0
  191.3170  176.2640  143.3150 C   0  0  0  0  0  0  0  0  0  0  0  0
  191.6610  176.2830  144.6700 O   0  0  0  0  0  0  0  0  0  0  0  0
  190.9380  177.0620  145.6160 C   0  0  0  0  0  2  0  0  0  0  0  0
  190.6250  177.3210  147.9700 O   0  0  0  0  0  1  0  0  0  0  0  0
  190.9190  176.3840  146.9800 C   0  0  2  0  0  3  0  0  0  0  0  0
  192.8200  176.2970  148.4180 O   0  0  0  0  0  1  0  0  0  0  0  0
  192.2460  175.7140  147.2900 C   0  0  0  0  0  2  0  0  0  0  0  0
  192.9170  175.8410  136.2480 C   0  0  0  0  0  2  0  0  0  0  0  0
  193.3940  173.3140  136.0940 C   0  0  0  0  0  3  0  0  0  0  0  0
  193.6280  174.6290  136.7470 C   0  0  0  0  0  0  0  0  0  0  0  0
  194.4670  174.7410  137.7880 C   0  0  0  0  0  3  0  0  0  0  0  0
  195.8840  173.6550  139.3450 O   0  0  0  0  0  0  0  0  0  0  0  0
  195.1450  173.5460  138.3310 C   0  0  0  0  0  0  0  0  0  0  0  0
  194.9080  172.2320  137.6950 C   0  0  0  0  0  0  0  0  0  0  0  0
  193.9940  172.1880  136.5350 C   0  0  0  0  0  3  0  0  0  0  0  0
  195.5160  171.1720  138.1540 N   0  0  0  0  0  0  0  0  0  0  0  0
  195.9890  169.5040  136.1670 O   0  0  0  0  0  0  0  0  0  0  0  0
  196.2730  168.4250  138.6230 C   0  0  0  0  0  1  0  0  0  0  0  0
  193.9430  169.1090  137.4490 O   0  0  0  0  0  0  0  0  0  0  0  0
  195.3790  169.5480  137.5440 S   0  0  0  0  0  0  0  0  0  0  0  0
  1  2  1  0  0  0  0
  1  4  2  0  0  0  0
  2  5  1  0  0  0  0
  3  7  1  0  0  0  0
  4  6  1  0  0  0  0
  5  3  2  0  0  0  0
  6  7  2  0  0  0  0
  7 31  1  0  0  0  0
  8 10  2  0  0  0  0
  8 17  1  0  0  0  0
  9 13  1  0  0  0  0
 11 10  1  0  0  0  0
 12  9  1  0  0  0  0
 12 14  1  0  0  0  0
 14  5  1  1  0  0  0
 14 15  1  0  0  0  0
 15 16  1  0  0  0  0
 15 11  2  0  0  0  0
 16 13  1  6  0  0  0
 16  8  1  0  0  0  0
 17 18  1  0  0  0  0
 18 19  1  0  0  0  0
 19 20  1  0  0  0  0
 20 21  1  0  0  0  0
 21 22  1  0  0  0  0
 22 23  1  1  0  0  0
 22 30  1  0  0  0  0
 24 29  1  0  0  0  0
 25 27  1  0  0  0  0
 26 27  2  0  0  0  0
 28 30  2  0  0  0  0
 28 29  1  0  0  0  0
 29 25  2  0  0  0  0
 30 26  1  0  0  0  0
 31 32  1  6  0  0  0
 31 35  1  0  0  0  0
 33 37  2  0  0  0  0
 34 37  1  0  0  0  0
 35 34  1  0  0  0  0
 36 35  2  0  0  0  0
 37 38  1  0  0  0  0
 38 39  1  0  0  0  0
 39 41  1  0  0  0  0
 41 43  1  0  0  0  0
 41 40  1  1  0  0  0
 43 42  1  0  0  0  0
 44 46  1  0  0  0  0
 44  4  1  0  0  0  0
 45 51  2  0  0  0  0
 45 46  1  0  0  0  0
 46 47  2  0  0  0  0
 47 49  1  0  0  0  0
 49 48  2  0  0  0  0
 50 52  2  0  0  0  0
 50 49  1  0  0  0  0
 51 50  1  0  0  0  0
 53 56  2  0  0  0  0
 55 56  2  0  0  0  0
 56 52  1  0  0  0  0
 56 54  1  0  0  0  0
M  END
>  <MODEL>
1

>  <REMARK>
 VINA RESULT:      -9.3      0.000      0.000
  Name = 
  17 active torsions:
  status: ('A' for Active; 'I' for Inactive)
    1  A    between atoms: C_5  and  C_43
    2  A    between atoms: C_7  and  N_32
    3  A    between atoms: C_7  and  C_52
    4  A    between atoms: C_9  and  C_34
    5  A    between atoms: C_9  and  C_48
    6  A    between atoms: C_17  and  C_33
    7  A    between atoms: C_17  and  C_46
    8  A    between atoms: C_18  and  C_55
    9  A    between atoms: C_25  and  C_44
   10  A    between atoms: C_25  and  O_47
   11  A    between atoms: C_27  and  C_55
   12  A    between atoms: N_32  and  C_44
   13  A    between atoms: C_34  and  O_51
   14  A    between atoms: S_35  and  N_56
   15  A    between atoms: C_38  and  C_39
   16  A    between atoms: C_43  and  O_47
   17  A    between atoms: O_51  and  C_53
                            x       y       z     vdW  Elec       q    Type
                         _______ _______ _______ _____ _____    ______ ____

>  <TORSDO>
F 17

$$$$
=
 OpenBabel10232412203D

 56 60  0  0  1  0  0  0  0  0999 V2000
  189.8270  175.9190  136.1820 C   0  0  0  0  0  3  0  0  0  0  0  0
  188.4640  175.8900  136.7740 C   0  0  0  0  0  2  0  0  0  0  0  0
  188.8440  177.5270  138.5820 C   0  0  0  0  0  3  0  0  0  0  0  0
  190.9390  176.0570  136.9090 C   0  0  0  0  0  0  0  0  0  0  0  0
  188.1670  177.1790  137.4840 C   0  0  0  0  0  0  0  0  0  0  0  0
  190.9210  176.1610  138.3860 C   0  0  0  0  0  3  0  0  0  0  0  0
  189.9820  176.7650  139.1450 C   0  0  0  0  0  0  0  0  0  0  0  0
  183.7990  177.7210  138.5660 C   0  0  0  0  0  0  0  0  0  0  0  0
  185.6900  176.5970  135.4560 C   0  0  0  0  0  2  0  0  0  0  0  0
  184.1930  178.8810  138.9880 N   0  0  0  0  0  0  0  0  0  0  0  0
  185.4800  179.1340  138.5100 N   0  0  0  0  0  0  0  0  0  0  0  0
  186.6950  177.7590  135.5370 C   0  0  0  0  0  2  0  0  0  0  0  0
  184.4520  176.8720  136.3120 C   0  0  0  0  0  2  0  0  0  0  0  0
  187.1040  178.1020  136.9760 C   0  0  1  0  0  3  0  0  0  0  0  0
  185.8890  178.1030  137.8490 C   0  0  0  0  0  0  0  0  0  0  0  0
  184.8560  177.0360  137.7700 C   0  0  1  0  0  3  0  0  0  0  0  0
  182.4920  177.1270  138.9440 C   0  0  0  0  0  2  0  0  0  0  0  0
  181.6570  178.1110  139.4720 O   0  0  0  0  0  0  0  0  0  0  0  0
  180.7870  177.4320  140.3320 C   0  0  0  0  0  2  0  0  0  0  0  0
  180.4170  178.3270  141.5020 C   0  0  0  0  0  2  0  0  0  0  0  0
  181.4960  179.2590  141.7820 N   0  0  0  0  0  2  0  0  0  0  0  0
  181.6920  179.2650  143.2260 C   0  0  1  0  0  3  0  0  0  0  0  0
  180.6990  178.3280  143.8880 C   0  0  0  0  0  1  0  0  0  0  0  0
  185.2840  178.6440  146.6450 C   0  0  0  0  0  1  0  0  0  0  0  0
  185.7440  178.2040  144.2260 C   0  0  0  0  0  3  0  0  0  0  0  0
  184.0130  178.5030  142.5560 C   0  0  0  0  0  3  0  0  0  0  0  0
  185.3290  178.1590  142.8900 C   0  0  0  0  0  3  0  0  0  0  0  0
  183.5280  178.9420  144.8890 C   0  0  0  0  0  3  0  0  0  0  0  0
  184.8430  178.5970  145.2240 C   0  0  0  0  0  0  0  0  0  0  0  0
  183.1070  178.8920  143.5580 C   0  0  0  0  0  0  0  0  0  0  0  0
  190.0800  176.7030  140.6480 C   0  0  2  0  0  3  0  0  0  0  0  0
  188.9920  177.4260  141.2930 N   0  0  0  0  0  1  0  0  0  0  0  0
  190.3820  175.1570  143.0170 O   0  0  0  0  0  0  0  0  0  0  0  0
  191.8610  176.9050  142.4940 N   0  0  0  0  0  2  0  0  0  0  0  0
  191.4200  177.1990  141.1600 C   0  0  0  0  0  0  0  0  0  0  0  0
  192.1860  177.8840  140.4140 O   0  0  0  0  0  0  0  0  0  0  0  0
  191.2760  175.9610  143.4050 C   0  0  0  0  0  0  0  0  0  0  0  0
  191.7190  175.8820  144.7270 O   0  0  0  0  0  0  0  0  0  0  0  0
  191.4560  176.9160  145.6690 C   0  0  0  0  0  2  0  0  0  0  0  0
  190.0940  178.7070  144.8650 O   0  0  0  0  0  1  0  0  0  0  0  0
  190.0450  177.4650  145.4960 C   0  0  2  0  0  3  0  0  0  0  0  0
  190.2100  177.3110  147.8700 O   0  0  0  0  0  1  0  0  0  0  0  0
  189.3300  177.5980  146.8290 C   0  0  0  0  0  2  0  0  0  0  0  0
  192.2740  175.9050  136.2420 C   0  0  0  0  0  2  0  0  0  0  0  0
  193.8030  174.1120  137.2840 C   0  0  0  0  0  3  0  0  0  0  0  0
  192.7670  174.4980  136.2900 C   0  0  0  0  0  0  0  0  0  0  0  0
  192.2710  173.5980  135.4290 C   0  0  0  0  0  3  0  0  0  0  0  0
  192.3460  171.3900  134.5720 O   0  0  0  0  0  0  0  0  0  0  0  0
  192.7770  172.2100  135.4250 C   0  0  0  0  0  0  0  0  0  0  0  0
  193.8180  171.8210  136.4020 C   0  0  0  0  0  0  0  0  0  0  0  0
  194.2980  172.8570  137.3390 C   0  0  0  0  0  3  0  0  0  0  0  0
  194.2610  170.5940  136.4210 N   0  0  0  0  0  0  0  0  0  0  0  0
  195.6630  168.4840  137.1530 O   0  0  0  0  0  0  0  0  0  0  0  0
  197.0170  170.8150  137.2530 C   0  0  0  0  0  1  0  0  0  0  0  0
  195.0510  170.0490  138.9330 O   0  0  0  0  0  0  0  0  0  0  0  0
  195.4670  169.9390  137.4910 S   0  0  0  0  0  0  0  0  0  0  0  0
  1  2  1  0  0  0  0
  1  4  2  0  0  0  0
  2  5  1  0  0  0  0
  3  7  1  0  0  0  0
  4  6  1  0  0  0  0
  5  3  2  0  0  0  0
  6  7  2  0  0  0  0
  7 31  1  0  0  0  0
  8 17  1  0  0  0  0
  8 10  2  0  0  0  0
  9 12  1  0  0  0  0
  9 13  1  0  0  0  0
 11 10  1  0  0  0  0
 12 14  1  0  0  0  0
 14  5  1  1  0  0  0
 14 15  1  0  0  0  0
 15 11  2  0  0  0  0
 16 13  1  6  0  0  0
 16 15  1  0  0  0  0
 16  8  1  0  0  0  0
 17 18  1  0  0  0  0
 18 19  1  0  0  0  0
 19 20  1  0  0  0  0
 20 21  1  0  0  0  0
 21 22  1  0  0  0  0
 22 30  1  0  0  0  0
 22 23  1  1  0  0  0
 25 29  1  0  0  0  0
 26 27  1  0  0  0  0
 26 30  2  0  0  0  0
 27 25  2  0  0  0  0
 28 29  2  0  0  0  0
 29 24  1  0  0  0  0
 30 28  1  0  0  0  0
 31 35  1  0  0  0  0
 31 32  1  1  0  0  0
 33 37  2  0  0  0  0
 34 37  1  0  0  0  0
 35 34  1  0  0  0  0
 36 35  2  0  0  0  0
 37 38  1  0  0  0  0
 38 39  1  0  0  0  0
 41 40  1  1  0  0  0
 41 39  1  0  0  0  0
 41 43  1  0  0  0  0
 43 42  1  0  0  0  0
 44 46  1  0  0  0  0
 44  4  1  0  0  0  0
 45 51  2  0  0  0  0
 46 45  1  0  0  0  0
 47 46  2  0  0  0  0
 48 49  2  0  0  0  0
 49 47  1  0  0  0  0
 49 50  1  0  0  0  0
 50 52  2  0  0  0  0
 50 51  1  0  0  0  0
 52 56  1  0  0  0  0
 53 56  2  0  0  0  0
 54 56  1  0  0  0  0
 56 55  2  0  0  0  0
M  END
>  <MODEL>
2

>  <REMARK>
 VINA RESULT:      -9.1      1.175      1.860
  Name = 
  17 active torsions:
  status: ('A' for Active; 'I' for Inactive)
    1  A    between atoms: C_5  and  C_43
    2  A    between atoms: C_7  and  N_32
    3  A    between atoms: C_7  and  C_52
    4  A    between atoms: C_9  and  C_34
    5  A    between atoms: C_9  and  C_48
    6  A    between atoms: C_17  and  C_33
    7  A    between atoms: C_17  and  C_46
    8  A    between atoms: C_18  and  C_55
    9  A    between atoms: C_25  and  C_44
   10  A    between atoms: C_25  and  O_47
   11  A    between atoms: C_27  and  C_55
   12  A    between atoms: N_32  and  C_44
   13  A    between atoms: C_34  and  O_51
   14  A    between atoms: S_35  and  N_56
   15  A    between atoms: C_38  and  C_39
   16  A    between atoms: C_43  and  O_47
   17  A    between atoms: O_51  and  C_53
                            x       y       z     vdW  Elec       q    Type
                         _______ _______ _______ _____ _____    ______ ____

>  <TORSDO>
F 17

$$$$
=
 OpenBabel10232412203D

 56 60  0  0  1  0  0  0  0  0999 V2000
  190.5310  176.2120  136.6900 C   0  0  0  0  0  3  0  0  0  0  0  0
  189.1900  176.1950  137.3320 C   0  0  0  0  0  2  0  0  0  0  0  0
  189.5330  178.0830  138.8850 C   0  0  0  0  0  3  0  0  0  0  0  0
  191.6560  176.5070  137.3490 C   0  0  0  0  0  0  0  0  0  0  0  0
  188.8440  177.5530  137.8710 C   0  0  0  0  0  0  0  0  0  0  0  0
  191.6770  176.8120  138.7980 C   0  0  0  0  0  3  0  0  0  0  0  0
  190.7290  177.4650  139.5020 C   0  0  0  0  0  0  0  0  0  0  0  0
  184.3440  177.2950  138.3500 C   0  0  0  0  0  0  0  0  0  0  0  0
  186.7850  176.7830  135.4710 C   0  0  0  0  0  2  0  0  0  0  0  0
  184.4770  178.4570  138.9070 N   0  0  0  0  0  0  0  0  0  0  0  0
  185.7550  178.9540  138.6380 N   0  0  0  0  0  0  0  0  0  0  0  0
  187.5610  178.0760  135.7800 C   0  0  0  0  0  2  0  0  0  0  0  0
  185.4180  176.7770  136.1580 C   0  0  0  0  0  2  0  0  0  0  0  0
  187.7150  178.3410  137.2840 C   0  0  1  0  0  3  0  0  0  0  0  0
  186.4140  178.0670  137.9710 C   0  0  0  0  0  0  0  0  0  0  0  0
  185.5960  176.8630  137.6670 C   0  0  1  0  0  3  0  0  0  0  0  0
  183.1180  176.4700  138.4920 C   0  0  0  0  0  2  0  0  0  0  0  0
  182.6150  176.5830  139.7880 O   0  0  0  0  0  0  0  0  0  0  0  0
  181.2590  176.8880  139.6310 C   0  0  0  0  0  2  0  0  0  0  0  0
  180.7480  177.6140  140.8630 C   0  0  0  0  0  2  0  0  0  0  0  0
  181.5050  178.8350  141.0760 N   0  0  0  0  0  2  0  0  0  0  0  0
  181.3920  179.1680  142.4910 C   0  0  1  0  0  3  0  0  0  0  0  0
  180.2810  178.3540  143.1270 C   0  0  0  0  0  1  0  0  0  0  0  0
  186.3160  178.3610  142.2080 C   0  0  0  0  0  1  0  0  0  0  0  0
  185.1800  178.5160  144.4310 C   0  0  0  0  0  3  0  0  0  0  0  0
  182.7930  178.9040  144.5850 C   0  0  0  0  0  3  0  0  0  0  0  0
  184.0300  178.6930  145.2070 C   0  0  0  0  0  3  0  0  0  0  0  0
  183.8550  178.7590  142.4120 C   0  0  0  0  0  3  0  0  0  0  0  0
  185.0910  178.5490  143.0340 C   0  0  0  0  0  0  0  0  0  0  0  0
  182.7040  178.9420  143.1820 C   0  0  0  0  0  0  0  0  0  0  0  0
  190.8760  177.6160  140.9960 C   0  0  2  0  0  3  0  0  0  0  0  0
  192.1720  177.1440  141.4630 N   0  0  0  0  0  1  0  0  0  0  0  0
  190.8400  179.1180  143.4110 O   0  0  0  0  0  0  0  0  0  0  0  0
  189.5600  177.1660  143.1610 N   0  0  0  0  0  2  0  0  0  0  0  0
  189.7570  176.9310  141.7580 C   0  0  0  0  0  0  0  0  0  0  0  0
  188.9640  176.1320  141.1680 O   0  0  0  0  0  0  0  0  0  0  0  0
  190.1740  178.1940  143.9540 C   0  0  0  0  0  0  0  0  0  0  0  0
  190.0030  178.2160  145.3410 O   0  0  0  0  0  0  0  0  0  0  0  0
  190.2360  177.0640  146.1430 C   0  0  0  0  0  2  0  0  0  0  0  0
  191.8260  175.6880  145.0080 O   0  0  0  0  0  1  0  0  0  0  0  0
  191.6880  176.6130  146.0420 C   0  0  2  0  0  3  0  0  0  0  0  0
  192.2100  176.9700  148.3420 O   0  0  0  0  0  1  0  0  0  0  0  0
  192.1740  175.9990  147.3430 C   0  0  0  0  0  2  0  0  0  0  0  0
  192.9760  176.3340  136.6580 C   0  0  0  0  0  2  0  0  0  0  0  0
  193.3430  173.8090  136.3040 C   0  0  0  0  0  3  0  0  0  0  0  0
  193.6480  175.0600  137.0460 C   0  0  0  0  0  0  0  0  0  0  0  0
  194.5170  175.0600  138.0680 C   0  0  0  0  0  3  0  0  0  0  0  0
  195.9270  173.8050  139.5000 O   0  0  0  0  0  0  0  0  0  0  0  0
  195.1590  173.8020  138.5020 C   0  0  0  0  0  0  0  0  0  0  0  0
  194.8510  172.5500  137.7770 C   0  0  0  0  0  0  0  0  0  0  0  0
  193.9060  172.6300  136.6440 C   0  0  0  0  0  3  0  0  0  0  0  0
  195.4250  171.4350  138.1390 N   0  0  0  0  0  0  0  0  0  0  0  0
  195.7870  169.9000  136.0250 O   0  0  0  0  0  0  0  0  0  0  0  0
  196.0680  168.6310  138.3900 C   0  0  0  0  0  1  0  0  0  0  0  0
  193.7490  169.4990  137.3190 O   0  0  0  0  0  0  0  0  0  0  0  0
  195.2050  169.8680  137.4150 S   0  0  0  0  0  0  0  0  0  0  0  0
  1  2  1  0  0  0  0
  1  4  2  0  0  0  0
  2  5  1  0  0  0  0
  3  7  1  0  0  0  0
  4  6  1  0  0  0  0
  5  3  2  0  0  0  0
  6  7  2  0  0  0  0
  7 31  1  0  0  0  0
  8 17  1  0  0  0  0
  8 10  2  0  0  0  0
  9 12  1  0  0  0  0
  9 13  1  0  0  0  0
 11 10  1  0  0  0  0
 12 14  1  0  0  0  0
 14  5  1  1  0  0  0
 14 15  1  0  0  0  0
 15 11  2  0  0  0  0
 16 13  1  6  0  0  0
 16 15  1  0  0  0  0
 16  8  1  0  0  0  0
 17 18  1  0  0  0  0
 19 18  1  0  0  0  0
 19 20  1  0  0  0  0
 20 21  1  0  0  0  0
 21 22  1  0  0  0  0
 22 23  1  1  0  0  0
 22 30  1  0  0  0  0
 24 29  1  0  0  0  0
 25 27  1  0  0  0  0
 26 27  2  0  0  0  0
 28 29  1  0  0  0  0
 28 30  2  0  0  0  0
 29 25  2  0  0  0  0
 30 26  1  0  0  0  0
 31 32  1  1  0  0  0
 31 35  1  0  0  0  0
 33 37  2  0  0  0  0
 34 37  1  0  0  0  0
 35 34  1  0  0  0  0
 36 35  2  0  0  0  0
 37 38  1  0  0  0  0
 38 39  1  0  0  0  0
 41 40  1  6  0  0  0
 41 39  1  0  0  0  0
 41 43  1  0  0  0  0
 43 42  1  0  0  0  0
 44 46  1  0  0  0  0
 44  4  1  0  0  0  0
 45 51  2  0  0  0  0
 45 46  1  0  0  0  0
 46 47  2  0  0  0  0
 47 49  1  0  0  0  0
 49 48  2  0  0  0  0
 50 52  2  0  0  0  0
 50 49  1  0  0  0  0
 51 50  1  0  0  0  0
 53 56  2  0  0  0  0
 55 56  2  0  0  0  0
 56 52  1  0  0  0  0
 56 54  1  0  0  0  0
M  END
>  <MODEL>
3

>  <REMARK>
 VINA RESULT:      -8.8      1.151      1.498
  Name = 
  17 active torsions:
  status: ('A' for Active; 'I' for Inactive)
    1  A    between atoms: C_5  and  C_43
    2  A    between atoms: C_7  and  N_32
    3  A    between atoms: C_7  and  C_52
    4  A    between atoms: C_9  and  C_34
    5  A    between atoms: C_9  and  C_48
    6  A    between atoms: C_17  and  C_33
    7  A    between atoms: C_17  and  C_46
    8  A    between atoms: C_18  and  C_55
    9  A    between atoms: C_25  and  C_44
   10  A    between atoms: C_25  and  O_47
   11  A    between atoms: C_27  and  C_55
   12  A    between atoms: N_32  and  C_44
   13  A    between atoms: C_34  and  O_51
   14  A    between atoms: S_35  and  N_56
   15  A    between atoms: C_38  and  C_39
   16  A    between atoms: C_43  and  O_47
   17  A    between atoms: O_51  and  C_53
                            x       y       z     vdW  Elec       q    Type
                         _______ _______ _______ _____ _____    ______ ____

>  <TORSDO>
F 17

$$$$
=
 OpenBabel10232412203D

 56 60  0  0  1  0  0  0  0  0999 V2000
  189.6910  173.1750  135.3610 C   0  0  0  0  0  3  0  0  0  0  0  0
  188.5660  173.1300  136.3330 C   0  0  0  0  0  2  0  0  0  0  0  0
  188.0640  175.5460  136.3840 C   0  0  0  0  0  3  0  0  0  0  0  0
  190.5770  174.1740  135.3120 C   0  0  0  0  0  0  0  0  0  0  0  0
  187.6480  174.3010  136.1350 C   0  0  0  0  0  0  0  0  0  0  0  0
  190.5430  175.3200  136.2500 C   0  0  0  0  0  3  0  0  0  0  0  0
  189.4460  175.9090  136.7700 C   0  0  0  0  0  0  0  0  0  0  0  0
  183.7740  176.5040  136.9600 C   0  0  0  0  0  0  0  0  0  0  0  0
  185.0870  172.9990  137.6640 C   0  0  0  0  0  2  0  0  0  0  0  0
  183.8450  176.8120  135.7030 N   0  0  0  0  0  0  0  0  0  0  0  0
  184.8090  176.0110  135.0850 N   0  0  0  0  0  0  0  0  0  0  0  0
  185.6280  172.8160  136.2350 C   0  0  0  0  0  2  0  0  0  0  0  0
  184.0870  174.1530  137.7360 C   0  0  0  0  0  2  0  0  0  0  0  0
  186.2450  174.0970  135.6560 C   0  0  1  0  0  3  0  0  0  0  0  0
  185.3610  175.2610  135.9790 C   0  0  0  0  0  0  0  0  0  0  0  0
  184.7640  175.4530  137.3270 C   0  0  1  0  0  3  0  0  0  0  0  0
  182.8830  177.2110  137.9130 C   0  0  0  0  0  2  0  0  0  0  0  0
  183.3570  177.0550  139.2150 O   0  0  0  0  0  0  0  0  0  0  0  0
  182.2740  177.3680  140.0420 C   0  0  0  0  0  2  0  0  0  0  0  0
  182.6430  178.5210  140.9590 C   0  0  0  0  0  2  0  0  0  0  0  0
  183.9550  178.3000  141.5410 N   0  0  0  0  0  2  0  0  0  0  0  0
  183.9900  179.0230  142.8060 C   0  0  1  0  0  3  0  0  0  0  0  0
  182.6510  178.9010  143.5100 C   0  0  0  0  0  1  0  0  0  0  0  0
  186.1170  178.6280  147.3110 C   0  0  0  0  0  1  0  0  0  0  0  0
  187.1870  177.5840  145.3050 C   0  0  0  0  0  3  0  0  0  0  0  0
  186.1690  177.7690  143.1140 C   0  0  0  0  0  3  0  0  0  0  0  0
  187.2050  177.3040  143.9350 C   0  0  0  0  0  3  0  0  0  0  0  0
  185.1020  178.7960  145.0320 C   0  0  0  0  0  3  0  0  0  0  0  0
  186.1360  178.3310  145.8520 C   0  0  0  0  0  0  0  0  0  0  0  0
  185.1110  178.5140  143.6640 C   0  0  0  0  0  0  0  0  0  0  0  0
  189.5990  177.0180  137.7810 C   0  0  2  0  0  3  0  0  0  0  0  0
  189.4320  178.3310  137.1740 N   0  0  0  0  0  1  0  0  0  0  0  0
  188.7280  177.1190  140.4860 O   0  0  0  0  0  0  0  0  0  0  0  0
  191.0050  177.2470  139.9250 N   0  0  0  0  0  2  0  0  0  0  0  0
  190.9210  176.9430  138.5240 C   0  0  0  0  0  0  0  0  0  0  0  0
  191.9860  176.6040  137.9200 O   0  0  0  0  0  0  0  0  0  0  0  0
  189.9070  177.4100  140.8350 C   0  0  0  0  0  0  0  0  0  0  0  0
  190.1290  177.8500  142.1430 O   0  0  0  0  0  0  0  0  0  0  0  0
  191.3900  177.6880  142.7840 C   0  0  0  0  0  2  0  0  0  0  0  0
  190.3380  175.5830  143.2000 O   0  0  0  0  0  1  0  0  0  0  0  0
  191.4790  176.3350  143.4790 C   0  0  2  0  0  3  0  0  0  0  0  0
  190.6300  177.3140  145.4810 O   0  0  0  0  0  1  0  0  0  0  0  0
  191.6340  176.4880  144.9810 C   0  0  0  0  0  2  0  0  0  0  0  0
  191.7720  174.0500  134.4130 C   0  0  0  0  0  2  0  0  0  0  0  0
  194.0670  175.0180  135.0700 C   0  0  0  0  0  3  0  0  0  0  0  0
  193.0440  173.9460  135.1850 C   0  0  0  0  0  0  0  0  0  0  0  0
  193.2510  172.8780  135.9710 C   0  0  0  0  0  3  0  0  0  0  0  0
  194.7300  171.6940  137.3940 O   0  0  0  0  0  0  0  0  0  0  0  0
  194.5230  172.7300  136.7070 C   0  0  0  0  0  0  0  0  0  0  0  0
  195.5520  173.7850  136.5870 C   0  0  0  0  0  0  0  0  0  0  0  0
  195.2450  174.9460  135.7270 C   0  0  0  0  0  3  0  0  0  0  0  0
  196.6730  173.6750  137.2470 N   0  0  0  0  0  0  0  0  0  0  0  0
  198.1420  175.3660  138.6380 O   0  0  0  0  0  0  0  0  0  0  0  0
  199.5110  173.9540  136.7920 C   0  0  0  0  0  1  0  0  0  0  0  0
  197.7580  175.9410  136.2910 O   0  0  0  0  0  0  0  0  0  0  0  0
  197.9970  174.8050  137.2480 S   0  0  0  0  0  0  0  0  0  0  0  0
  1  2  1  0  0  0  0
  3  7  1  0  0  0  0
  4  1  2  0  0  0  0
  4  6  1  0  0  0  0
  5  2  1  0  0  0  0
  5  3  2  0  0  0  0
  6  7  2  0  0  0  0
  7 31  1  0  0  0  0
  8 16  1  0  0  0  0
  8 17  1  0  0  0  0
  9 13  1  0  0  0  0
 10  8  2  0  0  0  0
 11 10  1  0  0  0  0
 11 15  2  0  0  0  0
 12  9  1  0  0  0  0
 14 15  1  0  0  0  0
 14  5  1  1  0  0  0
 14 12  1  0  0  0  0
 15 16  1  0  0  0  0
 16 13  1  6  0  0  0
 17 18  1  0  0  0  0
 18 19  1  0  0  0  0
 19 20  1  0  0  0  0
 20 21  1  0  0  0  0
 21 22  1  0  0  0  0
 22 23  1  1  0  0  0
 22 30  1  0  0  0  0
 25 29  1  0  0  0  0
 26 30  2  0  0  0  0
 26 27  1  0  0  0  0
 27 25  2  0  0  0  0
 28 29  2  0  0  0  0
 29 24  1  0  0  0  0
 30 28  1  0  0  0  0
 31 32  1  6  0  0  0
 31 35  1  0  0  0  0
 33 37  2  0  0  0  0
 34 37  1  0  0  0  0
 35 34  1  0  0  0  0
 36 35  2  0  0  0  0
 37 38  1  0  0  0  0
 38 39  1  0  0  0  0
 39 41  1  0  0  0  0
 41 40  1  1  0  0  0
 41 43  1  0  0  0  0
 43 42  1  0  0  0  0
 44 46  1  0  0  0  0
 44  4  1  0  0  0  0
 45 46  1  0  0  0  0
 45 51  2  0  0  0  0
 46 47  2  0  0  0  0
 47 49  1  0  0  0  0
 49 48  2  0  0  0  0
 50 49  1  0  0  0  0
 50 52  2  0  0  0  0
 51 50  1  0  0  0  0
 52 56  1  0  0  0  0
 54 56  1  0  0  0  0
 55 56  2  0  0  0  0
 56 53  2  0  0  0  0
M  END
>  <MODEL>
4

>  <REMARK>
 VINA RESULT:      -8.3      2.234      3.297
  Name = 
  17 active torsions:
  status: ('A' for Active; 'I' for Inactive)
    1  A    between atoms: C_5  and  C_43
    2  A    between atoms: C_7  and  N_32
    3  A    between atoms: C_7  and  C_52
    4  A    between atoms: C_9  and  C_34
    5  A    between atoms: C_9  and  C_48
    6  A    between atoms: C_17  and  C_33
    7  A    between atoms: C_17  and  C_46
    8  A    between atoms: C_18  and  C_55
    9  A    between atoms: C_25  and  C_44
   10  A    between atoms: C_25  and  O_47
   11  A    between atoms: C_27  and  C_55
   12  A    between atoms: N_32  and  C_44
   13  A    between atoms: C_34  and  O_51
   14  A    between atoms: S_35  and  N_56
   15  A    between atoms: C_38  and  C_39
   16  A    between atoms: C_43  and  O_47
   17  A    between atoms: O_51  and  C_53
                            x       y       z     vdW  Elec       q    Type
                         _______ _______ _______ _____ _____    ______ ____

>  <TORSDO>
F 17

$$$$
=
 OpenBabel10232412203D

 56 60  0  0  1  0  0  0  0  0999 V2000
  189.0870  177.8330  139.7590 C   0  0  0  0  0  3  0  0  0  0  0  0
  189.0070  178.8940  138.7220 C   0  0  0  0  0  2  0  0  0  0  0  0
  189.0550  177.4310  136.7340 C   0  0  0  0  0  3  0  0  0  0  0  0
  189.8040  176.7150  139.6110 C   0  0  0  0  0  0  0  0  0  0  0  0
  188.4100  178.3530  137.4550 C   0  0  0  0  0  0  0  0  0  0  0  0
  190.6200  176.4430  138.4060 C   0  0  0  0  0  3  0  0  0  0  0  0
  190.3290  176.7910  137.1340 C   0  0  0  0  0  0  0  0  0  0  0  0
  184.1610  177.0710  138.3720 C   0  0  0  0  0  0  0  0  0  0  0  0
  186.3780  177.0460  135.2750 C   0  0  0  0  0  2  0  0  0  0  0  0
  184.0680  178.2510  138.9000 N   0  0  0  0  0  0  0  0  0  0  0  0
  185.1630  179.0210  138.5040 N   0  0  0  0  0  0  0  0  0  0  0  0
  186.8540  178.4930  135.4930 C   0  0  0  0  0  2  0  0  0  0  0  0
  185.1200  176.7450  136.0920 C   0  0  0  0  0  2  0  0  0  0  0  0
  187.0790  178.8370  136.9710 C   0  0  1  0  0  3  0  0  0  0  0  0
  185.9480  178.2910  137.7850 C   0  0  0  0  0  0  0  0  0  0  0  0
  185.4100  176.9200  137.5750 C   0  0  1  0  0  3  0  0  0  0  0  0
  183.1810  175.9880  138.6420 C   0  0  0  0  0  2  0  0  0  0  0  0
  182.5820  176.1870  139.8850 O   0  0  0  0  0  0  0  0  0  0  0  0
  181.2110  176.2750  139.6240 C   0  0  0  0  0  2  0  0  0  0  0  0
  180.6810  177.6160  140.1000 C   0  0  0  0  0  2  0  0  0  0  0  0
  180.7390  177.6920  141.5500 N   0  0  0  0  0  2  0  0  0  0  0  0
  181.2570  179.0110  141.8880 C   0  0  1  0  0  3  0  0  0  0  0  0
  180.2000  179.8080  142.6290 C   0  0  0  0  0  1  0  0  0  0  0  0
  186.2170  178.4250  142.0480 C   0  0  0  0  0  1  0  0  0  0  0  0
  184.8950  178.6360  144.1610 C   0  0  0  0  0  3  0  0  0  0  0  0
  182.4890  178.9180  144.1000 C   0  0  0  0  0  3  0  0  0  0  0  0
  183.6780  178.7960  144.8310 C   0  0  0  0  0  3  0  0  0  0  0  0
  183.7340  178.7160  142.0300 C   0  0  0  0  0  3  0  0  0  0  0  0
  184.9220  178.5950  142.7610 C   0  0  0  0  0  0  0  0  0  0  0  0
  182.5160  178.8830  142.6940 C   0  0  0  0  0  0  0  0  0  0  0  0
  191.3190  176.5040  136.0340 C   0  0  2  0  0  3  0  0  0  0  0  0
  190.7600  176.7760  134.7170 N   0  0  0  0  0  1  0  0  0  0  0  0
  193.8640  176.9240  137.2340 O   0  0  0  0  0  0  0  0  0  0  0  0
  193.2430  174.8290  136.3730 N   0  0  0  0  0  2  0  0  0  0  0  0
  191.8580  175.0870  136.0970 C   0  0  0  0  0  0  0  0  0  0  0  0
  191.0900  174.0920  135.9100 O   0  0  0  0  0  0  0  0  0  0  0  0
  194.2150  175.7740  136.8460 C   0  0  0  0  0  0  0  0  0  0  0  0
  195.5640  175.4210  136.9320 O   0  0  0  0  0  0  0  0  0  0  0  0
  195.9740  174.1200  137.3360 C   0  0  0  0  0  2  0  0  0  0  0  0
  196.0350  175.0390  139.5420 O   0  0  0  0  0  1  0  0  0  0  0  0
  196.6960  174.1670  138.6770 C   0  0  2  0  0  3  0  0  0  0  0  0
  198.3580  175.7880  139.2210 O   0  0  0  0  0  1  0  0  0  0  0  0
  198.1410  174.6050  138.5190 C   0  0  0  0  0  2  0  0  0  0  0  0
  189.9590  175.7840  140.7770 C   0  0  0  0  0  2  0  0  0  0  0  0
  188.8220  175.9690  143.0820 C   0  0  0  0  0  3  0  0  0  0  0  0
  189.7910  176.4880  142.0810 C   0  0  0  0  0  0  0  0  0  0  0  0
  190.5170  177.5880  142.3330 C   0  0  0  0  0  3  0  0  0  0  0  0
  190.9780  179.3940  143.7950 O   0  0  0  0  0  0  0  0  0  0  0  0
  190.3340  178.3290  143.5970 C   0  0  0  0  0  0  0  0  0  0  0  0
  189.3620  177.8280  144.5920 C   0  0  0  0  0  0  0  0  0  0  0  0
  188.6180  176.5950  144.2610 C   0  0  0  0  0  3  0  0  0  0  0  0
  189.2040  178.4640  145.7210 N   0  0  0  0  0  0  0  0  0  0  0  0
  187.8690  176.5500  146.9490 O   0  0  0  0  0  0  0  0  0  0  0  0
  188.8920  178.4300  148.5910 C   0  0  0  0  0  1  0  0  0  0  0  0
  186.8100  178.7560  146.9070 O   0  0  0  0  0  0  0  0  0  0  0  0
  188.1250  178.0330  147.0170 S   0  0  0  0  0  0  0  0  0  0  0  0
  2  1  1  0  0  0  0
  3  7  1  0  0  0  0
  3  5  2  0  0  0  0
  4  1  2  0  0  0  0
  4 44  1  0  0  0  0
  5  2  1  0  0  0  0
  6  4  1  0  0  0  0
  7  6  2  0  0  0  0
  8 17  1  0  0  0  0
  8 10  2  0  0  0  0
  9 12  1  0  0  0  0
  9 13  1  0  0  0  0
 11 10  1  0  0  0  0
 12 14  1  0  0  0  0
 14  5  1  1  0  0  0
 14 15  1  0  0  0  0
 15 11  2  0  0  0  0
 16 13  1  6  0  0  0
 16 15  1  0  0  0  0
 16  8  1  0  0  0  0
 17 18  1  0  0  0  0
 19 18  1  0  0  0  0
 19 20  1  0  0  0  0
 20 21  1  0  0  0  0
 21 22  1  0  0  0  0
 22 23  1  1  0  0  0
 22 30  1  0  0  0  0
 24 29  1  0  0  0  0
 25 27  1  0  0  0  0
 26 27  2  0  0  0  0
 28 30  2  0  0  0  0
 28 29  1  0  0  0  0
 29 25  2  0  0  0  0
 30 26  1  0  0  0  0
 31 32  1  6  0  0  0
 31 35  1  0  0  0  0
 31  7  1  0  0  0  0
 34 37  1  0  0  0  0
 35 34  1  0  0  0  0
 36 35  2  0  0  0  0
 37 38  1  0  0  0  0
 37 33  2  0  0  0  0
 38 39  1  0  0  0  0
 39 41  1  0  0  0  0
 41 40  1  1  0  0  0
 43 41  1  0  0  0  0
 43 42  1  0  0  0  0
 44 46  1  0  0  0  0
 45 51  2  0  0  0  0
 46 47  2  0  0  0  0
 46 45  1  0  0  0  0
 47 49  1  0  0  0  0
 49 48  2  0  0  0  0
 49 50  1  0  0  0  0
 50 52  2  0  0  0  0
 51 50  1  0  0  0  0
 52 56  1  0  0  0  0
 53 56  2  0  0  0  0
 55 56  2  0  0  0  0
 56 54  1  0  0  0  0
M  END
>  <MODEL>
5

>  <REMARK>
 VINA RESULT:      -8.2      3.202      6.881
  Name = 
  17 active torsions:
  status: ('A' for Active; 'I' for Inactive)
    1  A    between atoms: C_5  and  C_43
    2  A    between atoms: C_7  and  N_32
    3  A    between atoms: C_7  and  C_52
    4  A    between atoms: C_9  and  C_34
    5  A    between atoms: C_9  and  C_48
    6  A    between atoms: C_17  and  C_33
    7  A    between atoms: C_17  and  C_46
    8  A    between atoms: C_18  and  C_55
    9  A    between atoms: C_25  and  C_44
   10  A    between atoms: C_25  and  O_47
   11  A    between atoms: C_27  and  C_55
   12  A    between atoms: N_32  and  C_44
   13  A    between atoms: C_34  and  O_51
   14  A    between atoms: S_35  and  N_56
   15  A    between atoms: C_38  and  C_39
   16  A    between atoms: C_43  and  O_47
   17  A    between atoms: O_51  and  C_53
                            x       y       z     vdW  Elec       q    Type
                         _______ _______ _______ _____ _____    ______ ____

>  <TORSDO>
F 17

$$$$
=
 OpenBabel10232412203D

 56 60  0  0  1  0  0  0  0  0999 V2000
  191.6300  175.0110  136.2990 C   0  0  0  0  0  3  0  0  0  0  0  0
  190.3280  174.4090  136.6880 C   0  0  0  0  0  2  0  0  0  0  0  0
  189.3240  176.4110  137.7250 C   0  0  0  0  0  3  0  0  0  0  0  0
  192.2630  175.9280  137.0360 C   0  0  0  0  0  0  0  0  0  0  0  0
  189.2640  175.4640  136.7850 C   0  0  0  0  0  0  0  0  0  0  0  0
  191.7420  176.4080  138.3360 C   0  0  0  0  0  3  0  0  0  0  0  0
  190.4470  176.5840  138.6740 C   0  0  0  0  0  0  0  0  0  0  0  0
  184.8730  176.4700  137.2850 C   0  0  0  0  0  0  0  0  0  0  0  0
  186.8390  173.3270  136.4110 C   0  0  0  0  0  2  0  0  0  0  0  0
  185.1550  177.4600  136.4980 N   0  0  0  0  0  0  0  0  0  0  0  0
  186.4080  177.2480  135.9180 N   0  0  0  0  0  0  0  0  0  0  0  0
  187.7270  174.0570  135.3880 C   0  0  0  0  0  2  0  0  0  0  0  0
  185.5880  174.1420  136.7430 C   0  0  0  0  0  2  0  0  0  0  0  0
  188.1120  175.4750  135.8300 C   0  0  1  0  0  3  0  0  0  0  0  0
  186.9100  176.1600  136.4000 C   0  0  0  0  0  0  0  0  0  0  0  0
  185.9850  175.4810  137.3460 C   0  0  1  0  0  3  0  0  0  0  0  0
  183.6340  176.4160  138.1000 C   0  0  0  0  0  2  0  0  0  0  0  0
  182.6750  177.2780  137.5670 O   0  0  0  0  0  0  0  0  0  0  0  0
  182.5600  178.3190  138.4940 C   0  0  0  0  0  2  0  0  0  0  0  0
  182.3760  177.7490  139.8890 C   0  0  0  0  0  2  0  0  0  0  0  0
  182.8430  178.6970  140.8850 N   0  0  0  0  0  2  0  0  0  0  0  0
  184.1660  178.2560  141.3070 C   0  0  1  0  0  3  0  0  0  0  0  0
  185.2350  179.0300  140.5580 C   0  0  0  0  0  1  0  0  0  0  0  0
  186.9480  177.7400  145.4270 C   0  0  0  0  0  1  0  0  0  0  0  0
  184.6350  178.6800  145.5670 C   0  0  0  0  0  3  0  0  0  0  0  0
  183.2720  178.9340  143.5790 C   0  0  0  0  0  3  0  0  0  0  0  0
  183.4340  179.0690  144.9640 C   0  0  0  0  0  3  0  0  0  0  0  0
  185.5090  178.0180  143.4010 C   0  0  0  0  0  3  0  0  0  0  0  0
  185.6710  178.1530  144.7850 C   0  0  0  0  0  0  0  0  0  0  0  0
  184.3140  178.4110  142.7930 C   0  0  0  0  0  0  0  0  0  0  0  0
  190.0900  177.0030  140.0780 C   0  0  2  0  0  3  0  0  0  0  0  0
  189.1400  178.1070  140.0900 N   0  0  0  0  0  1  0  0  0  0  0  0
  189.4710  175.7440  142.5530 O   0  0  0  0  0  0  0  0  0  0  0  0
  191.3260  177.1650  142.3290 N   0  0  0  0  0  2  0  0  0  0  0  0
  191.3140  177.3500  140.9060 C   0  0  0  0  0  0  0  0  0  0  0  0
  192.3610  177.8110  140.3530 O   0  0  0  0  0  0  0  0  0  0  0  0
  190.3610  176.4450  143.1110 C   0  0  0  0  0  0  0  0  0  0  0  0
  190.4170  176.4690  144.5070 O   0  0  0  0  0  0  0  0  0  0  0  0
  191.6550  176.5330  145.2050 C   0  0  0  0  0  2  0  0  0  0  0  0
  192.3490  176.2340  147.4730 O   0  0  0  0  0  1  0  0  0  0  0  0
  191.4400  176.9160  146.6640 C   0  0  2  0  0  3  0  0  0  0  0  0
  189.4970  177.7060  147.7990 O   0  0  0  0  0  1  0  0  0  0  0  0
  190.0240  176.6110  147.1190 C   0  0  0  0  0  2  0  0  0  0  0  0
  193.6490  176.3510  136.6470 C   0  0  0  0  0  2  0  0  0  0  0  0
  195.7280  175.0480  135.8590 C   0  0  0  0  0  3  0  0  0  0  0  0
  194.6460  175.2610  136.8560 C   0  0  0  0  0  0  0  0  0  0  0  0
  194.5490  174.4810  137.9430 C   0  0  0  0  0  3  0  0  0  0  0  0
  195.3580  172.6030  139.1400 O   0  0  0  0  0  0  0  0  0  0  0  0
  195.4960  173.3650  138.1470 C   0  0  0  0  0  0  0  0  0  0  0  0
  196.5670  173.1380  137.1530 C   0  0  0  0  0  0  0  0  0  0  0  0
  196.6310  174.0540  135.9950 C   0  0  0  0  0  3  0  0  0  0  0  0
  197.4200  172.1670  137.3310 N   0  0  0  0  0  0  0  0  0  0  0  0
  200.0350  172.0280  137.0190 O   0  0  0  0  0  0  0  0  0  0  0  0
  198.6660  169.9950  135.8930 C   0  0  0  0  0  1  0  0  0  0  0  0
  198.7320  172.5440  135.0140 O   0  0  0  0  0  0  0  0  0  0  0  0
  198.7490  171.7440  136.2890 S   0  0  0  0  0  0  0  0  0  0  0  0
  1  2  1  0  0  0  0
  1  4  2  0  0  0  0
  2  5  1  0  0  0  0
  3  7  1  0  0  0  0
  4  6  1  0  0  0  0
  5  3  2  0  0  0  0
  6  7  2  0  0  0  0
  7 31  1  0  0  0  0
  8 16  1  0  0  0  0
  8 17  1  0  0  0  0
  9 13  1  0  0  0  0
 10  8  2  0  0  0  0
 11 15  2  0  0  0  0
 11 10  1  0  0  0  0
 12 14  1  0  0  0  0
 12  9  1  0  0  0  0
 14 15  1  0  0  0  0
 14  5  1  1  0  0  0
 15 16  1  0  0  0  0
 16 13  1  6  0  0  0
 18 17  1  0  0  0  0
 18 19  1  0  0  0  0
 19 20  1  0  0  0  0
 20 21  1  0  0  0  0
 21 22  1  0  0  0  0
 22 23  1  6  0  0  0
 22 30  1  0  0  0  0
 26 27  2  0  0  0  0
 27 25  1  0  0  0  0
 28 29  1  0  0  0  0
 29 24  1  0  0  0  0
 29 25  2  0  0  0  0
 30 28  2  0  0  0  0
 30 26  1  0  0  0  0
 31 32  1  6  0  0  0
 31 35  1  0  0  0  0
 33 37  2  0  0  0  0
 34 37  1  0  0  0  0
 35 34  1  0  0  0  0
 36 35  2  0  0  0  0
 37 38  1  0  0  0  0
 38 39  1  0  0  0  0
 39 41  1  0  0  0  0
 41 43  1  0  0  0  0
 41 40  1  1  0  0  0
 43 42  1  0  0  0  0
 44 46  1  0  0  0  0
 44  4  1  0  0  0  0
 45 51  2  0  0  0  0
 45 46  1  0  0  0  0
 46 47  2  0  0  0  0
 47 49  1  0  0  0  0
 49 48  2  0  0  0  0
 50 52  2  0  0  0  0
 50 49  1  0  0  0  0
 51 50  1  0  0  0  0
 54 56  1  0  0  0  0
 55 56  2  0  0  0  0
 56 53  2  0  0  0  0
 56 52  1  0  0  0  0
M  END
>  <MODEL>
6

>  <REMARK>
 VINA RESULT:      -8.2      1.805      2.283
  Name = 
  17 active torsions:
  status: ('A' for Active; 'I' for Inactive)
    1  A    between atoms: C_5  and  C_43
    2  A    between atoms: C_7  and  N_32
    3  A    between atoms: C_7  and  C_52
    4  A    between atoms: C_9  and  C_34
    5  A    between atoms: C_9  and  C_48
    6  A    between atoms: C_17  and  C_33
    7  A    between atoms: C_17  and  C_46
    8  A    between atoms: C_18  and  C_55
    9  A    between atoms: C_25  and  C_44
   10  A    between atoms: C_25  and  O_47
   11  A    between atoms: C_27  and  C_55
   12  A    between atoms: N_32  and  C_44
   13  A    between atoms: C_34  and  O_51
   14  A    between atoms: S_35  and  N_56
   15  A    between atoms: C_38  and  C_39
   16  A    between atoms: C_43  and  O_47
   17  A    between atoms: O_51  and  C_53
                            x       y       z     vdW  Elec       q    Type
                         _______ _______ _______ _____ _____    ______ ____

>  <TORSDO>
F 17

$$$$
=
 OpenBabel10232412203D

 56 60  0  0  1  0  0  0  0  0999 V2000
  193.3040  176.9760  139.1680 C   0  0  0  0  0  3  0  0  0  0  0  0
  192.4120  177.6800  140.1260 C   0  0  0  0  0  2  0  0  0  0  0  0
  190.3170  176.4990  139.5700 C   0  0  0  0  0  3  0  0  0  0  0  0
  192.9100  176.5830  137.9520 C   0  0  0  0  0  0  0  0  0  0  0  0
  191.2360  176.8190  140.4850 C   0  0  0  0  0  0  0  0  0  0  0  0
  191.5500  176.8440  137.4300 C   0  0  0  0  0  3  0  0  0  0  0  0
  190.3990  176.8570  138.1360 C   0  0  0  0  0  0  0  0  0  0  0  0
  187.9070  177.2340  143.5330 C   0  0  0  0  0  0  0  0  0  0  0  0
  191.5420  178.3570  143.3360 C   0  0  0  0  0  2  0  0  0  0  0  0
  187.7770  175.9570  143.3570 N   0  0  0  0  0  0  0  0  0  0  0  0
  188.8910  175.4700  142.6700 N   0  0  0  0  0  0  0  0  0  0  0  0
  192.0350  176.9800  142.8580 C   0  0  0  0  0  2  0  0  0  0  0  0
  190.1420  178.2640  143.9470 C   0  0  0  0  0  2  0  0  0  0  0  0
  191.0680  176.3010  141.8790 C   0  0  1  0  0  3  0  0  0  0  0  0
  189.6660  176.4600  142.3780 C   0  0  0  0  0  0  0  0  0  0  0  0
  189.1550  177.7530  142.9070 C   0  0  1  0  0  3  0  0  0  0  0  0
  186.8650  178.0680  144.1830 C   0  0  0  0  0  2  0  0  0  0  0  0
  186.2630  177.3570  145.2200 O   0  0  0  0  0  0  0  0  0  0  0  0
  186.2990  178.2140  146.3240 C   0  0  0  0  0  2  0  0  0  0  0  0
  187.0530  177.5540  147.4660 C   0  0  0  0  0  2  0  0  0  0  0  0
  188.3310  177.0490  146.9960 N   0  0  0  0  0  2  0  0  0  0  0  0
  189.3630  177.9140  147.5550 C   0  0  1  0  0  3  0  0  0  0  0  0
  188.8880  178.5060  148.8690 C   0  0  0  0  0  1  0  0  0  0  0  0
  193.6080  177.1500  150.0790 C   0  0  0  0  0  1  0  0  0  0  0  0
  193.0470  175.7480  148.0850 C   0  0  0  0  0  3  0  0  0  0  0  0
  190.9940  176.1080  146.8490 C   0  0  0  0  0  3  0  0  0  0  0  0
  192.1940  175.4090  147.0300 C   0  0  0  0  0  3  0  0  0  0  0  0
  191.5020  177.4890  148.7750 C   0  0  0  0  0  3  0  0  0  0  0  0
  192.7010  176.7890  148.9560 C   0  0  0  0  0  0  0  0  0  0  0  0
  190.6430  177.1490  147.7270 C   0  0  0  0  0  0  0  0  0  0  0  0
  189.1060  177.2250  137.4530 C   0  0  2  0  0  3  0  0  0  0  0  0
  189.2290  177.1880  136.0020 N   0  0  0  0  0  1  0  0  0  0  0  0
  186.3320  176.6730  137.7540 O   0  0  0  0  0  0  0  0  0  0  0  0
  187.1720  178.8600  137.9100 N   0  0  0  0  0  2  0  0  0  0  0  0
  188.5790  178.5750  137.9040 C   0  0  0  0  0  0  0  0  0  0  0  0
  189.3760  179.4860  138.2920 O   0  0  0  0  0  0  0  0  0  0  0  0
  186.1030  177.9150  137.7480 C   0  0  0  0  0  0  0  0  0  0  0  0
  184.7820  178.3520  137.6290 O   0  0  0  0  0  0  0  0  0  0  0  0
  183.8150  178.1040  138.6430 C   0  0  0  0  0  2  0  0  0  0  0  0
  184.3710  180.3350  139.2930 O   0  0  0  0  0  1  0  0  0  0  0  0
  183.9580  179.0990  139.7880 C   0  0  2  0  0  3  0  0  0  0  0  0
  185.7470  179.6690  141.2580 O   0  0  0  0  0  1  0  0  0  0  0  0
  184.9470  178.6110  140.8320 C   0  0  0  0  0  2  0  0  0  0  0  0
  193.9270  176.0340  136.9950 C   0  0  0  0  0  2  0  0  0  0  0  0
  194.9470  173.8380  137.8760 C   0  0  0  0  0  3  0  0  0  0  0  0
  193.9630  174.5430  137.0120 C   0  0  0  0  0  0  0  0  0  0  0  0
  193.1080  173.8550  136.2410 C   0  0  0  0  0  3  0  0  0  0  0  0
  192.3890  171.7480  135.4310 O   0  0  0  0  0  0  0  0  0  0  0  0
  193.1570  172.3790  136.2040 C   0  0  0  0  0  0  0  0  0  0  0  0
  194.1410  171.6710  137.0500 C   0  0  0  0  0  0  0  0  0  0  0  0
  195.0320  172.4900  137.8970 C   0  0  0  0  0  3  0  0  0  0  0  0
  194.1820  170.3660  137.0410 N   0  0  0  0  0  0  0  0  0  0  0  0
  195.0090  167.9180  137.5700 O   0  0  0  0  0  0  0  0  0  0  0  0
  196.9560  169.7850  137.5950 C   0  0  0  0  0  1  0  0  0  0  0  0
  195.0140  169.4920  139.4440 O   0  0  0  0  0  0  0  0  0  0  0  0
  195.2530  169.3520  137.9650 S   0  0  0  0  0  0  0  0  0  0  0  0
  1  2  1  0  0  0  0
  2  5  1  0  0  0  0
  3  5  2  0  0  0  0
  4  1  2  0  0  0  0
  6  4  1  0  0  0  0
  6  7  2  0  0  0  0
  7  3  1  0  0  0  0
  8 17  1  0  0  0  0
  9 13  1  0  0  0  0
 10  8  2  0  0  0  0
 11 10  1  0  0  0  0
 12  9  1  0  0  0  0
 14  5  1  6  0  0  0
 14 15  1  0  0  0  0
 14 12  1  0  0  0  0
 15 11  2  0  0  0  0
 15 16  1  0  0  0  0
 16  8  1  0  0  0  0
 16 13  1  1  0  0  0
 17 18  1  0  0  0  0
 18 19  1  0  0  0  0
 19 20  1  0  0  0  0
 21 20  1  0  0  0  0
 21 22  1  0  0  0  0
 22 30  1  0  0  0  0
 22 23  1  1  0  0  0
 25 29  1  0  0  0  0
 26 27  1  0  0  0  0
 26 30  2  0  0  0  0
 27 25  2  0  0  0  0
 28 29  2  0  0  0  0
 29 24  1  0  0  0  0
 30 28  1  0  0  0  0
 31 32  1  6  0  0  0
 31 35  1  0  0  0  0
 31  7  1  0  0  0  0
 35 34  1  0  0  0  0
 35 36  2  0  0  0  0
 37 33  2  0  0  0  0
 37 34  1  0  0  0  0
 38 37  1  0  0  0  0
 38 39  1  0  0  0  0
 39 41  1  0  0  0  0
 41 40  1  6  0  0  0
 41 43  1  0  0  0  0
 43 42  1  0  0  0  0
 44 46  1  0  0  0  0
 44  4  1  0  0  0  0
 45 51  2  0  0  0  0
 46 45  1  0  0  0  0
 47 46  2  0  0  0  0
 48 49  2  0  0  0  0
 49 47  1  0  0  0  0
 49 50  1  0  0  0  0
 50 51  1  0  0  0  0
 52 50  2  0  0  0  0
 52 56  1  0  0  0  0
 53 56  2  0  0  0  0
 54 56  1  0  0  0  0
 56 55  2  0  0  0  0
M  END
>  <MODEL>
7

>  <REMARK>
 VINA RESULT:      -8.2      2.639      6.614
  Name = 
  17 active torsions:
  status: ('A' for Active; 'I' for Inactive)
    1  A    between atoms: C_5  and  C_43
    2  A    between atoms: C_7  and  N_32
    3  A    between atoms: C_7  and  C_52
    4  A    between atoms: C_9  and  C_34
    5  A    between atoms: C_9  and  C_48
    6  A    between atoms: C_17  and  C_33
    7  A    between atoms: C_17  and  C_46
    8  A    between atoms: C_18  and  C_55
    9  A    between atoms: C_25  and  C_44
   10  A    between atoms: C_25  and  O_47
   11  A    between atoms: C_27  and  C_55
   12  A    between atoms: N_32  and  C_44
   13  A    between atoms: C_34  and  O_51
   14  A    between atoms: S_35  and  N_56
   15  A    between atoms: C_38  and  C_39
   16  A    between atoms: C_43  and  O_47
   17  A    between atoms: O_51  and  C_53
                            x       y       z     vdW  Elec       q    Type
                         _______ _______ _______ _____ _____    ______ ____

>  <TORSDO>
F 17

$$$$
=
 OpenBabel10232412203D

 56 60  0  0  1  0  0  0  0  0999 V2000
  192.6990  177.1680  140.1020 C   0  0  0  0  0  3  0  0  0  0  0  0
  191.7800  177.6670  141.1580 C   0  0  0  0  0  2  0  0  0  0  0  0
  189.6690  176.8240  140.1980 C   0  0  0  0  0  3  0  0  0  0  0  0
  192.3740  177.1270  138.8060 C   0  0  0  0  0  0  0  0  0  0  0  0
  190.5350  176.8310  141.2150 C   0  0  0  0  0  0  0  0  0  0  0  0
  191.0720  177.6120  138.2930 C   0  0  0  0  0  3  0  0  0  0  0  0
  189.8750  177.5280  138.9130 C   0  0  0  0  0  0  0  0  0  0  0  0
  187.8740  177.4690  144.8280 C   0  0  0  0  0  0  0  0  0  0  0  0
  191.6220  177.0890  144.2710 C   0  0  0  0  0  2  0  0  0  0  0  0
  187.2000  176.4790  144.3310 N   0  0  0  0  0  0  0  0  0  0  0  0
  187.9600  175.8560  143.3390 N   0  0  0  0  0  0  0  0  0  0  0  0
  191.4530  175.8720  143.3440 C   0  0  0  0  0  2  0  0  0  0  0  0
  190.3530  177.3490  145.0840 C   0  0  0  0  0  2  0  0  0  0  0  0
  190.2360  175.9880  142.4150 C   0  0  1  0  0  3  0  0  0  0  0  0
  189.0670  176.5040  143.1930 C   0  0  0  0  0  0  0  0  0  0  0  0
  189.1880  177.6380  144.1480 C   0  0  1  0  0  3  0  0  0  0  0  0
  187.3250  178.3750  145.8680 C   0  0  0  0  0  2  0  0  0  0  0  0
  186.5780  177.6440  146.7920 O   0  0  0  0  0  0  0  0  0  0  0  0
  185.4810  178.4530  147.1010 C   0  0  0  0  0  2  0  0  0  0  0  0
  185.0960  179.2840  145.8890 C   0  0  0  0  0  2  0  0  0  0  0  0
  183.8650  178.7800  145.3060 N   0  0  0  0  0  2  0  0  0  0  0  0
  183.7120  179.4240  144.0080 C   0  0  1  0  0  3  0  0  0  0  0  0
  184.9130  179.1190  143.1330 C   0  0  0  0  0  1  0  0  0  0  0  0
  181.2020  178.1610  139.8750 C   0  0  0  0  0  1  0  0  0  0  0  0
  180.0620  178.1620  142.1020 C   0  0  0  0  0  3  0  0  0  0  0  0
  181.2650  178.7750  144.1140 C   0  0  0  0  0  3  0  0  0  0  0  0
  180.0830  178.3630  143.4860 C   0  0  0  0  0  3  0  0  0  0  0  0
  182.4050  178.7880  141.9760 C   0  0  0  0  0  3  0  0  0  0  0  0
  181.2230  178.3760  141.3480 C   0  0  0  0  0  0  0  0  0  0  0  0
  182.4320  178.9830  143.3590 C   0  0  0  0  0  0  0  0  0  0  0  0
  188.6580  178.1520  138.2770 C   0  0  2  0  0  3  0  0  0  0  0  0
  188.9930  179.3580  137.5320 N   0  0  0  0  0  1  0  0  0  0  0  0
  186.4020  176.9570  137.0230 O   0  0  0  0  0  0  0  0  0  0  0  0
  186.1780  178.2740  138.9540 N   0  0  0  0  0  2  0  0  0  0  0  0
  187.5640  178.4430  139.2880 C   0  0  0  0  0  0  0  0  0  0  0  0
  187.8530  178.8400  140.4600 O   0  0  0  0  0  0  0  0  0  0  0  0
  185.6490  177.6160  137.7930 C   0  0  0  0  0  0  0  0  0  0  0  0
  184.2790  177.6530  137.5190 O   0  0  0  0  0  0  0  0  0  0  0  0
  183.6940  176.8400  136.5090 C   0  0  0  0  0  2  0  0  0  0  0  0
  183.3180  175.5300  138.4720 O   0  0  0  0  0  1  0  0  0  0  0  0
  182.9950  175.6300  137.1190 C   0  0  2  0  0  3  0  0  0  0  0  0
  184.3540  174.6080  135.4470 O   0  0  0  0  0  1  0  0  0  0  0  0
  183.3780  174.3460  136.4060 C   0  0  0  0  0  2  0  0  0  0  0  0
  193.4250  176.7670  137.7980 C   0  0  0  0  0  2  0  0  0  0  0  0
  194.5310  174.4560  138.0650 C   0  0  0  0  0  3  0  0  0  0  0  0
  193.4450  175.3040  137.5080 C   0  0  0  0  0  0  0  0  0  0  0  0
  192.4820  174.7730  136.7410 C   0  0  0  0  0  3  0  0  0  0  0  0
  191.6310  172.8600  135.6310 O   0  0  0  0  0  0  0  0  0  0  0  0
  192.5070  173.3350  136.4010 C   0  0  0  0  0  0  0  0  0  0  0  0
  193.5910  172.4870  136.9400 C   0  0  0  0  0  0  0  0  0  0  0  0
  194.6020  173.1340  137.8010 C   0  0  0  0  0  3  0  0  0  0  0  0
  193.6150  171.2120  136.6620 N   0  0  0  0  0  0  0  0  0  0  0  0
  194.2780  168.6690  136.8850 O   0  0  0  0  0  0  0  0  0  0  0  0
  196.3410  170.3190  136.3350 C   0  0  0  0  0  1  0  0  0  0  0  0
  195.0290  170.1470  138.6850 O   0  0  0  0  0  0  0  0  0  0  0  0
  194.7920  170.0500  137.2020 S   0  0  0  0  0  0  0  0  0  0  0  0
  1  2  1  0  0  0  0
  2  5  1  0  0  0  0
  3  5  2  0  0  0  0
  4  1  2  0  0  0  0
  6  4  1  0  0  0  0
  6  7  2  0  0  0  0
  7  3  1  0  0  0  0
  8 17  1  0  0  0  0
  9 13  1  0  0  0  0
 10  8  2  0  0  0  0
 11 10  1  0  0  0  0
 12  9  1  0  0  0  0
 14  5  1  6  0  0  0
 14 15  1  0  0  0  0
 14 12  1  0  0  0  0
 15 11  2  0  0  0  0
 15 16  1  0  0  0  0
 16  8  1  0  0  0  0
 16 13  1  1  0  0  0
 17 18  1  0  0  0  0
 18 19  1  0  0  0  0
 20 19  1  0  0  0  0
 21 20  1  0  0  0  0
 22 23  1  6  0  0  0
 22 21  1  0  0  0  0
 24 29  1  0  0  0  0
 25 27  1  0  0  0  0
 27 26  2  0  0  0  0
 28 30  2  0  0  0  0
 29 28  1  0  0  0  0
 29 25  2  0  0  0  0
 30 22  1  0  0  0  0
 30 26  1  0  0  0  0
 31 32  1  1  0  0  0
 31  7  1  0  0  0  0
 31 35  1  0  0  0  0
 33 37  2  0  0  0  0
 34 35  1  0  0  0  0
 35 36  2  0  0  0  0
 37 34  1  0  0  0  0
 38 37  1  0  0  0  0
 39 41  1  0  0  0  0
 39 38  1  0  0  0  0
 41 40  1  1  0  0  0
 42 43  1  0  0  0  0
 43 41  1  0  0  0  0
 44  4  1  0  0  0  0
 46 44  1  0  0  0  0
 46 45  1  0  0  0  0
 47 46  2  0  0  0  0
 48 49  2  0  0  0  0
 49 47  1  0  0  0  0
 49 50  1  0  0  0  0
 50 51  1  0  0  0  0
 51 45  2  0  0  0  0
 52 50  2  0  0  0  0
 52 56  1  0  0  0  0
 53 56  2  0  0  0  0
 54 56  1  0  0  0  0
 56 55  2  0  0  0  0
M  END
>  <MODEL>
8

>  <REMARK>
 VINA RESULT:      -8.2      2.394      6.628
  Name = 
  17 active torsions:
  status: ('A' for Active; 'I' for Inactive)
    1  A    between atoms: C_5  and  C_43
    2  A    between atoms: C_7  and  N_32
    3  A    between atoms: C_7  and  C_52
    4  A    between atoms: C_9  and  C_34
    5  A    between atoms: C_9  and  C_48
    6  A    between atoms: C_17  and  C_33
    7  A    between atoms: C_17  and  C_46
    8  A    between atoms: C_18  and  C_55
    9  A    between atoms: C_25  and  C_44
   10  A    between atoms: C_25  and  O_47
   11  A    between atoms: C_27  and  C_55
   12  A    between atoms: N_32  and  C_44
   13  A    between atoms: C_34  and  O_51
   14  A    between atoms: S_35  and  N_56
   15  A    between atoms: C_38  and  C_39
   16  A    between atoms: C_43  and  O_47
   17  A    between atoms: O_51  and  C_53
                            x       y       z     vdW  Elec       q    Type
                         _______ _______ _______ _____ _____    ______ ____

>  <TORSDO>
F 17

$$$$
=
 OpenBabel10232412203D

 56 60  0  0  1  0  0  0  0  0999 V2000
  191.0800  176.3840  137.7390 C   0  0  0  0  0  3  0  0  0  0  0  0
  189.6270  176.3050  138.0450 C   0  0  0  0  0  2  0  0  0  0  0  0
  189.5300  178.1260  139.7080 C   0  0  0  0  0  3  0  0  0  0  0  0
  192.0070  176.6750  138.6570 C   0  0  0  0  0  0  0  0  0  0  0  0
  189.1170  177.6270  138.5400 C   0  0  0  0  0  0  0  0  0  0  0  0
  191.6770  176.9120  140.0800 C   0  0  0  0  0  3  0  0  0  0  0  0
  190.5680  177.5100  140.5660 C   0  0  0  0  0  0  0  0  0  0  0  0
  184.6930  177.0860  137.7170 C   0  0  0  0  0  0  0  0  0  0  0  0
  187.8600  177.0170  135.6010 C   0  0  0  0  0  2  0  0  0  0  0  0
  184.5760  178.1860  138.3910 N   0  0  0  0  0  0  0  0  0  0  0  0
  185.8350  178.7750  138.5360 N   0  0  0  0  0  0  0  0  0  0  0  0
  188.4160  178.3070  136.2290 C   0  0  0  0  0  2  0  0  0  0  0  0
  186.3630  176.8660  135.8760 C   0  0  0  0  0  2  0  0  0  0  0  0
  188.1330  178.4150  137.7340 C   0  0  1  0  0  3  0  0  0  0  0  0
  186.7200  178.0010  138.0030 C   0  0  0  0  0  0  0  0  0  0  0  0
  186.1140  176.7970  137.3750 C   0  0  1  0  0  3  0  0  0  0  0  0
  183.5450  176.1870  137.4360 C   0  0  0  0  0  2  0  0  0  0  0  0
  182.6560  176.8090  136.5600 O   0  0  0  0  0  0  0  0  0  0  0  0
  181.3860  176.5670  137.0920 C   0  0  0  0  0  2  0  0  0  0  0  0
  180.8460  177.8320  137.7360 C   0  0  0  0  0  2  0  0  0  0  0  0
  181.4240  179.0040  137.1010 N   0  0  0  0  0  2  0  0  0  0  0  0
  180.9190  180.1700  137.8150 C   0  0  1  0  0  3  0  0  0  0  0  0
  181.8620  180.5350  138.9450 C   0  0  0  0  0  1  0  0  0  0  0  0
  180.8380  185.0980  136.9860 C   0  0  0  0  0  1  0  0  0  0  0  0
  180.3780  183.4900  135.1260 C   0  0  0  0  0  3  0  0  0  0  0  0
  180.4110  181.0980  135.5120 C   0  0  0  0  0  3  0  0  0  0  0  0
  180.2380  182.1840  134.6450 C   0  0  0  0  0  3  0  0  0  0  0  0
  180.8600  182.6220  137.3410 C   0  0  0  0  0  3  0  0  0  0  0  0
  180.6880  183.7080  136.4740 C   0  0  0  0  0  0  0  0  0  0  0  0
  180.7280  181.3160  136.8650 C   0  0  0  0  0  0  0  0  0  0  0  0
  190.3550  177.5940  142.0560 C   0  0  2  0  0  3  0  0  0  0  0  0
  191.5810  177.9420  142.7610 N   0  0  0  0  0  1  0  0  0  0  0  0
  187.6280  178.3390  142.3730 O   0  0  0  0  0  0  0  0  0  0  0  0
  188.4520  176.3090  143.2180 N   0  0  0  0  0  2  0  0  0  0  0  0
  189.7610  176.3200  142.6280 C   0  0  0  0  0  0  0  0  0  0  0  0
  190.4110  175.2290  142.5930 O   0  0  0  0  0  0  0  0  0  0  0  0
  187.4670  177.3510  143.1440 C   0  0  0  0  0  0  0  0  0  0  0  0
  186.2890  177.2680  143.8890 O   0  0  0  0  0  0  0  0  0  0  0  0
  185.9340  178.2610  144.8450 C   0  0  0  0  0  2  0  0  0  0  0  0
  183.9410  179.5000  145.2980 O   0  0  0  0  0  1  0  0  0  0  0  0
  184.8580  179.1890  144.2940 C   0  0  2  0  0  3  0  0  0  0  0  0
  184.5310  179.1820  141.9320 O   0  0  0  0  0  1  0  0  0  0  0  0
  184.1320  178.5650  143.1150 C   0  0  0  0  0  2  0  0  0  0  0  0
  193.4580  176.5650  138.2910 C   0  0  0  0  0  2  0  0  0  0  0  0
  194.7540  174.3660  138.6420 C   0  0  0  0  0  3  0  0  0  0  0  0
  193.8180  175.1920  137.8340 C   0  0  0  0  0  0  0  0  0  0  0  0
  193.2950  174.7210  136.6920 C   0  0  0  0  0  3  0  0  0  0  0  0
  193.2220  172.9760  135.0920 O   0  0  0  0  0  0  0  0  0  0  0  0
  193.6730  173.3820  136.1950 C   0  0  0  0  0  0  0  0  0  0  0  0
  194.6140  172.5600  136.9850 C   0  0  0  0  0  0  0  0  0  0  0  0
  195.1290  173.1310  138.2470 C   0  0  0  0  0  3  0  0  0  0  0  0
  194.9430  171.3680  136.5660 N   0  0  0  0  0  0  0  0  0  0  0  0
  195.3500  169.7410  138.6010 O   0  0  0  0  0  0  0  0  0  0  0  0
  196.3480  168.8650  136.2520 C   0  0  0  0  0  1  0  0  0  0  0  0
  197.3210  170.9020  137.7300 O   0  0  0  0  0  0  0  0  0  0  0  0
  196.0190  170.2480  137.3500 S   0  0  0  0  0  0  0  0  0  0  0  0
  1  2  1  0  0  0  0
  1  4  2  0  0  0  0
  2  5  1  0  0  0  0
  3  7  1  0  0  0  0
  4  6  1  0  0  0  0
  5  3  2  0  0  0  0
  6  7  2  0  0  0  0
  7 31  1  0  0  0  0
  8 10  2  0  0  0  0
  9 13  1  0  0  0  0
  9 12  1  0  0  0  0
 10 11  1  0  0  0  0
 12 14  1  0  0  0  0
 14 15  1  0  0  0  0
 14  5  1  1  0  0  0
 15 11  2  0  0  0  0
 16 13  1  6  0  0  0
 16  8  1  0  0  0  0
 16 15  1  0  0  0  0
 17  8  1  0  0  0  0
 18 19  1  0  0  0  0
 18 17  1  0  0  0  0
 19 20  1  0  0  0  0
 21 20  1  0  0  0  0
 21 22  1  0  0  0  0
 22 23  1  1  0  0  0
 25 29  1  0  0  0  0
 26 30  2  0  0  0  0
 27 25  2  0  0  0  0
 27 26  1  0  0  0  0
 29 24  1  0  0  0  0
 29 28  2  0  0  0  0
 30 28  1  0  0  0  0
 30 22  1  0  0  0  0
 31 35  1  0  0  0  0
 31 32  1  1  0  0  0
 33 37  2  0  0  0  0
 35 34  1  0  0  0  0
 36 35  2  0  0  0  0
 37 34  1  0  0  0  0
 37 38  1  0  0  0  0
 38 39  1  0  0  0  0
 41 39  1  0  0  0  0
 41 40  1  1  0  0  0
 42 43  1  0  0  0  0
 43 41  1  0  0  0  0
 44  4  1  0  0  0  0
 46 44  1  0  0  0  0
 46 45  1  0  0  0  0
 47 46  2  0  0  0  0
 48 49  2  0  0  0  0
 49 47  1  0  0  0  0
 49 50  1  0  0  0  0
 50 51  1  0  0  0  0
 51 45  2  0  0  0  0
 52 50  2  0  0  0  0
 52 56  1  0  0  0  0
 54 56  1  0  0  0  0
 56 55  2  0  0  0  0
 56 53  2  0  0  0  0
M  END
>  <MODEL>
9

>  <REMARK>
 VINA RESULT:      -7.8      3.125      5.325
  Name = 
  17 active torsions:
  status: ('A' for Active; 'I' for Inactive)
    1  A    between atoms: C_5  and  C_43
    2  A    between atoms: C_7  and  N_32
    3  A    between atoms: C_7  and  C_52
    4  A    between atoms: C_9  and  C_34
    5  A    between atoms: C_9  and  C_48
    6  A    between atoms: C_17  and  C_33
    7  A    between atoms: C_17  and  C_46
    8  A    between atoms: C_18  and  C_55
    9  A    between atoms: C_25  and  C_44
   10  A    between atoms: C_25  and  O_47
   11  A    between atoms: C_27  and  C_55
   12  A    between atoms: N_32  and  C_44
   13  A    between atoms: C_34  and  O_51
   14  A    between atoms: S_35  and  N_56
   15  A    between atoms: C_38  and  C_39
   16  A    between atoms: C_43  and  O_47
   17  A    between atoms: O_51  and  C_53
                            x       y       z     vdW  Elec       q    Type
                         _______ _______ _______ _____ _____    ______ ____

>  <TORSDO>
F 17

$$$$
