=
 OpenBabel10232408323D

 45 48  0  0  1  0  0  0  0  0999 V2000
  188.8240  177.4810  138.5390 C   0  0  1  0  0  3  0  0  0  0  0  0
  189.3600  177.9380  139.8920 C   0  0  0  0  0  2  0  0  0  0  0  0
  191.6150  177.1930  142.5840 C   0  0  0  0  0  3  0  0  0  0  0  0
  191.1880  177.2890  141.3520 C   0  0  0  0  0  0  0  0  0  0  0  0
  190.7320  177.4020  140.1340 C   0  0  0  0  0  3  0  0  0  0  0  0
  190.8940  176.9320  146.2250 C   0  0  0  0  0  3  0  0  0  0  0  0
  188.4730  177.2630  145.8970 C   0  0  0  0  0  0  0  0  0  0  0  0
  187.4120  177.0600  146.7160 F   0  0  0  0  0  0  0  0  0  0  0  0
  188.3220  177.0320  144.5920 C   0  0  0  0  0  3  0  0  0  0  0  0
  191.3290  176.6090  145.0060 C   0  0  0  0  0  3  0  0  0  0  0  0
  189.6000  178.0740  147.8110 F   0  0  0  0  0  0  0  0  0  0  0  0
  189.7360  177.8410  146.4560 C   0  0  1  0  0  3  0  0  0  0  0  0
  189.3760  177.1720  143.5660 C   0  0  0  0  0  3  0  0  0  0  0  0
  190.7060  177.0340  143.7350 C   0  0  0  0  0  0  0  0  0  0  0  0
  187.7980  178.3940  138.0390 N   0  0  0  0  0  2  0  0  0  0  0  0
  185.4650  178.6970  138.6960 C   0  0  0  0  0  3  0  0  0  0  0  0
  185.9660  177.1740  136.8980 C   0  0  0  0  0  3  0  0  0  0  0  0
  184.1020  178.4170  138.5370 C   0  0  0  0  0  0  0  0  0  0  0  0
  186.4090  178.0810  137.8710 C   0  0  0  0  0  0  0  0  0  0  0  0
  183.7070  177.5130  137.5500 C   0  0  0  0  0  3  0  0  0  0  0  0
  184.6380  176.9130  136.7600 N   0  0  0  0  0  0  0  0  0  0  0  0
  183.1120  179.0330  139.3670 N   0  0  0  0  0  2  0  0  0  0  0  0
  182.1840  178.2840  140.2060 C   0  0  2  0  0  3  0  0  0  0  0  0
  180.7510  178.6860  139.8960 C   0  0  0  0  0  1  0  0  0  0  0  0
  184.0840  178.6820  143.4320 C   0  0  0  0  0  0  0  0  0  0  0  0
  183.0900  178.9310  144.3230 C   0  0  0  0  0  0  0  0  0  0  0  0
  185.2990  178.6900  144.0880 O   0  0  0  0  0  0  0  0  0  0  0  0
  182.4910  178.5130  141.6510 C   0  0  0  0  0  0  0  0  0  0  0  0
  181.4540  178.7700  142.5840 C   0  0  0  0  0  3  0  0  0  0  0  0
  181.7510  178.9860  143.9420 C   0  0  0  0  0  3  0  0  0  0  0  0
  183.8310  178.4640  142.0810 C   0  0  0  0  0  3  0  0  0  0  0  0
  183.6320  179.1040  145.5820 O   0  0  0  0  0  0  0  0  0  0  0  0
  185.0560  178.9610  145.4760 C   0  0  0  0  0  2  0  0  0  0  0  0
  189.9450  177.3140  137.5210 C   0  0  0  0  0  2  0  0  0  0  0  0
  189.6200  176.2050  136.5230 C   0  0  0  0  0  2  0  0  0  0  0  0
  190.8630  175.3970  136.1710 C   0  0  0  0  0  2  0  0  0  0  0  0
  191.4860  174.7860  137.4120 C   0  0  0  0  0  2  0  0  0  0  0  0
  192.9910  174.9850  137.3930 C   0  0  0  0  0  2  0  0  0  0  0  0
  193.6960  173.6460  137.2380 C   0  0  0  0  0  2  0  0  0  0  0  0
  196.5400  174.2290  139.5450 N   0  0  0  0  0  2  0  0  0  0  0  0
  194.7160  173.4760  138.2620 N   0  0  0  0  0  0  0  0  0  0  0  0
  195.5550  174.4210  138.5320 C   0  0  0  0  0  3  0  0  0  0  0  0
  197.4540  175.2390  139.8730 N   0  0  0  0  0  0  0  0  0  0  0  0
  198.4780  175.5680  139.0140 O   0  0  0  0  0  0  0  0  0  0  0  0
  197.3280  175.8580  140.9490 O   0  0  0  0  0  0  0  0  0  0  0  0
  1 34  1  6  0  0  0
  1  2  1  0  0  0  0
  2  5  1  0  0  0  0
  3 14  1  0  0  0  0
  4  3  2  0  0  0  0
  5  4  2  0  0  0  0
  6 12  1  0  0  0  0
  7 12  1  0  0  0  0
  7  8  1  0  0  0  0
  9  7  2  0  0  0  0
 10  6  2  0  0  0  0
 12 11  1  1  0  0  0
 13 14  2  0  0  0  0
 13  9  1  0  0  0  0
 14 10  1  0  0  0  0
 15  1  1  0  0  0  0
 17 19  1  0  0  0  0
 18 16  1  0  0  0  0
 18 22  1  0  0  0  0
 19 15  1  0  0  0  0
 19 16  2  0  0  0  0
 20 18  2  0  0  0  0
 21 17  2  0  0  0  0
 21 20  1  0  0  0  0
 22 23  1  0  0  0  0
 23 24  1  1  0  0  0
 23 28  1  0  0  0  0
 25 27  1  0  0  0  0
 25 26  1  0  0  0  0
 26 32  1  0  0  0  0
 27 33  1  0  0  0  0
 28 31  1  0  0  0  0
 28 29  2  0  0  0  0
 29 30  1  0  0  0  0
 30 26  2  0  0  0  0
 31 25  2  0  0  0  0
 33 32  1  0  0  0  0
 35 34  1  0  0  0  0
 36 35  1  0  0  0  0
 36 37  1  0  0  0  0
 38 37  1  0  0  0  0
 39 38  1  0  0  0  0
 39 41  1  0  0  0  0
 40 43  1  0  0  0  0
 41 42  2  0  0  0  0
 42 40  1  0  0  0  0
 43 45  2  0  0  0  0
 44 43  2  0  0  0  0
M  END
>  <MODEL>
1

>  <REMARK>
 VINA RESULT:      -8.7      0.000      0.000
  Name = 
  16 active torsions:
  status: ('A' for Active; 'I' for Inactive)
    1  A    between atoms: C_1  and  C_44
    2  A    between atoms: C_2  and  C_31
    3  A    between atoms: C_2  and  C_39
    4  A    between atoms: C_4  and  N_8
    5  A    between atoms: C_4  and  C_21
    6  A    between atoms: C_5  and  N_25
    7  A    between atoms: C_5  and  C_34
    8  A    between atoms: N_6  and  N_11
    9  A    between atoms: C_7  and  C_27
   10  A    between atoms: C_7  and  C_34
   11  A    between atoms: N_8  and  C_26
   12  A    between atoms: C_27  and  C_39
   13  A    between atoms: C_30  and  C_42
   14  A    between atoms: C_31  and  N_37
   15  A    between atoms: C_31  and  C_42
   16  A    between atoms: C_36  and  N_37
                            x       y       z     vdW  Elec       q    Type
                         _______ _______ _______ _____ _____    ______ ____

>  <TORSDO>
F 16

$$$$
=
 OpenBabel10232408323D

 45 48  0  0  1  0  0  0  0  0999 V2000
  189.7330  177.8930  138.4360 C   0  0  1  0  0  3  0  0  0  0  0  0
  188.6360  178.9070  138.1280 C   0  0  0  0  0  2  0  0  0  0  0  0
  185.6250  177.4770  136.7960 C   0  0  0  0  0  3  0  0  0  0  0  0
  186.8030  178.0450  136.7900 C   0  0  0  0  0  0  0  0  0  0  0  0
  187.9810  178.6070  136.8200 C   0  0  0  0  0  3  0  0  0  0  0  0
  183.8390  179.4490  139.3960 C   0  0  0  0  0  3  0  0  0  0  0  0
  182.2110  177.6470  139.8230 C   0  0  0  0  0  0  0  0  0  0  0  0
  181.3290  177.4440  140.8330 F   0  0  0  0  0  0  0  0  0  0  0  0
  182.8010  176.5850  139.2720 C   0  0  0  0  0  3  0  0  0  0  0  0
  184.8270  178.8260  138.7530 C   0  0  0  0  0  3  0  0  0  0  0  0
  181.6160  179.9310  139.9680 F   0  0  0  0  0  0  0  0  0  0  0  0
  182.4120  179.0310  139.2870 C   0  0  1  0  0  3  0  0  0  0  0  0
  183.8050  176.6250  138.1890 C   0  0  0  0  0  3  0  0  0  0  0  0
  184.6750  177.6180  137.9150 C   0  0  0  0  0  0  0  0  0  0  0  0
  189.3680  177.0450  139.5700 N   0  0  0  0  0  2  0  0  0  0  0  0
  189.2160  176.8170  141.9970 C   0  0  0  0  0  3  0  0  0  0  0  0
  191.3620  177.3100  141.0190 C   0  0  0  0  0  3  0  0  0  0  0  0
  189.8100  176.8110  143.2650 C   0  0  0  0  0  0  0  0  0  0  0  0
  189.9920  177.0610  140.8610 C   0  0  0  0  0  0  0  0  0  0  0  0
  191.1790  177.0580  143.3740 C   0  0  0  0  0  3  0  0  0  0  0  0
  191.9210  177.3030  142.2590 N   0  0  0  0  0  0  0  0  0  0  0  0
  189.0420  176.5650  144.4480 N   0  0  0  0  0  2  0  0  0  0  0  0
  188.8630  177.5450  145.5120 C   0  0  2  0  0  3  0  0  0  0  0  0
  189.3610  176.9850  146.8350 C   0  0  0  0  0  1  0  0  0  0  0  0
  185.3090  178.3690  144.5780 C   0  0  0  0  0  0  0  0  0  0  0  0
  184.7550  178.6630  145.7830 C   0  0  0  0  0  0  0  0  0  0  0  0
  184.3520  178.4980  143.5910 O   0  0  0  0  0  0  0  0  0  0  0  0
  187.4240  177.9380  145.6180 C   0  0  0  0  0  0  0  0  0  0  0  0
  186.8440  178.2480  146.8740 C   0  0  0  0  0  3  0  0  0  0  0  0
  185.4890  178.6150  146.9670 C   0  0  0  0  0  3  0  0  0  0  0  0
  186.6450  178.0020  144.4460 C   0  0  0  0  0  3  0  0  0  0  0  0
  183.4250  178.9940  145.6110 O   0  0  0  0  0  0  0  0  0  0  0  0
  183.1210  178.8960  144.2120 C   0  0  0  0  0  2  0  0  0  0  0  0
  190.0740  177.0490  137.2150 C   0  0  0  0  0  2  0  0  0  0  0  0
  190.0300  175.5600  137.5470 C   0  0  0  0  0  2  0  0  0  0  0  0
  191.3180  174.8620  137.1290 C   0  0  0  0  0  2  0  0  0  0  0  0
  192.5340  175.6780  137.5270 C   0  0  0  0  0  2  0  0  0  0  0  0
  193.8030  174.9820  137.0690 C   0  0  0  0  0  2  0  0  0  0  0  0
  193.8810  173.5850  137.6680 C   0  0  0  0  0  2  0  0  0  0  0  0
  197.1040  174.0750  139.4330 N   0  0  0  0  0  2  0  0  0  0  0  0
  195.1780  173.3580  138.2870 N   0  0  0  0  0  0  0  0  0  0  0  0
  195.8390  174.3280  138.8280 C   0  0  0  0  0  3  0  0  0  0  0  0
  197.8390  175.1020  140.0410 N   0  0  0  0  0  0  0  0  0  0  0  0
  197.9610  175.1630  141.4110 O   0  0  0  0  0  0  0  0  0  0  0  0
  198.4030  175.9600  139.3320 O   0  0  0  0  0  0  0  0  0  0  0  0
  1 34  1  6  0  0  0
  1 15  1  0  0  0  0
  2  1  1  0  0  0  0
  3 14  1  0  0  0  0
  4  3  2  0  0  0  0
  4  5  2  0  0  0  0
  5  2  1  0  0  0  0
  7  8  1  0  0  0  0
  9  7  2  0  0  0  0
 10  6  2  0  0  0  0
 12  6  1  0  0  0  0
 12  7  1  0  0  0  0
 12 11  1  1  0  0  0
 13  9  1  0  0  0  0
 14 13  2  0  0  0  0
 14 10  1  0  0  0  0
 15 19  1  0  0  0  0
 16 18  1  0  0  0  0
 17 21  2  0  0  0  0
 18 20  2  0  0  0  0
 18 22  1  0  0  0  0
 19 17  1  0  0  0  0
 19 16  2  0  0  0  0
 21 20  1  0  0  0  0
 22 23  1  0  0  0  0
 23 28  1  0  0  0  0
 23 24  1  1  0  0  0
 25 26  1  0  0  0  0
 26 30  2  0  0  0  0
 27 33  1  0  0  0  0
 27 25  1  0  0  0  0
 28 29  2  0  0  0  0
 29 30  1  0  0  0  0
 31 25  2  0  0  0  0
 31 28  1  0  0  0  0
 32 26  1  0  0  0  0
 33 32  1  0  0  0  0
 34 35  1  0  0  0  0
 36 37  1  0  0  0  0
 36 35  1  0  0  0  0
 38 37  1  0  0  0  0
 38 39  1  0  0  0  0
 39 41  1  0  0  0  0
 40 43  1  0  0  0  0
 41 42  2  0  0  0  0
 42 40  1  0  0  0  0
 43 44  2  0  0  0  0
 45 43  2  0  0  0  0
M  END
>  <MODEL>
2

>  <REMARK>
 VINA RESULT:      -8.6      2.657      6.064
  Name = 
  16 active torsions:
  status: ('A' for Active; 'I' for Inactive)
    1  A    between atoms: C_1  and  C_44
    2  A    between atoms: C_2  and  C_31
    3  A    between atoms: C_2  and  C_39
    4  A    between atoms: C_4  and  N_8
    5  A    between atoms: C_4  and  C_21
    6  A    between atoms: C_5  and  N_25
    7  A    between atoms: C_5  and  C_34
    8  A    between atoms: N_6  and  N_11
    9  A    between atoms: C_7  and  C_27
   10  A    between atoms: C_7  and  C_34
   11  A    between atoms: N_8  and  C_26
   12  A    between atoms: C_27  and  C_39
   13  A    between atoms: C_30  and  C_42
   14  A    between atoms: C_31  and  N_37
   15  A    between atoms: C_31  and  C_42
   16  A    between atoms: C_36  and  N_37
                            x       y       z     vdW  Elec       q    Type
                         _______ _______ _______ _____ _____    ______ ____

>  <TORSDO>
F 16

$$$$
=
 OpenBabel10232408323D

 45 48  0  0  1  0  0  0  0  0999 V2000
  187.1710  177.9330  137.1360 C   0  0  1  0  0  3  0  0  0  0  0  0
  186.9790  176.4310  137.3210 C   0  0  0  0  0  2  0  0  0  0  0  0
  189.5590  175.2490  135.1230 C   0  0  0  0  0  3  0  0  0  0  0  0
  188.3460  175.4670  135.5620 C   0  0  0  0  0  0  0  0  0  0  0  0
  187.1500  175.7060  136.0270 C   0  0  0  0  0  3  0  0  0  0  0  0
  192.8090  173.7750  136.1740 C   0  0  0  0  0  3  0  0  0  0  0  0
  193.2770  175.6140  137.7480 C   0  0  0  0  0  0  0  0  0  0  0  0
  194.1760  175.7380  138.7550 F   0  0  0  0  0  0  0  0  0  0  0  0
  192.0800  176.1860  137.8910 C   0  0  0  0  0  3  0  0  0  0  0  0
  191.5000  173.8910  135.9440 C   0  0  0  0  0  3  0  0  0  0  0  0
  194.9990  174.5240  136.5490 F   0  0  0  0  0  0  0  0  0  0  0  0
  193.6850  174.9430  136.4730 C   0  0  1  0  0  3  0  0  0  0  0  0
  190.9750  176.1260  136.9120 C   0  0  0  0  0  3  0  0  0  0  0  0
  190.7270  175.1490  136.0170 C   0  0  0  0  0  0  0  0  0  0  0  0
  185.9560  178.6690  137.4810 N   0  0  0  0  0  2  0  0  0  0  0  0
  185.3670  178.8650  139.8440 C   0  0  0  0  0  3  0  0  0  0  0  0
  183.9250  177.5840  138.4000 C   0  0  0  0  0  3  0  0  0  0  0  0
  184.5100  178.5940  140.9180 C   0  0  0  0  0  0  0  0  0  0  0  0
  185.0760  178.3650  138.5720 C   0  0  0  0  0  0  0  0  0  0  0  0
  183.3730  177.8160  140.6990 C   0  0  0  0  0  3  0  0  0  0  0  0
  183.1070  177.3280  139.4570 N   0  0  0  0  0  0  0  0  0  0  0  0
  184.7820  179.0910  142.2330 N   0  0  0  0  0  2  0  0  0  0  0  0
  184.3090  178.4470  143.4520 C   0  0  2  0  0  3  0  0  0  0  0  0
  183.2650  179.3150  144.1360 C   0  0  0  0  0  1  0  0  0  0  0  0
  186.4650  178.3800  146.5390 C   0  0  0  0  0  0  0  0  0  0  0  0
  187.5610  177.7010  146.1090 C   0  0  0  0  0  0  0  0  0  0  0  0
  186.6300  178.7230  147.8660 O   0  0  0  0  0  0  0  0  0  0  0  0
  185.4540  178.1800  144.3760 C   0  0  0  0  0  0  0  0  0  0  0  0
  186.6000  177.4750  143.9290 C   0  0  0  0  0  3  0  0  0  0  0  0
  187.6740  177.2260  144.8040 C   0  0  0  0  0  3  0  0  0  0  0  0
  185.3840  178.6450  145.7030 C   0  0  0  0  0  3  0  0  0  0  0  0
  188.4680  177.5890  147.1450 O   0  0  0  0  0  0  0  0  0  0  0  0
  187.9060  178.2300  148.2990 C   0  0  0  0  0  2  0  0  0  0  0  0
  188.3620  178.4470  137.9350 C   0  0  0  0  0  2  0  0  0  0  0  0
  188.6660  177.5310  139.1180 C   0  0  0  0  0  2  0  0  0  0  0  0
  188.7470  178.3180  140.4200 C   0  0  0  0  0  2  0  0  0  0  0  0
  189.2370  177.4420  141.5570 C   0  0  0  0  0  2  0  0  0  0  0  0
  190.5580  176.7920  141.1850 C   0  0  0  0  0  2  0  0  0  0  0  0
  191.6720  177.3180  142.0780 C   0  0  0  0  0  2  0  0  0  0  0  0
  191.2990  177.0400  145.7560 N   0  0  0  0  0  2  0  0  0  0  0  0
  191.2060  177.4820  143.4470 N   0  0  0  0  0  0  0  0  0  0  0  0
  191.7730  176.8550  144.4250 C   0  0  0  0  0  3  0  0  0  0  0  0
  191.9010  176.3880  146.8400 N   0  0  0  0  0  0  0  0  0  0  0  0
  191.9860  177.0000  148.0710 O   0  0  0  0  0  0  0  0  0  0  0  0
  192.3500  175.2330  146.6930 O   0  0  0  0  0  0  0  0  0  0  0  0
  1  2  1  1  0  0  0
  1 15  1  0  0  0  0
  1 34  1  0  0  0  0
  3  4  2  0  0  0  0
  3 14  1  0  0  0  0
  4  5  2  0  0  0  0
  5  2  1  0  0  0  0
  6 12  1  0  0  0  0
  7  9  2  0  0  0  0
  7  8  1  0  0  0  0
 10 14  1  0  0  0  0
 10  6  2  0  0  0  0
 12 11  1  1  0  0  0
 12  7  1  0  0  0  0
 13  9  1  0  0  0  0
 14 13  2  0  0  0  0
 15 19  1  0  0  0  0
 16 18  1  0  0  0  0
 17 19  1  0  0  0  0
 17 21  2  0  0  0  0
 18 22  1  0  0  0  0
 19 16  2  0  0  0  0
 20 18  2  0  0  0  0
 21 20  1  0  0  0  0
 22 23  1  0  0  0  0
 23 24  1  1  0  0  0
 23 28  1  0  0  0  0
 25 27  1  0  0  0  0
 26 25  1  0  0  0  0
 26 32  1  0  0  0  0
 27 33  1  0  0  0  0
 28 31  1  0  0  0  0
 29 28  2  0  0  0  0
 29 30  1  0  0  0  0
 30 26  2  0  0  0  0
 31 25  2  0  0  0  0
 32 33  1  0  0  0  0
 34 35  1  0  0  0  0
 35 36  1  0  0  0  0
 36 37  1  0  0  0  0
 38 37  1  0  0  0  0
 38 39  1  0  0  0  0
 39 41  1  0  0  0  0
 40 43  1  0  0  0  0
 41 42  2  0  0  0  0
 42 40  1  0  0  0  0
 43 44  2  0  0  0  0
 45 43  2  0  0  0  0
M  END
>  <MODEL>
3

>  <REMARK>
 VINA RESULT:      -8.5      3.943      6.516
  Name = 
  16 active torsions:
  status: ('A' for Active; 'I' for Inactive)
    1  A    between atoms: C_1  and  C_44
    2  A    between atoms: C_2  and  C_31
    3  A    between atoms: C_2  and  C_39
    4  A    between atoms: C_4  and  N_8
    5  A    between atoms: C_4  and  C_21
    6  A    between atoms: C_5  and  N_25
    7  A    between atoms: C_5  and  C_34
    8  A    between atoms: N_6  and  N_11
    9  A    between atoms: C_7  and  C_27
   10  A    between atoms: C_7  and  C_34
   11  A    between atoms: N_8  and  C_26
   12  A    between atoms: C_27  and  C_39
   13  A    between atoms: C_30  and  C_42
   14  A    between atoms: C_31  and  N_37
   15  A    between atoms: C_31  and  C_42
   16  A    between atoms: C_36  and  N_37
                            x       y       z     vdW  Elec       q    Type
                         _______ _______ _______ _____ _____    ______ ____

>  <TORSDO>
F 16

$$$$
=
 OpenBabel10232408323D

 45 48  0  0  1  0  0  0  0  0999 V2000
  184.6780  178.9620  141.5290 C   0  0  1  0  0  3  0  0  0  0  0  0
  184.9310  178.2780  142.8690 C   0  0  0  0  0  2  0  0  0  0  0  0
  185.4380  178.7190  146.3950 C   0  0  0  0  0  3  0  0  0  0  0  0
  184.9470  178.9430  145.2030 C   0  0  0  0  0  0  0  0  0  0  0  0
  184.4730  179.1350  144.0020 C   0  0  0  0  0  3  0  0  0  0  0  0
  188.5720  177.0990  145.2150 C   0  0  0  0  0  3  0  0  0  0  0  0
  189.7050  177.4270  147.3800 C   0  0  0  0  0  0  0  0  0  0  0  0
  190.8360  176.8910  147.9010 F   0  0  0  0  0  0  0  0  0  0  0  0
  188.6880  177.6890  148.2040 C   0  0  0  0  0  3  0  0  0  0  0  0
  187.2830  177.2700  145.5120 C   0  0  0  0  0  3  0  0  0  0  0  0
  190.8760  177.5190  145.3290 F   0  0  0  0  0  0  0  0  0  0  0  0
  189.6690  177.8100  145.9330 C   0  0  1  0  0  3  0  0  0  0  0  0
  187.3780  178.2430  147.8030 C   0  0  0  0  0  3  0  0  0  0  0  0
  186.7620  178.1080  146.6120 C   0  0  0  0  0  0  0  0  0  0  0  0
  185.9260  179.4260  140.9260 N   0  0  0  0  0  2  0  0  0  0  0  0
  187.4170  178.0640  139.5520 C   0  0  0  0  0  3  0  0  0  0  0  0
  188.0190  178.4710  141.8500 C   0  0  0  0  0  3  0  0  0  0  0  0
  188.5920  177.3190  139.3900 C   0  0  0  0  0  0  0  0  0  0  0  0
  187.1250  178.6530  140.7860 C   0  0  0  0  0  0  0  0  0  0  0  0
  189.4560  177.1710  140.4760 C   0  0  0  0  0  3  0  0  0  0  0  0
  189.1530  177.7410  141.6740 N   0  0  0  0  0  0  0  0  0  0  0  0
  188.9200  176.7050  138.1400 N   0  0  0  0  0  2  0  0  0  0  0  0
  189.9800  177.1810  137.2600 C   0  0  2  0  0  3  0  0  0  0  0  0
  189.4400  177.4050  135.8560 C   0  0  0  0  0  1  0  0  0  0  0  0
  193.3070  175.5550  137.9450 C   0  0  0  0  0  0  0  0  0  0  0  0
  193.2270  174.4150  137.2100 C   0  0  0  0  0  0  0  0  0  0  0  0
  194.5260  175.5990  138.5900 O   0  0  0  0  0  0  0  0  0  0  0  0
  191.1120  176.2050  137.2360 C   0  0  0  0  0  0  0  0  0  0  0  0
  191.0320  175.0170  136.4670 C   0  0  0  0  0  3  0  0  0  0  0  0
  192.1010  174.1010  136.4500 C   0  0  0  0  0  3  0  0  0  0  0  0
  192.2700  176.4840  137.9870 C   0  0  0  0  0  3  0  0  0  0  0  0
  194.3940  173.6910  137.3550 O   0  0  0  0  0  0  0  0  0  0  0  0
  195.2590  174.4150  138.2410 C   0  0  0  0  0  2  0  0  0  0  0  0
  183.9190  178.0520  140.5720 C   0  0  0  0  0  2  0  0  0  0  0  0
  182.4230  178.0570  140.8790 C   0  0  0  0  0  2  0  0  0  0  0  0
  181.6140  177.5410  139.6960 C   0  0  0  0  0  2  0  0  0  0  0  0
  181.8370  176.0540  139.4900 C   0  0  0  0  0  2  0  0  0  0  0  0
  181.1230  175.5880  138.2340 C   0  0  0  0  0  2  0  0  0  0  0  0
  181.8900  174.4440  137.5870 C   0  0  0  0  0  2  0  0  0  0  0  0
  185.5370  174.8340  137.0450 N   0  0  0  0  0  2  0  0  0  0  0  0
  183.3220  174.5930  137.8020 N   0  0  0  0  0  0  0  0  0  0  0  0
  184.1400  174.6810  136.8050 C   0  0  0  0  0  3  0  0  0  0  0  0
  186.4490  174.9480  135.9880 N   0  0  0  0  0  0  0  0  0  0  0  0
  187.6830  174.3390  136.0540 O   0  0  0  0  0  0  0  0  0  0  0  0
  186.1340  175.5940  134.9680 O   0  0  0  0  0  0  0  0  0  0  0  0
  1 34  1  6  0  0  0
  1  2  1  0  0  0  0
  2  5  1  0  0  0  0
  3 14  1  0  0  0  0
  4  3  2  0  0  0  0
  5  4  2  0  0  0  0
  6 10  2  0  0  0  0
  6 12  1  0  0  0  0
  7  8  1  0  0  0  0
  7  9  2  0  0  0  0
 10 14  1  0  0  0  0
 12 11  1  6  0  0  0
 12  7  1  0  0  0  0
 13  9  1  0  0  0  0
 14 13  2  0  0  0  0
 15  1  1  0  0  0  0
 16 19  1  0  0  0  0
 18 16  2  0  0  0  0
 18 20  1  0  0  0  0
 19 15  1  0  0  0  0
 19 17  2  0  0  0  0
 20 21  2  0  0  0  0
 21 17  1  0  0  0  0
 22 18  1  0  0  0  0
 23 24  1  6  0  0  0
 23 22  1  0  0  0  0
 25 31  1  0  0  0  0
 25 27  1  0  0  0  0
 26 32  1  0  0  0  0
 26 25  2  0  0  0  0
 28 23  1  0  0  0  0
 28 31  2  0  0  0  0
 29 28  1  0  0  0  0
 30 29  2  0  0  0  0
 30 26  1  0  0  0  0
 32 33  1  0  0  0  0
 33 27  1  0  0  0  0
 34 35  1  0  0  0  0
 36 35  1  0  0  0  0
 37 36  1  0  0  0  0
 38 37  1  0  0  0  0
 39 41  1  0  0  0  0
 39 38  1  0  0  0  0
 42 40  1  0  0  0  0
 42 41  2  0  0  0  0
 43 44  2  0  0  0  0
 43 40  1  0  0  0  0
 45 43  2  0  0  0  0
M  END
>  <MODEL>
4

>  <REMARK>
 VINA RESULT:      -8.2      3.536      8.772
  Name = 
  16 active torsions:
  status: ('A' for Active; 'I' for Inactive)
    1  A    between atoms: C_1  and  C_44
    2  A    between atoms: C_2  and  C_31
    3  A    between atoms: C_2  and  C_39
    4  A    between atoms: C_4  and  N_8
    5  A    between atoms: C_4  and  C_21
    6  A    between atoms: C_5  and  N_25
    7  A    between atoms: C_5  and  C_34
    8  A    between atoms: N_6  and  N_11
    9  A    between atoms: C_7  and  C_27
   10  A    between atoms: C_7  and  C_34
   11  A    between atoms: N_8  and  C_26
   12  A    between atoms: C_27  and  C_39
   13  A    between atoms: C_30  and  C_42
   14  A    between atoms: C_31  and  N_37
   15  A    between atoms: C_31  and  C_42
   16  A    between atoms: C_36  and  N_37
                            x       y       z     vdW  Elec       q    Type
                         _______ _______ _______ _____ _____    ______ ____

>  <TORSDO>
F 16

$$$$
=
 OpenBabel10232408323D

 45 48  0  0  1  0  0  0  0  0999 V2000
  190.7560  177.7730  141.9950 C   0  0  1  0  0  3  0  0  0  0  0  0
  191.2200  178.3780  143.3170 C   0  0  0  0  0  2  0  0  0  0  0  0
  190.4140  176.9370  146.5040 C   0  0  0  0  0  3  0  0  0  0  0  0
  191.0630  177.1120  145.3820 C   0  0  0  0  0  0  0  0  0  0  0  0
  191.6900  177.3170  144.2560 C   0  0  0  0  0  3  0  0  0  0  0  0
  187.5550  178.4150  148.3700 C   0  0  0  0  0  3  0  0  0  0  0  0
  186.0720  178.3460  146.4020 C   0  0  0  0  0  0  0  0  0  0  0  0
  184.7290  178.4790  146.2750 F   0  0  0  0  0  0  0  0  0  0  0  0
  186.7070  177.5000  145.5890 C   0  0  0  0  0  3  0  0  0  0  0  0
  188.5420  177.5790  148.0430 C   0  0  0  0  0  3  0  0  0  0  0  0
  185.9370  180.0730  148.0110 F   0  0  0  0  0  0  0  0  0  0  0  0
  186.8130  179.2240  147.3620 C   0  0  1  0  0  3  0  0  0  0  0  0
  188.1560  177.2100  145.6090 C   0  0  0  0  0  3  0  0  0  0  0  0
  188.9890  177.2820  146.6660 C   0  0  0  0  0  0  0  0  0  0  0  0
  191.8930  177.4150  141.1480 N   0  0  0  0  0  2  0  0  0  0  0  0
  190.5880  177.1100  139.1060 C   0  0  0  0  0  3  0  0  0  0  0  0
  192.9720  176.7730  139.0110 C   0  0  0  0  0  3  0  0  0  0  0  0
  190.5050  176.8180  137.7390 C   0  0  0  0  0  0  0  0  0  0  0  0
  191.8270  177.0960  139.7520 C   0  0  0  0  0  0  0  0  0  0  0  0
  191.6730  176.5080  137.0400 C   0  0  0  0  0  3  0  0  0  0  0  0
  192.8710  176.4890  137.6840 N   0  0  0  0  0  0  0  0  0  0  0  0
  189.2510  176.8240  137.0490 N   0  0  0  0  0  2  0  0  0  0  0  0
  188.3930  175.6520  136.9250 C   0  0  2  0  0  3  0  0  0  0  0  0
  188.5780  175.0040  135.5620 C   0  0  0  0  0  1  0  0  0  0  0  0
  184.6410  175.4390  137.1640 C   0  0  0  0  0  0  0  0  0  0  0  0
  184.3020  176.7070  137.5140 C   0  0  0  0  0  0  0  0  0  0  0  0
  183.4980  174.6710  137.0600 O   0  0  0  0  0  0  0  0  0  0  0  0
  186.9620  176.0310  137.1340 C   0  0  0  0  0  0  0  0  0  0  0  0
  186.6060  177.3550  137.4970 C   0  0  0  0  0  3  0  0  0  0  0  0
  185.2570  177.7060  137.6930 C   0  0  0  0  0  3  0  0  0  0  0  0
  185.9630  175.0540  136.9610 C   0  0  0  0  0  3  0  0  0  0  0  0
  182.9300  176.7980  137.6430 O   0  0  0  0  0  0  0  0  0  0  0  0
  182.3710  175.5060  137.3640 C   0  0  0  0  0  2  0  0  0  0  0  0
  189.8470  176.5720  142.2190 C   0  0  0  0  0  2  0  0  0  0  0  0
  188.3800  176.9950  142.2640 C   0  0  0  0  0  2  0  0  0  0  0  0
  188.1890  178.3900  141.6820 C   0  0  0  0  0  2  0  0  0  0  0  0
  186.8470  178.5110  140.9840 C   0  0  0  0  0  2  0  0  0  0  0  0
  185.8420  179.1860  141.9000 C   0  0  0  0  0  2  0  0  0  0  0  0
  184.8450  178.1650  142.4290 C   0  0  0  0  0  2  0  0  0  0  0  0
  181.9040  179.1190  140.3830 N   0  0  0  0  0  2  0  0  0  0  0  0
  183.4930  178.4900  142.0020 N   0  0  0  0  0  0  0  0  0  0  0  0
  183.2390  178.8110  140.7760 C   0  0  0  0  0  3  0  0  0  0  0  0
  181.5930  179.4560  139.0600 N   0  0  0  0  0  0  0  0  0  0  0  0
  180.4600  178.9600  138.4550 O   0  0  0  0  0  0  0  0  0  0  0  0
  182.3430  180.2280  138.4280 O   0  0  0  0  0  0  0  0  0  0  0  0
  1 34  1  1  0  0  0
  1  2  1  0  0  0  0
  2  5  1  0  0  0  0
  3 14  1  0  0  0  0
  4  3  2  0  0  0  0
  5  4  2  0  0  0  0
  7 12  1  0  0  0  0
  8  7  1  0  0  0  0
  9 13  1  0  0  0  0
  9  7  2  0  0  0  0
 10  6  2  0  0  0  0
 12 11  1  1  0  0  0
 12  6  1  0  0  0  0
 13 14  2  0  0  0  0
 14 10  1  0  0  0  0
 15  1  1  0  0  0  0
 16 19  1  0  0  0  0
 17 19  2  0  0  0  0
 18 16  2  0  0  0  0
 19 15  1  0  0  0  0
 20 21  2  0  0  0  0
 20 18  1  0  0  0  0
 21 17  1  0  0  0  0
 22 18  1  0  0  0  0
 23 24  1  6  0  0  0
 23 22  1  0  0  0  0
 23 28  1  0  0  0  0
 25 26  1  0  0  0  0
 26 32  1  0  0  0  0
 26 30  2  0  0  0  0
 27 25  1  0  0  0  0
 27 33  1  0  0  0  0
 28 29  2  0  0  0  0
 29 30  1  0  0  0  0
 31 28  1  0  0  0  0
 31 25  2  0  0  0  0
 33 32  1  0  0  0  0
 34 35  1  0  0  0  0
 36 35  1  0  0  0  0
 37 36  1  0  0  0  0
 37 38  1  0  0  0  0
 38 39  1  0  0  0  0
 40 42  1  0  0  0  0
 41 39  1  0  0  0  0
 42 41  2  0  0  0  0
 43 40  1  0  0  0  0
 44 43  2  0  0  0  0
 45 43  2  0  0  0  0
M  END
>  <MODEL>
5

>  <REMARK>
 VINA RESULT:      -8.2      4.095      8.205
  Name = 
  16 active torsions:
  status: ('A' for Active; 'I' for Inactive)
    1  A    between atoms: C_1  and  C_44
    2  A    between atoms: C_2  and  C_31
    3  A    between atoms: C_2  and  C_39
    4  A    between atoms: C_4  and  N_8
    5  A    between atoms: C_4  and  C_21
    6  A    between atoms: C_5  and  N_25
    7  A    between atoms: C_5  and  C_34
    8  A    between atoms: N_6  and  N_11
    9  A    between atoms: C_7  and  C_27
   10  A    between atoms: C_7  and  C_34
   11  A    between atoms: N_8  and  C_26
   12  A    between atoms: C_27  and  C_39
   13  A    between atoms: C_30  and  C_42
   14  A    between atoms: C_31  and  N_37
   15  A    between atoms: C_31  and  C_42
   16  A    between atoms: C_36  and  N_37
                            x       y       z     vdW  Elec       q    Type
                         _______ _______ _______ _____ _____    ______ ____

>  <TORSDO>
F 16

$$$$
=
 OpenBabel10232408323D

 45 48  0  0  1  0  0  0  0  0999 V2000
  184.4490  179.4060  143.2680 C   0  0  1  0  0  3  0  0  0  0  0  0
  184.9030  178.4150  144.3360 C   0  0  0  0  0  2  0  0  0  0  0  0
  187.0830  178.3210  147.1860 C   0  0  0  0  0  3  0  0  0  0  0  0
  186.0990  178.7250  146.4250 C   0  0  0  0  0  0  0  0  0  0  0  0
  185.1230  179.1000  145.6440 C   0  0  0  0  0  3  0  0  0  0  0  0
  189.3640  177.3330  144.4190 C   0  0  0  0  0  3  0  0  0  0  0  0
  191.1750  176.7030  145.9690 C   0  0  0  0  0  0  0  0  0  0  0  0
  192.3140  175.9890  145.7890 F   0  0  0  0  0  0  0  0  0  0  0  0
  190.5370  176.5980  147.1350 C   0  0  0  0  0  3  0  0  0  0  0  0
  188.2860  177.3700  145.2030 C   0  0  0  0  0  3  0  0  0  0  0  0
  191.6160  177.6490  143.8470 F   0  0  0  0  0  0  0  0  0  0  0  0
  190.7330  177.6640  144.9090 C   0  0  1  0  0  3  0  0  0  0  0  0
  189.2730  177.2790  147.4880 C   0  0  0  0  0  3  0  0  0  0  0  0
  188.2910  177.6660  146.6510 C   0  0  0  0  0  0  0  0  0  0  0  0
  185.5350  179.7200  142.3410 N   0  0  0  0  0  2  0  0  0  0  0  0
  186.8580  178.4210  140.7510 C   0  0  0  0  0  3  0  0  0  0  0  0
  184.7460  179.3240  140.0240 C   0  0  0  0  0  3  0  0  0  0  0  0
  187.0350  177.8500  139.4840 C   0  0  0  0  0  0  0  0  0  0  0  0
  185.7050  179.1590  141.0320 C   0  0  0  0  0  0  0  0  0  0  0  0
  186.0500  178.0360  138.5130 C   0  0  0  0  0  3  0  0  0  0  0  0
  184.9370  178.7650  138.7990 N   0  0  0  0  0  0  0  0  0  0  0  0
  188.2050  177.0890  139.1650 N   0  0  0  0  0  2  0  0  0  0  0  0
  189.5080  177.6870  138.8980 C   0  0  2  0  0  3  0  0  0  0  0  0
  189.3650  178.8530  137.9330 C   0  0  0  0  0  1  0  0  0  0  0  0
  192.6790  175.9070  137.9220 C   0  0  0  0  0  0  0  0  0  0  0  0
  192.2060  174.7800  137.3290 C   0  0  0  0  0  0  0  0  0  0  0  0
  194.0600  175.8900  137.9030 O   0  0  0  0  0  0  0  0  0  0  0  0
  190.4450  176.6620  138.3450 C   0  0  0  0  0  0  0  0  0  0  0  0
  189.9540  175.4860  137.7230 C   0  0  0  0  0  3  0  0  0  0  0  0
  190.8420  174.5250  137.2060 C   0  0  0  0  0  3  0  0  0  0  0  0
  191.8320  176.8800  138.4450 C   0  0  0  0  0  3  0  0  0  0  0  0
  193.2670  174.0030  136.9060 O   0  0  0  0  0  0  0  0  0  0  0  0
  194.4820  174.6790  137.2590 C   0  0  0  0  0  2  0  0  0  0  0  0
  183.2250  178.8970  142.5180 C   0  0  0  0  0  2  0  0  0  0  0  0
  182.0060  178.8340  143.4360 C   0  0  0  0  0  2  0  0  0  0  0  0
  180.7150  179.0520  142.6560 C   0  0  0  0  0  2  0  0  0  0  0  0
  180.8310  178.5010  141.2460 C   0  0  0  0  0  2  0  0  0  0  0  0
  180.2130  179.4710  140.2550 C   0  0  0  0  0  2  0  0  0  0  0  0
  181.2940  180.0860  139.3780 C   0  0  0  0  0  2  0  0  0  0  0  0
  180.7040  182.9860  137.1450 N   0  0  0  0  0  2  0  0  0  0  0  0
  180.7140  180.9980  138.4030 N   0  0  0  0  0  0  0  0  0  0  0  0
  181.2910  182.1160  138.1090 C   0  0  0  0  0  3  0  0  0  0  0  0
  181.3120  184.1980  136.7920 N   0  0  0  0  0  0  0  0  0  0  0  0
  182.2590  184.7750  137.6080 O   0  0  0  0  0  0  0  0  0  0  0  0
  181.0030  184.7520  135.7180 O   0  0  0  0  0  0  0  0  0  0  0  0
  1 34  1  6  0  0  0
  1  2  1  0  0  0  0
  2  5  1  0  0  0  0
  4  3  2  0  0  0  0
  5  4  2  0  0  0  0
  6 12  1  0  0  0  0
  6 10  2  0  0  0  0
  7  9  2  0  0  0  0
  8  7  1  0  0  0  0
  9 13  1  0  0  0  0
 10 14  1  0  0  0  0
 12 11  1  6  0  0  0
 12  7  1  0  0  0  0
 14  3  1  0  0  0  0
 14 13  2  0  0  0  0
 15  1  1  0  0  0  0
 16 19  1  0  0  0  0
 17 19  2  0  0  0  0
 18 16  2  0  0  0  0
 19 15  1  0  0  0  0
 20 21  2  0  0  0  0
 20 18  1  0  0  0  0
 21 17  1  0  0  0  0
 22 18  1  0  0  0  0
 23 24  1  6  0  0  0
 23 22  1  0  0  0  0
 25 31  1  0  0  0  0
 26 25  2  0  0  0  0
 27 25  1  0  0  0  0
 28 31  2  0  0  0  0
 28 23  1  0  0  0  0
 29 28  1  0  0  0  0
 30 26  1  0  0  0  0
 30 29  2  0  0  0  0
 32 33  1  0  0  0  0
 32 26  1  0  0  0  0
 33 27  1  0  0  0  0
 34 35  1  0  0  0  0
 36 35  1  0  0  0  0
 37 36  1  0  0  0  0
 38 37  1  0  0  0  0
 39 38  1  0  0  0  0
 40 42  1  0  0  0  0
 41 39  1  0  0  0  0
 42 41  2  0  0  0  0
 43 40  1  0  0  0  0
 43 44  2  0  0  0  0
 45 43  2  0  0  0  0
M  END
>  <MODEL>
6

>  <REMARK>
 VINA RESULT:      -8.1      3.555     10.079
  Name = 
  16 active torsions:
  status: ('A' for Active; 'I' for Inactive)
    1  A    between atoms: C_1  and  C_44
    2  A    between atoms: C_2  and  C_31
    3  A    between atoms: C_2  and  C_39
    4  A    between atoms: C_4  and  N_8
    5  A    between atoms: C_4  and  C_21
    6  A    between atoms: C_5  and  N_25
    7  A    between atoms: C_5  and  C_34
    8  A    between atoms: N_6  and  N_11
    9  A    between atoms: C_7  and  C_27
   10  A    between atoms: C_7  and  C_34
   11  A    between atoms: N_8  and  C_26
   12  A    between atoms: C_27  and  C_39
   13  A    between atoms: C_30  and  C_42
   14  A    between atoms: C_31  and  N_37
   15  A    between atoms: C_31  and  C_42
   16  A    between atoms: C_36  and  N_37
                            x       y       z     vdW  Elec       q    Type
                         _______ _______ _______ _____ _____    ______ ____

>  <TORSDO>
F 16

$$$$
=
 OpenBabel10232408323D

 45 48  0  0  1  0  0  0  0  0999 V2000
  184.4090  179.0890  143.1100 C   0  0  1  0  0  3  0  0  0  0  0  0
  184.9320  178.1460  144.1900 C   0  0  0  0  0  2  0  0  0  0  0  0
  186.8750  178.1730  147.2080 C   0  0  0  0  0  3  0  0  0  0  0  0
  185.9300  178.5170  146.3710 C   0  0  0  0  0  0  0  0  0  0  0  0
  184.9980  178.8320  145.5140 C   0  0  0  0  0  3  0  0  0  0  0  0
  189.4040  177.3060  144.6210 C   0  0  0  0  0  3  0  0  0  0  0  0
  191.1550  176.8690  146.3010 C   0  0  0  0  0  0  0  0  0  0  0  0
  192.3570  176.2480  146.2150 F   0  0  0  0  0  0  0  0  0  0  0  0
  190.4530  176.7420  147.4270 C   0  0  0  0  0  3  0  0  0  0  0  0
  188.2780  177.2740  145.3340 C   0  0  0  0  0  3  0  0  0  0  0  0
  191.6550  177.7930  144.1820 F   0  0  0  0  0  0  0  0  0  0  0  0
  190.7060  177.7620  145.1860 C   0  0  1  0  0  3  0  0  0  0  0  0
  189.1180  177.3240  147.6790 C   0  0  0  0  0  3  0  0  0  0  0  0
  188.1640  177.6070  146.7700 C   0  0  0  0  0  0  0  0  0  0  0  0
  185.4970  179.5930  142.2730 N   0  0  0  0  0  2  0  0  0  0  0  0
  187.2090  178.7890  140.7270 C   0  0  0  0  0  3  0  0  0  0  0  0
  184.9210  178.8610  139.9760 C   0  0  0  0  0  3  0  0  0  0  0  0
  187.5880  178.2730  139.4810 C   0  0  0  0  0  0  0  0  0  0  0  0
  185.8670  179.0820  140.9860 C   0  0  0  0  0  0  0  0  0  0  0  0
  186.6100  178.0640  138.5090 C   0  0  0  0  0  3  0  0  0  0  0  0
  185.3090  178.3630  138.7710 N   0  0  0  0  0  0  0  0  0  0  0  0
  188.9540  177.9640  139.1870 N   0  0  0  0  0  2  0  0  0  0  0  0
  189.6660  176.8290  139.7610 C   0  0  2  0  0  3  0  0  0  0  0  0
  190.4340  177.2600  141.0000 C   0  0  0  0  0  1  0  0  0  0  0  0
  192.8040  175.9710  137.8640 C   0  0  0  0  0  0  0  0  0  0  0  0
  192.3360  175.1450  136.8920 C   0  0  0  0  0  0  0  0  0  0  0  0
  194.1700  176.1150  137.7250 O   0  0  0  0  0  0  0  0  0  0  0  0
  190.5930  176.2330  138.7510 C   0  0  0  0  0  0  0  0  0  0  0  0
  190.1070  175.3730  137.7340 C   0  0  0  0  0  3  0  0  0  0  0  0
  190.9860  174.8150  136.7880 C   0  0  0  0  0  3  0  0  0  0  0  0
  191.9660  176.5420  138.8180 C   0  0  0  0  0  3  0  0  0  0  0  0
  193.3850  174.7340  136.0940 O   0  0  0  0  0  0  0  0  0  0  0  0
  194.5880  175.3320  136.5970 C   0  0  0  0  0  2  0  0  0  0  0  0
  183.3340  178.4230  142.2600 C   0  0  0  0  0  2  0  0  0  0  0  0
  181.9530  178.9890  142.5800 C   0  0  0  0  0  2  0  0  0  0  0  0
  181.0200  178.8820  141.3800 C   0  0  0  0  0  2  0  0  0  0  0  0
  181.2600  177.5930  140.6160 C   0  0  0  0  0  2  0  0  0  0  0  0
  181.5010  177.8930  139.1480 C   0  0  0  0  0  2  0  0  0  0  0  0
  181.4830  176.6040  138.3380 C   0  0  0  0  0  2  0  0  0  0  0  0
  184.4850  174.5230  137.7070 N   0  0  0  0  0  2  0  0  0  0  0  0
  182.8350  176.1710  138.0230 N   0  0  0  0  0  0  0  0  0  0  0  0
  183.1530  174.9190  138.0260 C   0  0  0  0  0  3  0  0  0  0  0  0
  184.8590  173.1730  137.6870 N   0  0  0  0  0  0  0  0  0  0  0  0
  186.1280  172.7880  138.0570 O   0  0  0  0  0  0  0  0  0  0  0  0
  184.0270  172.3080  137.3460 O   0  0  0  0  0  0  0  0  0  0  0  0
  1 34  1  6  0  0  0
  1  2  1  0  0  0  0
  2  5  1  0  0  0  0
  4  3  2  0  0  0  0
  5  4  2  0  0  0  0
  6 12  1  0  0  0  0
  6 10  2  0  0  0  0
  7  9  2  0  0  0  0
  8  7  1  0  0  0  0
  9 13  1  0  0  0  0
 10 14  1  0  0  0  0
 12 11  1  6  0  0  0
 12  7  1  0  0  0  0
 14  3  1  0  0  0  0
 14 13  2  0  0  0  0
 15  1  1  0  0  0  0
 16 19  1  0  0  0  0
 17 19  2  0  0  0  0
 18 16  2  0  0  0  0
 19 15  1  0  0  0  0
 20 21  2  0  0  0  0
 20 18  1  0  0  0  0
 21 17  1  0  0  0  0
 22 18  1  0  0  0  0
 22 23  1  0  0  0  0
 23 24  1  1  0  0  0
 25 31  1  0  0  0  0
 26 25  2  0  0  0  0
 27 25  1  0  0  0  0
 28 31  2  0  0  0  0
 28 23  1  0  0  0  0
 29 28  1  0  0  0  0
 30 26  1  0  0  0  0
 30 29  2  0  0  0  0
 32 33  1  0  0  0  0
 32 26  1  0  0  0  0
 33 27  1  0  0  0  0
 34 35  1  0  0  0  0
 36 35  1  0  0  0  0
 37 36  1  0  0  0  0
 38 37  1  0  0  0  0
 39 38  1  0  0  0  0
 40 42  1  0  0  0  0
 41 42  2  0  0  0  0
 41 39  1  0  0  0  0
 43 40  1  0  0  0  0
 43 44  2  0  0  0  0
 45 43  2  0  0  0  0
M  END
>  <MODEL>
7

>  <REMARK>
 VINA RESULT:      -8.1      3.448      8.888
  Name = 
  16 active torsions:
  status: ('A' for Active; 'I' for Inactive)
    1  A    between atoms: C_1  and  C_44
    2  A    between atoms: C_2  and  C_31
    3  A    between atoms: C_2  and  C_39
    4  A    between atoms: C_4  and  N_8
    5  A    between atoms: C_4  and  C_21
    6  A    between atoms: C_5  and  N_25
    7  A    between atoms: C_5  and  C_34
    8  A    between atoms: N_6  and  N_11
    9  A    between atoms: C_7  and  C_27
   10  A    between atoms: C_7  and  C_34
   11  A    between atoms: N_8  and  C_26
   12  A    between atoms: C_27  and  C_39
   13  A    between atoms: C_30  and  C_42
   14  A    between atoms: C_31  and  N_37
   15  A    between atoms: C_31  and  C_42
   16  A    between atoms: C_36  and  N_37
                            x       y       z     vdW  Elec       q    Type
                         _______ _______ _______ _____ _____    ______ ____

>  <TORSDO>
F 16

$$$$
=
 OpenBabel10232408323D

 45 48  0  0  1  0  0  0  0  0999 V2000
  190.1340  177.7970  141.2860 C   0  0  1  0  0  3  0  0  0  0  0  0
  191.2390  177.9510  142.3270 C   0  0  0  0  0  2  0  0  0  0  0  0
  191.0940  176.3280  145.5240 C   0  0  0  0  0  3  0  0  0  0  0  0
  191.3280  176.4680  144.2450 C   0  0  0  0  0  0  0  0  0  0  0  0
  191.5540  176.6430  142.9720 C   0  0  0  0  0  3  0  0  0  0  0  0
  187.7830  178.0080  145.7680 C   0  0  0  0  0  3  0  0  0  0  0  0
  187.9410  178.2390  148.2170 C   0  0  0  0  0  0  0  0  0  0  0  0
  187.2370  178.9860  149.1040 F   0  0  0  0  0  0  0  0  0  0  0  0
  189.2390  178.0380  148.4460 C   0  0  0  0  0  3  0  0  0  0  0  0
  189.0410  177.7630  145.3990 C   0  0  0  0  0  3  0  0  0  0  0  0
  185.8760  177.8680  147.1250 F   0  0  0  0  0  0  0  0  0  0  0  0
  187.2260  177.5760  147.0810 C   0  0  1  0  0  3  0  0  0  0  0  0
  190.1590  177.2790  147.5730 C   0  0  0  0  0  3  0  0  0  0  0  0
  190.0660  177.1090  146.2390 C   0  0  0  0  0  0  0  0  0  0  0  0
  190.3310  176.5970  140.4760 N   0  0  0  0  0  2  0  0  0  0  0  0
  189.2370  176.8100  138.3020 C   0  0  0  0  0  3  0  0  0  0  0  0
  191.5850  176.2710  138.3620 C   0  0  0  0  0  3  0  0  0  0  0  0
  189.2820  176.7910  136.9020 C   0  0  0  0  0  0  0  0  0  0  0  0
  190.3940  176.5560  139.0440 C   0  0  0  0  0  0  0  0  0  0  0  0
  190.4920  176.5100  136.2670 C   0  0  0  0  0  3  0  0  0  0  0  0
  191.6080  176.2540  137.0020 N   0  0  0  0  0  0  0  0  0  0  0  0
  188.1150  177.0480  136.1150 N   0  0  0  0  0  2  0  0  0  0  0  0
  186.9780  176.1380  136.0380 C   0  0  2  0  0  3  0  0  0  0  0  0
  186.5860  175.9060  134.5870 C   0  0  0  0  0  1  0  0  0  0  0  0
  184.8860  178.3780  138.2250 C   0  0  0  0  0  0  0  0  0  0  0  0
  183.6980  177.7200  138.2570 C   0  0  0  0  0  0  0  0  0  0  0  0
  184.7920  179.5310  138.9780 O   0  0  0  0  0  0  0  0  0  0  0  0
  185.8220  176.6840  136.8120 C   0  0  0  0  0  0  0  0  0  0  0  0
  184.5820  175.9980  136.8510 C   0  0  0  0  0  3  0  0  0  0  0  0
  183.4980  176.5180  137.5810 C   0  0  0  0  0  3  0  0  0  0  0  0
  185.9810  177.8950  137.5130 C   0  0  0  0  0  3  0  0  0  0  0  0
  182.8020  178.4260  139.0360 O   0  0  0  0  0  0  0  0  0  0  0  0
  183.4640  179.6040  139.5180 C   0  0  0  0  0  2  0  0  0  0  0  0
  188.7540  177.7950  141.9330 C   0  0  0  0  0  2  0  0  0  0  0  0
  187.6870  178.2700  140.9510 C   0  0  0  0  0  2  0  0  0  0  0  0
  186.6410  179.1330  141.6460 C   0  0  0  0  0  2  0  0  0  0  0  0
  185.9910  178.3830  142.7930 C   0  0  0  0  0  2  0  0  0  0  0  0
  185.0600  179.3060  143.5600 C   0  0  0  0  0  2  0  0  0  0  0  0
  184.0800  178.4910  144.3910 C   0  0  0  0  0  2  0  0  0  0  0  0
  180.8780  179.4570  142.7900 N   0  0  0  0  0  2  0  0  0  0  0  0
  182.7130  178.9400  144.1690 N   0  0  0  0  0  0  0  0  0  0  0  0
  182.2220  179.0190  142.9770 C   0  0  0  0  0  3  0  0  0  0  0  0
  180.3100  179.5390  141.5120 N   0  0  0  0  0  0  0  0  0  0  0  0
  180.0020  178.3990  140.8040 O   0  0  0  0  0  0  0  0  0  0  0  0
  180.0650  180.6580  141.0170 O   0  0  0  0  0  0  0  0  0  0  0  0
  1 34  1  1  0  0  0
  1  2  1  0  0  0  0
  2  5  1  0  0  0  0
  3 14  1  0  0  0  0
  4  3  2  0  0  0  0
  5  4  2  0  0  0  0
  6 12  1  0  0  0  0
  7  9  2  0  0  0  0
  7  8  1  0  0  0  0
 10  6  2  0  0  0  0
 10 14  1  0  0  0  0
 12 11  1  6  0  0  0
 12  7  1  0  0  0  0
 13  9  1  0  0  0  0
 14 13  2  0  0  0  0
 15  1  1  0  0  0  0
 16 19  1  0  0  0  0
 17 19  2  0  0  0  0
 18 16  2  0  0  0  0
 19 15  1  0  0  0  0
 20 18  1  0  0  0  0
 20 21  2  0  0  0  0
 21 17  1  0  0  0  0
 22 18  1  0  0  0  0
 23 24  1  6  0  0  0
 23 22  1  0  0  0  0
 23 28  1  0  0  0  0
 25 26  1  0  0  0  0
 25 27  1  0  0  0  0
 26 32  1  0  0  0  0
 27 33  1  0  0  0  0
 28 29  2  0  0  0  0
 28 31  1  0  0  0  0
 29 30  1  0  0  0  0
 30 26  2  0  0  0  0
 31 25  2  0  0  0  0
 32 33  1  0  0  0  0
 35 36  1  0  0  0  0
 35 34  1  0  0  0  0
 36 37  1  0  0  0  0
 37 38  1  0  0  0  0
 38 39  1  0  0  0  0
 40 42  1  0  0  0  0
 41 39  1  0  0  0  0
 42 41  2  0  0  0  0
 43 40  1  0  0  0  0
 44 43  2  0  0  0  0
 45 43  2  0  0  0  0
M  END
>  <MODEL>
8

>  <REMARK>
 VINA RESULT:      -8.1      3.845      8.195
  Name = 
  16 active torsions:
  status: ('A' for Active; 'I' for Inactive)
    1  A    between atoms: C_1  and  C_44
    2  A    between atoms: C_2  and  C_31
    3  A    between atoms: C_2  and  C_39
    4  A    between atoms: C_4  and  N_8
    5  A    between atoms: C_4  and  C_21
    6  A    between atoms: C_5  and  N_25
    7  A    between atoms: C_5  and  C_34
    8  A    between atoms: N_6  and  N_11
    9  A    between atoms: C_7  and  C_27
   10  A    between atoms: C_7  and  C_34
   11  A    between atoms: N_8  and  C_26
   12  A    between atoms: C_27  and  C_39
   13  A    between atoms: C_30  and  C_42
   14  A    between atoms: C_31  and  N_37
   15  A    between atoms: C_31  and  C_42
   16  A    between atoms: C_36  and  N_37
                            x       y       z     vdW  Elec       q    Type
                         _______ _______ _______ _____ _____    ______ ____

>  <TORSDO>
F 16

$$$$
=
 OpenBabel10232408323D

 45 48  0  0  1  0  0  0  0  0999 V2000
  186.1130  178.0760  137.8630 C   0  0  1  0  0  3  0  0  0  0  0  0
  187.1220  178.7420  136.9320 C   0  0  0  0  0  2  0  0  0  0  0  0
  190.2870  177.1720  137.5640 C   0  0  0  0  0  3  0  0  0  0  0  0
  189.1700  177.4400  136.9390 C   0  0  0  0  0  0  0  0  0  0  0  0
  188.0490  177.7340  136.3380 C   0  0  0  0  0  3  0  0  0  0  0  0
  188.9840  177.3170  141.0450 C   0  0  0  0  0  3  0  0  0  0  0  0
  191.2390  177.1590  142.0290 C   0  0  0  0  0  0  0  0  0  0  0  0
  191.6990  177.3940  143.2830 F   0  0  0  0  0  0  0  0  0  0  0  0
  192.0290  177.4570  140.9970 C   0  0  0  0  0  3  0  0  0  0  0  0
  189.2230  177.6640  139.7800 C   0  0  0  0  0  3  0  0  0  0  0  0
  189.3490  176.1910  143.0690 F   0  0  0  0  0  0  0  0  0  0  0  0
  189.9200  176.4750  141.8440 C   0  0  1  0  0  3  0  0  0  0  0  0
  191.6780  177.2950  139.5700 C   0  0  0  0  0  3  0  0  0  0  0  0
  190.4480  177.3380  139.0200 C   0  0  0  0  0  0  0  0  0  0  0  0
  185.4270  179.0620  138.6950 N   0  0  0  0  0  2  0  0  0  0  0  0
  185.7390  178.7610  141.0980 C   0  0  0  0  0  3  0  0  0  0  0  0
  183.5040  178.6500  140.2050 C   0  0  0  0  0  3  0  0  0  0  0  0
  185.2230  178.5440  142.3820 C   0  0  0  0  0  0  0  0  0  0  0  0
  184.8800  178.8220  139.9980 C   0  0  0  0  0  0  0  0  0  0  0  0
  183.8450  178.3850  142.5410 C   0  0  0  0  0  3  0  0  0  0  0  0
  183.0220  178.4370  141.4590 N   0  0  0  0  0  0  0  0  0  0  0  0
  186.0770  178.4770  143.5290 N   0  0  0  0  0  2  0  0  0  0  0  0
  185.6120  178.1100  144.8610 C   0  0  2  0  0  3  0  0  0  0  0  0
  184.6430  179.1570  145.3880 C   0  0  0  0  0  1  0  0  0  0  0  0
  189.0470  177.3140  146.1820 C   0  0  0  0  0  0  0  0  0  0  0  0
  188.9380  177.6570  147.4920 C   0  0  0  0  0  0  0  0  0  0  0  0
  190.3230  176.8490  145.9350 O   0  0  0  0  0  0  0  0  0  0  0  0
  186.7710  177.9560  145.7910 C   0  0  0  0  0  0  0  0  0  0  0  0
  186.6600  178.3090  147.1600 C   0  0  0  0  0  3  0  0  0  0  0  0
  187.7560  178.1620  148.0300 C   0  0  0  0  0  3  0  0  0  0  0  0
  187.9850  177.4460  145.2910 C   0  0  0  0  0  3  0  0  0  0  0  0
  190.1390  177.4190  148.1310 O   0  0  0  0  0  0  0  0  0  0  0  0
  191.0630  176.9020  147.1630 C   0  0  0  0  0  2  0  0  0  0  0  0
  185.1130  177.2280  137.0880 C   0  0  0  0  0  2  0  0  0  0  0  0
  185.4920  175.7500  137.1350 C   0  0  0  0  0  2  0  0  0  0  0  0
  184.2920  174.8820  137.4910 C   0  0  0  0  0  2  0  0  0  0  0  0
  184.6390  173.4080  137.3970 C   0  0  0  0  0  2  0  0  0  0  0  0
  184.6800  172.9730  135.9430 C   0  0  0  0  0  2  0  0  0  0  0  0
  185.9300  172.1440  135.6790 C   0  0  0  0  0  2  0  0  0  0  0  0
  189.3070  173.6670  135.8270 N   0  0  0  0  0  2  0  0  0  0  0  0
  187.0810  173.0030  135.4470 N   0  0  0  0  0  0  0  0  0  0  0  0
  188.1930  172.8140  136.0790 C   0  0  0  0  0  3  0  0  0  0  0  0
  190.5300  173.4800  136.4840 N   0  0  0  0  0  0  0  0  0  0  0  0
  190.7620  174.0490  137.7170 O   0  0  0  0  0  0  0  0  0  0  0  0
  191.4130  172.7770  135.9540 O   0  0  0  0  0  0  0  0  0  0  0  0
  1  2  1  6  0  0  0
  1 15  1  0  0  0  0
  3 14  1  0  0  0  0
  4  3  2  0  0  0  0
  5  2  1  0  0  0  0
  5  4  2  0  0  0  0
  6 12  1  0  0  0  0
  7  8  1  0  0  0  0
  9  7  2  0  0  0  0
 10  6  2  0  0  0  0
 12  7  1  0  0  0  0
 12 11  1  1  0  0  0
 13  9  1  0  0  0  0
 14 13  2  0  0  0  0
 14 10  1  0  0  0  0
 15 19  1  0  0  0  0
 16 18  1  0  0  0  0
 17 21  2  0  0  0  0
 18 20  2  0  0  0  0
 18 22  1  0  0  0  0
 19 17  1  0  0  0  0
 19 16  2  0  0  0  0
 21 20  1  0  0  0  0
 22 23  1  0  0  0  0
 23 24  1  1  0  0  0
 23 28  1  0  0  0  0
 25 26  1  0  0  0  0
 26 30  2  0  0  0  0
 26 32  1  0  0  0  0
 27 25  1  0  0  0  0
 27 33  1  0  0  0  0
 28 29  2  0  0  0  0
 29 30  1  0  0  0  0
 31 28  1  0  0  0  0
 31 25  2  0  0  0  0
 33 32  1  0  0  0  0
 34 35  1  0  0  0  0
 34  1  1  0  0  0  0
 35 36  1  0  0  0  0
 37 36  1  0  0  0  0
 38 37  1  0  0  0  0
 39 38  1  0  0  0  0
 40 42  1  0  0  0  0
 40 43  1  0  0  0  0
 41 39  1  0  0  0  0
 41 42  2  0  0  0  0
 43 44  2  0  0  0  0
 45 43  2  0  0  0  0
M  END
>  <MODEL>
9

>  <REMARK>
 VINA RESULT:      -8.1      3.414      5.932
  Name = 
  16 active torsions:
  status: ('A' for Active; 'I' for Inactive)
    1  A    between atoms: C_1  and  C_44
    2  A    between atoms: C_2  and  C_31
    3  A    between atoms: C_2  and  C_39
    4  A    between atoms: C_4  and  N_8
    5  A    between atoms: C_4  and  C_21
    6  A    between atoms: C_5  and  N_25
    7  A    between atoms: C_5  and  C_34
    8  A    between atoms: N_6  and  N_11
    9  A    between atoms: C_7  and  C_27
   10  A    between atoms: C_7  and  C_34
   11  A    between atoms: N_8  and  C_26
   12  A    between atoms: C_27  and  C_39
   13  A    between atoms: C_30  and  C_42
   14  A    between atoms: C_31  and  N_37
   15  A    between atoms: C_31  and  C_42
   16  A    between atoms: C_36  and  N_37
                            x       y       z     vdW  Elec       q    Type
                         _______ _______ _______ _____ _____    ______ ____

>  <TORSDO>
F 16

$$$$
