=
 OpenBabel10232409453D

 25 28  0  0  1  0  0  0  0  0999 V2000
  191.2100  176.1000  146.2370 N   0  0  0  0  0  2  0  0  0  0  0  0
  191.7380  177.2300  145.5920 N   0  0  0  0  0  2  0  0  0  0  0  0
  188.7910  178.0430  146.1830 C   0  0  2  0  0  3  0  0  0  0  0  0
  190.9210  178.1440  144.8530 C   0  0  0  0  0  0  0  0  0  0  0  0
  191.6210  179.4100  144.1000 S   0  0  0  0  0  0  0  0  0  0  0  0
  189.4330  177.9940  144.7830 C   0  0  1  0  0  3  0  0  0  0  0  0
  188.9890  176.7570  146.9980 C   0  0  0  0  0  2  0  0  0  0  0  0
  186.8090  177.7940  143.7610 C   0  0  1  0  0  3  0  0  0  0  0  0
  189.0340  176.7290  144.0140 C   0  0  0  0  0  2  0  0  0  0  0  0
  186.4910  177.5010  145.2220 C   0  0  0  0  0  2  0  0  0  0  0  0
  187.3080  178.4430  146.0990 C   0  0  1  0  0  3  0  0  0  0  0  0
  190.4460  176.5600  147.3870 C   0  0  0  0  0  2  0  0  0  0  0  0
  187.8080  176.8680  143.2120 N   0  0  0  0  0  2  0  0  0  0  0  0
  186.7130  178.5290  147.4240 N   0  0  0  0  0  2  0  0  0  0  0  0
  185.4840  179.0780  147.2730 O   0  0  0  0  0  1  0  0  0  0  0  0
  185.5300  177.7130  142.9430 C   0  0  0  0  0  2  0  0  0  0  0  0
  185.3140  178.9810  142.1260 C   0  0  0  0  0  2  0  0  0  0  0  0
  184.7570  178.8020  139.5540 C   0  0  0  0  0  2  0  0  0  0  0  0
  185.6550  178.5830  138.4310 N   0  0  0  0  0  0  0  0  0  0  0  0
  186.8460  178.4470  138.9100 C   0  0  0  0  0  0  0  0  0  0  0  0
  185.7070  178.7870  140.7000 C   0  0  0  0  0  0  0  0  0  0  0  0
  186.9220  178.5770  140.3230 N   0  0  0  0  0  0  0  0  0  0  0  0
  189.2960  178.1750  138.9010 C   0  0  0  0  0  2  0  0  0  0  0  0
  188.0470  178.2540  138.0440 C   0  0  0  0  0  3  0  0  0  0  0  0
  188.6850  176.9110  138.3430 C   0  0  0  0  0  2  0  0  0  0  0  0
  1 12  1  0  0  0  0
  2  1  1  0  0  0  0
  3  7  1  6  0  0  0
  4  2  1  0  0  0  0
  5  4  2  0  0  0  0
  6  9  1  1  0  0  0
  6  4  1  0  0  0  0
  6  3  1  0  0  0  0
  7 12  1  0  0  0  0
  8 16  1  6  0  0  0
  8 10  1  0  0  0  0
 10 11  1  0  0  0  0
 11  3  1  0  0  0  0
 11 14  1  1  0  0  0
 13  8  1  0  0  0  0
 13  9  1  0  0  0  0
 15 14  1  0  0  0  0
 17 16  1  0  0  0  0
 18 21  1  0  0  0  0
 19 20  2  0  0  0  0
 19 18  1  0  0  0  0
 20 22  1  0  0  0  0
 21 17  1  0  0  0  0
 22 21  2  0  0  0  0
 24 25  1  0  0  0  0
 24 23  1  0  0  0  0
 24 20  1  0  0  0  0
 25 23  1  0  0  0  0
M  END
>  <MODEL>
1

>  <REMARK>
 VINA RESULT:      -7.7      0.000      0.000
  Name = 
  5 active torsions:
  status: ('A' for Active; 'I' for Inactive)
    1  A    between atoms: C_1  and  C_18
    2  A    between atoms: C_1  and  C_23
    3  A    between atoms: C_10  and  C_16
    4  A    between atoms: N_11  and  C_19
    5  A    between atoms: C_14  and  C_18
                            x       y       z     vdW  Elec       q    Type
                         _______ _______ _______ _____ _____    ______ ____

>  <TORSDO>
F 5

$$$$
=
 OpenBabel10232409453D

 25 28  0  0  1  0  0  0  0  0999 V2000
  191.7260  175.9570  145.2930 N   0  0  0  0  0  2  0  0  0  0  0  0
  191.9180  177.1600  144.5960 N   0  0  0  0  0  2  0  0  0  0  0  0
  189.7320  177.8780  146.6950 C   0  0  2  0  0  3  0  0  0  0  0  0
  190.8920  178.1530  144.4830 C   0  0  0  0  0  0  0  0  0  0  0  0
  191.1850  179.5060  143.6190 S   0  0  0  0  0  0  0  0  0  0  0  0
  189.5700  178.0040  145.1680 C   0  0  1  0  0  3  0  0  0  0  0  0
  190.2420  176.5030  147.1490 C   0  0  0  0  0  2  0  0  0  0  0  0
  186.7840  177.9180  145.6170 C   0  0  1  0  0  3  0  0  0  0  0  0
  188.7620  176.8410  144.5800 C   0  0  0  0  0  2  0  0  0  0  0  0
  187.2360  177.4460  146.9930 C   0  0  0  0  0  2  0  0  0  0  0  0
  188.4390  178.2770  147.4250 C   0  0  1  0  0  3  0  0  0  0  0  0
  191.6810  176.2680  146.7140 C   0  0  0  0  0  2  0  0  0  0  0  0
  187.3100  177.0710  144.5380 N   0  0  0  0  0  2  0  0  0  0  0  0
  188.6060  178.1960  148.8680 N   0  0  0  0  0  2  0  0  0  0  0  0
  187.5680  177.4710  149.3490 O   0  0  0  0  0  1  0  0  0  0  0  0
  185.2650  177.9300  145.5650 C   0  0  0  0  0  2  0  0  0  0  0  0
  184.7420  179.2290  144.9650 C   0  0  0  0  0  2  0  0  0  0  0  0
  182.5130  179.1250  143.5580 C   0  0  0  0  0  2  0  0  0  0  0  0
  182.3240  178.7860  142.1560 N   0  0  0  0  0  0  0  0  0  0  0  0
  183.4840  178.4920  141.6710 C   0  0  0  0  0  0  0  0  0  0  0  0
  183.9880  178.9830  143.7010 C   0  0  0  0  0  0  0  0  0  0  0  0
  184.5500  178.6100  142.6030 N   0  0  0  0  0  0  0  0  0  0  0  0
  182.8670  179.0560  139.3520 C   0  0  0  0  0  2  0  0  0  0  0  0
  183.6910  178.1380  140.2350 C   0  0  0  0  0  3  0  0  0  0  0  0
  184.3500  179.2960  139.5100 C   0  0  0  0  0  2  0  0  0  0  0  0
  1 12  1  0  0  0  0
  2  1  1  0  0  0  0
  3  7  1  6  0  0  0
  3 11  1  0  0  0  0
  4  2  1  0  0  0  0
  4  6  1  0  0  0  0
  5  4  2  0  0  0  0
  6  9  1  6  0  0  0
  6  3  1  0  0  0  0
  8 16  1  1  0  0  0
  8 10  1  0  0  0  0
 10 11  1  0  0  0  0
 11 14  1  1  0  0  0
 12  7  1  0  0  0  0
 13  9  1  0  0  0  0
 13  8  1  0  0  0  0
 14 15  1  0  0  0  0
 17 16  1  0  0  0  0
 18 21  1  0  0  0  0
 19 18  1  0  0  0  0
 20 19  2  0  0  0  0
 20 22  1  0  0  0  0
 21 17  1  0  0  0  0
 22 21  2  0  0  0  0
 23 25  1  0  0  0  0
 23 24  1  0  0  0  0
 24 20  1  0  0  0  0
 25 24  1  0  0  0  0
M  END
>  <MODEL>
2

>  <REMARK>
 VINA RESULT:      -7.3      2.432      3.052
  Name = 
  5 active torsions:
  status: ('A' for Active; 'I' for Inactive)
    1  A    between atoms: C_1  and  C_18
    2  A    between atoms: C_1  and  C_23
    3  A    between atoms: C_10  and  C_16
    4  A    between atoms: N_11  and  C_19
    5  A    between atoms: C_14  and  C_18
                            x       y       z     vdW  Elec       q    Type
                         _______ _______ _______ _____ _____    ______ ____

>  <TORSDO>
F 5

$$$$
=
 OpenBabel10232409453D

 25 28  0  0  1  0  0  0  0  0999 V2000
  191.2580  176.1350  146.2170 N   0  0  0  0  0  2  0  0  0  0  0  0
  191.7570  177.2780  145.5730 N   0  0  0  0  0  2  0  0  0  0  0  0
  188.8030  178.0330  146.2070 C   0  0  2  0  0  3  0  0  0  0  0  0
  190.9130  178.1810  144.8500 C   0  0  0  0  0  0  0  0  0  0  0  0
  191.5810  179.4650  144.0960 S   0  0  0  0  0  0  0  0  0  0  0  0
  189.4270  178.0040  144.7990 C   0  0  1  0  0  3  0  0  0  0  0  0
  189.0350  176.7460  147.0110 C   0  0  0  0  0  2  0  0  0  0  0  0
  186.7940  177.7630  143.8090 C   0  0  1  0  0  3  0  0  0  0  0  0
  189.0410  176.7370  144.0270 C   0  0  0  0  0  2  0  0  0  0  0  0
  186.5010  177.4550  145.2720 C   0  0  0  0  0  2  0  0  0  0  0  0
  187.3120  178.4060  146.1450 C   0  0  1  0  0  3  0  0  0  0  0  0
  190.5010  176.5730  147.3800 C   0  0  0  0  0  2  0  0  0  0  0  0
  187.8030  176.8590  143.2420 N   0  0  0  0  0  2  0  0  0  0  0  0
  186.7330  178.4730  147.4780 N   0  0  0  0  0  2  0  0  0  0  0  0
  185.3970  178.6380  147.3230 O   0  0  0  0  0  1  0  0  0  0  0  0
  185.5070  177.6630  143.0070 C   0  0  0  0  0  2  0  0  0  0  0  0
  184.3990  178.5030  143.6320 C   0  0  0  0  0  2  0  0  0  0  0  0
  181.9050  179.1630  143.0830 C   0  0  0  0  0  2  0  0  0  0  0  0
  181.2210  179.1910  141.7990 N   0  0  0  0  0  0  0  0  0  0  0  0
  182.0620  178.7880  140.9060 C   0  0  0  0  0  0  0  0  0  0  0  0
  183.2630  178.7010  142.6850 C   0  0  0  0  0  0  0  0  0  0  0  0
  183.3510  178.4800  141.4180 N   0  0  0  0  0  0  0  0  0  0  0  0
  180.8210  179.8900  139.0840 C   0  0  0  0  0  2  0  0  0  0  0  0
  181.7270  178.7300  139.4520 C   0  0  0  0  0  3  0  0  0  0  0  0
  182.2930  179.9490  138.7460 C   0  0  0  0  0  2  0  0  0  0  0  0
  1 12  1  0  0  0  0
  2  1  1  0  0  0  0
  3  7  1  6  0  0  0
  4  2  1  0  0  0  0
  5  4  2  0  0  0  0
  6  9  1  1  0  0  0
  6  4  1  0  0  0  0
  6  3  1  0  0  0  0
  7 12  1  0  0  0  0
  8 16  1  6  0  0  0
  8 10  1  0  0  0  0
 10 11  1  0  0  0  0
 11  3  1  0  0  0  0
 11 14  1  1  0  0  0
 13  8  1  0  0  0  0
 13  9  1  0  0  0  0
 15 14  1  0  0  0  0
 16 17  1  0  0  0  0
 19 18  1  0  0  0  0
 20 22  1  0  0  0  0
 20 19  2  0  0  0  0
 21 18  1  0  0  0  0
 21 17  1  0  0  0  0
 22 21  2  0  0  0  0
 23 24  1  0  0  0  0
 24 20  1  0  0  0  0
 25 23  1  0  0  0  0
 25 24  1  0  0  0  0
M  END
>  <MODEL>
3

>  <REMARK>
 VINA RESULT:      -7.3      2.493      3.309
  Name = 
  5 active torsions:
  status: ('A' for Active; 'I' for Inactive)
    1  A    between atoms: C_1  and  C_18
    2  A    between atoms: C_1  and  C_23
    3  A    between atoms: C_10  and  C_16
    4  A    between atoms: N_11  and  C_19
    5  A    between atoms: C_14  and  C_18
                            x       y       z     vdW  Elec       q    Type
                         _______ _______ _______ _____ _____    ______ ____

>  <TORSDO>
F 5

$$$$
=
 OpenBabel10232409453D

 25 28  0  0  1  0  0  0  0  0999 V2000
  190.4060  176.5410  134.9160 N   0  0  0  0  0  2  0  0  0  0  0  0
  190.0090  175.2340  135.2400 N   0  0  0  0  0  2  0  0  0  0  0  0
  188.3530  177.0030  137.1980 C   0  0  2  0  0  3  0  0  0  0  0  0
  189.5260  174.8800  136.5410 C   0  0  0  0  0  0  0  0  0  0  0  0
  189.1230  173.3280  136.8460 S   0  0  0  0  0  0  0  0  0  0  0  0
  189.3430  175.9010  137.6210 C   0  0  1  0  0  3  0  0  0  0  0  0
  188.9430  178.0100  136.1990 C   0  0  0  0  0  2  0  0  0  0  0  0
  189.4840  177.2070  140.1200 C   0  0  1  0  0  3  0  0  0  0  0  0
  190.6870  176.4810  138.0770 C   0  0  0  0  0  2  0  0  0  0  0  0
  188.8030  178.3210  139.3350 C   0  0  0  0  0  2  0  0  0  0  0  0
  187.7470  177.7050  138.4240 C   0  0  1  0  0  3  0  0  0  0  0  0
  189.2090  177.3670  134.8470 C   0  0  0  0  0  2  0  0  0  0  0  0
  190.7560  176.7950  139.5120 N   0  0  0  0  0  2  0  0  0  0  0  0
  186.7830  178.7190  138.0250 N   0  0  0  0  0  2  0  0  0  0  0  0
  185.8720  178.8170  139.0230 O   0  0  0  0  0  1  0  0  0  0  0  0
  189.7230  177.6720  141.5470 C   0  0  0  0  0  2  0  0  0  0  0  0
  188.5290  177.3580  142.4390 C   0  0  0  0  0  2  0  0  0  0  0  0
  190.0750  178.2210  144.3950 C   0  0  0  0  0  2  0  0  0  0  0  0
  189.9070  178.0780  145.8330 N   0  0  0  0  0  0  0  0  0  0  0  0
  188.8310  177.3910  146.0290 C   0  0  0  0  0  0  0  0  0  0  0  0
  188.8710  177.5100  143.8840 C   0  0  0  0  0  0  0  0  0  0  0  0
  188.1510  177.0240  144.8360 N   0  0  0  0  0  0  0  0  0  0  0  0
  188.7590  178.1510  148.3720 C   0  0  0  0  0  2  0  0  0  0  0  0
  188.3080  177.0830  147.3930 C   0  0  0  0  0  3  0  0  0  0  0  0
  187.3470  178.1720  147.8330 C   0  0  0  0  0  2  0  0  0  0  0  0
  1  2  1  0  0  0  0
  2  4  1  0  0  0  0
  3  7  1  6  0  0  0
  3  6  1  0  0  0  0
  3 11  1  0  0  0  0
  4  5  2  0  0  0  0
  4  6  1  0  0  0  0
  6  9  1  6  0  0  0
  8 16  1  1  0  0  0
  9 13  1  0  0  0  0
 10  8  1  0  0  0  0
 11 14  1  6  0  0  0
 11 10  1  0  0  0  0
 12  1  1  0  0  0  0
 12  7  1  0  0  0  0
 13  8  1  0  0  0  0
 14 15  1  0  0  0  0
 16 17  1  0  0  0  0
 17 21  1  0  0  0  0
 18 19  1  0  0  0  0
 19 20  2  0  0  0  0
 20 24  1  0  0  0  0
 21 18  1  0  0  0  0
 21 22  2  0  0  0  0
 22 20  1  0  0  0  0
 24 25  1  0  0  0  0
 24 23  1  0  0  0  0
 25 23  1  0  0  0  0
M  END
>  <MODEL>
4

>  <REMARK>
 VINA RESULT:      -7.2      3.613      8.261
  Name = 
  5 active torsions:
  status: ('A' for Active; 'I' for Inactive)
    1  A    between atoms: C_1  and  C_18
    2  A    between atoms: C_1  and  C_23
    3  A    between atoms: C_10  and  C_16
    4  A    between atoms: N_11  and  C_19
    5  A    between atoms: C_14  and  C_18
                            x       y       z     vdW  Elec       q    Type
                         _______ _______ _______ _____ _____    ______ ____

>  <TORSDO>
F 5

$$$$
=
 OpenBabel10232409453D

 25 28  0  0  1  0  0  0  0  0999 V2000
  189.9560  176.9310  134.9050 N   0  0  0  0  0  2  0  0  0  0  0  0
  189.7080  175.5680  135.1290 N   0  0  0  0  0  2  0  0  0  0  0  0
  188.3650  176.9610  137.5700 C   0  0  2  0  0  3  0  0  0  0  0  0
  189.5110  175.0290  136.4410 C   0  0  0  0  0  0  0  0  0  0  0  0
  189.2680  173.4250  136.6160 S   0  0  0  0  0  0  0  0  0  0  0  0
  189.4810  175.9020  137.6570 C   0  0  1  0  0  3  0  0  0  0  0  0
  188.6870  178.1190  136.6150 C   0  0  0  0  0  2  0  0  0  0  0  0
  190.0300  176.9240  140.2310 C   0  0  1  0  0  3  0  0  0  0  0  0
  190.8520  176.5360  137.9240 C   0  0  0  0  0  2  0  0  0  0  0  0
  189.1450  178.0600  139.7350 C   0  0  0  0  0  2  0  0  0  0  0  0
  187.9690  177.4660  138.9670 C   0  0  1  0  0  3  0  0  0  0  0  0
  188.7220  177.6580  135.1660 C   0  0  0  0  0  2  0  0  0  0  0  0
  191.1810  176.6900  139.3490 N   0  0  0  0  0  2  0  0  0  0  0  0
  186.8880  178.4360  138.8870 N   0  0  0  0  0  2  0  0  0  0  0  0
  186.5370  178.7470  140.1580 O   0  0  0  0  0  1  0  0  0  0  0  0
  190.5160  177.2420  141.6360 C   0  0  0  0  0  2  0  0  0  0  0  0
  190.0920  176.1650  142.6260 C   0  0  0  0  0  2  0  0  0  0  0  0
  189.8930  177.5340  144.8720 C   0  0  0  0  0  2  0  0  0  0  0  0
  188.7100  177.8430  145.6600 N   0  0  0  0  0  0  0  0  0  0  0  0
  187.7020  177.2840  145.0770 C   0  0  0  0  0  0  0  0  0  0  0  0
  189.3070  176.7390  143.7570 C   0  0  0  0  0  0  0  0  0  0  0  0
  188.0330  176.5920  143.8810 N   0  0  0  0  0  0  0  0  0  0  0  0
  186.1820  178.6730  146.4320 C   0  0  0  0  0  2  0  0  0  0  0  0
  186.3030  177.4250  145.5770 C   0  0  0  0  0  3  0  0  0  0  0  0
  185.6780  178.6860  145.0080 C   0  0  0  0  0  2  0  0  0  0  0  0
  1  2  1  0  0  0  0
  1 12  1  0  0  0  0
  2  4  1  0  0  0  0
  3  7  1  6  0  0  0
  3  6  1  0  0  0  0
  3 11  1  0  0  0  0
  4  5  2  0  0  0  0
  4  6  1  0  0  0  0
  6  9  1  6  0  0  0
  8 16  1  1  0  0  0
  9 13  1  0  0  0  0
 10  8  1  0  0  0  0
 11 14  1  6  0  0  0
 11 10  1  0  0  0  0
 12  7  1  0  0  0  0
 13  8  1  0  0  0  0
 14 15  1  0  0  0  0
 16 17  1  0  0  0  0
 17 21  1  0  0  0  0
 18 19  1  0  0  0  0
 20 24  1  0  0  0  0
 20 19  2  0  0  0  0
 21 22  2  0  0  0  0
 21 18  1  0  0  0  0
 22 20  1  0  0  0  0
 24 23  1  0  0  0  0
 25 24  1  0  0  0  0
 25 23  1  0  0  0  0
M  END
>  <MODEL>
5

>  <REMARK>
 VINA RESULT:      -7.1      3.477      7.925
  Name = 
  5 active torsions:
  status: ('A' for Active; 'I' for Inactive)
    1  A    between atoms: C_1  and  C_18
    2  A    between atoms: C_1  and  C_23
    3  A    between atoms: C_10  and  C_16
    4  A    between atoms: N_11  and  C_19
    5  A    between atoms: C_14  and  C_18
                            x       y       z     vdW  Elec       q    Type
                         _______ _______ _______ _____ _____    ______ ____

>  <TORSDO>
F 5

$$$$
=
 OpenBabel10232409453D

 25 28  0  0  1  0  0  0  0  0999 V2000
  181.5030  177.6510  137.3270 N   0  0  0  0  0  2  0  0  0  0  0  0
  181.1190  179.0000  137.3860 N   0  0  0  0  0  2  0  0  0  0  0  0
  183.8620  178.9620  138.8620 C   0  0  2  0  0  3  0  0  0  0  0  0
  181.5630  179.8790  138.4250 C   0  0  0  0  0  0  0  0  0  0  0  0
  181.0360  181.4240  138.4410 S   0  0  0  0  0  0  0  0  0  0  0  0
  182.5310  179.4340  139.4770 C   0  0  1  0  0  3  0  0  0  0  0  0
  183.7780  177.5780  138.2020 C   0  0  0  0  0  2  0  0  0  0  0  0
  183.7090  178.9550  141.9980 C   0  0  1  0  0  3  0  0  0  0  0  0
  181.9120  178.3700  140.3920 C   0  0  0  0  0  2  0  0  0  0  0  0
  184.7290  178.2140  141.1410 C   0  0  0  0  0  2  0  0  0  0  0  0
  185.0050  179.0370  139.8870 C   0  0  1  0  0  3  0  0  0  0  0  0
  182.9090  177.6040  136.9540 C   0  0  0  0  0  2  0  0  0  0  0  0
  182.3440  178.4520  141.7950 N   0  0  0  0  0  2  0  0  0  0  0  0
  186.2690  178.6280  139.2940 N   0  0  0  0  0  2  0  0  0  0  0  0
  187.1810  178.5800  140.2950 O   0  0  0  0  0  1  0  0  0  0  0  0
  184.0930  178.8220  143.4620 C   0  0  0  0  0  2  0  0  0  0  0  0
  185.4940  178.2440  143.6170 C   0  0  0  0  0  2  0  0  0  0  0  0
  185.2790  179.0360  146.1240 C   0  0  0  0  0  2  0  0  0  0  0  0
  186.0850  178.6700  147.2780 N   0  0  0  0  0  0  0  0  0  0  0  0
  187.0070  177.8660  146.8640 C   0  0  0  0  0  0  0  0  0  0  0  0
  185.9350  178.2510  145.0430 C   0  0  0  0  0  0  0  0  0  0  0  0
  186.9420  177.5730  145.4750 N   0  0  0  0  0  0  0  0  0  0  0  0
  189.3180  177.0290  147.0580 C   0  0  0  0  0  2  0  0  0  0  0  0
  188.0020  177.2390  147.7840 C   0  0  0  0  0  3  0  0  0  0  0  0
  189.1620  178.1910  148.0110 C   0  0  0  0  0  2  0  0  0  0  0  0
  1  2  1  0  0  0  0
  2  4  1  0  0  0  0
  3  7  1  1  0  0  0
  3  6  1  0  0  0  0
  3 11  1  0  0  0  0
  4  5  2  0  0  0  0
  4  6  1  0  0  0  0
  6  9  1  6  0  0  0
  8 16  1  1  0  0  0
  9 13  1  0  0  0  0
 10  8  1  0  0  0  0
 11 14  1  6  0  0  0
 11 10  1  0  0  0  0
 12  1  1  0  0  0  0
 12  7  1  0  0  0  0
 13  8  1  0  0  0  0
 14 15  1  0  0  0  0
 16 17  1  0  0  0  0
 17 21  1  0  0  0  0
 18 19  1  0  0  0  0
 20 19  2  0  0  0  0
 20 24  1  0  0  0  0
 21 22  2  0  0  0  0
 21 18  1  0  0  0  0
 22 20  1  0  0  0  0
 23 24  1  0  0  0  0
 23 25  1  0  0  0  0
 24 25  1  0  0  0  0
M  END
>  <MODEL>
6

>  <REMARK>
 VINA RESULT:      -7.1      3.731      8.633
  Name = 
  5 active torsions:
  status: ('A' for Active; 'I' for Inactive)
    1  A    between atoms: C_1  and  C_18
    2  A    between atoms: C_1  and  C_23
    3  A    between atoms: C_10  and  C_16
    4  A    between atoms: N_11  and  C_19
    5  A    between atoms: C_14  and  C_18
                            x       y       z     vdW  Elec       q    Type
                         _______ _______ _______ _____ _____    ______ ____

>  <TORSDO>
F 5

$$$$
=
 OpenBabel10232409453D

 25 28  0  0  1  0  0  0  0  0999 V2000
  180.7710  179.4710  139.6270 N   0  0  0  0  0  2  0  0  0  0  0  0
  180.9690  178.1330  139.2480 N   0  0  0  0  0  2  0  0  0  0  0  0
  182.4430  178.3380  141.9840 C   0  0  2  0  0  3  0  0  0  0  0  0
  182.0970  177.3700  139.6910 C   0  0  0  0  0  0  0  0  0  0  0  0
  182.2730  175.8330  139.1700 S   0  0  0  0  0  0  0  0  0  0  0  0
  183.1000  177.9270  140.6530 C   0  0  1  0  0  3  0  0  0  0  0  0
  181.6410  179.6450  141.8980 C   0  0  0  0  0  2  0  0  0  0  0  0
  185.5610  178.6740  141.8180 C   0  0  1  0  0  3  0  0  0  0  0  0
  183.8950  179.0790  140.0260 C   0  0  0  0  0  2  0  0  0  0  0  0
  184.6350  179.3240  142.8390 C   0  0  0  0  0  2  0  0  0  0  0  0
  183.4760  178.3760  143.1230 C   0  0  1  0  0  3  0  0  0  0  0  0
  180.4000  179.4840  141.0350 C   0  0  0  0  0  2  0  0  0  0  0  0
  185.3020  179.1460  140.4520 N   0  0  0  0  0  2  0  0  0  0  0  0
  182.8480  178.7260  144.3880 N   0  0  0  0  0  2  0  0  0  0  0  0
  183.8230  179.2020  145.1980 O   0  0  0  0  0  1  0  0  0  0  0  0
  187.0040  178.9610  142.1960 C   0  0  0  0  0  2  0  0  0  0  0  0
  187.7700  177.6730  142.4740 C   0  0  0  0  0  2  0  0  0  0  0  0
  189.7480  178.1660  144.1480 C   0  0  0  0  0  2  0  0  0  0  0  0
  189.8100  177.9620  145.5870 N   0  0  0  0  0  0  0  0  0  0  0  0
  188.6860  177.4380  145.9490 C   0  0  0  0  0  0  0  0  0  0  0  0
  188.3760  177.6810  143.8370 C   0  0  0  0  0  0  0  0  0  0  0  0
  187.7610  177.2540  144.8870 N   0  0  0  0  0  0  0  0  0  0  0  0
  189.0170  178.1520  148.2850 C   0  0  0  0  0  2  0  0  0  0  0  0
  188.3640  177.1300  147.3740 C   0  0  0  0  0  3  0  0  0  0  0  0
  187.5430  178.2590  147.9700 C   0  0  0  0  0  2  0  0  0  0  0  0
  1 12  1  0  0  0  0
  2  1  1  0  0  0  0
  2  4  1  0  0  0  0
  3  7  1  6  0  0  0
  3 11  1  0  0  0  0
  4  6  1  0  0  0  0
  5  4  2  0  0  0  0
  6  9  1  6  0  0  0
  6  3  1  0  0  0  0
  8 16  1  1  0  0  0
  8 10  1  0  0  0  0
  9 13  1  0  0  0  0
 10 11  1  0  0  0  0
 11 14  1  1  0  0  0
 12  7  1  0  0  0  0
 13  8  1  0  0  0  0
 14 15  1  0  0  0  0
 16 17  1  0  0  0  0
 17 21  1  0  0  0  0
 18 19  1  0  0  0  0
 19 20  2  0  0  0  0
 20 24  1  0  0  0  0
 21 18  1  0  0  0  0
 21 22  2  0  0  0  0
 22 20  1  0  0  0  0
 24 25  1  0  0  0  0
 24 23  1  0  0  0  0
 25 23  1  0  0  0  0
M  END
>  <MODEL>
7

>  <REMARK>
 VINA RESULT:      -6.8      3.439      7.847
  Name = 
  5 active torsions:
  status: ('A' for Active; 'I' for Inactive)
    1  A    between atoms: C_1  and  C_18
    2  A    between atoms: C_1  and  C_23
    3  A    between atoms: C_10  and  C_16
    4  A    between atoms: N_11  and  C_19
    5  A    between atoms: C_14  and  C_18
                            x       y       z     vdW  Elec       q    Type
                         _______ _______ _______ _____ _____    ______ ____

>  <TORSDO>
F 5

$$$$
=
 OpenBabel10232409453D

 25 28  0  0  1  0  0  0  0  0999 V2000
  188.6890  176.6660  144.8310 N   0  0  0  0  0  2  0  0  0  0  0  0
  189.6320  177.6970  144.9680 N   0  0  0  0  0  2  0  0  0  0  0  0
  188.2860  178.3040  142.2260 C   0  0  2  0  0  3  0  0  0  0  0  0
  190.2120  178.3610  143.8400 C   0  0  0  0  0  0  0  0  0  0  0  0
  191.3310  179.5220  144.0880 S   0  0  0  0  0  0  0  0  0  0  0  0
  189.7910  178.0490  142.4380 C   0  0  1  0  0  3  0  0  0  0  0  0
  187.3860  177.2280  142.8490 C   0  0  0  0  0  2  0  0  0  0  0  0
  189.9040  177.3880  139.6950 C   0  0  1  0  0  3  0  0  0  0  0  0
  190.1940  176.6250  142.0370 C   0  0  0  0  0  2  0  0  0  0  0  0
  188.3900  177.3540  139.8610 C   0  0  0  0  0  2  0  0  0  0  0  0
  187.9660  178.5260  140.7380 C   0  0  1  0  0  3  0  0  0  0  0  0
  187.4430  177.2590  144.3680 C   0  0  0  0  0  2  0  0  0  0  0  0
  190.5860  176.4810  140.6270 N   0  0  0  0  0  2  0  0  0  0  0  0
  186.5510  178.8060  140.5430 N   0  0  0  0  0  2  0  0  0  0  0  0
  186.2930  178.6500  139.2230 O   0  0  0  0  0  1  0  0  0  0  0  0
  190.2610  177.0200  138.2650 C   0  0  0  0  0  2  0  0  0  0  0  0
  190.6600  175.5540  138.1540 C   0  0  0  0  0  2  0  0  0  0  0  0
  193.0400  176.5410  137.5870 C   0  0  0  0  0  2  0  0  0  0  0  0
  194.2820  175.8420  137.2980 N   0  0  0  0  0  0  0  0  0  0  0  0
  194.0270  174.5760  137.3300 C   0  0  0  0  0  0  0  0  0  0  0  0
  192.1030  175.4040  137.8060 C   0  0  0  0  0  0  0  0  0  0  0  0
  192.6800  174.2620  137.6530 N   0  0  0  0  0  0  0  0  0  0  0  0
  196.4190  174.0550  137.6180 C   0  0  0  0  0  2  0  0  0  0  0  0
  195.0800  173.5370  137.1270 C   0  0  0  0  0  3  0  0  0  0  0  0
  195.6270  173.0900  138.4710 C   0  0  0  0  0  2  0  0  0  0  0  0
  1  2  1  0  0  0  0
  3  6  1  0  0  0  0
  3  7  1  6  0  0  0
  4  5  2  0  0  0  0
  4  2  1  0  0  0  0
  6  9  1  1  0  0  0
  6  4  1  0  0  0  0
  7 12  1  0  0  0  0
  8 16  1  6  0  0  0
  8 10  1  0  0  0  0
  8 13  1  0  0  0  0
 10 11  1  0  0  0  0
 11 14  1  1  0  0  0
 11  3  1  0  0  0  0
 12  1  1  0  0  0  0
 13  9  1  0  0  0  0
 15 14  1  0  0  0  0
 17 16  1  0  0  0  0
 18 21  1  0  0  0  0
 19 20  2  0  0  0  0
 19 18  1  0  0  0  0
 20 22  1  0  0  0  0
 21 17  1  0  0  0  0
 22 21  2  0  0  0  0
 23 25  1  0  0  0  0
 24 20  1  0  0  0  0
 24 23  1  0  0  0  0
 24 25  1  0  0  0  0
M  END
>  <MODEL>
8

>  <REMARK>
 VINA RESULT:      -6.6      4.505      6.169
  Name = 
  5 active torsions:
  status: ('A' for Active; 'I' for Inactive)
    1  A    between atoms: C_1  and  C_18
    2  A    between atoms: C_1  and  C_23
    3  A    between atoms: C_10  and  C_16
    4  A    between atoms: N_11  and  C_19
    5  A    between atoms: C_14  and  C_18
                            x       y       z     vdW  Elec       q    Type
                         _______ _______ _______ _____ _____    ______ ____

>  <TORSDO>
F 5

$$$$
=
 OpenBabel10232409453D

 25 28  0  0  1  0  0  0  0  0999 V2000
  189.7210  178.5120  137.0740 N   0  0  0  0  0  2  0  0  0  0  0  0
  189.8870  177.1380  136.8380 N   0  0  0  0  0  2  0  0  0  0  0  0
  188.8740  177.2500  139.7810 C   0  0  2  0  0  3  0  0  0  0  0  0
  190.1590  176.2060  137.8900 C   0  0  0  0  0  0  0  0  0  0  0  0
  190.3790  174.6320  137.5220 S   0  0  0  0  0  0  0  0  0  0  0  0
  190.2080  176.6280  139.3260 C   0  0  1  0  0  3  0  0  0  0  0  0
  188.6500  178.6770  139.2590 C   0  0  0  0  0  2  0  0  0  0  0  0
  191.0920  176.9690  141.9850 C   0  0  1  0  0  3  0  0  0  0  0  0
  191.3960  177.5580  139.5960 C   0  0  0  0  0  2  0  0  0  0  0  0
  189.8540  177.8560  142.0560 C   0  0  0  0  0  2  0  0  0  0  0  0
  188.7160  177.1700  141.3080 C   0  0  1  0  0  3  0  0  0  0  0  0
  188.4460  178.6960  137.7520 C   0  0  0  0  0  2  0  0  0  0  0  0
  192.0130  177.3850  140.9200 N   0  0  0  0  0  2  0  0  0  0  0  0
  187.4390  177.7220  141.7330 N   0  0  0  0  0  2  0  0  0  0  0  0
  187.1470  177.1690  142.9340 O   0  0  0  0  0  1  0  0  0  0  0  0
  191.8080  177.0000  143.3250 C   0  0  0  0  0  2  0  0  0  0  0  0
  191.3560  178.1860  144.1680 C   0  0  0  0  0  2  0  0  0  0  0  0
  190.9680  176.8520  146.4100 C   0  0  0  0  0  2  0  0  0  0  0  0
  189.7760  176.7720  147.2400 N   0  0  0  0  0  0  0  0  0  0  0  0
  188.8580  177.4740  146.6640 C   0  0  0  0  0  0  0  0  0  0  0  0
  190.5080  177.7490  145.3160 C   0  0  0  0  0  0  0  0  0  0  0  0
  189.2780  178.1070  145.4630 N   0  0  0  0  0  0  0  0  0  0  0  0
  186.7420  178.7240  146.4750 C   0  0  0  0  0  2  0  0  0  0  0  0
  187.5010  177.6660  147.2550 C   0  0  0  0  0  3  0  0  0  0  0  0
  186.4400  177.2610  146.2480 C   0  0  0  0  0  2  0  0  0  0  0  0
  1 12  1  0  0  0  0
  2  1  1  0  0  0  0
  2  4  1  0  0  0  0
  3  7  1  1  0  0  0
  3 11  1  0  0  0  0
  4  6  1  0  0  0  0
  5  4  2  0  0  0  0
  6  9  1  6  0  0  0
  6  3  1  0  0  0  0
  8 10  1  0  0  0  0
  8 16  1  1  0  0  0
  9 13  1  0  0  0  0
 11 14  1  6  0  0  0
 11 10  1  0  0  0  0
 12  7  1  0  0  0  0
 13  8  1  0  0  0  0
 14 15  1  0  0  0  0
 16 17  1  0  0  0  0
 17 21  1  0  0  0  0
 18 19  1  0  0  0  0
 20 19  2  0  0  0  0
 20 24  1  0  0  0  0
 21 22  2  0  0  0  0
 21 18  1  0  0  0  0
 22 20  1  0  0  0  0
 23 24  1  0  0  0  0
 25 23  1  0  0  0  0
 25 24  1  0  0  0  0
M  END
>  <MODEL>
9

>  <REMARK>
 VINA RESULT:      -6.5      2.940      7.316
  Name = 
  5 active torsions:
  status: ('A' for Active; 'I' for Inactive)
    1  A    between atoms: C_1  and  C_18
    2  A    between atoms: C_1  and  C_23
    3  A    between atoms: C_10  and  C_16
    4  A    between atoms: N_11  and  C_19
    5  A    between atoms: C_14  and  C_18
                            x       y       z     vdW  Elec       q    Type
                         _______ _______ _______ _____ _____    ______ ____

>  <TORSDO>
F 5

$$$$
