=
 OpenBabel10222421333D

 65 75  0  0  1  0  0  0  0  0999 V2000
  187.1630  177.4540  146.7160 C   0  0  0  0  0  2  0  0  0  0  0  0
  187.0860  178.3740  137.1590 C   0  0  0  0  0  2  0  0  0  0  0  0
  186.9360  177.7850  145.4520 C   0  0  0  0  0  0  0  0  0  0  0  0
  185.0460  178.9050  141.5010 C   0  0  0  0  0  0  0  0  0  0  0  0
  188.5550  178.4550  137.4560 C   0  0  1  0  0  3  0  0  0  0  0  0
  189.1070  177.5260  139.0340 S   0  0  0  0  0  0  0  0  0  0  0  0
  186.4200  178.0390  138.6270 C   0  0  2  0  0  3  0  0  0  0  0  0
  186.4660  178.3720  141.8630 C   0  0  1  0  0  3  0  0  0  0  0  0
  185.0920  178.7420  138.9220 N   0  0  0  0  0  0  0  0  0  0  0  0
  183.6260  178.9020  143.7350 C   0  0  0  0  0  3  0  0  0  0  0  0
  185.9650  178.4320  144.4840 C   0  0  1  0  0  0  0  0  0  0  0  0
  184.4240  178.2350  144.7610 C   0  0  0  0  0  2  0  0  0  0  0  0
  187.7110  177.5920  144.1800 C   0  0  2  0  0  0  0  0  0  0  0  0
  184.4660  178.9860  140.0600 C   0  0  0  0  0  0  0  0  0  0  0  0
  187.5410  177.9470  139.7980 C   0  0  2  0  0  3  0  0  0  0  0  0
  184.2300  179.0100  142.5090 C   0  0  0  0  0  0  0  0  0  0  0  0
  187.7110  178.8960  141.0790 C   0  0  0  0  0  2  0  0  0  0  0  0
  186.5410  177.6540  143.2990 C   0  0  2  0  0  3  0  0  0  0  0  0
  183.0460  179.6780  139.8560 C   0  0  0  0  0  2  0  0  0  0  0  0
  182.7250  180.4280  138.8360 C   0  0  0  0  0  2  0  0  0  0  0  0
  181.3870  181.0060  138.9490 C   0  0  0  0  0  2  0  0  0  0  0  0
  181.2380  182.0170  137.8660 N   0  0  0  0  0  2  0  0  0  0  0  0
  179.9820  181.3520  135.6350 C   0  0  0  0  0  2  0  0  0  0  0  0
  179.9820  180.3050  136.7510 C   0  0  2  0  0  3  0  0  0  0  0  0
  181.1680  181.1680  136.6070 C   0  0  2  0  0  3  0  0  0  0  0  0
  180.3230  178.9320  136.2780 C   0  0  0  0  0  0  0  0  0  0  0  0
  180.9070  178.9150  135.1250 O   0  0  0  0  0  0  0  0  0  0  0  0
  182.7280  177.5170  136.8400 O   0  0  0  0  0  0  0  0  0  0  0  0
  181.6730  176.9790  137.2250 C   0  0  0  0  0  0  0  0  0  0  0  0
  180.4030  177.7140  137.0870 N   0  0  0  0  0  2  0  0  0  0  0  0
  181.8570  176.1860  139.5990 C   0  0  2  0  0  3  0  0  0  0  0  0
  180.9320  175.1240  139.1220 C   0  0  0  0  0  2  0  0  0  0  0  0
  180.7630  177.1110  140.0860 C   0  0  0  0  0  1  0  0  0  0  0  0
  181.8860  175.7350  138.1480 C   0  0  1  0  0  0  0  0  0  0  0  0
  182.8990  172.4010  136.9870 C   0  0  0  0  0  1  0  0  0  0  0  0
  182.4320  173.7630  136.8210 C   0  0  0  0  0  0  0  0  0  0  0  0
  181.7390  174.0090  135.8150 O   0  0  0  0  0  0  0  0  0  0  0  0
  182.9140  174.8150  137.6510 N   0  0  0  0  0  2  0  0  0  0  0  0
  188.9990  176.8350  144.0170 C   0  0  0  0  0  2  0  0  0  0  0  0
  190.1030  177.5390  144.9700 C   0  0  0  0  0  0  0  0  0  0  0  0
  190.4430  178.7650  145.1190 O   0  0  0  0  0  0  0  0  0  0  0  0
  190.8830  176.8950  147.4530 S   0  0  0  0  0  0  0  0  0  0  0  0
  192.1500  175.8370  147.7540 C   0  0  0  0  0  3  0  0  0  0  0  0
  190.9440  176.7830  145.8310 C   0  0  0  0  0  0  0  0  0  0  0  0
  191.8450  175.9240  145.4430 N   0  0  0  0  0  0  0  0  0  0  0  0
  192.5300  175.4180  146.5250 N   0  0  0  0  0  0  0  0  0  0  0  0
  189.2450  177.8300  136.1760 C   0  0  0  0  0  2  0  0  0  0  0  0
  189.8570  176.5420  136.5480 C   0  0  0  0  0  2  0  0  0  0  0  0
  191.1700  176.2570  135.7850 C   0  0  0  0  0  2  0  0  0  0  0  0
  192.1900  175.6510  136.7450 C   0  0  0  0  0  0  0  0  0  0  0  0
  191.9670  175.5600  137.9590 O   0  0  0  0  0  0  0  0  0  0  0  0
  193.3510  174.7140  136.1470 C   0  0  0  0  0  2  0  0  0  0  0  0
  195.2940  168.7950  137.3610 C   0  0  0  0  0  2  0  0  0  0  0  0
  194.8450  172.6500  137.4340 C   0  0  2  0  0  0  0  0  0  0  0  0
  196.1370  173.4750  137.1460 C   0  0  0  0  0  2  0  0  0  0  0  0
  195.1900  171.1970  137.0300 C   0  0  2  0  0  3  0  0  0  0  0  0
  193.2580  169.4680  135.9470 C   0  0  0  0  0  2  0  0  0  0  0  0
  193.6650  173.1840  136.5610 C   0  0  2  0  0  3  0  0  0  0  0  0
  193.9450  170.8490  136.1130 C   0  0  1  0  0  3  0  0  0  0  0  0
  193.7970  168.5410  137.0510 C   0  0  0  0  0  2  0  0  0  0  0  0
  195.2250  174.7500  138.5040 O   0  0  0  0  0  1  0  0  0  0  0  0
  195.5980  173.4280  138.5150 C   0  0  1  0  0  3  0  0  0  0  0  0
  191.8320  172.0900  135.4410 O   0  0  0  0  0  1  0  0  0  0  0  0
  195.5980  170.1320  138.0650 C   0  0  0  0  0  2  0  0  0  0  0  0
  193.2660  172.1460  135.5360 C   0  0  1  0  0  3  0  0  0  0  0  0
  2  5  1  0  0  0  0
  3  1  2  0  0  0  0
  4  8  1  0  0  0  0
  4 16  2  0  0  0  0
  5 47  1  6  0  0  0
  5  6  1  0  0  0  0
  6 15  1  0  0  0  0
  7  2  1  6  0  0  0
  7  9  1  0  0  0  0
  7 15  1  0  0  0  0
  8 17  1  1  0  0  0
  8 18  1  0  0  0  0
  9 14  2  0  0  0  0
 10 12  1  0  0  0  0
 11 12  1  6  0  0  0
 11  3  1  0  0  0  0
 13 39  1  6  0  0  0
 13 11  1  0  0  0  0
 13  3  1  0  0  0  0
 14  4  1  0  0  0  0
 15 17  1  6  0  0  0
 16 10  2  0  0  0  0
 18 13  1  0  0  0  0
 18 11  1  0  0  0  0
 19 14  1  0  0  0  0
 20 21  1  0  0  0  0
 20 19  1  0  0  0  0
 22 21  1  0  0  0  0
 23 25  1  0  0  0  0
 23 24  1  0  0  0  0
 25 24  1  0  0  0  0
 25 22  1  0  0  0  0
 26 24  1  0  0  0  0
 26 30  1  0  0  0  0
 27 26  2  0  0  0  0
 28 29  2  0  0  0  0
 29 34  1  0  0  0  0
 30 29  1  0  0  0  0
 31 33  1  0  0  0  0
 32 31  1  0  0  0  0
 34 32  1  0  0  0  0
 34 31  1  0  0  0  0
 36 35  1  0  0  0  0
 36 38  1  0  0  0  0
 37 36  2  0  0  0  0
 38 34  1  0  0  0  0
 39 40  1  0  0  0  0
 40 41  2  0  0  0  0
 40 44  1  0  0  0  0
 42 43  1  0  0  0  0
 44 42  1  0  0  0  0
 45 44  2  0  0  0  0
 45 46  1  0  0  0  0
 46 43  2  0  0  0  0
 47 48  1  0  0  0  0
 49 48  1  0  0  0  0
 49 50  1  0  0  0  0
 50 51  2  0  0  0  0
 52 58  1  0  0  0  0
 52 50  1  0  0  0  0
 53 64  1  0  0  0  0
 54 62  1  0  0  0  0
 55 54  1  0  0  0  0
 55 62  1  0  0  0  0
 56 54  1  0  0  0  0
 56 64  1  0  0  0  0
 57 59  1  0  0  0  0
 57 60  1  0  0  0  0
 58 54  1  0  0  0  0
 59 56  1  0  0  0  0
 60 53  1  0  0  0  0
 61 62  1  0  0  0  0
 63 65  1  0  0  0  0
 65 59  1  0  0  0  0
 65 58  1  0  0  0  0
M  END
>  <MODEL>
1

>  <REMARK>
 VINA RESULT:      -9.2      0.000      0.000
  Name = 
  16 active torsions:
  status: ('A' for Active; 'I' for Inactive)
    1  A    between atoms: N_1  and  C_15
    2  A    between atoms: N_1  and  C_40
    3  A    between atoms: C_3  and  C_34
    4  A    between atoms: C_4  and  C_56
    5  A    between atoms: C_9  and  C_20
    6  A    between atoms: C_9  and  C_46
    7  A    between atoms: C_15  and  C_54
    8  A    between atoms: C_20  and  C_64
    9  A    between atoms: C_21  and  C_25
   10  A    between atoms: C_24  and  C_41
   11  A    between atoms: C_25  and  C_46
   12  A    between atoms: C_28  and  C_60
   13  A    between atoms: C_31  and  C_64
   14  A    between atoms: N_36  and  C_60
   15  A    between atoms: C_41  and  C_50
   16  A    between atoms: C_50  and  C_53
                            x       y       z     vdW  Elec       q    Type
                         _______ _______ _______ _____ _____    ______ ____

>  <TORSDO>
F 16

$$$$
=
 OpenBabel10222421333D

 65 75  0  0  1  0  0  0  0  0999 V2000
  187.5370  177.4510  146.9370 C   0  0  0  0  0  2  0  0  0  0  0  0
  188.2330  177.7140  137.3640 C   0  0  0  0  0  2  0  0  0  0  0  0
  187.4280  177.7070  145.6390 C   0  0  0  0  0  0  0  0  0  0  0  0
  185.9180  178.6720  141.4890 C   0  0  0  0  0  0  0  0  0  0  0  0
  189.6790  177.7210  137.7700 C   0  0  1  0  0  3  0  0  0  0  0  0
  190.0460  176.8690  139.4420 S   0  0  0  0  0  0  0  0  0  0  0  0
  187.4380  177.5240  138.7930 C   0  0  2  0  0  3  0  0  0  0  0  0
  187.2670  178.0750  141.9950 C   0  0  1  0  0  3  0  0  0  0  0  0
  186.1450  178.3290  138.9370 N   0  0  0  0  0  2  0  0  0  0  0  0
  184.3400  178.9140  143.6000 C   0  0  0  0  0  3  0  0  0  0  0  0
  186.5780  178.3470  144.5600 C   0  0  1  0  0  0  0  0  0  0  0  0
  185.0110  178.2690  144.7260 C   0  0  0  0  0  2  0  0  0  0  0  0
  188.2800  177.3780  144.4470 C   0  0  2  0  0  0  0  0  0  0  0  0
  185.4540  178.6900  140.0040 C   0  0  2  0  0  3  0  0  0  0  0  0
  188.4610  177.4410  140.0520 C   0  0  2  0  0  3  0  0  0  0  0  0
  185.0390  178.8980  142.4210 C   0  0  0  0  0  0  0  0  0  0  0  0
  188.6000  178.4630  141.2790 C   0  0  0  0  0  2  0  0  0  0  0  0
  187.1860  177.4550  143.4750 C   0  0  2  0  0  3  0  0  0  0  0  0
  184.1040  179.4560  139.6460 C   0  0  0  0  0  2  0  0  0  0  0  0
  183.4670  179.3450  138.5110 C   0  0  0  0  0  2  0  0  0  0  0  0
  182.3050  180.2270  138.4180 C   0  0  0  0  0  2  0  0  0  0  0  0
  181.5640  180.1370  139.7070 N   0  0  0  0  0  2  0  0  0  0  0  0
  179.9940  178.2170  140.6250 C   0  0  0  0  0  2  0  0  0  0  0  0
  181.1930  177.7690  139.7870 C   0  0  2  0  0  3  0  0  0  0  0  0
  180.5420  179.0440  139.4420 C   0  0  2  0  0  3  0  0  0  0  0  0
  180.8480  176.7530  138.7500 C   0  0  0  0  0  0  0  0  0  0  0  0
  180.1660  177.2360  137.7630 O   0  0  0  0  0  0  0  0  0  0  0  0
  182.4480  176.0420  136.5060 O   0  0  0  0  0  0  0  0  0  0  0  0
  182.1840  175.1240  137.3040 C   0  0  0  0  0  0  0  0  0  0  0  0
  181.4740  175.4440  138.5540 N   0  0  0  0  0  2  0  0  0  0  0  0
  181.9840  172.6540  136.9050 C   0  0  2  0  0  3  0  0  0  0  0  0
  182.9620  172.9360  135.8220 C   0  0  0  0  0  2  0  0  0  0  0  0
  180.7610  172.8070  136.0260 C   0  0  0  0  0  1  0  0  0  0  0  0
  182.9730  173.8000  137.0420 C   0  0  1  0  0  0  0  0  0  0  0  0
  186.6110  173.3770  137.3240 C   0  0  0  0  0  1  0  0  0  0  0  0
  185.3800  174.1380  137.2430 C   0  0  0  0  0  0  0  0  0  0  0  0
  185.4520  175.2910  136.7760 O   0  0  0  0  0  0  0  0  0  0  0  0
  184.1830  173.6740  137.8610 N   0  0  0  0  0  2  0  0  0  0  0  0
  189.5210  176.5310  144.4350 C   0  0  0  0  0  2  0  0  0  0  0  0
  190.6980  177.3780  145.1570 C   0  0  0  0  0  0  0  0  0  0  0  0
  191.2090  178.5230  144.8940 O   0  0  0  0  0  0  0  0  0  0  0  0
  191.6560  175.2850  146.5320 S   0  0  0  0  0  0  0  0  0  0  0  0
  192.4310  175.4560  148.0100 C   0  0  0  0  0  3  0  0  0  0  0  0
  191.4040  176.8730  146.2830 C   0  0  0  0  0  0  0  0  0  0  0  0
  191.9280  177.5970  147.2320 N   0  0  0  0  0  0  0  0  0  0  0  0
  192.4790  176.7940  148.2050 N   0  0  0  0  0  0  0  0  0  0  0  0
  190.4160  176.9660  136.5900 C   0  0  0  0  0  2  0  0  0  0  0  0
  190.8020  175.6220  137.0540 C   0  0  0  0  0  2  0  0  0  0  0  0
  191.5220  174.7920  135.9680 C   0  0  0  0  0  2  0  0  0  0  0  0
  192.9940  175.1910  135.9220 C   0  0  0  0  0  0  0  0  0  0  0  0
  193.3720  176.2180  135.3430 O   0  0  0  0  0  0  0  0  0  0  0  0
  194.0010  174.5510  136.9990 C   0  0  0  0  0  2  0  0  0  0  0  0
  199.4180  171.2790  136.5150 C   0  0  0  0  0  2  0  0  0  0  0  0
  195.6660  172.2760  136.5550 C   0  0  2  0  0  0  0  0  0  0  0  0
  194.7810  171.4920  137.5710 C   0  0  0  0  0  2  0  0  0  0  0  0
  197.1270  171.9510  136.9500 C   0  0  2  0  0  3  0  0  0  0  0  0
  199.1900  173.8340  136.6460 C   0  0  0  0  0  2  0  0  0  0  0  0
  195.4020  173.8090  136.6880 C   0  0  2  0  0  3  0  0  0  0  0  0
  197.7410  173.4110  137.0060 C   0  0  1  0  0  3  0  0  0  0  0  0
  199.8620  172.6460  135.9360 C   0  0  0  0  0  2  0  0  0  0  0  0
  193.3900  171.7570  136.0560 O   0  0  0  0  0  1  0  0  0  0  0  0
  194.6490  171.2140  136.1320 C   0  0  1  0  0  3  0  0  0  0  0  0
  196.8390  175.7380  136.5270 O   0  0  0  0  0  1  0  0  0  0  0  0
  197.9590  170.8850  136.2130 C   0  0  0  0  0  2  0  0  0  0  0  0
  196.6310  174.5020  137.2330 C   0  0  1  0  0  3  0  0  0  0  0  0
  2  5  1  0  0  0  0
  3  1  2  0  0  0  0
  4  8  1  0  0  0  0
  4 16  2  0  0  0  0
  5 47  1  6  0  0  0
  5  6  1  0  0  0  0
  6 15  1  0  0  0  0
  7  2  1  6  0  0  0
  7  9  1  0  0  0  0
  7 15  1  0  0  0  0
  8 17  1  1  0  0  0
  8 18  1  0  0  0  0
  9 14  1  0  0  0  0
 10 12  1  0  0  0  0
 11 12  1  6  0  0  0
 11  3  1  0  0  0  0
 13 39  1  6  0  0  0
 13 11  1  0  0  0  0
 13  3  1  0  0  0  0
 14 19  1  6  0  0  0
 14  4  1  0  0  0  0
 15 17  1  6  0  0  0
 16 10  2  0  0  0  0
 18 13  1  0  0  0  0
 18 11  1  0  0  0  0
 20 19  1  0  0  0  0
 21 20  1  0  0  0  0
 21 22  1  0  0  0  0
 24 23  1  0  0  0  0
 25 22  1  0  0  0  0
 25 24  1  0  0  0  0
 25 23  1  0  0  0  0
 26 24  1  0  0  0  0
 27 26  2  0  0  0  0
 28 29  2  0  0  0  0
 29 30  1  0  0  0  0
 30 26  1  0  0  0  0
 31 34  1  0  0  0  0
 32 31  1  0  0  0  0
 32 34  1  0  0  0  0
 33 31  1  0  0  0  0
 34 29  1  0  0  0  0
 34 38  1  0  0  0  0
 36 35  1  0  0  0  0
 36 38  1  0  0  0  0
 37 36  2  0  0  0  0
 39 40  1  0  0  0  0
 40 44  1  0  0  0  0
 41 40  2  0  0  0  0
 42 43  1  0  0  0  0
 43 46  2  0  0  0  0
 44 42  1  0  0  0  0
 44 45  2  0  0  0  0
 45 46  1  0  0  0  0
 47 48  1  0  0  0  0
 49 48  1  0  0  0  0
 50 49  1  0  0  0  0
 50 52  1  0  0  0  0
 51 50  2  0  0  0  0
 54 58  1  0  0  0  0
 54 56  1  0  0  0  0
 54 55  1  0  0  0  0
 56 59  1  0  0  0  0
 57 59  1  0  0  0  0
 58 52  1  0  0  0  0
 58 65  1  0  0  0  0
 59 65  1  0  0  0  0
 60 53  1  0  0  0  0
 60 57  1  0  0  0  0
 61 62  1  0  0  0  0
 62 54  1  0  0  0  0
 62 55  1  0  0  0  0
 63 65  1  0  0  0  0
 64 53  1  0  0  0  0
 64 56  1  0  0  0  0
M  END
>  <MODEL>
2

>  <REMARK>
 VINA RESULT:      -8.0      1.741      2.928
  Name = 
  16 active torsions:
  status: ('A' for Active; 'I' for Inactive)
    1  A    between atoms: N_1  and  C_15
    2  A    between atoms: N_1  and  C_40
    3  A    between atoms: C_3  and  C_34
    4  A    between atoms: C_4  and  C_56
    5  A    between atoms: C_9  and  C_20
    6  A    between atoms: C_9  and  C_46
    7  A    between atoms: C_15  and  C_54
    8  A    between atoms: C_20  and  C_64
    9  A    between atoms: C_21  and  C_25
   10  A    between atoms: C_24  and  C_41
   11  A    between atoms: C_25  and  C_46
   12  A    between atoms: C_28  and  C_60
   13  A    between atoms: C_31  and  C_64
   14  A    between atoms: N_36  and  C_60
   15  A    between atoms: C_41  and  C_50
   16  A    between atoms: C_50  and  C_53
                            x       y       z     vdW  Elec       q    Type
                         _______ _______ _______ _____ _____    ______ ____

>  <TORSDO>
F 16

$$$$
=
 OpenBabel10222421333D

 65 75  0  0  1  0  0  0  0  0999 V2000
  186.6060  177.8700  147.4960 C   0  0  0  0  0  2  0  0  0  0  0  0
  188.9390  177.5430  138.1880 C   0  0  0  0  0  2  0  0  0  0  0  0
  186.7240  178.0460  146.1860 C   0  0  0  0  0  0  0  0  0  0  0  0
  185.9590  178.7510  141.7880 C   0  0  1  0  0  3  0  0  0  0  0  0
  190.2930  177.5770  138.8360 C   0  0  1  0  0  3  0  0  0  0  0  0
  190.3590  176.8300  140.5940 S   0  0  0  0  0  0  0  0  0  0  0  0
  187.9080  177.4410  139.4680 C   0  0  2  0  0  3  0  0  0  0  0  0
  187.1950  178.1880  142.5530 C   0  0  1  0  0  3  0  0  0  0  0  0
  186.6170  178.2530  139.3390 N   0  0  0  0  0  2  0  0  0  0  0  0
  184.0430  179.1220  143.5770 C   0  0  0  0  0  2  0  0  0  0  0  0
  186.0780  178.6170  144.9400 C   0  0  1  0  0  0  0  0  0  0  0  0
  184.5060  178.5480  144.8380 C   0  0  0  0  0  2  0  0  0  0  0  0
  187.7650  177.6450  145.1810 C   0  0  2  0  0  0  0  0  0  0  0  0
  185.7570  178.6780  140.2470 C   0  0  2  0  0  3  0  0  0  0  0  0
  188.6980  177.4370  140.8870 C   0  0  2  0  0  3  0  0  0  0  0  0
  184.9350  179.0340  142.5390 C   0  0  0  0  0  2  0  0  0  0  0  0
  188.6340  178.5330  142.0550 C   0  0  0  0  0  2  0  0  0  0  0  0
  186.8550  177.6600  144.0330 C   0  0  2  0  0  3  0  0  0  0  0  0
  184.4950  179.4190  139.6160 C   0  0  0  0  0  2  0  0  0  0  0  0
  183.6520  178.8690  138.7830 C   0  0  0  0  0  2  0  0  0  0  0  0
  182.6410  179.8030  138.2930 C   0  0  0  0  0  2  0  0  0  0  0  0
  181.7580  180.1560  139.4400 N   0  0  0  0  0  2  0  0  0  0  0  0
  179.9850  178.7460  140.8050 C   0  0  0  0  0  2  0  0  0  0  0  0
  181.3350  178.0730  140.5500 C   0  0  2  0  0  3  0  0  0  0  0  0
  180.8030  178.9760  139.5150 C   0  0  2  0  0  3  0  0  0  0  0  0
  181.2170  176.6650  140.0700 C   0  0  0  0  0  0  0  0  0  0  0  0
  180.0060  176.2110  140.1000 O   0  0  0  0  0  0  0  0  0  0  0  0
  180.8130  175.8430  137.3760 O   0  0  0  0  0  0  0  0  0  0  0  0
  181.8510  175.4290  137.9250 C   0  0  0  0  0  0  0  0  0  0  0  0
  182.1920  175.9190  139.2720 N   0  0  0  0  0  2  0  0  0  0  0  0
  182.8420  175.4440  135.6200 C   0  0  2  0  0  3  0  0  0  0  0  0
  184.1150  175.2570  136.3650 C   0  0  0  0  0  2  0  0  0  0  0  0
  182.9320  176.9550  135.5730 C   0  0  0  0  0  1  0  0  0  0  0  0
  182.8520  174.7200  136.9560 C   0  0  1  0  0  0  0  0  0  0  0  0
  184.3490  171.4270  136.3190 C   0  0  0  0  0  1  0  0  0  0  0  0
  184.0630  172.6080  137.1080 C   0  0  0  0  0  0  0  0  0  0  0  0
  184.8930  172.9250  137.9830 O   0  0  0  0  0  0  0  0  0  0  0  0
  182.7960  173.2570  137.0340 N   0  0  0  0  0  2  0  0  0  0  0  0
  188.9810  176.8000  145.4340 C   0  0  0  0  0  2  0  0  0  0  0  0
  189.7700  177.4440  146.6930 C   0  0  0  0  0  0  0  0  0  0  0  0
  189.5330  178.4810  147.4080 O   0  0  0  0  0  0  0  0  0  0  0  0
  191.6480  175.5340  146.5740 S   0  0  0  0  0  0  0  0  0  0  0  0
  192.9190  175.4500  147.6650 C   0  0  0  0  0  3  0  0  0  0  0  0
  190.9780  176.8820  147.1900 C   0  0  0  0  0  0  0  0  0  0  0  0
  191.6850  177.3630  148.1750 N   0  0  0  0  0  0  0  0  0  0  0  0
  192.7560  176.5410  148.4480 N   0  0  0  0  0  0  0  0  0  0  0  0
  191.2150  176.7510  137.8480 C   0  0  0  0  0  2  0  0  0  0  0  0
  192.5840  176.7210  138.3910 C   0  0  0  0  0  2  0  0  0  0  0  0
  193.3760  175.4660  137.9600 C   0  0  0  0  0  2  0  0  0  0  0  0
  193.8320  175.6310  136.5130 C   0  0  0  0  0  0  0  0  0  0  0  0
  193.9130  176.7450  135.9790 O   0  0  0  0  0  0  0  0  0  0  0  0
  194.6460  174.4310  135.8180 C   0  0  0  0  0  2  0  0  0  0  0  0
  195.5450  168.3110  137.2390 C   0  0  0  0  0  2  0  0  0  0  0  0
  195.9450  172.1630  136.9650 C   0  0  2  0  0  0  0  0  0  0  0  0
  197.2690  172.6480  136.3010 C   0  0  0  0  0  2  0  0  0  0  0  0
  195.8680  170.6460  136.6650 C   0  0  2  0  0  3  0  0  0  0  0  0
  193.4110  169.3470  136.2520 C   0  0  0  0  0  2  0  0  0  0  0  0
  194.7250  172.8990  136.3250 C   0  0  2  0  0  3  0  0  0  0  0  0
  194.3920  170.5390  136.0980 C   0  0  1  0  0  3  0  0  0  0  0  0
  193.9990  168.3910  137.3060 C   0  0  0  0  0  2  0  0  0  0  0  0
  197.0060  174.1810  137.6730 O   0  0  0  0  0  1  0  0  0  0  0  0
  197.0850  172.8120  137.7520 C   0  0  1  0  0  3  0  0  0  0  0  0
  192.4860  172.1910  135.7810 O   0  0  0  0  0  1  0  0  0  0  0  0
  196.2850  169.5830  137.6970 C   0  0  0  0  0  2  0  0  0  0  0  0
  193.8790  171.9200  135.5440 C   0  0  1  0  0  3  0  0  0  0  0  0
  2  5  1  0  0  0  0
  3  1  2  0  0  0  0
  4 16  1  1  0  0  0
  4  8  1  0  0  0  0
  5 47  1  6  0  0  0
  5  6  1  0  0  0  0
  6 15  1  0  0  0  0
  7  2  1  6  0  0  0
  7 15  1  0  0  0  0
  8 17  1  1  0  0  0
  8 18  1  0  0  0  0
  9  7  1  0  0  0  0
  9 14  1  0  0  0  0
 10 12  1  0  0  0  0
 11 12  1  6  0  0  0
 11 13  1  0  0  0  0
 11  3  1  0  0  0  0
 13 39  1  6  0  0  0
 13  3  1  0  0  0  0
 14 19  1  6  0  0  0
 14  4  1  0  0  0  0
 15 17  1  6  0  0  0
 16 10  1  0  0  0  0
 18 11  1  0  0  0  0
 18 13  1  0  0  0  0
 20 19  1  0  0  0  0
 21 20  1  0  0  0  0
 21 22  1  0  0  0  0
 22 25  1  0  0  0  0
 24 23  1  0  0  0  0
 25 24  1  0  0  0  0
 25 23  1  0  0  0  0
 26 27  2  0  0  0  0
 26 24  1  0  0  0  0
 28 29  2  0  0  0  0
 29 30  1  0  0  0  0
 30 26  1  0  0  0  0
 31 32  1  0  0  0  0
 31 34  1  0  0  0  0
 32 34  1  0  0  0  0
 33 31  1  0  0  0  0
 34 38  1  0  0  0  0
 34 29  1  0  0  0  0
 35 36  1  0  0  0  0
 36 37  2  0  0  0  0
 38 36  1  0  0  0  0
 39 40  1  0  0  0  0
 40 44  1  0  0  0  0
 40 41  2  0  0  0  0
 42 44  1  0  0  0  0
 42 43  1  0  0  0  0
 43 46  2  0  0  0  0
 44 45  2  0  0  0  0
 45 46  1  0  0  0  0
 47 48  1  0  0  0  0
 49 48  1  0  0  0  0
 50 49  1  0  0  0  0
 51 50  2  0  0  0  0
 52 58  1  0  0  0  0
 52 50  1  0  0  0  0
 53 60  1  0  0  0  0
 53 64  1  0  0  0  0
 54 62  1  0  0  0  0
 55 54  1  0  0  0  0
 55 62  1  0  0  0  0
 56 54  1  0  0  0  0
 56 64  1  0  0  0  0
 57 60  1  0  0  0  0
 58 54  1  0  0  0  0
 59 57  1  0  0  0  0
 59 56  1  0  0  0  0
 61 62  1  0  0  0  0
 65 63  1  0  0  0  0
 65 59  1  0  0  0  0
 65 58  1  0  0  0  0
M  END
>  <MODEL>
3

>  <REMARK>
 VINA RESULT:      -7.5      1.770      2.394
  Name = 
  16 active torsions:
  status: ('A' for Active; 'I' for Inactive)
    1  A    between atoms: N_1  and  C_15
    2  A    between atoms: N_1  and  C_40
    3  A    between atoms: C_3  and  C_34
    4  A    between atoms: C_4  and  C_56
    5  A    between atoms: C_9  and  C_20
    6  A    between atoms: C_9  and  C_46
    7  A    between atoms: C_15  and  C_54
    8  A    between atoms: C_20  and  C_64
    9  A    between atoms: C_21  and  C_25
   10  A    between atoms: C_24  and  C_41
   11  A    between atoms: C_25  and  C_46
   12  A    between atoms: C_28  and  C_60
   13  A    between atoms: C_31  and  C_64
   14  A    between atoms: N_36  and  C_60
   15  A    between atoms: C_41  and  C_50
   16  A    between atoms: C_50  and  C_53
                            x       y       z     vdW  Elec       q    Type
                         _______ _______ _______ _____ _____    ______ ____

>  <TORSDO>
F 16

$$$$
=
 OpenBabel10222421333D

 65 75  0  0  1  0  0  0  0  0999 V2000
  191.9380  177.4930  144.8920 C   0  0  0  0  0  2  0  0  0  0  0  0
  184.8310  178.8210  138.5730 C   0  0  0  0  0  2  0  0  0  0  0  0
  191.1210  177.4930  143.8460 C   0  0  0  0  0  0  0  0  0  0  0  0
  189.3520  177.5490  139.6870 C   0  0  0  0  0  0  0  0  0  0  0  0
  184.0640  178.4990  139.8230 C   0  0  1  0  0  3  0  0  0  0  0  0
  184.9520  178.9660  141.4510 S   0  0  0  0  0  0  0  0  0  0  0  0
  186.3920  178.8850  139.0910 C   0  0  2  0  0  3  0  0  0  0  0  0
  188.7240  177.8100  141.0900 C   0  0  1  0  0  3  0  0  0  0  0  0
  187.4280  178.2950  138.1300 N   0  0  0  0  0  2  0  0  0  0  0  0
  191.9510  177.2040  140.0540 C   0  0  0  0  0  3  0  0  0  0  0  0
  190.9920  177.2070  142.3630 C   0  0  1  0  0  0  0  0  0  0  0  0
  192.2410  177.5160  141.4500 C   0  0  0  0  0  2  0  0  0  0  0  0
  189.6830  177.8800  143.6590 C   0  0  2  0  0  0  0  0  0  0  0  0
  188.6640  177.8720  138.3290 C   0  0  0  0  0  0  0  0  0  0  0  0
  186.5200  178.5690  140.6790 C   0  0  2  0  0  3  0  0  0  0  0  0
  190.6310  177.3110  139.6970 C   0  0  0  0  0  0  0  0  0  0  0  0
  187.2650  177.3380  141.3840 C   0  0  0  0  0  2  0  0  0  0  0  0
  189.8040  178.1630  142.2270 C   0  0  2  0  0  3  0  0  0  0  0  0
  189.3940  177.4200  136.9870 C   0  0  0  0  0  3  0  0  0  0  0  0
  188.8140  177.3330  135.8200 C   0  0  0  0  0  2  0  0  0  0  0  0
  189.6970  176.8080  134.7810 C   0  0  0  0  0  2  0  0  0  0  0  0
  189.4940  175.3340  134.7170 N   0  0  0  0  0  2  0  0  0  0  0  0
  191.1940  173.3180  134.9230 C   0  0  0  0  0  2  0  0  0  0  0  0
  191.3580  174.4500  135.9390 C   0  0  2  0  0  3  0  0  0  0  0  0
  190.9100  174.7970  134.5800 C   0  0  2  0  0  3  0  0  0  0  0  0
  192.7720  174.8960  136.1100 C   0  0  0  0  0  0  0  0  0  0  0  0
  192.8950  175.9460  136.8540 O   0  0  0  0  0  0  0  0  0  0  0  0
  194.5770  174.0020  138.1210 O   0  0  0  0  0  0  0  0  0  0  0  0
  194.9230  173.7950  136.9430 C   0  0  0  0  0  0  0  0  0  0  0  0
  193.9820  174.1100  135.8540 N   0  0  0  0  0  2  0  0  0  0  0  0
  197.2710  173.6480  136.0680 C   0  0  2  0  0  3  0  0  0  0  0  0
  197.5350  173.0510  137.4040 C   0  0  0  0  0  2  0  0  0  0  0  0
  197.6080  175.0650  136.4850 C   0  0  0  0  0  1  0  0  0  0  0  0
  196.1810  172.8790  136.7950 C   0  0  1  0  0  0  0  0  0  0  0  0
  196.5020  169.2650  137.3720 C   0  0  0  0  0  1  0  0  0  0  0  0
  195.8840  170.5680  137.5180 C   0  0  0  0  0  0  0  0  0  0  0  0
  195.2280  170.7740  138.5580 O   0  0  0  0  0  0  0  0  0  0  0  0
  195.8510  171.4950  136.4370 N   0  0  0  0  0  2  0  0  0  0  0  0
  188.7760  178.4950  144.6870 C   0  0  0  0  0  2  0  0  0  0  0  0
  187.4860  177.5270  144.8420 C   0  0  0  0  0  0  0  0  0  0  0  0
  187.2750  176.3210  144.4650 O   0  0  0  0  0  0  0  0  0  0  0  0
  184.9550  178.3830  144.6170 S   0  0  0  0  0  0  0  0  0  0  0  0
  184.0410  178.8520  145.9440 C   0  0  0  0  0  3  0  0  0  0  0  0
  186.2850  177.9700  145.4600 C   0  0  0  0  0  0  0  0  0  0  0  0
  186.0980  178.0960  146.7440 N   0  0  0  0  0  0  0  0  0  0  0  0
  184.8480  178.6120  147.0030 N   0  0  0  0  0  0  0  0  0  0  0  0
  182.7170  179.3160  139.6730 C   0  0  0  0  0  2  0  0  0  0  0  0
  181.5920  178.3670  139.5940 C   0  0  0  0  0  2  0  0  0  0  0  0
  181.3970  177.7820  138.1770 C   0  0  0  0  0  2  0  0  0  0  0  0
  181.8160  176.3150  138.1760 C   0  0  0  0  0  0  0  0  0  0  0  0
  181.5860  175.5710  139.1380 O   0  0  0  0  0  0  0  0  0  0  0  0
  182.1390  175.6050  136.7700 C   0  0  0  0  0  2  0  0  0  0  0  0
  184.8630  170.1030  135.1620 C   0  0  0  0  0  2  0  0  0  0  0  0
  184.2730  173.7820  136.2510 C   0  0  2  0  0  0  0  0  0  0  0  0
  184.9000  174.8610  135.3160 C   0  0  0  0  0  2  0  0  0  0  0  0
  184.3510  172.4570  135.4560 C   0  0  2  0  0  3  0  0  0  0  0  0
  182.3790  170.4700  135.7030 C   0  0  0  0  0  2  0  0  0  0  0  0
  182.7830  174.1390  136.5540 C   0  0  2  0  0  3  0  0  0  0  0  0
  182.8600  171.9430  135.6060 C   0  0  1  0  0  3  0  0  0  0  0  0
  183.6190  169.5870  135.9280 C   0  0  0  0  0  2  0  0  0  0  0  0
  185.1190  175.8320  137.1360 O   0  0  0  0  0  1  0  0  0  0  0  0
  185.5000  174.6100  136.6360 C   0  0  1  0  0  3  0  0  0  0  0  0
  180.8000  172.7960  136.8260 O   0  0  0  0  0  1  0  0  0  0  0  0
  185.4610  171.4180  135.6980 C   0  0  0  0  0  2  0  0  0  0  0  0
  181.8640  173.1220  135.9160 C   0  0  1  0  0  3  0  0  0  0  0  0
  2  5  1  0  0  0  0
  3  1  2  0  0  0  0
  4 16  2  0  0  0  0
  4  8  1  0  0  0  0
  5 47  1  6  0  0  0
  5  6  1  0  0  0  0
  7  2  1  6  0  0  0
  7 15  1  0  0  0  0
  8 17  1  1  0  0  0
  8 18  1  0  0  0  0
  9 14  1  0  0  0  0
  9  7  1  0  0  0  0
 10 12  1  0  0  0  0
 11 12  1  6  0  0  0
 11 13  1  0  0  0  0
 11  3  1  0  0  0  0
 13  3  1  0  0  0  0
 13 39  1  1  0  0  0
 14  4  1  0  0  0  0
 15 17  1  6  0  0  0
 15  6  1  0  0  0  0
 16 10  2  0  0  0  0
 18 11  1  0  0  0  0
 18 13  1  0  0  0  0
 19 14  2  0  0  0  0
 20 19  1  0  0  0  0
 21 20  1  0  0  0  0
 22 21  1  0  0  0  0
 23 24  1  0  0  0  0
 24 26  1  0  0  0  0
 25 22  1  0  0  0  0
 25 23  1  0  0  0  0
 25 24  1  0  0  0  0
 26 27  2  0  0  0  0
 29 28  2  0  0  0  0
 30 26  1  0  0  0  0
 30 29  1  0  0  0  0
 31 33  1  0  0  0  0
 31 34  1  0  0  0  0
 31 32  1  0  0  0  0
 34 29  1  0  0  0  0
 34 32  1  0  0  0  0
 35 36  1  0  0  0  0
 36 37  2  0  0  0  0
 38 34  1  0  0  0  0
 38 36  1  0  0  0  0
 39 40  1  0  0  0  0
 40 44  1  0  0  0  0
 41 40  2  0  0  0  0
 42 44  1  0  0  0  0
 42 43  1  0  0  0  0
 43 46  2  0  0  0  0
 44 45  2  0  0  0  0
 45 46  1  0  0  0  0
 48 47  1  0  0  0  0
 49 48  1  0  0  0  0
 50 49  1  0  0  0  0
 50 51  2  0  0  0  0
 52 50  1  0  0  0  0
 53 64  1  0  0  0  0
 53 60  1  0  0  0  0
 54 58  1  0  0  0  0
 54 62  1  0  0  0  0
 55 54  1  0  0  0  0
 55 62  1  0  0  0  0
 56 59  1  0  0  0  0
 56 64  1  0  0  0  0
 56 54  1  0  0  0  0
 57 60  1  0  0  0  0
 58 52  1  0  0  0  0
 59 57  1  0  0  0  0
 59 65  1  0  0  0  0
 62 61  1  0  0  0  0
 65 58  1  0  0  0  0
 65 63  1  0  0  0  0
M  END
>  <MODEL>
4

>  <REMARK>
 VINA RESULT:      -7.0      3.242      9.878
  Name = 
  16 active torsions:
  status: ('A' for Active; 'I' for Inactive)
    1  A    between atoms: N_1  and  C_15
    2  A    between atoms: N_1  and  C_40
    3  A    between atoms: C_3  and  C_34
    4  A    between atoms: C_4  and  C_56
    5  A    between atoms: C_9  and  C_20
    6  A    between atoms: C_9  and  C_46
    7  A    between atoms: C_15  and  C_54
    8  A    between atoms: C_20  and  C_64
    9  A    between atoms: C_21  and  C_25
   10  A    between atoms: C_24  and  C_41
   11  A    between atoms: C_25  and  C_46
   12  A    between atoms: C_28  and  C_60
   13  A    between atoms: C_31  and  C_64
   14  A    between atoms: N_36  and  C_60
   15  A    between atoms: C_41  and  C_50
   16  A    between atoms: C_50  and  C_53
                            x       y       z     vdW  Elec       q    Type
                         _______ _______ _______ _____ _____    ______ ____

>  <TORSDO>
F 16

$$$$
=
 OpenBabel10222421333D

 65 75  0  0  1  0  0  0  0  0999 V2000
  189.8740  177.5140  147.8070 C   0  0  0  0  0  2  0  0  0  0  0  0
  186.6190  178.5150  138.8300 C   0  0  0  0  0  2  0  0  0  0  0  0
  189.6180  177.4280  146.5080 C   0  0  0  0  0  0  0  0  0  0  0  0
  189.9100  176.9990  142.0180 C   0  0  0  0  0  0  0  0  0  0  0  0
  185.3370  178.4720  139.6100 C   0  0  1  0  0  3  0  0  0  0  0  0
  185.4730  179.1010  141.4100 S   0  0  0  0  0  0  0  0  0  0  0  0
  187.7770  178.5080  140.0000 C   0  0  2  0  0  3  0  0  0  0  0  0
  188.7760  177.5400  142.9420 C   0  0  1  0  0  3  0  0  0  0  0  0
  189.0230  177.6750  139.6870 N   0  0  0  0  0  2  0  0  0  0  0  0
  191.9850  176.4640  143.5730 C   0  0  0  0  0  3  0  0  0  0  0  0
  190.1160  176.9260  145.1680 C   0  0  1  0  0  0  0  0  0  0  0  0
  191.6710  176.9630  144.9090 C   0  0  0  0  0  2  0  0  0  0  0  0
  188.4930  177.9200  145.6440 C   0  0  2  0  0  0  0  0  0  0  0  0
  189.9570  177.1700  140.4720 C   0  0  2  0  0  3  0  0  0  0  0  0
  187.1350  178.4360  141.4910 C   0  0  2  0  0  3  0  0  0  0  0  0
  190.9960  176.6420  142.6400 C   0  0  0  0  0  0  0  0  0  0  0  0
  187.2840  177.2640  142.5740 C   0  0  0  0  0  2  0  0  0  0  0  0
  189.2810  177.9600  144.4080 C   0  0  2  0  0  3  0  0  0  0  0  0
  191.1250  176.4430  139.6680 C   0  0  0  0  0  2  0  0  0  0  0  0
  190.9490  175.7330  138.5860 C   0  0  0  0  0  2  0  0  0  0  0  0
  192.1800  175.1060  138.1070 C   0  0  0  0  0  2  0  0  0  0  0  0
  193.1500  176.1940  137.7970 N   0  0  0  0  0  2  0  0  0  0  0  0
  194.3220  174.7190  135.9410 C   0  0  0  0  0  2  0  0  0  0  0  0
  193.9910  174.0140  137.2570 C   0  0  2  0  0  3  0  0  0  0  0  0
  194.3730  175.4360  137.3080 C   0  0  2  0  0  3  0  0  0  0  0  0
  195.1170  173.1920  137.7910 C   0  0  0  0  0  0  0  0  0  0  0  0
  195.3430  173.3830  139.0490 O   0  0  0  0  0  0  0  0  0  0  0  0
  194.9100  170.5580  138.8470 O   0  0  0  0  0  0  0  0  0  0  0  0
  195.6540  170.6940  137.8570 C   0  0  0  0  0  0  0  0  0  0  0  0
  195.7070  172.0000  137.1770 N   0  0  0  0  0  2  0  0  0  0  0  0
  194.9680  168.5870  136.6810 C   0  0  2  0  0  3  0  0  0  0  0  0
  196.1300  168.9100  135.8130 C   0  0  0  0  0  2  0  0  0  0  0  0
  193.9490  169.2980  135.8150 C   0  0  0  0  0  1  0  0  0  0  0  0
  196.1570  169.3490  137.2420 C   0  0  1  0  0  0  0  0  0  0  0  0
  199.5190  167.9160  137.6140 C   0  0  0  0  0  1  0  0  0  0  0  0
  198.5240  168.9670  137.6910 C   0  0  0  0  0  0  0  0  0  0  0  0
  198.9280  170.1430  137.6050 O   0  0  0  0  0  0  0  0  0  0  0  0
  197.1770  168.6830  138.0590 N   0  0  0  0  0  2  0  0  0  0  0  0
  187.3350  178.7750  146.0730 C   0  0  0  0  0  2  0  0  0  0  0  0
  185.9770  178.0370  145.5910 C   0  0  0  0  0  0  0  0  0  0  0  0
  185.6600  176.7970  145.5180 O   0  0  0  0  0  0  0  0  0  0  0  0
  183.3180  178.2980  145.3570 S   0  0  0  0  0  0  0  0  0  0  0  0
  182.6090  179.5310  144.4680 C   0  0  0  0  0  3  0  0  0  0  0  0
  184.8570  178.7650  145.1060 C   0  0  0  0  0  0  0  0  0  0  0  0
  184.9160  179.8710  144.4180 N   0  0  0  0  0  0  0  0  0  0  0  0
  183.6550  180.2790  144.0460 N   0  0  0  0  0  0  0  0  0  0  0  0
  184.3460  179.3830  138.7780 C   0  0  0  0  0  2  0  0  0  0  0  0
  182.9950  178.7970  138.8420 C   0  0  0  0  0  2  0  0  0  0  0  0
  182.9370  177.3570  138.2850 C   0  0  0  0  0  2  0  0  0  0  0  0
  182.3920  177.3890  136.8600 C   0  0  0  0  0  0  0  0  0  0  0  0
  181.7790  178.3690  136.4200 O   0  0  0  0  0  0  0  0  0  0  0  0
  182.9980  176.3640  135.7790 C   0  0  0  0  0  2  0  0  0  0  0  0
  188.3870  173.2380  136.9890 C   0  0  0  0  0  2  0  0  0  0  0  0
  184.6520  174.1260  136.4110 C   0  0  2  0  0  0  0  0  0  0  0  0
  183.7050  173.8290  137.6120 C   0  0  0  0  0  2  0  0  0  0  0  0
  186.0860  174.0090  136.9820 C   0  0  2  0  0  3  0  0  0  0  0  0
  188.1880  175.6140  136.0320 C   0  0  0  0  0  2  0  0  0  0  0  0
  184.4030  175.5740  135.8800 C   0  0  2  0  0  3  0  0  0  0  0  0
  186.7160  175.3650  136.4580 C   0  0  1  0  0  3  0  0  0  0  0  0
  188.8800  174.2440  135.9180 C   0  0  0  0  0  2  0  0  0  0  0  0
  182.3980  173.4260  136.0530 O   0  0  0  0  0  1  0  0  0  0  0  0
  183.6440  172.9750  136.4150 C   0  0  1  0  0  3  0  0  0  0  0  0
  185.8730  177.2730  135.0060 O   0  0  0  0  0  1  0  0  0  0  0  0
  186.9400  172.7410  136.8010 C   0  0  0  0  0  2  0  0  0  0  0  0
  185.6110  176.4420  136.1500 C   0  0  1  0  0  3  0  0  0  0  0  0
  2  5  1  0  0  0  0
  3  1  2  0  0  0  0
  4 16  2  0  0  0  0
  4  8  1  0  0  0  0
  5 47  1  6  0  0  0
  5  6  1  0  0  0  0
  6 15  1  0  0  0  0
  7  2  1  6  0  0  0
  7 15  1  0  0  0  0
  8 17  1  1  0  0  0
  8 18  1  0  0  0  0
  9  7  1  0  0  0  0
  9 14  1  0  0  0  0
 10 12  1  0  0  0  0
 11 12  1  6  0  0  0
 11 13  1  0  0  0  0
 11  3  1  0  0  0  0
 13 39  1  1  0  0  0
 13  3  1  0  0  0  0
 14 19  1  6  0  0  0
 14  4  1  0  0  0  0
 15 17  1  6  0  0  0
 16 10  2  0  0  0  0
 18 11  1  0  0  0  0
 18 13  1  0  0  0  0
 20 19  1  0  0  0  0
 21 20  1  0  0  0  0
 22 21  1  0  0  0  0
 23 24  1  0  0  0  0
 23 25  1  0  0  0  0
 24 25  1  0  0  0  0
 24 26  1  0  0  0  0
 25 22  1  0  0  0  0
 26 27  2  0  0  0  0
 29 28  2  0  0  0  0
 30 26  1  0  0  0  0
 30 29  1  0  0  0  0
 31 34  1  0  0  0  0
 32 31  1  0  0  0  0
 32 34  1  0  0  0  0
 33 31  1  0  0  0  0
 34 29  1  0  0  0  0
 34 38  1  0  0  0  0
 35 36  1  0  0  0  0
 36 38  1  0  0  0  0
 37 36  2  0  0  0  0
 40 39  1  0  0  0  0
 41 40  2  0  0  0  0
 43 42  1  0  0  0  0
 44 42  1  0  0  0  0
 44 40  1  0  0  0  0
 45 44  2  0  0  0  0
 46 45  1  0  0  0  0
 46 43  2  0  0  0  0
 47 48  1  0  0  0  0
 49 48  1  0  0  0  0
 50 49  1  0  0  0  0
 51 50  2  0  0  0  0
 52 58  1  0  0  0  0
 52 50  1  0  0  0  0
 54 62  1  0  0  0  0
 54 56  1  0  0  0  0
 54 55  1  0  0  0  0
 57 59  1  0  0  0  0
 58 65  1  0  0  0  0
 58 54  1  0  0  0  0
 59 56  1  0  0  0  0
 60 57  1  0  0  0  0
 60 53  1  0  0  0  0
 61 62  1  0  0  0  0
 62 55  1  0  0  0  0
 63 65  1  0  0  0  0
 64 56  1  0  0  0  0
 64 53  1  0  0  0  0
 65 59  1  0  0  0  0
M  END
>  <MODEL>
5

>  <REMARK>
 VINA RESULT:      -6.9      3.421     10.455
  Name = 
  16 active torsions:
  status: ('A' for Active; 'I' for Inactive)
    1  A    between atoms: N_1  and  C_15
    2  A    between atoms: N_1  and  C_40
    3  A    between atoms: C_3  and  C_34
    4  A    between atoms: C_4  and  C_56
    5  A    between atoms: C_9  and  C_20
    6  A    between atoms: C_9  and  C_46
    7  A    between atoms: C_15  and  C_54
    8  A    between atoms: C_20  and  C_64
    9  A    between atoms: C_21  and  C_25
   10  A    between atoms: C_24  and  C_41
   11  A    between atoms: C_25  and  C_46
   12  A    between atoms: C_28  and  C_60
   13  A    between atoms: C_31  and  C_64
   14  A    between atoms: N_36  and  C_60
   15  A    between atoms: C_41  and  C_50
   16  A    between atoms: C_50  and  C_53
                            x       y       z     vdW  Elec       q    Type
                         _______ _______ _______ _____ _____    ______ ____

>  <TORSDO>
F 16

$$$$
=
 OpenBabel10222421333D

 65 75  0  0  1  0  0  0  0  0999 V2000
  191.9750  177.3630  144.6550 C   0  0  0  0  0  2  0  0  0  0  0  0
  184.7650  178.9550  138.5170 C   0  0  0  0  0  2  0  0  0  0  0  0
  191.1300  177.3890  143.6330 C   0  0  0  0  0  0  0  0  0  0  0  0
  189.2460  177.4730  139.5240 C   0  0  0  0  0  0  0  0  0  0  0  0
  184.0190  178.6910  139.7930 C   0  0  1  0  0  3  0  0  0  0  0  0
  184.9760  179.1370  141.3880 S   0  0  0  0  0  0  0  0  0  0  0  0
  186.3420  178.9480  138.9900 C   0  0  2  0  0  3  0  0  0  0  0  0
  188.6730  177.7870  140.9400 C   0  0  1  0  0  3  0  0  0  0  0  0
  187.3190  178.2930  138.0110 N   0  0  0  0  0  2  0  0  0  0  0  0
  191.8340  177.0030  139.8240 C   0  0  0  0  0  3  0  0  0  0  0  0
  190.9440  177.0880  142.1590 C   0  0  1  0  0  0  0  0  0  0  0  0
  192.1800  177.3210  141.2070 C   0  0  0  0  0  2  0  0  0  0  0  0
  189.7070  177.8460  143.4800 C   0  0  2  0  0  0  0  0  0  0  0  0
  188.5370  177.8110  138.1810 C   0  0  2  0  0  3  0  0  0  0  0  0
  186.5000  178.6500  140.5790 C   0  0  2  0  0  3  0  0  0  0  0  0
  190.5120  177.1720  139.5030 C   0  0  0  0  0  0  0  0  0  0  0  0
  187.2020  177.3930  141.2820 C   0  0  0  0  0  2  0  0  0  0  0  0
  189.8020  178.1010  142.0400 C   0  0  2  0  0  3  0  0  0  0  0  0
  189.2050  177.3030  136.8270 C   0  0  0  0  0  2  0  0  0  0  0  0
  188.7560  176.3120  136.1050 C   0  0  0  0  0  2  0  0  0  0  0  0
  189.6120  176.0030  134.9620 C   0  0  0  0  0  2  0  0  0  0  0  0
  189.4770  174.5480  134.6740 N   0  0  0  0  0  2  0  0  0  0  0  0
  191.2720  172.8160  135.5510 C   0  0  0  0  0  2  0  0  0  0  0  0
  191.3940  174.2460  136.0820 C   0  0  2  0  0  3  0  0  0  0  0  0
  190.9140  174.0550  134.7020 C   0  0  2  0  0  3  0  0  0  0  0  0
  192.7870  174.7790  136.0400 C   0  0  0  0  0  0  0  0  0  0  0  0
  192.9140  175.9330  136.6080 O   0  0  0  0  0  0  0  0  0  0  0  0
  194.8270  174.2850  137.9620 O   0  0  0  0  0  0  0  0  0  0  0  0
  195.0720  173.9200  136.7970 C   0  0  0  0  0  0  0  0  0  0  0  0
  194.0140  174.0230  135.7770 N   0  0  0  0  0  2  0  0  0  0  0  0
  197.3960  173.8310  135.8540 C   0  0  2  0  0  3  0  0  0  0  0  0
  197.7280  173.3160  137.2080 C   0  0  0  0  0  2  0  0  0  0  0  0
  197.6810  175.2800  136.1850 C   0  0  0  0  0  1  0  0  0  0  0  0
  196.3650  173.0530  136.6550 C   0  0  1  0  0  0  0  0  0  0  0  0
  196.7000  169.5010  137.5300 C   0  0  0  0  0  1  0  0  0  0  0  0
  196.0510  170.7970  137.5280 C   0  0  0  0  0  0  0  0  0  0  0  0
  195.3110  171.0660  138.4950 O   0  0  0  0  0  0  0  0  0  0  0  0
  196.0870  171.6400  136.3800 N   0  0  0  0  0  2  0  0  0  0  0  0
  188.8620  178.5210  144.5230 C   0  0  0  0  0  2  0  0  0  0  0  0
  187.5790  177.5720  144.8000 C   0  0  0  0  0  0  0  0  0  0  0  0
  187.2920  176.3890  144.4030 O   0  0  0  0  0  0  0  0  0  0  0  0
  186.5660  178.2230  147.1960 S   0  0  0  0  0  0  0  0  0  0  0  0
  184.9540  178.6350  147.4110 C   0  0  0  0  0  3  0  0  0  0  0  0
  186.4770  178.0090  145.5850 C   0  0  0  0  0  0  0  0  0  0  0  0
  185.2890  178.2890  145.1290 N   0  0  0  0  0  0  0  0  0  0  0  0
  184.4370  178.6150  146.1610 N   0  0  0  0  0  0  0  0  0  0  0  0
  182.7110  179.5740  139.6670 C   0  0  0  0  0  2  0  0  0  0  0  0
  181.6100  178.8940  140.3730 C   0  0  0  0  0  2  0  0  0  0  0  0
  180.2550  179.0220  139.6410 C   0  0  0  0  0  2  0  0  0  0  0  0
  180.4990  179.0770  138.1360 C   0  0  0  0  0  0  0  0  0  0  0  0
  181.0430  180.0500  137.5990 O   0  0  0  0  0  0  0  0  0  0  0  0
  180.4790  177.7020  137.3010 C   0  0  0  0  0  2  0  0  0  0  0  0
  185.6810  174.0830  136.9560 C   0  0  0  0  0  2  0  0  0  0  0  0
  182.1560  175.4550  137.8310 C   0  0  2  0  0  0  0  0  0  0  0  0
  181.8880  175.6760  139.3500 C   0  0  0  0  0  2  0  0  0  0  0  0
  183.6840  175.2350  137.7130 C   0  0  2  0  0  3  0  0  0  0  0  0
  185.1310  176.1040  135.4670 C   0  0  0  0  0  2  0  0  0  0  0  0
  181.7330  176.7240  137.0240 C   0  0  2  0  0  3  0  0  0  0  0  0
  184.0340  176.2560  136.5540 C   0  0  1  0  0  3  0  0  0  0  0  0
  185.6370  174.6510  135.5150 C   0  0  0  0  0  2  0  0  0  0  0  0
  179.9820  175.1130  138.7560 O   0  0  0  0  0  1  0  0  0  0  0  0
  181.2340  174.5550  138.6560 C   0  0  1  0  0  3  0  0  0  0  0  0
  182.6660  177.8190  135.0890 O   0  0  0  0  0  1  0  0  0  0  0  0
  184.3040  173.8300  137.6000 C   0  0  0  0  0  2  0  0  0  0  0  0
  182.9530  177.3940  136.4330 C   0  0  1  0  0  3  0  0  0  0  0  0
  2  5  1  0  0  0  0
  3  1  2  0  0  0  0
  4  8  1  0  0  0  0
  5 47  1  6  0  0  0
  5  6  1  0  0  0  0
  7  2  1  6  0  0  0
  7 15  1  0  0  0  0
  8 17  1  1  0  0  0
  8 18  1  0  0  0  0
  9 14  1  0  0  0  0
  9  7  1  0  0  0  0
 10 12  1  0  0  0  0
 11 12  1  6  0  0  0
 11 13  1  0  0  0  0
 11  3  1  0  0  0  0
 13  3  1  0  0  0  0
 13 39  1  1  0  0  0
 14 19  1  6  0  0  0
 14  4  1  0  0  0  0
 15 17  1  6  0  0  0
 15  6  1  0  0  0  0
 16  4  2  0  0  0  0
 16 10  2  0  0  0  0
 18 11  1  0  0  0  0
 18 13  1  0  0  0  0
 20 19  1  0  0  0  0
 21 20  1  0  0  0  0
 22 25  1  0  0  0  0
 22 21  1  0  0  0  0
 23 24  1  0  0  0  0
 25 23  1  0  0  0  0
 25 24  1  0  0  0  0
 26 24  1  0  0  0  0
 26 27  2  0  0  0  0
 29 28  2  0  0  0  0
 30 26  1  0  0  0  0
 30 29  1  0  0  0  0
 31 33  1  0  0  0  0
 31 34  1  0  0  0  0
 31 32  1  0  0  0  0
 34 29  1  0  0  0  0
 34 32  1  0  0  0  0
 36 35  1  0  0  0  0
 36 37  2  0  0  0  0
 38 34  1  0  0  0  0
 38 36  1  0  0  0  0
 39 40  1  0  0  0  0
 40 44  1  0  0  0  0
 41 40  2  0  0  0  0
 42 43  1  0  0  0  0
 44 42  1  0  0  0  0
 45 44  2  0  0  0  0
 45 46  1  0  0  0  0
 46 43  2  0  0  0  0
 47 48  1  0  0  0  0
 49 48  1  0  0  0  0
 50 49  1  0  0  0  0
 51 50  2  0  0  0  0
 52 50  1  0  0  0  0
 53 64  1  0  0  0  0
 54 62  1  0  0  0  0
 54 55  1  0  0  0  0
 56 54  1  0  0  0  0
 57 60  1  0  0  0  0
 57 59  1  0  0  0  0
 58 52  1  0  0  0  0
 58 54  1  0  0  0  0
 59 56  1  0  0  0  0
 60 53  1  0  0  0  0
 62 61  1  0  0  0  0
 62 55  1  0  0  0  0
 63 65  1  0  0  0  0
 64 56  1  0  0  0  0
 65 59  1  0  0  0  0
 65 58  1  0  0  0  0
M  END
>  <MODEL>
6

>  <REMARK>
 VINA RESULT:      -6.6      3.181     10.394
  Name = 
  16 active torsions:
  status: ('A' for Active; 'I' for Inactive)
    1  A    between atoms: N_1  and  C_15
    2  A    between atoms: N_1  and  C_40
    3  A    between atoms: C_3  and  C_34
    4  A    between atoms: C_4  and  C_56
    5  A    between atoms: C_9  and  C_20
    6  A    between atoms: C_9  and  C_46
    7  A    between atoms: C_15  and  C_54
    8  A    between atoms: C_20  and  C_64
    9  A    between atoms: C_21  and  C_25
   10  A    between atoms: C_24  and  C_41
   11  A    between atoms: C_25  and  C_46
   12  A    between atoms: C_28  and  C_60
   13  A    between atoms: C_31  and  C_64
   14  A    between atoms: N_36  and  C_60
   15  A    between atoms: C_41  and  C_50
   16  A    between atoms: C_50  and  C_53
                            x       y       z     vdW  Elec       q    Type
                         _______ _______ _______ _____ _____    ______ ____

>  <TORSDO>
F 16

$$$$
=
 OpenBabel10222421333D

 65 75  0  0  1  0  0  0  0  0999 V2000
  190.7850  178.2990  143.6160 C   0  0  0  0  0  2  0  0  0  0  0  0
  187.4290  176.8180  134.7430 C   0  0  0  0  0  2  0  0  0  0  0  0
  190.5590  177.9080  142.3690 C   0  0  0  0  0  0  0  0  0  0  0  0
  190.9540  176.6770  138.0380 C   0  0  0  0  0  0  0  0  0  0  0  0
  186.1820  176.6620  135.5650 C   0  0  1  0  0  3  0  0  0  0  0  0
  186.1740  177.6460  137.2040 S   0  0  0  0  0  0  0  0  0  0  0  0
  188.5570  177.2810  135.8490 C   0  0  2  0  0  3  0  0  0  0  0  0
  189.7270  177.1390  138.8820 C   0  0  1  0  0  3  0  0  0  0  0  0
  189.9530  176.6820  135.6550 N   0  0  0  0  0  2  0  0  0  0  0  0
  193.0880  176.9020  139.5870 C   0  0  0  0  0  3  0  0  0  0  0  0
  191.1570  177.2670  141.1320 C   0  0  1  0  0  0  0  0  0  0  0  0
  192.6700  177.5770  140.8130 C   0  0  0  0  0  2  0  0  0  0  0  0
  189.3590  177.9750  141.4690 C   0  0  2  0  0  0  0  0  0  0  0  0
  190.9700  176.5470  136.4870 C   0  0  2  0  0  3  0  0  0  0  0  0
  187.9400  177.3710  137.3480 C   0  0  2  0  0  3  0  0  0  0  0  0
  192.0880  176.6830  138.6750 C   0  0  0  0  0  0  0  0  0  0  0  0
  188.3280  176.4920  138.6310 C   0  0  0  0  0  2  0  0  0  0  0  0
  190.1250  177.9350  140.2200 C   0  0  2  0  0  3  0  0  0  0  0  0
  192.2680  175.9350  135.7950 C   0  0  0  0  0  2  0  0  0  0  0  0
  192.2570  175.2070  134.7100 C   0  0  0  0  0  2  0  0  0  0  0  0
  193.5800  174.7040  134.3460 C   0  0  0  0  0  2  0  0  0  0  0  0
  194.5190  175.8600  134.3460 N   0  0  0  0  0  2  0  0  0  0  0  0
  196.9060  176.1660  135.4440 C   0  0  0  0  0  2  0  0  0  0  0  0
  196.6380  174.8200  134.7670 C   0  0  2  0  0  3  0  0  0  0  0  0
  195.5140  175.4970  135.4360 C   0  0  2  0  0  3  0  0  0  0  0  0
  197.0560  173.6470  135.5910 C   0  0  0  0  0  0  0  0  0  0  0  0
  197.4550  173.9680  136.7780 O   0  0  0  0  0  0  0  0  0  0  0  0
  195.3560  172.0730  137.2440 O   0  0  0  0  0  0  0  0  0  0  0  0
  195.9400  171.4690  136.3250 C   0  0  0  0  0  0  0  0  0  0  0  0
  196.7310  172.2400  135.3500 N   0  0  0  0  0  2  0  0  0  0  0  0
  196.5750  169.0460  136.4880 C   0  0  2  0  0  3  0  0  0  0  0  0
  195.2420  168.9300  137.1360 C   0  0  0  0  0  2  0  0  0  0  0  0
  197.3380  169.2430  137.7810 C   0  0  0  0  0  1  0  0  0  0  0  0
  195.4520  169.9990  136.1120 C   0  0  1  0  0  0  0  0  0  0  0  0
  192.4050  168.8770  134.3940 C   0  0  0  0  0  1  0  0  0  0  0  0
  193.2600  169.8440  135.0540 C   0  0  0  0  0  0  0  0  0  0  0  0
  192.7020  170.8010  135.6250 O   0  0  0  0  0  0  0  0  0  0  0  0
  194.6740  169.8190  134.8830 N   0  0  0  0  0  2  0  0  0  0  0  0
  188.0440  178.6380  141.7690 C   0  0  0  0  0  2  0  0  0  0  0  0
  187.2710  177.7180  142.8550 C   0  0  0  0  0  0  0  0  0  0  0  0
  187.5060  176.5380  143.2940 O   0  0  0  0  0  0  0  0  0  0  0  0
  184.7290  178.5550  142.6920 S   0  0  0  0  0  0  0  0  0  0  0  0
  183.8480  179.0280  144.0390 C   0  0  0  0  0  3  0  0  0  0  0  0
  186.0830  178.1570  143.5020 C   0  0  0  0  0  0  0  0  0  0  0  0
  185.9300  178.2910  144.7890 N   0  0  0  0  0  0  0  0  0  0  0  0
  184.6840  178.8010  145.0780 N   0  0  0  0  0  0  0  0  0  0  0  0
  185.0240  177.1650  134.6110 C   0  0  0  0  0  2  0  0  0  0  0  0
  183.8970  176.2190  134.6930 C   0  0  0  0  0  2  0  0  0  0  0  0
  183.9840  175.2840  135.9200 C   0  0  0  0  0  2  0  0  0  0  0  0
  182.6230  174.6350  136.1570 C   0  0  0  0  0  0  0  0  0  0  0  0
  182.5190  173.4550  136.5180 O   0  0  0  0  0  0  0  0  0  0  0  0
  181.3460  175.5830  136.3910 C   0  0  0  0  0  2  0  0  0  0  0  0
  180.6760  181.2760  139.1150 C   0  0  0  0  0  2  0  0  0  0  0  0
  181.4190  177.5180  138.4880 C   0  0  2  0  0  0  0  0  0  0  0  0
  180.6010  176.5230  139.3660 C   0  0  0  0  0  2  0  0  0  0  0  0
  180.7290  178.8900  138.6740 C   0  0  2  0  0  3  0  0  0  0  0  0
  180.6160  180.7780  136.5960 C   0  0  0  0  0  2  0  0  0  0  0  0
  181.3550  177.0840  136.9890 C   0  0  2  0  0  3  0  0  0  0  0  0
  180.5590  179.3340  137.1620 C   0  0  1  0  0  3  0  0  0  0  0  0
  181.1620  181.6950  137.7040 C   0  0  0  0  0  2  0  0  0  0  0  0
  182.3730  175.4540  139.2190 O   0  0  0  0  0  1  0  0  0  0  0  0
  182.0340  176.7180  139.6390 C   0  0  1  0  0  3  0  0  0  0  0  0
  181.2330  178.3280  134.9280 O   0  0  0  0  0  1  0  0  0  0  0  0
  181.2700  179.9560  139.6450 C   0  0  0  0  0  2  0  0  0  0  0  0
  180.5750  178.1000  136.1870 C   0  0  1  0  0  3  0  0  0  0  0  0
  2  5  1  0  0  0  0
  3  1  2  0  0  0  0
  4 16  2  0  0  0  0
  4  8  1  0  0  0  0
  5 47  1  6  0  0  0
  5  6  1  0  0  0  0
  6 15  1  0  0  0  0
  7  2  1  6  0  0  0
  7 15  1  0  0  0  0
  8 17  1  1  0  0  0
  8 18  1  0  0  0  0
  9  7  1  0  0  0  0
  9 14  1  0  0  0  0
 10 12  1  0  0  0  0
 11 12  1  6  0  0  0
 11 13  1  0  0  0  0
 11  3  1  0  0  0  0
 13 39  1  1  0  0  0
 13  3  1  0  0  0  0
 14 19  1  1  0  0  0
 14  4  1  0  0  0  0
 15 17  1  6  0  0  0
 16 10  2  0  0  0  0
 18 11  1  0  0  0  0
 18 13  1  0  0  0  0
 20 19  1  0  0  0  0
 21 20  1  0  0  0  0
 22 21  1  0  0  0  0
 22 25  1  0  0  0  0
 24 25  1  0  0  0  0
 24 23  1  0  0  0  0
 24 26  1  0  0  0  0
 25 23  1  0  0  0  0
 26 27  2  0  0  0  0
 29 28  2  0  0  0  0
 30 26  1  0  0  0  0
 30 29  1  0  0  0  0
 31 32  1  0  0  0  0
 31 33  1  0  0  0  0
 34 29  1  0  0  0  0
 34 31  1  0  0  0  0
 34 32  1  0  0  0  0
 35 36  1  0  0  0  0
 36 37  2  0  0  0  0
 38 36  1  0  0  0  0
 38 34  1  0  0  0  0
 39 40  1  0  0  0  0
 40 41  2  0  0  0  0
 40 44  1  0  0  0  0
 42 44  1  0  0  0  0
 42 43  1  0  0  0  0
 43 46  2  0  0  0  0
 44 45  2  0  0  0  0
 45 46  1  0  0  0  0
 47 48  1  0  0  0  0
 48 49  1  0  0  0  0
 49 50  1  0  0  0  0
 50 52  1  0  0  0  0
 50 51  2  0  0  0  0
 52 58  1  0  0  0  0
 53 64  1  0  0  0  0
 54 56  1  0  0  0  0
 54 55  1  0  0  0  0
 54 62  1  0  0  0  0
 55 62  1  0  0  0  0
 56 64  1  0  0  0  0
 57 59  1  0  0  0  0
 57 60  1  0  0  0  0
 58 54  1  0  0  0  0
 59 56  1  0  0  0  0
 60 53  1  0  0  0  0
 61 62  1  0  0  0  0
 63 65  1  0  0  0  0
 65 58  1  0  0  0  0
 65 59  1  0  0  0  0
M  END
>  <MODEL>
7

>  <REMARK>
 VINA RESULT:      -6.6      3.545     11.830
  Name = 
  16 active torsions:
  status: ('A' for Active; 'I' for Inactive)
    1  A    between atoms: N_1  and  C_15
    2  A    between atoms: N_1  and  C_40
    3  A    between atoms: C_3  and  C_34
    4  A    between atoms: C_4  and  C_56
    5  A    between atoms: C_9  and  C_20
    6  A    between atoms: C_9  and  C_46
    7  A    between atoms: C_15  and  C_54
    8  A    between atoms: C_20  and  C_64
    9  A    between atoms: C_21  and  C_25
   10  A    between atoms: C_24  and  C_41
   11  A    between atoms: C_25  and  C_46
   12  A    between atoms: C_28  and  C_60
   13  A    between atoms: C_31  and  C_64
   14  A    between atoms: N_36  and  C_60
   15  A    between atoms: C_41  and  C_50
   16  A    between atoms: C_50  and  C_53
                            x       y       z     vdW  Elec       q    Type
                         _______ _______ _______ _____ _____    ______ ____

>  <TORSDO>
F 16

$$$$
=
 OpenBabel10222421333D

 65 75  0  0  1  0  0  0  0  0999 V2000
  191.9810  177.5250  144.6930 C   0  0  0  0  0  2  0  0  0  0  0  0
  184.6780  178.7210  138.5740 C   0  0  0  0  0  2  0  0  0  0  0  0
  191.1330  177.5040  143.6720 C   0  0  0  0  0  0  0  0  0  0  0  0
  189.2360  177.4820  139.5700 C   0  0  0  0  0  0  0  0  0  0  0  0
  183.9520  178.4190  139.8530 C   0  0  1  0  0  3  0  0  0  0  0  0
  184.8870  178.9170  141.4440 S   0  0  0  0  0  0  0  0  0  0  0  0
  186.2550  178.7990  139.0420 C   0  0  2  0  0  3  0  0  0  0  0  0
  188.6500  177.7660  140.9870 C   0  0  1  0  0  3  0  0  0  0  0  0
  187.2620  178.1950  138.0610 N   0  0  0  0  0  2  0  0  0  0  0  0
  191.8460  177.1520  139.8620 C   0  0  0  0  0  3  0  0  0  0  0  0
  190.9590  177.1920  142.1990 C   0  0  1  0  0  0  0  0  0  0  0  0
  192.1780  177.4890  141.2440 C   0  0  0  0  0  2  0  0  0  0  0  0
  189.6880  177.8840  143.5240 C   0  0  2  0  0  0  0  0  0  0  0  0
  188.5050  177.7790  138.2290 C   0  0  2  0  0  3  0  0  0  0  0  0
  186.4330  178.5120  140.6310 C   0  0  2  0  0  3  0  0  0  0  0  0
  190.5150  177.2480  139.5450 C   0  0  0  0  0  0  0  0  0  0  0  0
  187.2030  177.2950  141.3340 C   0  0  0  0  0  2  0  0  0  0  0  0
  189.7640  178.1420  142.0830 C   0  0  2  0  0  3  0  0  0  0  0  0
  189.1950  177.3060  136.8730 C   0  0  0  0  0  2  0  0  0  0  0  0
  188.7670  176.3230  136.1260 C   0  0  0  0  0  2  0  0  0  0  0  0
  189.6410  176.0470  134.9880 C   0  0  0  0  0  2  0  0  0  0  0  0
  189.5260  174.5970  134.6700 N   0  0  0  0  0  2  0  0  0  0  0  0
  191.3240  172.8180  135.4430 C   0  0  0  0  0  2  0  0  0  0  0  0
  191.4090  174.1970  136.1000 C   0  0  2  0  0  3  0  0  0  0  0  0
  190.9690  174.1220  134.6960 C   0  0  2  0  0  3  0  0  0  0  0  0
  192.7940  174.7500  136.1450 C   0  0  0  0  0  0  0  0  0  0  0  0
  192.8680  175.9080  136.7150 O   0  0  0  0  0  0  0  0  0  0  0  0
  194.7140  174.2910  138.1950 O   0  0  0  0  0  0  0  0  0  0  0  0
  195.0380  173.9270  137.0490 C   0  0  0  0  0  0  0  0  0  0  0  0
  194.0450  174.0110  135.9640 N   0  0  0  0  0  2  0  0  0  0  0  0
  196.0940  171.7310  137.6500 C   0  0  2  0  0  3  0  0  0  0  0  0
  196.6020  171.8030  136.2550 C   0  0  0  0  0  2  0  0  0  0  0  0
  194.8520  170.9380  137.3020 C   0  0  0  0  0  1  0  0  0  0  0  0
  196.3490  173.0780  136.9930 C   0  0  1  0  0  0  0  0  0  0  0  0
  199.4050  174.7780  135.8690 C   0  0  0  0  0  1  0  0  0  0  0  0
  198.0020  174.6990  136.2260 C   0  0  0  0  0  0  0  0  0  0  0  0
  197.2320  175.5250  135.7000 O   0  0  0  0  0  0  0  0  0  0  0  0
  197.5570  173.8560  137.2850 N   0  0  0  0  0  2  0  0  0  0  0  0
  188.8110  178.5140  144.5680 C   0  0  0  0  0  2  0  0  0  0  0  0
  187.5580  177.5190  144.8190 C   0  0  0  0  0  0  0  0  0  0  0  0
  187.3700  176.2900  144.5100 O   0  0  0  0  0  0  0  0  0  0  0  0
  184.9790  178.2360  144.6600 S   0  0  0  0  0  0  0  0  0  0  0  0
  184.1100  178.7730  145.9900 C   0  0  0  0  0  3  0  0  0  0  0  0
  186.3680  177.9570  145.4620 C   0  0  0  0  0  0  0  0  0  0  0  0
  186.2380  178.1820  146.7390 N   0  0  0  0  0  0  0  0  0  0  0  0
  184.9780  178.6600  147.0210 N   0  0  0  0  0  0  0  0  0  0  0  0
  182.5970  179.2300  139.7300 C   0  0  0  0  0  2  0  0  0  0  0  0
  181.5110  178.4330  140.3270 C   0  0  0  0  0  2  0  0  0  0  0  0
  180.2130  178.4620  139.4900 C   0  0  0  0  0  2  0  0  0  0  0  0
  180.5700  178.5340  138.0080 C   0  0  0  0  0  0  0  0  0  0  0  0
  181.0220  179.5660  137.4970 O   0  0  0  0  0  0  0  0  0  0  0  0
  180.8020  177.1610  137.2030 C   0  0  0  0  0  2  0  0  0  0  0  0
  185.9690  173.9160  135.4550 C   0  0  0  0  0  2  0  0  0  0  0  0
  183.0400  176.4620  135.5750 C   0  0  2  0  0  0  0  0  0  0  0  0
  182.0750  176.4220  134.3520 C   0  0  0  0  0  2  0  0  0  0  0  0
  183.8950  175.1760  135.4630 C   0  0  2  0  0  3  0  0  0  0  0  0
  184.8040  173.8060  137.7420 C   0  0  0  0  0  2  0  0  0  0  0  0
  182.2190  176.4460  136.9040 C   0  0  2  0  0  3  0  0  0  0  0  0
  183.7460  174.6020  136.9320 C   0  0  1  0  0  3  0  0  0  0  0  0
  186.1450  173.9170  136.9950 C   0  0  0  0  0  2  0  0  0  0  0  0
  182.0050  178.4540  134.7630 O   0  0  0  0  0  1  0  0  0  0  0  0
  183.0070  177.5510  134.5010 C   0  0  1  0  0  3  0  0  0  0  0  0
  182.5970  175.4130  139.0490 O   0  0  0  0  0  1  0  0  0  0  0  0
  185.3170  175.1850  134.8720 C   0  0  0  0  0  2  0  0  0  0  0  0
  182.4520  175.1480  137.6430 C   0  0  1  0  0  3  0  0  0  0  0  0
  2  5  1  0  0  0  0
  3  1  2  0  0  0  0
  4  8  1  0  0  0  0
  5 47  1  6  0  0  0
  5  6  1  0  0  0  0
  7  2  1  6  0  0  0
  7 15  1  0  0  0  0
  8 17  1  1  0  0  0
  8 18  1  0  0  0  0
  9 14  1  0  0  0  0
  9  7  1  0  0  0  0
 10 12  1  0  0  0  0
 11 12  1  6  0  0  0
 11 13  1  0  0  0  0
 11  3  1  0  0  0  0
 13  3  1  0  0  0  0
 13 39  1  1  0  0  0
 14 19  1  6  0  0  0
 14  4  1  0  0  0  0
 15 17  1  6  0  0  0
 15  6  1  0  0  0  0
 16  4  2  0  0  0  0
 16 10  2  0  0  0  0
 18 11  1  0  0  0  0
 18 13  1  0  0  0  0
 20 19  1  0  0  0  0
 21 20  1  0  0  0  0
 22 25  1  0  0  0  0
 22 21  1  0  0  0  0
 23 24  1  0  0  0  0
 24 26  1  0  0  0  0
 25 23  1  0  0  0  0
 25 24  1  0  0  0  0
 26 27  2  0  0  0  0
 29 28  2  0  0  0  0
 30 26  1  0  0  0  0
 30 29  1  0  0  0  0
 32 34  1  0  0  0  0
 32 31  1  0  0  0  0
 33 31  1  0  0  0  0
 34 29  1  0  0  0  0
 34 38  1  0  0  0  0
 34 31  1  0  0  0  0
 35 36  1  0  0  0  0
 36 38  1  0  0  0  0
 37 36  2  0  0  0  0
 39 40  1  0  0  0  0
 40 44  1  0  0  0  0
 41 40  2  0  0  0  0
 42 44  1  0  0  0  0
 42 43  1  0  0  0  0
 43 46  2  0  0  0  0
 44 45  2  0  0  0  0
 45 46  1  0  0  0  0
 47 48  1  0  0  0  0
 49 48  1  0  0  0  0
 50 49  1  0  0  0  0
 51 50  2  0  0  0  0
 52 50  1  0  0  0  0
 53 60  1  0  0  0  0
 54 58  1  0  0  0  0
 55 62  1  0  0  0  0
 55 54  1  0  0  0  0
 56 54  1  0  0  0  0
 56 59  1  0  0  0  0
 58 52  1  0  0  0  0
 58 65  1  0  0  0  0
 59 65  1  0  0  0  0
 59 57  1  0  0  0  0
 60 57  1  0  0  0  0
 62 61  1  0  0  0  0
 62 54  1  0  0  0  0
 64 53  1  0  0  0  0
 64 56  1  0  0  0  0
 65 63  1  0  0  0  0
M  END
>  <MODEL>
8

>  <REMARK>
 VINA RESULT:      -6.6      3.251     10.353
  Name = 
  16 active torsions:
  status: ('A' for Active; 'I' for Inactive)
    1  A    between atoms: N_1  and  C_15
    2  A    between atoms: N_1  and  C_40
    3  A    between atoms: C_3  and  C_34
    4  A    between atoms: C_4  and  C_56
    5  A    between atoms: C_9  and  C_20
    6  A    between atoms: C_9  and  C_46
    7  A    between atoms: C_15  and  C_54
    8  A    between atoms: C_20  and  C_64
    9  A    between atoms: C_21  and  C_25
   10  A    between atoms: C_24  and  C_41
   11  A    between atoms: C_25  and  C_46
   12  A    between atoms: C_28  and  C_60
   13  A    between atoms: C_31  and  C_64
   14  A    between atoms: N_36  and  C_60
   15  A    between atoms: C_41  and  C_50
   16  A    between atoms: C_50  and  C_53
                            x       y       z     vdW  Elec       q    Type
                         _______ _______ _______ _____ _____    ______ ____

>  <TORSDO>
F 16

$$$$
=
 OpenBabel10222421333D

 65 75  0  0  1  0  0  0  0  0999 V2000
  190.0890  177.3360  147.5720 C   0  0  0  0  0  2  0  0  0  0  0  0
  186.3140  178.6980  138.8500 C   0  0  0  0  0  2  0  0  0  0  0  0
  189.7580  177.3030  146.2880 C   0  0  0  0  0  0  0  0  0  0  0  0
  189.7870  177.0600  141.7750 C   0  0  0  0  0  0  0  0  0  0  0  0
  185.0800  178.6190  139.7020 C   0  0  1  0  0  3  0  0  0  0  0  0
  185.3210  179.1740  141.5150 S   0  0  0  0  0  0  0  0  0  0  0  0
  187.5390  178.6450  139.9490 C   0  0  2  0  0  3  0  0  0  0  0  0
  188.7080  177.5590  142.7850 C   0  0  1  0  0  3  0  0  0  0  0  0
  188.7640  177.8290  139.5290 N   0  0  0  0  0  2  0  0  0  0  0  0
  191.9490  176.4670  143.1820 C   0  0  0  0  0  3  0  0  0  0  0  0
  190.1760  176.8570  144.9010 C   0  0  1  0  0  0  0  0  0  0  0  0
  191.7140  176.9090  144.5530 C   0  0  0  0  0  2  0  0  0  0  0  0
  188.5840  177.8270  145.5120 C   0  0  2  0  0  0  0  0  0  0  0  0
  189.7430  177.2940  140.2370 C   0  0  2  0  0  3  0  0  0  0  0  0
  186.9850  178.5100  141.4700 C   0  0  2  0  0  3  0  0  0  0  0  0
  190.9070  176.6800  142.3160 C   0  0  0  0  0  0  0  0  0  0  0  0
  187.1970  177.2950  142.4940 C   0  0  0  0  0  2  0  0  0  0  0  0
  189.2980  177.9190  144.2350 C   0  0  2  0  0  3  0  0  0  0  0  0
  190.8610  176.6030  139.3370 C   0  0  0  0  0  2  0  0  0  0  0  0
  190.6160  175.8100  138.3280 C   0  0  0  0  0  2  0  0  0  0  0  0
  191.8270  175.2470  137.7360 C   0  0  0  0  0  2  0  0  0  0  0  0
  192.6970  176.3820  137.3180 N   0  0  0  0  0  2  0  0  0  0  0  0
  193.0570  174.7260  135.2870 C   0  0  0  0  0  2  0  0  0  0  0  0
  193.6840  174.3110  136.6200 C   0  0  2  0  0  3  0  0  0  0  0  0
  193.6260  175.7470  136.2970 C   0  0  2  0  0  3  0  0  0  0  0  0
  195.0950  173.8430  136.4930 C   0  0  0  0  0  0  0  0  0  0  0  0
  195.5460  173.8890  135.2820 O   0  0  0  0  0  0  0  0  0  0  0  0
  197.4240  175.4540  136.7760 O   0  0  0  0  0  0  0  0  0  0  0  0
  197.3180  174.4990  137.5690 C   0  0  0  0  0  0  0  0  0  0  0  0
  196.0790  173.7030  137.5690 N   0  0  0  0  0  2  0  0  0  0  0  0
  199.6050  173.7340  138.2640 C   0  0  2  0  0  3  0  0  0  0  0  0
  199.7290  175.1360  138.7410 C   0  0  0  0  0  2  0  0  0  0  0  0
  200.2050  174.0010  136.8990 C   0  0  0  0  0  1  0  0  0  0  0  0
  198.3760  174.5010  138.7200 C   0  0  1  0  0  0  0  0  0  0  0  0
  198.0280  175.4520  142.2510 C   0  0  0  0  0  1  0  0  0  0  0  0
  197.6660  175.4600  140.8480 C   0  0  0  0  0  0  0  0  0  0  0  0
  197.0770  176.4700  140.4170 O   0  0  0  0  0  0  0  0  0  0  0  0
  197.7880  174.2880  140.0470 N   0  0  0  0  0  2  0  0  0  0  0  0
  187.4540  178.6620  146.0440 C   0  0  0  0  0  2  0  0  0  0  0  0
  186.1040  177.7700  145.9520 C   0  0  0  0  0  0  0  0  0  0  0  0
  185.8850  176.5290  146.1800 O   0  0  0  0  0  0  0  0  0  0  0  0
  184.3550  178.2680  143.9810 S   0  0  0  0  0  0  0  0  0  0  0  0
  182.9470  179.1460  144.2260 C   0  0  0  0  0  3  0  0  0  0  0  0
  184.8660  178.3240  145.5250 C   0  0  0  0  0  0  0  0  0  0  0  0
  184.0040  178.9280  146.2940 N   0  0  0  0  0  0  0  0  0  0  0  0
  182.9450  179.4050  145.5540 N   0  0  0  0  0  0  0  0  0  0  0  0
  184.0420  179.5620  138.9670 C   0  0  0  0  0  2  0  0  0  0  0  0
  182.6890  179.2580  139.4670 C   0  0  0  0  0  2  0  0  0  0  0  0
  182.2820  177.7840  139.2450 C   0  0  0  0  0  2  0  0  0  0  0  0
  181.4920  177.6690  137.9450 C   0  0  0  0  0  0  0  0  0  0  0  0
  180.3980  178.2280  137.7960 O   0  0  0  0  0  0  0  0  0  0  0  0
  182.2660  177.2180  136.6090 C   0  0  0  0  0  2  0  0  0  0  0  0
  186.1380  172.1930  136.8110 C   0  0  0  0  0  2  0  0  0  0  0  0
  182.9960  174.4590  136.5560 C   0  0  2  0  0  0  0  0  0  0  0  0
  181.9010  174.2000  137.6350 C   0  0  0  0  0  2  0  0  0  0  0  0
  184.2470  173.6950  137.0530 C   0  0  2  0  0  3  0  0  0  0  0  0
  186.8460  174.6510  136.5740 C   0  0  0  0  0  2  0  0  0  0  0  0
  183.3030  175.9880  136.4630 C   0  0  2  0  0  3  0  0  0  0  0  0
  185.3460  174.8310  136.9290 C   0  0  1  0  0  3  0  0  0  0  0  0
  187.0370  173.2120  136.0650 C   0  0  0  0  0  2  0  0  0  0  0  0
  180.6790  174.7220  136.0410 O   0  0  0  0  0  1  0  0  0  0  0  0
  181.6600  173.7810  136.2450 C   0  0  1  0  0  3  0  0  0  0  0  0
  185.3350  177.2300  136.0920 O   0  0  0  0  0  1  0  0  0  0  0  0
  184.6310  172.3080  136.5070 C   0  0  0  0  0  2  0  0  0  0  0  0
  184.7050  176.2680  136.9550 C   0  0  1  0  0  3  0  0  0  0  0  0
  2  5  1  0  0  0  0
  3  1  2  0  0  0  0
  4 16  2  0  0  0  0
  4  8  1  0  0  0  0
  5 47  1  6  0  0  0
  5  6  1  0  0  0  0
  7  2  1  6  0  0  0
  7 15  1  0  0  0  0
  8 17  1  1  0  0  0
  8 18  1  0  0  0  0
  9  7  1  0  0  0  0
  9 14  1  0  0  0  0
 10 12  1  0  0  0  0
 11 12  1  6  0  0  0
 11 13  1  0  0  0  0
 11  3  1  0  0  0  0
 13 39  1  1  0  0  0
 13  3  1  0  0  0  0
 14 19  1  6  0  0  0
 14  4  1  0  0  0  0
 15  6  1  0  0  0  0
 15 17  1  6  0  0  0
 16 10  2  0  0  0  0
 18 11  1  0  0  0  0
 18 13  1  0  0  0  0
 20 19  1  0  0  0  0
 21 20  1  0  0  0  0
 22 21  1  0  0  0  0
 23 25  1  0  0  0  0
 23 24  1  0  0  0  0
 25 24  1  0  0  0  0
 25 22  1  0  0  0  0
 26 24  1  0  0  0  0
 26 30  1  0  0  0  0
 27 26  2  0  0  0  0
 28 29  2  0  0  0  0
 29 34  1  0  0  0  0
 30 29  1  0  0  0  0
 31 34  1  0  0  0  0
 31 32  1  0  0  0  0
 33 31  1  0  0  0  0
 34 32  1  0  0  0  0
 34 38  1  0  0  0  0
 36 35  1  0  0  0  0
 37 36  2  0  0  0  0
 38 36  1  0  0  0  0
 40 39  1  0  0  0  0
 40 41  2  0  0  0  0
 42 43  1  0  0  0  0
 42 44  1  0  0  0  0
 43 46  2  0  0  0  0
 44 40  1  0  0  0  0
 44 45  2  0  0  0  0
 46 45  1  0  0  0  0
 47 48  1  0  0  0  0
 49 48  1  0  0  0  0
 50 49  1  0  0  0  0
 51 50  2  0  0  0  0
 52 50  1  0  0  0  0
 54 56  1  0  0  0  0
 54 55  1  0  0  0  0
 57 59  1  0  0  0  0
 58 54  1  0  0  0  0
 58 52  1  0  0  0  0
 58 65  1  0  0  0  0
 59 65  1  0  0  0  0
 59 56  1  0  0  0  0
 60 57  1  0  0  0  0
 60 53  1  0  0  0  0
 61 62  1  0  0  0  0
 62 54  1  0  0  0  0
 62 55  1  0  0  0  0
 63 65  1  0  0  0  0
 64 53  1  0  0  0  0
 64 56  1  0  0  0  0
M  END
>  <MODEL>
9

>  <REMARK>
 VINA RESULT:      -6.5      3.429     10.859
  Name = 
  16 active torsions:
  status: ('A' for Active; 'I' for Inactive)
    1  A    between atoms: N_1  and  C_15
    2  A    between atoms: N_1  and  C_40
    3  A    between atoms: C_3  and  C_34
    4  A    between atoms: C_4  and  C_56
    5  A    between atoms: C_9  and  C_20
    6  A    between atoms: C_9  and  C_46
    7  A    between atoms: C_15  and  C_54
    8  A    between atoms: C_20  and  C_64
    9  A    between atoms: C_21  and  C_25
   10  A    between atoms: C_24  and  C_41
   11  A    between atoms: C_25  and  C_46
   12  A    between atoms: C_28  and  C_60
   13  A    between atoms: C_31  and  C_64
   14  A    between atoms: N_36  and  C_60
   15  A    between atoms: C_41  and  C_50
   16  A    between atoms: C_50  and  C_53
                            x       y       z     vdW  Elec       q    Type
                         _______ _______ _______ _____ _____    ______ ____

>  <TORSDO>
F 16

$$$$
