=
 OpenBabel10232409353D

 33 34  0  0  1  0  0  0  0  0999 V2000
  189.2250  177.1200  145.7820 C   0  0  0  0  0  0  0  0  0  0  0  0
  188.2580  178.1050  148.9860 N   0  0  0  0  0  2  0  0  0  0  0  0
  190.2960  177.5610  147.8720 N   0  0  0  0  0  2  0  0  0  0  0  0
  191.6300  177.0540  145.9880 O   0  0  0  0  0  0  0  0  0  0  0  0
  188.2600  177.3870  146.6480 C   0  0  0  0  0  0  0  0  0  0  0  0
  188.8760  177.6360  147.9530 C   0  0  0  0  0  0  0  0  0  0  0  0
  190.4920  177.2240  146.5020 C   0  0  0  0  0  0  0  0  0  0  0  0
  189.0550  176.8720  144.3210 C   0  0  0  0  0  2  0  0  0  0  0  0
  189.4850  178.0990  143.5340 C   0  0  0  0  0  2  0  0  0  0  0  0
  190.8900  177.2950  141.5800 C   0  0  0  0  0  0  0  0  0  0  0  0
  191.9550  177.2350  142.3100 N   0  0  0  0  0  2  0  0  0  0  0  0
  189.6530  177.7580  142.1280 N   0  0  0  0  0  2  0  0  0  0  0  0
  190.9860  177.0230  140.1210 C   0  0  0  0  0  2  0  0  0  0  0  0
  190.0140  177.8340  139.4090 N   0  0  0  0  0  2  0  0  0  0  0  0
  189.1390  176.9220  138.6870 C   0  0  0  0  0  2  0  0  0  0  0  0
  187.7650  177.5420  138.4460 C   0  0  1  0  0  3  0  0  0  0  0  0
  187.5260  178.5840  139.3440 O   0  0  0  0  0  1  0  0  0  0  0  0
  187.5810  178.1350  136.7340 P   0  0  0  0  0  0  0  0  0  0  0  0
  187.4680  179.8220  136.7280 O   0  0  0  0  0  1  0  0  0  0  0  0
  188.9320  177.6630  135.8320 O   0  0  0  0  0  0  0  0  0  0  0  0
  186.3370  177.5450  136.1120 O   0  0  0  0  0  1  0  0  0  0  0  0
  186.8700  177.4500  146.3230 N   0  0  0  0  0  2  0  0  0  0  0  0
  186.3230  178.5520  145.6540 N   0  0  0  0  0  2  0  0  0  0  0  0
  183.3560  178.8070  143.3290 C   0  0  0  0  0  2  0  0  0  0  0  0
  185.4710  178.3820  144.5230 C   0  0  0  0  0  0  0  0  0  0  0  0
  183.5440  179.1830  140.9590 N   0  0  0  0  0  0  0  0  0  0  0  0
  184.2870  178.9950  144.4940 C   0  0  0  0  0  3  0  0  0  0  0  0
  185.8820  177.5030  143.3730 C   0  0  0  0  0  2  0  0  0  0  0  0
  185.5120  178.1420  142.0290 C   0  0  0  0  0  2  0  0  0  0  0  0
  184.1230  178.7430  142.0380 C   0  0  0  0  0  0  0  0  0  0  0  0
  184.4830  180.3030  139.1510 O   0  0  0  0  0  1  0  0  0  0  0  0
  184.1740  178.0590  138.8530 O   0  0  0  0  0  0  0  0  0  0  0  0
  184.0830  179.2100  139.6280 C   0  0  0  0  0  0  0  0  0  0  0  0
  1  7  1  0  0  0  0
  1  5  2  0  0  0  0
  3  6  1  0  0  0  0
  4  7  2  0  0  0  0
  5  6  1  0  0  0  0
  6  2  2  0  0  0  0
  7  3  1  0  0  0  0
  8  1  1  0  0  0  0
  9  8  1  0  0  0  0
 10 12  1  0  0  0  0
 10 11  2  0  0  0  0
 12  9  1  0  0  0  0
 13 10  1  0  0  0  0
 14 13  1  0  0  0  0
 15 14  1  0  0  0  0
 16 15  1  0  0  0  0
 16 17  1  1  0  0  0
 18 16  1  0  0  0  0
 19 18  1  0  0  0  0
 20 18  2  0  0  0  0
 21 18  1  0  0  0  0
 22  5  1  0  0  0  0
 23 22  1  0  0  0  0
 24 27  1  0  0  0  0
 25 23  1  0  0  0  0
 26 30  2  0  0  0  0
 27 25  2  0  0  0  0
 28 25  1  0  0  0  0
 29 30  1  0  0  0  0
 29 28  1  0  0  0  0
 30 24  1  0  0  0  0
 31 33  1  0  0  0  0
 32 33  2  0  0  0  0
 33 26  1  0  0  0  0
M  END
>  <MODEL>
1

>  <REMARK>
 VINA RESULT:      -7.8      0.000      0.000
  Name = 
  12 active torsions:
  status: ('A' for Active; 'I' for Inactive)
    1  A    between atoms: C_2  and  N_3
    2  A    between atoms: C_2  and  C_12
    3  A    between atoms: N_3  and  C_18
    4  A    between atoms: C_5  and  N_25
    5  A    between atoms: C_6  and  C_8
    6  A    between atoms: C_7  and  P_9
    7  A    between atoms: C_7  and  C_18
    8  A    between atoms: C_8  and  C_17
    9  A    between atoms: N_11  and  C_31
   10  A    between atoms: C_17  and  N_28
   11  A    between atoms: C_24  and  N_26
   12  A    between atoms: N_25  and  N_26
                            x       y       z     vdW  Elec       q    Type
                         _______ _______ _______ _____ _____    ______ ____

>  <TORSDO>
F 12

$$$$
=
 OpenBabel10232409353D

 33 34  0  0  1  0  0  0  0  0999 V2000
  189.5660  177.3970  145.4020 C   0  0  0  0  0  0  0  0  0  0  0  0
  188.3580  177.4970  148.6730 N   0  0  0  0  0  2  0  0  0  0  0  0
  190.3440  176.7680  147.5710 N   0  0  0  0  0  2  0  0  0  0  0  0
  191.8000  176.5420  145.7240 O   0  0  0  0  0  0  0  0  0  0  0  0
  188.5700  177.6390  146.2410 C   0  0  0  0  0  0  0  0  0  0  0  0
  188.9990  177.2380  147.5830 C   0  0  0  0  0  0  0  0  0  0  0  0
  190.6760  176.8660  146.1900 C   0  0  0  0  0  0  0  0  0  0  0  0
  189.5880  177.7160  143.9450 C   0  0  0  0  0  2  0  0  0  0  0  0
  189.2780  176.4670  143.1370 C   0  0  0  0  0  2  0  0  0  0  0  0
  189.8990  177.0680  140.7510 C   0  0  0  0  0  0  0  0  0  0  0  0
  188.8020  177.7320  140.5840 N   0  0  0  0  0  2  0  0  0  0  0  0
  190.1610  176.3870  141.9820 N   0  0  0  0  0  2  0  0  0  0  0  0
  190.8270  176.8860  139.6030 C   0  0  0  0  0  2  0  0  0  0  0  0
  190.2340  175.9760  138.6380 N   0  0  0  0  0  2  0  0  0  0  0  0
  190.0460  176.7230  137.4030 C   0  0  0  0  0  2  0  0  0  0  0  0
  188.5880  176.6890  136.9480 C   0  0  1  0  0  3  0  0  0  0  0  0
  187.8430  175.8100  137.7360 O   0  0  0  0  0  1  0  0  0  0  0  0
  187.8330  178.3460  136.9700 P   0  0  0  0  0  0  0  0  0  0  0  0
  186.5950  178.3880  138.1200 O   0  0  0  0  0  1  0  0  0  0  0  0
  189.0110  179.4900  137.3760 O   0  0  0  0  0  1  0  0  0  0  0  0
  187.2670  178.6760  135.6090 O   0  0  0  0  0  0  0  0  0  0  0  0
  187.3200  178.2240  145.8740 N   0  0  0  0  0  2  0  0  0  0  0  0
  186.3720  177.5160  145.1230 N   0  0  0  0  0  2  0  0  0  0  0  0
  184.5460  178.6800  142.0280 C   0  0  0  0  0  2  0  0  0  0  0  0
  185.4520  178.1920  144.2690 C   0  0  0  0  0  0  0  0  0  0  0  0
  182.1500  178.8700  141.8820 N   0  0  0  0  0  0  0  0  0  0  0  0
  185.4820  177.9580  142.9560 C   0  0  0  0  0  3  0  0  0  0  0  0
  184.4640  179.1800  144.8250 C   0  0  0  0  0  2  0  0  0  0  0  0
  183.0910  179.0250  144.1610 C   0  0  0  0  0  2  0  0  0  0  0  0
  183.1920  178.8490  142.6600 C   0  0  0  0  0  0  0  0  0  0  0  0
  180.0360  178.0120  142.3280 O   0  0  0  0  0  0  0  0  0  0  0  0
  180.2420  180.2740  142.5730 O   0  0  0  0  0  1  0  0  0  0  0  0
  180.7760  179.0280  142.2660 C   0  0  0  0  0  0  0  0  0  0  0  0
  1  7  1  0  0  0  0
  1  5  2  0  0  0  0
  3  6  1  0  0  0  0
  4  7  2  0  0  0  0
  5  6  1  0  0  0  0
  6  2  2  0  0  0  0
  7  3  1  0  0  0  0
  8  1  1  0  0  0  0
  9  8  1  0  0  0  0
 10 12  1  0  0  0  0
 11 10  2  0  0  0  0
 12  9  1  0  0  0  0
 13 10  1  0  0  0  0
 14 13  1  0  0  0  0
 15 14  1  0  0  0  0
 16 18  1  0  0  0  0
 16 15  1  0  0  0  0
 16 17  1  1  0  0  0
 18 20  1  0  0  0  0
 18 19  1  0  0  0  0
 21 18  2  0  0  0  0
 22  5  1  0  0  0  0
 23 22  1  0  0  0  0
 24 30  1  0  0  0  0
 24 27  1  0  0  0  0
 25 28  1  0  0  0  0
 25 23  1  0  0  0  0
 26 33  1  0  0  0  0
 26 30  2  0  0  0  0
 27 25  2  0  0  0  0
 29 28  1  0  0  0  0
 30 29  1  0  0  0  0
 33 31  2  0  0  0  0
 33 32  1  0  0  0  0
M  END
>  <MODEL>
2

>  <REMARK>
 VINA RESULT:      -7.8      1.840      2.321
  Name = 
  12 active torsions:
  status: ('A' for Active; 'I' for Inactive)
    1  A    between atoms: C_2  and  N_3
    2  A    between atoms: C_2  and  C_12
    3  A    between atoms: N_3  and  C_18
    4  A    between atoms: C_5  and  N_25
    5  A    between atoms: C_6  and  C_8
    6  A    between atoms: C_7  and  P_9
    7  A    between atoms: C_7  and  C_18
    8  A    between atoms: C_8  and  C_17
    9  A    between atoms: N_11  and  C_31
   10  A    between atoms: C_17  and  N_28
   11  A    between atoms: C_24  and  N_26
   12  A    between atoms: N_25  and  N_26
                            x       y       z     vdW  Elec       q    Type
                         _______ _______ _______ _____ _____    ______ ____

>  <TORSDO>
F 12

$$$$
=
 OpenBabel10232409353D

 33 34  0  0  1  0  0  0  0  0999 V2000
  184.0100  178.5130  143.1010 C   0  0  0  0  0  0  0  0  0  0  0  0
  185.2630  179.2230  146.2790 N   0  0  0  0  0  2  0  0  0  0  0  0
  183.1320  179.2230  145.2060 N   0  0  0  0  0  2  0  0  0  0  0  0
  181.6340  178.7780  143.4350 O   0  0  0  0  0  0  0  0  0  0  0  0
  185.0500  178.6730  143.9060 C   0  0  0  0  0  0  0  0  0  0  0  0
  184.5540  179.1380  145.2020 C   0  0  0  0  0  0  0  0  0  0  0  0
  182.8130  178.8380  143.8730 C   0  0  0  0  0  0  0  0  0  0  0  0
  184.0470  177.9890  141.7050 C   0  0  0  0  0  2  0  0  0  0  0  0
  184.2910  179.1290  140.7300 C   0  0  0  0  0  2  0  0  0  0  0  0
  184.8900  178.2560  138.4250 C   0  0  0  0  0  0  0  0  0  0  0  0
  183.6460  178.0900  138.1140 N   0  0  0  0  0  2  0  0  0  0  0  0
  185.2630  178.7270  139.7230 N   0  0  0  0  0  2  0  0  0  0  0  0
  185.9480  177.8120  137.4770 C   0  0  0  0  0  2  0  0  0  0  0  0
  187.2370  178.3150  137.9170 N   0  0  0  0  0  2  0  0  0  0  0  0
  188.2490  177.3920  137.4240 C   0  0  0  0  0  2  0  0  0  0  0  0
  189.6440  177.7870  137.9030 C   0  0  1  0  0  3  0  0  0  0  0  0
  189.5700  178.7710  138.8900 O   0  0  0  0  0  1  0  0  0  0  0  0
  190.5810  176.3510  138.5160 P   0  0  0  0  0  0  0  0  0  0  0  0
  189.9910  174.9400  137.7940 O   0  0  0  0  0  0  0  0  0  0  0  0
  192.2150  176.5400  138.1190 O   0  0  0  0  0  1  0  0  0  0  0  0
  190.4430  176.2440  140.0160 O   0  0  0  0  0  1  0  0  0  0  0  0
  186.4050  178.3970  143.5480 N   0  0  0  0  0  2  0  0  0  0  0  0
  187.0880  177.2890  144.0670 N   0  0  0  0  0  2  0  0  0  0  0  0
  189.0180  177.6290  147.2960 C   0  0  0  0  0  2  0  0  0  0  0  0
  188.1620  177.4490  144.9910 C   0  0  0  0  0  0  0  0  0  0  0  0
  191.0950  176.4930  147.7380 N   0  0  0  0  0  0  0  0  0  0  0  0
  187.9100  177.4300  146.3000 C   0  0  0  0  0  3  0  0  0  0  0  0
  189.5710  177.6600  144.5080 C   0  0  0  0  0  2  0  0  0  0  0  0
  190.5720  176.8610  145.3520 C   0  0  0  0  0  2  0  0  0  0  0  0
  190.2780  176.9520  146.8340 C   0  0  0  0  0  0  0  0  0  0  0  0
  193.2700  175.9690  148.3680 O   0  0  0  0  0  1  0  0  0  0  0  0
  192.5680  175.0240  146.4100 O   0  0  0  0  0  0  0  0  0  0  0  0
  192.3480  175.8260  147.5240 C   0  0  0  0  0  0  0  0  0  0  0  0
  1  7  1  0  0  0  0
  1  5  2  0  0  0  0
  4  7  2  0  0  0  0
  5  6  1  0  0  0  0
  6  3  1  0  0  0  0
  6  2  2  0  0  0  0
  7  3  1  0  0  0  0
  8  1  1  0  0  0  0
  9  8  1  0  0  0  0
 10 12  1  0  0  0  0
 11 10  2  0  0  0  0
 12  9  1  0  0  0  0
 13 14  1  0  0  0  0
 13 10  1  0  0  0  0
 15 16  1  0  0  0  0
 15 14  1  0  0  0  0
 16 18  1  0  0  0  0
 16 17  1  1  0  0  0
 18 21  1  0  0  0  0
 19 18  2  0  0  0  0
 20 18  1  0  0  0  0
 22  5  1  0  0  0  0
 22 23  1  0  0  0  0
 23 25  1  0  0  0  0
 25 27  2  0  0  0  0
 27 24  1  0  0  0  0
 28 25  1  0  0  0  0
 28 29  1  0  0  0  0
 29 30  1  0  0  0  0
 30 24  1  0  0  0  0
 30 26  2  0  0  0  0
 32 33  2  0  0  0  0
 33 26  1  0  0  0  0
 33 31  1  0  0  0  0
M  END
>  <MODEL>
3

>  <REMARK>
 VINA RESULT:      -7.4      2.636      6.740
  Name = 
  12 active torsions:
  status: ('A' for Active; 'I' for Inactive)
    1  A    between atoms: C_2  and  N_3
    2  A    between atoms: C_2  and  C_12
    3  A    between atoms: N_3  and  C_18
    4  A    between atoms: C_5  and  N_25
    5  A    between atoms: C_6  and  C_8
    6  A    between atoms: C_7  and  P_9
    7  A    between atoms: C_7  and  C_18
    8  A    between atoms: C_8  and  C_17
    9  A    between atoms: N_11  and  C_31
   10  A    between atoms: C_17  and  N_28
   11  A    between atoms: C_24  and  N_26
   12  A    between atoms: N_25  and  N_26
                            x       y       z     vdW  Elec       q    Type
                         _______ _______ _______ _____ _____    ______ ____

>  <TORSDO>
F 12

$$$$
=
 OpenBabel10232409353D

 33 34  0  0  1  0  0  0  0  0999 V2000
  190.4750  176.7310  144.6050 C   0  0  0  0  0  0  0  0  0  0  0  0
  191.3930  177.2260  147.9340 N   0  0  0  0  0  2  0  0  0  0  0  0
  192.1000  175.8500  146.1180 N   0  0  0  0  0  2  0  0  0  0  0  0
  192.1310  175.1380  143.8650 O   0  0  0  0  0  0  0  0  0  0  0  0
  190.2430  177.3020  145.7770 C   0  0  0  0  0  0  0  0  0  0  0  0
  191.2040  176.7650  146.7420 C   0  0  0  0  0  0  0  0  0  0  0  0
  191.6160  175.8360  144.7790 C   0  0  0  0  0  0  0  0  0  0  0  0
  189.7740  177.0330  143.3230 C   0  0  0  0  0  2  0  0  0  0  0  0
  190.7190  177.7500  142.3730 C   0  0  0  0  0  2  0  0  0  0  0  0
  191.6460  177.1250  140.0950 C   0  0  0  0  0  0  0  0  0  0  0  0
  192.8200  177.5750  140.3980 N   0  0  0  0  0  2  0  0  0  0  0  0
  190.5620  177.2290  141.0230 N   0  0  0  0  0  2  0  0  0  0  0  0
  191.3830  176.6330  138.7170 C   0  0  0  0  0  2  0  0  0  0  0  0
  192.6380  176.5140  137.9950 N   0  0  0  0  0  2  0  0  0  0  0  0
  193.0120  175.1070  138.0130 C   0  0  0  0  0  2  0  0  0  0  0  0
  194.3660  174.8820  137.3450 C   0  0  1  0  0  3  0  0  0  0  0  0
  194.7560  176.0100  136.6210 O   0  0  0  0  0  1  0  0  0  0  0  0
  195.6520  174.4360  138.5550 P   0  0  0  0  0  0  0  0  0  0  0  0
  197.1800  174.7010  137.8800 O   0  0  0  0  0  0  0  0  0  0  0  0
  195.4770  175.3980  139.9350 O   0  0  0  0  0  1  0  0  0  0  0  0
  195.5190  172.9820  138.9410 O   0  0  0  0  0  1  0  0  0  0  0  0
  189.2430  178.2950  146.0150 N   0  0  0  0  0  2  0  0  0  0  0  0
  187.9800  177.9570  146.5180 N   0  0  0  0  0  2  0  0  0  0  0  0
  184.6120  178.8150  145.0380 C   0  0  0  0  0  2  0  0  0  0  0  0
  186.8290  177.9450  145.6760 C   0  0  0  0  0  0  0  0  0  0  0  0
  184.2050  179.0220  142.6740 N   0  0  0  0  0  0  0  0  0  0  0  0
  185.8500  178.8250  145.8890 C   0  0  0  0  0  3  0  0  0  0  0  0
  186.6970  176.9410  144.5640 C   0  0  0  0  0  2  0  0  0  0  0  0
  186.1140  177.5860  143.3010 C   0  0  0  0  0  2  0  0  0  0  0  0
  184.9520  178.5070  143.6060 C   0  0  0  0  0  0  0  0  0  0  0  0
  185.1070  179.6220  140.6170 O   0  0  0  0  0  1  0  0  0  0  0  0
  183.6450  177.8670  140.5660 O   0  0  0  0  0  0  0  0  0  0  0  0
  184.3400  178.8560  141.2540 C   0  0  0  0  0  0  0  0  0  0  0  0
  1  7  1  0  0  0  0
  1  5  2  0  0  0  0
  3  6  1  0  0  0  0
  4  7  2  0  0  0  0
  5 22  1  0  0  0  0
  5  6  1  0  0  0  0
  6  2  2  0  0  0  0
  7  3  1  0  0  0  0
  8  1  1  0  0  0  0
  9  8  1  0  0  0  0
 10 11  2  0  0  0  0
 10 12  1  0  0  0  0
 12  9  1  0  0  0  0
 13 10  1  0  0  0  0
 14 15  1  0  0  0  0
 14 13  1  0  0  0  0
 16 17  1  1  0  0  0
 16 15  1  0  0  0  0
 16 18  1  0  0  0  0
 18 21  1  0  0  0  0
 18 20  1  0  0  0  0
 19 18  2  0  0  0  0
 22 23  1  0  0  0  0
 24 27  1  0  0  0  0
 25 27  2  0  0  0  0
 25 23  1  0  0  0  0
 26 30  2  0  0  0  0
 28 25  1  0  0  0  0
 29 30  1  0  0  0  0
 29 28  1  0  0  0  0
 30 24  1  0  0  0  0
 31 33  1  0  0  0  0
 32 33  2  0  0  0  0
 33 26  1  0  0  0  0
M  END
>  <MODEL>
4

>  <REMARK>
 VINA RESULT:      -7.4      3.664      4.404
  Name = 
  12 active torsions:
  status: ('A' for Active; 'I' for Inactive)
    1  A    between atoms: C_2  and  N_3
    2  A    between atoms: C_2  and  C_12
    3  A    between atoms: N_3  and  C_18
    4  A    between atoms: C_5  and  N_25
    5  A    between atoms: C_6  and  C_8
    6  A    between atoms: C_7  and  P_9
    7  A    between atoms: C_7  and  C_18
    8  A    between atoms: C_8  and  C_17
    9  A    between atoms: N_11  and  C_31
   10  A    between atoms: C_17  and  N_28
   11  A    between atoms: C_24  and  N_26
   12  A    between atoms: N_25  and  N_26
                            x       y       z     vdW  Elec       q    Type
                         _______ _______ _______ _____ _____    ______ ____

>  <TORSDO>
F 12

$$$$
=
 OpenBabel10232409353D

 33 34  0  0  1  0  0  0  0  0999 V2000
  185.7080  178.2300  144.8790 C   0  0  0  0  0  0  0  0  0  0  0  0
  187.3290  178.0090  147.9610 N   0  0  0  0  0  2  0  0  0  0  0  0
  185.2520  178.8490  147.1420 N   0  0  0  0  0  2  0  0  0  0  0  0
  183.5780  179.1770  145.5070 O   0  0  0  0  0  0  0  0  0  0  0  0
  186.7920  177.9270  145.5760 C   0  0  0  0  0  0  0  0  0  0  0  0
  186.5630  178.3200  146.9680 C   0  0  0  0  0  0  0  0  0  0  0  0
  184.7370  178.7940  145.8140 C   0  0  0  0  0  0  0  0  0  0  0  0
  185.4790  177.9420  143.4340 C   0  0  0  0  0  2  0  0  0  0  0  0
  185.2560  179.2410  142.6760 C   0  0  0  0  0  2  0  0  0  0  0  0
  184.1480  178.8250  140.4320 C   0  0  0  0  0  0  0  0  0  0  0  0
  182.9710  178.7960  140.9660 N   0  0  0  0  0  2  0  0  0  0  0  0
  185.3140  178.9990  141.2420 N   0  0  0  0  0  2  0  0  0  0  0  0
  184.3020  178.5260  138.9830 C   0  0  0  0  0  2  0  0  0  0  0  0
  185.6710  178.7890  138.5750 N   0  0  0  0  0  2  0  0  0  0  0  0
  185.9760  177.8760  137.4820 C   0  0  0  0  0  2  0  0  0  0  0  0
  187.2360  178.3050  136.7330 C   0  0  1  0  0  3  0  0  0  0  0  0
  187.9970  179.1850  137.5050 O   0  0  0  0  0  1  0  0  0  0  0  0
  188.2460  176.8750  136.2330 P   0  0  0  0  0  0  0  0  0  0  0  0
  188.3210  175.7630  137.5050 O   0  0  0  0  0  1  0  0  0  0  0  0
  187.5370  176.1350  134.8870 O   0  0  0  0  0  0  0  0  0  0  0  0
  189.6420  177.3260  135.8760 O   0  0  0  0  0  1  0  0  0  0  0  0
  187.9550  177.2950  145.0380 N   0  0  0  0  0  2  0  0  0  0  0  0
  188.8490  177.9860  144.2100 N   0  0  0  0  0  2  0  0  0  0  0  0
  188.9350  177.9820  140.4340 C   0  0  0  0  0  2  0  0  0  0  0  0
  189.0730  177.5790  142.8630 C   0  0  0  0  0  0  0  0  0  0  0  0
  190.8400  177.2780  139.1410 N   0  0  0  0  0  0  0  0  0  0  0  0
  188.7390  178.3980  141.8640 C   0  0  0  0  0  3  0  0  0  0  0  0
  189.6620  176.2300  142.5510 C   0  0  0  0  0  2  0  0  0  0  0  0
  190.6860  176.3220  141.4130 C   0  0  0  0  0  2  0  0  0  0  0  0
  190.2080  177.1980  140.2760 C   0  0  0  0  0  0  0  0  0  0  0  0
  192.0010  175.5790  138.0600 O   0  0  0  0  0  0  0  0  0  0  0  0
  193.3010  177.0880  139.1790 O   0  0  0  0  0  1  0  0  0  0  0  0
  192.0590  176.6140  138.7720 C   0  0  0  0  0  0  0  0  0  0  0  0
  1  5  2  0  0  0  0
  1  7  1  0  0  0  0
  4  7  2  0  0  0  0
  5  6  1  0  0  0  0
  6  3  1  0  0  0  0
  6  2  2  0  0  0  0
  7  3  1  0  0  0  0
  8  1  1  0  0  0  0
  9  8  1  0  0  0  0
 10 11  2  0  0  0  0
 10 12  1  0  0  0  0
 12  9  1  0  0  0  0
 13 10  1  0  0  0  0
 14 13  1  0  0  0  0
 15 14  1  0  0  0  0
 16 15  1  0  0  0  0
 16 17  1  1  0  0  0
 18 16  1  0  0  0  0
 18 19  1  0  0  0  0
 20 18  2  0  0  0  0
 21 18  1  0  0  0  0
 22  5  1  0  0  0  0
 23 22  1  0  0  0  0
 24 27  1  0  0  0  0
 25 23  1  0  0  0  0
 26 30  2  0  0  0  0
 27 25  2  0  0  0  0
 28 25  1  0  0  0  0
 29 28  1  0  0  0  0
 30 24  1  0  0  0  0
 30 29  1  0  0  0  0
 31 33  2  0  0  0  0
 33 26  1  0  0  0  0
 33 32  1  0  0  0  0
M  END
>  <MODEL>
5

>  <REMARK>
 VINA RESULT:      -7.3      2.382      5.381
  Name = 
  12 active torsions:
  status: ('A' for Active; 'I' for Inactive)
    1  A    between atoms: C_2  and  N_3
    2  A    between atoms: C_2  and  C_12
    3  A    between atoms: N_3  and  C_18
    4  A    between atoms: C_5  and  N_25
    5  A    between atoms: C_6  and  C_8
    6  A    between atoms: C_7  and  P_9
    7  A    between atoms: C_7  and  C_18
    8  A    between atoms: C_8  and  C_17
    9  A    between atoms: N_11  and  C_31
   10  A    between atoms: C_17  and  N_28
   11  A    between atoms: C_24  and  N_26
   12  A    between atoms: N_25  and  N_26
                            x       y       z     vdW  Elec       q    Type
                         _______ _______ _______ _____ _____    ______ ____

>  <TORSDO>
F 12

$$$$
=
 OpenBabel10232409353D

 33 34  0  0  1  0  0  0  0  0999 V2000
  187.7750  177.5220  146.6280 C   0  0  0  0  0  0  0  0  0  0  0  0
  191.1260  176.9210  145.8660 N   0  0  0  0  0  2  0  0  0  0  0  0
  189.8600  177.5310  147.7940 N   0  0  0  0  0  2  0  0  0  0  0  0
  187.8690  177.9050  149.0100 O   0  0  0  0  0  0  0  0  0  0  0  0
  188.7110  177.2740  145.7240 C   0  0  0  0  0  0  0  0  0  0  0  0
  190.0110  177.3000  146.3970 C   0  0  0  0  0  0  0  0  0  0  0  0
  188.4490  177.6790  147.9150 C   0  0  0  0  0  0  0  0  0  0  0  0
  186.3020  177.5250  146.3950 C   0  0  0  0  0  2  0  0  0  0  0  0
  185.8640  178.8820  145.8700 C   0  0  0  0  0  2  0  0  0  0  0  0
  184.2720  178.8550  143.8940 C   0  0  0  0  0  0  0  0  0  0  0  0
  183.2370  178.8970  144.6680 N   0  0  0  0  0  2  0  0  0  0  0  0
  185.5930  178.8020  144.4420 N   0  0  0  0  0  2  0  0  0  0  0  0
  184.0840  178.7100  142.4260 C   0  0  0  0  0  2  0  0  0  0  0  0
  185.0910  179.4880  141.7270 N   0  0  0  0  0  2  0  0  0  0  0  0
  185.1710  178.9660  140.3700 C   0  0  0  0  0  2  0  0  0  0  0  0
  183.9190  179.3110  139.5660 C   0  0  1  0  0  3  0  0  0  0  0  0
  184.1050  180.4890  138.8390 O   0  0  0  0  0  1  0  0  0  0  0  0
  183.4370  177.9540  138.4500 P   0  0  0  0  0  0  0  0  0  0  0  0
  182.2600  178.5040  137.3670 O   0  0  0  0  0  0  0  0  0  0  0  0
  184.7930  177.4350  137.5850 O   0  0  0  0  0  1  0  0  0  0  0  0
  182.8830  176.7980  139.2500 O   0  0  0  0  0  1  0  0  0  0  0  0
  188.4570  176.9970  144.3450 N   0  0  0  0  0  2  0  0  0  0  0  0
  189.4620  176.5150  143.4980 N   0  0  0  0  0  2  0  0  0  0  0  0
  191.0070  177.2900  140.1390 C   0  0  0  0  0  2  0  0  0  0  0  0
  189.7370  177.1430  142.2470 C   0  0  0  0  0  0  0  0  0  0  0  0
  189.7290  177.8610  138.1800 N   0  0  0  0  0  0  0  0  0  0  0  0
  190.6740  176.6310  141.4470 C   0  0  0  0  0  3  0  0  0  0  0  0
  189.0000  178.3850  141.8280 C   0  0  0  0  0  2  0  0  0  0  0  0
  188.6300  178.3340  140.3400 C   0  0  0  0  0  2  0  0  0  0  0  0
  189.7670  177.8250  139.4800 C   0  0  0  0  0  0  0  0  0  0  0  0
  188.3960  179.5660  137.3320 O   0  0  0  0  0  1  0  0  0  0  0  0
  187.9060  177.4720  136.5620 O   0  0  0  0  0  0  0  0  0  0  0  0
  188.6590  178.3360  137.3490 C   0  0  0  0  0  0  0  0  0  0  0  0
  1  7  1  0  0  0  0
  2  6  2  0  0  0  0
  3  7  1  0  0  0  0
  5  6  1  0  0  0  0
  5  1  2  0  0  0  0
  6  3  1  0  0  0  0
  7  4  2  0  0  0  0
  8  1  1  0  0  0  0
  9  8  1  0  0  0  0
 10 12  1  0  0  0  0
 10 11  2  0  0  0  0
 12  9  1  0  0  0  0
 13 10  1  0  0  0  0
 14 13  1  0  0  0  0
 15 14  1  0  0  0  0
 16 17  1  6  0  0  0
 16 15  1  0  0  0  0
 18 21  1  0  0  0  0
 18 16  1  0  0  0  0
 19 18  2  0  0  0  0
 20 18  1  0  0  0  0
 22  5  1  0  0  0  0
 23 22  1  0  0  0  0
 24 27  1  0  0  0  0
 25 23  1  0  0  0  0
 26 30  2  0  0  0  0
 27 25  2  0  0  0  0
 28 25  1  0  0  0  0
 29 28  1  0  0  0  0
 30 24  1  0  0  0  0
 30 29  1  0  0  0  0
 31 33  1  0  0  0  0
 32 33  2  0  0  0  0
 33 26  1  0  0  0  0
M  END
>  <MODEL>
6

>  <REMARK>
 VINA RESULT:      -7.3      1.879      5.048
  Name = 
  12 active torsions:
  status: ('A' for Active; 'I' for Inactive)
    1  A    between atoms: C_2  and  N_3
    2  A    between atoms: C_2  and  C_12
    3  A    between atoms: N_3  and  C_18
    4  A    between atoms: C_5  and  N_25
    5  A    between atoms: C_6  and  C_8
    6  A    between atoms: C_7  and  P_9
    7  A    between atoms: C_7  and  C_18
    8  A    between atoms: C_8  and  C_17
    9  A    between atoms: N_11  and  C_31
   10  A    between atoms: C_17  and  N_28
   11  A    between atoms: C_24  and  N_26
   12  A    between atoms: N_25  and  N_26
                            x       y       z     vdW  Elec       q    Type
                         _______ _______ _______ _____ _____    ______ ____

>  <TORSDO>
F 12

$$$$
=
 OpenBabel10232409353D

 33 34  0  0  1  0  0  0  0  0999 V2000
  188.0280  177.4610  146.6010 C   0  0  0  0  0  0  0  0  0  0  0  0
  191.3790  176.9250  145.7940 N   0  0  0  0  0  2  0  0  0  0  0  0
  190.1400  177.6370  147.7040 N   0  0  0  0  0  2  0  0  0  0  0  0
  188.1670  178.0320  148.9430 O   0  0  0  0  0  0  0  0  0  0  0  0
  188.9490  177.1770  145.6930 C   0  0  0  0  0  0  0  0  0  0  0  0
  190.2640  177.3030  146.3240 C   0  0  0  0  0  0  0  0  0  0  0  0
  188.7270  177.7430  147.8520 C   0  0  0  0  0  0  0  0  0  0  0  0
  186.5500  177.3920  146.4100 C   0  0  0  0  0  2  0  0  0  0  0  0
  186.0270  178.7360  145.9320 C   0  0  0  0  0  2  0  0  0  0  0  0
  184.2840  178.8780  144.0930 C   0  0  0  0  0  0  0  0  0  0  0  0
  183.3370  179.1030  144.9450 N   0  0  0  0  0  2  0  0  0  0  0  0
  185.6240  178.6470  144.5350 N   0  0  0  0  0  2  0  0  0  0  0  0
  183.9490  178.7110  142.6540 C   0  0  0  0  0  2  0  0  0  0  0  0
  182.5170  178.8630  142.4660 N   0  0  0  0  0  2  0  0  0  0  0  0
  182.2460  178.6700  141.0490 C   0  0  0  0  0  2  0  0  0  0  0  0
  183.3800  177.9100  140.3640 C   0  0  1  0  0  3  0  0  0  0  0  0
  182.9640  176.6320  139.9850 O   0  0  0  0  0  1  0  0  0  0  0  0
  184.0260  178.8140  138.9210 P   0  0  0  0  0  0  0  0  0  0  0  0
  185.5700  178.2400  138.5380 O   0  0  0  0  0  1  0  0  0  0  0  0
  182.9960  178.5670  137.6020 O   0  0  0  0  0  0  0  0  0  0  0  0
  184.0990  180.2910  139.2250 O   0  0  0  0  0  1  0  0  0  0  0  0
  188.6710  176.7840  144.3470 N   0  0  0  0  0  2  0  0  0  0  0  0
  188.4880  177.7310  143.3310 N   0  0  0  0  0  2  0  0  0  0  0  0
  191.4200  177.3570  140.9790 C   0  0  0  0  0  2  0  0  0  0  0  0
  189.2720  177.6980  142.1410 C   0  0  0  0  0  0  0  0  0  0  0  0
  191.3030  176.2010  138.8710 N   0  0  0  0  0  0  0  0  0  0  0  0
  190.5620  177.3680  142.2130 C   0  0  0  0  0  3  0  0  0  0  0  0
  188.6680  178.0490  140.8080 C   0  0  0  0  0  2  0  0  0  0  0  0
  189.1610  177.1000  139.7090 C   0  0  0  0  0  2  0  0  0  0  0  0
  190.6490  176.8370  139.7980 C   0  0  0  0  0  0  0  0  0  0  0  0
  190.1720  174.5290  137.7170 O   0  0  0  0  0  1  0  0  0  0  0  0
  190.9100  176.2690  136.4350 O   0  0  0  0  0  0  0  0  0  0  0  0
  190.7750  175.6320  137.6630 C   0  0  0  0  0  0  0  0  0  0  0  0
  1  7  1  0  0  0  0
  2  6  2  0  0  0  0
  3  7  1  0  0  0  0
  5  6  1  0  0  0  0
  5  1  2  0  0  0  0
  6  3  1  0  0  0  0
  7  4  2  0  0  0  0
  8  1  1  0  0  0  0
  9  8  1  0  0  0  0
 10 12  1  0  0  0  0
 10 11  2  0  0  0  0
 12  9  1  0  0  0  0
 13 10  1  0  0  0  0
 14 13  1  0  0  0  0
 15 14  1  0  0  0  0
 16 17  1  6  0  0  0
 16 15  1  0  0  0  0
 18 21  1  0  0  0  0
 18 16  1  0  0  0  0
 19 18  1  0  0  0  0
 20 18  2  0  0  0  0
 22  5  1  0  0  0  0
 23 22  1  0  0  0  0
 24 27  1  0  0  0  0
 25 27  2  0  0  0  0
 25 23  1  0  0  0  0
 26 30  2  0  0  0  0
 28 25  1  0  0  0  0
 29 30  1  0  0  0  0
 29 28  1  0  0  0  0
 30 24  1  0  0  0  0
 32 33  2  0  0  0  0
 33 31  1  0  0  0  0
 33 26  1  0  0  0  0
M  END
>  <MODEL>
7

>  <REMARK>
 VINA RESULT:      -7.3      2.027      5.682
  Name = 
  12 active torsions:
  status: ('A' for Active; 'I' for Inactive)
    1  A    between atoms: C_2  and  N_3
    2  A    between atoms: C_2  and  C_12
    3  A    between atoms: N_3  and  C_18
    4  A    between atoms: C_5  and  N_25
    5  A    between atoms: C_6  and  C_8
    6  A    between atoms: C_7  and  P_9
    7  A    between atoms: C_7  and  C_18
    8  A    between atoms: C_8  and  C_17
    9  A    between atoms: N_11  and  C_31
   10  A    between atoms: C_17  and  N_28
   11  A    between atoms: C_24  and  N_26
   12  A    between atoms: N_25  and  N_26
                            x       y       z     vdW  Elec       q    Type
                         _______ _______ _______ _____ _____    ______ ____

>  <TORSDO>
F 12

$$$$
=
 OpenBabel10232409353D

 33 34  0  0  1  0  0  0  0  0999 V2000
  189.2610  177.5630  145.3660 C   0  0  0  0  0  0  0  0  0  0  0  0
  188.1060  177.4960  148.6570 N   0  0  0  0  0  2  0  0  0  0  0  0
  190.0720  176.8230  147.4880 N   0  0  0  0  0  2  0  0  0  0  0  0
  191.4980  176.6900  145.6080 O   0  0  0  0  0  0  0  0  0  0  0  0
  188.2790  177.7610  146.2330 C   0  0  0  0  0  0  0  0  0  0  0  0
  188.7290  177.2920  147.5450 C   0  0  0  0  0  0  0  0  0  0  0  0
  190.3820  176.9910  146.1070 C   0  0  0  0  0  0  0  0  0  0  0  0
  189.2600  177.9550  143.9270 C   0  0  0  0  0  2  0  0  0  0  0  0
  189.0770  176.7250  143.0540 C   0  0  0  0  0  2  0  0  0  0  0  0
  189.8860  177.3250  140.7250 C   0  0  0  0  0  0  0  0  0  0  0  0
  191.1250  177.2390  141.0830 N   0  0  0  0  0  2  0  0  0  0  0  0
  188.8350  177.1220  141.6750 N   0  0  0  0  0  2  0  0  0  0  0  0
  189.5510  177.7850  139.3510 C   0  0  0  0  0  2  0  0  0  0  0  0
  189.3810  176.6340  138.4810 N   0  0  0  0  0  2  0  0  0  0  0  0
  190.5430  176.5830  137.6050 C   0  0  0  0  0  2  0  0  0  0  0  0
  191.4640  175.4210  137.9700 C   0  0  1  0  0  3  0  0  0  0  0  0
  190.8420  174.1970  137.7190 O   0  0  0  0  0  1  0  0  0  0  0  0
  193.0520  175.5120  137.0820 P   0  0  0  0  0  0  0  0  0  0  0  0
  193.8740  176.9190  137.5360 O   0  0  0  0  0  1  0  0  0  0  0  0
  193.9920  174.1640  137.4810 O   0  0  0  0  0  1  0  0  0  0  0  0
  192.8120  175.5290  135.5910 O   0  0  0  0  0  0  0  0  0  0  0  0
  187.0240  178.3660  145.9150 N   0  0  0  0  0  2  0  0  0  0  0  0
  186.0160  177.6560  145.2490 N   0  0  0  0  0  2  0  0  0  0  0  0
  184.7190  178.6580  141.8450 C   0  0  0  0  0  2  0  0  0  0  0  0
  185.2360  178.2690  144.2250 C   0  0  0  0  0  0  0  0  0  0  0  0
  182.3810  178.7380  141.2770 N   0  0  0  0  0  0  0  0  0  0  0  0
  185.5050  178.0020  142.9450 C   0  0  0  0  0  3  0  0  0  0  0  0
  184.1280  179.2270  144.5670 C   0  0  0  0  0  2  0  0  0  0  0  0
  182.9000  178.9940  143.6780 C   0  0  0  0  0  2  0  0  0  0  0  0
  183.2700  178.7830  142.2250 C   0  0  0  0  0  0  0  0  0  0  0  0
  180.3820  179.8990  141.0320 O   0  0  0  0  0  0  0  0  0  0  0  0
  180.1920  177.8130  141.9440 O   0  0  0  0  0  1  0  0  0  0  0  0
  180.9550  178.8450  141.4100 C   0  0  0  0  0  0  0  0  0  0  0  0
  1  7  1  0  0  0  0
  1  5  2  0  0  0  0
  3  6  1  0  0  0  0
  4  7  2  0  0  0  0
  5  6  1  0  0  0  0
  6  2  2  0  0  0  0
  7  3  1  0  0  0  0
  8  1  1  0  0  0  0
  9  8  1  0  0  0  0
 10 11  2  0  0  0  0
 10 12  1  0  0  0  0
 12  9  1  0  0  0  0
 13 10  1  0  0  0  0
 14 13  1  0  0  0  0
 15 16  1  0  0  0  0
 15 14  1  0  0  0  0
 16 17  1  6  0  0  0
 18 20  1  0  0  0  0
 18 19  1  0  0  0  0
 18 16  1  0  0  0  0
 21 18  2  0  0  0  0
 22  5  1  0  0  0  0
 23 22  1  0  0  0  0
 24 30  1  0  0  0  0
 24 27  1  0  0  0  0
 25 28  1  0  0  0  0
 25 23  1  0  0  0  0
 26 33  1  0  0  0  0
 26 30  2  0  0  0  0
 27 25  2  0  0  0  0
 29 28  1  0  0  0  0
 30 29  1  0  0  0  0
 31 33  2  0  0  0  0
 33 32  1  0  0  0  0
M  END
>  <MODEL>
8

>  <REMARK>
 VINA RESULT:      -7.2      2.702      3.193
  Name = 
  12 active torsions:
  status: ('A' for Active; 'I' for Inactive)
    1  A    between atoms: C_2  and  N_3
    2  A    between atoms: C_2  and  C_12
    3  A    between atoms: N_3  and  C_18
    4  A    between atoms: C_5  and  N_25
    5  A    between atoms: C_6  and  C_8
    6  A    between atoms: C_7  and  P_9
    7  A    between atoms: C_7  and  C_18
    8  A    between atoms: C_8  and  C_17
    9  A    between atoms: N_11  and  C_31
   10  A    between atoms: C_17  and  N_28
   11  A    between atoms: C_24  and  N_26
   12  A    between atoms: N_25  and  N_26
                            x       y       z     vdW  Elec       q    Type
                         _______ _______ _______ _____ _____    ______ ____

>  <TORSDO>
F 12

$$$$
=
 OpenBabel10232409353D

 33 34  0  0  1  0  0  0  0  0999 V2000
  189.6640  177.6580  144.1000 C   0  0  0  0  0  0  0  0  0  0  0  0
  189.4220  176.5470  147.3990 N   0  0  0  0  0  2  0  0  0  0  0  0
  191.1430  177.3380  145.9490 N   0  0  0  0  0  2  0  0  0  0  0  0
  191.9860  178.3040  143.9640 O   0  0  0  0  0  0  0  0  0  0  0  0
  188.9390  177.1240  145.0720 C   0  0  0  0  0  0  0  0  0  0  0  0
  189.8200  176.8850  146.2170 C   0  0  0  0  0  0  0  0  0  0  0  0
  191.0250  177.8090  144.6100 C   0  0  0  0  0  0  0  0  0  0  0  0
  189.1580  178.1220  142.7760 C   0  0  0  0  0  2  0  0  0  0  0  0
  189.0940  176.9540  141.8070 C   0  0  0  0  0  2  0  0  0  0  0  0
  189.2550  177.4680  139.3280 C   0  0  0  0  0  0  0  0  0  0  0  0
  190.5280  177.2390  139.3160 N   0  0  0  0  0  2  0  0  0  0  0  0
  188.5090  177.3830  140.5450 N   0  0  0  0  0  2  0  0  0  0  0  0
  188.5900  177.9700  138.0960 C   0  0  0  0  0  2  0  0  0  0  0  0
  187.2870  177.3430  137.9560 N   0  0  0  0  0  2  0  0  0  0  0  0
  186.3200  178.4090  137.7320 C   0  0  0  0  0  2  0  0  0  0  0  0
  185.2490  178.4270  138.8210 C   0  0  1  0  0  3  0  0  0  0  0  0
  184.8450  179.7340  139.0970 O   0  0  0  0  0  1  0  0  0  0  0  0
  183.8100  177.4050  138.3710 P   0  0  0  0  0  0  0  0  0  0  0  0
  183.0530  176.8440  139.7750 O   0  0  0  0  0  1  0  0  0  0  0  0
  182.7160  178.3430  137.4840 O   0  0  0  0  0  0  0  0  0  0  0  0
  184.2510  176.2290  137.5320 O   0  0  0  0  0  1  0  0  0  0  0  0
  187.5350  176.8710  144.9950 N   0  0  0  0  0  2  0  0  0  0  0  0
  186.5990  177.7620  145.5360 N   0  0  0  0  0  2  0  0  0  0  0  0
  184.5400  178.7440  142.5260 C   0  0  0  0  0  2  0  0  0  0  0  0
  185.6080  178.3790  144.7180 C   0  0  0  0  0  0  0  0  0  0  0  0
  182.1360  178.8770  142.5360 N   0  0  0  0  0  0  0  0  0  0  0  0
  185.5540  178.0850  143.4170 C   0  0  0  0  0  3  0  0  0  0  0  0
  184.6360  179.3700  145.2970 C   0  0  0  0  0  2  0  0  0  0  0  0
  183.2250  179.1560  144.7360 C   0  0  0  0  0  2  0  0  0  0  0  0
  183.2290  178.9130  143.2410 C   0  0  0  0  0  0  0  0  0  0  0  0
  180.2140  180.1360  142.8900 O   0  0  0  0  0  0  0  0  0  0  0  0
  180.0980  177.9640  143.5880 O   0  0  0  0  0  1  0  0  0  0  0  0
  180.7870  179.0230  143.0070 C   0  0  0  0  0  0  0  0  0  0  0  0
  1  7  1  0  0  0  0
  1  5  2  0  0  0  0
  3  6  1  0  0  0  0
  4  7  2  0  0  0  0
  5  6  1  0  0  0  0
  6  2  2  0  0  0  0
  7  3  1  0  0  0  0
  8  1  1  0  0  0  0
  9  8  1  0  0  0  0
 10 12  1  0  0  0  0
 11 10  2  0  0  0  0
 12  9  1  0  0  0  0
 13 10  1  0  0  0  0
 14 13  1  0  0  0  0
 15 14  1  0  0  0  0
 15 16  1  0  0  0  0
 16 17  1  6  0  0  0
 18 16  1  0  0  0  0
 18 19  1  0  0  0  0
 20 18  2  0  0  0  0
 21 18  1  0  0  0  0
 22  5  1  0  0  0  0
 22 23  1  0  0  0  0
 24 30  1  0  0  0  0
 24 27  1  0  0  0  0
 25 28  1  0  0  0  0
 25 23  1  0  0  0  0
 26 33  1  0  0  0  0
 26 30  2  0  0  0  0
 27 25  2  0  0  0  0
 29 28  1  0  0  0  0
 30 29  1  0  0  0  0
 31 33  2  0  0  0  0
 33 32  1  0  0  0  0
M  END
>  <MODEL>
9

>  <REMARK>
 VINA RESULT:      -7.1      2.223      3.242
  Name = 
  12 active torsions:
  status: ('A' for Active; 'I' for Inactive)
    1  A    between atoms: C_2  and  N_3
    2  A    between atoms: C_2  and  C_12
    3  A    between atoms: N_3  and  C_18
    4  A    between atoms: C_5  and  N_25
    5  A    between atoms: C_6  and  C_8
    6  A    between atoms: C_7  and  P_9
    7  A    between atoms: C_7  and  C_18
    8  A    between atoms: C_8  and  C_17
    9  A    between atoms: N_11  and  C_31
   10  A    between atoms: C_17  and  N_28
   11  A    between atoms: C_24  and  N_26
   12  A    between atoms: N_25  and  N_26
                            x       y       z     vdW  Elec       q    Type
                         _______ _______ _______ _____ _____    ______ ____

>  <TORSDO>
F 12

$$$$
