=
 OpenBabel10232408123D

 38 40  0  0  1  0  0  0  0  0999 V2000
  190.8450  175.9190  142.9830 C   0  0  0  0  0  3  0  0  0  0  0  0
  188.7820  177.0910  142.1760 C   0  0  1  0  0  3  0  0  0  0  0  0
  189.5070  175.9950  142.9080 C   0  0  0  0  0  3  0  0  0  0  0  0
  190.4660  176.8020  140.3730 O   0  0  0  0  0  0  0  0  0  0  0  0
  189.1180  177.1320  140.6660 C   0  0  2  0  0  3  0  0  0  0  0  0
  191.3050  177.6370  141.1320 C   0  0  0  0  0  2  0  0  0  0  0  0
  191.8110  176.9180  142.3870 C   0  0  0  0  0  2  0  0  0  0  0  0
  187.3370  177.0580  142.4350 N   0  0  0  0  0  2  0  0  0  0  0  0
  187.0480  177.2360  143.8590 C   0  0  1  0  0  3  0  0  0  0  0  0
  187.9750  178.2830  144.4720 C   0  0  0  0  0  2  0  0  0  0  0  0
  188.6820  178.0780  148.9870 O   0  0  0  0  0  1  0  0  0  0  0  0
  187.8290  177.5660  146.8480 C   0  0  0  0  0  3  0  0  0  0  0  0
  188.7390  177.1450  147.9530 C   0  0  1  0  0  3  0  0  0  0  0  0
  188.5490  177.8130  145.7650 C   0  0  0  0  0  0  0  0  0  0  0  0
  189.9650  177.6050  146.0140 C   0  0  0  0  0  3  0  0  0  0  0  0
  190.0690  177.2210  147.2790 C   0  0  0  0  0  0  0  0  0  0  0  0
  191.2700  176.9180  147.9230 O   0  0  0  0  0  0  0  0  0  0  0  0
  192.0720  175.8020  147.5560 C   0  0  0  0  0  1  0  0  0  0  0  0
  185.5880  177.6430  144.0560 C   0  0  0  0  0  2  0  0  0  0  0  0
  185.3760  179.1400  143.8550 C   0  0  0  0  0  2  0  0  0  0  0  0
  183.9810  179.5430  144.2930 C   0  0  0  0  0  2  0  0  0  0  0  0
  183.7220  179.0590  145.6370 N   0  0  0  0  0  1  0  0  0  0  0  0
  188.7500  178.4230  140.0910 N   0  0  0  0  0  2  0  0  0  0  0  0
  188.2890  178.1970  138.7280 C   0  0  2  0  0  3  0  0  0  0  0  0
  186.2110  177.5040  137.7780 O   0  0  0  0  0  0  0  0  0  0  0  0
  186.0580  178.7830  139.7420 N   0  0  0  0  0  2  0  0  0  0  0  0
  186.7970  178.1270  138.7050 C   0  0  0  0  0  0  0  0  0  0  0  0
  180.3600  179.2150  140.0750 C   0  0  0  0  0  1  0  0  0  0  0  0
  182.5530  179.8550  139.0670 C   0  0  0  0  0  3  0  0  0  0  0  0
  183.9070  178.1160  140.7840 C   0  0  0  0  0  3  0  0  0  0  0  0
  181.8380  179.0970  139.9990 C   0  0  0  0  0  0  0  0  0  0  0  0
  182.5160  178.2260  140.8570 C   0  0  0  0  0  3  0  0  0  0  0  0
  184.6310  178.8750  139.8520 C   0  0  0  0  0  0  0  0  0  0  0  0
  183.9450  179.7420  138.9960 C   0  0  0  0  0  3  0  0  0  0  0  0
  188.9090  176.9220  138.1690 C   0  0  0  0  0  2  0  0  0  0  0  0
  189.7000  177.2040  136.9020 C   0  0  0  0  0  2  0  0  0  0  0  0
  190.1920  176.0140  136.3660 O   0  0  0  0  0  0  0  0  0  0  0  0
  189.9730  175.0640  137.3620 C   0  0  0  0  0  1  0  0  0  0  0  0
  2  8  1  6  0  0  0
  2  3  1  0  0  0  0
  3  1  2  0  0  0  0
  4  5  1  0  0  0  0
  4  6  1  0  0  0  0
  5 23  1  1  0  0  0
  5  2  1  0  0  0  0
  6  7  1  0  0  0  0
  7  1  1  0  0  0  0
  8  9  1  0  0  0  0
  9 19  1  6  0  0  0
  9 10  1  0  0  0  0
 10 14  1  0  0  0  0
 12 13  1  0  0  0  0
 13 11  1  1  0  0  0
 14 15  1  0  0  0  0
 14 12  2  0  0  0  0
 15 16  2  0  0  0  0
 16 17  1  0  0  0  0
 16 13  1  0  0  0  0
 18 17  1  0  0  0  0
 20 19  1  0  0  0  0
 20 21  1  0  0  0  0
 21 22  1  0  0  0  0
 24 35  1  1  0  0  0
 24 23  1  0  0  0  0
 25 27  2  0  0  0  0
 26 33  1  0  0  0  0
 27 24  1  0  0  0  0
 27 26  1  0  0  0  0
 29 31  1  0  0  0  0
 30 32  1  0  0  0  0
 31 28  1  0  0  0  0
 31 32  2  0  0  0  0
 33 30  2  0  0  0  0
 34 29  2  0  0  0  0
 34 33  1  0  0  0  0
 36 35  1  0  0  0  0
 37 36  1  0  0  0  0
 37 38  1  0  0  0  0
M  END
>  <MODEL>
1

>  <REMARK>
 VINA RESULT:      -7.4      0.000      0.000
  Name = 
  15 active torsions:
  status: ('A' for Active; 'I' for Inactive)
    1  A    between atoms: O_5  and  C_12
    2  A    between atoms: C_6  and  N_14
    3  A    between atoms: C_9  and  C_13
    4  A    between atoms: C_9  and  C_23
    5  A    between atoms: C_10  and  C_16
    6  A    between atoms: C_10  and  N_30
    7  A    between atoms: C_10  and  C_38
    8  A    between atoms: C_12  and  C_16
    9  A    between atoms: N_14  and  C_28
   10  A    between atoms: C_15  and  C_24
   11  A    between atoms: C_15  and  C_28
   12  A    between atoms: O_22  and  C_36
   13  A    between atoms: C_23  and  C_28
   14  A    between atoms: C_25  and  N_30
   15  A    between atoms: N_27  and  C_29
                            x       y       z     vdW  Elec       q    Type
                         _______ _______ _______ _____ _____    ______ ____

>  <TORSDO>
F 15

$$$$
=
 OpenBabel10232408123D

 38 40  0  0  1  0  0  0  0  0999 V2000
  184.3070  179.7080  144.2120 C   0  0  0  0  0  3  0  0  0  0  0  0
  185.0470  178.6200  142.0790 C   0  0  1  0  0  3  0  0  0  0  0  0
  185.1870  179.6090  143.2040 C   0  0  0  0  0  3  0  0  0  0  0  0
  182.6380  179.2270  142.0390 O   0  0  0  0  0  0  0  0  0  0  0  0
  183.7510  178.8210  141.2580 C   0  0  2  0  0  3  0  0  0  0  0  0
  182.4710  178.3080  143.0900 C   0  0  0  0  0  2  0  0  0  0  0  0
  183.0830  178.8380  144.3910 C   0  0  0  0  0  2  0  0  0  0  0  0
  186.2490  178.5750  141.2380 N   0  0  0  0  0  2  0  0  0  0  0  0
  187.4610  178.4440  142.0480 C   0  0  1  0  0  3  0  0  0  0  0  0
  187.4260  177.1580  142.8700 C   0  0  0  0  0  2  0  0  0  0  0  0
  190.0300  176.7000  146.6030 O   0  0  0  0  0  1  0  0  0  0  0  0
  189.1700  177.5800  144.5890 C   0  0  0  0  0  3  0  0  0  0  0  0
  189.2740  177.7440  146.0690 C   0  0  1  0  0  3  0  0  0  0  0  0
  187.9020  177.3860  144.2630 C   0  0  0  0  0  0  0  0  0  0  0  0
  187.0490  177.3880  145.4390 C   0  0  0  0  0  3  0  0  0  0  0  0
  187.8470  177.5930  146.4790 C   0  0  0  0  0  0  0  0  0  0  0  0
  187.4220  177.6640  147.8070 O   0  0  0  0  0  0  0  0  0  0  0  0
  188.2340  178.2070  148.8390 C   0  0  0  0  0  1  0  0  0  0  0  0
  188.7010  178.4680  141.1550 C   0  0  0  0  0  2  0  0  0  0  0  0
  189.2400  177.0670  140.8830 C   0  0  0  0  0  2  0  0  0  0  0  0
  190.7290  177.1170  140.5950 C   0  0  0  0  0  2  0  0  0  0  0  0
  191.4500  177.5470  141.7790 N   0  0  0  0  0  1  0  0  0  0  0  0
  183.4430  177.6250  140.4790 N   0  0  0  0  0  2  0  0  0  0  0  0
  183.2210  178.0280  139.0970 C   0  0  2  0  0  3  0  0  0  0  0  0
  184.1110  176.2420  137.7870 O   0  0  0  0  0  0  0  0  0  0  0  0
  185.4270  178.1840  137.8890 N   0  0  0  0  0  2  0  0  0  0  0  0
  184.2620  177.4170  138.2180 C   0  0  0  0  0  0  0  0  0  0  0  0
  189.9630  176.3810  134.9000 C   0  0  0  0  0  1  0  0  0  0  0  0
  188.7570  176.7320  137.0570 C   0  0  0  0  0  3  0  0  0  0  0  0
  186.5840  177.8660  135.7170 C   0  0  0  0  0  3  0  0  0  0  0  0
  188.7820  176.8550  135.6650 C   0  0  0  0  0  0  0  0  0  0  0  0
  187.6950  177.4220  134.9950 C   0  0  0  0  0  3  0  0  0  0  0  0
  186.5520  177.7470  137.1150 C   0  0  0  0  0  0  0  0  0  0  0  0
  187.6440  177.1760  137.7780 C   0  0  0  0  0  3  0  0  0  0  0  0
  183.2310  179.5480  138.9870 C   0  0  0  0  0  2  0  0  0  0  0  0
  181.9600  180.0610  138.3290 C   0  0  0  0  0  2  0  0  0  0  0  0
  181.8240  181.4320  138.5480 O   0  0  0  0  0  0  0  0  0  0  0  0
  180.9640  181.8650  137.5400 C   0  0  0  0  0  1  0  0  0  0  0  0
  1  7  1  0  0  0  0
  2  8  1  6  0  0  0
  2  3  1  0  0  0  0
  3  1  2  0  0  0  0
  4  6  1  0  0  0  0
  5 23  1  1  0  0  0
  5  4  1  0  0  0  0
  5  2  1  0  0  0  0
  6  7  1  0  0  0  0
  8  9  1  0  0  0  0
  9 19  1  6  0  0  0
  9 10  1  0  0  0  0
 10 14  1  0  0  0  0
 12 13  1  0  0  0  0
 13 16  1  0  0  0  0
 13 11  1  1  0  0  0
 14 12  2  0  0  0  0
 14 15  1  0  0  0  0
 15 16  2  0  0  0  0
 16 17  1  0  0  0  0
 17 18  1  0  0  0  0
 20 19  1  0  0  0  0
 21 20  1  0  0  0  0
 21 22  1  0  0  0  0
 24 35  1  1  0  0  0
 24 23  1  0  0  0  0
 25 27  2  0  0  0  0
 26 27  1  0  0  0  0
 27 24  1  0  0  0  0
 28 31  1  0  0  0  0
 29 34  1  0  0  0  0
 30 33  1  0  0  0  0
 31 29  2  0  0  0  0
 32 31  1  0  0  0  0
 32 30  2  0  0  0  0
 33 34  2  0  0  0  0
 33 26  1  0  0  0  0
 36 37  1  0  0  0  0
 36 35  1  0  0  0  0
 38 37  1  0  0  0  0
M  END
>  <MODEL>
2

>  <REMARK>
 VINA RESULT:      -7.1      2.324      6.171
  Name = 
  15 active torsions:
  status: ('A' for Active; 'I' for Inactive)
    1  A    between atoms: O_5  and  C_12
    2  A    between atoms: C_6  and  N_14
    3  A    between atoms: C_9  and  C_13
    4  A    between atoms: C_9  and  C_23
    5  A    between atoms: C_10  and  C_16
    6  A    between atoms: C_10  and  N_30
    7  A    between atoms: C_10  and  C_38
    8  A    between atoms: C_12  and  C_16
    9  A    between atoms: N_14  and  C_28
   10  A    between atoms: C_15  and  C_24
   11  A    between atoms: C_15  and  C_28
   12  A    between atoms: O_22  and  C_36
   13  A    between atoms: C_23  and  C_28
   14  A    between atoms: C_25  and  N_30
   15  A    between atoms: N_27  and  C_29
                            x       y       z     vdW  Elec       q    Type
                         _______ _______ _______ _____ _____    ______ ____

>  <TORSDO>
F 15

$$$$
=
 OpenBabel10232408123D

 38 40  0  0  1  0  0  0  0  0999 V2000
  183.8090  179.6370  144.0570 C   0  0  0  0  0  3  0  0  0  0  0  0
  184.8720  178.4900  142.0990 C   0  0  1  0  0  3  0  0  0  0  0  0
  184.8570  179.4760  143.2350 C   0  0  0  0  0  3  0  0  0  0  0  0
  182.5590  179.2480  141.6020 O   0  0  0  0  0  0  0  0  0  0  0  0
  183.7730  178.7670  141.0460 C   0  0  2  0  0  3  0  0  0  0  0  0
  182.1360  178.3480  142.5970 C   0  0  0  0  0  2  0  0  0  0  0  0
  182.5210  178.8470  143.9930 C   0  0  0  0  0  2  0  0  0  0  0  0
  186.2080  178.3640  141.5030 N   0  0  0  0  0  2  0  0  0  0  0  0
  187.2470  178.2970  142.5340 C   0  0  1  0  0  3  0  0  0  0  0  0
  187.1390  176.9960  143.3260 C   0  0  0  0  0  2  0  0  0  0  0  0
  186.8730  178.8500  147.4990 O   0  0  0  0  0  1  0  0  0  0  0  0
  186.5170  177.3600  145.7040 C   0  0  0  0  0  3  0  0  0  0  0  0
  187.1860  177.5780  147.0200 C   0  0  1  0  0  3  0  0  0  0  0  0
  187.4410  177.2080  144.7690 C   0  0  0  0  0  0  0  0  0  0  0  0
  188.7790  177.3120  145.3280 C   0  0  0  0  0  3  0  0  0  0  0  0
  188.6250  177.5280  146.6270 C   0  0  0  0  0  0  0  0  0  0  0  0
  189.6710  177.6900  147.5370 O   0  0  0  0  0  0  0  0  0  0  0  0
  190.8290  176.8660  147.5220 C   0  0  0  0  0  1  0  0  0  0  0  0
  188.6320  178.4160  141.8990 C   0  0  0  0  0  2  0  0  0  0  0  0
  189.1500  177.0730  141.3950 C   0  0  0  0  0  2  0  0  0  0  0  0
  190.4740  176.7340  142.0540 C   0  0  0  0  0  2  0  0  0  0  0  0
  190.3670  175.4760  142.7690 N   0  0  0  0  0  1  0  0  0  0  0  0
  183.5450  177.5870  140.2160 N   0  0  0  0  0  2  0  0  0  0  0  0
  183.3750  178.0280  138.8390 C   0  0  2  0  0  3  0  0  0  0  0  0
  182.8860  176.9990  136.7400 O   0  0  0  0  0  0  0  0  0  0  0  0
  183.4800  175.5360  138.4790 N   0  0  0  0  0  2  0  0  0  0  0  0
  183.2300  176.8420  137.9430 C   0  0  0  0  0  0  0  0  0  0  0  0
  183.0170  170.5130  135.7730 C   0  0  0  0  0  1  0  0  0  0  0  0
  184.3680  172.2630  136.9340 C   0  0  0  0  0  3  0  0  0  0  0  0
  182.0910  173.8320  137.3280 C   0  0  0  0  0  3  0  0  0  0  0  0
  183.1260  171.8190  136.4720 C   0  0  0  0  0  0  0  0  0  0  0  0
  181.9870  172.6040  136.6690 C   0  0  0  0  0  3  0  0  0  0  0  0
  183.3350  174.2850  137.7930 C   0  0  0  0  0  0  0  0  0  0  0  0
  184.4700  173.4920  137.5920 C   0  0  0  0  0  3  0  0  0  0  0  0
  184.5540  178.8960  138.4160 C   0  0  0  0  0  2  0  0  0  0  0  0
  185.7420  178.0450  137.9970 C   0  0  0  0  0  2  0  0  0  0  0  0
  186.9080  178.8090  138.0050 O   0  0  0  0  0  0  0  0  0  0  0  0
  187.4210  178.6820  136.7150 C   0  0  0  0  0  1  0  0  0  0  0  0
  2  8  1  6  0  0  0
  2  3  1  0  0  0  0
  3  1  2  0  0  0  0
  4  6  1  0  0  0  0
  5 23  1  1  0  0  0
  5  4  1  0  0  0  0
  5  2  1  0  0  0  0
  6  7  1  0  0  0  0
  7  1  1  0  0  0  0
  8  9  1  0  0  0  0
  9 19  1  6  0  0  0
  9 10  1  0  0  0  0
 10 14  1  0  0  0  0
 12 13  1  0  0  0  0
 13 11  1  6  0  0  0
 14 15  1  0  0  0  0
 14 12  2  0  0  0  0
 15 16  2  0  0  0  0
 16 13  1  0  0  0  0
 16 17  1  0  0  0  0
 18 17  1  0  0  0  0
 20 19  1  0  0  0  0
 20 21  1  0  0  0  0
 21 22  1  0  0  0  0
 24 35  1  6  0  0  0
 24 23  1  0  0  0  0
 25 27  2  0  0  0  0
 27 26  1  0  0  0  0
 27 24  1  0  0  0  0
 28 31  1  0  0  0  0
 29 34  1  0  0  0  0
 30 33  1  0  0  0  0
 31 32  1  0  0  0  0
 31 29  2  0  0  0  0
 32 30  2  0  0  0  0
 33 26  1  0  0  0  0
 34 33  2  0  0  0  0
 36 37  1  0  0  0  0
 36 35  1  0  0  0  0
 38 37  1  0  0  0  0
M  END
>  <MODEL>
3

>  <REMARK>
 VINA RESULT:      -6.9      3.418      5.518
  Name = 
  15 active torsions:
  status: ('A' for Active; 'I' for Inactive)
    1  A    between atoms: O_5  and  C_12
    2  A    between atoms: C_6  and  N_14
    3  A    between atoms: C_9  and  C_13
    4  A    between atoms: C_9  and  C_23
    5  A    between atoms: C_10  and  C_16
    6  A    between atoms: C_10  and  N_30
    7  A    between atoms: C_10  and  C_38
    8  A    between atoms: C_12  and  C_16
    9  A    between atoms: N_14  and  C_28
   10  A    between atoms: C_15  and  C_24
   11  A    between atoms: C_15  and  C_28
   12  A    between atoms: O_22  and  C_36
   13  A    between atoms: C_23  and  C_28
   14  A    between atoms: C_25  and  N_30
   15  A    between atoms: N_27  and  C_29
                            x       y       z     vdW  Elec       q    Type
                         _______ _______ _______ _____ _____    ______ ____

>  <TORSDO>
F 15

$$$$
=
 OpenBabel10232408123D

 38 40  0  0  1  0  0  0  0  0999 V2000
  183.3470  178.6610  145.1470 C   0  0  0  0  0  3  0  0  0  0  0  0
  184.3120  179.1030  142.8770 C   0  0  1  0  0  3  0  0  0  0  0  0
  183.2030  178.7090  143.8140 C   0  0  0  0  0  3  0  0  0  0  0  0
  185.7980  177.6810  144.2700 O   0  0  0  0  0  0  0  0  0  0  0  0
  185.5350  178.1590  142.9610 C   0  0  2  0  0  3  0  0  0  0  0  0
  185.9110  178.7840  145.1350 C   0  0  0  0  0  2  0  0  0  0  0  0
  184.6070  179.0210  145.9030 C   0  0  0  0  0  2  0  0  0  0  0  0
  183.8280  179.2840  141.5030 N   0  0  0  0  0  2  0  0  0  0  0  0
  183.1910  178.0660  140.9990 C   0  0  1  0  0  3  0  0  0  0  0  0
  181.6730  178.2280  140.9560 C   0  0  0  0  0  2  0  0  0  0  0  0
  181.5020  178.9830  136.4470 O   0  0  0  0  0  1  0  0  0  0  0  0
  180.9600  178.1250  138.5770 C   0  0  0  0  0  3  0  0  0  0  0  0
  180.5680  179.0570  137.4800 C   0  0  1  0  0  3  0  0  0  0  0  0
  181.2240  178.8270  139.6670 C   0  0  0  0  0  0  0  0  0  0  0  0
  181.0550  180.2510  139.4320 C   0  0  0  0  0  3  0  0  0  0  0  0
  180.6780  180.3770  138.1660 C   0  0  0  0  0  0  0  0  0  0  0  0
  180.4110  181.5920  137.5330 O   0  0  0  0  0  0  0  0  0  0  0  0
  181.2290  182.7410  137.7090 C   0  0  0  0  0  1  0  0  0  0  0  0
  183.7260  177.7230  139.6090 C   0  0  0  0  0  2  0  0  0  0  0  0
  184.8610  178.6510  139.1870 C   0  0  0  0  0  2  0  0  0  0  0  0
  185.5500  178.1160  137.9460 C   0  0  0  0  0  2  0  0  0  0  0  0
  186.7140  178.9250  137.6350 N   0  0  0  0  0  1  0  0  0  0  0  0
  186.7160  178.7940  142.3810 N   0  0  0  0  0  2  0  0  0  0  0  0
  187.5170  177.7600  141.7390 C   0  0  2  0  0  3  0  0  0  0  0  0
  188.2700  175.7940  142.8670 O   0  0  0  0  0  0  0  0  0  0  0  0
  189.1910  177.8190  143.6230 N   0  0  0  0  0  2  0  0  0  0  0  0
  188.3390  177.0490  142.7640 C   0  0  0  0  0  0  0  0  0  0  0  0
  192.3320  175.8550  147.9860 C   0  0  0  0  0  1  0  0  0  0  0  0
  190.3130  177.0150  147.0840 C   0  0  0  0  0  3  0  0  0  0  0  0
  191.2190  176.6640  144.4650 C   0  0  0  0  0  3  0  0  0  0  0  0
  191.5260  176.3630  146.8470 C   0  0  0  0  0  0  0  0  0  0  0  0
  191.9790  176.1870  145.5370 C   0  0  0  0  0  3  0  0  0  0  0  0
  190.0010  177.3220  144.6960 C   0  0  0  0  0  0  0  0  0  0  0  0
  189.5550  177.4920  146.0110 C   0  0  0  0  0  3  0  0  0  0  0  0
  188.3970  178.3740  140.6570 C   0  0  0  0  0  2  0  0  0  0  0  0
  189.0340  177.3010  139.7910 C   0  0  0  0  0  2  0  0  0  0  0  0
  190.3420  177.6590  139.4640 O   0  0  0  0  0  0  0  0  0  0  0  0
  190.9630  176.4570  139.1300 C   0  0  0  0  0  1  0  0  0  0  0  0
  1  7  1  0  0  0  0
  2  8  1  6  0  0  0
  2  5  1  0  0  0  0
  2  3  1  0  0  0  0
  3  1  2  0  0  0  0
  4  6  1  0  0  0  0
  5 23  1  1  0  0  0
  5  4  1  0  0  0  0
  6  7  1  0  0  0  0
  9 19  1  6  0  0  0
  9  8  1  0  0  0  0
 10  9  1  0  0  0  0
 12 14  2  0  0  0  0
 13 11  1  6  0  0  0
 13 16  1  0  0  0  0
 13 12  1  0  0  0  0
 14 10  1  0  0  0  0
 15 14  1  0  0  0  0
 16 15  2  0  0  0  0
 17 18  1  0  0  0  0
 17 16  1  0  0  0  0
 20 19  1  0  0  0  0
 21 20  1  0  0  0  0
 22 21  1  0  0  0  0
 24 35  1  6  0  0  0
 24 23  1  0  0  0  0
 24 27  1  0  0  0  0
 26 33  1  0  0  0  0
 27 25  2  0  0  0  0
 27 26  1  0  0  0  0
 30 33  2  0  0  0  0
 30 32  1  0  0  0  0
 31 29  1  0  0  0  0
 31 28  1  0  0  0  0
 32 31  2  0  0  0  0
 33 34  1  0  0  0  0
 34 29  2  0  0  0  0
 36 35  1  0  0  0  0
 37 36  1  0  0  0  0
 38 37  1  0  0  0  0
M  END
>  <MODEL>
4

>  <REMARK>
 VINA RESULT:      -6.9      2.362      8.805
  Name = 
  15 active torsions:
  status: ('A' for Active; 'I' for Inactive)
    1  A    between atoms: O_5  and  C_12
    2  A    between atoms: C_6  and  N_14
    3  A    between atoms: C_9  and  C_13
    4  A    between atoms: C_9  and  C_23
    5  A    between atoms: C_10  and  C_16
    6  A    between atoms: C_10  and  N_30
    7  A    between atoms: C_10  and  C_38
    8  A    between atoms: C_12  and  C_16
    9  A    between atoms: N_14  and  C_28
   10  A    between atoms: C_15  and  C_24
   11  A    between atoms: C_15  and  C_28
   12  A    between atoms: O_22  and  C_36
   13  A    between atoms: C_23  and  C_28
   14  A    between atoms: C_25  and  N_30
   15  A    between atoms: N_27  and  C_29
                            x       y       z     vdW  Elec       q    Type
                         _______ _______ _______ _____ _____    ______ ____

>  <TORSDO>
F 15

$$$$
=
 OpenBabel10232408123D

 38 40  0  0  1  0  0  0  0  0999 V2000
  183.0770  178.6660  143.0800 C   0  0  0  0  0  3  0  0  0  0  0  0
  184.8170  179.1870  141.3540 C   0  0  1  0  0  3  0  0  0  0  0  0
  183.4330  178.7930  141.7930 C   0  0  0  0  0  3  0  0  0  0  0  0
  185.6560  177.6240  143.0940 O   0  0  0  0  0  0  0  0  0  0  0  0
  185.9030  178.1850  141.8140 C   0  0  2  0  0  3  0  0  0  0  0  0
  185.4680  178.6730  144.0120 C   0  0  0  0  0  2  0  0  0  0  0  0
  183.9790  178.9260  144.2660 C   0  0  0  0  0  2  0  0  0  0  0  0
  184.8750  179.4640  139.9130 N   0  0  0  0  0  2  0  0  0  0  0  0
  184.5910  178.2610  139.1280 C   0  0  1  0  0  3  0  0  0  0  0  0
  183.4420  178.5100  138.1550 C   0  0  0  0  0  2  0  0  0  0  0  0
  180.6470  175.4580  140.1020 O   0  0  0  0  0  1  0  0  0  0  0  0
  181.4040  177.4630  139.1160 C   0  0  0  0  0  3  0  0  0  0  0  0
  180.5850  176.2280  138.9420 C   0  0  1  0  0  3  0  0  0  0  0  0
  182.4040  177.4450  138.2500 C   0  0  0  0  0  0  0  0  0  0  0  0
  182.3760  176.2420  137.4370 C   0  0  0  0  0  3  0  0  0  0  0  0
  181.3250  175.5420  137.8420 C   0  0  0  0  0  0  0  0  0  0  0  0
  180.9390  174.3080  137.3150 O   0  0  0  0  0  0  0  0  0  0  0  0
  181.8710  173.2700  137.0430 C   0  0  0  0  0  1  0  0  0  0  0  0
  185.8400  177.8160  138.3700 C   0  0  0  0  0  2  0  0  0  0  0  0
  185.5690  177.6200  136.8810 C   0  0  0  0  0  2  0  0  0  0  0  0
  186.7290  178.1450  136.0560 C   0  0  0  0  0  2  0  0  0  0  0  0
  187.4470  179.1640  136.8000 N   0  0  0  0  0  1  0  0  0  0  0  0
  187.2280  178.7950  141.7500 N   0  0  0  0  0  2  0  0  0  0  0  0
  188.1450  177.8270  141.1640 C   0  0  2  0  0  3  0  0  0  0  0  0
  189.3700  175.9960  142.0870 O   0  0  0  0  0  0  0  0  0  0  0  0
  189.2120  177.9060  143.4460 N   0  0  0  0  0  2  0  0  0  0  0  0
  188.9470  177.1740  142.2420 C   0  0  0  0  0  0  0  0  0  0  0  0
  192.0900  175.9900  148.0070 C   0  0  0  0  0  1  0  0  0  0  0  0
  191.9220  176.4720  145.5630 C   0  0  0  0  0  3  0  0  0  0  0  0
  189.3210  177.4400  145.8810 C   0  0  0  0  0  3  0  0  0  0  0  0
  191.3330  176.4870  146.8300 C   0  0  0  0  0  0  0  0  0  0  0  0
  190.0320  176.9720  146.9890 C   0  0  0  0  0  3  0  0  0  0  0  0
  189.9060  177.4270  144.6050 C   0  0  0  0  0  0  0  0  0  0  0  0
  191.2100  176.9420  144.4560 C   0  0  0  0  0  3  0  0  0  0  0  0
  189.0480  178.5100  140.1440 C   0  0  0  0  0  2  0  0  0  0  0  0
  189.4750  177.5420  139.0520 C   0  0  0  0  0  2  0  0  0  0  0  0
  190.8590  177.3800  139.0670 O   0  0  0  0  0  0  0  0  0  0  0  0
  191.0680  176.0920  138.5770 C   0  0  0  0  0  1  0  0  0  0  0  0
  1  7  1  0  0  0  0
  2  8  1  6  0  0  0
  2  3  1  0  0  0  0
  2  5  1  0  0  0  0
  3  1  2  0  0  0  0
  4  6  1  0  0  0  0
  5 23  1  1  0  0  0
  5  4  1  0  0  0  0
  6  7  1  0  0  0  0
  9 10  1  6  0  0  0
  9  8  1  0  0  0  0
 10 14  1  0  0  0  0
 13 12  1  0  0  0  0
 13 11  1  1  0  0  0
 14 12  2  0  0  0  0
 15 16  2  0  0  0  0
 15 14  1  0  0  0  0
 16 13  1  0  0  0  0
 17 16  1  0  0  0  0
 18 17  1  0  0  0  0
 19  9  1  0  0  0  0
 20 19  1  0  0  0  0
 21 22  1  0  0  0  0
 21 20  1  0  0  0  0
 24 35  1  6  0  0  0
 24 23  1  0  0  0  0
 24 27  1  0  0  0  0
 25 27  2  0  0  0  0
 26 33  1  0  0  0  0
 27 26  1  0  0  0  0
 29 31  1  0  0  0  0
 30 32  1  0  0  0  0
 31 32  2  0  0  0  0
 31 28  1  0  0  0  0
 33 30  2  0  0  0  0
 34 33  1  0  0  0  0
 34 29  2  0  0  0  0
 36 37  1  0  0  0  0
 36 35  1  0  0  0  0
 38 37  1  0  0  0  0
M  END
>  <MODEL>
5

>  <REMARK>
 VINA RESULT:      -6.8      2.707      8.575
  Name = 
  15 active torsions:
  status: ('A' for Active; 'I' for Inactive)
    1  A    between atoms: O_5  and  C_12
    2  A    between atoms: C_6  and  N_14
    3  A    between atoms: C_9  and  C_13
    4  A    between atoms: C_9  and  C_23
    5  A    between atoms: C_10  and  C_16
    6  A    between atoms: C_10  and  N_30
    7  A    between atoms: C_10  and  C_38
    8  A    between atoms: C_12  and  C_16
    9  A    between atoms: N_14  and  C_28
   10  A    between atoms: C_15  and  C_24
   11  A    between atoms: C_15  and  C_28
   12  A    between atoms: O_22  and  C_36
   13  A    between atoms: C_23  and  C_28
   14  A    between atoms: C_25  and  N_30
   15  A    between atoms: N_27  and  C_29
                            x       y       z     vdW  Elec       q    Type
                         _______ _______ _______ _____ _____    ______ ____

>  <TORSDO>
F 15

$$$$
=
 OpenBabel10232408123D

 38 40  0  0  1  0  0  0  0  0999 V2000
  182.9620  178.6720  144.4320 C   0  0  0  0  0  3  0  0  0  0  0  0
  184.2550  178.5570  142.2880 C   0  0  1  0  0  3  0  0  0  0  0  0
  183.0710  178.2470  143.1640 C   0  0  0  0  0  3  0  0  0  0  0  0
  185.6670  178.0490  144.2670 O   0  0  0  0  0  0  0  0  0  0  0  0
  185.5830  177.9990  142.8520 C   0  0  2  0  0  3  0  0  0  0  0  0
  185.4190  179.3690  144.6840 C   0  0  0  0  0  2  0  0  0  0  0  0
  183.9710  179.5380  145.1530 C   0  0  0  0  0  2  0  0  0  0  0  0
  184.0210  178.1610  140.8940 N   0  0  0  0  0  2  0  0  0  0  0  0
  183.2490  179.1770  140.1750 C   0  0  1  0  0  3  0  0  0  0  0  0
  184.0040  179.6540  138.9370 C   0  0  0  0  0  2  0  0  0  0  0  0
  186.9340  177.3910  136.2500 O   0  0  0  0  0  1  0  0  0  0  0  0
  185.8780  178.1970  138.2000 C   0  0  0  0  0  3  0  0  0  0  0  0
  186.1050  177.0220  137.3090 C   0  0  1  0  0  3  0  0  0  0  0  0
  184.5930  178.5120  138.1810 C   0  0  0  0  0  0  0  0  0  0  0  0
  183.8450  177.6270  137.3050 C   0  0  0  0  0  3  0  0  0  0  0  0
  184.7240  176.7700  136.8020 C   0  0  0  0  0  0  0  0  0  0  0  0
  184.4140  175.7460  135.9050 O   0  0  0  0  0  0  0  0  0  0  0  0
  184.3420  174.3820  136.3000 C   0  0  0  0  0  1  0  0  0  0  0  0
  181.8820  178.6210  139.7790 C   0  0  0  0  0  2  0  0  0  0  0  0
  181.7570  177.1310  140.0840 C   0  0  0  0  0  2  0  0  0  0  0  0
  180.4510  176.5860  139.5380 C   0  0  0  0  0  2  0  0  0  0  0  0
  180.4570  175.1350  139.5900 N   0  0  0  0  0  1  0  0  0  0  0  0
  186.7260  178.6610  142.2290 N   0  0  0  0  0  2  0  0  0  0  0  0
  187.6000  177.6350  141.6790 C   0  0  2  0  0  3  0  0  0  0  0  0
  188.2060  175.7270  142.9800 O   0  0  0  0  0  0  0  0  0  0  0  0
  189.2170  177.7520  143.6090 N   0  0  0  0  0  2  0  0  0  0  0  0
  188.3500  176.9640  142.7830 C   0  0  0  0  0  0  0  0  0  0  0  0
  192.3010  175.9190  148.0690 C   0  0  0  0  0  1  0  0  0  0  0  0
  191.9510  176.2050  145.6130 C   0  0  0  0  0  3  0  0  0  0  0  0
  189.5110  177.4900  146.0580 C   0  0  0  0  0  3  0  0  0  0  0  0
  191.4910  176.3970  146.9190 C   0  0  0  0  0  0  0  0  0  0  0  0
  190.2710  177.0400  147.1420 C   0  0  0  0  0  3  0  0  0  0  0  0
  189.9650  177.2990  144.7450 C   0  0  0  0  0  0  0  0  0  0  0  0
  191.1890  176.6550  144.5310 C   0  0  0  0  0  3  0  0  0  0  0  0
  188.5540  178.2490  140.6610 C   0  0  0  0  0  2  0  0  0  0  0  0
  189.5130  177.2080  140.1060 C   0  0  0  0  0  2  0  0  0  0  0  0
  189.1140  176.8190  138.8280 O   0  0  0  0  0  0  0  0  0  0  0  0
  190.1850  177.1660  138.0050 C   0  0  0  0  0  1  0  0  0  0  0  0
  1  7  1  0  0  0  0
  2  8  1  6  0  0  0
  2  5  1  0  0  0  0
  2  3  1  0  0  0  0
  3  1  2  0  0  0  0
  4  6  1  0  0  0  0
  5 23  1  6  0  0  0
  5  4  1  0  0  0  0
  6  7  1  0  0  0  0
  9 10  1  6  0  0  0
  9  8  1  0  0  0  0
 13 11  1  6  0  0  0
 13 12  1  0  0  0  0
 14 12  2  0  0  0  0
 14 10  1  0  0  0  0
 15 14  1  0  0  0  0
 16 15  2  0  0  0  0
 16 13  1  0  0  0  0
 17 18  1  0  0  0  0
 17 16  1  0  0  0  0
 19 20  1  0  0  0  0
 19  9  1  0  0  0  0
 21 22  1  0  0  0  0
 21 20  1  0  0  0  0
 24 35  1  6  0  0  0
 24 23  1  0  0  0  0
 24 27  1  0  0  0  0
 26 33  1  0  0  0  0
 27 25  2  0  0  0  0
 27 26  1  0  0  0  0
 29 31  1  0  0  0  0
 30 32  1  0  0  0  0
 31 32  2  0  0  0  0
 31 28  1  0  0  0  0
 33 30  2  0  0  0  0
 34 33  1  0  0  0  0
 34 29  2  0  0  0  0
 36 35  1  0  0  0  0
 37 36  1  0  0  0  0
 38 37  1  0  0  0  0
M  END
>  <MODEL>
6

>  <REMARK>
 VINA RESULT:      -6.6      2.351      8.289
  Name = 
  15 active torsions:
  status: ('A' for Active; 'I' for Inactive)
    1  A    between atoms: O_5  and  C_12
    2  A    between atoms: C_6  and  N_14
    3  A    between atoms: C_9  and  C_13
    4  A    between atoms: C_9  and  C_23
    5  A    between atoms: C_10  and  C_16
    6  A    between atoms: C_10  and  N_30
    7  A    between atoms: C_10  and  C_38
    8  A    between atoms: C_12  and  C_16
    9  A    between atoms: N_14  and  C_28
   10  A    between atoms: C_15  and  C_24
   11  A    between atoms: C_15  and  C_28
   12  A    between atoms: O_22  and  C_36
   13  A    between atoms: C_23  and  C_28
   14  A    between atoms: C_25  and  N_30
   15  A    between atoms: N_27  and  C_29
                            x       y       z     vdW  Elec       q    Type
                         _______ _______ _______ _____ _____    ______ ____

>  <TORSDO>
F 15

$$$$
=
 OpenBabel10232408123D

 38 40  0  0  1  0  0  0  0  0999 V2000
  190.4020  176.9130  145.5190 C   0  0  0  0  0  3  0  0  0  0  0  0
  188.9570  177.2340  143.4970 C   0  0  1  0  0  3  0  0  0  0  0  0
  189.2530  176.6830  144.8650 C   0  0  0  0  0  3  0  0  0  0  0  0
  191.2860  176.6070  142.9000 O   0  0  0  0  0  0  0  0  0  0  0  0
  189.9570  176.7460  142.4210 C   0  0  2  0  0  3  0  0  0  0  0  0
  191.6790  177.8220  143.4870 C   0  0  0  0  0  2  0  0  0  0  0  0
  191.5390  177.7700  145.0120 C   0  0  0  0  0  2  0  0  0  0  0  0
  187.5580  177.0150  143.1100 N   0  0  0  0  0  2  0  0  0  0  0  0
  186.7070  178.1280  143.5370 C   0  0  1  0  0  3  0  0  0  0  0  0
  185.2360  177.8110  143.2840 C   0  0  0  0  0  2  0  0  0  0  0  0
  182.5810  178.3100  139.5920 O   0  0  0  0  0  1  0  0  0  0  0  0
  183.5480  178.7240  141.7040 C   0  0  0  0  0  3  0  0  0  0  0  0
  183.4590  179.1490  140.2760 C   0  0  1  0  0  3  0  0  0  0  0  0
  184.7850  178.3290  141.9610 C   0  0  0  0  0  0  0  0  0  0  0  0
  185.6270  178.4300  140.7810 C   0  0  0  0  0  3  0  0  0  0  0  0
  184.8560  178.9020  139.8110 C   0  0  0  0  0  0  0  0  0  0  0  0
  185.2810  179.1480  138.5040 O   0  0  0  0  0  0  0  0  0  0  0  0
  185.4530  178.1080  137.5510 C   0  0  0  0  0  1  0  0  0  0  0  0
  186.9360  178.4320  145.0170 C   0  0  0  0  0  2  0  0  0  0  0  0
  186.0670  177.5640  145.9230 C   0  0  0  0  0  2  0  0  0  0  0  0
  185.2000  178.4310  146.8160 C   0  0  0  0  0  2  0  0  0  0  0  0
  183.9750  178.7890  146.1250 N   0  0  0  0  0  1  0  0  0  0  0  0
  189.9060  177.6060  141.2420 N   0  0  0  0  0  2  0  0  0  0  0  0
  189.8340  176.7540  140.0630 C   0  0  2  0  0  3  0  0  0  0  0  0
  192.1270  177.3820  139.8390 O   0  0  0  0  0  0  0  0  0  0  0  0
  191.3730  175.7310  138.3490 N   0  0  0  0  0  2  0  0  0  0  0  0
  191.1830  176.6550  139.4290 C   0  0  0  0  0  0  0  0  0  0  0  0
  196.1850  174.8780  135.3710 C   0  0  0  0  0  1  0  0  0  0  0  0
  194.7410  174.4760  137.3670 C   0  0  0  0  0  3  0  0  0  0  0  0
  192.7700  176.1710  136.3470 C   0  0  0  0  0  3  0  0  0  0  0  0
  194.9340  175.1080  136.1360 C   0  0  0  0  0  0  0  0  0  0  0  0
  193.9470  175.9560  135.6250 C   0  0  0  0  0  3  0  0  0  0  0  0
  192.5700  175.5400  137.5840 C   0  0  0  0  0  0  0  0  0  0  0  0
  193.5620  174.6920  138.0870 C   0  0  0  0  0  3  0  0  0  0  0  0
  188.8040  177.3020  139.0820 C   0  0  0  0  0  2  0  0  0  0  0  0
  189.0010  178.7910  138.8510 C   0  0  0  0  0  2  0  0  0  0  0  0
  188.5570  179.1430  137.5770 O   0  0  0  0  0  0  0  0  0  0  0  0
  189.1110  178.1830  136.7330 C   0  0  0  0  0  1  0  0  0  0  0  0
  2  8  1  6  0  0  0
  2  3  1  0  0  0  0
  3  1  2  0  0  0  0
  4  6  1  0  0  0  0
  5 23  1  6  0  0  0
  5  4  1  0  0  0  0
  5  2  1  0  0  0  0
  6  7  1  0  0  0  0
  7  1  1  0  0  0  0
  8  9  1  0  0  0  0
  9 10  1  1  0  0  0
  9 19  1  0  0  0  0
 12 14  2  0  0  0  0
 13 11  1  6  0  0  0
 13 12  1  0  0  0  0
 14 10  1  0  0  0  0
 15 14  1  0  0  0  0
 16 13  1  0  0  0  0
 16 15  2  0  0  0  0
 17 16  1  0  0  0  0
 18 17  1  0  0  0  0
 19 20  1  0  0  0  0
 20 21  1  0  0  0  0
 22 21  1  0  0  0  0
 24 35  1  6  0  0  0
 24 23  1  0  0  0  0
 26 27  1  0  0  0  0
 27 25  2  0  0  0  0
 27 24  1  0  0  0  0
 28 31  1  0  0  0  0
 29 34  1  0  0  0  0
 30 33  1  0  0  0  0
 31 29  2  0  0  0  0
 32 31  1  0  0  0  0
 32 30  2  0  0  0  0
 33 34  2  0  0  0  0
 33 26  1  0  0  0  0
 36 35  1  0  0  0  0
 37 36  1  0  0  0  0
 38 37  1  0  0  0  0
M  END
>  <MODEL>
7

>  <REMARK>
 VINA RESULT:      -6.6      2.555      7.349
  Name = 
  15 active torsions:
  status: ('A' for Active; 'I' for Inactive)
    1  A    between atoms: O_5  and  C_12
    2  A    between atoms: C_6  and  N_14
    3  A    between atoms: C_9  and  C_13
    4  A    between atoms: C_9  and  C_23
    5  A    between atoms: C_10  and  C_16
    6  A    between atoms: C_10  and  N_30
    7  A    between atoms: C_10  and  C_38
    8  A    between atoms: C_12  and  C_16
    9  A    between atoms: N_14  and  C_28
   10  A    between atoms: C_15  and  C_24
   11  A    between atoms: C_15  and  C_28
   12  A    between atoms: O_22  and  C_36
   13  A    between atoms: C_23  and  C_28
   14  A    between atoms: C_25  and  N_30
   15  A    between atoms: N_27  and  C_29
                            x       y       z     vdW  Elec       q    Type
                         _______ _______ _______ _____ _____    ______ ____

>  <TORSDO>
F 15

$$$$
=
 OpenBabel10232408123D

 38 40  0  0  1  0  0  0  0  0999 V2000
  189.0540  177.3760  145.4550 C   0  0  0  0  0  3  0  0  0  0  0  0
  187.7300  177.7070  143.3530 C   0  0  1  0  0  3  0  0  0  0  0  0
  187.9490  177.1420  144.7300 C   0  0  0  0  0  3  0  0  0  0  0  0
  190.0960  177.1100  142.8900 O   0  0  0  0  0  0  0  0  0  0  0  0
  188.7970  177.2410  142.3340 C   0  0  2  0  0  3  0  0  0  0  0  0
  190.4410  178.3230  143.5130 C   0  0  0  0  0  2  0  0  0  0  0  0
  190.2100  178.2510  145.0260 C   0  0  0  0  0  2  0  0  0  0  0  0
  186.3580  177.4770  142.8820 N   0  0  0  0  0  2  0  0  0  0  0  0
  185.5250  178.6660  143.0710 C   0  0  1  0  0  3  0  0  0  0  0  0
  184.0660  178.3620  142.7380 C   0  0  0  0  0  2  0  0  0  0  0  0
  184.0880  180.7650  138.8460 O   0  0  0  0  0  1  0  0  0  0  0  0
  184.6380  179.1140  140.4400 C   0  0  0  0  0  3  0  0  0  0  0  0
  183.9500  179.4110  139.1500 C   0  0  1  0  0  3  0  0  0  0  0  0
  183.7410  178.7190  141.3280 C   0  0  0  0  0  0  0  0  0  0  0  0
  182.4030  178.7150  140.7620 C   0  0  0  0  0  3  0  0  0  0  0  0
  182.5290  179.1170  139.5040 C   0  0  0  0  0  0  0  0  0  0  0  0
  181.4730  179.2550  138.6020 O   0  0  0  0  0  0  0  0  0  0  0  0
  180.2370  178.5720  138.7650 C   0  0  0  0  0  1  0  0  0  0  0  0
  185.6450  179.1750  144.5070 C   0  0  0  0  0  2  0  0  0  0  0  0
  184.4310  178.8010  145.3520 C   0  0  0  0  0  2  0  0  0  0  0  0
  184.8630  178.3930  146.7480 C   0  0  0  0  0  2  0  0  0  0  0  0
  185.6220  179.4640  147.3670 N   0  0  0  0  0  1  0  0  0  0  0  0
  188.8070  178.1150  141.1640 N   0  0  0  0  0  2  0  0  0  0  0  0
  188.6960  177.2800  139.9750 C   0  0  2  0  0  3  0  0  0  0  0  0
  191.0000  177.8090  139.6350 O   0  0  0  0  0  0  0  0  0  0  0  0
  190.2600  175.8030  138.6620 N   0  0  0  0  0  2  0  0  0  0  0  0
  190.0570  176.9980  139.4270 C   0  0  0  0  0  0  0  0  0  0  0  0
  195.1580  174.2700  136.1280 C   0  0  0  0  0  1  0  0  0  0  0  0
  193.8150  175.8260  137.5450 C   0  0  0  0  0  3  0  0  0  0  0  0
  191.5450  174.2260  137.2420 C   0  0  0  0  0  3  0  0  0  0  0  0
  193.8810  174.6590  136.7790 C   0  0  0  0  0  0  0  0  0  0  0  0
  192.7460  173.8580  136.6280 C   0  0  0  0  0  3  0  0  0  0  0  0
  191.4710  175.3970  138.0110 C   0  0  0  0  0  0  0  0  0  0  0  0
  192.6130  176.1920  138.1580 C   0  0  0  0  0  3  0  0  0  0  0  0
  187.8150  177.9630  138.9360 C   0  0  0  0  0  2  0  0  0  0  0  0
  187.4470  177.0070  137.8130 C   0  0  0  0  0  2  0  0  0  0  0  0
  187.9110  177.4970  136.5920 O   0  0  0  0  0  0  0  0  0  0  0  0
  187.6990  176.4540  135.6920 C   0  0  0  0  0  1  0  0  0  0  0  0
  2  8  1  6  0  0  0
  2  3  1  0  0  0  0
  3  1  2  0  0  0  0
  4  6  1  0  0  0  0
  5 23  1  6  0  0  0
  5  4  1  0  0  0  0
  5  2  1  0  0  0  0
  6  7  1  0  0  0  0
  7  1  1  0  0  0  0
  8  9  1  0  0  0  0
  9 10  1  1  0  0  0
  9 19  1  0  0  0  0
 12 14  2  0  0  0  0
 13 11  1  1  0  0  0
 13 16  1  0  0  0  0
 13 12  1  0  0  0  0
 14 10  1  0  0  0  0
 15 14  1  0  0  0  0
 16 15  2  0  0  0  0
 17 18  1  0  0  0  0
 17 16  1  0  0  0  0
 19 20  1  0  0  0  0
 20 21  1  0  0  0  0
 21 22  1  0  0  0  0
 24 35  1  6  0  0  0
 24 23  1  0  0  0  0
 26 27  1  0  0  0  0
 27 25  2  0  0  0  0
 27 24  1  0  0  0  0
 28 31  1  0  0  0  0
 29 34  1  0  0  0  0
 30 33  1  0  0  0  0
 31 29  2  0  0  0  0
 32 31  1  0  0  0  0
 32 30  2  0  0  0  0
 33 34  2  0  0  0  0
 33 26  1  0  0  0  0
 36 35  1  0  0  0  0
 37 36  1  0  0  0  0
 38 37  1  0  0  0  0
M  END
>  <MODEL>
8

>  <REMARK>
 VINA RESULT:      -6.5      2.299      7.439
  Name = 
  15 active torsions:
  status: ('A' for Active; 'I' for Inactive)
    1  A    between atoms: O_5  and  C_12
    2  A    between atoms: C_6  and  N_14
    3  A    between atoms: C_9  and  C_13
    4  A    between atoms: C_9  and  C_23
    5  A    between atoms: C_10  and  C_16
    6  A    between atoms: C_10  and  N_30
    7  A    between atoms: C_10  and  C_38
    8  A    between atoms: C_12  and  C_16
    9  A    between atoms: N_14  and  C_28
   10  A    between atoms: C_15  and  C_24
   11  A    between atoms: C_15  and  C_28
   12  A    between atoms: O_22  and  C_36
   13  A    between atoms: C_23  and  C_28
   14  A    between atoms: C_25  and  N_30
   15  A    between atoms: N_27  and  C_29
                            x       y       z     vdW  Elec       q    Type
                         _______ _______ _______ _____ _____    ______ ____

>  <TORSDO>
F 15

$$$$
=
 OpenBabel10232408123D

 38 40  0  0  1  0  0  0  0  0999 V2000
  184.4900  179.9870  144.2330 C   0  0  0  0  0  3  0  0  0  0  0  0
  185.1060  178.5560  142.2700 C   0  0  1  0  0  3  0  0  0  0  0  0
  185.3020  179.7240  143.1970 C   0  0  0  0  0  3  0  0  0  0  0  0
  182.6890  179.1280  142.2950 O   0  0  0  0  0  0  0  0  0  0  0  0
  183.7540  178.6030  141.5190 C   0  0  2  0  0  3  0  0  0  0  0  0
  182.6110  178.4020  143.4960 C   0  0  0  0  0  2  0  0  0  0  0  0
  183.2980  179.1520  144.6420 C   0  0  0  0  0  2  0  0  0  0  0  0
  186.2500  178.3770  141.3670 N   0  0  0  0  0  2  0  0  0  0  0  0
  187.5080  178.2890  142.1130 C   0  0  1  0  0  3  0  0  0  0  0  0
  187.5300  177.0400  142.9900 C   0  0  0  0  0  2  0  0  0  0  0  0
  189.8210  176.5620  146.9200 O   0  0  0  0  0  1  0  0  0  0  0  0
  189.2530  177.3190  144.7580 C   0  0  0  0  0  3  0  0  0  0  0  0
  189.3300  177.6570  146.2100 C   0  0  1  0  0  3  0  0  0  0  0  0
  187.9870  177.3510  144.3730 C   0  0  0  0  0  0  0  0  0  0  0  0
  187.1070  177.6900  145.4790 C   0  0  0  0  0  3  0  0  0  0  0  0
  187.8880  177.8630  146.5370 C   0  0  0  0  0  0  0  0  0  0  0  0
  187.4350  178.2010  147.8140 O   0  0  0  0  0  0  0  0  0  0  0  0
  188.2380  178.0380  148.9750 C   0  0  0  0  0  1  0  0  0  0  0  0
  188.6950  178.2810  141.1500 C   0  0  0  0  0  2  0  0  0  0  0  0
  188.2540  178.1500  139.6960 C   0  0  0  0  0  2  0  0  0  0  0  0
  189.2470  177.3110  138.9140 C   0  0  0  0  0  2  0  0  0  0  0  0
  188.5500  176.4980  137.9350 N   0  0  0  0  0  1  0  0  0  0  0  0
  183.4190  177.2890  140.9780 N   0  0  0  0  0  2  0  0  0  0  0  0
  182.5630  177.4820  139.8160 C   0  0  2  0  0  3  0  0  0  0  0  0
  181.2650  175.5320  139.3520 O   0  0  0  0  0  0  0  0  0  0  0  0
  183.3380  175.6600  138.2550 N   0  0  0  0  0  2  0  0  0  0  0  0
  182.3300  176.1710  139.1370 C   0  0  0  0  0  0  0  0  0  0  0  0
  183.3570  170.6030  135.5750 C   0  0  0  0  0  1  0  0  0  0  0  0
  184.4180  172.2950  137.0730 C   0  0  0  0  0  3  0  0  0  0  0  0
  182.2410  174.0170  136.7550 C   0  0  0  0  0  3  0  0  0  0  0  0
  183.3430  171.9180  136.2640 C   0  0  0  0  0  0  0  0  0  0  0  0
  182.2530  172.7790  136.1050 C   0  0  0  0  0  3  0  0  0  0  0  0
  183.3180  174.4030  137.5670 C   0  0  0  0  0  0  0  0  0  0  0  0
  184.4030  173.5340  137.7220 C   0  0  0  0  0  3  0  0  0  0  0  0
  183.1930  178.4900  138.8630 C   0  0  0  0  0  2  0  0  0  0  0  0
  182.1320  179.3220  138.1610 C   0  0  0  0  0  2  0  0  0  0  0  0
  181.3420  179.9850  139.1000 O   0  0  0  0  0  0  0  0  0  0  0  0
  181.3960  181.3250  138.7220 C   0  0  0  0  0  1  0  0  0  0  0  0
  1  7  1  0  0  0  0
  2  8  1  6  0  0  0
  2  3  1  0  0  0  0
  3  1  2  0  0  0  0
  4  6  1  0  0  0  0
  5 23  1  1  0  0  0
  5  2  1  0  0  0  0
  5  4  1  0  0  0  0
  6  7  1  0  0  0  0
  8  9  1  0  0  0  0
  9 19  1  6  0  0  0
  9 10  1  0  0  0  0
 10 14  1  0  0  0  0
 12 13  1  0  0  0  0
 13 16  1  0  0  0  0
 13 11  1  1  0  0  0
 14 12  2  0  0  0  0
 14 15  1  0  0  0  0
 15 16  2  0  0  0  0
 16 17  1  0  0  0  0
 17 18  1  0  0  0  0
 20 19  1  0  0  0  0
 21 20  1  0  0  0  0
 22 21  1  0  0  0  0
 24 35  1  6  0  0  0
 24 23  1  0  0  0  0
 26 27  1  0  0  0  0
 27 25  2  0  0  0  0
 27 24  1  0  0  0  0
 28 31  1  0  0  0  0
 29 34  1  0  0  0  0
 30 33  1  0  0  0  0
 31 29  2  0  0  0  0
 32 31  1  0  0  0  0
 32 30  2  0  0  0  0
 33 34  2  0  0  0  0
 33 26  1  0  0  0  0
 36 35  1  0  0  0  0
 36 37  1  0  0  0  0
 38 37  1  0  0  0  0
M  END
>  <MODEL>
9

>  <REMARK>
 VINA RESULT:      -6.5      3.575      6.278
  Name = 
  15 active torsions:
  status: ('A' for Active; 'I' for Inactive)
    1  A    between atoms: O_5  and  C_12
    2  A    between atoms: C_6  and  N_14
    3  A    between atoms: C_9  and  C_13
    4  A    between atoms: C_9  and  C_23
    5  A    between atoms: C_10  and  C_16
    6  A    between atoms: C_10  and  N_30
    7  A    between atoms: C_10  and  C_38
    8  A    between atoms: C_12  and  C_16
    9  A    between atoms: N_14  and  C_28
   10  A    between atoms: C_15  and  C_24
   11  A    between atoms: C_15  and  C_28
   12  A    between atoms: O_22  and  C_36
   13  A    between atoms: C_23  and  C_28
   14  A    between atoms: C_25  and  N_30
   15  A    between atoms: N_27  and  C_29
                            x       y       z     vdW  Elec       q    Type
                         _______ _______ _______ _____ _____    ______ ____

>  <TORSDO>
F 15

$$$$
