=
 OpenBabel10222421483D

 31 35  0  0  1  0  0  0  0  0999 V2000
  190.8520  176.7750  138.5860 C   0  0  0  0  0  2  0  0  0  0  0  0
  190.0300  177.6090  137.5910 C   0  0  0  0  0  2  0  0  0  0  0  0
  188.7870  178.2640  138.2170 C   0  0  2  0  0  3  0  0  0  0  0  0
  190.7200  177.3090  140.0110 C   0  0  0  0  0  2  0  0  0  0  0  0
  188.2390  177.3890  139.3440 C   0  0  0  0  0  2  0  0  0  0  0  0
  189.2600  177.2780  140.4910 C   0  0  2  0  0  3  0  0  0  0  0  0
  185.6960  178.8910  138.6020 N   0  0  0  0  0  0  0  0  0  0  0  0
  186.3990  176.4480  136.1350 C   0  0  2  0  0  3  0  0  0  0  0  0
  184.5300  178.2080  138.6800 C   0  0  0  0  0  0  0  0  0  0  0  0
  187.9100  177.4200  135.7240 S   0  0  0  0  0  0  0  0  0  0  0  0
  185.7430  177.2360  137.1960 C   0  0  0  0  0  0  0  0  0  0  0  0
  184.5070  177.1210  137.7990 C   0  0  0  0  0  3  0  0  0  0  0  0
  187.7180  178.5620  137.1620 C   0  0  1  0  0  3  0  0  0  0  0  0
  186.4040  178.2640  137.6870 N   0  0  0  0  0  0  0  0  0  0  0  0
  182.7240  177.2810  140.0920 C   0  0  0  0  0  2  0  0  0  0  0  0
  183.7460  177.9320  140.9970 C   0  0  2  0  0  3  0  0  0  0  0  0
  183.0300  178.7260  142.0690 C   0  0  0  0  0  1  0  0  0  0  0  0
  183.4370  178.5430  139.6440 C   0  0  1  0  0  3  0  0  0  0  0  0
  186.8910  174.8290  136.8000 S   0  0  0  0  0  0  0  0  0  0  0  0
  188.4260  174.8030  135.8310 C   0  0  0  0  0  1  0  0  0  0  0  0
  187.6970  178.7620  141.5560 O   0  0  0  0  0  1  0  0  0  0  0  0
  189.0350  178.3480  141.5660 C   0  0  1  0  0  3  0  0  0  0  0  0
  189.4470  177.8350  142.9630 C   0  0  1  0  0  3  0  0  0  0  0  0
  191.0050  178.0820  144.8380 O   0  0  0  0  0  0  0  0  0  0  0  0
  191.7800  178.4090  143.7110 C   0  0  0  0  0  2  0  0  0  0  0  0
  190.3450  178.7710  143.8020 C   0  0  1  0  0  3  0  0  0  0  0  0
  187.7790  176.1510  143.5190 C   0  0  0  0  0  2  0  0  0  0  0  0
  188.2830  177.3540  143.7760 C   0  0  0  0  0  0  0  0  0  0  0  0
  187.7540  178.1750  144.7800 O   0  0  0  0  0  0  0  0  0  0  0  0
  188.3850  177.3690  146.9470 C   0  0  0  0  0  1  0  0  0  0  0  0
  187.2390  177.6680  146.0040 C   0  0  0  0  0  2  0  0  0  0  0  0
  1  4  1  0  0  0  0
  2  1  1  0  0  0  0
  3  2  1  6  0  0  0
  3  5  1  0  0  0  0
  4  6  1  0  0  0  0
  5  6  1  0  0  0  0
  6 22  1  1  0  0  0
  7  9  2  0  0  0  0
  8 19  1  1  0  0  0
  8 11  1  0  0  0  0
 10  8  1  0  0  0  0
 11 14  1  0  0  0  0
 11 12  2  0  0  0  0
 12  9  1  0  0  0  0
 13 10  1  6  0  0  0
 13 14  1  0  0  0  0
 13  3  1  0  0  0  0
 14  7  1  0  0  0  0
 15 16  1  0  0  0  0
 16 17  1  1  0  0  0
 18  9  1  6  0  0  0
 18 15  1  0  0  0  0
 18 16  1  0  0  0  0
 20 19  1  0  0  0  0
 22 21  1  1  0  0  0
 22 23  1  0  0  0  0
 23 28  1  1  0  0  0
 25 26  1  0  0  0  0
 25 24  1  0  0  0  0
 26 23  1  6  0  0  0
 26 24  1  0  0  0  0
 27 28  2  0  0  0  0
 28 29  1  0  0  0  0
 29 31  1  0  0  0  0
 31 30  1  0  0  0  0
M  END
>  <MODEL>
1

>  <REMARK>
 VINA RESULT:      -6.8      0.000      0.000
  Name = 
  9 active torsions:
  status: ('A' for Active; 'I' for Inactive)
    1  A    between atoms: C_4  and  S_22
    2  A    between atoms: C_10  and  C_21
    3  A    between atoms: C_13  and  C_25
    4  A    between atoms: C_16  and  C_20
    5  A    between atoms: C_16  and  C_27
    6  A    between atoms: C_17  and  C_20
    7  A    between atoms: C_17  and  O_31
    8  A    between atoms: C_20  and  C_30
    9  A    between atoms: C_29  and  O_31
                            x       y       z     vdW  Elec       q    Type
                         _______ _______ _______ _____ _____    ______ ____

>  <TORSDO>
F 9

$$$$
=
 OpenBabel10222421483D

 31 35  0  0  1  0  0  0  0  0999 V2000
  190.9190  176.4600  138.9630 C   0  0  0  0  0  2  0  0  0  0  0  0
  190.2270  177.2900  137.8700 C   0  0  0  0  0  2  0  0  0  0  0  0
  189.0420  178.1230  138.3870 C   0  0  2  0  0  3  0  0  0  0  0  0
  190.7970  177.1240  140.3340 C   0  0  0  0  0  2  0  0  0  0  0  0
  188.3640  177.4090  139.5570 C   0  0  0  0  0  2  0  0  0  0  0  0
  189.3270  177.2880  140.7510 C   0  0  2  0  0  3  0  0  0  0  0  0
  185.9460  178.8130  138.5760 N   0  0  0  0  0  0  0  0  0  0  0  0
  186.7560  176.3570  136.1550 C   0  0  2  0  0  3  0  0  0  0  0  0
  184.7640  178.1530  138.5780 C   0  0  0  0  0  0  0  0  0  0  0  0
  188.3100  177.2970  135.8420 S   0  0  0  0  0  0  0  0  0  0  0  0
  186.0500  177.1570  137.1730 C   0  0  0  0  0  0  0  0  0  0  0  0
  184.7760  177.0670  137.6960 C   0  0  0  0  0  3  0  0  0  0  0  0
  188.0490  178.4430  137.2670 C   0  0  1  0  0  3  0  0  0  0  0  0
  186.6990  178.1720  137.7060 N   0  0  0  0  0  0  0  0  0  0  0  0
  182.8340  177.2670  139.8430 C   0  0  0  0  0  2  0  0  0  0  0  0
  183.8120  177.8650  140.8300 C   0  0  2  0  0  3  0  0  0  0  0  0
  183.0500  178.6660  141.8650 C   0  0  0  0  0  1  0  0  0  0  0  0
  183.6190  178.5110  139.4700 C   0  0  1  0  0  3  0  0  0  0  0  0
  187.1720  174.7280  136.8480 S   0  0  0  0  0  0  0  0  0  0  0  0
  188.7030  174.6120  135.8790 C   0  0  0  0  0  1  0  0  0  0  0  0
  188.0320  179.2000  141.4220 O   0  0  0  0  0  1  0  0  0  0  0  0
  189.1830  178.4620  141.7260 C   0  0  1  0  0  3  0  0  0  0  0  0
  189.1580  177.9750  143.1920 C   0  0  1  0  0  3  0  0  0  0  0  0
  187.7970  176.7010  144.7810 O   0  0  0  0  0  0  0  0  0  0  0  0
  186.9040  176.9990  143.7370 C   0  0  0  0  0  2  0  0  0  0  0  0
  188.3340  176.7010  143.4790 C   0  0  1  0  0  3  0  0  0  0  0  0
  191.3180  178.9320  143.7800 C   0  0  0  0  0  2  0  0  0  0  0  0
  190.5270  177.8640  143.7940 C   0  0  0  0  0  0  0  0  0  0  0  0
  190.9400  176.6480  144.3530 O   0  0  0  0  0  0  0  0  0  0  0  0
  190.6730  176.8470  146.7260 C   0  0  0  0  0  1  0  0  0  0  0  0
  191.6320  176.5600  145.5910 C   0  0  0  0  0  2  0  0  0  0  0  0
  1  4  1  0  0  0  0
  2  1  1  0  0  0  0
  3  2  1  6  0  0  0
  3  5  1  0  0  0  0
  4  6  1  0  0  0  0
  5  6  1  0  0  0  0
  6 22  1  1  0  0  0
  7  9  2  0  0  0  0
  8 19  1  1  0  0  0
  8 11  1  0  0  0  0
 10  8  1  0  0  0  0
 11 12  2  0  0  0  0
 11 14  1  0  0  0  0
 12  9  1  0  0  0  0
 13 10  1  6  0  0  0
 13 14  1  0  0  0  0
 13  3  1  0  0  0  0
 14  7  1  0  0  0  0
 15 16  1  0  0  0  0
 16 17  1  1  0  0  0
 18  9  1  6  0  0  0
 18 15  1  0  0  0  0
 18 16  1  0  0  0  0
 20 19  1  0  0  0  0
 22 21  1  6  0  0  0
 22 23  1  0  0  0  0
 23 28  1  6  0  0  0
 25 24  1  0  0  0  0
 26 23  1  1  0  0  0
 26 25  1  0  0  0  0
 26 24  1  0  0  0  0
 27 28  2  0  0  0  0
 28 29  1  0  0  0  0
 29 31  1  0  0  0  0
 31 30  1  0  0  0  0
M  END
>  <MODEL>
2

>  <REMARK>
 VINA RESULT:      -6.6      0.863      1.915
  Name = 
  9 active torsions:
  status: ('A' for Active; 'I' for Inactive)
    1  A    between atoms: C_4  and  S_22
    2  A    between atoms: C_10  and  C_21
    3  A    between atoms: C_13  and  C_25
    4  A    between atoms: C_16  and  C_20
    5  A    between atoms: C_16  and  C_27
    6  A    between atoms: C_17  and  C_20
    7  A    between atoms: C_17  and  O_31
    8  A    between atoms: C_20  and  C_30
    9  A    between atoms: C_29  and  O_31
                            x       y       z     vdW  Elec       q    Type
                         _______ _______ _______ _____ _____    ______ ____

>  <TORSDO>
F 9

$$$$
=
 OpenBabel10222421483D

 31 35  0  0  1  0  0  0  0  0999 V2000
  185.4110  179.1440  141.5560 C   0  0  0  0  0  2  0  0  0  0  0  0
  185.6420  178.7050  140.1020 C   0  0  0  0  0  2  0  0  0  0  0  0
  187.0150  178.0520  139.8660 C   0  0  2  0  0  3  0  0  0  0  0  0
  186.1870  178.2680  142.5370 C   0  0  0  0  0  2  0  0  0  0  0  0
  188.0540  178.6520  140.8130 C   0  0  0  0  0  2  0  0  0  0  0  0
  187.7010  178.3360  142.2780 C   0  0  2  0  0  3  0  0  0  0  0  0
  186.5440  176.0340  137.4570 N   0  0  0  0  0  0  0  0  0  0  0  0
  189.8780  177.1890  137.7720 C   0  0  2  0  0  3  0  0  0  0  0  0
  187.1640  174.9680  136.8990 C   0  0  0  0  0  0  0  0  0  0  0  0
  189.1790  178.8090  138.3040 S   0  0  0  0  0  0  0  0  0  0  0  0
  188.6920  176.3630  137.4790 C   0  0  0  0  0  0  0  0  0  0  0  0
  188.5550  175.1210  136.8940 C   0  0  0  0  0  3  0  0  0  0  0  0
  187.4490  178.1690  138.4020 C   0  0  1  0  0  3  0  0  0  0  0  0
  187.5130  176.8590  137.7960 N   0  0  0  0  0  0  0  0  0  0  0  0
  187.0330  172.5030  137.0440 C   0  0  0  0  0  2  0  0  0  0  0  0
  185.7410  173.0770  137.5820 C   0  0  2  0  0  3  0  0  0  0  0  0
  184.5760  172.2680  137.0520 C   0  0  0  0  0  1  0  0  0  0  0  0
  186.4420  173.7510  136.4160 C   0  0  1  0  0  3  0  0  0  0  0  0
  190.8010  176.4530  139.1560 S   0  0  0  0  0  0  0  0  0  0  0  0
  192.1060  175.8240  138.0620 C   0  0  0  0  0  1  0  0  0  0  0  0
  188.9800  176.3870  141.6920 O   0  0  0  0  0  1  0  0  0  0  0  0
  188.3780  177.0510  142.7680 C   0  0  1  0  0  3  0  0  0  0  0  0
  189.4060  177.3480  143.8820 C   0  0  1  0  0  3  0  0  0  0  0  0
  191.5480  178.4220  144.3930 O   0  0  0  0  0  0  0  0  0  0  0  0
  191.6510  178.0980  143.0290 C   0  0  0  0  0  2  0  0  0  0  0  0
  190.3680  178.5310  143.6320 C   0  0  1  0  0  3  0  0  0  0  0  0
  189.4030  176.8990  146.2750 C   0  0  0  0  0  2  0  0  0  0  0  0
  188.7800  177.4550  145.2400 C   0  0  0  0  0  0  0  0  0  0  0  0
  187.5640  178.1330  145.3900 O   0  0  0  0  0  0  0  0  0  0  0  0
  185.5160  178.8090  146.4350 C   0  0  0  0  0  1  0  0  0  0  0  0
  186.5470  177.7100  146.2870 C   0  0  0  0  0  2  0  0  0  0  0  0
  1  4  1  0  0  0  0
  2  1  1  0  0  0  0
  3  2  1  6  0  0  0
  3  5  1  0  0  0  0
  5  6  1  0  0  0  0
  6  4  1  0  0  0  0
  6 22  1  6  0  0  0
  7 14  1  0  0  0  0
  8 10  1  0  0  0  0
  8 19  1  1  0  0  0
  9  7  2  0  0  0  0
 11  8  1  0  0  0  0
 11 14  1  0  0  0  0
 12  9  1  0  0  0  0
 12 11  2  0  0  0  0
 13 10  1  1  0  0  0
 13  3  1  0  0  0  0
 14 13  1  0  0  0  0
 15 16  1  0  0  0  0
 16 17  1  6  0  0  0
 18  9  1  1  0  0  0
 18 15  1  0  0  0  0
 18 16  1  0  0  0  0
 20 19  1  0  0  0  0
 22 21  1  6  0  0  0
 22 23  1  0  0  0  0
 23 28  1  1  0  0  0
 25 26  1  0  0  0  0
 25 24  1  0  0  0  0
 26 23  1  1  0  0  0
 26 24  1  0  0  0  0
 28 29  1  0  0  0  0
 28 27  2  0  0  0  0
 29 31  1  0  0  0  0
 31 30  1  0  0  0  0
M  END
>  <MODEL>
3

>  <REMARK>
 VINA RESULT:      -6.5      2.139      3.975
  Name = 
  9 active torsions:
  status: ('A' for Active; 'I' for Inactive)
    1  A    between atoms: C_4  and  S_22
    2  A    between atoms: C_10  and  C_21
    3  A    between atoms: C_13  and  C_25
    4  A    between atoms: C_16  and  C_20
    5  A    between atoms: C_16  and  C_27
    6  A    between atoms: C_17  and  C_20
    7  A    between atoms: C_17  and  O_31
    8  A    between atoms: C_20  and  C_30
    9  A    between atoms: C_29  and  O_31
                            x       y       z     vdW  Elec       q    Type
                         _______ _______ _______ _____ _____    ______ ____

>  <TORSDO>
F 9

$$$$
=
 OpenBabel10222421483D

 31 35  0  0  1  0  0  0  0  0999 V2000
  185.2400  179.1580  140.7950 C   0  0  0  0  0  2  0  0  0  0  0  0
  185.5310  178.5550  139.4120 C   0  0  0  0  0  2  0  0  0  0  0  0
  186.9540  177.9890  139.2740 C   0  0  2  0  0  3  0  0  0  0  0  0
  186.0640  178.4800  141.8880 C   0  0  0  0  0  2  0  0  0  0  0  0
  187.9260  178.7870  140.1440 C   0  0  0  0  0  2  0  0  0  0  0  0
  187.5720  178.6350  141.6340 C   0  0  2  0  0  3  0  0  0  0  0  0
  186.3400  175.8230  137.0320 N   0  0  0  0  0  0  0  0  0  0  0  0
  189.7530  176.7350  137.2920 C   0  0  2  0  0  3  0  0  0  0  0  0
  186.8760  174.6690  136.5700 C   0  0  0  0  0  0  0  0  0  0  0  0
  189.1800  178.4430  137.6810 S   0  0  0  0  0  0  0  0  0  0  0  0
  188.5060  175.9840  137.0530 C   0  0  0  0  0  0  0  0  0  0  0  0
  188.2750  174.7120  136.5690 C   0  0  0  0  0  3  0  0  0  0  0  0
  187.4050  177.9510  137.8110 C   0  0  1  0  0  3  0  0  0  0  0  0
  187.3690  176.5950  137.3140 N   0  0  0  0  0  0  0  0  0  0  0  0
  186.6670  172.2130  136.7590 C   0  0  0  0  0  2  0  0  0  0  0  0
  185.4590  172.8430  137.4180 C   0  0  2  0  0  3  0  0  0  0  0  0
  184.2160  172.0750  137.0200 C   0  0  0  0  0  1  0  0  0  0  0  0
  186.0620  173.4780  136.1790 C   0  0  1  0  0  3  0  0  0  0  0  0
  190.6060  176.0450  138.7420 S   0  0  0  0  0  0  0  0  0  0  0  0
  191.8340  175.1860  137.7160 C   0  0  0  0  0  1  0  0  0  0  0  0
  189.5330  177.2440  141.6000 O   0  0  0  0  0  1  0  0  0  0  0  0
  188.3390  177.4820  142.2920 C   0  0  1  0  0  3  0  0  0  0  0  0
  188.6100  177.7680  143.7850 C   0  0  1  0  0  3  0  0  0  0  0  0
  187.8860  177.4540  146.1050 O   0  0  0  0  0  0  0  0  0  0  0  0
  186.6860  177.6710  145.4040 C   0  0  0  0  0  2  0  0  0  0  0  0
  187.8150  176.9200  144.8030 C   0  0  1  0  0  3  0  0  0  0  0  0
  190.7550  178.8990  144.0020 C   0  0  0  0  0  2  0  0  0  0  0  0
  190.0700  177.7660  144.1250 C   0  0  0  0  0  0  0  0  0  0  0  0
  190.6770  176.5820  144.5600 O   0  0  0  0  0  0  0  0  0  0  0  0
  191.1370  176.5900  146.9120 C   0  0  0  0  0  1  0  0  0  0  0  0
  191.7270  176.5560  145.5180 C   0  0  0  0  0  2  0  0  0  0  0  0
  1  4  1  0  0  0  0
  2  1  1  0  0  0  0
  3  2  1  6  0  0  0
  3  5  1  0  0  0  0
  5  6  1  0  0  0  0
  6  4  1  0  0  0  0
  6 22  1  6  0  0  0
  7 14  1  0  0  0  0
  8 10  1  0  0  0  0
  8 19  1  1  0  0  0
  9  7  2  0  0  0  0
 11  8  1  0  0  0  0
 11 14  1  0  0  0  0
 12  9  1  0  0  0  0
 12 11  2  0  0  0  0
 13 10  1  1  0  0  0
 13  3  1  0  0  0  0
 14 13  1  0  0  0  0
 15 16  1  0  0  0  0
 16 17  1  6  0  0  0
 18  9  1  1  0  0  0
 18 15  1  0  0  0  0
 18 16  1  0  0  0  0
 20 19  1  0  0  0  0
 22 21  1  6  0  0  0
 22 23  1  0  0  0  0
 23 28  1  6  0  0  0
 25 24  1  0  0  0  0
 26 23  1  6  0  0  0
 26 25  1  0  0  0  0
 26 24  1  0  0  0  0
 27 28  2  0  0  0  0
 28 29  1  0  0  0  0
 29 31  1  0  0  0  0
 31 30  1  0  0  0  0
M  END
>  <MODEL>
4

>  <REMARK>
 VINA RESULT:      -6.4      2.237      4.256
  Name = 
  9 active torsions:
  status: ('A' for Active; 'I' for Inactive)
    1  A    between atoms: C_4  and  S_22
    2  A    between atoms: C_10  and  C_21
    3  A    between atoms: C_13  and  C_25
    4  A    between atoms: C_16  and  C_20
    5  A    between atoms: C_16  and  C_27
    6  A    between atoms: C_17  and  C_20
    7  A    between atoms: C_17  and  O_31
    8  A    between atoms: C_20  and  C_30
    9  A    between atoms: C_29  and  O_31
                            x       y       z     vdW  Elec       q    Type
                         _______ _______ _______ _____ _____    ______ ____

>  <TORSDO>
F 9

$$$$
=
 OpenBabel10222421483D

 31 35  0  0  1  0  0  0  0  0999 V2000
  186.0630  176.0990  136.8870 C   0  0  0  0  0  2  0  0  0  0  0  0
  185.1930  177.3500  137.0900 C   0  0  0  0  0  2  0  0  0  0  0  0
  185.8120  178.3820  138.0480 C   0  0  2  0  0  3  0  0  0  0  0  0
  187.5480  176.4150  137.0550 C   0  0  0  0  0  2  0  0  0  0  0  0
  186.6580  177.6770  139.1090 C   0  0  0  0  0  2  0  0  0  0  0  0
  187.8540  176.9570  138.4600 C   0  0  2  0  0  3  0  0  0  0  0  0
  185.5550  179.4080  141.0440 N   0  0  0  0  0  0  0  0  0  0  0  0
  182.5760  178.0400  139.7030 C   0  0  2  0  0  3  0  0  0  0  0  0
  185.0000  178.9950  142.2080 C   0  0  0  0  0  0  0  0  0  0  0  0
  183.0660  178.7740  138.0850 S   0  0  0  0  0  0  0  0  0  0  0  0
  183.6440  178.4620  140.6280 C   0  0  0  0  0  0  0  0  0  0  0  0
  183.7670  178.3670  141.9990 C   0  0  0  0  0  3  0  0  0  0  0  0
  184.7410  179.2750  138.6800 C   0  0  1  0  0  3  0  0  0  0  0  0
  184.6960  179.0620  140.1090 N   0  0  0  0  0  0  0  0  0  0  0  0
  184.8000  178.5350  144.6290 C   0  0  0  0  0  2  0  0  0  0  0  0
  185.9860  177.7610  144.0970 C   0  0  2  0  0  3  0  0  0  0  0  0
  187.1390  177.8820  145.0700 C   0  0  0  0  0  1  0  0  0  0  0  0
  185.6680  179.1350  143.5380 C   0  0  1  0  0  3  0  0  0  0  0  0
  182.5780  176.2270  139.5620 S   0  0  0  0  0  0  0  0  0  0  0  0
  181.6710  176.2630  137.9900 C   0  0  0  0  0  1  0  0  0  0  0  0
  188.7620  179.1710  138.6970 O   0  0  0  0  0  1  0  0  0  0  0  0
  189.1060  177.8410  138.4240 C   0  0  1  0  0  3  0  0  0  0  0  0
  190.1810  177.3330  139.4100 C   0  0  1  0  0  3  0  0  0  0  0  0
  190.7000  176.6480  141.7040 O   0  0  0  0  0  0  0  0  0  0  0  0
  189.8170  177.7300  141.8680 C   0  0  0  0  0  2  0  0  0  0  0  0
  189.6690  176.7640  140.7520 C   0  0  1  0  0  3  0  0  0  0  0  0
  192.3890  176.8160  138.5240 C   0  0  0  0  0  2  0  0  0  0  0  0
  191.1560  176.3880  138.7750 C   0  0  0  0  0  0  0  0  0  0  0  0
  190.7510  175.0840  138.4620 O   0  0  0  0  0  0  0  0  0  0  0  0
  189.6350  173.5770  136.9690 C   0  0  0  0  0  1  0  0  0  0  0  0
  190.7710  174.5630  137.1400 C   0  0  0  0  0  2  0  0  0  0  0  0
  1  4  1  0  0  0  0
  1  2  1  0  0  0  0
  3  2  1  1  0  0  0
  3 13  1  0  0  0  0
  3  5  1  0  0  0  0
  4  6  1  0  0  0  0
  6 22  1  6  0  0  0
  6  5  1  0  0  0  0
  7  9  2  0  0  0  0
  8 19  1  6  0  0  0
  8 11  1  0  0  0  0
 10  8  1  0  0  0  0
 11 12  2  0  0  0  0
 12  9  1  0  0  0  0
 13 10  1  6  0  0  0
 13 14  1  0  0  0  0
 14 11  1  0  0  0  0
 14  7  1  0  0  0  0
 16 15  1  0  0  0  0
 16 17  1  1  0  0  0
 18  9  1  6  0  0  0
 18 16  1  0  0  0  0
 18 15  1  0  0  0  0
 20 19  1  0  0  0  0
 22 21  1  1  0  0  0
 22 23  1  0  0  0  0
 23 28  1  6  0  0  0
 24 25  1  0  0  0  0
 26 23  1  6  0  0  0
 26 24  1  0  0  0  0
 26 25  1  0  0  0  0
 27 28  2  0  0  0  0
 29 28  1  0  0  0  0
 30 31  1  0  0  0  0
 31 29  1  0  0  0  0
M  END
>  <MODEL>
5

>  <REMARK>
 VINA RESULT:      -6.0      2.447      5.133
  Name = 
  9 active torsions:
  status: ('A' for Active; 'I' for Inactive)
    1  A    between atoms: C_4  and  S_22
    2  A    between atoms: C_10  and  C_21
    3  A    between atoms: C_13  and  C_25
    4  A    between atoms: C_16  and  C_20
    5  A    between atoms: C_16  and  C_27
    6  A    between atoms: C_17  and  C_20
    7  A    between atoms: C_17  and  O_31
    8  A    between atoms: C_20  and  C_30
    9  A    between atoms: C_29  and  O_31
                            x       y       z     vdW  Elec       q    Type
                         _______ _______ _______ _____ _____    ______ ____

>  <TORSDO>
F 9

$$$$
=
 OpenBabel10222421483D

 31 35  0  0  1  0  0  0  0  0999 V2000
  190.5000  177.6220  139.8450 C   0  0  0  0  0  2  0  0  0  0  0  0
  190.4960  176.5620  140.9570 C   0  0  0  0  0  2  0  0  0  0  0  0
  189.1910  176.5290  141.7710 C   0  0  2  0  0  3  0  0  0  0  0  0
  189.0910  177.8970  139.3250 C   0  0  0  0  0  2  0  0  0  0  0  0
  188.5770  177.9270  141.8430 C   0  0  0  0  0  2  0  0  0  0  0  0
  188.1680  178.4140  140.4410 C   0  0  2  0  0  3  0  0  0  0  0  0
  187.3030  176.6230  144.3250 N   0  0  0  0  0  0  0  0  0  0  0  0
  190.6760  177.5000  144.9630 C   0  0  2  0  0  3  0  0  0  0  0  0
  187.0870  177.4300  145.3910 C   0  0  0  0  0  0  0  0  0  0  0  0
  191.1540  176.2350  143.7100 S   0  0  0  0  0  0  0  0  0  0  0  0
  189.2050  177.4050  145.0270 C   0  0  0  0  0  0  0  0  0  0  0  0
  188.2810  177.9710  145.8810 C   0  0  0  0  0  3  0  0  0  0  0  0
  189.4140  175.9370  143.1660 C   0  0  1  0  0  3  0  0  0  0  0  0
  188.6060  176.6380  144.1390 N   0  0  0  0  0  0  0  0  0  0  0  0
  185.6970  179.1630  146.4750 C   0  0  0  0  0  2  0  0  0  0  0  0
  185.1120  178.8730  145.1100 C   0  0  2  0  0  3  0  0  0  0  0  0
  183.6040  178.7880  145.2210 C   0  0  0  0  0  1  0  0  0  0  0  0
  185.7280  177.7490  145.9240 C   0  0  1  0  0  3  0  0  0  0  0  0
  191.1510  179.1480  144.3600 S   0  0  0  0  0  0  0  0  0  0  0  0
  192.1630  178.4600  143.0190 C   0  0  0  0  0  1  0  0  0  0  0  0
  185.8640  178.6190  141.0930 O   0  0  0  0  0  1  0  0  0  0  0  0
  186.7090  178.0740  140.1180 C   0  0  1  0  0  3  0  0  0  0  0  0
  186.3170  178.5650  138.7070 C   0  0  1  0  0  3  0  0  0  0  0  0
  186.3830  178.2050  136.2850 O   0  0  0  0  0  0  0  0  0  0  0  0
  187.6690  178.6850  136.5890 C   0  0  0  0  0  2  0  0  0  0  0  0
  186.9300  177.7950  137.5170 C   0  0  1  0  0  3  0  0  0  0  0  0
  184.1330  177.6660  138.1150 C   0  0  0  0  0  2  0  0  0  0  0  0
  184.8360  178.7150  138.5310 C   0  0  0  0  0  0  0  0  0  0  0  0
  184.2280  179.9460  138.8070 O   0  0  0  0  0  0  0  0  0  0  0  0
  182.1060  181.0070  138.4710 C   0  0  0  0  0  1  0  0  0  0  0  0
  182.9130  180.0600  139.3330 C   0  0  0  0  0  2  0  0  0  0  0  0
  1  2  1  0  0  0  0
  3  2  1  1  0  0  0
  3  5  1  0  0  0  0
  3 13  1  0  0  0  0
  4  1  1  0  0  0  0
  4  6  1  0  0  0  0
  6 22  1  6  0  0  0
  6  5  1  0  0  0  0
  7  9  2  0  0  0  0
  8 19  1  6  0  0  0
  8 11  1  0  0  0  0
  9 12  1  0  0  0  0
 10  8  1  0  0  0  0
 11 12  2  0  0  0  0
 13 10  1  1  0  0  0
 13 14  1  0  0  0  0
 14  7  1  0  0  0  0
 14 11  1  0  0  0  0
 16 17  1  1  0  0  0
 16 18  1  0  0  0  0
 16 15  1  0  0  0  0
 18  9  1  6  0  0  0
 18 15  1  0  0  0  0
 20 19  1  0  0  0  0
 22 21  1  1  0  0  0
 23 28  1  1  0  0  0
 23 22  1  0  0  0  0
 24 25  1  0  0  0  0
 24 26  1  0  0  0  0
 25 26  1  0  0  0  0
 26 23  1  1  0  0  0
 27 28  2  0  0  0  0
 28 29  1  0  0  0  0
 29 31  1  0  0  0  0
 30 31  1  0  0  0  0
M  END
>  <MODEL>
6

>  <REMARK>
 VINA RESULT:      -5.7      3.429      6.824
  Name = 
  9 active torsions:
  status: ('A' for Active; 'I' for Inactive)
    1  A    between atoms: C_4  and  S_22
    2  A    between atoms: C_10  and  C_21
    3  A    between atoms: C_13  and  C_25
    4  A    between atoms: C_16  and  C_20
    5  A    between atoms: C_16  and  C_27
    6  A    between atoms: C_17  and  C_20
    7  A    between atoms: C_17  and  O_31
    8  A    between atoms: C_20  and  C_30
    9  A    between atoms: C_29  and  O_31
                            x       y       z     vdW  Elec       q    Type
                         _______ _______ _______ _____ _____    ______ ____

>  <TORSDO>
F 9

$$$$
=
 OpenBabel10222421483D

 31 35  0  0  1  0  0  0  0  0999 V2000
  187.7460  178.4170  140.1730 C   0  0  0  0  0  2  0  0  0  0  0  0
  188.1510  177.9690  141.5860 C   0  0  0  0  0  2  0  0  0  0  0  0
  189.3730  177.0340  141.6090 C   0  0  2  0  0  3  0  0  0  0  0  0
  188.9480  178.4610  139.2310 C   0  0  0  0  0  2  0  0  0  0  0  0
  189.4140  176.1880  140.3370 C   0  0  0  0  0  2  0  0  0  0  0  0
  189.6090  177.0790  139.0970 C   0  0  2  0  0  3  0  0  0  0  0  0
  187.2370  176.8390  143.9530 N   0  0  0  0  0  0  0  0  0  0  0  0
  190.5860  177.2030  145.0480 C   0  0  2  0  0  3  0  0  0  0  0  0
  186.9810  177.4430  145.1380 C   0  0  0  0  0  0  0  0  0  0  0  0
  191.0810  176.1590  143.6120 S   0  0  0  0  0  0  0  0  0  0  0  0
  189.1150  177.2580  144.9620 C   0  0  0  0  0  0  0  0  0  0  0  0
  188.1590  177.7460  145.8300 C   0  0  0  0  0  3  0  0  0  0  0  0
  189.3900  176.1630  142.8680 C   0  0  1  0  0  3  0  0  0  0  0  0
  188.5490  176.7470  143.8880 N   0  0  0  0  0  0  0  0  0  0  0  0
  185.6190  179.1470  146.3010 C   0  0  0  0  0  2  0  0  0  0  0  0
  185.1280  179.0420  144.8750 C   0  0  2  0  0  3  0  0  0  0  0  0
  183.6130  179.0530  144.8670 C   0  0  0  0  0  1  0  0  0  0  0  0
  185.6060  177.8000  145.6030 C   0  0  1  0  0  3  0  0  0  0  0  0
  191.2690  178.8750  144.8360 S   0  0  0  0  0  0  0  0  0  0  0  0
  191.9820  178.4700  143.2160 C   0  0  0  0  0  1  0  0  0  0  0  0
  191.8840  177.1030  139.8730 O   0  0  0  0  0  1  0  0  0  0  0  0
  191.0880  177.2350  138.7280 C   0  0  1  0  0  3  0  0  0  0  0  0
  191.5060  176.2200  137.6420 C   0  0  1  0  0  3  0  0  0  0  0  0
  193.0270  174.4120  136.9920 O   0  0  0  0  0  0  0  0  0  0  0  0
  193.8580  175.3240  137.6650 C   0  0  0  0  0  2  0  0  0  0  0  0
  192.4570  175.0870  138.0890 C   0  0  1  0  0  3  0  0  0  0  0  0
  189.8740  176.3380  135.8400 C   0  0  0  0  0  2  0  0  0  0  0  0
  190.3400  175.6610  136.8850 C   0  0  0  0  0  0  0  0  0  0  0  0
  189.7690  174.4480  137.2900 O   0  0  0  0  0  0  0  0  0  0  0  0
  188.0260  172.8400  136.9470 C   0  0  0  0  0  1  0  0  0  0  0  0
  189.2720  173.4810  136.3750 C   0  0  0  0  0  2  0  0  0  0  0  0
  1  2  1  0  0  0  0
  2  3  1  0  0  0  0
  3  5  1  6  0  0  0
  3 13  1  0  0  0  0
  4  1  1  0  0  0  0
  6 22  1  1  0  0  0
  6  4  1  0  0  0  0
  6  5  1  0  0  0  0
  7  9  2  0  0  0  0
  8 19  1  6  0  0  0
  9 12  1  0  0  0  0
 10  8  1  0  0  0  0
 11  8  1  0  0  0  0
 11 12  2  0  0  0  0
 13 10  1  1  0  0  0
 13 14  1  0  0  0  0
 14  7  1  0  0  0  0
 14 11  1  0  0  0  0
 16 17  1  1  0  0  0
 16 18  1  0  0  0  0
 16 15  1  0  0  0  0
 18  9  1  6  0  0  0
 18 15  1  0  0  0  0
 20 19  1  0  0  0  0
 22 21  1  1  0  0  0
 23 28  1  1  0  0  0
 23 22  1  0  0  0  0
 24 25  1  0  0  0  0
 24 26  1  0  0  0  0
 25 26  1  0  0  0  0
 26 23  1  6  0  0  0
 27 28  2  0  0  0  0
 28 29  1  0  0  0  0
 31 30  1  0  0  0  0
 31 29  1  0  0  0  0
M  END
>  <MODEL>
7

>  <REMARK>
 VINA RESULT:      -5.6      3.880      7.020
  Name = 
  9 active torsions:
  status: ('A' for Active; 'I' for Inactive)
    1  A    between atoms: C_4  and  S_22
    2  A    between atoms: C_10  and  C_21
    3  A    between atoms: C_13  and  C_25
    4  A    between atoms: C_16  and  C_20
    5  A    between atoms: C_16  and  C_27
    6  A    between atoms: C_17  and  C_20
    7  A    between atoms: C_17  and  O_31
    8  A    between atoms: C_20  and  C_30
    9  A    between atoms: C_29  and  O_31
                            x       y       z     vdW  Elec       q    Type
                         _______ _______ _______ _____ _____    ______ ____

>  <TORSDO>
F 9

$$$$
=
 OpenBabel10222421483D

 31 35  0  0  1  0  0  0  0  0999 V2000
  191.2050  177.6640  140.0040 C   0  0  0  0  0  2  0  0  0  0  0  0
  191.0360  176.6140  141.1140 C   0  0  0  0  0  2  0  0  0  0  0  0
  189.5850  176.4660  141.6040 C   0  0  2  0  0  3  0  0  0  0  0  0
  189.9370  177.8030  139.1640 C   0  0  0  0  0  2  0  0  0  0  0  0
  188.8500  177.8020  141.4930 C   0  0  0  0  0  2  0  0  0  0  0  0
  188.7380  178.2390  140.0220 C   0  0  2  0  0  3  0  0  0  0  0  0
  187.2310  176.6090  143.7330 N   0  0  0  0  0  0  0  0  0  0  0  0
  190.4130  177.5120  145.0030 C   0  0  2  0  0  3  0  0  0  0  0  0
  186.8100  177.4380  144.7180 C   0  0  0  0  0  0  0  0  0  0  0  0
  191.1270  176.2220  143.8980 S   0  0  0  0  0  0  0  0  0  0  0  0
  188.9580  177.4130  144.7780 C   0  0  0  0  0  0  0  0  0  0  0  0
  187.8840  177.9950  145.4210 C   0  0  0  0  0  3  0  0  0  0  0  0
  189.5280  175.9060  143.0280 C   0  0  1  0  0  3  0  0  0  0  0  0
  188.5450  176.6240  143.8070 N   0  0  0  0  0  0  0  0  0  0  0  0
  185.2400  179.1640  145.5360 C   0  0  0  0  0  2  0  0  0  0  0  0
  184.9500  178.9160  144.0720 C   0  0  2  0  0  3  0  0  0  0  0  0
  183.4510  178.8510  143.8640 C   0  0  0  0  0  1  0  0  0  0  0  0
  185.3720  177.7640  144.9650 C   0  0  1  0  0  3  0  0  0  0  0  0
  190.9980  179.1480  144.4690 S   0  0  0  0  0  0  0  0  0  0  0  0
  192.3400  178.4380  143.4740 C   0  0  0  0  0  1  0  0  0  0  0  0
  186.4730  178.7850  139.4300 O   0  0  0  0  0  1  0  0  0  0  0  0
  187.4300  177.7640  139.3790 C   0  0  1  0  0  3  0  0  0  0  0  0
  187.6580  177.2880  137.9280 C   0  0  1  0  0  3  0  0  0  0  0  0
  187.9540  175.4300  136.3590 O   0  0  0  0  0  0  0  0  0  0  0  0
  189.0260  175.2850  137.2570 C   0  0  0  0  0  2  0  0  0  0  0  0
  187.6930  175.7600  137.7030 C   0  0  1  0  0  3  0  0  0  0  0  0
  187.1910  178.9600  136.2210 C   0  0  0  0  0  2  0  0  0  0  0  0
  186.7340  177.9440  136.9460 C   0  0  0  0  0  0  0  0  0  0  0  0
  185.4200  177.4760  136.8140 O   0  0  0  0  0  0  0  0  0  0  0  0
  183.4600  177.2970  135.4470 C   0  0  0  0  0  1  0  0  0  0  0  0
  184.9150  176.9140  135.6110 C   0  0  0  0  0  2  0  0  0  0  0  0
  1  2  1  0  0  0  0
  3  2  1  1  0  0  0
  3 13  1  0  0  0  0
  4  1  1  0  0  0  0
  4  6  1  0  0  0  0
  5  3  1  0  0  0  0
  6 22  1  6  0  0  0
  6  5  1  0  0  0  0
  7 14  1  0  0  0  0
  7  9  2  0  0  0  0
  8 19  1  6  0  0  0
  9 12  1  0  0  0  0
 10  8  1  0  0  0  0
 11  8  1  0  0  0  0
 11 12  2  0  0  0  0
 13 14  1  0  0  0  0
 13 10  1  1  0  0  0
 14 11  1  0  0  0  0
 16 17  1  1  0  0  0
 16 18  1  0  0  0  0
 16 15  1  0  0  0  0
 18  9  1  6  0  0  0
 18 15  1  0  0  0  0
 20 19  1  0  0  0  0
 22 21  1  6  0  0  0
 23 28  1  6  0  0  0
 23 22  1  0  0  0  0
 24 25  1  0  0  0  0
 24 26  1  0  0  0  0
 25 26  1  0  0  0  0
 26 23  1  6  0  0  0
 27 28  2  0  0  0  0
 29 28  1  0  0  0  0
 30 31  1  0  0  0  0
 31 29  1  0  0  0  0
M  END
>  <MODEL>
8

>  <REMARK>
 VINA RESULT:      -5.6      3.600      6.913
  Name = 
  9 active torsions:
  status: ('A' for Active; 'I' for Inactive)
    1  A    between atoms: C_4  and  S_22
    2  A    between atoms: C_10  and  C_21
    3  A    between atoms: C_13  and  C_25
    4  A    between atoms: C_16  and  C_20
    5  A    between atoms: C_16  and  C_27
    6  A    between atoms: C_17  and  C_20
    7  A    between atoms: C_17  and  O_31
    8  A    between atoms: C_20  and  C_30
    9  A    between atoms: C_29  and  O_31
                            x       y       z     vdW  Elec       q    Type
                         _______ _______ _______ _____ _____    ______ ____

>  <TORSDO>
F 9

$$$$
=
 OpenBabel10222421483D

 31 35  0  0  1  0  0  0  0  0999 V2000
  190.8200  176.5780  139.9360 C   0  0  0  0  0  2  0  0  0  0  0  0
  190.3850  177.5180  138.8000 C   0  0  0  0  0  2  0  0  0  0  0  0
  189.0910  178.2920  139.1030 C   0  0  2  0  0  3  0  0  0  0  0  0
  190.3610  177.0940  141.2980 C   0  0  0  0  0  2  0  0  0  0  0  0
  188.1740  177.4590  139.9980 C   0  0  0  0  0  2  0  0  0  0  0  0
  188.8300  177.2130  141.3690 C   0  0  2  0  0  3  0  0  0  0  0  0
  185.9880  178.6920  138.5470 N   0  0  0  0  0  0  0  0  0  0  0  0
  187.6820  176.7770  136.0950 C   0  0  2  0  0  3  0  0  0  0  0  0
  184.9350  177.9520  138.1290 C   0  0  0  0  0  0  0  0  0  0  0  0
  189.1360  177.8780  136.3600 S   0  0  0  0  0  0  0  0  0  0  0  0
  186.6470  177.3260  136.9920 C   0  0  0  0  0  0  0  0  0  0  0  0
  185.3030  177.0440  137.1300 C   0  0  0  0  0  3  0  0  0  0  0  0
  188.3830  178.7280  137.8170 C   0  0  1  0  0  3  0  0  0  0  0  0
  187.0100  178.2770  137.8280 N   0  0  0  0  0  0  0  0  0  0  0  0
  183.1270  179.5040  138.7860 C   0  0  0  0  0  2  0  0  0  0  0  0
  182.6020  178.6060  137.6880 C   0  0  2  0  0  3  0  0  0  0  0  0
  181.1990  178.1570  138.0380 C   0  0  0  0  0  1  0  0  0  0  0  0
  183.5660  178.0530  138.7220 C   0  0  1  0  0  3  0  0  0  0  0  0
  188.1050  175.0890  136.6200 S   0  0  0  0  0  0  0  0  0  0  0  0
  187.4310  174.3560  135.1020 C   0  0  0  0  0  1  0  0  0  0  0  0
  187.2960  178.9700  141.9520 O   0  0  0  0  0  1  0  0  0  0  0  0
  188.4300  178.2790  142.3960 C   0  0  1  0  0  3  0  0  0  0  0  0
  188.1900  177.6540  143.7880 C   0  0  1  0  0  3  0  0  0  0  0  0
  189.4480  176.9290  145.7610 O   0  0  0  0  0  0  0  0  0  0  0  0
  190.4440  177.1810  144.8010 C   0  0  0  0  0  2  0  0  0  0  0  0
  189.2170  178.0090  144.8870 C   0  0  1  0  0  3  0  0  0  0  0  0
  186.6150  178.2570  145.5440 C   0  0  0  0  0  2  0  0  0  0  0  0
  186.7920  177.8600  144.2880 C   0  0  0  0  0  0  0  0  0  0  0  0
  185.7100  177.6310  143.4280 O   0  0  0  0  0  0  0  0  0  0  0  0
  183.9090  178.6960  142.2600 C   0  0  0  0  0  1  0  0  0  0  0  0
  184.4390  178.2420  143.6030 C   0  0  0  0  0  2  0  0  0  0  0  0
  1  4  1  0  0  0  0
  2  1  1  0  0  0  0
  3  2  1  6  0  0  0
  3  5  1  0  0  0  0
  4  6  1  0  0  0  0
  5  6  1  0  0  0  0
  6 22  1  1  0  0  0
  8 10  1  0  0  0  0
  8 19  1  1  0  0  0
  8 11  1  0  0  0  0
  9  7  2  0  0  0  0
 11 12  2  0  0  0  0
 11 14  1  0  0  0  0
 12  9  1  0  0  0  0
 13 10  1  6  0  0  0
 13 14  1  0  0  0  0
 13  3  1  0  0  0  0
 14  7  1  0  0  0  0
 16 17  1  1  0  0  0
 16 18  1  0  0  0  0
 16 15  1  0  0  0  0
 18  9  1  6  0  0  0
 18 15  1  0  0  0  0
 20 19  1  0  0  0  0
 22 21  1  6  0  0  0
 22 23  1  0  0  0  0
 23 28  1  1  0  0  0
 25 26  1  0  0  0  0
 25 24  1  0  0  0  0
 26 23  1  6  0  0  0
 26 24  1  0  0  0  0
 28 27  2  0  0  0  0
 29 31  1  0  0  0  0
 29 28  1  0  0  0  0
 30 31  1  0  0  0  0
M  END
>  <MODEL>
9

>  <REMARK>
 VINA RESULT:      -5.5      1.361      2.212
  Name = 
  9 active torsions:
  status: ('A' for Active; 'I' for Inactive)
    1  A    between atoms: C_4  and  S_22
    2  A    between atoms: C_10  and  C_21
    3  A    between atoms: C_13  and  C_25
    4  A    between atoms: C_16  and  C_20
    5  A    between atoms: C_16  and  C_27
    6  A    between atoms: C_17  and  C_20
    7  A    between atoms: C_17  and  O_31
    8  A    between atoms: C_20  and  C_30
    9  A    between atoms: C_29  and  O_31
                            x       y       z     vdW  Elec       q    Type
                         _______ _______ _______ _____ _____    ______ ____

>  <TORSDO>
F 9

$$$$
