=
 OpenBabel10222422133D

 58 62  0  0  1  0  0  0  0  0999 V2000
  188.9370  177.6610  142.7470 C   0  0  0  0  0  3  0  0  0  0  0  0
  187.8880  177.6600  143.5910 C   0  0  0  0  0  0  0  0  0  0  0  0
  186.5030  177.2760  143.1450 C   0  0  0  0  0  2  0  0  0  0  0  0
  185.7770  178.4620  142.5160 C   0  0  0  0  0  2  0  0  0  0  0  0
  184.7920  177.9810  141.4620 C   0  0  0  0  0  2  0  0  0  0  0  0
  183.5030  178.7880  141.5230 C   0  0  2  0  0  3  0  0  0  0  0  0
  182.9500  178.8200  142.9440 C   0  0  0  0  0  1  0  0  0  0  0  0
  182.4790  178.2700  140.5000 C   0  0  2  0  0  3  0  0  0  0  0  0
  182.3550  179.2600  138.0960 C   0  0  1  0  0  3  0  0  0  0  0  0
  181.9400  179.3740  139.5750 C   0  0  2  0  0  3  0  0  0  0  0  0
  183.0820  180.2110  139.0320 C   0  0  0  0  0  2  0  0  0  0  0  0
  183.7410  173.2750  136.7810 C   0  0  1  0  0  3  0  0  0  0  0  0
  184.9200  173.6440  136.1030 O   0  0  0  0  0  0  0  0  0  0  0  0
  184.7860  175.8090  137.1740 C   0  0  0  0  0  0  0  0  0  0  0  0
  182.5930  176.8320  137.4010 C   0  0  0  0  0  3  0  0  0  0  0  0
  185.3790  177.0140  137.5810 C   0  0  0  0  0  3  0  0  0  0  0  0
  183.1900  178.0510  137.7520 C   0  0  0  0  0  0  0  0  0  0  0  0
  183.3820  175.7120  137.1230 C   0  0  0  0  0  0  0  0  0  0  0  0
  185.6070  174.5540  136.9350 C   0  0  2  0  0  3  0  0  0  0  0  0
  182.7260  174.4230  136.7270 C   0  0  0  0  0  2  0  0  0  0  0  0
  184.5850  178.1280  137.8650 C   0  0  0  0  0  3  0  0  0  0  0  0
  188.1350  174.3480  136.9390 N   0  0  0  0  0  1  0  0  0  0  0  0
  186.9460  174.8550  136.3380 C   0  0  0  0  0  0  0  0  0  0  0  0
  187.0200  175.5500  135.2920 O   0  0  0  0  0  0  0  0  0  0  0  0
  182.6320  171.1790  137.1690 O   0  0  0  0  0  1  0  0  0  0  0  0
  183.1570  172.0070  136.1730 C   0  0  0  0  0  2  0  0  0  0  0  0
  181.3560  177.4070  141.0960 C   0  0  0  0  0  2  0  0  0  0  0  0
  180.2440  177.1060  140.1020 C   0  0  0  0  0  1  0  0  0  0  0  0
  188.8320  177.2530  141.3110 C   0  0  0  0  0  2  0  0  0  0  0  0
  190.1590  176.6160  139.3350 C   0  0  1  0  0  3  0  0  0  0  0  0
  190.1570  176.6870  140.8490 C   0  0  1  0  0  3  0  0  0  0  0  0
  190.8870  177.7400  140.0390 C   0  0  0  0  0  2  0  0  0  0  0  0
  191.4910  175.4410  137.5430 C   0  0  0  0  0  0  0  0  0  0  0  0
  190.9980  176.1810  136.6470 O   0  0  0  0  0  0  0  0  0  0  0  0
  191.1180  175.6090  138.9110 N   0  0  0  0  0  2  0  0  0  0  0  0
  193.7500  174.4700  137.9720 C   0  0  0  0  0  2  0  0  0  0  0  0
  193.2920  173.1330  135.4120 C   0  0  1  0  0  3  0  0  0  0  0  0
  194.9150  173.8360  137.2030 C   0  0  2  0  0  3  0  0  0  0  0  0
  192.4430  174.3510  137.1770 C   0  0  2  0  0  3  0  0  0  0  0  0
  192.6930  174.3660  135.7890 O   0  0  0  0  0  0  0  0  0  0  0  0
  194.4270  172.6700  136.3480 C   0  0  0  0  0  2  0  0  0  0  0  0
  192.9030  170.6680  135.3630 C   0  0  0  0  0  1  0  0  0  0  0  0
  192.2520  172.0310  135.2320 C   0  0  0  0  0  2  0  0  0  0  0  0
  195.9940  173.3630  138.1640 C   0  0  0  0  0  2  0  0  0  0  0  0
  198.5520  175.8000  139.1520 O   0  0  0  0  0  1  0  0  0  0  0  0
  198.8260  173.9730  137.7920 O   0  0  0  0  0  0  0  0  0  0  0  0
  198.0380  174.7960  138.5930 C   0  0  0  0  0  0  0  0  0  0  0  0
  196.6490  174.5050  138.7930 N   0  0  0  0  0  2  0  0  0  0  0  0
  188.0660  178.0760  145.0250 C   0  0  2  0  0  3  0  0  0  0  0  0
  189.5420  177.9900  145.4180 C   0  0  0  0  0  2  0  0  0  0  0  0
  189.5370  178.0570  147.8690 C   0  0  0  0  0  2  0  0  0  0  0  0
  189.7360  177.3490  146.7570 C   0  0  0  0  0  0  0  0  0  0  0  0
  190.4290  176.0290  146.8310 C   0  0  0  0  0  2  0  0  0  0  0  0
  191.8910  176.2090  147.1880 C   0  0  0  0  0  1  0  0  0  0  0  0
  187.1820  177.2390  145.9440 C   0  0  0  0  0  2  0  0  0  0  0  0
  186.3640  178.1370  146.8560 C   0  0  0  0  0  2  0  0  0  0  0  0
  184.9350  179.6480  145.4740 C   0  0  0  0  0  1  0  0  0  0  0  0
  184.9780  178.3590  146.2790 C   0  0  0  0  0  2  0  0  0  0  0  0
  1  2  2  0  0  0  0
  2 49  1  0  0  0  0
  3  2  1  0  0  0  0
  4  3  1  0  0  0  0
  5  6  1  0  0  0  0
  5  4  1  0  0  0  0
  6  7  1  1  0  0  0
  8 27  1  1  0  0  0
  8  6  1  0  0  0  0
  9 17  1  1  0  0  0
  9 11  1  0  0  0  0
  9 10  1  0  0  0  0
 10  8  1  1  0  0  0
 11 10  1  0  0  0  0
 12 26  1  6  0  0  0
 13 12  1  0  0  0  0
 13 19  1  0  0  0  0
 14 16  1  0  0  0  0
 15 17  2  0  0  0  0
 16 21  2  0  0  0  0
 17 21  1  0  0  0  0
 18 14  2  0  0  0  0
 18 15  1  0  0  0  0
 19 23  1  6  0  0  0
 19 14  1  0  0  0  0
 20 12  1  0  0  0  0
 20 18  1  0  0  0  0
 23 22  1  0  0  0  0
 24 23  2  0  0  0  0
 26 25  1  0  0  0  0
 28 27  1  0  0  0  0
 29  1  1  0  0  0  0
 30 35  1  1  0  0  0
 30 32  1  0  0  0  0
 30 31  1  0  0  0  0
 31 29  1  6  0  0  0
 32 31  1  0  0  0  0
 33 35  1  0  0  0  0
 34 33  2  0  0  0  0
 37 43  1  1  0  0  0
 37 40  1  0  0  0  0
 37 41  1  0  0  0  0
 38 36  1  0  0  0  0
 38 44  1  1  0  0  0
 39 33  1  6  0  0  0
 39 36  1  0  0  0  0
 40 39  1  0  0  0  0
 41 38  1  0  0  0  0
 43 42  1  0  0  0  0
 44 48  1  0  0  0  0
 46 47  2  0  0  0  0
 47 48  1  0  0  0  0
 47 45  1  0  0  0  0
 49 50  1  1  0  0  0
 49 55  1  0  0  0  0
 50 52  1  0  0  0  0
 52 53  1  0  0  0  0
 52 51  2  0  0  0  0
 53 54  1  0  0  0  0
 55 56  1  0  0  0  0
 57 58  1  0  0  0  0
 58 56  1  0  0  0  0
M  END
>  <MODEL>
1

>  <REMARK>
 VINA RESULT:      -6.9      0.000      0.000
  Name = 
  24 active torsions:
  status: ('A' for Active; 'I' for Inactive)
    1  A    between atoms: C_1  and  C_39
    2  A    between atoms: C_2  and  C_37
    3  A    between atoms: C_2  and  N_56
    4  A    between atoms: C_3  and  C_38
    5  A    between atoms: C_3  and  C_47
    6  A    between atoms: C_4  and  C_33
    7  A    between atoms: C_5  and  C_48
    8  A    between atoms: C_7  and  C_41
    9  A    between atoms: C_12  and  C_55
   10  A    between atoms: C_13  and  C_38
   11  A    between atoms: C_15  and  C_26
   12  A    between atoms: C_15  and  C_28
   13  A    between atoms: C_15  and  C_54
   14  A    between atoms: C_16  and  C_49
   15  A    between atoms: C_17  and  C_28
   16  A    between atoms: C_17  and  C_32
   17  A    between atoms: C_18  and  C_46
   18  A    between atoms: C_19  and  C_38
   19  A    between atoms: C_21  and  N_52
   20  A    between atoms: C_26  and  C_30
   21  A    between atoms: C_30  and  C_44
   22  A    between atoms: C_31  and  C_55
   23  A    between atoms: C_32  and  C_47
   24  A    between atoms: C_33  and  C_54
                            x       y       z     vdW  Elec       q    Type
                         _______ _______ _______ _____ _____    ______ ____

>  <TORSDO>
F 24

$$$$
=
 OpenBabel10222422133D

 58 62  0  0  1  0  0  0  0  0999 V2000
  189.1900  177.3600  142.6200 C   0  0  0  0  0  3  0  0  0  0  0  0
  188.0830  177.2570  143.3790 C   0  0  0  0  0  0  0  0  0  0  0  0
  186.7050  177.1770  142.7760 C   0  0  0  0  0  2  0  0  0  0  0  0
  186.2200  178.5510  142.3250 C   0  0  0  0  0  2  0  0  0  0  0  0
  185.3200  178.4210  141.1060 C   0  0  0  0  0  2  0  0  0  0  0  0
  183.9170  178.9220  141.4190 C   0  0  2  0  0  3  0  0  0  0  0  0
  183.5040  178.5340  142.8340 C   0  0  0  0  0  1  0  0  0  0  0  0
  182.9120  178.4470  140.3570 C   0  0  2  0  0  3  0  0  0  0  0  0
  182.2820  179.4310  138.0310 C   0  0  1  0  0  3  0  0  0  0  0  0
  182.2830  179.6030  139.5620 C   0  0  2  0  0  3  0  0  0  0  0  0
  183.3340  180.2920  138.7120 C   0  0  0  0  0  2  0  0  0  0  0  0
  186.5910  175.1830  136.3420 C   0  0  1  0  0  3  0  0  0  0  0  0
  185.6990  174.1150  136.5640 O   0  0  0  0  0  0  0  0  0  0  0  0
  183.8780  175.7080  136.5290 C   0  0  0  0  0  0  0  0  0  0  0  0
  184.2260  177.8560  137.6120 C   0  0  0  0  0  3  0  0  0  0  0  0
  182.5140  176.0070  136.3950 C   0  0  0  0  0  3  0  0  0  0  0  0
  182.8520  178.1280  137.5280 C   0  0  0  0  0  0  0  0  0  0  0  0
  184.7410  176.6590  137.1070 C   0  0  0  0  0  0  0  0  0  0  0  0
  184.4850  174.4520  135.9280 C   0  0  2  0  0  3  0  0  0  0  0  0
  186.2100  176.3760  137.2270 C   0  0  0  0  0  2  0  0  0  0  0  0
  182.0050  177.2090  136.8950 C   0  0  0  0  0  3  0  0  0  0  0  0
  182.8940  172.8200  134.8160 N   0  0  0  0  0  1  0  0  0  0  0  0
  183.5530  173.2830  135.9920 C   0  0  0  0  0  0  0  0  0  0  0  0
  183.3600  172.6990  137.0900 O   0  0  0  0  0  0  0  0  0  0  0  0
  188.0660  173.3840  136.9470 O   0  0  0  0  0  1  0  0  0  0  0  0
  188.0230  174.7420  136.6170 C   0  0  0  0  0  2  0  0  0  0  0  0
  181.8610  177.4490  140.8670 C   0  0  0  0  0  2  0  0  0  0  0  0
  181.9360  176.0970  140.1730 C   0  0  0  0  0  1  0  0  0  0  0  0
  189.1590  177.3700  141.1240 C   0  0  0  0  0  2  0  0  0  0  0  0
  191.0080  177.4330  139.4960 C   0  0  1  0  0  3  0  0  0  0  0  0
  190.3540  176.6100  140.5890 C   0  0  1  0  0  3  0  0  0  0  0  0
  191.6130  177.4020  140.8830 C   0  0  0  0  0  2  0  0  0  0  0  0
  191.4430  176.3940  137.2380 C   0  0  0  0  0  0  0  0  0  0  0  0
  190.4950  177.0480  136.7200 O   0  0  0  0  0  0  0  0  0  0  0  0
  191.7580  176.5440  138.6230 N   0  0  0  0  0  2  0  0  0  0  0  0
  193.6060  175.9870  136.0600 C   0  0  0  0  0  2  0  0  0  0  0  0
  192.0770  173.9100  134.6810 C   0  0  1  0  0  3  0  0  0  0  0  0
  194.1300  175.3650  134.7600 C   0  0  2  0  0  3  0  0  0  0  0  0
  192.2230  175.4240  136.4160 C   0  0  2  0  0  3  0  0  0  0  0  0
  191.5040  175.0780  135.2520 O   0  0  0  0  0  0  0  0  0  0  0  0
  193.6170  173.9370  134.6000 C   0  0  0  0  0  2  0  0  0  0  0  0
  190.3660  172.0930  134.6770 C   0  0  0  0  0  1  0  0  0  0  0  0
  191.5920  172.6430  135.3790 C   0  0  0  0  0  2  0  0  0  0  0  0
  195.6490  175.3810  134.7360 C   0  0  0  0  0  2  0  0  0  0  0  0
  197.9320  175.4160  137.6070 O   0  0  0  0  0  1  0  0  0  0  0  0
  198.3800  174.6670  135.4850 O   0  0  0  0  0  0  0  0  0  0  0  0
  197.5230  175.2230  136.4320 C   0  0  0  0  0  0  0  0  0  0  0  0
  196.1770  175.5700  136.0830 N   0  0  0  0  0  2  0  0  0  0  0  0
  188.1870  177.2460  144.8780 C   0  0  2  0  0  3  0  0  0  0  0  0
  186.8130  177.4930  145.5040 C   0  0  0  0  0  2  0  0  0  0  0  0
  186.3530  179.0570  147.3360 C   0  0  0  0  0  2  0  0  0  0  0  0
  186.9100  177.9130  146.9370 C   0  0  0  0  0  0  0  0  0  0  0  0
  187.8720  177.2040  147.8330 C   0  0  0  0  0  2  0  0  0  0  0  0
  188.4420  178.1550  148.8690 C   0  0  0  0  0  1  0  0  0  0  0  0
  189.2210  178.2600  145.3560 C   0  0  0  0  0  2  0  0  0  0  0  0
  190.6220  177.6790  145.2520 C   0  0  0  0  0  2  0  0  0  0  0  0
  191.9740  175.8630  146.3050 C   0  0  0  0  0  1  0  0  0  0  0  0
  191.0210  177.0200  146.5600 C   0  0  0  0  0  2  0  0  0  0  0  0
  1  2  2  0  0  0  0
  2 49  1  0  0  0  0
  3  2  1  0  0  0  0
  4  3  1  0  0  0  0
  5  6  1  0  0  0  0
  5  4  1  0  0  0  0
  6  7  1  1  0  0  0
  8 27  1  1  0  0  0
  8  6  1  0  0  0  0
  9 17  1  1  0  0  0
  9 11  1  0  0  0  0
  9 10  1  0  0  0  0
 10  8  1  1  0  0  0
 11 10  1  0  0  0  0
 12 13  1  0  0  0  0
 12 26  1  1  0  0  0
 12 20  1  0  0  0  0
 14 18  1  0  0  0  0
 16 14  2  0  0  0  0
 16 21  1  0  0  0  0
 17 15  1  0  0  0  0
 18 20  1  0  0  0  0
 18 15  2  0  0  0  0
 19 23  1  1  0  0  0
 19 14  1  0  0  0  0
 19 13  1  0  0  0  0
 21 17  2  0  0  0  0
 22 23  1  0  0  0  0
 23 24  2  0  0  0  0
 26 25  1  0  0  0  0
 28 27  1  0  0  0  0
 29  1  1  0  0  0  0
 30 35  1  6  0  0  0
 30 31  1  0  0  0  0
 30 32  1  0  0  0  0
 31 32  1  0  0  0  0
 31 29  1  1  0  0  0
 33 35  1  0  0  0  0
 34 33  2  0  0  0  0
 36 39  1  0  0  0  0
 37 40  1  0  0  0  0
 37 43  1  1  0  0  0
 38 44  1  1  0  0  0
 38 36  1  0  0  0  0
 39 33  1  6  0  0  0
 40 39  1  0  0  0  0
 41 37  1  0  0  0  0
 41 38  1  0  0  0  0
 42 43  1  0  0  0  0
 44 48  1  0  0  0  0
 46 47  2  0  0  0  0
 47 45  1  0  0  0  0
 48 47  1  0  0  0  0
 49 55  1  6  0  0  0
 49 50  1  0  0  0  0
 50 52  1  0  0  0  0
 52 51  2  0  0  0  0
 52 53  1  0  0  0  0
 53 54  1  0  0  0  0
 56 55  1  0  0  0  0
 56 58  1  0  0  0  0
 57 58  1  0  0  0  0
M  END
>  <MODEL>
2

>  <REMARK>
 VINA RESULT:      -6.5      1.528      2.850
  Name = 
  24 active torsions:
  status: ('A' for Active; 'I' for Inactive)
    1  A    between atoms: C_1  and  C_39
    2  A    between atoms: C_2  and  C_37
    3  A    between atoms: C_2  and  N_56
    4  A    between atoms: C_3  and  C_38
    5  A    between atoms: C_3  and  C_47
    6  A    between atoms: C_4  and  C_33
    7  A    between atoms: C_5  and  C_48
    8  A    between atoms: C_7  and  C_41
    9  A    between atoms: C_12  and  C_55
   10  A    between atoms: C_13  and  C_38
   11  A    between atoms: C_15  and  C_26
   12  A    between atoms: C_15  and  C_28
   13  A    between atoms: C_15  and  C_54
   14  A    between atoms: C_16  and  C_49
   15  A    between atoms: C_17  and  C_28
   16  A    between atoms: C_17  and  C_32
   17  A    between atoms: C_18  and  C_46
   18  A    between atoms: C_19  and  C_38
   19  A    between atoms: C_21  and  N_52
   20  A    between atoms: C_26  and  C_30
   21  A    between atoms: C_30  and  C_44
   22  A    between atoms: C_31  and  C_55
   23  A    between atoms: C_32  and  C_47
   24  A    between atoms: C_33  and  C_54
                            x       y       z     vdW  Elec       q    Type
                         _______ _______ _______ _____ _____    ______ ____

>  <TORSDO>
F 24

$$$$
=
 OpenBabel10222422133D

 58 62  0  0  1  0  0  0  0  0999 V2000
  189.2500  177.2540  142.5150 C   0  0  0  0  0  3  0  0  0  0  0  0
  188.1290  177.2540  143.2610 C   0  0  0  0  0  0  0  0  0  0  0  0
  186.7570  177.2640  142.6420 C   0  0  0  0  0  2  0  0  0  0  0  0
  186.2970  178.6870  142.3400 C   0  0  0  0  0  2  0  0  0  0  0  0
  185.3850  178.7010  141.1240 C   0  0  0  0  0  2  0  0  0  0  0  0
  183.9630  179.0680  141.5250 C   0  0  2  0  0  3  0  0  0  0  0  0
  183.7050  178.7250  142.9880 C   0  0  0  0  0  1  0  0  0  0  0  0
  182.9380  178.4250  140.5760 C   0  0  2  0  0  3  0  0  0  0  0  0
  182.4250  179.1520  138.1300 C   0  0  1  0  0  3  0  0  0  0  0  0
  182.2670  179.4390  139.6350 C   0  0  2  0  0  3  0  0  0  0  0  0
  183.3130  180.1750  138.8200 C   0  0  0  0  0  2  0  0  0  0  0  0
  183.4500  173.0300  137.1610 C   0  0  1  0  0  3  0  0  0  0  0  0
  184.5470  173.2950  136.3170 O   0  0  0  0  0  0  0  0  0  0  0  0
  184.6140  175.5430  137.2120 C   0  0  0  0  0  0  0  0  0  0  0  0
  182.4990  176.6690  137.6170 C   0  0  0  0  0  3  0  0  0  0  0  0
  185.2900  176.7500  137.4410 C   0  0  0  0  0  3  0  0  0  0  0  0
  183.1730  177.8870  137.7900 C   0  0  0  0  0  0  0  0  0  0  0  0
  183.2120  175.5000  137.3400 C   0  0  0  0  0  0  0  0  0  0  0  0
  185.3600  174.2400  136.9800 C   0  0  2  0  0  3  0  0  0  0  0  0
  182.4720  174.2110  137.1360 C   0  0  0  0  0  2  0  0  0  0  0  0
  184.5720  177.9150  137.7250 C   0  0  0  0  0  3  0  0  0  0  0  0
  187.8550  174.6840  136.8750 N   0  0  0  0  0  1  0  0  0  0  0  0
  186.6230  174.4370  136.2020 C   0  0  0  0  0  0  0  0  0  0  0  0
  186.5970  174.3720  134.9460 O   0  0  0  0  0  0  0  0  0  0  0  0
  181.4610  171.6850  137.2610 O   0  0  0  0  0  1  0  0  0  0  0  0
  182.7560  171.7430  136.7380 C   0  0  0  0  0  2  0  0  0  0  0  0
  181.9210  177.4990  141.2610 C   0  0  0  0  0  2  0  0  0  0  0  0
  180.5020  178.0470  141.2310 C   0  0  0  0  0  1  0  0  0  0  0  0
  189.2380  177.2310  141.0190 C   0  0  0  0  0  2  0  0  0  0  0  0
  190.9310  177.1930  139.2290 C   0  0  1  0  0  3  0  0  0  0  0  0
  190.4800  176.5280  140.5150 C   0  0  1  0  0  3  0  0  0  0  0  0
  191.6380  177.5060  140.5290 C   0  0  0  0  0  2  0  0  0  0  0  0
  191.5060  176.0210  137.0700 C   0  0  0  0  0  0  0  0  0  0  0  0
  190.6070  176.6550  136.4490 O   0  0  0  0  0  0  0  0  0  0  0  0
  191.7250  176.2460  138.4620 N   0  0  0  0  0  2  0  0  0  0  0  0
  193.8120  175.1330  136.7160 C   0  0  0  0  0  2  0  0  0  0  0  0
  192.6150  173.9030  134.3490 C   0  0  1  0  0  3  0  0  0  0  0  0
  194.6960  174.5910  135.5870 C   0  0  2  0  0  3  0  0  0  0  0  0
  192.3260  174.9950  136.3610 C   0  0  2  0  0  3  0  0  0  0  0  0
  192.1290  175.0880  134.9670 O   0  0  0  0  0  0  0  0  0  0  0  0
  193.9980  173.4480  134.8570 C   0  0  0  0  0  2  0  0  0  0  0  0
  190.2330  173.3080  134.7930 C   0  0  0  0  0  1  0  0  0  0  0  0
  191.6020  172.7650  134.4340 C   0  0  0  0  0  2  0  0  0  0  0  0
  196.0340  174.1220  136.1350 C   0  0  0  0  0  2  0  0  0  0  0  0
  196.7250  174.2020  139.7370 O   0  0  0  0  0  1  0  0  0  0  0  0
  197.9090  175.2460  138.0710 O   0  0  0  0  0  0  0  0  0  0  0  0
  196.8600  174.4400  138.5070 C   0  0  0  0  0  0  0  0  0  0  0  0
  195.9360  173.8730  137.5690 N   0  0  0  0  0  2  0  0  0  0  0  0
  188.2150  177.2720  144.7610 C   0  0  2  0  0  3  0  0  0  0  0  0
  186.8420  177.5730  145.3640 C   0  0  0  0  0  2  0  0  0  0  0  0
  186.4520  179.1100  147.2340 C   0  0  0  0  0  2  0  0  0  0  0  0
  186.9260  177.9380  146.8140 C   0  0  0  0  0  0  0  0  0  0  0  0
  187.7970  177.1230  147.7130 C   0  0  0  0  0  2  0  0  0  0  0  0
  188.1650  177.9080  148.9570 C   0  0  0  0  0  1  0  0  0  0  0  0
  189.2730  178.2650  145.2310 C   0  0  0  0  0  2  0  0  0  0  0  0
  190.3110  177.5660  146.0920 C   0  0  0  0  0  2  0  0  0  0  0  0
  192.0560  175.7800  146.0630 C   0  0  0  0  0  1  0  0  0  0  0  0
  191.2810  176.7830  145.2250 C   0  0  0  0  0  2  0  0  0  0  0  0
  1  2  2  0  0  0  0
  2 49  1  0  0  0  0
  3  2  1  0  0  0  0
  4  3  1  0  0  0  0
  5  6  1  0  0  0  0
  5  4  1  0  0  0  0
  6  7  1  1  0  0  0
  8 27  1  1  0  0  0
  8  6  1  0  0  0  0
  9 17  1  1  0  0  0
  9 11  1  0  0  0  0
  9 10  1  0  0  0  0
 10  8  1  1  0  0  0
 11 10  1  0  0  0  0
 12 26  1  6  0  0  0
 13 19  1  0  0  0  0
 13 12  1  0  0  0  0
 14 18  2  0  0  0  0
 14 16  1  0  0  0  0
 15 17  2  0  0  0  0
 16 21  2  0  0  0  0
 18 15  1  0  0  0  0
 19 23  1  6  0  0  0
 19 14  1  0  0  0  0
 20 12  1  0  0  0  0
 20 18  1  0  0  0  0
 21 17  1  0  0  0  0
 23 22  1  0  0  0  0
 24 23  2  0  0  0  0
 26 25  1  0  0  0  0
 28 27  1  0  0  0  0
 29  1  1  0  0  0  0
 30 35  1  6  0  0  0
 30 31  1  0  0  0  0
 30 32  1  0  0  0  0
 31 32  1  0  0  0  0
 31 29  1  1  0  0  0
 33 35  1  0  0  0  0
 34 33  2  0  0  0  0
 37 43  1  1  0  0  0
 37 41  1  0  0  0  0
 37 40  1  0  0  0  0
 38 44  1  1  0  0  0
 38 36  1  0  0  0  0
 39 36  1  0  0  0  0
 39 33  1  1  0  0  0
 40 39  1  0  0  0  0
 41 38  1  0  0  0  0
 43 42  1  0  0  0  0
 44 48  1  0  0  0  0
 46 47  2  0  0  0  0
 47 45  1  0  0  0  0
 48 47  1  0  0  0  0
 49 55  1  6  0  0  0
 49 50  1  0  0  0  0
 50 52  1  0  0  0  0
 52 51  2  0  0  0  0
 52 53  1  0  0  0  0
 53 54  1  0  0  0  0
 55 56  1  0  0  0  0
 58 57  1  0  0  0  0
 58 56  1  0  0  0  0
M  END
>  <MODEL>
3

>  <REMARK>
 VINA RESULT:      -6.2      1.065      2.080
  Name = 
  24 active torsions:
  status: ('A' for Active; 'I' for Inactive)
    1  A    between atoms: C_1  and  C_39
    2  A    between atoms: C_2  and  C_37
    3  A    between atoms: C_2  and  N_56
    4  A    between atoms: C_3  and  C_38
    5  A    between atoms: C_3  and  C_47
    6  A    between atoms: C_4  and  C_33
    7  A    between atoms: C_5  and  C_48
    8  A    between atoms: C_7  and  C_41
    9  A    between atoms: C_12  and  C_55
   10  A    between atoms: C_13  and  C_38
   11  A    between atoms: C_15  and  C_26
   12  A    between atoms: C_15  and  C_28
   13  A    between atoms: C_15  and  C_54
   14  A    between atoms: C_16  and  C_49
   15  A    between atoms: C_17  and  C_28
   16  A    between atoms: C_17  and  C_32
   17  A    between atoms: C_18  and  C_46
   18  A    between atoms: C_19  and  C_38
   19  A    between atoms: C_21  and  N_52
   20  A    between atoms: C_26  and  C_30
   21  A    between atoms: C_30  and  C_44
   22  A    between atoms: C_31  and  C_55
   23  A    between atoms: C_32  and  C_47
   24  A    between atoms: C_33  and  C_54
                            x       y       z     vdW  Elec       q    Type
                         _______ _______ _______ _____ _____    ______ ____

>  <TORSDO>
F 24

$$$$
=
 OpenBabel10222422133D

 58 62  0  0  1  0  0  0  0  0999 V2000
  189.4970  178.1650  143.9440 C   0  0  0  0  0  3  0  0  0  0  0  0
  188.3060  177.6050  143.6580 C   0  0  0  0  0  0  0  0  0  0  0  0
  187.8540  177.3670  142.2420 C   0  0  0  0  0  2  0  0  0  0  0  0
  187.5440  178.6810  141.5320 C   0  0  0  0  0  2  0  0  0  0  0  0
  186.6160  178.4390  140.3520 C   0  0  0  0  0  2  0  0  0  0  0  0
  187.3930  177.9010  139.1600 C   0  0  2  0  0  3  0  0  0  0  0  0
  188.7340  178.6120  139.0200 C   0  0  0  0  0  1  0  0  0  0  0  0
  186.5500  177.9690  137.8750 C   0  0  2  0  0  3  0  0  0  0  0  0
  186.9280  178.0450  135.3010 C   0  0  1  0  0  3  0  0  0  0  0  0
  187.3060  178.5920  136.6900 C   0  0  2  0  0  3  0  0  0  0  0  0
  188.1770  177.5520  136.0140 C   0  0  0  0  0  2  0  0  0  0  0  0
  184.2040  172.3900  135.5940 C   0  0  1  0  0  3  0  0  0  0  0  0
  182.9710  172.9480  135.9830 O   0  0  0  0  0  0  0  0  0  0  0  0
  183.7690  175.0990  135.2110 C   0  0  0  0  0  0  0  0  0  0  0  0
  186.0870  175.6780  135.6570 C   0  0  0  0  0  3  0  0  0  0  0  0
  183.5300  176.4160  134.7940 C   0  0  0  0  0  3  0  0  0  0  0  0
  185.8310  177.0080  135.2940 C   0  0  0  0  0  0  0  0  0  0  0  0
  185.0670  174.7240  135.6080 C   0  0  0  0  0  0  0  0  0  0  0  0
  182.7060  174.0200  135.1020 C   0  0  2  0  0  3  0  0  0  0  0  0
  185.3540  173.3110  136.0220 C   0  0  0  0  0  2  0  0  0  0  0  0
  184.5550  177.3650  134.8380 C   0  0  0  0  0  3  0  0  0  0  0  0
  180.9370  174.9110  136.6870 N   0  0  0  0  0  1  0  0  0  0  0  0
  181.3300  174.5470  135.3660 C   0  0  0  0  0  0  0  0  0  0  0  0
  180.5200  174.6800  134.4120 O   0  0  0  0  0  0  0  0  0  0  0  0
  183.1250  170.3970  136.3920 O   0  0  0  0  0  1  0  0  0  0  0  0
  184.3700  171.0010  136.1950 C   0  0  0  0  0  2  0  0  0  0  0  0
  185.1480  178.5710  138.0580 C   0  0  0  0  0  2  0  0  0  0  0  0
  184.0930  177.5310  138.4020 C   0  0  0  0  0  1  0  0  0  0  0  0
  190.4840  178.5670  142.8950 C   0  0  0  0  0  2  0  0  0  0  0  0
  191.8290  177.7850  140.9830 C   0  0  1  0  0  3  0  0  0  0  0  0
  190.7640  177.3880  141.9870 C   0  0  1  0  0  3  0  0  0  0  0  0
  192.2010  176.9450  142.1850 C   0  0  0  0  0  2  0  0  0  0  0  0
  192.7990  176.7330  138.9050 C   0  0  0  0  0  0  0  0  0  0  0  0
  193.9110  177.2990  139.1000 O   0  0  0  0  0  0  0  0  0  0  0  0
  191.7150  176.9300  139.8130 N   0  0  0  0  0  2  0  0  0  0  0  0
  193.7130  176.0950  136.6720 C   0  0  0  0  0  2  0  0  0  0  0  0
  191.0010  175.1000  136.2190 C   0  0  1  0  0  3  0  0  0  0  0  0
  193.2230  175.7850  135.2530 C   0  0  2  0  0  3  0  0  0  0  0  0
  192.5910  175.8830  137.6960 C   0  0  2  0  0  3  0  0  0  0  0  0
  191.3280  176.1470  137.1240 O   0  0  0  0  0  0  0  0  0  0  0  0
  192.1540  174.6960  135.2780 C   0  0  0  0  0  2  0  0  0  0  0  0
  188.9290  173.9780  137.0390 C   0  0  0  0  0  1  0  0  0  0  0  0
  190.4390  173.8810  136.9440 C   0  0  0  0  0  2  0  0  0  0  0  0
  194.3830  175.3590  134.3680 C   0  0  0  0  0  2  0  0  0  0  0  0
  197.8750  175.2810  135.4880 O   0  0  0  0  0  1  0  0  0  0  0  0
  196.7340  173.6270  134.3810 O   0  0  0  0  0  0  0  0  0  0  0  0
  196.8000  174.8920  134.9620 C   0  0  0  0  0  0  0  0  0  0  0  0
  195.6520  175.7500  134.9720 N   0  0  0  0  0  2  0  0  0  0  0  0
  187.3630  177.2190  144.7630 C   0  0  2  0  0  3  0  0  0  0  0  0
  185.9140  177.3350  144.2840 C   0  0  0  0  0  2  0  0  0  0  0  0
  184.8290  178.4140  146.1990 C   0  0  0  0  0  2  0  0  0  0  0  0
  185.1970  178.4840  144.9200 C   0  0  0  0  0  0  0  0  0  0  0  0
  184.6430  179.5610  144.0460 C   0  0  0  0  0  2  0  0  0  0  0  0
  183.1280  179.5020  144.0160 C   0  0  0  0  0  1  0  0  0  0  0  0
  187.6190  178.0590  146.0100 C   0  0  0  0  0  2  0  0  0  0  0  0
  188.0780  177.1760  147.1590 C   0  0  0  0  0  2  0  0  0  0  0  0
  189.3840  178.3520  148.9340 C   0  0  0  0  0  1  0  0  0  0  0  0
  187.9970  177.9320  148.4740 C   0  0  0  0  0  2  0  0  0  0  0  0
  2  1  2  0  0  0  0
  2 49  1  0  0  0  0
  3  2  1  0  0  0  0
  4  3  1  0  0  0  0
  5  4  1  0  0  0  0
  6  7  1  6  0  0  0
  6  5  1  0  0  0  0
  8 27  1  1  0  0  0
  8  6  1  0  0  0  0
  9 17  1  1  0  0  0
  9 11  1  0  0  0  0
  9 10  1  0  0  0  0
 10  8  1  1  0  0  0
 11 10  1  0  0  0  0
 12 13  1  0  0  0  0
 12 20  1  0  0  0  0
 12 26  1  1  0  0  0
 14 18  1  0  0  0  0
 16 21  1  0  0  0  0
 16 14  2  0  0  0  0
 17 15  1  0  0  0  0
 18 15  2  0  0  0  0
 18 20  1  0  0  0  0
 19 14  1  0  0  0  0
 19 23  1  1  0  0  0
 19 13  1  0  0  0  0
 21 17  2  0  0  0  0
 23 22  1  0  0  0  0
 24 23  2  0  0  0  0
 26 25  1  0  0  0  0
 27 28  1  0  0  0  0
 29  1  1  0  0  0  0
 30 35  1  6  0  0  0
 30 31  1  0  0  0  0
 30 32  1  0  0  0  0
 31 32  1  0  0  0  0
 31 29  1  1  0  0  0
 33 34  2  0  0  0  0
 33 35  1  0  0  0  0
 36 39  1  0  0  0  0
 37 43  1  1  0  0  0
 37 40  1  0  0  0  0
 38 44  1  6  0  0  0
 38 41  1  0  0  0  0
 38 36  1  0  0  0  0
 39 33  1  1  0  0  0
 40 39  1  0  0  0  0
 41 37  1  0  0  0  0
 43 42  1  0  0  0  0
 44 48  1  0  0  0  0
 46 47  2  0  0  0  0
 47 48  1  0  0  0  0
 47 45  1  0  0  0  0
 49 50  1  6  0  0  0
 49 55  1  0  0  0  0
 50 52  1  0  0  0  0
 52 51  2  0  0  0  0
 53 52  1  0  0  0  0
 54 53  1  0  0  0  0
 55 56  1  0  0  0  0
 56 58  1  0  0  0  0
 58 57  1  0  0  0  0
M  END
>  <MODEL>
4

>  <REMARK>
 VINA RESULT:      -5.9      2.427      4.085
  Name = 
  24 active torsions:
  status: ('A' for Active; 'I' for Inactive)
    1  A    between atoms: C_1  and  C_39
    2  A    between atoms: C_2  and  C_37
    3  A    between atoms: C_2  and  N_56
    4  A    between atoms: C_3  and  C_38
    5  A    between atoms: C_3  and  C_47
    6  A    between atoms: C_4  and  C_33
    7  A    between atoms: C_5  and  C_48
    8  A    between atoms: C_7  and  C_41
    9  A    between atoms: C_12  and  C_55
   10  A    between atoms: C_13  and  C_38
   11  A    between atoms: C_15  and  C_26
   12  A    between atoms: C_15  and  C_28
   13  A    between atoms: C_15  and  C_54
   14  A    between atoms: C_16  and  C_49
   15  A    between atoms: C_17  and  C_28
   16  A    between atoms: C_17  and  C_32
   17  A    between atoms: C_18  and  C_46
   18  A    between atoms: C_19  and  C_38
   19  A    between atoms: C_21  and  N_52
   20  A    between atoms: C_26  and  C_30
   21  A    between atoms: C_30  and  C_44
   22  A    between atoms: C_31  and  C_55
   23  A    between atoms: C_32  and  C_47
   24  A    between atoms: C_33  and  C_54
                            x       y       z     vdW  Elec       q    Type
                         _______ _______ _______ _____ _____    ______ ____

>  <TORSDO>
F 24

$$$$
=
 OpenBabel10222422133D

 58 62  0  0  1  0  0  0  0  0999 V2000
  190.1430  176.5110  138.4700 C   0  0  0  0  0  3  0  0  0  0  0  0
  190.4740  176.8000  137.1960 C   0  0  0  0  0  0  0  0  0  0  0  0
  189.7550  177.8620  136.4060 C   0  0  0  0  0  2  0  0  0  0  0  0
  188.2420  177.7160  136.5340 C   0  0  0  0  0  2  0  0  0  0  0  0
  187.7690  176.4630  135.8150 C   0  0  0  0  0  2  0  0  0  0  0  0
  186.9100  175.6080  136.7350 C   0  0  2  0  0  3  0  0  0  0  0  0
  187.5530  174.2460  136.9680 C   0  0  0  0  0  1  0  0  0  0  0  0
  185.4710  175.5000  136.2040 C   0  0  2  0  0  3  0  0  0  0  0  0
  183.5850  173.9300  137.0730 C   0  0  1  0  0  3  0  0  0  0  0  0
  184.9020  174.0730  136.2880 C   0  0  2  0  0  3  0  0  0  0  0  0
  184.9140  173.5850  137.7240 C   0  0  0  0  0  2  0  0  0  0  0  0
  181.9920  178.3600  141.2340 C   0  0  1  0  0  3  0  0  0  0  0  0
  181.9580  179.3550  140.2380 O   0  0  0  0  0  0  0  0  0  0  0  0
  181.8690  177.6010  138.5730 C   0  0  0  0  0  0  0  0  0  0  0  0
  183.2450  175.6290  138.9270 C   0  0  0  0  0  3  0  0  0  0  0  0
  181.5880  177.1600  137.2720 C   0  0  0  0  0  3  0  0  0  0  0  0
  183.0090  175.2190  137.6060 C   0  0  0  0  0  0  0  0  0  0  0  0
  182.6730  176.8060  139.4140 C   0  0  0  0  0  0  0  0  0  0  0  0
  181.2070  178.8350  139.1600 C   0  0  2  0  0  3  0  0  0  0  0  0
  182.9560  177.2400  140.8220 C   0  0  0  0  0  2  0  0  0  0  0  0
  182.1580  175.9770  136.7920 C   0  0  0  0  0  3  0  0  0  0  0  0
  181.9410  180.9710  138.0050 N   0  0  0  0  0  1  0  0  0  0  0  0
  180.9990  179.9100  138.1390 C   0  0  0  0  0  0  0  0  0  0  0  0
  179.9910  179.8670  137.3870 O   0  0  0  0  0  0  0  0  0  0  0  0
  183.6010  178.3990  143.0200 O   0  0  0  0  0  1  0  0  0  0  0  0
  182.4030  178.9640  142.5700 C   0  0  0  0  0  2  0  0  0  0  0  0
  185.2440  176.1390  134.8260 C   0  0  0  0  0  2  0  0  0  0  0  0
  184.6700  177.5460  134.9080 C   0  0  0  0  0  1  0  0  0  0  0  0
  189.0680  177.2300  139.2200 C   0  0  0  0  0  2  0  0  0  0  0  0
  189.1400  176.2770  141.4910 C   0  0  1  0  0  3  0  0  0  0  0  0
  189.5220  177.4740  140.6430 C   0  0  1  0  0  3  0  0  0  0  0  0
  190.5660  176.4380  141.0120 C   0  0  0  0  0  2  0  0  0  0  0  0
  187.8270  177.1570  143.4580 C   0  0  0  0  0  0  0  0  0  0  0  0
  186.7700  177.2080  142.7700 O   0  0  0  0  0  0  0  0  0  0  0  0
  189.0480  176.6950  142.8810 N   0  0  0  0  0  2  0  0  0  0  0  0
  189.0710  177.1300  145.6220 C   0  0  0  0  0  2  0  0  0  0  0  0
  186.4860  177.9260  146.7340 C   0  0  1  0  0  3  0  0  0  0  0  0
  188.7990  177.0120  147.1260 C   0  0  2  0  0  3  0  0  0  0  0  0
  187.8220  177.6200  144.8770 C   0  0  2  0  0  3  0  0  0  0  0  0
  186.6460  177.1900  145.5280 O   0  0  0  0  0  0  0  0  0  0  0  0
  187.7740  178.0510  147.5720 C   0  0  0  0  0  2  0  0  0  0  0  0
  186.0550  180.1910  147.6900 C   0  0  0  0  0  1  0  0  0  0  0  0
  185.8670  179.2980  146.4800 C   0  0  0  0  0  2  0  0  0  0  0  0
  190.0870  177.1750  147.9160 C   0  0  0  0  0  2  0  0  0  0  0  0
  193.1980  175.2490  147.6530 O   0  0  0  0  0  0  0  0  0  0  0  0
  192.8260  177.1200  148.9280 O   0  0  0  0  0  1  0  0  0  0  0  0
  192.3990  176.1480  148.0260 C   0  0  0  0  0  0  0  0  0  0  0  0
  191.0610  176.1670  147.5130 N   0  0  0  0  0  2  0  0  0  0  0  0
  191.5700  176.0410  136.5040 C   0  0  2  0  0  3  0  0  0  0  0  0
  191.3710  174.5360  136.6940 C   0  0  0  0  0  2  0  0  0  0  0  0
  190.3430  174.5420  134.4680 C   0  0  0  0  0  2  0  0  0  0  0  0
  190.9640  173.8540  135.4250 C   0  0  0  0  0  0  0  0  0  0  0  0
  190.9920  172.3620  135.3680 C   0  0  0  0  0  2  0  0  0  0  0  0
  192.4200  171.8510  135.3650 C   0  0  0  0  0  1  0  0  0  0  0  0
  192.9390  176.5000  136.9960 C   0  0  0  0  0  2  0  0  0  0  0  0
  193.4470  175.5760  138.0910 C   0  0  0  0  0  2  0  0  0  0  0  0
  195.1790  174.6920  136.5250 C   0  0  0  0  0  1  0  0  0  0  0  0
  194.0610  174.3260  137.4870 C   0  0  0  0  0  2  0  0  0  0  0  0
  1 29  1  0  0  0  0
  2  1  2  0  0  0  0
  3  4  1  0  0  0  0
  3  2  1  0  0  0  0
  5  4  1  0  0  0  0
  5  6  1  0  0  0  0
  6  7  1  6  0  0  0
  8 27  1  6  0  0  0
  8  6  1  0  0  0  0
  9 17  1  1  0  0  0
  9 11  1  0  0  0  0
 10  8  1  1  0  0  0
 10  9  1  0  0  0  0
 10 11  1  0  0  0  0
 12 26  1  1  0  0  0
 13 12  1  0  0  0  0
 14 19  1  0  0  0  0
 14 18  1  0  0  0  0
 15 18  2  0  0  0  0
 16 14  2  0  0  0  0
 17 15  1  0  0  0  0
 18 20  1  0  0  0  0
 19 23  1  6  0  0  0
 19 13  1  0  0  0  0
 20 12  1  0  0  0  0
 21 16  1  0  0  0  0
 21 17  2  0  0  0  0
 22 23  1  0  0  0  0
 24 23  2  0  0  0  0
 26 25  1  0  0  0  0
 27 28  1  0  0  0  0
 30 35  1  1  0  0  0
 31 29  1  6  0  0  0
 31 32  1  0  0  0  0
 31 30  1  0  0  0  0
 32 30  1  0  0  0  0
 34 33  2  0  0  0  0
 35 33  1  0  0  0  0
 36 38  1  0  0  0  0
 37 43  1  6  0  0  0
 37 41  1  0  0  0  0
 38 41  1  0  0  0  0
 38 44  1  1  0  0  0
 39 33  1  6  0  0  0
 39 40  1  0  0  0  0
 39 36  1  0  0  0  0
 40 37  1  0  0  0  0
 43 42  1  0  0  0  0
 45 47  2  0  0  0  0
 47 46  1  0  0  0  0
 48 44  1  0  0  0  0
 48 47  1  0  0  0  0
 49 50  1  1  0  0  0
 49 55  1  0  0  0  0
 49  2  1  0  0  0  0
 51 52  2  0  0  0  0
 52 50  1  0  0  0  0
 53 52  1  0  0  0  0
 54 53  1  0  0  0  0
 55 56  1  0  0  0  0
 57 58  1  0  0  0  0
 58 56  1  0  0  0  0
M  END
>  <MODEL>
5

>  <REMARK>
 VINA RESULT:      -5.2      3.877      9.139
  Name = 
  24 active torsions:
  status: ('A' for Active; 'I' for Inactive)
    1  A    between atoms: C_1  and  C_39
    2  A    between atoms: C_2  and  C_37
    3  A    between atoms: C_2  and  N_56
    4  A    between atoms: C_3  and  C_38
    5  A    between atoms: C_3  and  C_47
    6  A    between atoms: C_4  and  C_33
    7  A    between atoms: C_5  and  C_48
    8  A    between atoms: C_7  and  C_41
    9  A    between atoms: C_12  and  C_55
   10  A    between atoms: C_13  and  C_38
   11  A    between atoms: C_15  and  C_26
   12  A    between atoms: C_15  and  C_28
   13  A    between atoms: C_15  and  C_54
   14  A    between atoms: C_16  and  C_49
   15  A    between atoms: C_17  and  C_28
   16  A    between atoms: C_17  and  C_32
   17  A    between atoms: C_18  and  C_46
   18  A    between atoms: C_19  and  C_38
   19  A    between atoms: C_21  and  N_52
   20  A    between atoms: C_26  and  C_30
   21  A    between atoms: C_30  and  C_44
   22  A    between atoms: C_31  and  C_55
   23  A    between atoms: C_32  and  C_47
   24  A    between atoms: C_33  and  C_54
                            x       y       z     vdW  Elec       q    Type
                         _______ _______ _______ _____ _____    ______ ____

>  <TORSDO>
F 24

$$$$
=
 OpenBabel10222422133D

 58 62  0  0  1  0  0  0  0  0999 V2000
  189.5850  176.6870  137.9980 C   0  0  0  0  0  3  0  0  0  0  0  0
  189.7380  176.7870  136.6640 C   0  0  0  0  0  0  0  0  0  0  0  0
  189.0010  177.8160  135.8500 C   0  0  0  0  0  2  0  0  0  0  0  0
  187.4960  177.7340  136.0870 C   0  0  0  0  0  2  0  0  0  0  0  0
  186.9500  176.4120  135.5700 C   0  0  0  0  0  2  0  0  0  0  0  0
  185.9650  175.8130  136.5630 C   0  0  2  0  0  3  0  0  0  0  0  0
  186.4610  174.4650  137.0740 C   0  0  0  0  0  1  0  0  0  0  0  0
  184.5520  175.7350  135.9600 C   0  0  2  0  0  3  0  0  0  0  0  0
  182.8220  174.2030  137.1580 C   0  0  1  0  0  3  0  0  0  0  0  0
  183.9200  174.3390  136.0850 C   0  0  2  0  0  3  0  0  0  0  0  0
  184.2410  173.7340  137.4380 C   0  0  0  0  0  2  0  0  0  0  0  0
  181.3450  180.2400  138.0770 C   0  0  1  0  0  3  0  0  0  0  0  0
  180.7700  179.9610  139.3320 O   0  0  0  0  0  0  0  0  0  0  0  0
  181.9240  177.8330  139.3210 C   0  0  0  0  0  0  0  0  0  0  0  0
  182.0400  176.6150  137.2200 C   0  0  0  0  0  3  0  0  0  0  0  0
  182.4250  176.7070  139.9900 C   0  0  0  0  0  3  0  0  0  0  0  0
  182.4860  175.4720  137.9010 C   0  0  0  0  0  0  0  0  0  0  0  0
  181.7690  177.7930  137.9210 C   0  0  0  0  0  0  0  0  0  0  0  0
  181.6890  179.1520  140.0370 C   0  0  2  0  0  3  0  0  0  0  0  0
  181.2710  178.9980  137.1790 C   0  0  0  0  0  2  0  0  0  0  0  0
  182.7010  175.5330  139.2840 C   0  0  0  0  0  3  0  0  0  0  0  0
  182.1050  179.0630  142.5370 N   0  0  0  0  0  1  0  0  0  0  0  0
  181.2020  178.9590  141.4390 C   0  0  0  0  0  0  0  0  0  0  0  0
  179.9860  178.7160  141.6480 O   0  0  0  0  0  0  0  0  0  0  0  0
  180.6750  181.3090  136.0320 O   0  0  0  0  0  1  0  0  0  0  0  0
  180.6420  181.4220  137.4250 C   0  0  0  0  0  2  0  0  0  0  0  0
  184.4270  176.3080  134.5400 C   0  0  0  0  0  2  0  0  0  0  0  0
  184.6900  177.8050  134.4770 C   0  0  0  0  0  1  0  0  0  0  0  0
  188.7040  177.6000  138.7910 C   0  0  0  0  0  2  0  0  0  0  0  0
  189.9250  176.7040  140.7350 C   0  0  1  0  0  3  0  0  0  0  0  0
  189.3940  177.9680  140.0870 C   0  0  1  0  0  3  0  0  0  0  0  0
  190.8650  177.6160  139.9790 C   0  0  0  0  0  2  0  0  0  0  0  0
  190.0790  175.8660  143.1110 C   0  0  0  0  0  0  0  0  0  0  0  0
  189.9620  174.6680  142.7290 O   0  0  0  0  0  0  0  0  0  0  0  0
  190.0740  176.9340  142.1640 N   0  0  0  0  0  2  0  0  0  0  0  0
  188.9470  176.9500  145.0530 C   0  0  0  0  0  2  0  0  0  0  0  0
  191.6270  176.8900  146.2200 C   0  0  1  0  0  3  0  0  0  0  0  0
  189.2880  177.8180  146.2700 C   0  0  2  0  0  3  0  0  0  0  0  0
  190.1830  176.1840  144.5650 C   0  0  2  0  0  3  0  0  0  0  0  0
  191.3630  176.9120  144.8230 O   0  0  0  0  0  0  0  0  0  0  0  0
  190.3930  177.1730  147.1000 C   0  0  0  0  0  2  0  0  0  0  0  0
  192.6360  175.6320  148.1250 C   0  0  0  0  0  1  0  0  0  0  0  0
  192.3120  175.5940  146.6450 C   0  0  0  0  0  2  0  0  0  0  0  0
  188.0530  178.0440  147.1270 C   0  0  0  0  0  2  0  0  0  0  0  0
  184.6700  178.3670  145.7450 O   0  0  0  0  0  0  0  0  0  0  0  0
  185.6720  179.7250  147.3000 O   0  0  0  0  0  1  0  0  0  0  0  0
  185.6860  178.6270  146.4430 C   0  0  0  0  0  0  0  0  0  0  0  0
  186.8440  177.7870  146.3530 N   0  0  0  0  0  2  0  0  0  0  0  0
  190.6460  175.8400  135.9310 C   0  0  2  0  0  3  0  0  0  0  0  0
  192.0950  176.3240  136.0190 C   0  0  0  0  0  2  0  0  0  0  0  0
  193.7500  174.6370  135.3660 C   0  0  0  0  0  2  0  0  0  0  0  0
  193.0460  175.2140  136.3400 C   0  0  0  0  0  0  0  0  0  0  0  0
  192.9760  174.5710  137.6870 C   0  0  0  0  0  2  0  0  0  0  0  0
  194.3570  174.1540  138.1550 C   0  0  0  0  0  1  0  0  0  0  0  0
  190.1910  175.6650  134.4850 C   0  0  0  0  0  2  0  0  0  0  0  0
  189.3240  174.4250  134.3480 C   0  0  0  0  0  2  0  0  0  0  0  0
  189.1280  172.6910  136.1340 C   0  0  0  0  0  1  0  0  0  0  0  0
  189.9940  173.2330  135.0090 C   0  0  0  0  0  2  0  0  0  0  0  0
  1 29  1  0  0  0  0
  2  1  2  0  0  0  0
  3  4  1  0  0  0  0
  3  2  1  0  0  0  0
  5  4  1  0  0  0  0
  5  6  1  0  0  0  0
  6  7  1  6  0  0  0
  8 27  1  6  0  0  0
  8  6  1  0  0  0  0
  9 11  1  0  0  0  0
  9 17  1  1  0  0  0
 10  8  1  1  0  0  0
 10  9  1  0  0  0  0
 10 11  1  0  0  0  0
 12 26  1  6  0  0  0
 12 13  1  0  0  0  0
 13 19  1  0  0  0  0
 14 16  1  0  0  0  0
 14 19  1  0  0  0  0
 15 17  2  0  0  0  0
 15 18  1  0  0  0  0
 17 21  1  0  0  0  0
 18 14  2  0  0  0  0
 19 23  1  1  0  0  0
 20 18  1  0  0  0  0
 20 12  1  0  0  0  0
 21 16  2  0  0  0  0
 23 24  2  0  0  0  0
 23 22  1  0  0  0  0
 25 26  1  0  0  0  0
 28 27  1  0  0  0  0
 30 35  1  1  0  0  0
 31 29  1  6  0  0  0
 31 30  1  0  0  0  0
 32 31  1  0  0  0  0
 32 30  1  0  0  0  0
 34 33  2  0  0  0  0
 35 33  1  0  0  0  0
 36 38  1  0  0  0  0
 37 43  1  1  0  0  0
 37 41  1  0  0  0  0
 38 41  1  0  0  0  0
 38 44  1  1  0  0  0
 39 33  1  6  0  0  0
 39 40  1  0  0  0  0
 39 36  1  0  0  0  0
 40 37  1  0  0  0  0
 43 42  1  0  0  0  0
 45 47  2  0  0  0  0
 47 46  1  0  0  0  0
 48 47  1  0  0  0  0
 48 44  1  0  0  0  0
 49 55  1  6  0  0  0
 49 50  1  0  0  0  0
 49  2  1  0  0  0  0
 50 52  1  0  0  0  0
 51 52  2  0  0  0  0
 52 53  1  0  0  0  0
 53 54  1  0  0  0  0
 56 55  1  0  0  0  0
 56 58  1  0  0  0  0
 58 57  1  0  0  0  0
M  END
>  <MODEL>
6

>  <REMARK>
 VINA RESULT:      -4.9      4.027      9.110
  Name = 
  24 active torsions:
  status: ('A' for Active; 'I' for Inactive)
    1  A    between atoms: C_1  and  C_39
    2  A    between atoms: C_2  and  C_37
    3  A    between atoms: C_2  and  N_56
    4  A    between atoms: C_3  and  C_38
    5  A    between atoms: C_3  and  C_47
    6  A    between atoms: C_4  and  C_33
    7  A    between atoms: C_5  and  C_48
    8  A    between atoms: C_7  and  C_41
    9  A    between atoms: C_12  and  C_55
   10  A    between atoms: C_13  and  C_38
   11  A    between atoms: C_15  and  C_26
   12  A    between atoms: C_15  and  C_28
   13  A    between atoms: C_15  and  C_54
   14  A    between atoms: C_16  and  C_49
   15  A    between atoms: C_17  and  C_28
   16  A    between atoms: C_17  and  C_32
   17  A    between atoms: C_18  and  C_46
   18  A    between atoms: C_19  and  C_38
   19  A    between atoms: C_21  and  N_52
   20  A    between atoms: C_26  and  C_30
   21  A    between atoms: C_30  and  C_44
   22  A    between atoms: C_31  and  C_55
   23  A    between atoms: C_32  and  C_47
   24  A    between atoms: C_33  and  C_54
                            x       y       z     vdW  Elec       q    Type
                         _______ _______ _______ _____ _____    ______ ____

>  <TORSDO>
F 24

$$$$
=
 OpenBabel10222422133D

 58 62  0  0  1  0  0  0  0  0999 V2000
  182.4090  178.1040  139.3880 C   0  0  0  0  0  3  0  0  0  0  0  0
  181.6320  177.6100  138.4060 C   0  0  0  0  0  0  0  0  0  0  0  0
  181.5370  176.1330  138.1290 C   0  0  0  0  0  2  0  0  0  0  0  0
  182.5440  175.3490  138.9650 C   0  0  0  0  0  2  0  0  0  0  0  0
  183.2050  174.2700  138.1220 C   0  0  0  0  0  2  0  0  0  0  0  0
  183.4120  174.7550  136.6950 C   0  0  2  0  0  3  0  0  0  0  0  0
  182.3430  174.1880  135.7680 C   0  0  0  0  0  1  0  0  0  0  0  0
  184.8390  174.4500  136.2090 C   0  0  2  0  0  3  0  0  0  0  0  0
  186.2280  175.6270  134.3490 C   0  0  1  0  0  3  0  0  0  0  0  0
  185.0360  174.7200  134.7080 C   0  0  2  0  0  3  0  0  0  0  0  0
  184.8170  176.1900  134.4040 C   0  0  0  0  0  2  0  0  0  0  0  0
  191.1160  175.9440  138.2840 C   0  0  1  0  0  3  0  0  0  0  0  0
  190.7830  177.2570  138.6720 O   0  0  0  0  0  0  0  0  0  0  0  0
  188.5760  176.9090  137.7410 C   0  0  0  0  0  0  0  0  0  0  0  0
  188.4060  175.6840  135.6480 C   0  0  0  0  0  3  0  0  0  0  0  0
  187.2220  177.2570  137.6370 C   0  0  0  0  0  3  0  0  0  0  0  0
  187.0670  176.0820  135.5180 C   0  0  0  0  0  0  0  0  0  0  0  0
  189.1570  176.0850  136.7570 C   0  0  0  0  0  0  0  0  0  0  0  0
  189.4020  177.2640  138.9660 C   0  0  2  0  0  3  0  0  0  0  0  0
  190.5940  175.6690  136.8680 C   0  0  0  0  0  2  0  0  0  0  0  0
  186.4740  176.8480  136.5290 C   0  0  0  0  0  3  0  0  0  0  0  0
  188.7060  179.6860  138.6830 N   0  0  0  0  0  1  0  0  0  0  0  0
  189.0260  178.5930  139.5400 C   0  0  0  0  0  0  0  0  0  0  0  0
  188.9800  178.7420  140.7890 O   0  0  0  0  0  0  0  0  0  0  0  0
  192.9590  174.4290  137.9970 O   0  0  0  0  0  1  0  0  0  0  0  0
  192.6220  175.7380  138.3550 C   0  0  0  0  0  2  0  0  0  0  0  0
  185.3830  173.0770  136.6330 C   0  0  0  0  0  2  0  0  0  0  0  0
  186.6640  173.1680  137.4470 C   0  0  0  0  0  1  0  0  0  0  0  0
  183.2150  177.2410  140.3060 C   0  0  0  0  0  2  0  0  0  0  0  0
  185.2970  177.9040  141.4460 C   0  0  1  0  0  3  0  0  0  0  0  0
  183.7930  178.0900  141.4190 C   0  0  1  0  0  3  0  0  0  0  0  0
  184.7010  179.1430  140.8150 C   0  0  0  0  0  2  0  0  0  0  0  0
  186.9520  177.6140  143.3290 C   0  0  0  0  0  0  0  0  0  0  0  0
  187.6070  176.7630  142.6640 O   0  0  0  0  0  0  0  0  0  0  0  0
  185.7880  178.2290  142.7760 N   0  0  0  0  0  2  0  0  0  0  0  0
  188.8680  177.7260  144.9240 C   0  0  0  0  0  2  0  0  0  0  0  0
  186.7510  177.8060  146.9400 C   0  0  1  0  0  3  0  0  0  0  0  0
  189.1810  177.4380  146.3970 C   0  0  2  0  0  3  0  0  0  0  0  0
  187.3650  177.9580  144.7210 C   0  0  2  0  0  3  0  0  0  0  0  0
  186.6090  177.2170  145.6530 O   0  0  0  0  0  0  0  0  0  0  0  0
  188.2020  178.1710  147.3100 C   0  0  0  0  0  2  0  0  0  0  0  0
  184.4730  178.7220  146.4950 C   0  0  0  0  0  1  0  0  0  0  0  0
  185.8260  179.0070  147.1160 C   0  0  0  0  0  2  0  0  0  0  0  0
  190.6080  177.8430  146.7290 C   0  0  0  0  0  2  0  0  0  0  0  0
  192.2580  175.1090  148.5350 O   0  0  0  0  0  1  0  0  0  0  0  0
  191.9890  175.3120  146.2660 O   0  0  0  0  0  0  0  0  0  0  0  0
  191.8160  175.7810  147.5660 C   0  0  0  0  0  0  0  0  0  0  0  0
  191.1320  177.0170  147.8110 N   0  0  0  0  0  2  0  0  0  0  0  0
  180.8420  178.5340  137.5240 C   0  0  2  0  0  3  0  0  0  0  0  0
  180.0040  179.4890  138.3770 C   0  0  0  0  0  2  0  0  0  0  0  0
  180.2680  181.6500  139.5040 C   0  0  0  0  0  2  0  0  0  0  0  0
  180.6460  180.8330  138.5210 C   0  0  0  0  0  0  0  0  0  0  0  0
  181.4810  181.3580  137.3990 C   0  0  0  0  0  2  0  0  0  0  0  0
  182.1030  182.6910  137.7710 C   0  0  0  0  0  1  0  0  0  0  0  0
  179.9820  177.7440  136.5430 C   0  0  0  0  0  2  0  0  0  0  0  0
  179.9890  178.4060  135.1760 C   0  0  0  0  0  2  0  0  0  0  0  0
  182.2280  177.5070  134.5290 C   0  0  0  0  0  1  0  0  0  0  0  0
  181.4070  178.7650  134.7680 C   0  0  0  0  0  2  0  0  0  0  0  0
  1 29  1  0  0  0  0
  2  1  2  0  0  0  0
  3  2  1  0  0  0  0
  3  4  1  0  0  0  0
  5  4  1  0  0  0  0
  6  7  1  6  0  0  0
  6  5  1  0  0  0  0
  8 27  1  6  0  0  0
  8  6  1  0  0  0  0
  9 11  1  0  0  0  0
  9 10  1  0  0  0  0
  9 17  1  1  0  0  0
 10  8  1  1  0  0  0
 11 10  1  0  0  0  0
 12 26  1  6  0  0  0
 12 13  1  0  0  0  0
 13 19  1  0  0  0  0
 14 19  1  0  0  0  0
 15 18  1  0  0  0  0
 16 14  1  0  0  0  0
 17 15  2  0  0  0  0
 17 21  1  0  0  0  0
 18 20  1  0  0  0  0
 18 14  2  0  0  0  0
 19 23  1  6  0  0  0
 20 12  1  0  0  0  0
 21 16  2  0  0  0  0
 22 23  1  0  0  0  0
 23 24  2  0  0  0  0
 25 26  1  0  0  0  0
 27 28  1  0  0  0  0
 30 35  1  1  0  0  0
 31 29  1  6  0  0  0
 31 30  1  0  0  0  0
 32 31  1  0  0  0  0
 32 30  1  0  0  0  0
 34 33  2  0  0  0  0
 35 33  1  0  0  0  0
 36 38  1  0  0  0  0
 37 43  1  6  0  0  0
 37 41  1  0  0  0  0
 38 44  1  1  0  0  0
 38 41  1  0  0  0  0
 39 33  1  6  0  0  0
 39 36  1  0  0  0  0
 39 40  1  0  0  0  0
 40 37  1  0  0  0  0
 42 43  1  0  0  0  0
 44 48  1  0  0  0  0
 46 47  2  0  0  0  0
 47 48  1  0  0  0  0
 47 45  1  0  0  0  0
 49 55  1  6  0  0  0
 49 50  1  0  0  0  0
 49  2  1  0  0  0  0
 50 52  1  0  0  0  0
 52 51  2  0  0  0  0
 53 54  1  0  0  0  0
 53 52  1  0  0  0  0
 56 55  1  0  0  0  0
 57 58  1  0  0  0  0
 58 56  1  0  0  0  0
M  END
>  <MODEL>
7

>  <REMARK>
 VINA RESULT:      -4.4      3.538      9.416
  Name = 
  24 active torsions:
  status: ('A' for Active; 'I' for Inactive)
    1  A    between atoms: C_1  and  C_39
    2  A    between atoms: C_2  and  C_37
    3  A    between atoms: C_2  and  N_56
    4  A    between atoms: C_3  and  C_38
    5  A    between atoms: C_3  and  C_47
    6  A    between atoms: C_4  and  C_33
    7  A    between atoms: C_5  and  C_48
    8  A    between atoms: C_7  and  C_41
    9  A    between atoms: C_12  and  C_55
   10  A    between atoms: C_13  and  C_38
   11  A    between atoms: C_15  and  C_26
   12  A    between atoms: C_15  and  C_28
   13  A    between atoms: C_15  and  C_54
   14  A    between atoms: C_16  and  C_49
   15  A    between atoms: C_17  and  C_28
   16  A    between atoms: C_17  and  C_32
   17  A    between atoms: C_18  and  C_46
   18  A    between atoms: C_19  and  C_38
   19  A    between atoms: C_21  and  N_52
   20  A    between atoms: C_26  and  C_30
   21  A    between atoms: C_30  and  C_44
   22  A    between atoms: C_31  and  C_55
   23  A    between atoms: C_32  and  C_47
   24  A    between atoms: C_33  and  C_54
                            x       y       z     vdW  Elec       q    Type
                         _______ _______ _______ _____ _____    ______ ____

>  <TORSDO>
F 24

$$$$
=
 OpenBabel10222422133D

 58 62  0  0  1  0  0  0  0  0999 V2000
  181.8910  179.2720  142.2810 C   0  0  0  0  0  3  0  0  0  0  0  0
  181.9970  178.6950  141.0690 C   0  0  0  0  0  0  0  0  0  0  0  0
  182.2670  177.2230  140.9050 C   0  0  0  0  0  2  0  0  0  0  0  0
  181.7520  176.7130  139.5630 C   0  0  0  0  0  2  0  0  0  0  0  0
  182.8020  175.8450  138.8890 C   0  0  0  0  0  2  0  0  0  0  0  0
  182.3550  175.4510  137.4880 C   0  0  2  0  0  3  0  0  0  0  0  0
  180.9620  174.8310  137.5170 C   0  0  0  0  0  1  0  0  0  0  0  0
  183.3940  174.5410  136.8120 C   0  0  2  0  0  3  0  0  0  0  0  0
  184.0950  174.0900  134.3460 C   0  0  1  0  0  3  0  0  0  0  0  0
  182.9740  174.0900  135.4030 C   0  0  2  0  0  3  0  0  0  0  0  0
  183.1030  175.2390  134.4220 C   0  0  0  0  0  2  0  0  0  0  0  0
  188.8200  177.8010  136.1810 C   0  0  1  0  0  3  0  0  0  0  0  0
  189.3920  176.7750  136.9580 O   0  0  0  0  0  0  0  0  0  0  0  0
  188.0340  175.1820  135.7440 C   0  0  0  0  0  0  0  0  0  0  0  0
  185.7460  175.8090  135.2150 C   0  0  0  0  0  3  0  0  0  0  0  0
  187.7610  173.8700  135.3280 C   0  0  0  0  0  3  0  0  0  0  0  0
  185.4600  174.4840  134.8540 C   0  0  0  0  0  0  0  0  0  0  0  0
  187.0270  176.1620  135.6470 C   0  0  0  0  0  0  0  0  0  0  0  0
  189.4310  175.6180  136.1500 C   0  0  2  0  0  3  0  0  0  0  0  0
  187.3080  177.5790  136.0510 C   0  0  0  0  0  2  0  0  0  0  0  0
  186.4800  173.5240  134.8890 C   0  0  0  0  0  3  0  0  0  0  0  0
  190.6750  173.4080  136.1580 N   0  0  0  0  0  1  0  0  0  0  0  0
  190.1780  174.5380  136.8680 C   0  0  0  0  0  0  0  0  0  0  0  0
  190.3780  174.6380  138.1070 O   0  0  0  0  0  0  0  0  0  0  0  0
  187.9340  179.8790  137.0020 O   0  0  0  0  0  1  0  0  0  0  0  0
  189.1160  179.1610  136.8010 C   0  0  0  0  0  2  0  0  0  0  0  0
  183.8850  173.3710  137.6780 C   0  0  0  0  0  2  0  0  0  0  0  0
  183.6780  172.0150  137.0220 C   0  0  0  0  0  1  0  0  0  0  0  0
  181.9970  178.5080  143.5630 C   0  0  0  0  0  2  0  0  0  0  0  0
  184.4510  178.3380  143.7130 C   0  0  1  0  0  3  0  0  0  0  0  0
  183.2180  178.9720  144.3270 C   0  0  1  0  0  3  0  0  0  0  0  0
  184.1050  179.7770  143.3970 C   0  0  0  0  0  2  0  0  0  0  0  0
  186.8090  177.7860  144.4230 C   0  0  0  0  0  0  0  0  0  0  0  0
  187.0850  177.3440  143.2730 O   0  0  0  0  0  0  0  0  0  0  0  0
  185.5100  178.3040  144.7100 N   0  0  0  0  0  2  0  0  0  0  0  0
  189.1780  177.2330  144.9810 C   0  0  0  0  0  2  0  0  0  0  0  0
  188.1660  177.1740  147.7250 C   0  0  1  0  0  3  0  0  0  0  0  0
  189.9920  176.5710  146.0990 C   0  0  2  0  0  3  0  0  0  0  0  0
  187.8280  177.7340  145.5120 C   0  0  2  0  0  3  0  0  0  0  0  0
  187.3700  176.9250  146.5730 O   0  0  0  0  0  0  0  0  0  0  0  0
  189.6820  177.2170  147.4470 C   0  0  0  0  0  2  0  0  0  0  0  0
  188.5330  179.6250  148.0180 C   0  0  0  0  0  1  0  0  0  0  0  0
  187.7120  178.4300  148.4630 C   0  0  0  0  0  2  0  0  0  0  0  0
  191.4800  176.6650  145.8040 C   0  0  0  0  0  2  0  0  0  0  0  0
  192.1370  177.5480  142.3050 O   0  0  0  0  0  0  0  0  0  0  0  0
  191.8770  178.9840  144.0750 O   0  0  0  0  0  1  0  0  0  0  0  0
  191.9220  177.7000  143.5360 C   0  0  0  0  0  0  0  0  0  0  0  0
  191.7200  176.5520  144.3700 N   0  0  0  0  0  2  0  0  0  0  0  0
  181.8720  179.5220  139.8200 C   0  0  2  0  0  3  0  0  0  0  0  0
  181.1240  178.7380  138.7410 C   0  0  0  0  0  2  0  0  0  0  0  0
  180.3850  180.7970  137.6330 C   0  0  0  0  0  2  0  0  0  0  0  0
  180.8690  179.5600  137.5160 C   0  0  0  0  0  0  0  0  0  0  0  0
  180.8760  178.8890  136.1820 C   0  0  0  0  0  2  0  0  0  0  0  0
  182.2650  178.3810  135.8450 C   0  0  0  0  0  1  0  0  0  0  0  0
  183.2440  179.9850  139.3390 C   0  0  0  0  0  2  0  0  0  0  0  0
  184.3330  179.0830  139.8940 C   0  0  0  0  0  2  0  0  0  0  0  0
  186.4030  177.7940  139.3530 C   0  0  0  0  0  1  0  0  0  0  0  0
  185.3180  178.7050  138.8020 C   0  0  0  0  0  2  0  0  0  0  0  0
  1 29  1  0  0  0  0
  2  1  2  0  0  0  0
  3  2  1  0  0  0  0
  4  3  1  0  0  0  0
  5  4  1  0  0  0  0
  6  7  1  1  0  0  0
  6  5  1  0  0  0  0
  8  6  1  0  0  0  0
  8 27  1  1  0  0  0
  9 11  1  0  0  0  0
  9 17  1  1  0  0  0
  9 10  1  0  0  0  0
 10  8  1  1  0  0  0
 11 10  1  0  0  0  0
 12 26  1  1  0  0  0
 12 13  1  0  0  0  0
 14 19  1  0  0  0  0
 15 18  2  0  0  0  0
 16 14  2  0  0  0  0
 17 21  2  0  0  0  0
 17 15  1  0  0  0  0
 18 14  1  0  0  0  0
 18 20  1  0  0  0  0
 19 23  1  1  0  0  0
 19 13  1  0  0  0  0
 20 12  1  0  0  0  0
 21 16  1  0  0  0  0
 22 23  1  0  0  0  0
 23 24  2  0  0  0  0
 26 25  1  0  0  0  0
 28 27  1  0  0  0  0
 30 31  1  0  0  0  0
 30 35  1  1  0  0  0
 31 29  1  6  0  0  0
 32 30  1  0  0  0  0
 32 31  1  0  0  0  0
 33 35  1  0  0  0  0
 34 33  2  0  0  0  0
 36 39  1  0  0  0  0
 36 38  1  0  0  0  0
 37 43  1  6  0  0  0
 38 44  1  6  0  0  0
 38 41  1  0  0  0  0
 39 33  1  6  0  0  0
 39 40  1  0  0  0  0
 40 37  1  0  0  0  0
 41 37  1  0  0  0  0
 42 43  1  0  0  0  0
 45 47  2  0  0  0  0
 47 46  1  0  0  0  0
 47 48  1  0  0  0  0
 48 44  1  0  0  0  0
 49 50  1  6  0  0  0
 49  2  1  0  0  0  0
 52 51  2  0  0  0  0
 52 50  1  0  0  0  0
 53 52  1  0  0  0  0
 54 53  1  0  0  0  0
 55 49  1  0  0  0  0
 55 56  1  0  0  0  0
 58 57  1  0  0  0  0
 58 56  1  0  0  0  0
M  END
>  <MODEL>
8

>  <REMARK>
 VINA RESULT:      -4.3      3.370      8.609
  Name = 
  24 active torsions:
  status: ('A' for Active; 'I' for Inactive)
    1  A    between atoms: C_1  and  C_39
    2  A    between atoms: C_2  and  C_37
    3  A    between atoms: C_2  and  N_56
    4  A    between atoms: C_3  and  C_38
    5  A    between atoms: C_3  and  C_47
    6  A    between atoms: C_4  and  C_33
    7  A    between atoms: C_5  and  C_48
    8  A    between atoms: C_7  and  C_41
    9  A    between atoms: C_12  and  C_55
   10  A    between atoms: C_13  and  C_38
   11  A    between atoms: C_15  and  C_26
   12  A    between atoms: C_15  and  C_28
   13  A    between atoms: C_15  and  C_54
   14  A    between atoms: C_16  and  C_49
   15  A    between atoms: C_17  and  C_28
   16  A    between atoms: C_17  and  C_32
   17  A    between atoms: C_18  and  C_46
   18  A    between atoms: C_19  and  C_38
   19  A    between atoms: C_21  and  N_52
   20  A    between atoms: C_26  and  C_30
   21  A    between atoms: C_30  and  C_44
   22  A    between atoms: C_31  and  C_55
   23  A    between atoms: C_32  and  C_47
   24  A    between atoms: C_33  and  C_54
                            x       y       z     vdW  Elec       q    Type
                         _______ _______ _______ _____ _____    ______ ____

>  <TORSDO>
F 24

$$$$
=
 OpenBabel10222422133D

 58 62  0  0  1  0  0  0  0  0999 V2000
  183.3670  177.2350  136.1390 C   0  0  0  0  0  3  0  0  0  0  0  0
  182.0350  177.2130  136.3410 C   0  0  0  0  0  0  0  0  0  0  0  0
  181.3810  178.0010  137.4450 C   0  0  0  0  0  2  0  0  0  0  0  0
  180.7880  177.0790  138.5050 C   0  0  0  0  0  2  0  0  0  0  0  0
  181.8630  176.6400  139.4860 C   0  0  0  0  0  2  0  0  0  0  0  0
  181.4690  177.0020  140.9110 C   0  0  2  0  0  3  0  0  0  0  0  0
  179.9840  177.3370  140.9960 C   0  0  0  0  0  1  0  0  0  0  0  0
  182.3620  178.1260  141.4620 C   0  0  2  0  0  3  0  0  0  0  0  0
  182.3590  179.5550  143.6370 C   0  0  1  0  0  3  0  0  0  0  0  0
  181.6040  179.1070  142.3710 C   0  0  2  0  0  3  0  0  0  0  0  0
  181.3060  178.4610  143.7110 C   0  0  0  0  0  2  0  0  0  0  0  0
  187.6870  177.7460  146.4330 C   0  0  1  0  0  3  0  0  0  0  0  0
  188.0050  176.8730  145.3740 O   0  0  0  0  0  0  0  0  0  0  0  0
  186.3890  178.0420  144.0040 C   0  0  0  0  0  0  0  0  0  0  0  0
  184.3010  178.7250  145.0430 C   0  0  0  0  0  3  0  0  0  0  0  0
  185.8630  178.3790  142.7480 C   0  0  0  0  0  3  0  0  0  0  0  0
  183.7580  179.0080  143.7810 C   0  0  0  0  0  0  0  0  0  0  0  0
  185.6110  178.2550  145.1590 C   0  0  0  0  0  0  0  0  0  0  0  0
  187.8310  177.5980  144.1750 C   0  0  2  0  0  3  0  0  0  0  0  0
  186.1670  177.9360  146.5160 C   0  0  0  0  0  2  0  0  0  0  0  0
  184.5540  178.8560  142.6390 C   0  0  0  0  0  3  0  0  0  0  0  0
  188.8240  177.3950  141.8490 N   0  0  0  0  0  1  0  0  0  0  0  0
  188.3120  176.7710  143.0240 C   0  0  0  0  0  0  0  0  0  0  0  0
  188.2750  175.5150  143.1010 O   0  0  0  0  0  0  0  0  0  0  0  0
  189.5990  177.5010  147.8680 O   0  0  0  0  0  1  0  0  0  0  0  0
  188.2370  177.2080  147.7460 C   0  0  0  0  0  2  0  0  0  0  0  0
  183.2130  178.8470  140.4050 C   0  0  0  0  0  2  0  0  0  0  0  0
  182.4680  179.9720  139.7050 C   0  0  0  0  0  1  0  0  0  0  0  0
  184.3050  178.0600  136.9610 C   0  0  0  0  0  2  0  0  0  0  0  0
  186.7680  178.0120  136.8960 C   0  0  1  0  0  3  0  0  0  0  0  0
  185.5290  177.2390  137.3060 C   0  0  1  0  0  3  0  0  0  0  0  0
  186.3430  177.9820  138.3480 C   0  0  0  0  0  2  0  0  0  0  0  0
  188.9520  176.9690  137.6100 C   0  0  0  0  0  0  0  0  0  0  0  0
  188.9940  177.6910  138.6450 O   0  0  0  0  0  0  0  0  0  0  0  0
  187.8620  177.0750  136.6940 N   0  0  0  0  0  2  0  0  0  0  0  0
  191.4260  176.6400  137.6560 C   0  0  0  0  0  2  0  0  0  0  0  0
  190.8380  174.4780  135.7770 C   0  0  1  0  0  3  0  0  0  0  0  0
  192.5400  176.0240  136.8020 C   0  0  2  0  0  3  0  0  0  0  0  0
  190.0650  176.0220  137.3090 C   0  0  2  0  0  3  0  0  0  0  0  0
  190.0210  175.6290  135.9540 O   0  0  0  0  0  0  0  0  0  0  0  0
  192.2170  174.5730  136.4600 C   0  0  0  0  0  2  0  0  0  0  0  0
  188.7540  173.1290  135.5210 C   0  0  0  0  0  1  0  0  0  0  0  0
  190.1120  173.2010  136.1910 C   0  0  0  0  0  2  0  0  0  0  0  0
  193.8750  176.1070  137.5240 C   0  0  0  0  0  2  0  0  0  0  0  0
  196.5310  173.5820  137.3590 O   0  0  0  0  0  0  0  0  0  0  0  0
  195.8910  174.8080  139.1900 O   0  0  0  0  0  1  0  0  0  0  0  0
  195.7700  174.4590  137.8470 C   0  0  0  0  0  0  0  0  0  0  0  0
  194.7920  175.0930  137.0140 N   0  0  0  0  0  2  0  0  0  0  0  0
  181.1490  176.3660  135.4730 C   0  0  2  0  0  3  0  0  0  0  0  0
  181.9920  175.5840  134.4630 C   0  0  0  0  0  2  0  0  0  0  0  0
  181.8890  173.6950  136.0230 C   0  0  0  0  0  2  0  0  0  0  0  0
  182.5430  174.3180  135.0440 C   0  0  0  0  0  0  0  0  0  0  0  0
  183.9510  173.9340  134.7290 C   0  0  0  0  0  2  0  0  0  0  0  0
  184.5900  173.2230  135.9060 C   0  0  0  0  0  1  0  0  0  0  0  0
  180.0870  177.2200  134.7870 C   0  0  0  0  0  2  0  0  0  0  0  0
  180.1420  178.6480  135.3010 C   0  0  0  0  0  2  0  0  0  0  0  0
  180.9970  180.9470  134.8280 C   0  0  0  0  0  1  0  0  0  0  0  0
  181.1130  179.4730  134.4740 C   0  0  0  0  0  2  0  0  0  0  0  0
  1  2  2  0  0  0  0
  1 29  1  0  0  0  0
  2  3  1  0  0  0  0
  3  4  1  0  0  0  0
  4  5  1  0  0  0  0
  5  6  1  0  0  0  0
  6  7  1  6  0  0  0
  6  8  1  0  0  0  0
  8 27  1  6  0  0  0
  9 11  1  0  0  0  0
  9 17  1  6  0  0  0
 10  8  1  6  0  0  0
 10  9  1  0  0  0  0
 10 11  1  0  0  0  0
 12 20  1  0  0  0  0
 12 26  1  1  0  0  0
 13 12  1  0  0  0  0
 14 19  1  0  0  0  0
 14 18  1  0  0  0  0
 15 18  2  0  0  0  0
 16 14  2  0  0  0  0
 17 15  1  0  0  0  0
 18 20  1  0  0  0  0
 19 23  1  6  0  0  0
 19 13  1  0  0  0  0
 21 16  1  0  0  0  0
 21 17  2  0  0  0  0
 22 23  1  0  0  0  0
 23 24  2  0  0  0  0
 26 25  1  0  0  0  0
 28 27  1  0  0  0  0
 30 35  1  1  0  0  0
 30 31  1  0  0  0  0
 30 32  1  0  0  0  0
 31 29  1  6  0  0  0
 31 32  1  0  0  0  0
 33 34  2  0  0  0  0
 35 33  1  0  0  0  0
 37 40  1  0  0  0  0
 37 43  1  1  0  0  0
 37 41  1  0  0  0  0
 38 44  1  1  0  0  0
 38 36  1  0  0  0  0
 39 33  1  6  0  0  0
 39 36  1  0  0  0  0
 40 39  1  0  0  0  0
 41 38  1  0  0  0  0
 42 43  1  0  0  0  0
 45 47  2  0  0  0  0
 47 46  1  0  0  0  0
 48 44  1  0  0  0  0
 48 47  1  0  0  0  0
 49 50  1  6  0  0  0
 49  2  1  0  0  0  0
 50 52  1  0  0  0  0
 52 51  2  0  0  0  0
 53 52  1  0  0  0  0
 53 54  1  0  0  0  0
 55 56  1  0  0  0  0
 55 49  1  0  0  0  0
 58 57  1  0  0  0  0
 58 56  1  0  0  0  0
M  END
>  <MODEL>
9

>  <REMARK>
 VINA RESULT:      -4.0      2.873      7.959
  Name = 
  24 active torsions:
  status: ('A' for Active; 'I' for Inactive)
    1  A    between atoms: C_1  and  C_39
    2  A    between atoms: C_2  and  C_37
    3  A    between atoms: C_2  and  N_56
    4  A    between atoms: C_3  and  C_38
    5  A    between atoms: C_3  and  C_47
    6  A    between atoms: C_4  and  C_33
    7  A    between atoms: C_5  and  C_48
    8  A    between atoms: C_7  and  C_41
    9  A    between atoms: C_12  and  C_55
   10  A    between atoms: C_13  and  C_38
   11  A    between atoms: C_15  and  C_26
   12  A    between atoms: C_15  and  C_28
   13  A    between atoms: C_15  and  C_54
   14  A    between atoms: C_16  and  C_49
   15  A    between atoms: C_17  and  C_28
   16  A    between atoms: C_17  and  C_32
   17  A    between atoms: C_18  and  C_46
   18  A    between atoms: C_19  and  C_38
   19  A    between atoms: C_21  and  N_52
   20  A    between atoms: C_26  and  C_30
   21  A    between atoms: C_30  and  C_44
   22  A    between atoms: C_31  and  C_55
   23  A    between atoms: C_32  and  C_47
   24  A    between atoms: C_33  and  C_54
                            x       y       z     vdW  Elec       q    Type
                         _______ _______ _______ _____ _____    ______ ____

>  <TORSDO>
F 24

$$$$
