=
 OpenBabel10232411563D

 37 43  0  0  1  0  0  0  0  0999 V2000
  190.9360  177.3050  140.8700 N   0  0  2  0  0  0  0  0  0  0  0  0
  190.0300  177.0190  139.7590 C   0  0  1  0  0  3  0  0  0  0  0  0
  186.9790  177.8750  143.7880 N   0  0  0  0  0  0  0  0  0  0  0  0
  190.4790  176.5620  142.0470 C   0  0  2  0  0  3  0  0  0  0  0  0
  187.8270  178.4320  141.2070 C   0  0  0  0  0  0  0  0  0  0  0  0
  188.7500  178.0020  142.1810 C   0  0  0  0  0  0  0  0  0  0  0  0
  188.1800  178.6480  139.8330 N   0  0  0  0  0  2  0  0  0  0  0  0
  188.2940  177.6950  143.4920 C   0  0  0  0  0  0  0  0  0  0  0  0
  190.2260  178.0010  141.9680 C   0  0  2  0  0  3  0  0  0  0  0  0
  186.0760  178.3240  142.8760 C   0  0  0  0  0  0  0  0  0  0  0  0
  186.4900  178.5940  141.5680 C   0  0  0  0  0  3  0  0  0  0  0  0
  191.3340  176.5420  143.2840 C   0  0  0  0  0  2  0  0  0  0  0  0
  189.4600  178.3430  139.1980 C   0  0  2  0  0  3  0  0  0  0  0  0
  189.1740  177.1430  144.5760 C   0  0  0  0  0  3  0  0  0  0  0  0
  190.4360  176.6490  144.5060 C   0  0  0  0  0  3  0  0  0  0  0  0
  184.7960  178.9450  145.6340 O   0  0  0  0  0  0  0  0  0  0  0  0
  182.7310  178.8760  144.4790 N   0  0  0  0  0  0  0  0  0  0  0  0
  184.1400  178.7900  144.5710 C   0  0  0  0  0  0  0  0  0  0  0  0
  183.6720  178.4160  142.4380 N   0  0  0  0  0  0  0  0  0  0  0  0
  184.6660  178.5000  143.2590 C   0  0  0  0  0  0  0  0  0  0  0  0
  182.4910  178.6530  143.2220 C   0  0  0  0  0  3  0  0  0  0  0  0
  190.7390  176.1620  138.7470 C   0  0  0  0  0  0  0  0  0  0  0  0
  192.0870  176.4050  138.4710 C   0  0  0  0  0  3  0  0  0  0  0  0
  190.7550  174.3240  137.1650 C   0  0  0  0  0  3  0  0  0  0  0  0
  190.0740  175.1170  138.0920 C   0  0  0  0  0  3  0  0  0  0  0  0
  192.7670  175.6120  137.5440 C   0  0  0  0  0  3  0  0  0  0  0  0
  192.1100  174.5620  136.8800 C   0  0  0  0  0  0  0  0  0  0  0  0
  194.0510  174.2000  135.3090 C   0  0  0  0  0  1  0  0  0  0  0  0
  192.3130  172.4340  135.5420 C   0  0  0  0  0  1  0  0  0  0  0  0
  192.8130  173.7450  135.9260 N   0  0  0  0  0  0  0  0  0  0  0  0
  189.2630  178.3480  137.6820 C   0  0  0  0  0  2  0  0  0  0  0  0
  186.1560  176.8080  135.3990 C   0  0  0  0  0  2  0  0  0  0  0  0
  187.7900  178.2540  137.3210 C   0  0  1  0  0  3  0  0  0  0  0  0
  187.5480  178.7870  135.9290 C   0  0  0  0  0  3  0  0  0  0  0  0
  186.7590  178.1460  135.0560 C   0  0  0  0  0  3  0  0  0  0  0  0
  186.0000  176.6560  136.8450 N   0  0  0  0  0  2  0  0  0  0  0  0
  187.3190  176.8040  137.4560 C   0  0  0  0  0  2  0  0  0  0  0  0
  1  9  1  0  0  0  0
  1  4  1  0  0  0  0
  2  1  1  0  0  0  0
  4 12  1  0  0  0  0
  5 11  2  0  0  0  0
  5  6  1  0  0  0  0
  6  8  2  0  0  0  0
  7  5  1  0  0  0  0
  8  3  1  0  0  0  0
  8 14  1  0  0  0  0
  9  4  1  0  0  0  0
  9  6  1  0  0  0  0
 10 20  1  0  0  0  0
 10  3  2  0  0  0  0
 11 10  1  0  0  0  0
 12 15  1  0  0  0  0
 13  2  1  0  0  0  0
 13  7  1  0  0  0  0
 15 14  2  0  0  0  0
 17 18  1  0  0  0  0
 18 16  2  0  0  0  0
 19 21  1  0  0  0  0
 19 20  2  0  0  0  0
 20 18  1  0  0  0  0
 21 17  2  0  0  0  0
 22  2  1  0  0  0  0
 23 22  1  0  0  0  0
 24 25  1  0  0  0  0
 25 22  2  0  0  0  0
 26 23  2  0  0  0  0
 27 24  2  0  0  0  0
 27 26  1  0  0  0  0
 28 30  1  0  0  0  0
 29 30  1  0  0  0  0
 30 27  1  0  0  0  0
 31 13  1  0  0  0  0
 32 36  1  0  0  0  0
 33 37  1  0  0  0  0
 33 31  1  0  0  0  0
 34 33  1  0  0  0  0
 35 32  1  0  0  0  0
 35 34  2  0  0  0  0
 36 37  1  0  0  0  0
M  END
>  <MODEL>
1

>  <REMARK>
 VINA RESULT:      -9.0      0.000      0.000
  Name = 
  5 active torsions:
  status: ('A' for Active; 'I' for Inactive)
    1  A    between atoms: C_4  and  C_13
    2  A    between atoms: C_14  and  C_24
    3  A    between atoms: C_16  and  C_22
    4  A    between atoms: C_16  and  C_29
    5  A    between atoms: N_26  and  C_37
                            x       y       z     vdW  Elec       q    Type
                         _______ _______ _______ _____ _____    ______ ____

>  <TORSDO>
F 5

$$$$
=
 OpenBabel10232411563D

 37 43  0  0  1  0  0  0  0  0999 V2000
  190.7700  177.2320  140.7000 N   0  0  2  0  0  0  0  0  0  0  0  0
  189.8870  176.9600  139.5670 C   0  0  1  0  0  3  0  0  0  0  0  0
  186.7510  177.8980  143.5120 N   0  0  0  0  0  0  0  0  0  0  0  0
  190.2670  176.5030  141.8680 C   0  0  2  0  0  3  0  0  0  0  0  0
  187.6780  178.4260  140.9520 C   0  0  0  0  0  0  0  0  0  0  0  0
  188.5660  177.9810  141.9510 C   0  0  0  0  0  0  0  0  0  0  0  0
  188.0710  178.6280  139.5870 N   0  0  0  0  0  2  0  0  0  0  0  0
  188.0690  177.6890  143.2510 C   0  0  0  0  0  0  0  0  0  0  0  0
  190.0470  177.9470  141.7770 C   0  0  2  0  0  3  0  0  0  0  0  0
  185.8820  178.3620  142.5740 C   0  0  0  0  0  0  0  0  0  0  0  0
  186.3360  178.6170  141.2770 C   0  0  0  0  0  3  0  0  0  0  0  0
  191.0890  176.4710  143.1270 C   0  0  0  0  0  2  0  0  0  0  0  0
  189.3600  178.2920  138.9860 C   0  0  2  0  0  3  0  0  0  0  0  0
  188.9090  177.1240  144.3600 C   0  0  0  0  0  3  0  0  0  0  0  0
  190.1620  176.6030  144.3250 C   0  0  0  0  0  3  0  0  0  0  0  0
  183.3400  178.3080  140.7950 O   0  0  0  0  0  0  0  0  0  0  0  0
  182.1620  178.7840  142.7920 N   0  0  0  0  0  0  0  0  0  0  0  0
  183.3290  178.5290  142.0340 C   0  0  0  0  0  0  0  0  0  0  0  0
  184.0380  178.8250  144.1110 N   0  0  0  0  0  0  0  0  0  0  0  0
  184.4670  178.5700  142.9200 C   0  0  0  0  0  0  0  0  0  0  0  0
  182.6110  178.9520  143.9990 C   0  0  0  0  0  3  0  0  0  0  0  0
  190.6040  176.0830  138.5770 C   0  0  0  0  0  0  0  0  0  0  0  0
  191.9740  176.2620  138.3740 C   0  0  0  0  0  3  0  0  0  0  0  0
  190.6100  174.2700  136.9670 C   0  0  0  0  0  3  0  0  0  0  0  0
  189.9230  175.0820  137.8720 C   0  0  0  0  0  3  0  0  0  0  0  0
  192.6610  175.4500  137.4690 C   0  0  0  0  0  3  0  0  0  0  0  0
  191.9880  174.4440  136.7550 C   0  0  0  0  0  0  0  0  0  0  0  0
  192.2670  172.2430  135.5540 C   0  0  0  0  0  1  0  0  0  0  0  0
  193.8720  174.0940  135.1150 C   0  0  0  0  0  1  0  0  0  0  0  0
  192.6980  173.6070  135.8230 N   0  0  0  0  0  0  0  0  0  0  0  0
  189.2030  178.2950  137.4650 C   0  0  0  0  0  2  0  0  0  0  0  0
  186.0110  176.8520  135.2380 C   0  0  0  0  0  2  0  0  0  0  0  0
  187.7370  178.3110  137.0670 C   0  0  1  0  0  3  0  0  0  0  0  0
  187.5820  178.7270  135.6240 C   0  0  0  0  0  3  0  0  0  0  0  0
  186.7530  178.0850  134.7900 C   0  0  0  0  0  3  0  0  0  0  0  0
  185.8060  176.8580  136.6860 N   0  0  0  0  0  2  0  0  0  0  0  0
  187.1190  176.9350  137.3230 C   0  0  0  0  0  2  0  0  0  0  0  0
  1  9  1  0  0  0  0
  1  4  1  0  0  0  0
  2  1  1  0  0  0  0
  4 12  1  0  0  0  0
  5 11  2  0  0  0  0
  5  6  1  0  0  0  0
  6  8  2  0  0  0  0
  7  5  1  0  0  0  0
  8  3  1  0  0  0  0
  8 14  1  0  0  0  0
  9  4  1  0  0  0  0
  9  6  1  0  0  0  0
 10 20  1  0  0  0  0
 10  3  2  0  0  0  0
 11 10  1  0  0  0  0
 12 15  1  0  0  0  0
 13  2  1  0  0  0  0
 13  7  1  0  0  0  0
 15 14  2  0  0  0  0
 16 18  2  0  0  0  0
 17 21  2  0  0  0  0
 18 17  1  0  0  0  0
 18 20  1  0  0  0  0
 20 19  2  0  0  0  0
 21 19  1  0  0  0  0
 22  2  1  0  0  0  0
 23 22  1  0  0  0  0
 24 25  1  0  0  0  0
 25 22  2  0  0  0  0
 26 23  2  0  0  0  0
 27 24  2  0  0  0  0
 27 26  1  0  0  0  0
 28 30  1  0  0  0  0
 29 30  1  0  0  0  0
 30 27  1  0  0  0  0
 31 13  1  0  0  0  0
 32 36  1  0  0  0  0
 33 37  1  0  0  0  0
 33 31  1  0  0  0  0
 34 33  1  0  0  0  0
 35 32  1  0  0  0  0
 35 34  2  0  0  0  0
 36 37  1  0  0  0  0
M  END
>  <MODEL>
2

>  <REMARK>
 VINA RESULT:      -8.7      0.990      1.219
  Name = 
  5 active torsions:
  status: ('A' for Active; 'I' for Inactive)
    1  A    between atoms: C_4  and  C_13
    2  A    between atoms: C_14  and  C_24
    3  A    between atoms: C_16  and  C_22
    4  A    between atoms: C_16  and  C_29
    5  A    between atoms: N_26  and  C_37
                            x       y       z     vdW  Elec       q    Type
                         _______ _______ _______ _____ _____    ______ ____

>  <TORSDO>
F 5

$$$$
=
 OpenBabel10232411563D

 37 43  0  0  1  0  0  0  0  0999 V2000
  186.1280  178.9810  143.4100 N   0  0  2  0  0  0  0  0  0  0  0  0
  186.8280  178.1180  142.4600 C   0  0  1  0  0  3  0  0  0  0  0  0
  181.9480  178.1490  140.8920 N   0  0  0  0  0  0  0  0  0  0  0  0
  184.8730  178.3280  143.7940 C   0  0  2  0  0  3  0  0  0  0  0  0
  184.6530  178.5760  140.4580 C   0  0  0  0  0  0  0  0  0  0  0  0
  184.0940  178.8010  141.7320 C   0  0  0  0  0  0  0  0  0  0  0  0
  186.0580  178.6880  140.1880 N   0  0  0  0  0  2  0  0  0  0  0  0
  182.7110  178.5510  141.9440 C   0  0  0  0  0  0  0  0  0  0  0  0
  184.8370  179.4470  142.8520 C   0  0  2  0  0  3  0  0  0  0  0  0
  182.4570  177.9610  139.6460 C   0  0  0  0  0  0  0  0  0  0  0  0
  183.8220  178.1590  139.4190 C   0  0  0  0  0  3  0  0  0  0  0  0
  184.0400  178.9230  144.8950 C   0  0  0  0  0  2  0  0  0  0  0  0
  187.1240  178.9050  141.1620 C   0  0  2  0  0  3  0  0  0  0  0  0
  182.0350  178.6680  143.2790 C   0  0  0  0  0  3  0  0  0  0  0  0
  182.5720  178.8120  144.5170 C   0  0  0  0  0  3  0  0  0  0  0  0
  180.9660  175.2760  139.1940 O   0  0  0  0  0  0  0  0  0  0  0  0
  180.1710  176.2720  137.1990 N   0  0  0  0  0  0  0  0  0  0  0  0
  180.9130  176.2540  138.4030 C   0  0  0  0  0  0  0  0  0  0  0  0
  181.2720  178.2580  137.5280 N   0  0  0  0  0  0  0  0  0  0  0  0
  181.5780  177.5270  138.5480 C   0  0  0  0  0  0  0  0  0  0  0  0
  180.4010  177.4550  136.7140 C   0  0  0  0  0  3  0  0  0  0  0  0
  188.0400  177.5260  143.1250 C   0  0  0  0  0  0  0  0  0  0  0  0
  188.5480  178.1270  144.2790 C   0  0  0  0  0  3  0  0  0  0  0  0
  189.7710  175.8320  143.2580 C   0  0  0  0  0  3  0  0  0  0  0  0
  188.6540  176.3730  142.6160 C   0  0  0  0  0  3  0  0  0  0  0  0
  189.6640  177.5860  144.9200 C   0  0  0  0  0  3  0  0  0  0  0  0
  190.2890  176.4320  144.4170 C   0  0  0  0  0  0  0  0  0  0  0  0
  191.8800  176.3720  146.3750 C   0  0  0  0  0  1  0  0  0  0  0  0
  192.2040  174.7920  144.4790 C   0  0  0  0  0  1  0  0  0  0  0  0
  191.4390  175.8740  145.0790 N   0  0  0  0  0  0  0  0  0  0  0  0
  188.4600  178.5550  140.5070 C   0  0  0  0  0  2  0  0  0  0  0  0
  189.8910  177.1360  136.8760 C   0  0  0  0  0  2  0  0  0  0  0  0
  188.2500  177.8990  139.1530 C   0  0  1  0  0  3  0  0  0  0  0  0
  188.5570  178.8700  138.0380 C   0  0  0  0  0  3  0  0  0  0  0  0
  189.2740  178.5090  136.9650 C   0  0  0  0  0  3  0  0  0  0  0  0
  189.1330  176.1670  137.6680 N   0  0  0  0  0  2  0  0  0  0  0  0
  189.1110  176.6390  139.0510 C   0  0  0  0  0  2  0  0  0  0  0  0
  1  4  1  0  0  0  0
  2 22  1  0  0  0  0
  2  1  1  0  0  0  0
  3  8  1  0  0  0  0
  4 12  1  0  0  0  0
  5  6  1  0  0  0  0
  6  8  2  0  0  0  0
  6  9  1  0  0  0  0
  7  5  1  0  0  0  0
  7 13  1  0  0  0  0
  8 14  1  0  0  0  0
  9  1  1  0  0  0  0
  9  4  1  0  0  0  0
 10  3  2  0  0  0  0
 11 10  1  0  0  0  0
 11  5  2  0  0  0  0
 13  2  1  0  0  0  0
 14 15  2  0  0  0  0
 15 12  1  0  0  0  0
 17 18  1  0  0  0  0
 18 20  1  0  0  0  0
 18 16  2  0  0  0  0
 19 20  2  0  0  0  0
 20 10  1  0  0  0  0
 21 17  2  0  0  0  0
 21 19  1  0  0  0  0
 22 23  1  0  0  0  0
 23 26  2  0  0  0  0
 24 27  2  0  0  0  0
 25 22  2  0  0  0  0
 25 24  1  0  0  0  0
 27 26  1  0  0  0  0
 27 30  1  0  0  0  0
 29 30  1  0  0  0  0
 30 28  1  0  0  0  0
 31 13  1  0  0  0  0
 32 35  1  0  0  0  0
 32 36  1  0  0  0  0
 33 31  1  0  0  0  0
 34 33  1  0  0  0  0
 35 34  2  0  0  0  0
 36 37  1  0  0  0  0
 37 33  1  0  0  0  0
M  END
>  <MODEL>
3

>  <REMARK>
 VINA RESULT:      -8.6      2.976      6.147
  Name = 
  5 active torsions:
  status: ('A' for Active; 'I' for Inactive)
    1  A    between atoms: C_4  and  C_13
    2  A    between atoms: C_14  and  C_24
    3  A    between atoms: C_16  and  C_22
    4  A    between atoms: C_16  and  C_29
    5  A    between atoms: N_26  and  C_37
                            x       y       z     vdW  Elec       q    Type
                         _______ _______ _______ _____ _____    ______ ____

>  <TORSDO>
F 5

$$$$
=
 OpenBabel10232411563D

 37 43  0  0  1  0  0  0  0  0999 V2000
  187.7980  178.7880  139.4590 N   0  0  2  0  0  0  0  0  0  0  0  0
  188.2220  178.0540  140.6510 C   0  0  1  0  0  3  0  0  0  0  0  0
  190.6060  175.7490  136.7420 N   0  0  0  0  0  0  0  0  0  0  0  0
  187.4560  177.8200  138.4140 C   0  0  2  0  0  3  0  0  0  0  0  0
  190.6340  177.0760  139.1770 C   0  0  0  0  0  0  0  0  0  0  0  0
  189.6590  177.3890  138.2090 C   0  0  0  0  0  0  0  0  0  0  0  0
  190.6500  177.6560  140.4900 N   0  0  0  0  0  2  0  0  0  0  0  0
  189.6430  176.6800  136.9770 C   0  0  0  0  0  0  0  0  0  0  0  0
  188.7240  178.5450  138.3290 C   0  0  2  0  0  3  0  0  0  0  0  0
  191.5790  175.4560  137.6460 C   0  0  0  0  0  0  0  0  0  0  0  0
  191.5940  176.1090  138.8820 C   0  0  0  0  0  3  0  0  0  0  0  0
  186.8240  178.3060  137.1380 C   0  0  0  0  0  2  0  0  0  0  0  0
  189.6320  178.5240  141.0780 C   0  0  2  0  0  3  0  0  0  0  0  0
  188.5960  176.8680  135.9170 C   0  0  0  0  0  3  0  0  0  0  0  0
  187.4130  177.5320  135.9700 C   0  0  0  0  0  3  0  0  0  0  0  0
  194.6060  175.3500  138.3240 O   0  0  0  0  0  0  0  0  0  0  0  0
  194.5970  173.2790  137.1780 N   0  0  0  0  0  0  0  0  0  0  0  0
  193.9950  174.4560  137.6820 C   0  0  0  0  0  0  0  0  0  0  0  0
  192.3600  173.3530  136.6740 N   0  0  0  0  0  0  0  0  0  0  0  0
  192.5960  174.4400  137.3310 C   0  0  0  0  0  0  0  0  0  0  0  0
  193.6150  172.6580  136.5960 C   0  0  0  0  0  3  0  0  0  0  0  0
  187.1680  178.1840  141.7160 C   0  0  0  0  0  0  0  0  0  0  0  0
  187.2830  177.4300  142.8860 C   0  0  0  0  0  3  0  0  0  0  0  0
  185.1250  179.1760  142.5670 C   0  0  0  0  0  3  0  0  0  0  0  0
  186.0850  179.0600  141.5590 C   0  0  0  0  0  3  0  0  0  0  0  0
  186.3230  177.5460  143.8930 C   0  0  0  0  0  3  0  0  0  0  0  0
  185.2320  178.4200  143.7450 C   0  0  0  0  0  0  0  0  0  0  0  0
  182.8430  178.7880  144.4710 C   0  0  0  0  0  1  0  0  0  0  0  0
  184.6040  178.4130  146.1890 C   0  0  0  0  0  1  0  0  0  0  0  0
  184.2430  178.5390  144.7850 N   0  0  0  0  0  0  0  0  0  0  0  0
  189.8470  178.5680  142.5910 C   0  0  0  0  0  2  0  0  0  0  0  0
  191.6070  175.7970  145.1330 C   0  0  0  0  0  2  0  0  0  0  0  0
  191.0130  177.6860  143.0040 C   0  0  1  0  0  3  0  0  0  0  0  0
  191.5800  178.1390  144.3280 C   0  0  0  0  0  3  0  0  0  0  0  0
  191.8980  177.2680  145.2940 C   0  0  0  0  0  3  0  0  0  0  0  0
  191.5820  175.4180  143.7210 N   0  0  0  0  0  2  0  0  0  0  0  0
  190.5610  176.2260  143.0580 C   0  0  0  0  0  2  0  0  0  0  0  0
  1  2  1  0  0  0  0
  2 13  1  0  0  0  0
  2 22  1  0  0  0  0
  3  8  2  0  0  0  0
  3 10  1  0  0  0  0
  4  1  1  0  0  0  0
  5  7  1  0  0  0  0
  6  9  1  0  0  0  0
  6  5  2  0  0  0  0
  7 13  1  0  0  0  0
  8  6  1  0  0  0  0
  9  4  1  0  0  0  0
  9  1  1  0  0  0  0
 10 11  2  0  0  0  0
 11  5  1  0  0  0  0
 12  4  1  0  0  0  0
 13 31  1  0  0  0  0
 14 15  2  0  0  0  0
 14  8  1  0  0  0  0
 15 12  1  0  0  0  0
 17 18  1  0  0  0  0
 18 16  2  0  0  0  0
 19 20  2  0  0  0  0
 20 10  1  0  0  0  0
 20 18  1  0  0  0  0
 21 19  1  0  0  0  0
 21 17  2  0  0  0  0
 22 23  1  0  0  0  0
 23 26  2  0  0  0  0
 24 27  2  0  0  0  0
 25 22  2  0  0  0  0
 25 24  1  0  0  0  0
 27 26  1  0  0  0  0
 27 30  1  0  0  0  0
 28 30  1  0  0  0  0
 30 29  1  0  0  0  0
 31 33  1  0  0  0  0
 32 35  1  0  0  0  0
 33 37  1  0  0  0  0
 33 34  1  0  0  0  0
 34 35  2  0  0  0  0
 36 32  1  0  0  0  0
 37 36  1  0  0  0  0
M  END
>  <MODEL>
4

>  <REMARK>
 VINA RESULT:      -8.2      2.558      9.127
  Name = 
  5 active torsions:
  status: ('A' for Active; 'I' for Inactive)
    1  A    between atoms: C_4  and  C_13
    2  A    between atoms: C_14  and  C_24
    3  A    between atoms: C_16  and  C_22
    4  A    between atoms: C_16  and  C_29
    5  A    between atoms: N_26  and  C_37
                            x       y       z     vdW  Elec       q    Type
                         _______ _______ _______ _____ _____    ______ ____

>  <TORSDO>
F 5

$$$$
=
 OpenBabel10232411563D

 37 43  0  0  1  0  0  0  0  0999 V2000
  186.6500  177.9160  137.2280 N   0  0  2  0  0  0  0  0  0  0  0  0
  185.5220  177.4850  138.0520 C   0  0  1  0  0  3  0  0  0  0  0  0
  189.5300  177.6400  141.2450 N   0  0  0  0  0  0  0  0  0  0  0  0
  187.8050  177.0710  137.5420 C   0  0  2  0  0  3  0  0  0  0  0  0
  186.9720  178.4100  140.5000 C   0  0  0  0  0  0  0  0  0  0  0  0
  187.9480  178.1450  139.5180 C   0  0  0  0  0  0  0  0  0  0  0  0
  185.6070  178.7220  140.1840 N   0  0  0  0  0  2  0  0  0  0  0  0
  189.2460  177.7250  139.9170 C   0  0  0  0  0  0  0  0  0  0  0  0
  187.7540  178.4350  138.0680 C   0  0  2  0  0  3  0  0  0  0  0  0
  188.6160  177.9250  142.2100 C   0  0  0  0  0  0  0  0  0  0  0  0
  187.3190  178.3010  141.8450 C   0  0  0  0  0  3  0  0  0  0  0  0
  189.0520  177.1890  136.7090 C   0  0  0  0  0  2  0  0  0  0  0  0
  184.9820  178.6850  138.8640 C   0  0  2  0  0  3  0  0  0  0  0  0
  190.3300  177.3290  138.9560 C   0  0  0  0  0  3  0  0  0  0  0  0
  190.2650  177.0910  137.6210 C   0  0  0  0  0  3  0  0  0  0  0  0
  190.9820  179.1740  143.7830 O   0  0  0  0  0  0  0  0  0  0  0  0
  190.0760  178.0550  145.6610 N   0  0  0  0  0  0  0  0  0  0  0  0
  190.1070  178.4300  144.2980 C   0  0  0  0  0  0  0  0  0  0  0  0
  188.3260  177.1290  144.5030 N   0  0  0  0  0  0  0  0  0  0  0  0
  188.9850  177.8160  143.6300 C   0  0  0  0  0  0  0  0  0  0  0  0
  189.0240  177.2970  145.7480 C   0  0  0  0  0  3  0  0  0  0  0  0
  184.5010  176.8050  137.1820 C   0  0  0  0  0  0  0  0  0  0  0  0
  183.6980  175.8010  137.7290 C   0  0  0  0  0  3  0  0  0  0  0  0
  183.3680  176.5400  135.0540 C   0  0  0  0  0  3  0  0  0  0  0  0
  184.3320  177.1750  135.8410 C   0  0  0  0  0  3  0  0  0  0  0  0
  182.7350  175.1660  136.9420 C   0  0  0  0  0  3  0  0  0  0  0  0
  182.5580  175.5280  135.5950 C   0  0  0  0  0  0  0  0  0  0  0  0
  180.3660  175.5740  134.3470 C   0  0  0  0  0  1  0  0  0  0  0  0
  181.7200  173.4860  134.3740 C   0  0  0  0  0  1  0  0  0  0  0  0
  181.5640  174.8740  134.7850 N   0  0  0  0  0  0  0  0  0  0  0  0
  183.4640  178.6870  139.0450 C   0  0  0  0  0  2  0  0  0  0  0  0
  180.2310  181.0340  137.9140 C   0  0  0  0  0  2  0  0  0  0  0  0
  182.8030  179.6940  138.1180 C   0  0  1  0  0  3  0  0  0  0  0  0
  181.6380  179.0640  137.3930 C   0  0  0  0  0  3  0  0  0  0  0  0
  180.4660  179.6980  137.2570 C   0  0  0  0  0  3  0  0  0  0  0  0
  181.4890  181.7560  138.1010 N   0  0  0  0  0  2  0  0  0  0  0  0
  182.3670  180.9220  138.9190 C   0  0  0  0  0  2  0  0  0  0  0  0
  1  4  1  0  0  0  0
  1  2  1  0  0  0  0
  1  9  1  0  0  0  0
  2 13  1  0  0  0  0
  3 10  1  0  0  0  0
  4  9  1  0  0  0  0
  5 11  1  0  0  0  0
  6  8  1  0  0  0  0
  6  5  2  0  0  0  0
  7  5  1  0  0  0  0
  8  3  2  0  0  0  0
  9  6  1  0  0  0  0
 10 20  1  0  0  0  0
 11 10  2  0  0  0  0
 12  4  1  0  0  0  0
 12 15  1  0  0  0  0
 13 31  1  0  0  0  0
 13  7  1  0  0  0  0
 14  8  1  0  0  0  0
 15 14  2  0  0  0  0
 16 18  2  0  0  0  0
 17 21  2  0  0  0  0
 18 17  1  0  0  0  0
 19 21  1  0  0  0  0
 20 18  1  0  0  0  0
 20 19  2  0  0  0  0
 22 23  1  0  0  0  0
 22  2  1  0  0  0  0
 24 27  2  0  0  0  0
 24 25  1  0  0  0  0
 25 22  2  0  0  0  0
 26 23  2  0  0  0  0
 27 26  1  0  0  0  0
 28 30  1  0  0  0  0
 29 30  1  0  0  0  0
 30 27  1  0  0  0  0
 32 36  1  0  0  0  0
 33 37  1  0  0  0  0
 33 31  1  0  0  0  0
 34 33  1  0  0  0  0
 35 34  2  0  0  0  0
 35 32  1  0  0  0  0
 36 37  1  0  0  0  0
M  END
>  <MODEL>
5

>  <REMARK>
 VINA RESULT:      -7.5      3.545      6.743
  Name = 
  5 active torsions:
  status: ('A' for Active; 'I' for Inactive)
    1  A    between atoms: C_4  and  C_13
    2  A    between atoms: C_14  and  C_24
    3  A    between atoms: C_16  and  C_22
    4  A    between atoms: C_16  and  C_29
    5  A    between atoms: N_26  and  C_37
                            x       y       z     vdW  Elec       q    Type
                         _______ _______ _______ _____ _____    ______ ____

>  <TORSDO>
F 5

$$$$
=
 OpenBabel10232411563D

 37 43  0  0  1  0  0  0  0  0999 V2000
  187.0950  177.1380  136.7170 N   0  0  2  0  0  0  0  0  0  0  0  0
  185.9300  176.9360  137.5770 C   0  0  1  0  0  3  0  0  0  0  0  0
  189.8990  177.4000  140.7880 N   0  0  0  0  0  0  0  0  0  0  0  0
  188.1860  176.2890  137.2050 C   0  0  2  0  0  3  0  0  0  0  0  0
  187.4100  178.1890  139.8550 C   0  0  0  0  0  0  0  0  0  0  0  0
  188.3770  177.6890  138.9610 C   0  0  0  0  0  0  0  0  0  0  0  0
  186.0740  178.5280  139.4550 N   0  0  0  0  0  2  0  0  0  0  0  0
  189.6390  177.2640  139.4600 C   0  0  0  0  0  0  0  0  0  0  0  0
  188.2210  177.7260  137.4780 C   0  0  2  0  0  3  0  0  0  0  0  0
  188.9950  177.9130  141.6640 C   0  0  0  0  0  0  0  0  0  0  0  0
  187.7320  178.3010  141.2070 C   0  0  0  0  0  3  0  0  0  0  0  0
  189.4480  176.1740  136.3950 C   0  0  0  0  0  2  0  0  0  0  0  0
  185.4640  178.2960  138.1480 C   0  0  2  0  0  3  0  0  0  0  0  0
  190.7040  176.6320  138.6110 C   0  0  0  0  0  3  0  0  0  0  0  0
  190.6400  176.1630  137.3390 C   0  0  0  0  0  3  0  0  0  0  0  0
  187.7520  176.5590  144.1650 O   0  0  0  0  0  0  0  0  0  0  0  0
  189.3620  177.7840  145.3940 N   0  0  0  0  0  0  0  0  0  0  0  0
  188.7130  177.3710  144.2070 C   0  0  0  0  0  0  0  0  0  0  0  0
  190.2840  178.7880  143.5490 N   0  0  0  0  0  0  0  0  0  0  0  0
  189.3380  178.0370  143.0900 C   0  0  0  0  0  0  0  0  0  0  0  0
  190.2730  178.6090  144.9750 C   0  0  0  0  0  3  0  0  0  0  0  0
  184.8760  176.1800  136.8170 C   0  0  0  0  0  0  0  0  0  0  0  0
  184.1000  175.2310  137.4880 C   0  0  0  0  0  3  0  0  0  0  0  0
  183.6560  175.7190  134.7720 C   0  0  0  0  0  3  0  0  0  0  0  0
  184.6500  176.4240  135.4560 C   0  0  0  0  0  3  0  0  0  0  0  0
  183.1070  174.5270  136.8040 C   0  0  0  0  0  3  0  0  0  0  0  0
  182.8730  174.7620  135.4380 C   0  0  0  0  0  0  0  0  0  0  0  0
  182.0320  172.6410  134.3600 C   0  0  0  0  0  1  0  0  0  0  0  0
  180.5880  174.6690  134.3720 C   0  0  0  0  0  1  0  0  0  0  0  0
  181.8480  174.0360  134.7350 N   0  0  0  0  0  0  0  0  0  0  0  0
  183.9470  178.4290  138.2890 C   0  0  0  0  0  2  0  0  0  0  0  0
  181.3110  178.8880  141.4640 C   0  0  0  0  0  2  0  0  0  0  0  0
  183.5730  179.0140  139.6400 C   0  0  1  0  0  3  0  0  0  0  0  0
  182.3960  179.9510  139.5070 C   0  0  0  0  0  3  0  0  0  0  0  0
  181.3740  179.9270  140.3730 C   0  0  0  0  0  3  0  0  0  0  0  0
  182.6510  178.4280  141.8290 N   0  0  0  0  0  2  0  0  0  0  0  0
  183.2800  177.8830  140.6280 C   0  0  0  0  0  2  0  0  0  0  0  0
  1  4  1  0  0  0  0
  1  9  1  0  0  0  0
  1  2  1  0  0  0  0
  2 13  1  0  0  0  0
  3 10  1  0  0  0  0
  4  9  1  0  0  0  0
  5 11  1  0  0  0  0
  6  8  1  0  0  0  0
  6  5  2  0  0  0  0
  7  5  1  0  0  0  0
  8  3  2  0  0  0  0
  9  6  1  0  0  0  0
 10 20  1  0  0  0  0
 11 10  2  0  0  0  0
 12  4  1  0  0  0  0
 12 15  1  0  0  0  0
 13 31  1  0  0  0  0
 13  7  1  0  0  0  0
 14  8  1  0  0  0  0
 15 14  2  0  0  0  0
 16 18  2  0  0  0  0
 18 17  1  0  0  0  0
 19 21  1  0  0  0  0
 20 19  2  0  0  0  0
 20 18  1  0  0  0  0
 21 17  2  0  0  0  0
 22 23  1  0  0  0  0
 22  2  1  0  0  0  0
 24 27  2  0  0  0  0
 24 25  1  0  0  0  0
 25 22  2  0  0  0  0
 26 23  2  0  0  0  0
 27 26  1  0  0  0  0
 28 30  1  0  0  0  0
 29 30  1  0  0  0  0
 30 27  1  0  0  0  0
 31 33  1  0  0  0  0
 32 36  1  0  0  0  0
 33 37  1  0  0  0  0
 34 33  1  0  0  0  0
 34 35  2  0  0  0  0
 35 32  1  0  0  0  0
 37 36  1  0  0  0  0
M  END
>  <MODEL>
6

>  <REMARK>
 VINA RESULT:      -7.0      2.811      6.632
  Name = 
  5 active torsions:
  status: ('A' for Active; 'I' for Inactive)
    1  A    between atoms: C_4  and  C_13
    2  A    between atoms: C_14  and  C_24
    3  A    between atoms: C_16  and  C_22
    4  A    between atoms: C_16  and  C_29
    5  A    between atoms: N_26  and  C_37
                            x       y       z     vdW  Elec       q    Type
                         _______ _______ _______ _____ _____    ______ ____

>  <TORSDO>
F 5

$$$$
=
 OpenBabel10232411563D

 37 43  0  0  1  0  0  0  0  0999 V2000
  188.8380  178.5260  139.4370 N   0  0  2  0  0  0  0  0  0  0  0  0
  188.7500  177.3530  140.3060 C   0  0  1  0  0  3  0  0  0  0  0  0
  189.9650  175.5060  135.6800 N   0  0  0  0  0  0  0  0  0  0  0  0
  188.1400  178.2290  138.1830 C   0  0  2  0  0  3  0  0  0  0  0  0
  190.4640  175.8220  138.3900 C   0  0  0  0  0  0  0  0  0  0  0  0
  189.8480  176.8550  137.6560 C   0  0  0  0  0  0  0  0  0  0  0  0
  190.6660  175.8820  139.8090 N   0  0  0  0  0  2  0  0  0  0  0  0
  189.5750  176.6660  136.2740 C   0  0  0  0  0  0  0  0  0  0  0  0
  189.6030  178.2200  138.2070 C   0  0  2  0  0  3  0  0  0  0  0  0
  190.5930  174.5100  136.3590 C   0  0  0  0  0  0  0  0  0  0  0  0
  190.8370  174.6530  137.7290 C   0  0  0  0  0  3  0  0  0  0  0  0
  187.9300  179.3290  137.1790 C   0  0  0  0  0  2  0  0  0  0  0  0
  190.1710  176.9080  140.7240 C   0  0  2  0  0  3  0  0  0  0  0  0
  188.8420  177.6620  135.4220 C   0  0  0  0  0  3  0  0  0  0  0  0
  188.1440  178.7690  135.7820 C   0  0  0  0  0  3  0  0  0  0  0  0
  188.9060  172.4740  134.7350 O   0  0  0  0  0  0  0  0  0  0  0  0
  190.9500  171.3250  134.4120 N   0  0  0  0  0  0  0  0  0  0  0  0
  190.1470  172.3740  134.9180 C   0  0  0  0  0  0  0  0  0  0  0  0
  192.2010  172.8270  135.6130 N   0  0  0  0  0  0  0  0  0  0  0  0
  190.9920  173.2790  135.6590 C   0  0  0  0  0  0  0  0  0  0  0  0
  192.1430  171.6200  134.8350 C   0  0  0  0  0  3  0  0  0  0  0  0
  187.8230  177.6500  141.4510 C   0  0  0  0  0  0  0  0  0  0  0  0
  186.8740  178.6670  141.3160 C   0  0  0  0  0  3  0  0  0  0  0  0
  187.0040  177.1970  143.6890 C   0  0  0  0  0  3  0  0  0  0  0  0
  187.8850  176.9130  142.6420 C   0  0  0  0  0  3  0  0  0  0  0  0
  185.9950  178.9500  142.3630 C   0  0  0  0  0  3  0  0  0  0  0  0
  186.0490  178.2180  143.5620 C   0  0  0  0  0  0  0  0  0  0  0  0
  185.5140  178.2720  146.0270 C   0  0  0  0  0  1  0  0  0  0  0  0
  183.8160  179.0560  144.3840 C   0  0  0  0  0  1  0  0  0  0  0  0
  185.1410  178.5110  144.6400 N   0  0  0  0  0  0  0  0  0  0  0  0
  190.2650  176.3720  142.1530 C   0  0  0  0  0  2  0  0  0  0  0  0
  191.1410  178.7950  145.4090 C   0  0  0  0  0  2  0  0  0  0  0  0
  191.2370  177.1940  142.9820 C   0  0  1  0  0  3  0  0  0  0  0  0
  190.8570  178.6560  142.9520 C   0  0  0  0  0  3  0  0  0  0  0  0
  190.8570  179.4080  144.0610 C   0  0  0  0  0  3  0  0  0  0  0  0
  191.9780  177.6020  145.2780 N   0  0  0  0  0  2  0  0  0  0  0  0
  191.2760  176.6560  144.4140 C   0  0  0  0  0  2  0  0  0  0  0  0
  1  2  1  0  0  0  0
  2 13  1  0  0  0  0
  2 22  1  0  0  0  0
  3  8  2  0  0  0  0
  3 10  1  0  0  0  0
  4  9  1  0  0  0  0
  4  1  1  0  0  0  0
  5  7  1  0  0  0  0
  6  9  1  0  0  0  0
  6  5  2  0  0  0  0
  7 13  1  0  0  0  0
  8  6  1  0  0  0  0
  9  1  1  0  0  0  0
 10 11  2  0  0  0  0
 11  5  1  0  0  0  0
 12  4  1  0  0  0  0
 13 31  1  0  0  0  0
 14 15  2  0  0  0  0
 14  8  1  0  0  0  0
 15 12  1  0  0  0  0
 16 18  2  0  0  0  0
 17 21  2  0  0  0  0
 17 18  1  0  0  0  0
 18 20  1  0  0  0  0
 19 20  2  0  0  0  0
 20 10  1  0  0  0  0
 21 19  1  0  0  0  0
 22 25  1  0  0  0  0
 23 22  2  0  0  0  0
 23 26  1  0  0  0  0
 25 24  2  0  0  0  0
 26 27  2  0  0  0  0
 27 24  1  0  0  0  0
 27 30  1  0  0  0  0
 29 30  1  0  0  0  0
 30 28  1  0  0  0  0
 31 33  1  0  0  0  0
 33 37  1  0  0  0  0
 34 33  1  0  0  0  0
 34 35  2  0  0  0  0
 35 32  1  0  0  0  0
 36 32  1  0  0  0  0
 37 36  1  0  0  0  0
M  END
>  <MODEL>
7

>  <REMARK>
 VINA RESULT:      -6.4      2.766      9.117
  Name = 
  5 active torsions:
  status: ('A' for Active; 'I' for Inactive)
    1  A    between atoms: C_4  and  C_13
    2  A    between atoms: C_14  and  C_24
    3  A    between atoms: C_16  and  C_22
    4  A    between atoms: C_16  and  C_29
    5  A    between atoms: N_26  and  C_37
                            x       y       z     vdW  Elec       q    Type
                         _______ _______ _______ _____ _____    ______ ____

>  <TORSDO>
F 5

$$$$
=
 OpenBabel10232411563D

 37 43  0  0  1  0  0  0  0  0999 V2000
  188.6850  174.1550  137.1280 N   0  0  2  0  0  0  0  0  0  0  0  0
  189.0730  175.5050  136.7210 C   0  0  1  0  0  3  0  0  0  0  0  0
  184.0490  175.2080  135.7460 N   0  0  0  0  0  0  0  0  0  0  0  0
  187.8250  173.5850  136.0870 C   0  0  2  0  0  3  0  0  0  0  0  0
  186.2290  176.3910  136.9870 C   0  0  0  0  0  0  0  0  0  0  0  0
  186.2070  175.0000  136.7650 C   0  0  0  0  0  0  0  0  0  0  0  0
  187.3610  177.0800  137.5380 N   0  0  0  0  0  2  0  0  0  0  0  0
  185.0940  174.4140  136.1030 C   0  0  0  0  0  0  0  0  0  0  0  0
  187.2200  174.0630  137.3300 C   0  0  2  0  0  3  0  0  0  0  0  0
  184.0310  176.5460  135.9820 C   0  0  0  0  0  0  0  0  0  0  0  0
  185.1310  177.1560  136.5940 C   0  0  0  0  0  3  0  0  0  0  0  0
  187.4250  172.1380  136.1740 C   0  0  0  0  0  2  0  0  0  0  0  0
  188.6780  176.5150  137.8230 C   0  0  2  0  0  3  0  0  0  0  0  0
  185.0100  172.9600  135.7350 C   0  0  0  0  0  3  0  0  0  0  0  0
  185.9720  172.0020  135.7480 C   0  0  0  0  0  3  0  0  0  0  0  0
  181.9140  178.0460  137.6860 O   0  0  0  0  0  0  0  0  0  0  0  0
  180.9690  178.6790  135.6090 N   0  0  0  0  0  0  0  0  0  0  0  0
  181.9210  178.0250  136.4270 C   0  0  0  0  0  0  0  0  0  0  0  0
  182.5310  177.5710  134.3460 N   0  0  0  0  0  0  0  0  0  0  0  0
  182.8690  177.3520  135.5730 C   0  0  0  0  0  0  0  0  0  0  0  0
  181.3540  178.3940  134.4020 C   0  0  0  0  0  3  0  0  0  0  0  0
  190.5320  175.5140  136.3560 C   0  0  0  0  0  0  0  0  0  0  0  0
  190.9350  176.1320  135.1690 C   0  0  0  0  0  3  0  0  0  0  0  0
  192.8430  174.9600  136.8410 C   0  0  0  0  0  3  0  0  0  0  0  0
  191.4910  174.9280  137.1930 C   0  0  0  0  0  3  0  0  0  0  0  0
  192.2860  176.1630  134.8180 C   0  0  0  0  0  3  0  0  0  0  0  0
  193.2560  175.5770  135.6490 C   0  0  0  0  0  0  0  0  0  0  0  0
  195.4150  174.3850  135.1170 C   0  0  0  0  0  1  0  0  0  0  0  0
  195.3430  176.8720  135.0740 C   0  0  0  0  0  1  0  0  0  0  0  0
  194.6490  175.6110  135.2860 N   0  0  0  0  0  0  0  0  0  0  0  0
  189.6700  177.6640  138.0060 C   0  0  0  0  0  2  0  0  0  0  0  0
  188.9730  176.9130  142.0300 C   0  0  0  0  0  2  0  0  0  0  0  0
  189.9040  177.9550  139.4790 C   0  0  1  0  0  3  0  0  0  0  0  0
  188.6390  178.4640  140.1280 C   0  0  0  0  0  3  0  0  0  0  0  0
  188.2320  178.0200  141.3250 C   0  0  0  0  0  3  0  0  0  0  0  0
  190.3790  176.8810  141.6250 N   0  0  0  0  0  2  0  0  0  0  0  0
  190.4230  176.6960  140.1760 C   0  0  0  0  0  2  0  0  0  0  0  0
  1  9  1  0  0  0  0
  2  1  1  0  0  0  0
  2 13  1  0  0  0  0
  3 10  2  0  0  0  0
  3  8  1  0  0  0  0
  4 12  1  0  0  0  0
  4  1  1  0  0  0  0
  4  9  1  0  0  0  0
  5  7  1  0  0  0  0
  6  5  1  0  0  0  0
  6  9  1  0  0  0  0
  7 13  1  0  0  0  0
  8  6  2  0  0  0  0
 10 11  1  0  0  0  0
 11  5  2  0  0  0  0
 13 31  1  0  0  0  0
 14 15  2  0  0  0  0
 14  8  1  0  0  0  0
 15 12  1  0  0  0  0
 17 18  1  0  0  0  0
 18 16  2  0  0  0  0
 19 21  1  0  0  0  0
 19 20  2  0  0  0  0
 20 10  1  0  0  0  0
 20 18  1  0  0  0  0
 21 17  2  0  0  0  0
 22  2  1  0  0  0  0
 22 25  1  0  0  0  0
 23 22  2  0  0  0  0
 24 25  2  0  0  0  0
 26 23  1  0  0  0  0
 26 27  2  0  0  0  0
 27 24  1  0  0  0  0
 28 30  1  0  0  0  0
 29 30  1  0  0  0  0
 30 27  1  0  0  0  0
 31 33  1  0  0  0  0
 33 34  1  0  0  0  0
 33 37  1  0  0  0  0
 34 35  2  0  0  0  0
 35 32  1  0  0  0  0
 36 32  1  0  0  0  0
 37 36  1  0  0  0  0
M  END
>  <MODEL>
8

>  <REMARK>
 VINA RESULT:      -6.0      3.244      6.308
  Name = 
  5 active torsions:
  status: ('A' for Active; 'I' for Inactive)
    1  A    between atoms: C_4  and  C_13
    2  A    between atoms: C_14  and  C_24
    3  A    between atoms: C_16  and  C_22
    4  A    between atoms: C_16  and  C_29
    5  A    between atoms: N_26  and  C_37
                            x       y       z     vdW  Elec       q    Type
                         _______ _______ _______ _____ _____    ______ ____

>  <TORSDO>
F 5

$$$$
