=
 OpenBabel10232408473D

 55 60  0  0  1  0  0  0  0  0999 V2000
  190.6600  177.2700  142.5840 C   0  0  0  0  0  0  0  0  0  0  0  0
  187.9200  177.8270  142.0670 C   0  0  0  0  0  3  0  0  0  0  0  0
  191.2500  176.5980  147.1630 S   0  0  0  0  0  0  0  0  0  0  0  0
  187.4400  177.7890  144.5490 C   0  0  0  0  0  0  0  0  0  0  0  0
  189.1500  177.1960  146.0830 C   0  0  0  0  0  0  0  0  0  0  0  0
  189.7150  177.3570  143.7280 C   0  0  0  0  0  0  0  0  0  0  0  0
  189.6140  176.9350  147.3640 C   0  0  0  0  0  3  0  0  0  0  0  0
  190.2600  177.7810  141.2320 C   0  0  0  0  0  2  0  0  0  0  0  0
  187.8650  177.5290  145.8180 N   0  0  0  0  0  0  0  0  0  0  0  0
  190.1010  177.1110  145.0570 C   0  0  0  0  0  0  0  0  0  0  0  0
  188.3630  177.6840  143.4680 C   0  0  0  0  0  0  0  0  0  0  0  0
  188.7710  177.8400  141.0360 C   0  0  0  0  0  0  0  0  0  0  0  0
  191.3800  176.7760  145.4940 C   0  0  0  0  0  3  0  0  0  0  0  0
  191.8210  176.8050  142.7320 O   0  0  0  0  0  0  0  0  0  0  0  0
  184.0910  178.4460  142.9290 C   0  0  0  0  0  0  0  0  0  0  0  0
  185.4410  178.1280  143.0960 C   0  0  0  0  0  3  0  0  0  0  0  0
  183.8730  178.8680  145.2550 C   0  0  0  0  0  3  0  0  0  0  0  0
  183.3390  178.8000  144.0080 N   0  0  0  0  0  0  0  0  0  0  0  0
  185.2210  178.5650  145.4570 C   0  0  0  0  0  3  0  0  0  0  0  0
  186.0230  178.2000  144.3690 C   0  0  0  0  0  0  0  0  0  0  0  0
  180.5130  176.9010  138.7460 Cl  0  0  0  0  0  0  0  0  0  0  0  0
  182.0330  178.7400  141.6270 C   0  0  0  0  0  3  0  0  0  0  0  0
  183.4770  178.3390  141.5710 C   0  0  1  0  0  3  0  0  0  0  0  0
  182.9610  178.1000  138.7430 C   0  0  1  0  0  3  0  0  0  0  0  0
  183.9590  179.0920  139.2760 C   0  0  0  0  0  3  0  0  0  0  0  0
  181.4920  178.3360  139.1470 C   0  0  2  0  0  3  0  0  0  0  0  0
  181.1970  178.7420  140.5750 C   0  0  0  0  0  3  0  0  0  0  0  0
  184.2120  179.1920  140.5820 C   0  0  0  0  0  3  0  0  0  0  0  0
  183.1320  177.8760  137.3000 N   0  0  0  0  0  2  0  0  0  0  0  0
  184.1580  176.4770  136.9390 P   0  0  2  0  0  0  0  0  0  0  0  0
  185.5540  176.7400  137.4700 O   0  0  0  0  0  0  0  0  0  0  0  0
  184.2320  176.2820  135.2520 O   0  0  0  0  0  0  0  0  0  0  0  0
  185.2000  177.1840  134.8050 C   0  0  0  0  0  1  0  0  0  0  0  0
  183.5460  175.0730  137.6870 O   0  0  0  0  0  0  0  0  0  0  0  0
  182.3640  174.3990  136.6610 P   0  0  0  0  0  0  0  0  0  0  0  0
  181.5490  175.5880  135.7720 O   0  0  0  0  0  1  0  0  0  0  0  0
  183.0080  173.4140  135.7120 O   0  0  0  0  0  0  0  0  0  0  0  0
  181.2370  173.5720  137.6130 O   0  0  0  0  0  1  0  0  0  0  0  0
  188.2460  177.9480  139.6440 C   0  0  0  0  0  2  0  0  0  0  0  0
  189.2970  178.5150  138.7020 C   0  0  0  0  0  2  0  0  0  0  0  0
  190.1350  176.4210  137.5800 N   0  0  0  0  0  2  0  0  0  0  0  0
  189.4120  177.6510  137.4960 C   0  0  0  0  0  0  0  0  0  0  0  0
  188.8600  178.0000  136.4170 O   0  0  0  0  0  0  0  0  0  0  0  0
  190.2350  175.4870  136.4670 C   0  0  1  0  0  3  0  0  0  0  0  0
  191.6220  176.2920  135.0350 O   0  0  0  0  0  1  0  0  0  0  0  0
  191.5570  175.4190  136.0180 O   0  0  0  0  0  0  0  0  0  0  0  0
  189.7430  174.1090  136.9080 C   0  0  2  0  0  3  0  0  0  0  0  0
  190.8340  173.2550  137.1080 O   0  0  0  0  0  1  0  0  0  0  0  0
  188.1090  172.2100  136.3420 C   0  0  2  0  0  3  0  0  0  0  0  0
  188.7790  173.5070  135.8810 C   0  0  1  0  0  3  0  0  0  0  0  0
  186.7630  172.3010  135.7300 C   0  0  0  0  0  0  0  0  0  0  0  0
  187.6520  174.4740  135.5110 C   0  0  0  0  0  2  0  0  0  0  0  0
  187.9690  172.1700  137.7190 F   0  0  0  0  0  0  0  0  0  0  0  0
  185.9740  171.3690  135.7200 O   0  0  0  0  0  0  0  0  0  0  0  0
  186.4560  173.6180  135.1260 C   0  0  0  0  0  2  0  0  0  0  0  0
  1 14  2  0  0  0  0
  1  6  1  0  0  0  0
  2 11  1  0  0  0  0
  3  7  1  0  0  0  0
  4  9  2  0  0  0  0
  5  7  2  0  0  0  0
  6 10  1  0  0  0  0
  8  1  1  0  0  0  0
  9  5  1  0  0  0  0
 10 13  2  0  0  0  0
 10  5  1  0  0  0  0
 11  6  2  0  0  0  0
 11  4  1  0  0  0  0
 12  8  1  0  0  0  0
 12  2  2  0  0  0  0
 13  3  1  0  0  0  0
 15 16  2  0  0  0  0
 15 18  1  0  0  0  0
 16 20  1  0  0  0  0
 17 19  1  0  0  0  0
 18 17  2  0  0  0  0
 20  4  1  0  0  0  0
 20 19  2  0  0  0  0
 23 22  1  0  0  0  0
 23 15  1  1  0  0  0
 24 29  1  6  0  0  0
 24 26  1  0  0  0  0
 24 25  1  0  0  0  0
 25 28  2  0  0  0  0
 26 21  1  1  0  0  0
 26 27  1  0  0  0  0
 27 22  2  0  0  0  0
 28 23  1  0  0  0  0
 30 29  1  0  0  0  0
 30 31  2  1  0  0  0
 30 34  1  0  0  0  0
 32 30  1  0  0  0  0
 33 32  1  0  0  0  0
 35 38  1  0  0  0  0
 35 34  1  0  0  0  0
 36 35  1  0  0  0  0
 37 35  2  0  0  0  0
 39 12  1  0  0  0  0
 40 39  1  0  0  0  0
 42 41  1  0  0  0  0
 42 40  1  0  0  0  0
 43 42  2  0  0  0  0
 44 46  1  1  0  0  0
 44 47  1  0  0  0  0
 44 41  1  0  0  0  0
 45 46  1  0  0  0  0
 47 48  1  6  0  0  0
 49 53  1  1  0  0  0
 50 49  1  0  0  0  0
 50 47  1  1  0  0  0
 51 49  1  0  0  0  0
 52 50  1  0  0  0  0
 54 51  2  0  0  0  0
 55 52  1  0  0  0  0
 55 51  1  0  0  0  0
M  END
>  <MODEL>
1

>  <REMARK>
 VINA RESULT:      -9.0      0.000      0.000
  Name = 
  14 active torsions:
  status: ('A' for Active; 'I' for Inactive)
    1  A    between atoms: C_2  and  C_28
    2  A    between atoms: C_4  and  C_27
    3  A    between atoms: C_4  and  C_44
    4  A    between atoms: C_6  and  C_20
    5  A    between atoms: C_6  and  C_31
    6  A    between atoms: O_7  and  P_17
    7  A    between atoms: N_10  and  P_17
    8  A    between atoms: N_10  and  C_29
    9  A    between atoms: O_13  and  P_17
   10  A    between atoms: O_13  and  P_18
   11  A    between atoms: C_14  and  C_49
   12  A    between atoms: C_20  and  N_25
   13  A    between atoms: C_20  and  O_53
   14  A    between atoms: C_27  and  C_46
                            x       y       z     vdW  Elec       q    Type
                         _______ _______ _______ _____ _____    ______ ____

>  <TORSDO>
F 14

$$$$
=
 OpenBabel10232408473D

 55 60  0  0  1  0  0  0  0  0999 V2000
  190.6960  177.1060  142.7640 C   0  0  0  0  0  0  0  0  0  0  0  0
  187.9670  177.6540  142.1820 C   0  0  0  0  0  3  0  0  0  0  0  0
  191.2220  176.6660  147.3790 S   0  0  0  0  0  0  0  0  0  0  0  0
  187.4550  177.7470  144.6560 C   0  0  0  0  0  0  0  0  0  0  0  0
  189.1400  177.2210  146.2420 C   0  0  0  0  0  0  0  0  0  0  0  0
  189.7370  177.2580  143.8880 C   0  0  0  0  0  0  0  0  0  0  0  0
  189.5850  177.0230  147.5400 C   0  0  0  0  0  3  0  0  0  0  0  0
  190.3180  177.5500  141.3820 C   0  0  0  0  0  2  0  0  0  0  0  0
  187.8620  177.5490  145.9430 N   0  0  0  0  0  0  0  0  0  0  0  0
  190.1040  177.0780  145.2340 C   0  0  0  0  0  0  0  0  0  0  0  0
  188.3910  177.5810  143.5950 C   0  0  0  0  0  0  0  0  0  0  0  0
  188.8320  177.6090  141.1630 C   0  0  0  0  0  0  0  0  0  0  0  0
  191.3750  176.7570  145.7040 C   0  0  0  0  0  3  0  0  0  0  0  0
  191.8520  176.6420  142.9500 O   0  0  0  0  0  0  0  0  0  0  0  0
  184.1490  178.3920  142.9460 C   0  0  0  0  0  0  0  0  0  0  0  0
  185.4930  178.0750  143.1500 C   0  0  0  0  0  3  0  0  0  0  0  0
  183.8730  178.8370  145.2620 C   0  0  0  0  0  3  0  0  0  0  0  0
  183.3700  178.7570  144.0020 N   0  0  0  0  0  0  0  0  0  0  0  0
  185.2150  178.5340  145.5000 C   0  0  0  0  0  3  0  0  0  0  0  0
  186.0440  178.1570  144.4370 C   0  0  0  0  0  0  0  0  0  0  0  0
  180.5780  176.9600  138.7170 Cl  0  0  0  0  0  0  0  0  0  0  0  0
  182.1650  178.7980  141.5620 C   0  0  0  0  0  3  0  0  0  0  0  0
  183.5690  178.2730  141.5740 C   0  0  1  0  0  3  0  0  0  0  0  0
  183.1210  177.9430  138.7430 C   0  0  1  0  0  3  0  0  0  0  0  0
  184.1840  178.8710  139.2650 C   0  0  0  0  0  3  0  0  0  0  0  0
  181.6650  178.3230  139.0860 C   0  0  2  0  0  3  0  0  0  0  0  0
  181.3650  178.8210  140.4830 C   0  0  0  0  0  3  0  0  0  0  0  0
  184.4050  179.0110  140.5730 C   0  0  0  0  0  3  0  0  0  0  0  0
  183.3150  177.6360  137.3190 N   0  0  0  0  0  2  0  0  0  0  0  0
  184.0220  176.0330  137.0520 P   0  0  2  0  0  0  0  0  0  0  0  0
  183.6820  175.1420  138.2300 O   0  0  0  0  0  0  0  0  0  0  0  0
  185.7100  176.1980  136.9470 O   0  0  0  0  0  0  0  0  0  0  0  0
  185.9650  176.7220  135.6790 C   0  0  0  0  0  1  0  0  0  0  0  0
  183.3900  175.3260  135.6340 O   0  0  0  0  0  0  0  0  0  0  0  0
  183.4480  173.6330  135.8150 P   0  0  0  0  0  0  0  0  0  0  0  0
  182.2640  173.0720  136.8880 O   0  0  0  0  0  1  0  0  0  0  0  0
  183.2650  172.9660  134.4710 O   0  0  0  0  0  0  0  0  0  0  0  0
  184.9690  173.2120  136.4240 O   0  0  0  0  0  1  0  0  0  0  0  0
  188.3260  177.6490  139.7600 C   0  0  0  0  0  2  0  0  0  0  0  0
  189.2910  178.3900  138.8480 C   0  0  0  0  0  2  0  0  0  0  0  0
  190.0340  176.2510  137.7450 N   0  0  0  0  0  2  0  0  0  0  0  0
  189.5430  177.5870  137.6210 C   0  0  0  0  0  0  0  0  0  0  0  0
  189.3060  178.0830  136.4860 O   0  0  0  0  0  0  0  0  0  0  0  0
  190.2400  175.3770  136.5990 C   0  0  1  0  0  3  0  0  0  0  0  0
  188.8730  173.8860  135.8720 O   0  0  0  0  0  1  0  0  0  0  0  0
  189.0350  175.1910  135.9160 O   0  0  0  0  0  0  0  0  0  0  0  0
  191.2960  175.9830  135.6750 C   0  0  2  0  0  3  0  0  0  0  0  0
  190.8480  175.9430  134.3490 O   0  0  0  0  0  1  0  0  0  0  0  0
  193.7220  176.0630  136.5160 C   0  0  2  0  0  3  0  0  0  0  0  0
  192.6360  175.2510  135.8040 C   0  0  1  0  0  3  0  0  0  0  0  0
  194.4790  175.0240  137.2510 C   0  0  0  0  0  0  0  0  0  0  0  0
  192.5010  173.9340  136.5710 C   0  0  0  0  0  2  0  0  0  0  0  0
  193.1790  176.9480  137.4330 F   0  0  0  0  0  0  0  0  0  0  0  0
  195.5410  175.2470  137.8100 O   0  0  0  0  0  0  0  0  0  0  0  0
  193.8410  173.6870  137.2450 C   0  0  0  0  0  2  0  0  0  0  0  0
  1 14  2  0  0  0  0
  1  6  1  0  0  0  0
  2 11  1  0  0  0  0
  3  7  1  0  0  0  0
  4  9  2  0  0  0  0
  5  7  2  0  0  0  0
  6 10  1  0  0  0  0
  8  1  1  0  0  0  0
  9  5  1  0  0  0  0
 10 13  2  0  0  0  0
 10  5  1  0  0  0  0
 11  6  2  0  0  0  0
 11  4  1  0  0  0  0
 12  8  1  0  0  0  0
 12  2  2  0  0  0  0
 13  3  1  0  0  0  0
 15 16  2  0  0  0  0
 15 18  1  0  0  0  0
 16 20  1  0  0  0  0
 17 19  1  0  0  0  0
 18 17  2  0  0  0  0
 20  4  1  0  0  0  0
 20 19  2  0  0  0  0
 22 23  1  0  0  0  0
 23 15  1  1  0  0  0
 24 29  1  6  0  0  0
 24 26  1  0  0  0  0
 24 25  1  0  0  0  0
 25 28  2  0  0  0  0
 26 21  1  1  0  0  0
 26 27  1  0  0  0  0
 27 22  2  0  0  0  0
 28 23  1  0  0  0  0
 30 29  1  0  0  0  0
 30 31  2  1  0  0  0
 32 30  1  0  0  0  0
 33 32  1  0  0  0  0
 34 35  1  0  0  0  0
 34 30  1  0  0  0  0
 35 38  1  0  0  0  0
 35 36  1  0  0  0  0
 37 35  2  0  0  0  0
 39 12  1  0  0  0  0
 40 39  1  0  0  0  0
 42 41  1  0  0  0  0
 42 40  1  0  0  0  0
 43 42  2  0  0  0  0
 44 46  1  6  0  0  0
 44 41  1  0  0  0  0
 45 46  1  0  0  0  0
 47 48  1  6  0  0  0
 47 44  1  0  0  0  0
 49 51  1  0  0  0  0
 49 53  1  1  0  0  0
 50 47  1  1  0  0  0
 50 49  1  0  0  0  0
 50 52  1  0  0  0  0
 51 54  2  0  0  0  0
 52 55  1  0  0  0  0
 55 51  1  0  0  0  0
M  END
>  <MODEL>
2

>  <REMARK>
 VINA RESULT:      -9.0      1.722      2.919
  Name = 
  14 active torsions:
  status: ('A' for Active; 'I' for Inactive)
    1  A    between atoms: C_2  and  C_28
    2  A    between atoms: C_4  and  C_27
    3  A    between atoms: C_4  and  C_44
    4  A    between atoms: C_6  and  C_20
    5  A    between atoms: C_6  and  C_31
    6  A    between atoms: O_7  and  P_17
    7  A    between atoms: N_10  and  P_17
    8  A    between atoms: N_10  and  C_29
    9  A    between atoms: O_13  and  P_17
   10  A    between atoms: O_13  and  P_18
   11  A    between atoms: C_14  and  C_49
   12  A    between atoms: C_20  and  N_25
   13  A    between atoms: C_20  and  O_53
   14  A    between atoms: C_27  and  C_46
                            x       y       z     vdW  Elec       q    Type
                         _______ _______ _______ _____ _____    ______ ____

>  <TORSDO>
F 14

$$$$
=
 OpenBabel10232408473D

 55 60  0  0  1  0  0  0  0  0999 V2000
  187.1060  177.6520  146.0100 C   0  0  0  0  0  0  0  0  0  0  0  0
  186.9160  178.0490  143.2010 C   0  0  0  0  0  3  0  0  0  0  0  0
  191.4880  176.4790  147.1010 S   0  0  0  0  0  0  0  0  0  0  0  0
  189.3250  177.3280  142.9330 C   0  0  0  0  0  0  0  0  0  0  0  0
  190.6510  176.8710  144.8470 C   0  0  0  0  0  0  0  0  0  0  0  0
  188.3060  177.4150  145.1670 C   0  0  0  0  0  0  0  0  0  0  0  0
  191.8490  176.5310  145.4580 C   0  0  0  0  0  3  0  0  0  0  0  0
  185.7510  177.7770  145.3790 C   0  0  0  0  0  2  0  0  0  0  0  0
  190.5180  177.0010  143.5060 N   0  0  0  0  0  0  0  0  0  0  0  0
  189.5580  177.0630  145.7030 C   0  0  0  0  0  0  0  0  0  0  0  0
  188.1930  177.5650  143.7650 C   0  0  0  0  0  0  0  0  0  0  0  0
  185.8050  178.1810  143.9320 C   0  0  0  0  0  0  0  0  0  0  0  0
  189.8520  176.8760  147.0510 C   0  0  0  0  0  3  0  0  0  0  0  0
  187.1920  177.7150  147.2650 O   0  0  0  0  0  0  0  0  0  0  0  0
  190.1700  176.7290  139.3000 C   0  0  0  0  0  0  0  0  0  0  0  0
  190.2510  176.7340  140.6950 C   0  0  0  0  0  3  0  0  0  0  0  0
  188.1540  177.9800  139.3850 C   0  0  0  0  0  3  0  0  0  0  0  0
  189.1240  177.3430  138.6800 N   0  0  0  0  0  0  0  0  0  0  0  0
  188.2080  178.0100  140.7790 C   0  0  0  0  0  3  0  0  0  0  0  0
  189.2700  177.3920  141.4500 C   0  0  0  0  0  0  0  0  0  0  0  0
  192.8650  172.4880  136.5720 Cl  0  0  0  0  0  0  0  0  0  0  0  0
  190.5810  175.3580  137.3080 C   0  0  0  0  0  3  0  0  0  0  0  0
  191.2080  176.0000  138.5100 C   0  0  1  0  0  3  0  0  0  0  0  0
  193.6530  174.9710  137.3770 C   0  0  1  0  0  3  0  0  0  0  0  0
  193.4300  176.4490  137.5460 C   0  0  0  0  0  3  0  0  0  0  0  0
  192.7120  174.2540  136.3870 C   0  0  2  0  0  3  0  0  0  0  0  0
  191.2430  174.6200  136.4020 C   0  0  0  0  0  3  0  0  0  0  0  0
  192.3070  176.9260  138.0860 C   0  0  0  0  0  3  0  0  0  0  0  0
  195.0710  174.6550  137.1540 N   0  0  0  0  0  2  0  0  0  0  0  0
  195.8820  174.0640  138.6150 P   0  0  2  0  0  0  0  0  0  0  0  0
  195.1920  172.7980  139.0830 O   0  0  0  0  0  0  0  0  0  0  0  0
  195.7480  175.2510  139.8240 O   0  0  0  0  0  0  0  0  0  0  0  0
  196.9540  175.2190  140.5270 C   0  0  0  0  0  1  0  0  0  0  0  0
  197.5170  173.7060  138.2920 O   0  0  0  0  0  0  0  0  0  0  0  0
  197.5880  172.8120  136.8430 P   0  0  0  0  0  0  0  0  0  0  0  0
  198.9430  171.7970  136.7940 O   0  0  0  0  0  1  0  0  0  0  0  0
  196.3330  171.9820  136.6900 O   0  0  0  0  0  1  0  0  0  0  0  0
  197.6800  173.8960  135.5490 O   0  0  0  0  0  0  0  0  0  0  0  0
  184.5630  178.7150  143.3020 C   0  0  0  0  0  2  0  0  0  0  0  0
  184.7920  179.0600  141.8390 C   0  0  0  0  0  2  0  0  0  0  0  0
  182.9090  179.3290  140.1880 N   0  0  0  0  0  2  0  0  0  0  0  0
  183.7080  178.4720  141.0050 C   0  0  0  0  0  0  0  0  0  0  0  0
  183.5150  177.2260  141.0120 O   0  0  0  0  0  0  0  0  0  0  0  0
  181.8760  178.8270  139.2920 C   0  0  1  0  0  3  0  0  0  0  0  0
  180.1920  179.1010  140.6010 O   0  0  0  0  0  1  0  0  0  0  0  0
  180.6940  179.5520  139.4700 O   0  0  0  0  0  0  0  0  0  0  0  0
  182.3590  178.9290  137.8460 C   0  0  2  0  0  3  0  0  0  0  0  0
  181.4020  179.5950  137.0700 O   0  0  0  0  0  1  0  0  0  0  0  0
  184.1390  177.2350  137.1000 C   0  0  2  0  0  3  0  0  0  0  0  0
  182.6480  177.5450  137.2560 C   0  0  1  0  0  3  0  0  0  0  0  0
  184.2020  175.7800  137.3730 C   0  0  0  0  0  0  0  0  0  0  0  0
  182.0550  176.4210  138.1070 C   0  0  0  0  0  2  0  0  0  0  0  0
  184.9010  177.8980  138.0490 F   0  0  0  0  0  0  0  0  0  0  0  0
  185.2050  175.1110  137.1780 O   0  0  0  0  0  0  0  0  0  0  0  0
  182.9430  175.2050  137.8980 C   0  0  0  0  0  2  0  0  0  0  0  0
  1 14  2  0  0  0  0
  2 11  1  0  0  0  0
  2 12  2  0  0  0  0
  4  9  2  0  0  0  0
  4 11  1  0  0  0  0
  5  7  2  0  0  0  0
  5 10  1  0  0  0  0
  6 10  1  0  0  0  0
  6  1  1  0  0  0  0
  7  3  1  0  0  0  0
  8  1  1  0  0  0  0
  9  5  1  0  0  0  0
 10 13  2  0  0  0  0
 11  6  2  0  0  0  0
 12  8  1  0  0  0  0
 13  3  1  0  0  0  0
 15 16  1  0  0  0  0
 16 20  2  0  0  0  0
 17 19  2  0  0  0  0
 18 15  2  0  0  0  0
 18 17  1  0  0  0  0
 19 20  1  0  0  0  0
 20  4  1  0  0  0  0
 22 23  1  0  0  0  0
 23 15  1  6  0  0  0
 24 29  1  6  0  0  0
 24 25  1  0  0  0  0
 25 28  2  0  0  0  0
 26 27  1  0  0  0  0
 26 21  1  1  0  0  0
 26 24  1  0  0  0  0
 27 22  2  0  0  0  0
 28 23  1  0  0  0  0
 29 30  1  0  0  0  0
 30 31  2  1  0  0  0
 30 32  1  0  0  0  0
 32 33  1  0  0  0  0
 34 30  1  0  0  0  0
 35 34  1  0  0  0  0
 36 35  1  0  0  0  0
 37 35  1  0  0  0  0
 38 35  2  0  0  0  0
 39 12  1  0  0  0  0
 40 39  1  0  0  0  0
 41 42  1  0  0  0  0
 42 43  2  0  0  0  0
 42 40  1  0  0  0  0
 44 46  1  6  0  0  0
 44 41  1  0  0  0  0
 46 45  1  0  0  0  0
 47 48  1  6  0  0  0
 47 44  1  0  0  0  0
 49 50  1  0  0  0  0
 49 51  1  0  0  0  0
 49 53  1  1  0  0  0
 50 47  1  1  0  0  0
 50 52  1  0  0  0  0
 51 55  1  0  0  0  0
 54 51  2  0  0  0  0
 55 52  1  0  0  0  0
M  END
>  <MODEL>
3

>  <REMARK>
 VINA RESULT:      -8.9      4.551      8.926
  Name = 
  14 active torsions:
  status: ('A' for Active; 'I' for Inactive)
    1  A    between atoms: C_2  and  C_28
    2  A    between atoms: C_4  and  C_27
    3  A    between atoms: C_4  and  C_44
    4  A    between atoms: C_6  and  C_20
    5  A    between atoms: C_6  and  C_31
    6  A    between atoms: O_7  and  P_17
    7  A    between atoms: N_10  and  P_17
    8  A    between atoms: N_10  and  C_29
    9  A    between atoms: O_13  and  P_17
   10  A    between atoms: O_13  and  P_18
   11  A    between atoms: C_14  and  C_49
   12  A    between atoms: C_20  and  N_25
   13  A    between atoms: C_20  and  O_53
   14  A    between atoms: C_27  and  C_46
                            x       y       z     vdW  Elec       q    Type
                         _______ _______ _______ _____ _____    ______ ____

>  <TORSDO>
F 14

$$$$
=
 OpenBabel10232408473D

 55 60  0  0  1  0  0  0  0  0999 V2000
  190.7180  177.2950  142.6150 C   0  0  0  0  0  0  0  0  0  0  0  0
  187.9850  177.8580  142.0680 C   0  0  0  0  0  3  0  0  0  0  0  0
  191.2430  176.5470  147.1900 S   0  0  0  0  0  0  0  0  0  0  0  0
  187.4700  177.7780  144.5420 C   0  0  0  0  0  0  0  0  0  0  0  0
  189.1580  177.1610  146.0910 C   0  0  0  0  0  0  0  0  0  0  0  0
  189.7560  177.3620  143.7460 C   0  0  0  0  0  0  0  0  0  0  0  0
  189.6030  176.8780  147.3730 C   0  0  0  0  0  3  0  0  0  0  0  0
  190.3370  177.8290  141.2660 C   0  0  0  0  0  2  0  0  0  0  0  0
  187.8770  177.4970  145.8130 N   0  0  0  0  0  0  0  0  0  0  0  0
  190.1240  177.0940  145.0770 C   0  0  0  0  0  0  0  0  0  0  0  0
  188.4080  177.6920  143.4730 C   0  0  0  0  0  0  0  0  0  0  0  0
  188.8510  177.8890  141.0500 C   0  0  0  0  0  0  0  0  0  0  0  0
  191.3970  176.7530  145.5260 C   0  0  0  0  0  3  0  0  0  0  0  0
  191.8770  176.8290  142.7720 O   0  0  0  0  0  0  0  0  0  0  0  0
  184.1420  178.4550  142.8870 C   0  0  0  0  0  0  0  0  0  0  0  0
  185.4900  178.1360  143.0680 C   0  0  0  0  0  3  0  0  0  0  0  0
  183.8930  178.8460  145.2150 C   0  0  0  0  0  3  0  0  0  0  0  0
  183.3760  178.7950  143.9600 N   0  0  0  0  0  0  0  0  0  0  0  0
  185.2380  178.5400  145.4300 C   0  0  0  0  0  3  0  0  0  0  0  0
  186.0550  178.1900  144.3490 C   0  0  0  0  0  0  0  0  0  0  0  0
  180.4570  177.2350  138.6890 Cl  0  0  0  0  0  0  0  0  0  0  0  0
  182.1790  178.9820  141.5140 C   0  0  0  0  0  3  0  0  0  0  0  0
  183.5460  178.3670  141.5190 C   0  0  1  0  0  3  0  0  0  0  0  0
  183.0580  178.0520  138.6930 C   0  0  1  0  0  3  0  0  0  0  0  0
  184.1830  178.9120  139.2030 C   0  0  0  0  0  3  0  0  0  0  0  0
  181.6330  178.5270  139.0430 C   0  0  2  0  0  3  0  0  0  0  0  0
  181.3740  179.0510  140.4400 C   0  0  0  0  0  3  0  0  0  0  0  0
  184.4210  179.0450  140.5080 C   0  0  0  0  0  3  0  0  0  0  0  0
  183.2220  177.7260  137.2700 N   0  0  0  0  0  2  0  0  0  0  0  0
  183.7390  176.0520  137.0040 P   0  0  2  0  0  0  0  0  0  0  0  0
  183.1660  175.5630  135.6890 O   0  0  0  0  0  0  0  0  0  0  0  0
  183.1320  175.0920  138.2680 O   0  0  0  0  0  0  0  0  0  0  0  0
  182.1580  174.2720  137.6920 C   0  0  0  0  0  1  0  0  0  0  0  0
  185.4400  175.9530  136.9270 O   0  0  0  0  0  0  0  0  0  0  0  0
  185.9690  176.9200  135.6270 P   0  0  0  0  0  0  0  0  0  0  0  0
  184.6850  177.3900  134.6270 O   0  0  0  0  0  0  0  0  0  0  0  0
  186.6700  178.1520  136.1560 O   0  0  0  0  0  1  0  0  0  0  0  0
  187.0690  176.0250  134.7070 O   0  0  0  0  0  1  0  0  0  0  0  0
  188.3460  178.0200  139.6520 C   0  0  0  0  0  2  0  0  0  0  0  0
  189.4900  178.0140  138.6510 C   0  0  0  0  0  2  0  0  0  0  0  0
  190.2920  176.6630  136.6820 N   0  0  0  0  0  2  0  0  0  0  0  0
  189.4040  176.8010  137.7930 C   0  0  0  0  0  0  0  0  0  0  0  0
  188.5640  175.9000  138.0610 O   0  0  0  0  0  0  0  0  0  0  0  0
  190.3190  175.4770  135.8370 C   0  0  1  0  0  3  0  0  0  0  0  0
  190.1460  177.1120  134.4510 O   0  0  0  0  0  1  0  0  0  0  0  0
  190.5020  175.8460  134.5010 O   0  0  0  0  0  0  0  0  0  0  0  0
  191.4390  174.5450  136.2980 C   0  0  2  0  0  3  0  0  0  0  0  0
  190.9990  173.7690  137.3770 O   0  0  0  0  0  1  0  0  0  0  0  0
  193.6990  174.5300  137.5180 C   0  0  2  0  0  3  0  0  0  0  0  0
  192.6940  175.3320  136.6880 C   0  0  1  0  0  3  0  0  0  0  0  0
  195.0030  175.0570  137.0540 C   0  0  0  0  0  0  0  0  0  0  0  0
  193.4530  175.8500  135.4640 C   0  0  0  0  0  2  0  0  0  0  0  0
  193.6380  173.1770  137.2270 F   0  0  0  0  0  0  0  0  0  0  0  0
  196.0600  174.7910  137.6040 O   0  0  0  0  0  0  0  0  0  0  0  0
  194.9160  175.9390  135.8670 C   0  0  0  0  0  2  0  0  0  0  0  0
  1 14  2  0  0  0  0
  1  6  1  0  0  0  0
  2 11  1  0  0  0  0
  3  7  1  0  0  0  0
  4  9  2  0  0  0  0
  5  7  2  0  0  0  0
  6 10  1  0  0  0  0
  8  1  1  0  0  0  0
  9  5  1  0  0  0  0
 10 13  2  0  0  0  0
 10  5  1  0  0  0  0
 11  6  2  0  0  0  0
 11  4  1  0  0  0  0
 12  8  1  0  0  0  0
 12  2  2  0  0  0  0
 13  3  1  0  0  0  0
 15 16  2  0  0  0  0
 15 18  1  0  0  0  0
 16 20  1  0  0  0  0
 17 19  1  0  0  0  0
 18 17  2  0  0  0  0
 20  4  1  0  0  0  0
 20 19  2  0  0  0  0
 22 23  1  0  0  0  0
 23 15  1  1  0  0  0
 24 29  1  6  0  0  0
 24 26  1  0  0  0  0
 24 25  1  0  0  0  0
 25 28  2  0  0  0  0
 26 21  1  1  0  0  0
 26 27  1  0  0  0  0
 27 22  2  0  0  0  0
 28 23  1  0  0  0  0
 30 31  2  6  0  0  0
 30 29  1  0  0  0  0
 30 32  1  0  0  0  0
 33 32  1  0  0  0  0
 34 30  1  0  0  0  0
 35 37  1  0  0  0  0
 35 34  1  0  0  0  0
 36 35  2  0  0  0  0
 38 35  1  0  0  0  0
 39 12  1  0  0  0  0
 40 39  1  0  0  0  0
 41 42  1  0  0  0  0
 42 43  2  0  0  0  0
 42 40  1  0  0  0  0
 44 46  1  6  0  0  0
 44 47  1  0  0  0  0
 44 41  1  0  0  0  0
 45 46  1  0  0  0  0
 47 48  1  1  0  0  0
 49 53  1  6  0  0  0
 50 47  1  6  0  0  0
 50 49  1  0  0  0  0
 51 49  1  0  0  0  0
 51 54  2  0  0  0  0
 52 55  1  0  0  0  0
 52 50  1  0  0  0  0
 55 51  1  0  0  0  0
M  END
>  <MODEL>
4

>  <REMARK>
 VINA RESULT:      -8.8      1.870      3.280
  Name = 
  14 active torsions:
  status: ('A' for Active; 'I' for Inactive)
    1  A    between atoms: C_2  and  C_28
    2  A    between atoms: C_4  and  C_27
    3  A    between atoms: C_4  and  C_44
    4  A    between atoms: C_6  and  C_20
    5  A    between atoms: C_6  and  C_31
    6  A    between atoms: O_7  and  P_17
    7  A    between atoms: N_10  and  P_17
    8  A    between atoms: N_10  and  C_29
    9  A    between atoms: O_13  and  P_17
   10  A    between atoms: O_13  and  P_18
   11  A    between atoms: C_14  and  C_49
   12  A    between atoms: C_20  and  N_25
   13  A    between atoms: C_20  and  O_53
   14  A    between atoms: C_27  and  C_46
                            x       y       z     vdW  Elec       q    Type
                         _______ _______ _______ _____ _____    ______ ____

>  <TORSDO>
F 14

$$$$
=
 OpenBabel10232408473D

 55 60  0  0  1  0  0  0  0  0999 V2000
  187.1370  177.6960  145.0690 C   0  0  0  0  0  0  0  0  0  0  0  0
  187.1160  178.1460  142.2610 C   0  0  0  0  0  3  0  0  0  0  0  0
  191.4550  176.5420  146.4050 S   0  0  0  0  0  0  0  0  0  0  0  0
  189.5440  177.4530  142.1290 C   0  0  0  0  0  0  0  0  0  0  0  0
  190.7550  176.9710  144.1120 C   0  0  0  0  0  0  0  0  0  0  0  0
  188.3890  177.4860  144.2970 C   0  0  0  0  0  0  0  0  0  0  0  0
  191.9160  176.6300  144.7890 C   0  0  0  0  0  3  0  0  0  0  0  0
  185.8220  177.8200  144.3580 C   0  0  0  0  0  2  0  0  0  0  0  0
  190.7030  177.1250  142.7680 N   0  0  0  0  0  0  0  0  0  0  0  0
  189.6090  177.1360  144.9030 C   0  0  0  0  0  0  0  0  0  0  0  0
  188.3600  177.6620  142.8940 C   0  0  0  0  0  0  0  0  0  0  0  0
  185.9600  178.2540  142.9250 C   0  0  0  0  0  0  0  0  0  0  0  0
  189.8220  176.9250  146.2630 C   0  0  0  0  0  3  0  0  0  0  0  0
  187.1450  177.7350  146.3280 O   0  0  0  0  0  0  0  0  0  0  0  0
  190.4260  176.7310  138.5270 C   0  0  0  0  0  0  0  0  0  0  0  0
  190.4350  176.7020  139.9240 C   0  0  0  0  0  3  0  0  0  0  0  0
  188.7210  178.3830  138.5450 C   0  0  0  0  0  3  0  0  0  0  0  0
  189.5690  177.5620  137.8720 N   0  0  0  0  0  0  0  0  0  0  0  0
  188.7090  178.3840  139.9410 C   0  0  0  0  0  3  0  0  0  0  0  0
  189.5800  177.5450  140.6460 C   0  0  0  0  0  0  0  0  0  0  0  0
  192.4170  171.9600  136.0860 Cl  0  0  0  0  0  0  0  0  0  0  0  0
  190.5690  175.1640  136.6460 C   0  0  0  0  0  3  0  0  0  0  0  0
  191.3240  175.8070  137.7700 C   0  0  1  0  0  3  0  0  0  0  0  0
  193.5620  174.3670  136.6560 C   0  0  1  0  0  3  0  0  0  0  0  0
  193.5450  175.8710  136.7070 C   0  0  0  0  0  3  0  0  0  0  0  0
  192.4940  173.7100  135.7580 C   0  0  2  0  0  3  0  0  0  0  0  0
  191.0890  174.2730  135.7850 C   0  0  0  0  0  3  0  0  0  0  0  0
  192.5200  176.5380  137.2380 C   0  0  0  0  0  3  0  0  0  0  0  0
  194.9150  173.8440  136.4180 N   0  0  0  0  0  2  0  0  0  0  0  0
  195.8760  173.7240  137.9020 P   0  0  2  0  0  0  0  0  0  0  0  0
  195.2020  172.7490  138.8470 O   0  0  0  0  0  0  0  0  0  0  0  0
  195.9350  175.2580  138.6330 O   0  0  0  0  0  0  0  0  0  0  0  0
  195.7400  175.0390  139.9980 C   0  0  0  0  0  1  0  0  0  0  0  0
  197.4450  173.1540  137.5570 O   0  0  0  0  0  0  0  0  0  0  0  0
  198.4470  174.5010  137.2680 P   0  0  0  0  0  0  0  0  0  0  0  0
  197.6240  175.7340  136.4480 O   0  0  0  0  0  1  0  0  0  0  0  0
  198.9790  175.0370  138.5780 O   0  0  0  0  0  1  0  0  0  0  0  0
  199.7540  174.0020  136.3180 O   0  0  0  0  0  0  0  0  0  0  0  0
  184.7540  178.7880  142.2300 C   0  0  0  0  0  2  0  0  0  0  0  0
  185.0470  179.0820  140.7670 C   0  0  0  0  0  2  0  0  0  0  0  0
  184.4170  178.2330  138.4800 N   0  0  0  0  0  2  0  0  0  0  0  0
  184.2710  178.1540  139.9000 C   0  0  0  0  0  0  0  0  0  0  0  0
  183.5090  177.2950  140.4210 O   0  0  0  0  0  0  0  0  0  0  0  0
  183.7480  177.3160  137.5670 C   0  0  1  0  0  3  0  0  0  0  0  0
  182.4590  179.0300  137.7200 O   0  0  0  0  0  1  0  0  0  0  0  0
  182.6170  177.9270  137.0180 O   0  0  0  0  0  0  0  0  0  0  0  0
  184.7200  176.8910  136.4660 C   0  0  2  0  0  3  0  0  0  0  0  0
  184.3110  177.4250  135.2380 O   0  0  0  0  0  1  0  0  0  0  0  0
  186.2410  174.8240  136.5670 C   0  0  2  0  0  3  0  0  0  0  0  0
  184.8220  175.3650  136.3720 C   0  0  1  0  0  3  0  0  0  0  0  0
  186.0090  173.5400  137.2660 C   0  0  0  0  0  0  0  0  0  0  0  0
  183.9410  174.6640  137.4070 C   0  0  0  0  0  2  0  0  0  0  0  0
  186.9940  175.6480  137.3880 F   0  0  0  0  0  0  0  0  0  0  0  0
  186.8900  172.7150  137.4500 O   0  0  0  0  0  0  0  0  0  0  0  0
  184.6140  173.3380  137.7210 C   0  0  0  0  0  2  0  0  0  0  0  0
  1 14  2  0  0  0  0
  2 11  1  0  0  0  0
  2 12  2  0  0  0  0
  4  9  2  0  0  0  0
  4 11  1  0  0  0  0
  5  7  2  0  0  0  0
  5 10  1  0  0  0  0
  6 10  1  0  0  0  0
  6  1  1  0  0  0  0
  7  3  1  0  0  0  0
  8  1  1  0  0  0  0
  9  5  1  0  0  0  0
 10 13  2  0  0  0  0
 11  6  2  0  0  0  0
 12  8  1  0  0  0  0
 13  3  1  0  0  0  0
 15 16  1  0  0  0  0
 16 20  2  0  0  0  0
 17 19  2  0  0  0  0
 18 15  2  0  0  0  0
 18 17  1  0  0  0  0
 19 20  1  0  0  0  0
 20  4  1  0  0  0  0
 22 23  1  0  0  0  0
 23 15  1  6  0  0  0
 24 29  1  6  0  0  0
 24 25  1  0  0  0  0
 25 28  2  0  0  0  0
 26 27  1  0  0  0  0
 26 21  1  1  0  0  0
 26 24  1  0  0  0  0
 27 22  2  0  0  0  0
 28 23  1  0  0  0  0
 29 30  1  0  0  0  0
 30 32  1  0  0  0  0
 30 31  2  1  0  0  0
 32 33  1  0  0  0  0
 34 30  1  0  0  0  0
 35 34  1  0  0  0  0
 35 37  1  0  0  0  0
 36 35  1  0  0  0  0
 38 35  2  0  0  0  0
 39 12  1  0  0  0  0
 40 39  1  0  0  0  0
 41 42  1  0  0  0  0
 42 43  2  0  0  0  0
 42 40  1  0  0  0  0
 44 46  1  6  0  0  0
 44 41  1  0  0  0  0
 46 45  1  0  0  0  0
 47 48  1  6  0  0  0
 47 44  1  0  0  0  0
 49 51  1  0  0  0  0
 49 53  1  1  0  0  0
 50 47  1  1  0  0  0
 50 49  1  0  0  0  0
 50 52  1  0  0  0  0
 51 54  2  0  0  0  0
 51 55  1  0  0  0  0
 52 55  1  0  0  0  0
M  END
>  <MODEL>
5

>  <REMARK>
 VINA RESULT:      -8.6      4.417      8.580
  Name = 
  14 active torsions:
  status: ('A' for Active; 'I' for Inactive)
    1  A    between atoms: C_2  and  C_28
    2  A    between atoms: C_4  and  C_27
    3  A    between atoms: C_4  and  C_44
    4  A    between atoms: C_6  and  C_20
    5  A    between atoms: C_6  and  C_31
    6  A    between atoms: O_7  and  P_17
    7  A    between atoms: N_10  and  P_17
    8  A    between atoms: N_10  and  C_29
    9  A    between atoms: O_13  and  P_17
   10  A    between atoms: O_13  and  P_18
   11  A    between atoms: C_14  and  C_49
   12  A    between atoms: C_20  and  N_25
   13  A    between atoms: C_20  and  O_53
   14  A    between atoms: C_27  and  C_46
                            x       y       z     vdW  Elec       q    Type
                         _______ _______ _______ _____ _____    ______ ____

>  <TORSDO>
F 14

$$$$
=
 OpenBabel10232408473D

 55 60  0  0  1  0  0  0  0  0999 V2000
  189.9040  177.6830  143.4960 C   0  0  0  0  0  0  0  0  0  0  0  0
  187.4150  178.0280  142.1640 C   0  0  0  0  0  3  0  0  0  0  0  0
  189.1510  177.3420  148.0880 S   0  0  0  0  0  0  0  0  0  0  0  0
  186.2300  178.1170  144.3960 C   0  0  0  0  0  0  0  0  0  0  0  0
  187.4370  177.7340  146.4020 C   0  0  0  0  0  0  0  0  0  0  0  0
  188.6610  177.7810  144.3060 C   0  0  0  0  0  0  0  0  0  0  0  0
  187.5150  177.5850  147.7790 C   0  0  0  0  0  3  0  0  0  0  0  0
  189.8970  178.0800  142.0500 C   0  0  0  0  0  2  0  0  0  0  0  0
  186.2740  177.9660  145.7500 N   0  0  0  0  0  0  0  0  0  0  0  0
  188.6500  177.6460  145.7060 C   0  0  0  0  0  0  0  0  0  0  0  0
  187.4330  178.0030  143.6410 C   0  0  0  0  0  0  0  0  0  0  0  0
  188.5300  178.0300  141.4260 C   0  0  0  0  0  0  0  0  0  0  0  0
  189.7580  177.4220  146.5190 C   0  0  0  0  0  3  0  0  0  0  0  0
  190.9890  177.3040  144.0100 O   0  0  0  0  0  0  0  0  0  0  0  0
  183.4850  178.4710  141.8240 C   0  0  0  0  0  0  0  0  0  0  0  0
  184.7380  178.2520  142.4010 C   0  0  0  0  0  3  0  0  0  0  0  0
  182.5650  178.9890  143.9510 C   0  0  0  0  0  3  0  0  0  0  0  0
  182.4300  178.8260  142.6090 N   0  0  0  0  0  0  0  0  0  0  0  0
  183.8050  178.7860  144.5590 C   0  0  0  0  0  3  0  0  0  0  0  0
  184.9120  178.4230  143.7820 C   0  0  0  0  0  0  0  0  0  0  0  0
  180.9720  177.3610  136.8100 Cl  0  0  0  0  0  0  0  0  0  0  0  0
  182.2390  179.1690  139.8300 C   0  0  0  0  0  3  0  0  0  0  0  0
  183.3080  178.2580  140.3560 C   0  0  1  0  0  3  0  0  0  0  0  0
  183.5820  177.5150  137.5820 C   0  0  1  0  0  3  0  0  0  0  0  0
  184.7120  178.1650  138.3340 C   0  0  0  0  0  3  0  0  0  0  0  0
  182.3180  178.3780  137.3850 C   0  0  2  0  0  3  0  0  0  0  0  0
  181.8330  179.2140  138.5500 C   0  0  0  0  0  3  0  0  0  0  0  0
  184.5940  178.4920  139.6220 C   0  0  0  0  0  3  0  0  0  0  0  0
  184.0460  176.8840  136.3390 N   0  0  0  0  0  2  0  0  0  0  0  0
  184.2640  175.1320  136.4970 P   0  0  2  0  0  0  0  0  0  0  0  0
  183.9970  174.4800  135.1560 O   0  0  0  0  0  0  0  0  0  0  0  0
  183.1410  174.5490  137.6330 O   0  0  0  0  0  0  0  0  0  0  0  0
  182.1950  173.8290  136.9000 C   0  0  0  0  0  1  0  0  0  0  0  0
  185.8590  174.7650  136.9750 O   0  0  0  0  0  0  0  0  0  0  0  0
  186.9080  175.2220  135.7130 P   0  0  0  0  0  0  0  0  0  0  0  0
  186.5370  176.7600  135.1100 O   0  0  0  0  0  1  0  0  0  0  0  0
  188.3390  175.2060  136.2030 O   0  0  0  0  0  1  0  0  0  0  0  0
  186.7550  174.1000  134.4570 O   0  0  0  0  0  0  0  0  0  0  0  0
  188.4330  178.0150  139.9380 C   0  0  0  0  0  2  0  0  0  0  0  0
  188.9480  176.7040  139.3660 C   0  0  0  0  0  2  0  0  0  0  0  0
  191.4120  176.3680  138.9600 N   0  0  0  0  0  2  0  0  0  0  0  0
  190.1720  176.9530  138.5570 C   0  0  0  0  0  0  0  0  0  0  0  0
  190.1040  177.6600  137.5150 O   0  0  0  0  0  0  0  0  0  0  0  0
  192.6380  176.5050  138.1860 C   0  0  1  0  0  3  0  0  0  0  0  0
  193.0700  177.3900  140.0970 O   0  0  0  0  0  1  0  0  0  0  0  0
  193.5520  177.3080  138.8750 O   0  0  0  0  0  0  0  0  0  0  0  0
  193.2300  175.1220  137.9160 C   0  0  2  0  0  3  0  0  0  0  0  0
  194.6030  175.1310  138.1900 O   0  0  0  0  0  1  0  0  0  0  0  0
  191.9280  173.5800  136.3280 C   0  0  2  0  0  3  0  0  0  0  0  0
  192.9810  174.6820  136.4700 C   0  0  1  0  0  3  0  0  0  0  0  0
  191.2690  173.9180  135.0450 C   0  0  0  0  0  0  0  0  0  0  0  0
  192.5210  175.8430  135.5850 C   0  0  0  0  0  2  0  0  0  0  0  0
  190.9840  173.6420  137.3410 F   0  0  0  0  0  0  0  0  0  0  0  0
  190.4790  173.1740  134.4870 O   0  0  0  0  0  0  0  0  0  0  0  0
  191.6550  175.2370  134.4920 C   0  0  0  0  0  2  0  0  0  0  0  0
  1 14  2  0  0  0  0
  1  6  1  0  0  0  0
  2 11  1  0  0  0  0
  4  9  2  0  0  0  0
  5  7  2  0  0  0  0
  6 10  1  0  0  0  0
  7  3  1  0  0  0  0
  8  1  1  0  0  0  0
  9  5  1  0  0  0  0
 10  5  1  0  0  0  0
 10 13  2  0  0  0  0
 11  6  2  0  0  0  0
 11  4  1  0  0  0  0
 12  8  1  0  0  0  0
 12  2  2  0  0  0  0
 13  3  1  0  0  0  0
 15 16  2  0  0  0  0
 15 18  1  0  0  0  0
 16 20  1  0  0  0  0
 17 19  1  0  0  0  0
 18 17  2  0  0  0  0
 20  4  1  0  0  0  0
 20 19  2  0  0  0  0
 22 23  1  0  0  0  0
 23 15  1  1  0  0  0
 24 29  1  6  0  0  0
 24 25  1  0  0  0  0
 25 28  2  0  0  0  0
 26 21  1  1  0  0  0
 26 24  1  0  0  0  0
 26 27  1  0  0  0  0
 27 22  2  0  0  0  0
 28 23  1  0  0  0  0
 29 30  1  0  0  0  0
 30 31  2  6  0  0  0
 30 34  1  0  0  0  0
 30 32  1  0  0  0  0
 33 32  1  0  0  0  0
 35 37  1  0  0  0  0
 35 34  1  0  0  0  0
 36 35  1  0  0  0  0
 38 35  2  0  0  0  0
 39 12  1  0  0  0  0
 40 39  1  0  0  0  0
 42 41  1  0  0  0  0
 42 40  1  0  0  0  0
 43 42  2  0  0  0  0
 44 46  1  1  0  0  0
 44 41  1  0  0  0  0
 46 45  1  0  0  0  0
 47 44  1  0  0  0  0
 47 48  1  6  0  0  0
 49 50  1  0  0  0  0
 49 53  1  1  0  0  0
 50 47  1  1  0  0  0
 51 49  1  0  0  0  0
 52 50  1  0  0  0  0
 54 51  2  0  0  0  0
 55 51  1  0  0  0  0
 55 52  1  0  0  0  0
M  END
>  <MODEL>
6

>  <REMARK>
 VINA RESULT:      -8.6      2.071      3.020
  Name = 
  14 active torsions:
  status: ('A' for Active; 'I' for Inactive)
    1  A    between atoms: C_2  and  C_28
    2  A    between atoms: C_4  and  C_27
    3  A    between atoms: C_4  and  C_44
    4  A    between atoms: C_6  and  C_20
    5  A    between atoms: C_6  and  C_31
    6  A    between atoms: O_7  and  P_17
    7  A    between atoms: N_10  and  P_17
    8  A    between atoms: N_10  and  C_29
    9  A    between atoms: O_13  and  P_17
   10  A    between atoms: O_13  and  P_18
   11  A    between atoms: C_14  and  C_49
   12  A    between atoms: C_20  and  N_25
   13  A    between atoms: C_20  and  O_53
   14  A    between atoms: C_27  and  C_46
                            x       y       z     vdW  Elec       q    Type
                         _______ _______ _______ _____ _____    ______ ____

>  <TORSDO>
F 14

$$$$
=
 OpenBabel10232408473D

 55 60  0  0  1  0  0  0  0  0999 V2000
  190.8460  177.3450  142.8540 C   0  0  0  0  0  0  0  0  0  0  0  0
  188.1900  177.8660  141.9820 C   0  0  0  0  0  3  0  0  0  0  0  0
  190.8400  176.6820  147.4730 S   0  0  0  0  0  0  0  0  0  0  0  0
  187.3910  177.8230  144.3800 C   0  0  0  0  0  0  0  0  0  0  0  0
  188.8920  177.2520  146.1260 C   0  0  0  0  0  0  0  0  0  0  0  0
  189.7590  177.4200  143.8640 C   0  0  0  0  0  0  0  0  0  0  0  0
  189.1870  176.9980  147.4570 C   0  0  0  0  0  3  0  0  0  0  0  0
  190.6210  177.8500  141.4600 C   0  0  0  0  0  2  0  0  0  0  0  0
  187.6490  177.5690  145.6940 N   0  0  0  0  0  0  0  0  0  0  0  0
  189.9700  177.1800  145.2330 C   0  0  0  0  0  0  0  0  0  0  0  0
  188.4480  177.7300  143.4300 C   0  0  0  0  0  0  0  0  0  0  0  0
  189.1690  177.8900  141.0710 C   0  0  0  0  0  0  0  0  0  0  0  0
  191.1850  176.8610  145.8340 C   0  0  0  0  0  3  0  0  0  0  0  0
  191.9840  176.8950  143.1530 O   0  0  0  0  0  0  0  0  0  0  0  0
  184.2680  178.4190  142.3390 C   0  0  0  0  0  0  0  0  0  0  0  0
  185.5880  178.1190  142.6810 C   0  0  0  0  0  3  0  0  0  0  0  0
  183.7540  178.8760  144.6110 C   0  0  0  0  0  3  0  0  0  0  0  0
  183.3820  178.7820  143.3080 N   0  0  0  0  0  0  0  0  0  0  0  0
  185.0680  178.5900  144.9860 C   0  0  0  0  0  3  0  0  0  0  0  0
  186.0040  178.2160  144.0160 C   0  0  0  0  0  0  0  0  0  0  0  0
  180.9500  177.3720  137.8020 Cl  0  0  0  0  0  0  0  0  0  0  0  0
  182.6010  179.1060  140.6760 C   0  0  0  0  0  3  0  0  0  0  0  0
  183.8320  178.2840  140.9160 C   0  0  1  0  0  3  0  0  0  0  0  0
  183.6340  177.7580  138.0870 C   0  0  1  0  0  3  0  0  0  0  0  0
  184.8210  178.4750  138.6680 C   0  0  0  0  0  3  0  0  0  0  0  0
  182.2800  178.4890  138.2010 C   0  0  2  0  0  3  0  0  0  0  0  0
  181.9530  179.1900  139.5020 C   0  0  0  0  0  3  0  0  0  0  0  0
  184.9240  178.7040  139.9790 C   0  0  0  0  0  3  0  0  0  0  0  0
  183.9060  177.2620  136.7300 N   0  0  0  0  0  2  0  0  0  0  0  0
  184.5230  175.6010  136.7160 P   0  0  2  0  0  0  0  0  0  0  0  0
  184.2040  174.9690  135.3760 O   0  0  0  0  0  0  0  0  0  0  0  0
  183.7410  174.7250  137.9450 O   0  0  0  0  0  0  0  0  0  0  0  0
  182.6250  174.1380  137.3450 C   0  0  0  0  0  1  0  0  0  0  0  0
  186.2130  175.5850  136.9390 O   0  0  0  0  0  0  0  0  0  0  0  0
  186.7910  174.0440  136.4960 P   0  0  0  0  0  0  0  0  0  0  0  0
  185.9160  172.8030  137.2470 O   0  0  0  0  0  1  0  0  0  0  0  0
  186.7130  173.8780  134.9950 O   0  0  0  0  0  0  0  0  0  0  0  0
  188.4100  173.9240  136.9690 O   0  0  0  0  0  1  0  0  0  0  0  0
  188.8300  177.9910  139.6220 C   0  0  0  0  0  2  0  0  0  0  0  0
  189.0600  176.6670  138.9100 C   0  0  0  0  0  2  0  0  0  0  0  0
  191.5050  176.1980  138.5280 N   0  0  0  0  0  2  0  0  0  0  0  0
  190.2770  176.7580  138.0580 C   0  0  0  0  0  0  0  0  0  0  0  0
  190.2130  177.3090  136.9260 O   0  0  0  0  0  0  0  0  0  0  0  0
  192.7220  176.1830  137.7270 C   0  0  1  0  0  3  0  0  0  0  0  0
  193.7590  177.0820  139.3820 O   0  0  0  0  0  1  0  0  0  0  0  0
  193.8400  176.0590  138.5580 O   0  0  0  0  0  0  0  0  0  0  0  0
  192.6630  175.0280  136.7270 C   0  0  2  0  0  3  0  0  0  0  0  0
  192.2860  173.8500  137.3810 O   0  0  0  0  0  1  0  0  0  0  0  0
  194.5190  176.0870  135.3010 C   0  0  2  0  0  3  0  0  0  0  0  0
  194.0080  174.8350  136.0190 C   0  0  1  0  0  3  0  0  0  0  0  0
  195.9870  175.9890  135.4740 C   0  0  0  0  0  0  0  0  0  0  0  0
  195.1120  174.4070  136.9880 C   0  0  0  0  0  2  0  0  0  0  0  0
  194.0750  177.2460  135.9160 F   0  0  0  0  0  0  0  0  0  0  0  0
  196.7740  176.7170  134.8900 O   0  0  0  0  0  0  0  0  0  0  0  0
  196.4190  174.9290  136.4140 C   0  0  0  0  0  2  0  0  0  0  0  0
  1 14  2  0  0  0  0
  1  6  1  0  0  0  0
  2 11  1  0  0  0  0
  4  9  2  0  0  0  0
  5  7  2  0  0  0  0
  6 10  1  0  0  0  0
  7  3  1  0  0  0  0
  8  1  1  0  0  0  0
  9  5  1  0  0  0  0
 10 13  2  0  0  0  0
 10  5  1  0  0  0  0
 11  6  2  0  0  0  0
 11  4  1  0  0  0  0
 12  8  1  0  0  0  0
 12  2  2  0  0  0  0
 13  3  1  0  0  0  0
 15 16  2  0  0  0  0
 15 18  1  0  0  0  0
 16 20  1  0  0  0  0
 17 19  1  0  0  0  0
 18 17  2  0  0  0  0
 20  4  1  0  0  0  0
 20 19  2  0  0  0  0
 22 23  1  0  0  0  0
 23 15  1  1  0  0  0
 24 29  1  6  0  0  0
 24 26  1  0  0  0  0
 24 25  1  0  0  0  0
 25 28  2  0  0  0  0
 26 21  1  1  0  0  0
 26 27  1  0  0  0  0
 27 22  2  0  0  0  0
 28 23  1  0  0  0  0
 30 31  2  6  0  0  0
 30 29  1  0  0  0  0
 30 34  1  0  0  0  0
 30 32  1  0  0  0  0
 33 32  1  0  0  0  0
 35 34  1  0  0  0  0
 35 38  1  0  0  0  0
 35 36  1  0  0  0  0
 37 35  2  0  0  0  0
 39 12  1  0  0  0  0
 40 39  1  0  0  0  0
 42 41  1  0  0  0  0
 42 40  1  0  0  0  0
 43 42  2  0  0  0  0
 44 41  1  1  0  0  0
 44 46  1  0  0  0  0
 46 45  1  0  0  0  0
 47 48  1  1  0  0  0
 47 44  1  0  0  0  0
 49 51  1  0  0  0  0
 49 53  1  1  0  0  0
 49 50  1  0  0  0  0
 50 47  1  1  0  0  0
 50 52  1  0  0  0  0
 51 55  1  0  0  0  0
 54 51  2  0  0  0  0
 55 52  1  0  0  0  0
M  END
>  <MODEL>
7

>  <REMARK>
 VINA RESULT:      -8.0      2.516      3.828
  Name = 
  14 active torsions:
  status: ('A' for Active; 'I' for Inactive)
    1  A    between atoms: C_2  and  C_28
    2  A    between atoms: C_4  and  C_27
    3  A    between atoms: C_4  and  C_44
    4  A    between atoms: C_6  and  C_20
    5  A    between atoms: C_6  and  C_31
    6  A    between atoms: O_7  and  P_17
    7  A    between atoms: N_10  and  P_17
    8  A    between atoms: N_10  and  C_29
    9  A    between atoms: O_13  and  P_17
   10  A    between atoms: O_13  and  P_18
   11  A    between atoms: C_14  and  C_49
   12  A    between atoms: C_20  and  N_25
   13  A    between atoms: C_20  and  O_53
   14  A    between atoms: C_27  and  C_46
                            x       y       z     vdW  Elec       q    Type
                         _______ _______ _______ _____ _____    ______ ____

>  <TORSDO>
F 14

$$$$
=
 OpenBabel10232408473D

 55 60  0  0  1  0  0  0  0  0999 V2000
  181.8000  179.1520  142.8700 C   0  0  0  0  0  0  0  0  0  0  0  0
  184.5730  178.5250  142.8100 C   0  0  0  0  0  3  0  0  0  0  0  0
  180.1700  179.3130  138.5010 S   0  0  0  0  0  0  0  0  0  0  0  0
  184.5380  178.5960  140.2830 C   0  0  0  0  0  0  0  0  0  0  0  0
  182.4890  178.9070  139.1280 C   0  0  0  0  0  0  0  0  0  0  0  0
  182.4740  178.9960  141.5550 C   0  0  0  0  0  0  0  0  0  0  0  0
  181.7360  179.0030  137.9680 C   0  0  0  0  0  3  0  0  0  0  0  0
  182.6100  179.3020  144.1230 C   0  0  0  0  0  2  0  0  0  0  0  0
  183.8220  178.6760  139.1250 N   0  0  0  0  0  0  0  0  0  0  0  0
  181.7880  179.0810  140.3300 C   0  0  0  0  0  0  0  0  0  0  0  0
  183.8640  178.7350  141.5310 C   0  0  0  0  0  0  0  0  0  0  0  0
  184.0030  178.7480  143.9990 C   0  0  0  0  0  0  0  0  0  0  0  0
  180.4280  179.3290  140.1650 C   0  0  0  0  0  3  0  0  0  0  0  0
  180.5440  179.2010  142.9570 O   0  0  0  0  0  0  0  0  0  0  0  0
  187.9080  177.5880  138.9060 C   0  0  0  0  0  0  0  0  0  0  0  0
  186.5260  177.7220  139.0560 C   0  0  0  0  0  3  0  0  0  0  0  0
  188.2720  178.7970  140.9160 C   0  0  0  0  0  3  0  0  0  0  0  0
  188.7470  178.1310  139.8310 N   0  0  0  0  0  0  0  0  0  0  0  0
  186.8970  178.9430  141.1010 C   0  0  0  0  0  3  0  0  0  0  0  0
  186.0060  178.3940  140.1710 C   0  0  0  0  0  0  0  0  0  0  0  0
  188.5250  173.7040  134.7560 Cl  0  0  0  0  0  0  0  0  0  0  0  0
  187.3550  176.6810  136.6950 C   0  0  0  0  0  3  0  0  0  0  0  0
  188.4490  176.8930  137.6980 C   0  0  1  0  0  3  0  0  0  0  0  0
  190.1100  175.7370  135.6430 C   0  0  1  0  0  3  0  0  0  0  0  0
  190.3240  177.1480  136.1220 C   0  0  0  0  0  3  0  0  0  0  0  0
  188.7710  175.4610  134.9300 C   0  0  2  0  0  3  0  0  0  0  0  0
  187.5120  176.0730  135.5070 C   0  0  0  0  0  3  0  0  0  0  0  0
  189.5680  177.6780  137.0850 C   0  0  0  0  0  3  0  0  0  0  0  0
  191.2730  175.2310  134.8990 N   0  0  0  0  0  2  0  0  0  0  0  0
  192.3000  174.1640  135.8710 P   0  0  2  0  0  0  0  0  0  0  0  0
  193.7110  174.2020  135.3190 O   0  0  0  0  0  0  0  0  0  0  0  0
  191.6980  172.5790  135.7520 O   0  0  0  0  0  0  0  0  0  0  0  0
  192.2600  172.0420  134.5920 C   0  0  0  0  0  1  0  0  0  0  0  0
  192.3360  174.6810  137.4960 O   0  0  0  0  0  0  0  0  0  0  0  0
  193.6980  175.6840  137.7030 P   0  0  0  0  0  0  0  0  0  0  0  0
  193.4300  176.8770  138.8750 O   0  0  0  0  0  1  0  0  0  0  0  0
  194.8950  174.8500  138.1000 O   0  0  0  0  0  1  0  0  0  0  0  0
  194.0330  176.4420  136.2290 O   0  0  0  0  0  0  0  0  0  0  0  0
  184.7670  178.4760  145.2500 C   0  0  0  0  0  2  0  0  0  0  0  0
  186.0190  177.6600  144.9640 C   0  0  0  0  0  2  0  0  0  0  0  0
  188.3510  177.3630  145.8680 N   0  0  0  0  0  2  0  0  0  0  0  0
  187.0460  177.9300  146.0050 C   0  0  0  0  0  0  0  0  0  0  0  0
  186.7670  178.6690  146.9880 O   0  0  0  0  0  0  0  0  0  0  0  0
  189.4320  177.6350  146.8050 C   0  0  1  0  0  3  0  0  0  0  0  0
  189.2590  178.4520  148.7860 O   0  0  0  0  0  1  0  0  0  0  0  0
  189.0190  177.3490  148.1090 O   0  0  0  0  0  0  0  0  0  0  0  0
  190.6560  176.7990  146.4320 C   0  0  2  0  0  3  0  0  0  0  0  0
  191.4790  176.6340  147.5520 O   0  0  0  0  0  1  0  0  0  0  0  0
  191.5630  176.5630  144.0400 C   0  0  2  0  0  3  0  0  0  0  0  0
  191.4430  177.4440  145.2860 C   0  0  1  0  0  3  0  0  0  0  0  0
  191.5240  177.5500  142.9360 C   0  0  0  0  0  0  0  0  0  0  0  0
  190.8180  178.7640  144.8290 C   0  0  0  0  0  2  0  0  0  0  0  0
  190.4790  175.7100  143.9120 F   0  0  0  0  0  0  0  0  0  0  0  0
  191.7670  177.2570  141.7760 O   0  0  0  0  0  0  0  0  0  0  0  0
  191.1690  178.9240  143.3590 C   0  0  0  0  0  2  0  0  0  0  0  0
  1 14  2  0  0  0  0
  1  8  1  0  0  0  0
  2 12  2  0  0  0  0
  3 13  1  0  0  0  0
  4 11  1  0  0  0  0
  5 10  1  0  0  0  0
  6  1  1  0  0  0  0
  7  3  1  0  0  0  0
  7  5  2  0  0  0  0
  9  5  1  0  0  0  0
  9  4  2  0  0  0  0
 10  6  1  0  0  0  0
 11  6  2  0  0  0  0
 11  2  1  0  0  0  0
 12  8  1  0  0  0  0
 12 39  1  0  0  0  0
 13 10  2  0  0  0  0
 15 16  2  0  0  0  0
 15 18  1  0  0  0  0
 16 20  1  0  0  0  0
 17 19  1  0  0  0  0
 18 17  2  0  0  0  0
 20  4  1  0  0  0  0
 20 19  2  0  0  0  0
 22 23  1  0  0  0  0
 23 15  1  1  0  0  0
 24 29  1  6  0  0  0
 24 25  1  0  0  0  0
 25 28  2  0  0  0  0
 26 21  1  1  0  0  0
 26 27  1  0  0  0  0
 26 24  1  0  0  0  0
 27 22  2  0  0  0  0
 28 23  1  0  0  0  0
 29 30  1  0  0  0  0
 30 31  2  6  0  0  0
 30 34  1  0  0  0  0
 32 30  1  0  0  0  0
 33 32  1  0  0  0  0
 34 35  1  0  0  0  0
 35 37  1  0  0  0  0
 35 36  1  0  0  0  0
 38 35  2  0  0  0  0
 40 39  1  0  0  0  0
 40 42  1  0  0  0  0
 41 42  1  0  0  0  0
 42 43  2  0  0  0  0
 44 41  1  6  0  0  0
 44 46  1  0  0  0  0
 46 45  1  0  0  0  0
 47 44  1  0  0  0  0
 47 48  1  1  0  0  0
 49 53  1  6  0  0  0
 49 50  1  0  0  0  0
 50 47  1  1  0  0  0
 51 55  1  0  0  0  0
 51 49  1  0  0  0  0
 52 50  1  0  0  0  0
 54 51  2  0  0  0  0
 55 52  1  0  0  0  0
M  END
>  <MODEL>
8

>  <REMARK>
 VINA RESULT:      -8.0      4.487      9.240
  Name = 
  14 active torsions:
  status: ('A' for Active; 'I' for Inactive)
    1  A    between atoms: C_2  and  C_28
    2  A    between atoms: C_4  and  C_27
    3  A    between atoms: C_4  and  C_44
    4  A    between atoms: C_6  and  C_20
    5  A    between atoms: C_6  and  C_31
    6  A    between atoms: O_7  and  P_17
    7  A    between atoms: N_10  and  P_17
    8  A    between atoms: N_10  and  C_29
    9  A    between atoms: O_13  and  P_17
   10  A    between atoms: O_13  and  P_18
   11  A    between atoms: C_14  and  C_49
   12  A    between atoms: C_20  and  N_25
   13  A    between atoms: C_20  and  O_53
   14  A    between atoms: C_27  and  C_46
                            x       y       z     vdW  Elec       q    Type
                         _______ _______ _______ _____ _____    ______ ____

>  <TORSDO>
F 14

$$$$
=
 OpenBabel10232408473D

 55 60  0  0  1  0  0  0  0  0999 V2000
  187.2330  177.6510  145.7570 C   0  0  0  0  0  0  0  0  0  0  0  0
  187.5720  177.8860  142.9440 C   0  0  0  0  0  3  0  0  0  0  0  0
  191.3260  176.5520  147.7090 S   0  0  0  0  0  0  0  0  0  0  0  0
  189.9820  177.1570  143.1700 C   0  0  0  0  0  0  0  0  0  0  0  0
  190.9260  176.8130  145.3200 C   0  0  0  0  0  0  0  0  0  0  0  0
  188.5670  177.3690  145.1670 C   0  0  0  0  0  0  0  0  0  0  0  0
  191.9860  176.5110  146.1610 C   0  0  0  0  0  3  0  0  0  0  0  0
  186.0200  177.7360  144.8790 C   0  0  0  0  0  2  0  0  0  0  0  0
  191.0460  176.8660  143.9730 N   0  0  0  0  0  0  0  0  0  0  0  0
  189.6940  177.0510  145.9460 C   0  0  0  0  0  0  0  0  0  0  0  0
  188.7170  177.4380  143.7620 C   0  0  0  0  0  0  0  0  0  0  0  0
  186.3450  178.0570  143.4470 C   0  0  0  0  0  0  0  0  0  0  0  0
  189.7310  176.9420  147.3330 C   0  0  0  0  0  3  0  0  0  0  0  0
  187.0850  177.7850  147.0010 O   0  0  0  0  0  0  0  0  0  0  0  0
  189.2960  177.0680  139.4560 C   0  0  0  0  0  0  0  0  0  0  0  0
  189.1050  177.0190  140.8390 C   0  0  0  0  0  3  0  0  0  0  0  0
  191.6300  177.3770  139.7610 C   0  0  0  0  0  3  0  0  0  0  0  0
  190.5470  177.2520  138.9510 N   0  0  0  0  0  0  0  0  0  0  0  0
  191.4760  177.3260  141.1470 C   0  0  0  0  0  3  0  0  0  0  0  0
  190.2050  177.1350  141.7010 C   0  0  0  0  0  0  0  0  0  0  0  0
  183.8660  176.6140  137.7260 Cl  0  0  0  0  0  0  0  0  0  0  0  0
  187.1220  178.0480  138.8810 C   0  0  0  0  0  3  0  0  0  0  0  0
  188.1120  176.9710  138.5500 C   0  0  1  0  0  3  0  0  0  0  0  0
  186.2510  176.3680  136.4300 C   0  0  1  0  0  3  0  0  0  0  0  0
  187.6590  176.8120  136.1340 C   0  0  0  0  0  3  0  0  0  0  0  0
  185.3500  177.4030  137.1340 C   0  0  2  0  0  3  0  0  0  0  0  0
  185.9460  178.2250  138.2570 C   0  0  0  0  0  3  0  0  0  0  0  0
  188.5260  177.0730  137.1140 C   0  0  0  0  0  3  0  0  0  0  0  0
  185.6150  175.7560  135.2550 N   0  0  0  0  0  2  0  0  0  0  0  0
  185.2820  174.0290  135.4750 P   0  0  2  0  0  0  0  0  0  0  0  0
  185.6890  173.6240  136.8770 O   0  0  0  0  0  0  0  0  0  0  0  0
  186.2100  173.1530  134.3510 O   0  0  0  0  0  0  0  0  0  0  0  0
  187.2780  172.6170  135.0720 C   0  0  0  0  0  1  0  0  0  0  0  0
  183.6200  173.7070  135.2740 O   0  0  0  0  0  0  0  0  0  0  0  0
  183.3430  172.0760  135.6870 P   0  0  0  0  0  0  0  0  0  0  0  0
  184.0680  171.0150  134.5830 O   0  0  0  0  0  0  0  0  0  0  0  0
  183.8760  171.8000  137.0740 O   0  0  0  0  0  1  0  0  0  0  0  0
  181.6750  171.7990  135.6830 O   0  0  0  0  0  1  0  0  0  0  0  0
  185.2470  178.5510  142.5680 C   0  0  0  0  0  2  0  0  0  0  0  0
  184.2510  179.3930  143.3500 C   0  0  0  0  0  2  0  0  0  0  0  0
  182.2880  179.0210  141.8160 N   0  0  0  0  0  2  0  0  0  0  0  0
  182.8700  178.8910  143.1140 C   0  0  0  0  0  0  0  0  0  0  0  0
  182.2320  178.3400  144.0520 O   0  0  0  0  0  0  0  0  0  0  0  0
  180.9720  178.4940  141.4840 C   0  0  1  0  0  3  0  0  0  0  0  0
  180.4100  180.4760  142.0990 O   0  0  0  0  0  1  0  0  0  0  0  0
  179.9820  179.2320  142.1400 O   0  0  0  0  0  0  0  0  0  0  0  0
  180.7670  178.5420  139.9700 C   0  0  2  0  0  3  0  0  0  0  0  0
  179.9820  179.6500  139.6310 O   0  0  0  0  0  1  0  0  0  0  0  0
  180.0450  177.1590  137.9300 C   0  0  2  0  0  3  0  0  0  0  0  0
  180.1150  177.2540  139.4560 C   0  0  1  0  0  3  0  0  0  0  0  0
  180.2320  175.7100  137.6820 C   0  0  0  0  0  0  0  0  0  0  0  0
  180.8510  176.0030  139.9390 C   0  0  0  0  0  2  0  0  0  0  0  0
  181.0840  177.8490  137.3270 F   0  0  0  0  0  0  0  0  0  0  0  0
  180.0670  175.1970  136.5870 O   0  0  0  0  0  0  0  0  0  0  0  0
  180.6310  174.9350  138.8800 C   0  0  0  0  0  2  0  0  0  0  0  0
  1 14  2  0  0  0  0
  2 12  2  0  0  0  0
  2 11  1  0  0  0  0
  4 11  1  0  0  0  0
  4  9  2  0  0  0  0
  5 10  1  0  0  0  0
  5  7  2  0  0  0  0
  6  1  1  0  0  0  0
  6 10  1  0  0  0  0
  7  3  1  0  0  0  0
  8  1  1  0  0  0  0
  9  5  1  0  0  0  0
 10 13  2  0  0  0  0
 11  6  2  0  0  0  0
 12  8  1  0  0  0  0
 13  3  1  0  0  0  0
 15 16  1  0  0  0  0
 16 20  2  0  0  0  0
 17 19  2  0  0  0  0
 18 15  2  0  0  0  0
 18 17  1  0  0  0  0
 19 20  1  0  0  0  0
 20  4  1  0  0  0  0
 23 22  1  0  0  0  0
 23 15  1  1  0  0  0
 24 29  1  6  0  0  0
 24 26  1  0  0  0  0
 25 24  1  0  0  0  0
 25 28  2  0  0  0  0
 26 21  1  1  0  0  0
 26 27  1  0  0  0  0
 27 22  2  0  0  0  0
 28 23  1  0  0  0  0
 29 30  1  0  0  0  0
 30 31  2  1  0  0  0
 32 33  1  0  0  0  0
 32 30  1  0  0  0  0
 34 30  1  0  0  0  0
 34 35  1  0  0  0  0
 35 37  1  0  0  0  0
 36 35  2  0  0  0  0
 38 35  1  0  0  0  0
 39 40  1  0  0  0  0
 39 12  1  0  0  0  0
 41 42  1  0  0  0  0
 42 40  1  0  0  0  0
 42 43  2  0  0  0  0
 44 41  1  6  0  0  0
 44 46  1  0  0  0  0
 45 46  1  0  0  0  0
 47 48  1  1  0  0  0
 47 44  1  0  0  0  0
 49 53  1  6  0  0  0
 49 50  1  0  0  0  0
 50 52  1  0  0  0  0
 50 47  1  6  0  0  0
 51 49  1  0  0  0  0
 51 55  1  0  0  0  0
 54 51  2  0  0  0  0
 55 52  1  0  0  0  0
M  END
>  <MODEL>
9

>  <REMARK>
 VINA RESULT:      -7.6      3.014      6.626
  Name = 
  14 active torsions:
  status: ('A' for Active; 'I' for Inactive)
    1  A    between atoms: C_2  and  C_28
    2  A    between atoms: C_4  and  C_27
    3  A    between atoms: C_4  and  C_44
    4  A    between atoms: C_6  and  C_20
    5  A    between atoms: C_6  and  C_31
    6  A    between atoms: O_7  and  P_17
    7  A    between atoms: N_10  and  P_17
    8  A    between atoms: N_10  and  C_29
    9  A    between atoms: O_13  and  P_17
   10  A    between atoms: O_13  and  P_18
   11  A    between atoms: C_14  and  C_49
   12  A    between atoms: C_20  and  N_25
   13  A    between atoms: C_20  and  O_53
   14  A    between atoms: C_27  and  C_46
                            x       y       z     vdW  Elec       q    Type
                         _______ _______ _______ _____ _____    ______ ____

>  <TORSDO>
F 14

$$$$
