=
 OpenBabel10232408453D

 55 63  0  0  1  0  0  0  0  0999 V2000
  185.7210  178.1550  137.9570 C   0  0  2  0  0  0  0  0  0  0  0  0
  180.8970  179.6620  136.5700 C   0  0  0  0  0  3  0  0  0  0  0  0
  180.0450  181.3980  139.6810 N   0  0  0  0  0  0  0  0  0  0  0  0
  179.9910  180.3790  140.5710 C   0  0  0  0  0  3  0  0  0  0  0  0
  180.5810  179.8730  137.9180 C   0  0  0  0  0  0  0  0  0  0  0  0
  180.5400  178.8310  138.8570 C   0  0  0  0  0  0  0  0  0  0  0  0
  180.2730  181.1770  138.3590 C   0  0  0  0  0  0  0  0  0  0  0  0
  184.8430  177.9630  139.2220 C   0  0  2  0  0  3  0  0  0  0  0  0
  185.2450  177.4020  136.6850 C   0  0  0  0  0  2  0  0  0  0  0  0
  187.0140  178.0540  140.5770 C   0  0  2  0  0  3  0  0  0  0  0  0
  187.7610  178.2710  139.3960 O   0  0  0  0  0  0  0  0  0  0  0  0
  180.9130  180.7280  135.6670 C   0  0  0  0  0  3  0  0  0  0  0  0
  181.6170  176.1140  136.6910 C   0  0  0  0  0  2  0  0  0  0  0  0
  187.9850  177.9510  137.1730 F   0  0  0  0  0  0  0  0  0  0  0  0
  180.4730  176.7190  137.4950 C   0  0  0  0  0  2  0  0  0  0  0  0
  183.4050  178.4700  139.0290 C   0  0  0  0  0  2  0  0  0  0  0  0
  182.8050  177.0010  137.0150 C   0  0  1  0  0  3  0  0  0  0  0  0
  187.1670  177.6780  138.2560 C   0  0  2  0  0  3  0  0  0  0  0  0
  180.2480  179.1040  140.1560 N   0  0  0  0  0  0  0  0  0  0  0  0
  180.2830  182.2400  137.4510 C   0  0  0  0  0  3  0  0  0  0  0  0
  184.9590  179.2670  141.3520 C   0  0  0  0  0  2  0  0  0  0  0  0
  182.5350  177.3320  138.4780 C   0  0  2  0  0  3  0  0  0  0  0  0
  185.5830  178.5440  140.4070 C   0  0  0  0  0  0  0  0  0  0  0  0
  181.1000  177.5370  138.5330 N   0  0  0  0  0  0  0  0  0  0  0  0
  180.5890  182.0160  136.1030 C   0  0  0  0  0  3  0  0  0  0  0  0
  184.1710  176.3200  136.8600 C   0  0  1  0  0  3  0  0  0  0  0  0
  185.7470  179.5170  137.6670 O   0  0  0  0  0  1  0  0  0  0  0  0
  187.7810  178.7840  141.6860 C   0  0  0  0  0  2  0  0  0  0  0  0
  186.6180  177.3660  143.2580 O   0  0  0  0  0  1  0  0  0  0  0  0
  187.7920  178.0870  143.0560 C   0  0  1  0  0  3  0  0  0  0  0  0
  189.3440  176.1670  142.7500 C   0  0  0  0  0  3  0  0  0  0  0  0
  189.0110  177.2680  143.4290 C   0  0  0  0  0  0  0  0  0  0  0  0
  189.7860  177.5420  144.7210 C   0  0  1  0  0  0  0  0  0  0  0  0
  188.8010  177.6700  146.3810 C   0  0  1  0  0  3  0  0  0  0  0  0
  190.5220  175.3610  143.1990 C   0  0  0  0  0  2  0  0  0  0  0  0
  190.7790  176.2520  146.3800 C   0  0  0  0  0  2  0  0  0  0  0  0
  191.3030  177.5040  144.4470 C   0  0  2  0  0  3  0  0  0  0  0  0
  191.6890  176.3300  143.5000 C   0  0  0  0  0  2  0  0  0  0  0  0
  191.8510  177.1640  145.8010 C   0  0  0  0  0  2  0  0  0  0  0  0
  189.2760  178.6360  145.4610 O   0  0  0  0  0  0  0  0  0  0  0  0
  189.4810  176.5350  145.7400 N   0  0  2  0  0  0  0  0  0  0  0  0
  187.9430  178.0650  148.6890 C   0  0  0  0  0  1  0  0  0  0  0  0
  189.2160  177.9360  147.8550 C   0  0  0  0  0  2  0  0  0  0  0  0
  184.2140  175.3300  135.7660 N   0  0  0  0  0  2  0  0  0  0  0  0
  184.9980  174.1620  136.1560 C   0  0  0  0  0  2  0  0  0  0  0  0
  184.4330  173.5230  137.4230 C   0  0  2  0  0  3  0  0  0  0  0  0
  185.4820  173.1680  138.2710 O   0  0  0  0  0  1  0  0  0  0  0  0
  184.3270  171.2790  136.2010 C   0  0  0  0  0  2  0  0  0  0  0  0
  182.1000  170.4680  135.3260 C   0  0  0  0  0  2  0  0  0  0  0  0
  183.4450  170.0510  135.9460 C   0  0  1  0  0  3  0  0  0  0  0  0
  183.5720  172.2850  137.1090 C   0  0  2  0  0  3  0  0  0  0  0  0
  181.3460  171.3980  136.2920 C   0  0  0  0  0  2  0  0  0  0  0  0
  182.1880  172.6660  136.5260 C   0  0  0  0  0  2  0  0  0  0  0  0
  183.2240  168.0750  134.9760 C   0  0  0  0  0  1  0  0  0  0  0  0
  184.0740  169.1800  135.0640 O   0  0  0  0  0  0  0  0  0  0  0  0
  1 27  1  6  0  0  0
  1 18  1  0  0  0  0
  1  8  1  0  0  0  0
  2  5  1  0  0  0  0
  3  4  1  0  0  0  0
  5  7  1  0  0  0  0
  5  6  2  0  0  0  0
  6 19  1  0  0  0  0
  7  3  2  0  0  0  0
  8 16  1  6  0  0  0
  8 23  1  0  0  0  0
  9 26  1  0  0  0  0
  9  1  1  0  0  0  0
 10 28  1  1  0  0  0
 11 10  1  0  0  0  0
 12 25  1  0  0  0  0
 12  2  2  0  0  0  0
 13 15  1  0  0  0  0
 15 24  1  0  0  0  0
 17 13  1  1  0  0  0
 17 22  1  0  0  0  0
 18 14  1  6  0  0  0
 18 11  1  0  0  0  0
 19  4  2  0  0  0  0
 20  7  1  0  0  0  0
 22 24  1  0  0  0  0
 22 16  1  6  0  0  0
 23 10  1  0  0  0  0
 23 21  2  0  0  0  0
 24  6  1  0  0  0  0
 25 20  2  0  0  0  0
 26 44  1  6  0  0  0
 26 17  1  0  0  0  0
 28 30  1  0  0  0  0
 30 29  1  6  0  0  0
 30 32  1  0  0  0  0
 31 35  1  0  0  0  0
 31 32  2  0  0  0  0
 33 32  1  6  0  0  0
 33 40  1  0  0  0  0
 33 41  1  0  0  0  0
 34 43  1  1  0  0  0
 35 38  1  0  0  0  0
 37 38  1  6  0  0  0
 37 33  1  0  0  0  0
 37 39  1  0  0  0  0
 39 36  1  0  0  0  0
 40 34  1  0  0  0  0
 41 36  1  1  0  0  0
 41 34  1  0  0  0  0
 43 42  1  0  0  0  0
 44 45  1  0  0  0  0
 45 46  1  0  0  0  0
 46 47  1  1  0  0  0
 48 51  1  0  0  0  0
 49 50  1  0  0  0  0
 49 52  1  0  0  0  0
 50 55  1  6  0  0  0
 50 48  1  0  0  0  0
 51 46  1  6  0  0  0
 52 53  1  0  0  0  0
 53 51  1  0  0  0  0
 54 55  1  0  0  0  0
M  END
>  <MODEL>
1

>  <REMARK>
 VINA RESULT:      -8.5      0.000      0.000
  Name = 
  9 active torsions:
  status: ('A' for Active; 'I' for Inactive)
    1  A    between atoms: C_5  and  C_36
    2  A    between atoms: C_7  and  C_44
    3  A    between atoms: O_18  and  C_24
    4  A    between atoms: C_19  and  C_32
    5  A    between atoms: C_22  and  C_28
    6  A    between atoms: C_22  and  C_31
    7  A    between atoms: C_28  and  N_42
    8  A    between atoms: C_32  and  C_36
    9  A    between atoms: N_42  and  C_54
                            x       y       z     vdW  Elec       q    Type
                         _______ _______ _______ _____ _____    ______ ____

>  <TORSDO>
F 9

$$$$
=
 OpenBabel10232408453D

 55 63  0  0  1  0  0  0  0  0999 V2000
  186.2320  177.9760  137.4450 C   0  0  2  0  0  0  0  0  0  0  0  0
  181.5450  178.9190  135.3000 C   0  0  0  0  0  3  0  0  0  0  0  0
  180.0840  180.7000  138.1480 N   0  0  0  0  0  0  0  0  0  0  0  0
  179.9960  179.7220  139.0810 C   0  0  0  0  0  3  0  0  0  0  0  0
  181.0150  179.1580  136.5750 C   0  0  0  0  0  0  0  0  0  0  0  0
  180.9350  178.1610  137.5590 C   0  0  0  0  0  0  0  0  0  0  0  0
  180.5250  180.4430  136.8880 C   0  0  0  0  0  0  0  0  0  0  0  0
  185.2000  177.7540  138.5820 C   0  0  2  0  0  3  0  0  0  0  0  0
  186.0220  177.1210  136.1670 C   0  0  0  0  0  2  0  0  0  0  0  0
  187.1290  178.1290  140.2230 C   0  0  2  0  0  3  0  0  0  0  0  0
  188.0190  178.3660  139.1500 O   0  0  0  0  0  0  0  0  0  0  0  0
  181.5930  179.9370  134.3460 C   0  0  0  0  0  3  0  0  0  0  0  0
  182.5700  175.4710  135.7350 C   0  0  0  0  0  2  0  0  0  0  0  0
  188.5960  177.9690  137.0040 F   0  0  0  0  0  0  0  0  0  0  0  0
  181.2680  175.9930  136.3320 C   0  0  0  0  0  2  0  0  0  0  0  0
  183.7650  178.1030  138.1570 C   0  0  0  0  0  2  0  0  0  0  0  0
  183.6090  176.4890  136.1710 C   0  0  1  0  0  3  0  0  0  0  0  0
  187.6580  177.6630  137.9750 C   0  0  2  0  0  3  0  0  0  0  0  0
  180.4310  178.4630  138.7840 N   0  0  0  0  0  0  0  0  0  0  0  0
  180.5670  181.4580  135.9280 C   0  0  0  0  0  3  0  0  0  0  0  0
  184.8780  179.1600  140.6250 C   0  0  0  0  0  2  0  0  0  0  0  0
  183.0960  176.8580  137.5580 C   0  0  2  0  0  3  0  0  0  0  0  0
  185.6990  178.4610  139.8230 C   0  0  0  0  0  0  0  0  0  0  0  0
  181.6560  176.9180  137.3970 N   0  0  0  0  0  0  0  0  0  0  0  0
  181.0890  181.2050  134.6530 C   0  0  0  0  0  3  0  0  0  0  0  0
  185.0410  175.9440  136.2530 C   0  0  1  0  0  3  0  0  0  0  0  0
  186.1730  179.3190  137.0800 O   0  0  0  0  0  1  0  0  0  0  0  0
  187.6530  178.9830  141.3840 C   0  0  0  0  0  2  0  0  0  0  0  0
  186.6190  177.4810  142.9690 O   0  0  0  0  0  1  0  0  0  0  0  0
  187.7430  178.2720  142.7450 C   0  0  1  0  0  3  0  0  0  0  0  0
  189.4860  176.5620  142.2760 C   0  0  0  0  0  3  0  0  0  0  0  0
  189.0180  177.5230  143.0750 C   0  0  0  0  0  0  0  0  0  0  0  0
  189.7050  177.6860  144.4340 C   0  0  1  0  0  0  0  0  0  0  0  0
  188.6390  177.4950  146.0370 C   0  0  1  0  0  3  0  0  0  0  0  0
  190.7170  175.8110  142.6800 C   0  0  0  0  0  2  0  0  0  0  0  0
  190.7440  176.2750  145.9610 C   0  0  0  0  0  2  0  0  0  0  0  0
  191.2290  177.8230  144.2440 C   0  0  2  0  0  3  0  0  0  0  0  0
  191.7690  176.8310  143.1730 C   0  0  0  0  0  2  0  0  0  0  0  0
  191.7470  177.3510  145.5700 C   0  0  0  0  0  2  0  0  0  0  0  0
  189.0580  178.6170  145.2820 O   0  0  0  0  0  0  0  0  0  0  0  0
  189.4540  176.5250  145.2910 N   0  0  2  0  0  0  0  0  0  0  0  0
  187.7820  178.2760  148.2450 C   0  0  0  0  0  1  0  0  0  0  0  0
  188.9600  177.5920  147.5550 C   0  0  0  0  0  2  0  0  0  0  0  0
  185.3380  174.9150  135.2370 N   0  0  0  0  0  2  0  0  0  0  0  0
  186.7270  175.0080  134.7970 C   0  0  0  0  0  2  0  0  0  0  0  0
  187.5700  173.8910  135.4080 C   0  0  2  0  0  3  0  0  0  0  0  0
  187.0340  173.5280  136.6430 O   0  0  0  0  0  1  0  0  0  0  0  0
  189.4350  174.4170  137.0780 C   0  0  0  0  0  2  0  0  0  0  0  0
  191.1980  176.1140  136.4470 C   0  0  0  0  0  2  0  0  0  0  0  0
  190.9150  174.8000  137.1980 C   0  0  1  0  0  3  0  0  0  0  0  0
  189.0430  174.3090  135.5800 C   0  0  2  0  0  3  0  0  0  0  0  0
  190.8760  175.9400  134.9520 C   0  0  0  0  0  2  0  0  0  0  0  0
  189.3800  175.6040  134.7990 C   0  0  0  0  0  2  0  0  0  0  0  0
  191.1190  176.3570  138.7560 C   0  0  0  0  0  1  0  0  0  0  0  0
  191.2580  174.9850  138.5320 O   0  0  0  0  0  0  0  0  0  0  0  0
  1 27  1  6  0  0  0
  1 18  1  0  0  0  0
  1  8  1  0  0  0  0
  2  5  1  0  0  0  0
  3  4  1  0  0  0  0
  5  7  1  0  0  0  0
  5  6  2  0  0  0  0
  6 19  1  0  0  0  0
  7  3  2  0  0  0  0
  8 16  1  6  0  0  0
  8 23  1  0  0  0  0
  9 26  1  0  0  0  0
  9  1  1  0  0  0  0
 10 28  1  1  0  0  0
 11 10  1  0  0  0  0
 12 25  1  0  0  0  0
 12  2  2  0  0  0  0
 13 15  1  0  0  0  0
 15 24  1  0  0  0  0
 17 13  1  1  0  0  0
 17 26  1  0  0  0  0
 17 22  1  0  0  0  0
 18 14  1  6  0  0  0
 18 11  1  0  0  0  0
 19  4  2  0  0  0  0
 20  7  1  0  0  0  0
 22 16  1  6  0  0  0
 23 10  1  0  0  0  0
 23 21  2  0  0  0  0
 24 22  1  0  0  0  0
 24  6  1  0  0  0  0
 25 20  2  0  0  0  0
 26 44  1  6  0  0  0
 28 30  1  0  0  0  0
 30 29  1  6  0  0  0
 30 32  1  0  0  0  0
 31 35  1  0  0  0  0
 31 32  2  0  0  0  0
 33 32  1  6  0  0  0
 33 40  1  0  0  0  0
 33 41  1  0  0  0  0
 34 43  1  1  0  0  0
 35 38  1  0  0  0  0
 37 38  1  6  0  0  0
 37 33  1  0  0  0  0
 37 39  1  0  0  0  0
 39 36  1  0  0  0  0
 40 34  1  0  0  0  0
 41 36  1  1  0  0  0
 41 34  1  0  0  0  0
 43 42  1  0  0  0  0
 45 44  1  0  0  0  0
 45 46  1  0  0  0  0
 46 47  1  1  0  0  0
 48 50  1  0  0  0  0
 49 50  1  0  0  0  0
 50 55  1  1  0  0  0
 51 46  1  1  0  0  0
 51 48  1  0  0  0  0
 52 49  1  0  0  0  0
 53 52  1  0  0  0  0
 53 51  1  0  0  0  0
 55 54  1  0  0  0  0
M  END
>  <MODEL>
2

>  <REMARK>
 VINA RESULT:      -8.5      2.121      3.721
  Name = 
  9 active torsions:
  status: ('A' for Active; 'I' for Inactive)
    1  A    between atoms: C_5  and  C_36
    2  A    between atoms: C_7  and  C_44
    3  A    between atoms: O_18  and  C_24
    4  A    between atoms: C_19  and  C_32
    5  A    between atoms: C_22  and  C_28
    6  A    between atoms: C_22  and  C_31
    7  A    between atoms: C_28  and  N_42
    8  A    between atoms: C_32  and  C_36
    9  A    between atoms: N_42  and  C_54
                            x       y       z     vdW  Elec       q    Type
                         _______ _______ _______ _____ _____    ______ ____

>  <TORSDO>
F 9

$$$$
=
 OpenBabel10232408453D

 55 63  0  0  1  0  0  0  0  0999 V2000
  185.6460  178.2420  138.0780 C   0  0  2  0  0  0  0  0  0  0  0  0
  180.7610  179.7960  136.9920 C   0  0  0  0  0  3  0  0  0  0  0  0
  180.0750  181.4330  140.1970 N   0  0  0  0  0  0  0  0  0  0  0  0
  180.0650  180.3860  141.0550 C   0  0  0  0  0  3  0  0  0  0  0  0
  180.5150  179.9640  138.3610 C   0  0  0  0  0  0  0  0  0  0  0  0
  180.5210  178.8930  139.2670 C   0  0  0  0  0  0  0  0  0  0  0  0
  180.2340  181.2540  138.8590 C   0  0  0  0  0  0  0  0  0  0  0  0
  184.8350  178.0110  139.3800 C   0  0  2  0  0  3  0  0  0  0  0  0
  185.1040  177.5300  136.8100 C   0  0  0  0  0  2  0  0  0  0  0  0
  187.0730  178.0580  140.6230 C   0  0  2  0  0  3  0  0  0  0  0  0
  187.7590  178.3110  139.4120 O   0  0  0  0  0  0  0  0  0  0  0  0
  180.7330  180.8900  136.1240 C   0  0  0  0  0  3  0  0  0  0  0  0
  181.4780  176.2450  136.9630 C   0  0  0  0  0  2  0  0  0  0  0  0
  187.8660  178.0620  137.1720 F   0  0  0  0  0  0  0  0  0  0  0  0
  180.3780  176.8260  137.8450 C   0  0  0  0  0  2  0  0  0  0  0  0
  183.3900  178.5250  139.2790 C   0  0  0  0  0  2  0  0  0  0  0  0
  182.6830  177.1210  137.2530 C   0  0  1  0  0  3  0  0  0  0  0  0
  187.1050  177.7550  138.2860 C   0  0  2  0  0  3  0  0  0  0  0  0
  180.2970  179.1250  140.5870 N   0  0  0  0  0  0  0  0  0  0  0  0
  180.1990  182.3450  137.9850 C   0  0  0  0  0  3  0  0  0  0  0  0
  185.0640  179.2470  141.5420 C   0  0  0  0  0  2  0  0  0  0  0  0
  182.4900  177.4050  138.7380 C   0  0  2  0  0  3  0  0  0  0  0  0
  185.6360  178.5530  140.5430 C   0  0  0  0  0  0  0  0  0  0  0  0
  181.0600  177.6100  138.8740 N   0  0  0  0  0  0  0  0  0  0  0  0
  180.4340  182.1640  136.6160 C   0  0  0  0  0  3  0  0  0  0  0  0
  184.0380  176.4440  137.0060 C   0  0  1  0  0  3  0  0  0  0  0  0
  185.6610  179.6130  137.8310 O   0  0  0  0  0  1  0  0  0  0  0  0
  187.8990  178.7520  141.7140 C   0  0  0  0  0  2  0  0  0  0  0  0
  186.6790  177.3930  143.2960 O   0  0  0  0  0  1  0  0  0  0  0  0
  187.8750  178.0770  143.0950 C   0  0  1  0  0  3  0  0  0  0  0  0
  189.3800  176.1140  142.8330 C   0  0  0  0  0  3  0  0  0  0  0  0
  189.0660  177.2300  143.4950 C   0  0  0  0  0  0  0  0  0  0  0  0
  189.8290  177.4980  144.7960 C   0  0  1  0  0  0  0  0  0  0  0  0
  188.8220  177.6710  146.4390 C   0  0  1  0  0  3  0  0  0  0  0  0
  190.5300  175.2820  143.3080 C   0  0  0  0  0  2  0  0  0  0  0  0
  190.7620  176.2010  146.4830 C   0  0  0  0  0  2  0  0  0  0  0  0
  191.3490  177.4170  144.5450 C   0  0  2  0  0  3  0  0  0  0  0  0
  191.7170  176.2230  143.6160 C   0  0  0  0  0  2  0  0  0  0  0  0
  191.8670  177.0780  145.9110 C   0  0  0  0  0  2  0  0  0  0  0  0
  189.3370  178.6130  145.5160 O   0  0  0  0  0  0  0  0  0  0  0  0
  189.4820  176.5110  145.8200 N   0  0  2  0  0  0  0  0  0  0  0  0
  187.9440  177.9900  148.7510 C   0  0  0  0  0  1  0  0  0  0  0  0
  189.2220  177.9420  147.9170 C   0  0  0  0  0  2  0  0  0  0  0  0
  184.0220  175.4890  135.8800 N   0  0  0  0  0  2  0  0  0  0  0  0
  185.1480  175.7300  134.9830 C   0  0  0  0  0  2  0  0  0  0  0  0
  185.6310  174.4270  134.3500 C   0  0  2  0  0  3  0  0  0  0  0  0
  184.8340  173.3720  134.7930 O   0  0  0  0  0  1  0  0  0  0  0  0
  187.3820  172.6160  134.7930 C   0  0  0  0  0  2  0  0  0  0  0  0
  189.2960  173.1240  136.3630 C   0  0  0  0  0  2  0  0  0  0  0  0
  188.8690  172.3790  135.0850 C   0  0  1  0  0  3  0  0  0  0  0  0
  187.1080  174.1390  134.6790 C   0  0  2  0  0  3  0  0  0  0  0  0
  189.0870  174.6370  136.1780 C   0  0  0  0  0  2  0  0  0  0  0  0
  187.5920  174.9100  135.9330 C   0  0  0  0  0  2  0  0  0  0  0  0
  187.9030  170.3920  134.9740 C   0  0  0  0  0  1  0  0  0  0  0  0
  189.1120  171.0240  135.2760 O   0  0  0  0  0  0  0  0  0  0  0  0
  1 27  1  6  0  0  0
  1 18  1  0  0  0  0
  1  8  1  0  0  0  0
  2  5  1  0  0  0  0
  3  4  1  0  0  0  0
  5  7  1  0  0  0  0
  5  6  2  0  0  0  0
  6 19  1  0  0  0  0
  7  3  2  0  0  0  0
  8 16  1  6  0  0  0
  8 23  1  0  0  0  0
  9 26  1  0  0  0  0
  9  1  1  0  0  0  0
 10 28  1  1  0  0  0
 11 10  1  0  0  0  0
 12 25  1  0  0  0  0
 12  2  2  0  0  0  0
 13 15  1  0  0  0  0
 15 24  1  0  0  0  0
 17 13  1  1  0  0  0
 17 22  1  0  0  0  0
 18 14  1  6  0  0  0
 18 11  1  0  0  0  0
 19  4  2  0  0  0  0
 20  7  1  0  0  0  0
 22 24  1  0  0  0  0
 22 16  1  6  0  0  0
 23 10  1  0  0  0  0
 23 21  2  0  0  0  0
 24  6  1  0  0  0  0
 25 20  2  0  0  0  0
 26 44  1  6  0  0  0
 26 17  1  0  0  0  0
 28 30  1  0  0  0  0
 30 29  1  6  0  0  0
 30 32  1  0  0  0  0
 31 35  1  0  0  0  0
 31 32  2  0  0  0  0
 33 32  1  6  0  0  0
 33 40  1  0  0  0  0
 33 41  1  0  0  0  0
 34 43  1  1  0  0  0
 35 38  1  0  0  0  0
 37 38  1  6  0  0  0
 37 33  1  0  0  0  0
 37 39  1  0  0  0  0
 39 36  1  0  0  0  0
 40 34  1  0  0  0  0
 41 34  1  0  0  0  0
 41 36  1  1  0  0  0
 43 42  1  0  0  0  0
 45 44  1  0  0  0  0
 46 47  1  1  0  0  0
 46 45  1  0  0  0  0
 48 50  1  0  0  0  0
 50 55  1  1  0  0  0
 50 49  1  0  0  0  0
 51 46  1  1  0  0  0
 51 48  1  0  0  0  0
 51 53  1  0  0  0  0
 52 49  1  0  0  0  0
 53 52  1  0  0  0  0
 54 55  1  0  0  0  0
M  END
>  <MODEL>
3

>  <REMARK>
 VINA RESULT:      -7.8      1.865      2.424
  Name = 
  9 active torsions:
  status: ('A' for Active; 'I' for Inactive)
    1  A    between atoms: C_5  and  C_36
    2  A    between atoms: C_7  and  C_44
    3  A    between atoms: O_18  and  C_24
    4  A    between atoms: C_19  and  C_32
    5  A    between atoms: C_22  and  C_28
    6  A    between atoms: C_22  and  C_31
    7  A    between atoms: C_28  and  N_42
    8  A    between atoms: C_32  and  C_36
    9  A    between atoms: N_42  and  C_54
                            x       y       z     vdW  Elec       q    Type
                         _______ _______ _______ _____ _____    ______ ____

>  <TORSDO>
F 9

$$$$
=
 OpenBabel10232408453D

 55 63  0  0  1  0  0  0  0  0999 V2000
  188.5150  177.2460  140.3250 C   0  0  2  0  0  0  0  0  0  0  0  0
  189.0120  174.8100  135.7120 C   0  0  0  0  0  3  0  0  0  0  0  0
  192.5350  173.8710  136.0630 N   0  0  0  0  0  0  0  0  0  0  0  0
  193.1550  175.0750  136.0380 C   0  0  0  0  0  3  0  0  0  0  0  0
  190.4040  174.9270  135.8050 C   0  0  0  0  0  0  0  0  0  0  0  0
  191.0610  176.1670  135.8010 C   0  0  0  0  0  0  0  0  0  0  0  0
  191.1910  173.7590  135.8910 C   0  0  0  0  0  0  0  0  0  0  0  0
  189.9120  177.6520  139.7860 C   0  0  2  0  0  3  0  0  0  0  0  0
  187.3140  177.5640  139.3940 C   0  0  0  0  0  2  0  0  0  0  0  0
  190.5350  178.2080  142.2070 C   0  0  2  0  0  3  0  0  0  0  0  0
  189.2610  177.7830  142.6490 O   0  0  0  0  0  0  0  0  0  0  0  0
  188.4010  173.5540  135.7070 C   0  0  0  0  0  3  0  0  0  0  0  0
  188.1320  178.3250  135.7100 C   0  0  0  0  0  2  0  0  0  0  0  0
  187.0600  177.5250  142.2190 F   0  0  0  0  0  0  0  0  0  0  0  0
  189.3560  177.8120  134.9600 C   0  0  0  0  0  2  0  0  0  0  0  0
  190.2770  176.9300  138.4800 C   0  0  0  0  0  2  0  0  0  0  0  0
  188.2690  177.7180  137.0950 C   0  0  1  0  0  3  0  0  0  0  0  0
  188.2520  177.9690  141.6730 C   0  0  2  0  0  3  0  0  0  0  0  0
  192.4140  176.2150  135.9180 N   0  0  0  0  0  0  0  0  0  0  0  0
  190.5770  172.5040  135.8780 C   0  0  0  0  0  3  0  0  0  0  0  0
  192.1390  176.9900  140.7110 C   0  0  0  0  0  2  0  0  0  0  0  0
  189.7800  177.7570  137.2860 C   0  0  2  0  0  3  0  0  0  0  0  0
  190.9160  177.5100  140.9090 C   0  0  0  0  0  0  0  0  0  0  0  0
  190.3090  177.3890  135.9860 N   0  0  0  0  0  0  0  0  0  0  0  0
  189.1840  172.3970  135.7720 C   0  0  0  0  0  3  0  0  0  0  0  0
  187.5650  178.5040  138.2080 C   0  0  1  0  0  3  0  0  0  0  0  0
  188.5350  175.8700  140.5480 O   0  0  0  0  0  1  0  0  0  0  0  0
  191.4930  177.9060  143.3660 C   0  0  0  0  0  2  0  0  0  0  0  0
  192.1100  175.5870  143.6470 O   0  0  0  0  0  1  0  0  0  0  0  0
  191.2460  176.5800  144.1040 C   0  0  1  0  0  3  0  0  0  0  0  0
  191.9460  175.7890  146.3550 C   0  0  0  0  0  3  0  0  0  0  0  0
  191.1910  176.6060  145.6180 C   0  0  0  0  0  0  0  0  0  0  0  0
  190.1200  177.4120  146.3590 C   0  0  1  0  0  0  0  0  0  0  0  0
  188.2700  177.1880  145.8410 C   0  0  1  0  0  3  0  0  0  0  0  0
  191.8080  175.8130  147.8460 C   0  0  0  0  0  2  0  0  0  0  0  0
  188.7700  177.0820  148.2210 C   0  0  0  0  0  2  0  0  0  0  0  0
  190.7540  178.1710  147.5430 C   0  0  2  0  0  3  0  0  0  0  0  0
  191.7830  177.2880  148.3080 C   0  0  0  0  0  2  0  0  0  0  0  0
  189.5780  178.3510  148.4560 C   0  0  0  0  0  2  0  0  0  0  0  0
  189.2630  178.1350  145.4940 O   0  0  0  0  0  0  0  0  0  0  0  0
  189.0730  176.5350  146.8850 N   0  0  2  0  0  0  0  0  0  0  0  0
  186.0400  178.0380  145.1180 C   0  0  0  0  0  1  0  0  0  0  0  0
  186.9360  177.8140  146.3350 C   0  0  0  0  0  2  0  0  0  0  0  0
  186.3190  179.1640  137.7660 N   0  0  0  0  0  2  0  0  0  0  0  0
  185.1560  178.3450  138.0950 C   0  0  0  0  0  2  0  0  0  0  0  0
  184.0270  179.2020  138.6630 C   0  0  2  0  0  3  0  0  0  0  0  0
  184.4820  180.5070  138.8460 O   0  0  0  0  0  1  0  0  0  0  0  0
  182.0040  179.0200  140.2180 C   0  0  0  0  0  2  0  0  0  0  0  0
  182.3880  178.8780  142.7110 C   0  0  0  0  0  2  0  0  0  0  0  0
  181.5090  178.4140  141.5350 C   0  0  1  0  0  3  0  0  0  0  0  0
  183.4930  178.6430  139.9950 C   0  0  2  0  0  3  0  0  0  0  0  0
  183.8380  178.4130  142.4930 C   0  0  0  0  0  2  0  0  0  0  0  0
  184.3790  179.0490  141.2000 C   0  0  0  0  0  2  0  0  0  0  0  0
  180.3160  179.8550  142.7170 C   0  0  0  0  0  1  0  0  0  0  0  0
  180.2030  178.8150  141.7900 O   0  0  0  0  0  0  0  0  0  0  0  0
  1 27  1  1  0  0  0
  1 18  1  0  0  0  0
  2  5  1  0  0  0  0
  4  3  1  0  0  0  0
  5  7  1  0  0  0  0
  6  5  2  0  0  0  0
  6 19  1  0  0  0  0
  6 24  1  0  0  0  0
  7  3  2  0  0  0  0
  8 16  1  6  0  0  0
  8  1  1  0  0  0  0
  8 23  1  0  0  0  0
  9  1  1  0  0  0  0
 10 11  1  0  0  0  0
 10 28  1  1  0  0  0
 12  2  2  0  0  0  0
 12 25  1  0  0  0  0
 15 13  1  0  0  0  0
 15 24  1  0  0  0  0
 17 13  1  6  0  0  0
 17 22  1  0  0  0  0
 17 26  1  0  0  0  0
 18 14  1  1  0  0  0
 18 11  1  0  0  0  0
 19  4  2  0  0  0  0
 20  7  1  0  0  0  0
 21 23  2  0  0  0  0
 22 16  1  1  0  0  0
 23 10  1  0  0  0  0
 24 22  1  0  0  0  0
 25 20  2  0  0  0  0
 26 44  1  6  0  0  0
 26  9  1  0  0  0  0
 28 30  1  0  0  0  0
 30 29  1  1  0  0  0
 30 32  1  0  0  0  0
 31 35  1  0  0  0  0
 32 31  2  0  0  0  0
 32 33  1  0  0  0  0
 33 40  1  6  0  0  0
 33 41  1  0  0  0  0
 33 37  1  0  0  0  0
 34 43  1  1  0  0  0
 34 41  1  0  0  0  0
 35 38  1  0  0  0  0
 36 39  1  0  0  0  0
 37 38  1  1  0  0  0
 37 39  1  0  0  0  0
 40 34  1  0  0  0  0
 41 36  1  1  0  0  0
 42 43  1  0  0  0  0
 44 45  1  0  0  0  0
 45 46  1  0  0  0  0
 46 47  1  1  0  0  0
 48 50  1  0  0  0  0
 50 55  1  1  0  0  0
 50 49  1  0  0  0  0
 51 46  1  6  0  0  0
 51 48  1  0  0  0  0
 51 53  1  0  0  0  0
 52 49  1  0  0  0  0
 53 52  1  0  0  0  0
 55 54  1  0  0  0  0
M  END
>  <MODEL>
4

>  <REMARK>
 VINA RESULT:      -6.9      3.873      7.928
  Name = 
  9 active torsions:
  status: ('A' for Active; 'I' for Inactive)
    1  A    between atoms: C_5  and  C_36
    2  A    between atoms: C_7  and  C_44
    3  A    between atoms: O_18  and  C_24
    4  A    between atoms: C_19  and  C_32
    5  A    between atoms: C_22  and  C_28
    6  A    between atoms: C_22  and  C_31
    7  A    between atoms: C_28  and  N_42
    8  A    between atoms: C_32  and  C_36
    9  A    between atoms: N_42  and  C_54
                            x       y       z     vdW  Elec       q    Type
                         _______ _______ _______ _____ _____    ______ ____

>  <TORSDO>
F 9

$$$$
=
 OpenBabel10232408453D

 55 63  0  0  1  0  0  0  0  0999 V2000
  190.5680  176.1730  138.3790 C   0  0  2  0  0  0  0  0  0  0  0  0
  193.8750  172.9780  135.8650 C   0  0  0  0  0  3  0  0  0  0  0  0
  196.4540  172.8470  138.4630 N   0  0  0  0  0  0  0  0  0  0  0  0
  196.9230  174.1180  138.4630 C   0  0  0  0  0  3  0  0  0  0  0  0
  194.9090  173.3850  136.7180 C   0  0  0  0  0  0  0  0  0  0  0  0
  195.3920  174.7010  136.7460 C   0  0  0  0  0  0  0  0  0  0  0  0
  195.5070  172.4390  137.5780 C   0  0  0  0  0  0  0  0  0  0  0  0
  191.9880  176.7260  138.6720 C   0  0  2  0  0  3  0  0  0  0  0  0
  190.1890  176.0470  136.8790 C   0  0  0  0  0  2  0  0  0  0  0  0
  190.9680  177.8850  140.7150 C   0  0  2  0  0  3  0  0  0  0  0  0
  189.7050  177.3190  140.4260 O   0  0  0  0  0  0  0  0  0  0  0  0
  193.4330  171.6530  135.8620 C   0  0  0  0  0  3  0  0  0  0  0  0
  193.0860  176.1710  134.3460 C   0  0  0  0  0  2  0  0  0  0  0  0
  188.2470  176.5470  138.8850 F   0  0  0  0  0  0  0  0  0  0  0  0
  194.5260  175.7660  134.6400 C   0  0  0  0  0  2  0  0  0  0  0  0
  193.1020  175.8340  138.1010 C   0  0  0  0  0  2  0  0  0  0  0  0
  192.3560  175.9040  135.6500 C   0  0  1  0  0  3  0  0  0  0  0  0
  189.5090  177.0940  139.0420 C   0  0  2  0  0  3  0  0  0  0  0  0
  196.3830  175.0380  137.6130 N   0  0  0  0  0  0  0  0  0  0  0  0
  195.0670  171.1120  137.5660 C   0  0  0  0  0  3  0  0  0  0  0  0
  193.1860  176.7230  140.8670 C   0  0  0  0  0  2  0  0  0  0  0  0
  193.4250  176.2800  136.6680 C   0  0  2  0  0  3  0  0  0  0  0  0
  192.0880  177.0210  140.1530 C   0  0  0  0  0  0  0  0  0  0  0  0
  194.6530  175.7620  136.0970 N   0  0  0  0  0  0  0  0  0  0  0  0
  194.0410  170.7130  136.7010 C   0  0  0  0  0  3  0  0  0  0  0  0
  191.0930  176.7510  135.8570 C   0  0  1  0  0  3  0  0  0  0  0  0
  190.4850  174.9060  138.9530 O   0  0  0  0  0  1  0  0  0  0  0  0
  191.0130  178.0260  142.2410 C   0  0  0  0  0  2  0  0  0  0  0  0
  190.1050  175.7920  142.3910 O   0  0  0  0  0  1  0  0  0  0  0  0
  190.1430  177.0310  143.0270 C   0  0  1  0  0  3  0  0  0  0  0  0
  191.3160  176.0240  144.9760 C   0  0  0  0  0  3  0  0  0  0  0  0
  190.4000  176.8780  144.5120 C   0  0  0  0  0  0  0  0  0  0  0  0
  189.4810  177.5320  145.5480 C   0  0  1  0  0  0  0  0  0  0  0  0
  187.5710  177.2660  145.3880 C   0  0  1  0  0  3  0  0  0  0  0  0
  191.4870  175.8680  146.4540 C   0  0  0  0  0  2  0  0  0  0  0  0
  188.5540  176.9130  147.5880 C   0  0  0  0  0  2  0  0  0  0  0  0
  190.3210  178.1820  146.6670 C   0  0  2  0  0  3  0  0  0  0  0  0
  191.5130  177.2750  147.0930 C   0  0  0  0  0  2  0  0  0  0  0  0
  189.3530  178.1890  147.8120 C   0  0  0  0  0  2  0  0  0  0  0  0
  188.4420  178.3010  144.9700 O   0  0  0  0  0  0  0  0  0  0  0  0
  188.5920  176.5420  146.1600 N   0  0  2  0  0  0  0  0  0  0  0  0
  185.3820  178.4520  145.2590 C   0  0  0  0  0  1  0  0  0  0  0  0
  186.3490  177.7560  146.2140 C   0  0  0  0  0  2  0  0  0  0  0  0
  190.3680  177.0440  134.6040 N   0  0  0  0  0  2  0  0  0  0  0  0
  189.0840  176.3500  134.5750 C   0  0  0  0  0  2  0  0  0  0  0  0
  187.9250  177.3400  134.6690 C   0  0  2  0  0  3  0  0  0  0  0  0
  188.2800  178.3910  135.5150 O   0  0  0  0  0  1  0  0  0  0  0  0
  186.0510  177.4190  136.4090 C   0  0  0  0  0  2  0  0  0  0  0  0
  185.0000  175.2510  137.1710 C   0  0  0  0  0  2  0  0  0  0  0  0
  184.7530  176.7380  136.8580 C   0  0  1  0  0  3  0  0  0  0  0  0
  186.6360  176.6710  135.1810 C   0  0  2  0  0  3  0  0  0  0  0  0
  185.4980  174.5290  135.9070 C   0  0  0  0  0  2  0  0  0  0  0  0
  186.8300  175.1600  135.4620 C   0  0  0  0  0  2  0  0  0  0  0  0
  182.9180  177.6000  137.7420 C   0  0  0  0  0  1  0  0  0  0  0  0
  184.2650  177.3450  138.0100 O   0  0  0  0  0  0  0  0  0  0  0  0
  1  8  1  0  0  0  0
  1 27  1  1  0  0  0
  1 18  1  0  0  0  0
  2  5  1  0  0  0  0
  3  4  1  0  0  0  0
  5  6  2  0  0  0  0
  5  7  1  0  0  0  0
  6 19  1  0  0  0  0
  7  3  2  0  0  0  0
  8 16  1  1  0  0  0
  8 23  1  0  0  0  0
  9  1  1  0  0  0  0
 10 28  1  1  0  0  0
 11 10  1  0  0  0  0
 12  2  2  0  0  0  0
 12 25  1  0  0  0  0
 13 15  1  0  0  0  0
 15 24  1  0  0  0  0
 17 13  1  6  0  0  0
 17 26  1  0  0  0  0
 17 22  1  0  0  0  0
 18 14  1  1  0  0  0
 18 11  1  0  0  0  0
 19  4  2  0  0  0  0
 20  7  1  0  0  0  0
 22 16  1  1  0  0  0
 23 10  1  0  0  0  0
 23 21  2  0  0  0  0
 24 22  1  0  0  0  0
 24  6  1  0  0  0  0
 25 20  2  0  0  0  0
 26 44  1  6  0  0  0
 26  9  1  0  0  0  0
 28 30  1  0  0  0  0
 30 29  1  6  0  0  0
 30 32  1  0  0  0  0
 31 35  1  0  0  0  0
 32 31  2  0  0  0  0
 33 32  1  6  0  0  0
 33 41  1  0  0  0  0
 33 37  1  0  0  0  0
 34 41  1  0  0  0  0
 34 43  1  1  0  0  0
 35 38  1  0  0  0  0
 36 39  1  0  0  0  0
 37 38  1  1  0  0  0
 37 39  1  0  0  0  0
 40 34  1  0  0  0  0
 40 33  1  0  0  0  0
 41 36  1  1  0  0  0
 42 43  1  0  0  0  0
 45 44  1  0  0  0  0
 45 46  1  0  0  0  0
 46 47  1  1  0  0  0
 48 50  1  0  0  0  0
 50 49  1  0  0  0  0
 50 55  1  1  0  0  0
 51 46  1  1  0  0  0
 51 53  1  0  0  0  0
 51 48  1  0  0  0  0
 52 49  1  0  0  0  0
 53 52  1  0  0  0  0
 54 55  1  0  0  0  0
M  END
>  <MODEL>
5

>  <REMARK>
 VINA RESULT:      -6.6      5.078      9.273
  Name = 
  9 active torsions:
  status: ('A' for Active; 'I' for Inactive)
    1  A    between atoms: C_5  and  C_36
    2  A    between atoms: C_7  and  C_44
    3  A    between atoms: O_18  and  C_24
    4  A    between atoms: C_19  and  C_32
    5  A    between atoms: C_22  and  C_28
    6  A    between atoms: C_22  and  C_31
    7  A    between atoms: C_28  and  N_42
    8  A    between atoms: C_32  and  C_36
    9  A    between atoms: N_42  and  C_54
                            x       y       z     vdW  Elec       q    Type
                         _______ _______ _______ _____ _____    ______ ____

>  <TORSDO>
F 9

$$$$
=
 OpenBabel10232408453D

 55 63  0  0  1  0  0  0  0  0999 V2000
  185.8710  178.0990  137.8520 C   0  0  2  0  0  0  0  0  0  0  0  0
  181.0780  179.4880  136.2530 C   0  0  0  0  0  3  0  0  0  0  0  0
  180.0510  181.2120  139.3170 N   0  0  0  0  0  0  0  0  0  0  0  0
  179.9820  180.1940  140.2080 C   0  0  0  0  0  3  0  0  0  0  0  0
  180.6990  179.6950  137.5850 C   0  0  0  0  0  0  0  0  0  0  0  0
  180.6420  178.6550  138.5250 C   0  0  0  0  0  0  0  0  0  0  0  0
  180.3420  180.9930  138.0080 C   0  0  0  0  0  0  0  0  0  0  0  0
  184.9440  177.8900  139.0790 C   0  0  2  0  0  3  0  0  0  0  0  0
  185.4690  177.3320  136.5640 C   0  0  0  0  0  2  0  0  0  0  0  0
  187.0520  178.0370  140.5260 C   0  0  2  0  0  3  0  0  0  0  0  0
  187.8440  178.2680  139.3780 O   0  0  0  0  0  0  0  0  0  0  0  0
  181.1080  180.5510  135.3470 C   0  0  0  0  0  3  0  0  0  0  0  0
  181.8760  175.9580  136.4180 C   0  0  0  0  0  2  0  0  0  0  0  0
  188.1710  177.9470  137.1680 F   0  0  0  0  0  0  0  0  0  0  0  0
  180.6830  176.5380  137.1700 C   0  0  0  0  0  2  0  0  0  0  0  0
  183.5050  178.3630  138.8220 C   0  0  0  0  0  2  0  0  0  0  0  0
  183.0270  176.8740  136.7900 C   0  0  1  0  0  3  0  0  0  0  0  0
  187.3140  177.6580  138.2150 C   0  0  2  0  0  3  0  0  0  0  0  0
  180.2880  178.9250  139.8090 N   0  0  0  0  0  0  0  0  0  0  0  0
  180.3650  182.0530  137.0960 C   0  0  0  0  0  3  0  0  0  0  0  0
  184.9370  179.2030  141.2070 C   0  0  0  0  0  2  0  0  0  0  0  0
  182.6860  177.2030  138.2380 C   0  0  2  0  0  3  0  0  0  0  0  0
  185.6180  178.4920  140.2930 C   0  0  0  0  0  0  0  0  0  0  0  0
  181.2460  177.3740  138.2310 N   0  0  0  0  0  0  0  0  0  0  0  0
  180.7350  181.8330  135.7630 C   0  0  0  0  0  3  0  0  0  0  0  0
  184.4140  176.2250  136.6970 C   0  0  1  0  0  3  0  0  0  0  0  0
  185.8780  179.4610  137.5590 O   0  0  0  0  0  1  0  0  0  0  0  0
  187.7530  178.7880  141.6650 C   0  0  0  0  0  2  0  0  0  0  0  0
  186.8750  176.9880  143.0150 O   0  0  0  0  0  1  0  0  0  0  0  0
  187.7140  178.0990  143.0390 C   0  0  1  0  0  3  0  0  0  0  0  0
  189.4260  178.4210  144.8130 C   0  0  0  0  0  3  0  0  0  0  0  0
  189.0330  177.7770  143.7120 C   0  0  0  0  0  0  0  0  0  0  0  0
  190.0610  176.8590  143.0450 C   0  0  1  0  0  0  0  0  0  0  0  0
  190.5630  177.2120  141.2100 C   0  0  1  0  0  3  0  0  0  0  0  0
  190.7660  178.1070  145.4030 C   0  0  0  0  0  2  0  0  0  0  0  0
  192.3720  176.8400  142.7960 C   0  0  0  0  0  2  0  0  0  0  0  0
  190.6410  175.8730  144.0800 C   0  0  2  0  0  3  0  0  0  0  0  0
  190.9340  176.5710  145.4400 C   0  0  0  0  0  2  0  0  0  0  0  0
  191.9690  175.5360  143.4720 C   0  0  0  0  0  2  0  0  0  0  0  0
  189.6240  176.3340  141.8050 O   0  0  0  0  0  0  0  0  0  0  0  0
  191.1680  177.6330  142.4810 N   0  0  2  0  0  0  0  0  0  0  0  0
  191.6510  177.4070  138.9750 C   0  0  0  0  0  1  0  0  0  0  0  0
  191.5380  176.5220  140.2150 C   0  0  0  0  0  2  0  0  0  0  0  0
  184.5280  175.2330  135.6090 N   0  0  0  0  0  2  0  0  0  0  0  0
  185.8220  175.3450  134.9420 C   0  0  0  0  0  2  0  0  0  0  0  0
  186.6860  174.1160  135.2160 C   0  0  2  0  0  3  0  0  0  0  0  0
  186.3630  173.5910  136.4670 O   0  0  0  0  0  1  0  0  0  0  0  0
  188.8970  174.1190  136.5030 C   0  0  0  0  0  2  0  0  0  0  0  0
  190.6140  175.8970  135.9770 C   0  0  0  0  0  2  0  0  0  0  0  0
  190.3940  174.4290  136.3860 C   0  0  1  0  0  3  0  0  0  0  0  0
  188.1900  174.4450  135.1600 C   0  0  2  0  0  3  0  0  0  0  0  0
  189.9710  176.1570  134.6030 C   0  0  0  0  0  2  0  0  0  0  0  0
  188.4560  175.9020  134.7040 C   0  0  0  0  0  2  0  0  0  0  0  0
  192.3830  174.1120  137.3010 C   0  0  0  0  0  1  0  0  0  0  0  0
  191.0250  174.2240  137.6080 O   0  0  0  0  0  0  0  0  0  0  0  0
  1 27  1  6  0  0  0
  1 18  1  0  0  0  0
  1  8  1  0  0  0  0
  2  5  1  0  0  0  0
  3  4  1  0  0  0  0
  5  7  1  0  0  0  0
  5  6  2  0  0  0  0
  6 19  1  0  0  0  0
  7  3  2  0  0  0  0
  8 16  1  6  0  0  0
  8 23  1  0  0  0  0
  9 26  1  0  0  0  0
  9  1  1  0  0  0  0
 10 28  1  1  0  0  0
 11 10  1  0  0  0  0
 12 25  1  0  0  0  0
 12  2  2  0  0  0  0
 13 15  1  0  0  0  0
 15 24  1  0  0  0  0
 17 13  1  1  0  0  0
 17 22  1  0  0  0  0
 18 14  1  6  0  0  0
 18 11  1  0  0  0  0
 19  4  2  0  0  0  0
 20  7  1  0  0  0  0
 22 16  1  6  0  0  0
 23 10  1  0  0  0  0
 23 21  2  0  0  0  0
 24 22  1  0  0  0  0
 24  6  1  0  0  0  0
 25 20  2  0  0  0  0
 26 44  1  6  0  0  0
 26 17  1  0  0  0  0
 28 30  1  0  0  0  0
 30 29  1  6  0  0  0
 30 32  1  0  0  0  0
 31 35  1  0  0  0  0
 32 31  2  0  0  0  0
 33 40  1  6  0  0  0
 33 32  1  0  0  0  0
 33 37  1  0  0  0  0
 34 43  1  6  0  0  0
 34 40  1  0  0  0  0
 34 41  1  0  0  0  0
 35 38  1  0  0  0  0
 36 39  1  0  0  0  0
 37 39  1  6  0  0  0
 37 38  1  0  0  0  0
 41 36  1  6  0  0  0
 41 33  1  0  0  0  0
 42 43  1  0  0  0  0
 45 46  1  0  0  0  0
 45 44  1  0  0  0  0
 46 47  1  1  0  0  0
 49 50  1  0  0  0  0
 50 48  1  0  0  0  0
 50 55  1  1  0  0  0
 51 46  1  1  0  0  0
 51 48  1  0  0  0  0
 52 53  1  0  0  0  0
 52 49  1  0  0  0  0
 53 51  1  0  0  0  0
 54 55  1  0  0  0  0
M  END
>  <MODEL>
6

>  <REMARK>
 VINA RESULT:      -6.5      2.265      4.054
  Name = 
  9 active torsions:
  status: ('A' for Active; 'I' for Inactive)
    1  A    between atoms: C_5  and  C_36
    2  A    between atoms: C_7  and  C_44
    3  A    between atoms: O_18  and  C_24
    4  A    between atoms: C_19  and  C_32
    5  A    between atoms: C_22  and  C_28
    6  A    between atoms: C_22  and  C_31
    7  A    between atoms: C_28  and  N_42
    8  A    between atoms: C_32  and  C_36
    9  A    between atoms: N_42  and  C_54
                            x       y       z     vdW  Elec       q    Type
                         _______ _______ _______ _____ _____    ______ ____

>  <TORSDO>
F 9

$$$$
=
 OpenBabel10232408453D

 55 63  0  0  1  0  0  0  0  0999 V2000
  188.5750  177.1640  140.2870 C   0  0  2  0  0  0  0  0  0  0  0  0
  189.1330  174.7420  135.6740 C   0  0  0  0  0  3  0  0  0  0  0  0
  192.6630  173.8390  136.0520 N   0  0  0  0  0  0  0  0  0  0  0  0
  193.2700  175.0490  136.0340 C   0  0  0  0  0  3  0  0  0  0  0  0
  190.5240  174.8730  135.7790 C   0  0  0  0  0  0  0  0  0  0  0  0
  191.1670  176.1200  135.7820 C   0  0  0  0  0  0  0  0  0  0  0  0
  191.3220  173.7130  135.8690 C   0  0  0  0  0  0  0  0  0  0  0  0
  189.9720  177.5860  139.7600 C   0  0  2  0  0  3  0  0  0  0  0  0
  187.3780  177.4720  139.3480 C   0  0  0  0  0  2  0  0  0  0  0  0
  190.5700  178.1430  142.1870 C   0  0  2  0  0  3  0  0  0  0  0  0
  189.2970  177.7050  142.6180 O   0  0  0  0  0  0  0  0  0  0  0  0
  188.5360  173.4800  135.6620 C   0  0  0  0  0  3  0  0  0  0  0  0
  188.2180  178.2480  135.6710 C   0  0  0  0  0  2  0  0  0  0  0  0
  187.1020  177.4250  142.1700 F   0  0  0  0  0  0  0  0  0  0  0  0
  189.4530  177.7490  134.9300 C   0  0  0  0  0  2  0  0  0  0  0  0
  190.3550  176.8690  138.4560 C   0  0  0  0  0  2  0  0  0  0  0  0
  188.3500  177.6390  137.0560 C   0  0  1  0  0  3  0  0  0  0  0  0
  188.2940  177.8820  141.6350 C   0  0  2  0  0  3  0  0  0  0  0  0
  192.5190  176.1810  135.9100 N   0  0  0  0  0  0  0  0  0  0  0  0
  190.7210  172.4510  135.8480 C   0  0  0  0  0  3  0  0  0  0  0  0
  192.1980  176.9440  140.7020 C   0  0  0  0  0  2  0  0  0  0  0  0
  189.8590  177.6940  137.2590 C   0  0  2  0  0  3  0  0  0  0  0  0
  190.9680  177.4510  140.8910 C   0  0  0  0  0  0  0  0  0  0  0  0
  190.4020  177.3340  135.9630 N   0  0  0  0  0  0  0  0  0  0  0  0
  189.3300  172.3310  135.7310 C   0  0  0  0  0  3  0  0  0  0  0  0
  187.6290  178.4170  138.1650 C   0  0  1  0  0  3  0  0  0  0  0  0
  188.6070  175.7890  140.5080 O   0  0  0  0  0  1  0  0  0  0  0  0
  191.5210  177.8490  143.3530 C   0  0  0  0  0  2  0  0  0  0  0  0
  192.1230  175.5320  143.6790 O   0  0  0  0  0  1  0  0  0  0  0  0
  191.2590  176.5360  144.1100 C   0  0  1  0  0  3  0  0  0  0  0  0
  191.9330  175.7820  146.3820 C   0  0  0  0  0  3  0  0  0  0  0  0
  191.1860  176.5870  145.6220 C   0  0  0  0  0  0  0  0  0  0  0  0
  190.1080  177.4060  146.3370 C   0  0  1  0  0  0  0  0  0  0  0  0
  188.2640  177.1750  145.8020 C   0  0  1  0  0  3  0  0  0  0  0  0
  191.7770  175.8300  147.8700 C   0  0  0  0  0  2  0  0  0  0  0  0
  188.7360  177.1080  148.1890 C   0  0  0  0  0  2  0  0  0  0  0  0
  190.7290  178.1830  147.5170 C   0  0  2  0  0  3  0  0  0  0  0  0
  191.7480  177.3130  148.3080 C   0  0  0  0  0  2  0  0  0  0  0  0
  189.5420  178.3800  148.4120 C   0  0  0  0  0  2  0  0  0  0  0  0
  189.2620  178.1160  145.4510 O   0  0  0  0  0  0  0  0  0  0  0  0
  189.0540  176.5390  146.8660 N   0  0  2  0  0  0  0  0  0  0  0  0
  185.9840  177.8680  145.0680 C   0  0  0  0  0  1  0  0  0  0  0  0
  186.9250  177.8100  146.2700 C   0  0  0  0  0  2  0  0  0  0  0  0
  186.3800  179.0640  137.7140 N   0  0  0  0  0  2  0  0  0  0  0  0
  185.2190  178.2630  138.0890 C   0  0  0  0  0  2  0  0  0  0  0  0
  184.1970  179.1050  138.8490 C   0  0  2  0  0  3  0  0  0  0  0  0
  184.8570  179.9130  139.7740 O   0  0  0  0  0  1  0  0  0  0  0  0
  182.8160  176.9540  138.7560 C   0  0  0  0  0  2  0  0  0  0  0  0
  180.5350  176.9180  139.8420 C   0  0  0  0  0  2  0  0  0  0  0  0
  181.8020  176.1020  139.5280 C   0  0  1  0  0  3  0  0  0  0  0  0
  183.1520  178.2320  139.5700 C   0  0  2  0  0  3  0  0  0  0  0  0
  180.8980  178.1280  140.7190 C   0  0  0  0  0  2  0  0  0  0  0  0
  181.8780  179.0300  139.9460 C   0  0  0  0  0  2  0  0  0  0  0  0
  182.2440  175.0370  137.6410 C   0  0  0  0  0  1  0  0  0  0  0  0
  181.4270  174.9970  138.7730 O   0  0  0  0  0  0  0  0  0  0  0  0
  1 27  1  1  0  0  0
  1 18  1  0  0  0  0
  2  5  1  0  0  0  0
  4  3  1  0  0  0  0
  5  6  2  0  0  0  0
  5  7  1  0  0  0  0
  6 19  1  0  0  0  0
  6 24  1  0  0  0  0
  7  3  2  0  0  0  0
  8 16  1  6  0  0  0
  8  1  1  0  0  0  0
  8 23  1  0  0  0  0
  9  1  1  0  0  0  0
 10 11  1  0  0  0  0
 10 28  1  1  0  0  0
 12  2  2  0  0  0  0
 12 25  1  0  0  0  0
 15 13  1  0  0  0  0
 15 24  1  0  0  0  0
 17 13  1  6  0  0  0
 17 22  1  0  0  0  0
 17 26  1  0  0  0  0
 18 14  1  1  0  0  0
 18 11  1  0  0  0  0
 19  4  2  0  0  0  0
 20  7  1  0  0  0  0
 21 23  2  0  0  0  0
 22 16  1  1  0  0  0
 23 10  1  0  0  0  0
 24 22  1  0  0  0  0
 25 20  2  0  0  0  0
 26 44  1  6  0  0  0
 26  9  1  0  0  0  0
 28 30  1  0  0  0  0
 30 29  1  1  0  0  0
 30 32  1  0  0  0  0
 31 35  1  0  0  0  0
 32 33  1  0  0  0  0
 32 31  2  0  0  0  0
 33 40  1  6  0  0  0
 33 41  1  0  0  0  0
 33 37  1  0  0  0  0
 34 43  1  1  0  0  0
 34 41  1  0  0  0  0
 35 38  1  0  0  0  0
 36 39  1  0  0  0  0
 37 38  1  1  0  0  0
 37 39  1  0  0  0  0
 40 34  1  0  0  0  0
 41 36  1  1  0  0  0
 42 43  1  0  0  0  0
 44 45  1  0  0  0  0
 45 46  1  0  0  0  0
 46 47  1  1  0  0  0
 48 50  1  0  0  0  0
 48 51  1  0  0  0  0
 49 52  1  0  0  0  0
 50 55  1  6  0  0  0
 50 49  1  0  0  0  0
 51 46  1  6  0  0  0
 51 53  1  0  0  0  0
 53 52  1  0  0  0  0
 54 55  1  0  0  0  0
M  END
>  <MODEL>
7

>  <REMARK>
 VINA RESULT:      -6.3      3.460      7.434
  Name = 
  9 active torsions:
  status: ('A' for Active; 'I' for Inactive)
    1  A    between atoms: C_5  and  C_36
    2  A    between atoms: C_7  and  C_44
    3  A    between atoms: O_18  and  C_24
    4  A    between atoms: C_19  and  C_32
    5  A    between atoms: C_22  and  C_28
    6  A    between atoms: C_22  and  C_31
    7  A    between atoms: C_28  and  N_42
    8  A    between atoms: C_32  and  C_36
    9  A    between atoms: N_42  and  C_54
                            x       y       z     vdW  Elec       q    Type
                         _______ _______ _______ _____ _____    ______ ____

>  <TORSDO>
F 9

$$$$
=
 OpenBabel10232408453D

 55 63  0  0  1  0  0  0  0  0999 V2000
  185.7280  176.9140  137.8120 C   0  0  2  0  0  0  0  0  0  0  0  0
  180.6520  175.7560  138.4080 C   0  0  0  0  0  3  0  0  0  0  0  0
  180.2300  173.9050  135.2760 N   0  0  0  0  0  0  0  0  0  0  0  0
  180.3940  174.8770  134.3460 C   0  0  0  0  0  3  0  0  0  0  0  0
  180.5560  175.4910  137.0360 C   0  0  0  0  0  0  0  0  0  0  0  0
  180.7430  176.4810  136.0600 C   0  0  0  0  0  0  0  0  0  0  0  0
  180.2450  174.1840  136.6060 C   0  0  0  0  0  0  0  0  0  0  0  0
  185.0920  177.0860  136.4070 C   0  0  2  0  0  3  0  0  0  0  0  0
  185.0930  177.7600  138.9480 C   0  0  0  0  0  2  0  0  0  0  0  0
  187.4510  176.8000  135.4530 C   0  0  2  0  0  3  0  0  0  0  0  0
  187.9710  176.6060  136.7540 O   0  0  0  0  0  0  0  0  0  0  0  0
  180.4460  174.7420  139.3460 C   0  0  0  0  0  3  0  0  0  0  0  0
  181.6090  179.2470  138.2590 C   0  0  0  0  0  2  0  0  0  0  0  0
  187.8340  177.0320  138.9660 F   0  0  0  0  0  0  0  0  0  0  0  0
  180.5810  178.6640  137.2960 C   0  0  0  0  0  2  0  0  0  0  0  0
  183.6130  176.6710  136.3700 C   0  0  0  0  0  2  0  0  0  0  0  0
  182.7750  178.2780  138.1840 C   0  0  1  0  0  3  0  0  0  0  0  0
  187.2320  177.2920  137.7470 C   0  0  2  0  0  3  0  0  0  0  0  0
  180.6590  176.1550  134.7440 N   0  0  0  0  0  0  0  0  0  0  0  0
  180.0310  173.1730  137.5480 C   0  0  0  0  0  3  0  0  0  0  0  0
  185.4840  175.6640  134.3880 C   0  0  0  0  0  2  0  0  0  0  0  0
  182.7360  177.8840  136.7130 C   0  0  2  0  0  3  0  0  0  0  0  0
  185.9830  176.4020  135.3940 C   0  0  0  0  0  0  0  0  0  0  0  0
  181.3220  177.7570  136.4190 N   0  0  0  0  0  0  0  0  0  0  0  0
  180.1180  173.4520  138.9180 C   0  0  0  0  0  3  0  0  0  0  0  0
  184.1360  178.8890  138.5430 C   0  0  1  0  0  3  0  0  0  0  0  0
  185.6170  175.5700  138.1610 O   0  0  0  0  0  1  0  0  0  0  0  0
  188.3470  175.9690  134.5260 C   0  0  0  0  0  2  0  0  0  0  0  0
  188.2930  173.5560  134.6330 O   0  0  0  0  0  1  0  0  0  0  0  0
  188.9300  174.6860  135.1400 C   0  0  1  0  0  3  0  0  0  0  0  0
  191.0190  173.4960  134.5020 C   0  0  0  0  0  3  0  0  0  0  0  0
  190.4360  174.5150  135.1370 C   0  0  0  0  0  0  0  0  0  0  0  0
  191.3330  175.3740  136.0330 C   0  0  1  0  0  0  0  0  0  0  0  0
  190.8970  175.5190  137.9120 C   0  0  1  0  0  3  0  0  0  0  0  0
  192.5060  173.3400  134.5820 C   0  0  0  0  0  2  0  0  0  0  0  0
  193.2120  175.0140  137.3530 C   0  0  0  0  0  2  0  0  0  0  0  0
  192.5670  175.8540  135.2420 C   0  0  2  0  0  3  0  0  0  0  0  0
  193.1530  174.7240  134.3460 C   0  0  0  0  0  2  0  0  0  0  0  0
  193.5600  176.0950  136.3390 C   0  0  0  0  0  2  0  0  0  0  0  0
  190.6180  176.3350  136.7880 O   0  0  0  0  0  0  0  0  0  0  0  0
  191.8020  174.6120  137.1920 N   0  0  2  0  0  0  0  0  0  0  0  0
  190.4220  176.7100  140.0510 C   0  0  0  0  0  1  0  0  0  0  0  0
  191.5410  176.2780  139.1060 C   0  0  0  0  0  2  0  0  0  0  0  0
  184.0570  179.9330  139.5850 N   0  0  0  0  0  2  0  0  0  0  0  0
  184.9690  179.6350  140.6850 C   0  0  0  0  0  2  0  0  0  0  0  0
  184.3000  178.7350  141.7210 C   0  0  2  0  0  3  0  0  0  0  0  0
  182.9670  179.1140  141.8740 O   0  0  0  0  0  1  0  0  0  0  0  0
  186.2030  177.7890  143.1450 C   0  0  0  0  0  2  0  0  0  0  0  0
  185.9110  177.6710  145.6520 C   0  0  0  0  0  2  0  0  0  0  0  0
  186.9070  177.9060  144.5020 C   0  0  1  0  0  3  0  0  0  0  0  0
  185.0180  178.7900  143.0830 C   0  0  2  0  0  3  0  0  0  0  0  0
  184.7990  178.7330  145.6050 C   0  0  0  0  0  2  0  0  0  0  0  0
  184.0410  178.6050  144.2700 C   0  0  0  0  0  2  0  0  0  0  0  0
  188.1280  176.5090  143.2990 C   0  0  0  0  0  1  0  0  0  0  0  0
  187.9150  176.9560  144.6050 O   0  0  0  0  0  0  0  0  0  0  0  0
  1 27  1  1  0  0  0
  1  9  1  0  0  0  0
  2 12  1  0  0  0  0
  3  7  1  0  0  0  0
  4 19  1  0  0  0  0
  4  3  2  0  0  0  0
  5  2  2  0  0  0  0
  6 24  1  0  0  0  0
  6  5  1  0  0  0  0
  7  5  1  0  0  0  0
  7 20  2  0  0  0  0
  8 16  1  1  0  0  0
  8  1  1  0  0  0  0
 10 28  1  6  0  0  0
 10 11  1  0  0  0  0
 11 18  1  0  0  0  0
 15 13  1  0  0  0  0
 17 13  1  6  0  0  0
 17 26  1  0  0  0  0
 18  1  1  0  0  0  0
 18 14  1  1  0  0  0
 19  6  2  0  0  0  0
 20 25  1  0  0  0  0
 21 23  2  0  0  0  0
 22 16  1  1  0  0  0
 22 17  1  0  0  0  0
 23 10  1  0  0  0  0
 23  8  1  0  0  0  0
 24 22  1  0  0  0  0
 24 15  1  0  0  0  0
 25 12  2  0  0  0  0
 26  9  1  0  0  0  0
 26 44  1  1  0  0  0
 28 30  1  0  0  0  0
 30 29  1  6  0  0  0
 31 35  1  0  0  0  0
 31 32  2  0  0  0  0
 32 30  1  0  0  0  0
 33 32  1  6  0  0  0
 33 40  1  0  0  0  0
 33 41  1  0  0  0  0
 34 43  1  1  0  0  0
 37 38  1  6  0  0  0
 37 33  1  0  0  0  0
 37 39  1  0  0  0  0
 38 35  1  0  0  0  0
 39 36  1  0  0  0  0
 40 34  1  0  0  0  0
 41 36  1  1  0  0  0
 41 34  1  0  0  0  0
 43 42  1  0  0  0  0
 44 45  1  0  0  0  0
 45 46  1  0  0  0  0
 46 47  1  1  0  0  0
 48 50  1  0  0  0  0
 50 55  1  6  0  0  0
 50 49  1  0  0  0  0
 51 46  1  6  0  0  0
 51 48  1  0  0  0  0
 51 53  1  0  0  0  0
 52 49  1  0  0  0  0
 53 52  1  0  0  0  0
 54 55  1  0  0  0  0
M  END
>  <MODEL>
8

>  <REMARK>
 VINA RESULT:      -6.2      3.652      7.741
  Name = 
  9 active torsions:
  status: ('A' for Active; 'I' for Inactive)
    1  A    between atoms: C_5  and  C_36
    2  A    between atoms: C_7  and  C_44
    3  A    between atoms: O_18  and  C_24
    4  A    between atoms: C_19  and  C_32
    5  A    between atoms: C_22  and  C_28
    6  A    between atoms: C_22  and  C_31
    7  A    between atoms: C_28  and  N_42
    8  A    between atoms: C_32  and  C_36
    9  A    between atoms: N_42  and  C_54
                            x       y       z     vdW  Elec       q    Type
                         _______ _______ _______ _____ _____    ______ ____

>  <TORSDO>
F 9

$$$$
=
 OpenBabel10232408453D

 55 63  0  0  1  0  0  0  0  0999 V2000
  188.3550  177.3190  140.2560 C   0  0  2  0  0  0  0  0  0  0  0  0
  188.9650  174.7780  135.7140 C   0  0  0  0  0  3  0  0  0  0  0  0
  192.5100  173.9510  136.1210 N   0  0  0  0  0  0  0  0  0  0  0  0
  193.0950  175.1710  136.0690 C   0  0  0  0  0  3  0  0  0  0  0  0
  190.3530  174.9380  135.8160 C   0  0  0  0  0  0  0  0  0  0  0  0
  190.9730  176.1960  135.7850 C   0  0  0  0  0  0  0  0  0  0  0  0
  191.1710  173.7950  135.9400 C   0  0  0  0  0  0  0  0  0  0  0  0
  189.7450  177.7510  139.7190 C   0  0  2  0  0  3  0  0  0  0  0  0
  187.1540  177.5770  139.3070 C   0  0  0  0  0  2  0  0  0  0  0  0
  190.3290  178.3870  142.1300 C   0  0  2  0  0  3  0  0  0  0  0  0
  189.0630  177.9380  142.5720 O   0  0  0  0  0  0  0  0  0  0  0  0
  188.3900  173.5050  135.7370 C   0  0  0  0  0  3  0  0  0  0  0  0
  187.9860  178.2650  135.6110 C   0  0  0  0  0  2  0  0  0  0  0  0
  186.8750  177.6050  142.1300 F   0  0  0  0  0  0  0  0  0  0  0  0
  189.2310  177.7680  134.8860 C   0  0  0  0  0  2  0  0  0  0  0  0
  190.1430  177.0050  138.4360 C   0  0  0  0  0  2  0  0  0  0  0  0
  188.1260  177.6980  137.0130 C   0  0  1  0  0  3  0  0  0  0  0  0
  188.0590  178.0690  141.5830 C   0  0  2  0  0  3  0  0  0  0  0  0
  192.3230  176.2850  135.9120 N   0  0  0  0  0  0  0  0  0  0  0  0
  190.5940  172.5230  135.9550 C   0  0  0  0  0  3  0  0  0  0  0  0
  191.9810  177.1770  140.6810 C   0  0  0  0  0  2  0  0  0  0  0  0
  189.6340  177.7860  137.2160 C   0  0  2  0  0  3  0  0  0  0  0  0
  190.7420  177.6670  140.8540 C   0  0  0  0  0  0  0  0  0  0  0  0
  190.1850  177.4000  135.9310 N   0  0  0  0  0  0  0  0  0  0  0  0
  189.2060  172.3740  135.8390 C   0  0  0  0  0  3  0  0  0  0  0  0
  187.3890  178.4930  138.0990 C   0  0  1  0  0  3  0  0  0  0  0  0
  188.4120  175.9510  140.5160 O   0  0  0  0  0  1  0  0  0  0  0  0
  191.2830  178.1440  143.3050 C   0  0  0  0  0  2  0  0  0  0  0  0
  192.1010  175.8820  143.5360 O   0  0  0  0  0  1  0  0  0  0  0  0
  191.1450  176.7810  144.0030 C   0  0  1  0  0  3  0  0  0  0  0  0
  191.8480  175.9620  146.2430 C   0  0  0  0  0  3  0  0  0  0  0  0
  191.0630  176.7590  145.5150 C   0  0  0  0  0  0  0  0  0  0  0  0
  189.9380  177.4860  146.2590 C   0  0  1  0  0  0  0  0  0  0  0  0
  188.1110  177.1790  145.7010 C   0  0  1  0  0  3  0  0  0  0  0  0
  191.6830  175.9350  147.7310 C   0  0  0  0  0  2  0  0  0  0  0  0
  188.5760  177.0300  148.0860 C   0  0  0  0  0  2  0  0  0  0  0  0
  190.5100  178.2410  147.4760 C   0  0  2  0  0  3  0  0  0  0  0  0
  191.5720  177.3920  148.2340 C   0  0  0  0  0  2  0  0  0  0  0  0
  189.3110  178.3320  148.3720 C   0  0  0  0  0  2  0  0  0  0  0  0
  189.0590  178.1870  145.4000 O   0  0  0  0  0  0  0  0  0  0  0  0
  188.9310  176.5390  146.7410 N   0  0  2  0  0  0  0  0  0  0  0  0
  185.8630  177.9600  144.9600 C   0  0  0  0  0  1  0  0  0  0  0  0
  186.7380  177.7190  146.1880 C   0  0  0  0  0  2  0  0  0  0  0  0
  186.1300  179.1050  137.6280 N   0  0  0  0  0  2  0  0  0  0  0  0
  184.9820  178.5090  138.3060 C   0  0  0  0  0  2  0  0  0  0  0  0
  183.8000  178.3620  137.3510 C   0  0  2  0  0  3  0  0  0  0  0  0
  182.6120  178.5830  138.0460 O   0  0  0  0  0  1  0  0  0  0  0  0
  184.3220  175.8730  137.6310 C   0  0  0  0  0  2  0  0  0  0  0  0
  184.9870  174.5280  135.5980 C   0  0  0  0  0  2  0  0  0  0  0  0
  184.2350  174.5070  136.9410 C   0  0  1  0  0  3  0  0  0  0  0  0
  183.7650  176.9720  136.6870 C   0  0  2  0  0  3  0  0  0  0  0  0
  184.3520  175.5710  134.6610 C   0  0  0  0  0  2  0  0  0  0  0  0
  184.4720  176.9630  135.3080 C   0  0  0  0  0  2  0  0  0  0  0  0
  184.3200  172.3170  137.2400 C   0  0  0  0  0  1  0  0  0  0  0  0
  184.8090  173.5260  137.7410 O   0  0  0  0  0  0  0  0  0  0  0  0
  1 27  1  1  0  0  0
  1 18  1  0  0  0  0
  2 12  2  0  0  0  0
  2  5  1  0  0  0  0
  4  3  1  0  0  0  0
  5  7  1  0  0  0  0
  6  5  2  0  0  0  0
  6 19  1  0  0  0  0
  6 24  1  0  0  0  0
  7 20  1  0  0  0  0
  7  3  2  0  0  0  0
  8 16  1  6  0  0  0
  8  1  1  0  0  0  0
  8 23  1  0  0  0  0
  9  1  1  0  0  0  0
 10 11  1  0  0  0  0
 10 28  1  1  0  0  0
 12 25  1  0  0  0  0
 15 13  1  0  0  0  0
 15 24  1  0  0  0  0
 17 13  1  6  0  0  0
 17 22  1  0  0  0  0
 17 26  1  0  0  0  0
 18 14  1  1  0  0  0
 18 11  1  0  0  0  0
 19  4  2  0  0  0  0
 21 23  2  0  0  0  0
 22 16  1  1  0  0  0
 23 10  1  0  0  0  0
 24 22  1  0  0  0  0
 25 20  2  0  0  0  0
 26 44  1  6  0  0  0
 26  9  1  0  0  0  0
 28 30  1  0  0  0  0
 30 29  1  1  0  0  0
 30 32  1  0  0  0  0
 31 35  1  0  0  0  0
 32 31  2  0  0  0  0
 32 33  1  0  0  0  0
 33 40  1  6  0  0  0
 33 41  1  0  0  0  0
 33 37  1  0  0  0  0
 34 43  1  1  0  0  0
 34 41  1  0  0  0  0
 35 38  1  0  0  0  0
 36 39  1  0  0  0  0
 37 38  1  1  0  0  0
 37 39  1  0  0  0  0
 40 34  1  0  0  0  0
 41 36  1  1  0  0  0
 42 43  1  0  0  0  0
 44 45  1  0  0  0  0
 46 47  1  1  0  0  0
 46 45  1  0  0  0  0
 49 50  1  0  0  0  0
 50 48  1  0  0  0  0
 50 55  1  1  0  0  0
 51 46  1  1  0  0  0
 51 48  1  0  0  0  0
 52 53  1  0  0  0  0
 52 49  1  0  0  0  0
 53 51  1  0  0  0  0
 54 55  1  0  0  0  0
M  END
>  <MODEL>
9

>  <REMARK>
 VINA RESULT:      -6.0      3.319      7.008
  Name = 
  9 active torsions:
  status: ('A' for Active; 'I' for Inactive)
    1  A    between atoms: C_5  and  C_36
    2  A    between atoms: C_7  and  C_44
    3  A    between atoms: O_18  and  C_24
    4  A    between atoms: C_19  and  C_32
    5  A    between atoms: C_22  and  C_28
    6  A    between atoms: C_22  and  C_31
    7  A    between atoms: C_28  and  N_42
    8  A    between atoms: C_32  and  C_36
    9  A    between atoms: N_42  and  C_54
                            x       y       z     vdW  Elec       q    Type
                         _______ _______ _______ _____ _____    ______ ____

>  <TORSDO>
F 9

$$$$
