=
 OpenBabel10232412123D

 39 43  0  0  1  0  0  0  0  0999 V2000
  191.5660  176.9120  141.1860 N   0  0  0  0  0  2  0  0  0  0  0  0
  189.6990  176.7280  142.7700 C   0  0  0  0  0  2  0  0  0  0  0  0
  188.4010  178.9360  142.4870 C   0  0  2  0  0  3  0  0  0  0  0  0
  191.2310  176.9050  138.7020 C   0  0  2  0  0  3  0  0  0  0  0  0
  192.1320  177.0470  139.8800 C   0  0  0  0  0  0  0  0  0  0  0  0
  189.9260  177.6740  138.9250 C   0  0  2  0  0  3  0  0  0  0  0  0
  187.9640  177.4180  140.4500 O   0  0  0  0  0  0  0  0  0  0  0  0
  190.1490  176.6040  141.3080 C   0  0  1  0  0  3  0  0  0  0  0  0
  188.9770  179.9660  141.7710 F   0  0  0  0  0  0  0  0  0  0  0  0
  189.3710  177.5560  140.3760 C   0  0  1  0  0  3  0  0  0  0  0  0
  189.4820  178.1570  143.2540 C   0  0  0  0  0  2  0  0  0  0  0  0
  187.4200  178.0820  141.6080 C   0  0  2  0  0  3  0  0  0  0  0  0
  193.3350  177.3640  139.7490 O   0  0  0  0  0  0  0  0  0  0  0  0
  185.1570  179.0860  143.7590 C   0  0  2  0  0  3  0  0  0  0  0  0
  184.9890  177.9780  140.7980 C   0  0  0  0  0  2  0  0  0  0  0  0
  184.1560  179.3050  142.8170 C   0  0  1  0  0  3  0  0  0  0  0  0
  185.4660  179.3660  142.3820 C   0  0  2  0  0  3  0  0  0  0  0  0
  183.8470  178.1170  141.8910 C   0  0  0  0  0  2  0  0  0  0  0  0
  186.1570  178.8890  141.2250 C   0  0  1  0  0  3  0  0  0  0  0  0
  185.5970  178.5360  145.0430 C   0  0  0  0  0  0  0  0  0  0  0  0
  186.4630  177.5700  145.1720 N   0  0  0  0  0  0  0  0  0  0  0  0
  185.6960  178.3220  147.2010 C   0  0  0  0  0  3  0  0  0  0  0  0
  185.0960  178.9970  146.2840 N   0  0  0  0  0  0  0  0  0  0  0  0
  186.6610  177.3550  146.6030 C   0  0  2  0  0  3  0  0  0  0  0  0
  188.2360  178.6720  147.7920 O   0  0  0  0  0  0  0  0  0  0  0  0
  188.0650  177.7430  147.0030 C   0  0  0  0  0  0  0  0  0  0  0  0
  189.2440  177.0610  146.3800 C   0  0  0  0  0  2  0  0  0  0  0  0
  190.3640  176.9680  147.3940 C   0  0  0  0  0  2  0  0  0  0  0  0
  191.6340  176.8870  146.7040 N   0  0  0  0  0  2  0  0  0  0  0  0
  192.2610  175.6500  147.1370 C   0  0  0  0  0  1  0  0  0  0  0  0
  188.9790  177.3420  137.9280 O   0  0  0  0  0  0  0  0  0  0  0  0
  189.1110  178.2790  136.8910 C   0  0  0  0  0  2  0  0  0  0  0  0
  188.9830  177.5550  135.5610 C   0  0  0  0  0  1  0  0  0  0  0  0
  190.9760  175.4890  138.4680 N   0  0  0  0  0  2  0  0  0  0  0  0
  190.7360  174.0670  136.4900 C   0  0  0  0  0  1  0  0  0  0  0  0
  191.6680  175.0050  137.2570 C   0  0  1  0  0  0  0  0  0  0  0  0
  192.0450  176.0690  136.4030 O   0  0  0  0  0  1  0  0  0  0  0  0
  192.8750  174.2940  137.6630 N   0  0  0  0  0  0  0  0  0  0  0  0
  194.0500  174.7390  137.3910 C   0  0  0  0  0  2  0  0  0  0  0  0
  1  8  1  0  0  0  0
  2 11  1  0  0  0  0
  3  9  1  6  0  0  0
  3 11  1  0  0  0  0
  4 34  1  1  0  0  0
  4  6  1  0  0  0  0
  4  5  1  0  0  0  0
  5  1  1  0  0  0  0
  6 31  1  6  0  0  0
  6 10  1  0  0  0  0
  8  2  1  1  0  0  0
 10  7  1  6  0  0  0
 10  8  1  0  0  0  0
 12  7  1  6  0  0  0
 12  3  1  0  0  0  0
 13  5  2  0  0  0  0
 14 20  1  6  0  0  0
 15 19  1  0  0  0  0
 15 18  1  0  0  0  0
 16 18  1  6  0  0  0
 16 14  1  0  0  0  0
 17 16  1  0  0  0  0
 17 14  1  0  0  0  0
 19 12  1  0  0  0  0
 19 17  1  0  0  0  0
 20 21  2  0  0  0  0
 20 23  1  0  0  0  0
 21 24  1  0  0  0  0
 23 22  2  0  0  0  0
 24 26  1  0  0  0  0
 24 22  1  0  0  0  0
 26 25  2  0  0  0  0
 27 26  1  0  0  0  0
 27 28  1  0  0  0  0
 29 30  1  0  0  0  0
 29 28  1  0  0  0  0
 32 31  1  0  0  0  0
 33 32  1  0  0  0  0
 35 36  1  0  0  0  0
 36 38  1  0  0  0  0
 36 34  1  0  0  0  0
 37 36  1  0  0  0  0
 39 38  2  0  0  0  0
M  END
>  <MODEL>
1

>  <REMARK>
 VINA RESULT:      -7.2      0.000      0.000
  Name = 
  11 active torsions:
  status: ('A' for Active; 'I' for Inactive)
    1  A    between atoms: N_1  and  C_21
    2  A    between atoms: C_2  and  C_3
    3  A    between atoms: C_12  and  N_31
    4  A    between atoms: C_16  and  O_28
    5  A    between atoms: N_18  and  C_33
    6  A    between atoms: C_21  and  N_31
    7  A    between atoms: C_27  and  C_36
    8  A    between atoms: O_28  and  C_32
    9  A    between atoms: C_30  and  C_35
   10  A    between atoms: C_33  and  C_34
   11  A    between atoms: C_34  and  C_36
                            x       y       z     vdW  Elec       q    Type
                         _______ _______ _______ _____ _____    ______ ____

>  <TORSDO>
F 11

$$$$
=
 OpenBabel10232412123D

 39 43  0  0  1  0  0  0  0  0999 V2000
  191.8370  176.7370  139.5030 N   0  0  0  0  0  2  0  0  0  0  0  0
  189.6560  176.8320  140.6270 C   0  0  0  0  0  2  0  0  0  0  0  0
  188.3570  178.6530  139.3460 C   0  0  2  0  0  3  0  0  0  0  0  0
  192.1090  175.8980  137.1580 C   0  0  2  0  0  3  0  0  0  0  0  0
  192.6930  176.5200  138.3780 C   0  0  0  0  0  0  0  0  0  0  0  0
  190.7530  176.5260  136.8280 C   0  0  2  0  0  3  0  0  0  0  0  0
  188.4960  176.5220  137.9010 O   0  0  0  0  0  0  0  0  0  0  0  0
  190.4490  176.3070  139.4230 C   0  0  1  0  0  3  0  0  0  0  0  0
  189.0360  179.4660  138.4610 F   0  0  0  0  0  0  0  0  0  0  0  0
  189.8720  176.8060  138.0820 C   0  0  1  0  0  3  0  0  0  0  0  0
  189.2600  178.3010  140.5400 C   0  0  0  0  0  2  0  0  0  0  0  0
  187.6590  177.4470  138.6240 C   0  0  2  0  0  3  0  0  0  0  0  0
  193.8750  176.9280  138.4030 O   0  0  0  0  0  0  0  0  0  0  0  0
  184.9100  178.8140  139.7800 C   0  0  2  0  0  3  0  0  0  0  0  0
  185.4930  176.7870  137.4180 C   0  0  0  0  0  2  0  0  0  0  0  0
  184.1510  178.5880  138.6360 C   0  0  1  0  0  3  0  0  0  0  0  0
  185.5220  178.6640  138.4860 C   0  0  2  0  0  3  0  0  0  0  0  0
  184.1220  177.1350  138.1350 C   0  0  0  0  0  2  0  0  0  0  0  0
  186.4860  177.9230  137.7340 C   0  0  1  0  0  3  0  0  0  0  0  0
  185.0610  178.7720  141.2360 C   0  0  0  0  0  0  0  0  0  0  0  0
  185.0430  177.6790  141.9470 N   0  0  0  0  0  0  0  0  0  0  0  0
  185.3410  179.5510  143.2430 C   0  0  0  0  0  3  0  0  0  0  0  0
  185.2210  179.9380  142.0210 N   0  0  0  0  0  0  0  0  0  0  0  0
  185.2730  178.0640  143.3370 C   0  0  2  0  0  3  0  0  0  0  0  0
  187.2290  176.7400  143.1110 O   0  0  0  0  0  0  0  0  0  0  0  0
  186.6050  177.5360  143.8140 C   0  0  0  0  0  0  0  0  0  0  0  0
  187.1260  177.9090  145.1680 C   0  0  0  0  0  2  0  0  0  0  0  0
  188.6390  177.9240  145.1370 C   0  0  0  0  0  2  0  0  0  0  0  0
  189.1510  177.0350  146.1580 N   0  0  0  0  0  2  0  0  0  0  0  0
  188.3300  177.2470  147.3390 C   0  0  0  0  0  1  0  0  0  0  0  0
  190.0900  175.7770  135.8270 O   0  0  0  0  0  0  0  0  0  0  0  0
  190.0460  176.5670  134.6670 C   0  0  0  0  0  2  0  0  0  0  0  0
  188.6080  176.9960  134.4250 C   0  0  0  0  0  1  0  0  0  0  0  0
  191.9870  174.4610  137.3690 N   0  0  0  0  0  2  0  0  0  0  0  0
  194.1750  173.3610  137.3800 C   0  0  0  0  0  1  0  0  0  0  0  0
  192.9460  173.7050  136.5380 C   0  0  1  0  0  0  0  0  0  0  0  0
  192.3840  172.5030  136.0430 O   0  0  0  0  0  1  0  0  0  0  0  0
  193.3310  174.5340  135.4010 N   0  0  0  0  0  0  0  0  0  0  0  0
  194.5200  174.5090  134.9140 C   0  0  0  0  0  2  0  0  0  0  0  0
  3  9  1  6  0  0  0
  3 11  1  0  0  0  0
  4 34  1  1  0  0  0
  4  5  1  0  0  0  0
  5 13  2  0  0  0  0
  5  1  1  0  0  0  0
  6 31  1  6  0  0  0
  6  4  1  0  0  0  0
  6 10  1  0  0  0  0
  8  1  1  0  0  0  0
  8  2  1  1  0  0  0
 10  7  1  6  0  0  0
 10  8  1  0  0  0  0
 11  2  1  0  0  0  0
 12  7  1  6  0  0  0
 12  3  1  0  0  0  0
 14 20  1  1  0  0  0
 15 19  1  0  0  0  0
 15 18  1  0  0  0  0
 16 18  1  1  0  0  0
 16 14  1  0  0  0  0
 17 16  1  0  0  0  0
 17 14  1  0  0  0  0
 19 17  1  0  0  0  0
 19 12  1  0  0  0  0
 20 21  2  0  0  0  0
 20 23  1  0  0  0  0
 21 24  1  0  0  0  0
 22 24  1  0  0  0  0
 23 22  2  0  0  0  0
 24 26  1  0  0  0  0
 25 26  2  0  0  0  0
 26 27  1  0  0  0  0
 28 27  1  0  0  0  0
 28 29  1  0  0  0  0
 29 30  1  0  0  0  0
 32 31  1  0  0  0  0
 33 32  1  0  0  0  0
 36 34  1  0  0  0  0
 36 35  1  0  0  0  0
 37 36  1  0  0  0  0
 38 36  1  0  0  0  0
 39 38  2  0  0  0  0
M  END
>  <MODEL>
2

>  <REMARK>
 VINA RESULT:      -6.0      2.130      3.159
  Name = 
  11 active torsions:
  status: ('A' for Active; 'I' for Inactive)
    1  A    between atoms: N_1  and  C_21
    2  A    between atoms: C_2  and  C_3
    3  A    between atoms: C_12  and  N_31
    4  A    between atoms: C_16  and  O_28
    5  A    between atoms: N_18  and  C_33
    6  A    between atoms: C_21  and  N_31
    7  A    between atoms: C_27  and  C_36
    8  A    between atoms: O_28  and  C_32
    9  A    between atoms: C_30  and  C_35
   10  A    between atoms: C_33  and  C_34
   11  A    between atoms: C_34  and  C_36
                            x       y       z     vdW  Elec       q    Type
                         _______ _______ _______ _____ _____    ______ ____

>  <TORSDO>
F 11

$$$$
=
 OpenBabel10232412123D

 39 43  0  0  1  0  0  0  0  0999 V2000
  184.1960  177.3930  136.8030 N   0  0  0  0  0  2  0  0  0  0  0  0
  184.4320  178.7100  138.8620 C   0  0  0  0  0  2  0  0  0  0  0  0
  182.0830  179.6910  139.2650 C   0  0  2  0  0  3  0  0  0  0  0  0
  182.8240  175.2990  136.6940 C   0  0  2  0  0  3  0  0  0  0  0  0
  183.6470  176.3360  136.0110 C   0  0  0  0  0  0  0  0  0  0  0  0
  181.8460  175.9450  137.6780 C   0  0  2  0  0  3  0  0  0  0  0  0
  182.0720  177.1770  139.8390 O   0  0  0  0  0  0  0  0  0  0  0  0
  183.9620  177.3880  138.2390 C   0  0  1  0  0  3  0  0  0  0  0  0
  181.1390  179.6080  138.2610 F   0  0  0  0  0  0  0  0  0  0  0  0
  182.4590  177.1340  138.4780 C   0  0  1  0  0  3  0  0  0  0  0  0
  183.4830  179.8860  138.6590 C   0  0  0  0  0  2  0  0  0  0  0  0
  181.9340  178.5320  140.3130 C   0  0  2  0  0  3  0  0  0  0  0  0
  183.7890  176.3470  134.7690 O   0  0  0  0  0  0  0  0  0  0  0  0
  181.8730  179.0390  143.5540 C   0  0  2  0  0  3  0  0  0  0  0  0
  180.0700  177.3240  141.5950 C   0  0  0  0  0  2  0  0  0  0  0  0
  180.5510  178.6410  143.7320 C   0  0  1  0  0  3  0  0  0  0  0  0
  180.9150  179.1030  142.4820 C   0  0  2  0  0  3  0  0  0  0  0  0
  180.1960  177.2520  143.1750 C   0  0  0  0  0  2  0  0  0  0  0  0
  180.6370  178.6840  141.1430 C   0  0  1  0  0  3  0  0  0  0  0  0
  183.2800  178.9990  143.9600 C   0  0  0  0  0  0  0  0  0  0  0  0
  183.7460  179.5370  145.0520 N   0  0  0  0  0  0  0  0  0  0  0  0
  185.3900  178.5090  143.8210 C   0  0  0  0  0  3  0  0  0  0  0  0
  184.2830  178.3810  143.1770 N   0  0  0  0  0  0  0  0  0  0  0  0
  185.1740  179.2340  145.1070 C   0  0  2  0  0  3  0  0  0  0  0  0
  184.8060  178.3870  147.2920 O   0  0  0  0  0  0  0  0  0  0  0  0
  185.4680  178.3020  146.2580 C   0  0  0  0  0  0  0  0  0  0  0  0
  186.6110  177.3370  146.1770 C   0  0  0  0  0  2  0  0  0  0  0  0
  187.6260  177.6700  147.2490 C   0  0  0  0  0  2  0  0  0  0  0  0
  188.8890  178.0070  146.6280 N   0  0  0  0  0  2  0  0  0  0  0  0
  188.9990  177.1790  145.4390 C   0  0  0  0  0  1  0  0  0  0  0  0
  181.2450  174.9620  138.4970 O   0  0  0  0  0  0  0  0  0  0  0  0
  179.9830  174.6740  137.9550 C   0  0  0  0  0  2  0  0  0  0  0  0
  180.0180  173.2790  137.3510 C   0  0  0  0  0  1  0  0  0  0  0  0
  183.7100  174.3600  137.3710 N   0  0  0  0  0  2  0  0  0  0  0  0
  183.6480  171.9120  137.3480 C   0  0  0  0  0  1  0  0  0  0  0  0
  183.9770  173.1680  136.5400 C   0  0  1  0  0  0  0  0  0  0  0  0
  183.1980  173.1630  135.3570 O   0  0  0  0  0  1  0  0  0  0  0  0
  185.3850  173.1690  136.1620 N   0  0  0  0  0  0  0  0  0  0  0  0
  185.7580  173.2590  134.9350 C   0  0  0  0  0  2  0  0  0  0  0  0
  1  8  1  0  0  0  0
  3  9  1  6  0  0  0
  3 12  1  0  0  0  0
  4 34  1  1  0  0  0
  4  6  1  0  0  0  0
  5  4  1  0  0  0  0
  5  1  1  0  0  0  0
  6 10  1  0  0  0  0
  6 31  1  1  0  0  0
  8 10  1  0  0  0  0
  8  2  1  6  0  0  0
 10  7  1  1  0  0  0
 11  2  1  0  0  0  0
 11  3  1  0  0  0  0
 12  7  1  6  0  0  0
 12 19  1  0  0  0  0
 13  5  2  0  0  0  0
 14 16  1  0  0  0  0
 14 20  1  6  0  0  0
 15 18  1  0  0  0  0
 16 18  1  6  0  0  0
 17 14  1  0  0  0  0
 17 16  1  0  0  0  0
 19 15  1  0  0  0  0
 19 17  1  0  0  0  0
 20 21  2  0  0  0  0
 21 24  1  0  0  0  0
 22 24  1  0  0  0  0
 23 22  2  0  0  0  0
 23 20  1  0  0  0  0
 24 26  1  0  0  0  0
 26 25  2  0  0  0  0
 27 26  1  0  0  0  0
 27 28  1  0  0  0  0
 29 28  1  0  0  0  0
 30 29  1  0  0  0  0
 32 31  1  0  0  0  0
 33 32  1  0  0  0  0
 36 35  1  0  0  0  0
 36 34  1  0  0  0  0
 37 36  1  0  0  0  0
 38 36  1  0  0  0  0
 39 38  2  0  0  0  0
M  END
>  <MODEL>
3

>  <REMARK>
 VINA RESULT:      -5.8      4.957      6.627
  Name = 
  11 active torsions:
  status: ('A' for Active; 'I' for Inactive)
    1  A    between atoms: N_1  and  C_21
    2  A    between atoms: C_2  and  C_3
    3  A    between atoms: C_12  and  N_31
    4  A    between atoms: C_16  and  O_28
    5  A    between atoms: N_18  and  C_33
    6  A    between atoms: C_21  and  N_31
    7  A    between atoms: C_27  and  C_36
    8  A    between atoms: O_28  and  C_32
    9  A    between atoms: C_30  and  C_35
   10  A    between atoms: C_33  and  C_34
   11  A    between atoms: C_34  and  C_36
                            x       y       z     vdW  Elec       q    Type
                         _______ _______ _______ _____ _____    ______ ____

>  <TORSDO>
F 11

$$$$
=
 OpenBabel10232412123D

 39 43  0  0  1  0  0  0  0  0999 V2000
  184.2390  172.7690  137.2010 N   0  0  0  0  0  2  0  0  0  0  0  0
  186.6240  173.1320  137.6600 C   0  0  0  0  0  2  0  0  0  0  0  0
  187.5150  174.2840  135.5340 C   0  0  2  0  0  3  0  0  0  0  0  0
  182.6020  174.6560  137.0090 C   0  0  2  0  0  3  0  0  0  0  0  0
  182.9080  173.2020  136.9090 C   0  0  0  0  0  0  0  0  0  0  0  0
  183.7100  175.4870  136.3590 C   0  0  2  0  0  3  0  0  0  0  0  0
  186.1040  175.9620  136.8910 O   0  0  0  0  0  0  0  0  0  0  0  0
  185.2230  173.7560  137.6200 C   0  0  1  0  0  3  0  0  0  0  0  0
  186.7210  174.3170  134.4050 F   0  0  0  0  0  0  0  0  0  0  0  0
  185.1440  174.9510  136.6460 C   0  0  1  0  0  3  0  0  0  0  0  0
  187.2910  172.9700  136.2990 C   0  0  0  0  0  2  0  0  0  0  0  0
  187.4020  175.6060  136.3730 C   0  0  2  0  0  3  0  0  0  0  0  0
  182.0600  172.3810  136.4960 O   0  0  0  0  0  0  0  0  0  0  0  0
  188.9460  178.0890  137.8610 C   0  0  2  0  0  3  0  0  0  0  0  0
  187.0150  177.9280  135.3560 C   0  0  0  0  0  2  0  0  0  0  0  0
  188.8580  178.9700  136.7870 C   0  0  1  0  0  3  0  0  0  0  0  0
  188.8160  177.6180  136.5070 C   0  0  2  0  0  3  0  0  0  0  0  0
  187.4450  179.1860  136.2210 C   0  0  0  0  0  2  0  0  0  0  0  0
  188.0350  176.8050  135.6280 C   0  0  1  0  0  3  0  0  0  0  0  0
  188.8050  177.8070  139.2910 C   0  0  0  0  0  0  0  0  0  0  0  0
  189.5160  176.9320  139.9430 N   0  0  0  0  0  0  0  0  0  0  0  0
  188.0000  177.9980  141.2980 C   0  0  0  0  0  3  0  0  0  0  0  0
  187.8480  178.4590  140.1060 N   0  0  0  0  0  0  0  0  0  0  0  0
  189.1010  176.9920  141.3430 C   0  0  2  0  0  3  0  0  0  0  0  0
  191.3890  177.3950  141.8220 O   0  0  0  0  0  0  0  0  0  0  0  0
  190.2250  177.5240  142.2000 C   0  0  0  0  0  0  0  0  0  0  0  0
  189.9330  178.1290  143.5390 C   0  0  0  0  0  2  0  0  0  0  0  0
  191.1150  177.9060  144.4580 C   0  0  0  0  0  2  0  0  0  0  0  0
  190.6590  177.2920  145.6870 N   0  0  0  0  0  2  0  0  0  0  0  0
  191.7510  176.4590  146.1620 C   0  0  0  0  0  1  0  0  0  0  0  0
  183.5470  176.8580  136.6660 O   0  0  0  0  0  0  0  0  0  0  0  0
  182.8930  177.4610  135.5800 C   0  0  0  0  0  2  0  0  0  0  0  0
  181.7940  178.3660  136.1140 C   0  0  0  0  0  1  0  0  0  0  0  0
  182.4310  175.0090  138.4130 N   0  0  0  0  0  2  0  0  0  0  0  0
  180.2190  175.3470  137.4210 C   0  0  0  0  0  1  0  0  0  0  0  0
  181.0470  175.4350  138.7020 C   0  0  1  0  0  0  0  0  0  0  0  0
  180.4410  174.6230  139.6910 O   0  0  0  0  0  1  0  0  0  0  0  0
  181.0750  176.8090  139.1900 N   0  0  0  0  0  0  0  0  0  0  0  0
  182.0500  177.2590  139.8980 C   0  0  0  0  0  2  0  0  0  0  0  0
  1  8  1  0  0  0  0
  3  9  1  6  0  0  0
  3 11  1  0  0  0  0
  3 12  1  0  0  0  0
  4 34  1  1  0  0  0
  5  4  1  0  0  0  0
  5  1  1  0  0  0  0
  6 10  1  0  0  0  0
  6 31  1  1  0  0  0
  6  4  1  0  0  0  0
  8  2  1  6  0  0  0
 10  7  1  1  0  0  0
 10  8  1  0  0  0  0
 11  2  1  0  0  0  0
 12  7  1  6  0  0  0
 13  5  2  0  0  0  0
 14 20  1  1  0  0  0
 15 19  1  0  0  0  0
 15 18  1  0  0  0  0
 16 18  1  1  0  0  0
 16 14  1  0  0  0  0
 17 16  1  0  0  0  0
 17 14  1  0  0  0  0
 19 12  1  0  0  0  0
 19 17  1  0  0  0  0
 20 21  2  0  0  0  0
 20 23  1  0  0  0  0
 21 24  1  0  0  0  0
 22 24  1  0  0  0  0
 23 22  2  0  0  0  0
 24 26  1  0  0  0  0
 25 26  2  0  0  0  0
 26 27  1  0  0  0  0
 27 28  1  0  0  0  0
 28 29  1  0  0  0  0
 29 30  1  0  0  0  0
 32 33  1  0  0  0  0
 32 31  1  0  0  0  0
 34 36  1  0  0  0  0
 35 36  1  0  0  0  0
 36 38  1  0  0  0  0
 36 37  1  0  0  0  0
 38 39  2  0  0  0  0
M  END
>  <MODEL>
4

>  <REMARK>
 VINA RESULT:      -5.6      4.690      7.799
  Name = 
  11 active torsions:
  status: ('A' for Active; 'I' for Inactive)
    1  A    between atoms: N_1  and  C_21
    2  A    between atoms: C_2  and  C_3
    3  A    between atoms: C_12  and  N_31
    4  A    between atoms: C_16  and  O_28
    5  A    between atoms: N_18  and  C_33
    6  A    between atoms: C_21  and  N_31
    7  A    between atoms: C_27  and  C_36
    8  A    between atoms: O_28  and  C_32
    9  A    between atoms: C_30  and  C_35
   10  A    between atoms: C_33  and  C_34
   11  A    between atoms: C_34  and  C_36
                            x       y       z     vdW  Elec       q    Type
                         _______ _______ _______ _____ _____    ______ ____

>  <TORSDO>
F 11

$$$$
=
 OpenBabel10232412123D

 39 43  0  0  1  0  0  0  0  0999 V2000
  192.2740  176.5560  138.0220 N   0  0  0  0  0  2  0  0  0  0  0  0
  190.2600  176.8710  139.3920 C   0  0  0  0  0  2  0  0  0  0  0  0
  188.6930  178.2780  137.9080 C   0  0  2  0  0  3  0  0  0  0  0  0
  192.2820  175.1650  135.9390 C   0  0  2  0  0  3  0  0  0  0  0  0
  192.9840  176.0880  136.8730 C   0  0  0  0  0  0  0  0  0  0  0  0
  190.8580  175.6540  135.6650 C   0  0  2  0  0  3  0  0  0  0  0  0
  188.7690  175.8590  137.0210 O   0  0  0  0  0  0  0  0  0  0  0  0
  190.9170  176.0830  138.2510 C   0  0  1  0  0  3  0  0  0  0  0  0
  189.1970  178.8620  136.7620 F   0  0  0  0  0  0  0  0  0  0  0  0
  190.1360  176.2160  136.9270 C   0  0  1  0  0  3  0  0  0  0  0  0
  189.7660  178.2610  139.0080 C   0  0  0  0  0  2  0  0  0  0  0  0
  187.9800  176.9120  137.6100 C   0  0  2  0  0  3  0  0  0  0  0  0
  194.1310  176.5200  136.6270 O   0  0  0  0  0  0  0  0  0  0  0  0
  185.3390  178.4710  138.7740 C   0  0  2  0  0  3  0  0  0  0  0  0
  185.7130  175.9190  136.9370 C   0  0  0  0  0  2  0  0  0  0  0  0
  184.4460  177.9440  137.8460 C   0  0  1  0  0  3  0  0  0  0  0  0
  185.7780  178.0070  137.4840 C   0  0  2  0  0  3  0  0  0  0  0  0
  184.4330  176.4100  137.7360 C   0  0  0  0  0  2  0  0  0  0  0  0
  186.6720  177.1190  136.8090 C   0  0  1  0  0  3  0  0  0  0  0  0
  185.6880  178.8070  140.1560 C   0  0  0  0  0  0  0  0  0  0  0  0
  184.9270  179.4910  140.9620 N   0  0  0  0  0  0  0  0  0  0  0  0
  186.8970  178.8600  141.9580 C   0  0  0  0  0  3  0  0  0  0  0  0
  186.9180  178.4280  140.7460 N   0  0  0  0  0  0  0  0  0  0  0  0
  185.6140  179.5630  142.2500 C   0  0  2  0  0  3  0  0  0  0  0  0
  183.8780  178.1080  142.9580 O   0  0  0  0  0  0  0  0  0  0  0  0
  184.8490  178.7860  143.2950 C   0  0  0  0  0  0  0  0  0  0  0  0
  185.2150  178.9030  144.7430 C   0  0  0  0  0  2  0  0  0  0  0  0
  186.1220  177.7540  145.1270 C   0  0  0  0  0  2  0  0  0  0  0  0
  187.2090  178.2510  145.9430 N   0  0  0  0  0  2  0  0  0  0  0  0
  188.4370  177.7800  145.3260 C   0  0  0  0  0  1  0  0  0  0  0  0
  190.1150  174.6610  134.9840 O   0  0  0  0  0  0  0  0  0  0  0  0
  188.9850  175.2840  134.4300 C   0  0  0  0  0  2  0  0  0  0  0  0
  187.8600  174.2650  134.3460 C   0  0  0  0  0  1  0  0  0  0  0  0
  192.2780  173.8230  136.5100 N   0  0  0  0  0  2  0  0  0  0  0  0
  193.8100  173.5030  134.6270 C   0  0  0  0  0  1  0  0  0  0  0  0
  193.4210  173.0230  136.0250 C   0  0  1  0  0  0  0  0  0  0  0  0
  194.5470  173.1410  136.8750 O   0  0  0  0  0  1  0  0  0  0  0  0
  193.0220  171.6200  135.9830 N   0  0  0  0  0  0  0  0  0  0  0  0
  193.8110  170.7030  135.5490 C   0  0  0  0  0  2  0  0  0  0  0  0
  1  8  1  0  0  0  0
  3  9  1  6  0  0  0
  3 11  1  0  0  0  0
  4 34  1  1  0  0  0
  4  5  1  0  0  0  0
  5  1  1  0  0  0  0
  6 31  1  1  0  0  0
  6  4  1  0  0  0  0
  6 10  1  0  0  0  0
  8  2  1  1  0  0  0
 10  7  1  1  0  0  0
 10  8  1  0  0  0  0
 11  2  1  0  0  0  0
 12  7  1  6  0  0  0
 12  3  1  0  0  0  0
 13  5  2  0  0  0  0
 14 20  1  1  0  0  0
 15 18  1  0  0  0  0
 16 18  1  1  0  0  0
 16 14  1  0  0  0  0
 17 16  1  0  0  0  0
 17 14  1  0  0  0  0
 19 15  1  0  0  0  0
 19 17  1  0  0  0  0
 19 12  1  0  0  0  0
 20 23  1  0  0  0  0
 20 21  2  0  0  0  0
 21 24  1  0  0  0  0
 22 24  1  0  0  0  0
 23 22  2  0  0  0  0
 24 26  1  0  0  0  0
 25 26  2  0  0  0  0
 26 27  1  0  0  0  0
 27 28  1  0  0  0  0
 28 29  1  0  0  0  0
 30 29  1  0  0  0  0
 32 31  1  0  0  0  0
 33 32  1  0  0  0  0
 35 36  1  0  0  0  0
 36 34  1  0  0  0  0
 36 37  1  0  0  0  0
 38 36  1  0  0  0  0
 39 38  2  0  0  0  0
M  END
>  <MODEL>
5

>  <REMARK>
 VINA RESULT:      -5.4      2.680      4.387
  Name = 
  11 active torsions:
  status: ('A' for Active; 'I' for Inactive)
    1  A    between atoms: N_1  and  C_21
    2  A    between atoms: C_2  and  C_3
    3  A    between atoms: C_12  and  N_31
    4  A    between atoms: C_16  and  O_28
    5  A    between atoms: N_18  and  C_33
    6  A    between atoms: C_21  and  N_31
    7  A    between atoms: C_27  and  C_36
    8  A    between atoms: O_28  and  C_32
    9  A    between atoms: C_30  and  C_35
   10  A    between atoms: C_33  and  C_34
   11  A    between atoms: C_34  and  C_36
                            x       y       z     vdW  Elec       q    Type
                         _______ _______ _______ _____ _____    ______ ____

>  <TORSDO>
F 11

$$$$
=
 OpenBabel10232412123D

 39 43  0  0  1  0  0  0  0  0999 V2000
  187.5520  178.0680  137.9590 N   0  0  0  0  0  2  0  0  0  0  0  0
  185.9220  176.5690  136.8990 C   0  0  0  0  0  2  0  0  0  0  0  0
  187.1000  175.7580  134.7550 C   0  0  2  0  0  3  0  0  0  0  0  0
  189.7070  177.2430  138.9330 C   0  0  2  0  0  3  0  0  0  0  0  0
  188.8100  178.3730  138.5660 C   0  0  0  0  0  0  0  0  0  0  0  0
  189.7670  176.2120  137.8030 C   0  0  2  0  0  3  0  0  0  0  0  0
  188.1480  174.5930  136.8030 O   0  0  0  0  0  0  0  0  0  0  0  0
  187.1860  176.6740  137.7610 C   0  0  1  0  0  3  0  0  0  0  0  0
  188.2580  176.3880  134.3460 F   0  0  0  0  0  0  0  0  0  0  0  0
  188.3900  175.9510  137.1220 C   0  0  1  0  0  3  0  0  0  0  0  0
  186.1470  176.7740  135.4050 C   0  0  0  0  0  2  0  0  0  0  0  0
  187.3960  174.4550  135.5800 C   0  0  2  0  0  3  0  0  0  0  0  0
  189.1690  179.5630  138.6980 O   0  0  0  0  0  0  0  0  0  0  0  0
  185.9190  171.6040  134.9100 C   0  0  2  0  0  3  0  0  0  0  0  0
  188.9290  172.4020  135.4850 C   0  0  0  0  0  2  0  0  0  0  0  0
  187.0740  170.9400  134.5080 C   0  0  1  0  0  3  0  0  0  0  0  0
  187.0610  172.3180  134.4040 C   0  0  2  0  0  3  0  0  0  0  0  0
  188.2400  170.9730  135.5100 C   0  0  0  0  0  2  0  0  0  0  0  0
  188.0090  173.3490  134.6890 C   0  0  1  0  0  3  0  0  0  0  0  0
  184.6770  171.6400  135.6850 C   0  0  0  0  0  0  0  0  0  0  0  0
  184.4350  172.4840  136.6490 N   0  0  0  0  0  0  0  0  0  0  0  0
  182.6800  171.0460  136.2940 C   0  0  0  0  0  3  0  0  0  0  0  0
  183.6140  170.7310  135.4670 N   0  0  0  0  0  0  0  0  0  0  0  0
  183.0790  172.2190  137.1250 C   0  0  2  0  0  3  0  0  0  0  0  0
  181.0640  173.1750  136.3140 O   0  0  0  0  0  0  0  0  0  0  0  0
  182.1740  173.3850  136.8040 C   0  0  0  0  0  0  0  0  0  0  0  0
  182.6540  174.7910  136.9990 C   0  0  0  0  0  2  0  0  0  0  0  0
  181.5260  175.6320  137.5570 C   0  0  0  0  0  2  0  0  0  0  0  0
  181.4310  175.4230  138.9860 N   0  0  0  0  0  2  0  0  0  0  0  0
  182.5720  176.1000  139.5790 C   0  0  0  0  0  1  0  0  0  0  0  0
  190.4130  175.0330  138.2410 O   0  0  0  0  0  0  0  0  0  0  0  0
  191.7330  175.0710  137.7640 C   0  0  0  0  0  2  0  0  0  0  0  0
  191.9560  173.8770  136.8500 C   0  0  0  0  0  1  0  0  0  0  0  0
  189.2310  176.6410  140.1720 N   0  0  0  0  0  2  0  0  0  0  0  0
  191.5140  177.2780  140.7850 C   0  0  0  0  0  1  0  0  0  0  0  0
  190.1120  176.9700  141.3110 C   0  0  1  0  0  0  0  0  0  0  0  0
  189.6410  178.0920  142.0350 O   0  0  0  0  0  1  0  0  0  0  0  0
  190.1530  175.8260  142.2140 N   0  0  0  0  0  0  0  0  0  0  0  0
  190.8490  175.8380  143.2940 C   0  0  0  0  0  2  0  0  0  0  0  0
  1  5  1  0  0  0  0
  3  9  1  1  0  0  0
  3 11  1  0  0  0  0
  3 12  1  0  0  0  0
  4 34  1  1  0  0  0
  5 13  2  0  0  0  0
  5  4  1  0  0  0  0
  6 31  1  1  0  0  0
  6  4  1  0  0  0  0
  8  2  1  6  0  0  0
  8  1  1  0  0  0  0
 10  7  1  1  0  0  0
 10  8  1  0  0  0  0
 10  6  1  0  0  0  0
 11  2  1  0  0  0  0
 12  7  1  1  0  0  0
 14 20  1  1  0  0  0
 15 18  1  0  0  0  0
 16 14  1  0  0  0  0
 16 18  1  1  0  0  0
 17 16  1  0  0  0  0
 17 19  1  0  0  0  0
 17 14  1  0  0  0  0
 19 15  1  0  0  0  0
 19 12  1  0  0  0  0
 20 21  2  0  0  0  0
 21 24  1  0  0  0  0
 22 24  1  0  0  0  0
 23 20  1  0  0  0  0
 23 22  2  0  0  0  0
 25 26  2  0  0  0  0
 26 27  1  0  0  0  0
 26 24  1  0  0  0  0
 27 28  1  0  0  0  0
 28 29  1  0  0  0  0
 29 30  1  0  0  0  0
 32 31  1  0  0  0  0
 33 32  1  0  0  0  0
 34 36  1  0  0  0  0
 35 36  1  0  0  0  0
 36 37  1  0  0  0  0
 36 38  1  0  0  0  0
 38 39  2  0  0  0  0
M  END
>  <MODEL>
6

>  <REMARK>
 VINA RESULT:      -5.3      4.743      8.868
  Name = 
  11 active torsions:
  status: ('A' for Active; 'I' for Inactive)
    1  A    between atoms: N_1  and  C_21
    2  A    between atoms: C_2  and  C_3
    3  A    between atoms: C_12  and  N_31
    4  A    between atoms: C_16  and  O_28
    5  A    between atoms: N_18  and  C_33
    6  A    between atoms: C_21  and  N_31
    7  A    between atoms: C_27  and  C_36
    8  A    between atoms: O_28  and  C_32
    9  A    between atoms: C_30  and  C_35
   10  A    between atoms: C_33  and  C_34
   11  A    between atoms: C_34  and  C_36
                            x       y       z     vdW  Elec       q    Type
                         _______ _______ _______ _____ _____    ______ ____

>  <TORSDO>
F 11

$$$$
=
 OpenBabel10232412123D

 39 43  0  0  1  0  0  0  0  0999 V2000
  187.0030  178.4120  139.6860 N   0  0  0  0  0  2  0  0  0  0  0  0
  186.7250  177.1720  137.5850 C   0  0  0  0  0  2  0  0  0  0  0  0
  188.6360  178.0250  136.0820 C   0  0  2  0  0  3  0  0  0  0  0  0
  188.9540  178.0500  141.2150 C   0  0  2  0  0  3  0  0  0  0  0  0
  187.7180  178.8020  140.8610 C   0  0  0  0  0  0  0  0  0  0  0  0
  189.8220  177.8220  139.9750 C   0  0  2  0  0  3  0  0  0  0  0  0
  189.6010  176.4620  137.8910 O   0  0  0  0  0  0  0  0  0  0  0  0
  187.4880  177.2790  138.9120 C   0  0  1  0  0  3  0  0  0  0  0  0
  189.3480  179.1430  136.4700 F   0  0  0  0  0  0  0  0  0  0  0  0
  189.0050  177.4610  138.6980 C   0  0  1  0  0  3  0  0  0  0  0  0
  187.1660  178.1600  136.5110 C   0  0  0  0  0  2  0  0  0  0  0  0
  189.3610  176.6930  136.4880 C   0  0  2  0  0  3  0  0  0  0  0  0
  187.3520  179.8040  141.5120 O   0  0  0  0  0  0  0  0  0  0  0  0
  190.2450  173.8420  135.1290 C   0  0  2  0  0  3  0  0  0  0  0  0
  191.8650  176.1460  136.5760 C   0  0  0  0  0  2  0  0  0  0  0  0
  191.5890  174.1700  134.9800 C   0  0  1  0  0  3  0  0  0  0  0  0
  190.6810  175.2100  135.0320 C   0  0  2  0  0  3  0  0  0  0  0  0
  192.2990  174.6550  136.2540 C   0  0  0  0  0  2  0  0  0  0  0  0
  190.6610  176.4860  135.6750 C   0  0  1  0  0  3  0  0  0  0  0  0
  189.2040  172.8970  135.5420 C   0  0  0  0  0  0  0  0  0  0  0  0
  188.3200  173.1350  136.4700 N   0  0  0  0  0  0  0  0  0  0  0  0
  188.0640  171.0500  135.5410 C   0  0  0  0  0  3  0  0  0  0  0  0
  189.0760  171.6070  134.9740 N   0  0  0  0  0  0  0  0  0  0  0  0
  187.4430  171.9690  136.5400 C   0  0  2  0  0  3  0  0  0  0  0  0
  185.3740  171.4990  135.4790 O   0  0  0  0  0  0  0  0  0  0  0  0
  186.0510  172.3320  136.0820 C   0  0  0  0  0  0  0  0  0  0  0  0
  185.5260  173.7210  136.2840 C   0  0  0  0  0  2  0  0  0  0  0  0
  184.6950  173.7650  137.5480 C   0  0  0  0  0  2  0  0  0  0  0  0
  183.3100  174.0090  137.2050 N   0  0  0  0  0  2  0  0  0  0  0  0
  182.9050  175.1940  137.9410 C   0  0  0  0  0  1  0  0  0  0  0  0
  190.8620  176.9070  140.2590 O   0  0  0  0  0  0  0  0  0  0  0  0
  191.9580  177.6440  140.7340 C   0  0  0  0  0  2  0  0  0  0  0  0
  193.1830  177.2820  139.9100 C   0  0  0  0  0  1  0  0  0  0  0  0
  188.5800  176.7860  141.8370 N   0  0  0  0  0  2  0  0  0  0  0  0
  187.8040  176.5350  144.1450 C   0  0  0  0  0  1  0  0  0  0  0  0
  189.0240  176.7190  143.2440 C   0  0  1  0  0  0  0  0  0  0  0  0
  189.9180  175.6430  143.4640 O   0  0  0  0  0  1  0  0  0  0  0  0
  189.7130  177.9610  143.5740 N   0  0  0  0  0  0  0  0  0  0  0  0
  190.1640  178.1940  144.7560 C   0  0  0  0  0  2  0  0  0  0  0  0
  1  5  1  0  0  0  0
  3  9  1  1  0  0  0
  3 12  1  0  0  0  0
  3 11  1  0  0  0  0
  4 34  1  6  0  0  0
  5  4  1  0  0  0  0
  5 13  2  0  0  0  0
  6 31  1  1  0  0  0
  6  4  1  0  0  0  0
  8  2  1  6  0  0  0
  8  1  1  0  0  0  0
 10  7  1  1  0  0  0
 10  8  1  0  0  0  0
 10  6  1  0  0  0  0
 11  2  1  0  0  0  0
 12  7  1  1  0  0  0
 14 20  1  1  0  0  0
 16 17  1  0  0  0  0
 16 14  1  0  0  0  0
 16 18  1  1  0  0  0
 17 14  1  0  0  0  0
 17 19  1  0  0  0  0
 18 15  1  0  0  0  0
 19 12  1  0  0  0  0
 19 15  1  0  0  0  0
 20 21  2  0  0  0  0
 21 24  1  0  0  0  0
 22 24  1  0  0  0  0
 23 22  2  0  0  0  0
 23 20  1  0  0  0  0
 25 26  2  0  0  0  0
 26 27  1  0  0  0  0
 26 24  1  0  0  0  0
 27 28  1  0  0  0  0
 29 28  1  0  0  0  0
 29 30  1  0  0  0  0
 31 32  1  0  0  0  0
 33 32  1  0  0  0  0
 34 36  1  0  0  0  0
 36 37  1  0  0  0  0
 36 38  1  0  0  0  0
 36 35  1  0  0  0  0
 38 39  2  0  0  0  0
M  END
>  <MODEL>
7

>  <REMARK>
 VINA RESULT:      -5.2      3.413      8.861
  Name = 
  11 active torsions:
  status: ('A' for Active; 'I' for Inactive)
    1  A    between atoms: N_1  and  C_21
    2  A    between atoms: C_2  and  C_3
    3  A    between atoms: C_12  and  N_31
    4  A    between atoms: C_16  and  O_28
    5  A    between atoms: N_18  and  C_33
    6  A    between atoms: C_21  and  N_31
    7  A    between atoms: C_27  and  C_36
    8  A    between atoms: O_28  and  C_32
    9  A    between atoms: C_30  and  C_35
   10  A    between atoms: C_33  and  C_34
   11  A    between atoms: C_34  and  C_36
                            x       y       z     vdW  Elec       q    Type
                         _______ _______ _______ _____ _____    ______ ____

>  <TORSDO>
F 11

$$$$
=
 OpenBabel10232412123D

 39 43  0  0  1  0  0  0  0  0999 V2000
  183.9940  176.5400  136.5010 N   0  0  0  0  0  2  0  0  0  0  0  0
  185.8080  177.0320  138.0810 C   0  0  0  0  0  2  0  0  0  0  0  0
  185.1010  179.2450  139.1960 C   0  0  2  0  0  3  0  0  0  0  0  0
  181.6830  175.9300  137.2510 C   0  0  2  0  0  3  0  0  0  0  0  0
  182.6380  176.2510  136.1540 C   0  0  0  0  0  0  0  0  0  0  0  0
  181.8590  176.9010  138.4210 C   0  0  2  0  0  3  0  0  0  0  0  0
  183.6490  177.3220  140.1120 O   0  0  0  0  0  0  0  0  0  0  0  0
  184.3920  176.4700  137.8990 C   0  0  1  0  0  3  0  0  0  0  0  0
  184.0530  179.9640  138.6560 F   0  0  0  0  0  0  0  0  0  0  0  0
  183.3470  177.2430  138.7310 C   0  0  1  0  0  3  0  0  0  0  0  0
  185.8980  178.5540  138.0780 C   0  0  0  0  0  2  0  0  0  0  0  0
  184.6390  178.3340  140.3870 C   0  0  2  0  0  3  0  0  0  0  0  0
  182.2600  176.3550  134.9670 O   0  0  0  0  0  0  0  0  0  0  0  0
  186.4380  178.6180  143.1160 C   0  0  2  0  0  3  0  0  0  0  0  0
  183.3240  178.3880  142.5880 C   0  0  0  0  0  2  0  0  0  0  0  0
  185.3960  179.0630  143.9230 C   0  0  1  0  0  3  0  0  0  0  0  0
  185.2880  179.2850  142.5640 C   0  0  2  0  0  3  0  0  0  0  0  0
  184.1390  178.1780  143.9320 C   0  0  0  0  0  2  0  0  0  0  0  0
  184.2240  179.1770  141.6160 C   0  0  1  0  0  3  0  0  0  0  0  0
  187.5890  177.7400  142.8920 C   0  0  0  0  0  0  0  0  0  0  0  0
  188.6820  178.1010  142.2820 N   0  0  0  0  0  0  0  0  0  0  0  0
  188.7590  175.9140  142.9770 C   0  0  0  0  0  3  0  0  0  0  0  0
  187.6090  176.3880  143.3080 N   0  0  0  0  0  0  0  0  0  0  0  0
  189.5920  176.9580  142.3120 C   0  0  2  0  0  3  0  0  0  0  0  0
  191.4920  178.2410  142.9180 O   0  0  0  0  0  0  0  0  0  0  0  0
  190.7900  177.2640  143.1780 C   0  0  0  0  0  0  0  0  0  0  0  0
  191.1730  176.3400  144.2930 C   0  0  0  0  0  2  0  0  0  0  0  0
  191.6080  177.1540  145.4920 C   0  0  0  0  0  2  0  0  0  0  0  0
  191.8200  176.2730  146.6210 N   0  0  0  0  0  2  0  0  0  0  0  0
  191.2840  176.9580  147.7850 C   0  0  0  0  0  1  0  0  0  0  0  0
  181.1350  176.4530  139.5510 O   0  0  0  0  0  0  0  0  0  0  0  0
  180.0400  177.3140  139.7200 C   0  0  0  0  0  2  0  0  0  0  0  0
  180.2120  178.0710  141.0270 C   0  0  0  0  0  1  0  0  0  0  0  0
  181.8910  174.5510  137.6740 N   0  0  0  0  0  2  0  0  0  0  0  0
  179.9940  173.1460  138.3240 C   0  0  0  0  0  1  0  0  0  0  0  0
  180.8350  173.6570  137.1540 C   0  0  1  0  0  0  0  0  0  0  0  0
  179.9840  174.3230  136.2390 O   0  0  0  0  0  1  0  0  0  0  0  0
  181.4690  172.5410  136.4630 N   0  0  0  0  0  0  0  0  0  0  0  0
  182.5690  172.0210  136.8790 C   0  0  0  0  0  2  0  0  0  0  0  0
  1  8  1  0  0  0  0
  3  9  1  6  0  0  0
  3 12  1  0  0  0  0
  4 34  1  1  0  0  0
  4  6  1  0  0  0  0
  5  1  1  0  0  0  0
  5  4  1  0  0  0  0
  6 10  1  0  0  0  0
  6 31  1  1  0  0  0
  8  2  1  6  0  0  0
  8 10  1  0  0  0  0
 10  7  1  1  0  0  0
 11  2  1  0  0  0  0
 11  3  1  0  0  0  0
 12  7  1  6  0  0  0
 12 19  1  0  0  0  0
 13  5  2  0  0  0  0
 14 20  1  6  0  0  0
 14 16  1  0  0  0  0
 15 18  1  0  0  0  0
 16 18  1  6  0  0  0
 17 14  1  0  0  0  0
 17 16  1  0  0  0  0
 19 17  1  0  0  0  0
 19 15  1  0  0  0  0
 20 23  1  0  0  0  0
 21 24  1  0  0  0  0
 21 20  2  0  0  0  0
 22 23  2  0  0  0  0
 24 22  1  0  0  0  0
 24 26  1  0  0  0  0
 25 26  2  0  0  0  0
 26 27  1  0  0  0  0
 27 28  1  0  0  0  0
 28 29  1  0  0  0  0
 29 30  1  0  0  0  0
 31 32  1  0  0  0  0
 32 33  1  0  0  0  0
 36 34  1  0  0  0  0
 36 35  1  0  0  0  0
 37 36  1  0  0  0  0
 38 39  2  0  0  0  0
 38 36  1  0  0  0  0
M  END
>  <MODEL>
8

>  <REMARK>
 VINA RESULT:      -5.2      4.666      7.058
  Name = 
  11 active torsions:
  status: ('A' for Active; 'I' for Inactive)
    1  A    between atoms: N_1  and  C_21
    2  A    between atoms: C_2  and  C_3
    3  A    between atoms: C_12  and  N_31
    4  A    between atoms: C_16  and  O_28
    5  A    between atoms: N_18  and  C_33
    6  A    between atoms: C_21  and  N_31
    7  A    between atoms: C_27  and  C_36
    8  A    between atoms: O_28  and  C_32
    9  A    between atoms: C_30  and  C_35
   10  A    between atoms: C_33  and  C_34
   11  A    between atoms: C_34  and  C_36
                            x       y       z     vdW  Elec       q    Type
                         _______ _______ _______ _____ _____    ______ ____

>  <TORSDO>
F 11

$$$$
=
 OpenBabel10232412123D

 39 43  0  0  1  0  0  0  0  0999 V2000
  184.0270  176.3480  136.3120 N   0  0  0  0  0  2  0  0  0  0  0  0
  185.8260  176.9320  137.8790 C   0  0  0  0  0  2  0  0  0  0  0  0
  185.0690  179.1670  138.9140 C   0  0  2  0  0  3  0  0  0  0  0  0
  181.7260  175.7170  137.0770 C   0  0  2  0  0  3  0  0  0  0  0  0
  182.6780  176.0190  135.9720 C   0  0  0  0  0  0  0  0  0  0  0  0
  181.8790  176.7310  138.2130 C   0  0  2  0  0  3  0  0  0  0  0  0
  183.6550  177.2470  139.8930 O   0  0  0  0  0  0  0  0  0  0  0  0
  184.4220  176.3350  137.7130 C   0  0  1  0  0  3  0  0  0  0  0  0
  184.0090  179.8450  138.3470 F   0  0  0  0  0  0  0  0  0  0  0  0
  183.3590  177.1140  138.5150 C   0  0  1  0  0  3  0  0  0  0  0  0
  185.8840  178.4540  137.8220 C   0  0  0  0  0  2  0  0  0  0  0  0
  184.6230  178.2880  140.1350 C   0  0  2  0  0  3  0  0  0  0  0  0
  182.3020  176.0740  134.7810 O   0  0  0  0  0  0  0  0  0  0  0  0
  186.3400  178.5930  142.9130 C   0  0  2  0  0  3  0  0  0  0  0  0
  183.2400  178.4140  142.2910 C   0  0  0  0  0  2  0  0  0  0  0  0
  185.2820  179.0760  143.6780 C   0  0  1  0  0  3  0  0  0  0  0  0
  185.2220  179.2720  142.3120 C   0  0  2  0  0  3  0  0  0  0  0  0
  184.0080  178.2150  143.6650 C   0  0  0  0  0  2  0  0  0  0  0  0
  184.1860  179.1650  141.3330 C   0  0  1  0  0  3  0  0  0  0  0  0
  187.4790  177.6890  142.7440 C   0  0  0  0  0  0  0  0  0  0  0  0
  188.1980  177.6040  141.6610 N   0  0  0  0  0  0  0  0  0  0  0  0
  188.9220  176.1630  143.2960 C   0  0  0  0  0  3  0  0  0  0  0  0
  187.8970  176.7910  143.7560 N   0  0  0  0  0  0  0  0  0  0  0  0
  189.2550  176.6280  141.9180 C   0  0  2  0  0  3  0  0  0  0  0  0
  190.9080  178.0260  142.8880 O   0  0  0  0  0  0  0  0  0  0  0  0
  190.6030  177.3090  141.9350 C   0  0  0  0  0  0  0  0  0  0  0  0
  191.5290  177.1820  140.7650 C   0  0  0  0  0  2  0  0  0  0  0  0
  190.7210  177.1530  139.4850 C   0  0  0  0  0  2  0  0  0  0  0  0
  190.8690  175.8590  138.8520 N   0  0  0  0  0  2  0  0  0  0  0  0
  190.3270  175.9920  137.5110 C   0  0  0  0  0  1  0  0  0  0  0  0
  181.1600  176.3070  139.3560 O   0  0  0  0  0  0  0  0  0  0  0  0
  180.0020  177.0950  139.4430 C   0  0  0  0  0  2  0  0  0  0  0  0
  180.3940  178.4900  139.9020 C   0  0  0  0  0  1  0  0  0  0  0  0
  181.9620  174.3580  137.5480 N   0  0  0  0  0  2  0  0  0  0  0  0
  180.1200  172.9510  138.3380 C   0  0  0  0  0  1  0  0  0  0  0  0
  180.8910  173.4380  137.1120 C   0  0  1  0  0  0  0  0  0  0  0  0
  179.9840  174.0670  136.2250 O   0  0  0  0  0  1  0  0  0  0  0  0
  181.5010  172.3090  136.4190 N   0  0  0  0  0  0  0  0  0  0  0  0
  182.7490  172.0280  136.5470 C   0  0  0  0  0  2  0  0  0  0  0  0
  1  8  1  0  0  0  0
  3  9  1  6  0  0  0
  3 12  1  0  0  0  0
  4 34  1  1  0  0  0
  4  6  1  0  0  0  0
  5  1  1  0  0  0  0
  5  4  1  0  0  0  0
  6 10  1  0  0  0  0
  6 31  1  1  0  0  0
  8  2  1  6  0  0  0
  8 10  1  0  0  0  0
 10  7  1  1  0  0  0
 11  2  1  0  0  0  0
 11  3  1  0  0  0  0
 12  7  1  6  0  0  0
 12 19  1  0  0  0  0
 13  5  2  0  0  0  0
 14 20  1  6  0  0  0
 14 16  1  0  0  0  0
 15 18  1  0  0  0  0
 16 18  1  6  0  0  0
 17 14  1  0  0  0  0
 17 16  1  0  0  0  0
 19 15  1  0  0  0  0
 19 17  1  0  0  0  0
 20 23  1  0  0  0  0
 21 24  1  0  0  0  0
 21 20  2  0  0  0  0
 22 23  2  0  0  0  0
 24 26  1  0  0  0  0
 24 22  1  0  0  0  0
 26 25  2  0  0  0  0
 27 26  1  0  0  0  0
 28 27  1  0  0  0  0
 29 28  1  0  0  0  0
 30 29  1  0  0  0  0
 31 32  1  0  0  0  0
 32 33  1  0  0  0  0
 36 34  1  0  0  0  0
 36 35  1  0  0  0  0
 37 36  1  0  0  0  0
 38 39  2  0  0  0  0
 38 36  1  0  0  0  0
M  END
>  <MODEL>
9

>  <REMARK>
 VINA RESULT:      -5.1      4.720      7.483
  Name = 
  11 active torsions:
  status: ('A' for Active; 'I' for Inactive)
    1  A    between atoms: N_1  and  C_21
    2  A    between atoms: C_2  and  C_3
    3  A    between atoms: C_12  and  N_31
    4  A    between atoms: C_16  and  O_28
    5  A    between atoms: N_18  and  C_33
    6  A    between atoms: C_21  and  N_31
    7  A    between atoms: C_27  and  C_36
    8  A    between atoms: O_28  and  C_32
    9  A    between atoms: C_30  and  C_35
   10  A    between atoms: C_33  and  C_34
   11  A    between atoms: C_34  and  C_36
                            x       y       z     vdW  Elec       q    Type
                         _______ _______ _______ _____ _____    ______ ____

>  <TORSDO>
F 11

$$$$
