=
 OpenBabel10232407463D

 62 69  0  0  1  0  0  0  0  0999 V2000
  184.8250  178.6050  141.6650 C   0  0  2  0  0  3  0  0  0  0  0  0
  183.7160  177.6440  141.2730 C   0  0  0  0  0  2  0  0  0  0  0  0
  182.5530  178.3790  140.6350 C   0  0  0  0  0  2  0  0  0  0  0  0
  182.1620  177.6570  139.3610 C   0  0  0  0  0  2  0  0  0  0  0  0
  181.0000  178.6630  138.3930 S   0  0  0  0  0  0  0  0  0  0  0  0
  180.0600  177.1850  137.9040 C   0  0  0  0  0  2  0  0  0  0  0  0
  181.0540  174.9780  137.0840 C   0  0  1  0  0  3  0  0  0  0  0  0
  180.7640  176.4420  136.7820 C   0  0  2  0  0  0  0  0  0  0  0  0
  181.7580  177.1270  136.0670 O   0  0  0  0  0  1  0  0  0  0  0  0
  179.9820  175.3670  136.0370 C   0  0  1  0  0  3  0  0  0  0  0  0
  180.4330  175.2140  134.5840 C   0  0  0  0  0  1  0  0  0  0  0  0
  186.7560  172.6270  136.9820 C   0  0  0  0  0  2  0  0  0  0  0  0
  184.6860  173.8570  136.6200 N   0  0  0  0  0  0  0  0  0  0  0  0
  186.9180  172.5480  135.5320 N   0  0  0  0  0  2  0  0  0  0  0  0
  185.9550  173.8720  137.3440 C   0  0  0  0  0  2  0  0  0  0  0  0
  184.6950  173.5300  135.1940 C   0  0  0  0  0  2  0  0  0  0  0  0
  183.5080  174.4090  137.2230 C   0  0  0  0  0  0  0  0  0  0  0  0
  185.5990  172.3180  134.9450 C   0  0  0  0  0  2  0  0  0  0  0  0
  183.5340  174.7720  138.4310 O   0  0  0  0  0  0  0  0  0  0  0  0
  182.3020  174.5350  136.4670 N   0  0  0  0  0  2  0  0  0  0  0  0
  184.2700  179.6360  142.5300 N   0  0  0  0  0  2  0  0  0  0  0  0
  184.6890  179.3570  143.8990 C   0  0  0  0  0  2  0  0  0  0  0  0
  185.6950  178.2100  143.9350 C   0  0  0  0  0  2  0  0  0  0  0  0
  185.5660  178.3050  146.5260 C   0  0  0  0  0  3  0  0  0  0  0  0
  187.5650  177.6790  147.0030 N   0  0  0  0  0  0  0  0  0  0  0  0
  188.6980  177.7960  144.9980 N   0  0  0  0  0  2  0  0  0  0  0  0
  186.1960  177.9710  145.3240 C   0  0  0  0  0  0  0  0  0  0  0  0
  189.3310  178.2300  148.4720 O   0  0  0  0  0  0  0  0  0  0  0  0
  186.4550  178.1540  147.5420 N   0  0  0  0  0  0  0  0  0  0  0  0
  188.9130  177.9380  147.3180 C   0  0  0  0  0  0  0  0  0  0  0  0
  189.7240  177.9400  146.0510 C   0  0  1  0  0  3  0  0  0  0  0  0
  187.4680  177.6130  145.6950 C   0  0  0  0  0  0  0  0  0  0  0  0
  190.7240  176.7810  146.0230 C   0  0  1  0  0  3  0  0  0  0  0  0
  191.9160  177.0610  145.1120 C   0  0  0  0  0  1  0  0  0  0  0  0
  191.1890  176.4650  147.4400 C   0  0  0  0  0  2  0  0  0  0  0  0
  192.4710  175.6450  147.4490 C   0  0  0  0  0  2  0  0  0  0  0  0
  193.0910  175.6340  148.8340 C   0  0  0  0  0  1  0  0  0  0  0  0
  185.3890  179.2230  140.4730 N   0  0  0  0  0  2  0  0  0  0  0  0
  188.1940  177.4420  138.6570 C   0  0  0  0  0  0  0  0  0  0  0  0
  189.4440  176.9590  138.9020 N   0  0  0  0  0  0  0  0  0  0  0  0
  190.0220  177.0660  140.1280 C   0  0  0  0  0  3  0  0  0  0  0  0
  186.3240  177.7940  137.2130 N   0  0  0  0  0  0  0  0  0  0  0  0
  187.4810  178.0620  139.7100 C   0  0  0  0  0  0  0  0  0  0  0  0
  188.0740  178.1640  140.9310 N   0  0  0  0  0  0  0  0  0  0  0  0
  185.6270  178.4030  138.2060 C   0  0  0  0  0  3  0  0  0  0  0  0
  189.3220  177.6830  141.1630 C   0  0  0  0  0  3  0  0  0  0  0  0
  187.5880  177.3170  137.3870 C   0  0  0  0  0  0  0  0  0  0  0  0
  186.1800  178.5580  139.4750 C   0  0  0  0  0  0  0  0  0  0  0  0
  188.2600  176.6850  136.2290 C   0  0  0  0  0  0  0  0  0  0  0  0
  187.6290  175.8430  135.5310 O   0  0  0  0  0  0  0  0  0  0  0  0
  189.5990  177.0380  135.8650 N   0  0  0  0  0  2  0  0  0  0  0  0
  190.2240  176.5180  134.7230 N   0  0  0  0  0  2  0  0  0  0  0  0
  190.5010  175.1120  134.9810 C   0  0  0  0  0  2  0  0  0  0  0  0
  192.7630  176.1930  135.1080 C   0  0  0  0  0  2  0  0  0  0  0  0
  194.4080  174.5290  136.6390 C   0  0  1  0  0  3  0  0  0  0  0  0
  193.1780  174.4300  137.3950 N   0  0  0  0  0  0  0  0  0  0  0  0
  192.0340  174.5890  136.8300 C   0  0  0  0  0  3  0  0  0  0  0  0
  194.4960  176.1260  135.7340 S   0  0  0  0  0  0  0  0  0  0  0  0
  191.9540  174.9230  135.3740 C   0  0  1  0  0  3  0  0  0  0  0  0
  195.3400  173.2790  138.5640 C   0  0  0  0  0  2  0  0  0  0  0  0
  196.2470  173.0420  137.3750 C   0  0  0  0  0  2  0  0  0  0  0  0
  195.5970  174.3980  137.5740 C   0  0  0  0  0  3  0  0  0  0  0  0
  1  2  1  6  0  0  0
  1 21  1  0  0  0  0
  3  2  1  0  0  0  0
  4  3  1  0  0  0  0
  5  4  1  0  0  0  0
  6  5  1  0  0  0  0
  7 20  1  6  0  0  0
  8  9  1  6  0  0  0
  8  7  1  0  0  0  0
  8  6  1  0  0  0  0
 10 11  1  6  0  0  0
 10  8  1  0  0  0  0
 10  7  1  0  0  0  0
 12 15  1  0  0  0  0
 13 17  1  0  0  0  0
 13 15  1  0  0  0  0
 14 12  1  0  0  0  0
 16 13  1  0  0  0  0
 17 19  2  0  0  0  0
 18 16  1  0  0  0  0
 18 14  1  0  0  0  0
 20 17  1  0  0  0  0
 21 22  1  0  0  0  0
 22 23  1  0  0  0  0
 23 27  1  0  0  0  0
 24 29  2  0  0  0  0
 25 30  1  0  0  0  0
 25 29  1  0  0  0  0
 26 32  1  0  0  0  0
 26 31  1  0  0  0  0
 27 32  2  0  0  0  0
 27 24  1  0  0  0  0
 30 28  2  0  0  0  0
 31 33  1  1  0  0  0
 31 30  1  0  0  0  0
 32 25  1  0  0  0  0
 33 34  1  6  0  0  0
 33 35  1  0  0  0  0
 35 36  1  0  0  0  0
 36 37  1  0  0  0  0
 38  1  1  0  0  0  0
 39 40  2  0  0  0  0
 39 43  1  0  0  0  0
 40 41  1  0  0  0  0
 41 46  2  0  0  0  0
 42 47  2  0  0  0  0
 42 45  1  0  0  0  0
 43 44  2  0  0  0  0
 44 46  1  0  0  0  0
 45 48  2  0  0  0  0
 47 39  1  0  0  0  0
 48 43  1  0  0  0  0
 48 38  1  0  0  0  0
 49 47  1  0  0  0  0
 50 49  2  0  0  0  0
 51 49  1  0  0  0  0
 52 53  1  0  0  0  0
 52 51  1  0  0  0  0
 54 59  1  0  0  0  0
 54 58  1  0  0  0  0
 55 56  1  0  0  0  0
 55 62  1  1  0  0  0
 57 56  2  0  0  0  0
 58 55  1  0  0  0  0
 59 53  1  1  0  0  0
 59 57  1  0  0  0  0
 61 62  1  0  0  0  0
 61 60  1  0  0  0  0
 62 60  1  0  0  0  0
M  END
>  <MODEL>
1

>  <REMARK>
 VINA RESULT:      -7.3      0.000      0.000
  Name = 
  21 active torsions:
  status: ('A' for Active; 'I' for Inactive)
    1  A    between atoms: C_2  and  C_40
    2  A    between atoms: C_2  and  S_58
    3  A    between atoms: C_3  and  C_55
    4  A    between atoms: C_6  and  C_39
    5  A    between atoms: C_6  and  C_49
    6  A    between atoms: N_8  and  C_25
    7  A    between atoms: N_8  and  C_57
    8  A    between atoms: N_10  and  C_41
    9  A    between atoms: N_10  and  N_50
   10  A    between atoms: C_11  and  N_53
   11  A    between atoms: N_13  and  C_25
   12  A    between atoms: N_13  and  C_35
   13  A    between atoms: C_14  and  C_34
   14  A    between atoms: C_25  and  C_59
   15  A    between atoms: C_27  and  C_51
   16  A    between atoms: C_30  and  C_49
   17  A    between atoms: C_31  and  C_48
   18  A    between atoms: C_35  and  C_51
   19  A    between atoms: C_40  and  C_59
   20  A    between atoms: C_41  and  C_60
   21  A    between atoms: C_48  and  S_58
                            x       y       z     vdW  Elec       q    Type
                         _______ _______ _______ _____ _____    ______ ____

>  <TORSDO>
F 21

$$$$
=
 OpenBabel10232407463D

 62 69  0  0  1  0  0  0  0  0999 V2000
  190.4190  176.3870  137.1610 C   0  0  2  0  0  3  0  0  0  0  0  0
  189.0930  175.6690  136.9860 C   0  0  0  0  0  2  0  0  0  0  0  0
  188.8320  175.3440  135.5280 C   0  0  0  0  0  2  0  0  0  0  0  0
  189.0030  173.8530  135.3230 C   0  0  0  0  0  2  0  0  0  0  0  0
  188.3080  172.9350  136.7270 S   0  0  0  0  0  0  0  0  0  0  0  0
  186.8320  172.4920  135.7630 C   0  0  0  0  0  2  0  0  0  0  0  0
  184.5310  173.5830  135.9790 C   0  0  1  0  0  3  0  0  0  0  0  0
  185.5720  172.6580  136.5950 C   0  0  2  0  0  0  0  0  0  0  0  0
  185.7130  172.7400  137.9880 O   0  0  0  0  0  1  0  0  0  0  0  0
  184.2780  172.0590  136.0570 C   0  0  1  0  0  3  0  0  0  0  0  0
  183.3210  171.6340  137.1710 C   0  0  0  0  0  1  0  0  0  0  0  0
  182.3660  178.6170  138.8130 C   0  0  0  0  0  2  0  0  0  0  0  0
  183.2510  176.4350  138.1910 N   0  0  0  0  0  0  0  0  0  0  0  0
  181.5100  177.9480  139.7900 N   0  0  0  0  0  2  0  0  0  0  0  0
  183.6270  177.7920  138.5830 C   0  0  0  0  0  2  0  0  0  0  0  0
  182.2030  175.7500  138.9470 C   0  0  0  0  0  2  0  0  0  0  0  0
  184.0710  175.7010  137.2710 C   0  0  0  0  0  0  0  0  0  0  0  0
  181.0290  176.7050  139.1890 C   0  0  0  0  0  2  0  0  0  0  0  0
  185.0300  176.2770  136.6890 O   0  0  0  0  0  0  0  0  0  0  0  0
  183.7950  174.3250  136.9990 N   0  0  0  0  0  2  0  0  0  0  0  0
  191.3050  175.5510  137.9590 N   0  0  0  0  0  2  0  0  0  0  0  0
  192.6820  175.9050  137.6330 C   0  0  0  0  0  2  0  0  0  0  0  0
  193.3100  174.8570  136.7190 C   0  0  0  0  0  2  0  0  0  0  0  0
  195.1050  174.2690  138.4990 C   0  0  0  0  0  3  0  0  0  0  0  0
  195.4620  172.2160  137.9760 N   0  0  0  0  0  0  0  0  0  0  0  0
  194.4470  171.9610  135.9210 N   0  0  0  0  0  2  0  0  0  0  0  0
  194.2040  173.9340  137.4840 C   0  0  0  0  0  0  0  0  0  0  0  0
  197.2560  170.7030  137.7060 O   0  0  0  0  0  0  0  0  0  0  0  0
  195.8980  173.1950  138.7500 N   0  0  0  0  0  0  0  0  0  0  0  0
  196.1720  171.2040  137.3010 C   0  0  0  0  0  0  0  0  0  0  0  0
  195.5040  170.9290  135.9810 C   0  0  1  0  0  3  0  0  0  0  0  0
  194.5050  172.6310  137.1780 C   0  0  0  0  0  0  0  0  0  0  0  0
  194.9120  169.5170  135.9360 C   0  0  1  0  0  3  0  0  0  0  0  0
  195.9820  168.4430  135.7610 C   0  0  0  0  0  1  0  0  0  0  0  0
  194.0900  169.2620  137.1930 C   0  0  0  0  0  2  0  0  0  0  0  0
  194.6290  168.0860  137.9970 C   0  0  0  0  0  2  0  0  0  0  0  0
  194.7080  168.4360  139.4720 C   0  0  0  0  0  1  0  0  0  0  0  0
  190.2080  177.6580  137.8400 N   0  0  0  0  0  2  0  0  0  0  0  0
  188.3900  178.0970  141.1320 C   0  0  0  0  0  0  0  0  0  0  0  0
  188.6380  178.0270  142.4690 N   0  0  0  0  0  0  0  0  0  0  0  0
  189.8690  177.7090  142.9510 C   0  0  0  0  0  3  0  0  0  0  0  0
  186.9360  178.5260  139.2860 N   0  0  0  0  0  0  0  0  0  0  0  0
  189.4450  177.8420  140.2250 C   0  0  0  0  0  0  0  0  0  0  0  0
  190.6720  177.5240  140.7220 N   0  0  0  0  0  0  0  0  0  0  0  0
  187.9320  178.2730  138.3980 C   0  0  0  0  0  3  0  0  0  0  0  0
  190.9070  177.4520  142.0570 C   0  0  0  0  0  3  0  0  0  0  0  0
  187.1140  178.4420  140.6330 C   0  0  0  0  0  0  0  0  0  0  0  0
  189.2080  177.9230  138.8360 C   0  0  0  0  0  0  0  0  0  0  0  0
  185.9520  178.7230  141.5070 C   0  0  0  0  0  0  0  0  0  0  0  0
  185.1210  179.6090  141.1650 O   0  0  0  0  0  0  0  0  0  0  0  0
  185.7370  177.9850  142.7140 N   0  0  0  0  0  2  0  0  0  0  0  0
  184.6000  178.1740  143.5130 N   0  0  0  0  0  2  0  0  0  0  0  0
  184.8950  179.2540  144.4420 C   0  0  0  0  0  2  0  0  0  0  0  0
  185.7240  179.0400  146.8020 C   0  0  0  0  0  2  0  0  0  0  0  0
  188.1610  177.6710  146.7190 C   0  0  1  0  0  3  0  0  0  0  0  0
  187.4190  176.9220  145.7280 N   0  0  0  0  0  0  0  0  0  0  0  0
  186.4670  177.4670  145.0570 C   0  0  0  0  0  3  0  0  0  0  0  0
  187.0290  178.4280  147.9520 S   0  0  0  0  0  0  0  0  0  0  0  0
  186.0750  178.8860  145.3220 C   0  0  1  0  0  3  0  0  0  0  0  0
  190.3880  176.5980  146.5560 C   0  0  0  0  0  2  0  0  0  0  0  0
  190.4120  177.5350  147.7450 C   0  0  0  0  0  2  0  0  0  0  0  0
  189.1510  176.7580  147.4190 C   0  0  0  0  0  3  0  0  0  0  0  0
  1  2  1  1  0  0  0
  1 38  1  0  0  0  0
  1 21  1  0  0  0  0
  3  2  1  0  0  0  0
  4  3  1  0  0  0  0
  4  5  1  0  0  0  0
  6  8  1  0  0  0  0
  6  5  1  0  0  0  0
  7 10  1  0  0  0  0
  7  8  1  0  0  0  0
  7 20  1  1  0  0  0
  8  9  1  1  0  0  0
 10  8  1  0  0  0  0
 10 11  1  1  0  0  0
 12 14  1  0  0  0  0
 13 15  1  0  0  0  0
 13 16  1  0  0  0  0
 15 12  1  0  0  0  0
 16 18  1  0  0  0  0
 17 13  1  0  0  0  0
 18 14  1  0  0  0  0
 19 17  2  0  0  0  0
 20 17  1  0  0  0  0
 22 21  1  0  0  0  0
 23 27  1  0  0  0  0
 23 22  1  0  0  0  0
 24 29  2  0  0  0  0
 25 29  1  0  0  0  0
 26 31  1  0  0  0  0
 26 32  1  0  0  0  0
 27 24  1  0  0  0  0
 30 28  2  0  0  0  0
 30 25  1  0  0  0  0
 31 33  1  1  0  0  0
 31 30  1  0  0  0  0
 32 27  2  0  0  0  0
 32 25  1  0  0  0  0
 33 34  1  1  0  0  0
 33 35  1  0  0  0  0
 35 36  1  0  0  0  0
 36 37  1  0  0  0  0
 38 48  1  0  0  0  0
 39 40  2  0  0  0  0
 40 41  1  0  0  0  0
 42 47  2  0  0  0  0
 43 44  2  0  0  0  0
 43 39  1  0  0  0  0
 44 46  1  0  0  0  0
 45 48  2  0  0  0  0
 45 42  1  0  0  0  0
 46 41  2  0  0  0  0
 47 39  1  0  0  0  0
 47 49  1  0  0  0  0
 48 43  1  0  0  0  0
 49 51  1  0  0  0  0
 50 49  2  0  0  0  0
 51 52  1  0  0  0  0
 52 53  1  0  0  0  0
 54 58  1  0  0  0  0
 55 62  1  1  0  0  0
 55 58  1  0  0  0  0
 56 55  1  0  0  0  0
 57 59  1  0  0  0  0
 57 56  2  0  0  0  0
 59 53  1  6  0  0  0
 59 54  1  0  0  0  0
 60 62  1  0  0  0  0
 60 61  1  0  0  0  0
 62 61  1  0  0  0  0
M  END
>  <MODEL>
2

>  <REMARK>
 VINA RESULT:      -7.1      3.188      9.329
  Name = 
  21 active torsions:
  status: ('A' for Active; 'I' for Inactive)
    1  A    between atoms: C_2  and  C_40
    2  A    between atoms: C_2  and  S_58
    3  A    between atoms: C_3  and  C_55
    4  A    between atoms: C_6  and  C_39
    5  A    between atoms: C_6  and  C_49
    6  A    between atoms: N_8  and  C_25
    7  A    between atoms: N_8  and  C_57
    8  A    between atoms: N_10  and  C_41
    9  A    between atoms: N_10  and  N_50
   10  A    between atoms: C_11  and  N_53
   11  A    between atoms: N_13  and  C_25
   12  A    between atoms: N_13  and  C_35
   13  A    between atoms: C_14  and  C_34
   14  A    between atoms: C_25  and  C_59
   15  A    between atoms: C_27  and  C_51
   16  A    between atoms: C_30  and  C_49
   17  A    between atoms: C_31  and  C_48
   18  A    between atoms: C_35  and  C_51
   19  A    between atoms: C_40  and  C_59
   20  A    between atoms: C_41  and  C_60
   21  A    between atoms: C_48  and  S_58
                            x       y       z     vdW  Elec       q    Type
                         _______ _______ _______ _____ _____    ______ ____

>  <TORSDO>
F 21

$$$$
=
 OpenBabel10232407463D

 62 69  0  0  1  0  0  0  0  0999 V2000
  190.8780  176.7570  139.2690 C   0  0  2  0  0  3  0  0  0  0  0  0
  191.5910  177.0190  140.5830 C   0  0  0  0  0  2  0  0  0  0  0  0
  190.6950  176.7090  141.7670 C   0  0  0  0  0  2  0  0  0  0  0  0
  191.5600  176.5260  142.9970 C   0  0  0  0  0  2  0  0  0  0  0  0
  191.6070  178.0550  143.9740 S   0  0  0  0  0  0  0  0  0  0  0  0
  191.1680  177.1530  145.4910 C   0  0  0  0  0  2  0  0  0  0  0  0
  188.6500  176.7530  145.6620 C   0  0  1  0  0  3  0  0  0  0  0  0
  189.8350  177.6310  146.0390 C   0  0  2  0  0  0  0  0  0  0  0  0
  189.5910  179.0120  146.0550 O   0  0  0  0  0  1  0  0  0  0  0  0
  189.1660  176.7910  147.1200 C   0  0  1  0  0  3  0  0  0  0  0  0
  188.3120  177.6300  148.0710 C   0  0  0  0  0  1  0  0  0  0  0  0
  183.5220  178.5950  142.7690 C   0  0  0  0  0  2  0  0  0  0  0  0
  185.5740  178.3800  144.0620 N   0  0  0  0  0  0  0  0  0  0  0  0
  182.9970  179.4650  143.8190 N   0  0  0  0  0  2  0  0  0  0  0  0
  185.0430  178.6880  142.7360 C   0  0  0  0  0  2  0  0  0  0  0  0
  184.9500  179.0010  145.2310 C   0  0  0  0  0  2  0  0  0  0  0  0
  186.8340  177.7080  144.1920 C   0  0  0  0  0  0  0  0  0  0  0  0
  183.4250  178.9220  145.1080 C   0  0  0  0  0  2  0  0  0  0  0  0
  187.4100  177.2520  143.1670 O   0  0  0  0  0  0  0  0  0  0  0  0
  187.4310  177.5380  145.4790 N   0  0  0  0  0  2  0  0  0  0  0  0
  191.8640  176.3920  138.2620 N   0  0  0  0  0  2  0  0  0  0  0  0
  191.5950  175.0240  137.8360 C   0  0  0  0  0  2  0  0  0  0  0  0
  191.3000  174.9700  136.3390 C   0  0  0  0  0  2  0  0  0  0  0  0
  191.8790  172.6280  135.3820 C   0  0  0  0  0  3  0  0  0  0  0  0
  193.9560  172.9370  134.9260 N   0  0  0  0  0  0  0  0  0  0  0  0
  194.4920  174.9080  135.9960 N   0  0  0  0  0  2  0  0  0  0  0  0
  192.1700  173.9690  135.6490 C   0  0  0  0  0  0  0  0  0  0  0  0
  196.0330  171.8260  135.1110 O   0  0  0  0  0  0  0  0  0  0  0  0
  193.0170  172.0070  134.9770 N   0  0  0  0  0  0  0  0  0  0  0  0
  195.3270  172.8640  135.2390 C   0  0  0  0  0  0  0  0  0  0  0  0
  195.7610  174.1610  135.8640 C   0  0  1  0  0  3  0  0  0  0  0  0
  193.5080  174.0890  135.3690 C   0  0  0  0  0  0  0  0  0  0  0  0
  196.7610  174.9060  134.9750 C   0  0  1  0  0  3  0  0  0  0  0  0
  196.1590  176.1600  134.3460 C   0  0  0  0  0  1  0  0  0  0  0  0
  198.0100  175.2490  135.7780 C   0  0  0  0  0  2  0  0  0  0  0  0
  198.4930  174.0700  136.6110 C   0  0  0  0  0  2  0  0  0  0  0  0
  198.4550  174.4060  138.0900 C   0  0  0  0  0  1  0  0  0  0  0  0
  190.1680  177.9560  138.8430 N   0  0  0  0  0  2  0  0  0  0  0  0
  186.5640  178.0570  137.6860 C   0  0  0  0  0  0  0  0  0  0  0  0
  185.8250  177.7790  136.5770 N   0  0  0  0  0  0  0  0  0  0  0  0
  186.3980  177.3150  135.4350 C   0  0  0  0  0  3  0  0  0  0  0  0
  186.7550  178.7570  139.9620 N   0  0  0  0  0  0  0  0  0  0  0  0
  187.9630  177.8450  137.6490 C   0  0  0  0  0  0  0  0  0  0  0  0
  188.5230  177.3800  136.4980 N   0  0  0  0  0  0  0  0  0  0  0  0
  188.1000  178.5720  139.9430 C   0  0  0  0  0  3  0  0  0  0  0  0
  187.7760  177.1120  135.3960 C   0  0  0  0  0  3  0  0  0  0  0  0
  185.9660  178.5270  138.8770 C   0  0  0  0  0  0  0  0  0  0  0  0
  188.7420  178.1160  138.7940 C   0  0  0  0  0  0  0  0  0  0  0  0
  184.5120  178.7780  139.0070 C   0  0  0  0  0  0  0  0  0  0  0  0
  184.0830  179.9640  138.9610 O   0  0  0  0  0  0  0  0  0  0  0  0
  183.5830  177.6990  139.1480 N   0  0  0  0  0  2  0  0  0  0  0  0
  182.1970  177.9070  139.1860 N   0  0  0  0  0  2  0  0  0  0  0  0
  181.5980  176.7350  139.8080 C   0  0  0  0  0  2  0  0  0  0  0  0
  180.8270  175.9300  137.5580 C   0  0  0  0  0  2  0  0  0  0  0  0
  182.1430  173.5200  137.0280 C   0  0  1  0  0  3  0  0  0  0  0  0
  183.2240  174.2690  137.6320 N   0  0  0  0  0  0  0  0  0  0  0  0
  182.9930  175.2050  138.4820 C   0  0  0  0  0  3  0  0  0  0  0  0
  180.9260  174.6470  136.2370 S   0  0  0  0  0  0  0  0  0  0  0  0
  181.5860  175.5700  138.8360 C   0  0  1  0  0  3  0  0  0  0  0  0
  184.0340  172.0180  136.4770 C   0  0  0  0  0  2  0  0  0  0  0  0
  182.7890  171.1670  136.6030 C   0  0  0  0  0  2  0  0  0  0  0  0
  182.6990  172.5540  135.9980 C   0  0  0  0  0  3  0  0  0  0  0  0
  1  2  1  1  0  0  0
  2  3  1  0  0  0  0
  3  4  1  0  0  0  0
  4  5  1  0  0  0  0
  5  6  1  0  0  0  0
  6  8  1  0  0  0  0
  7 20  1  1  0  0  0
  7  8  1  0  0  0  0
  7 10  1  0  0  0  0
  8  9  1  1  0  0  0
  8 10  1  0  0  0  0
 10 11  1  1  0  0  0
 12 14  1  0  0  0  0
 13 17  1  0  0  0  0
 13 16  1  0  0  0  0
 14 18  1  0  0  0  0
 15 12  1  0  0  0  0
 15 13  1  0  0  0  0
 17 20  1  0  0  0  0
 18 16  1  0  0  0  0
 19 17  2  0  0  0  0
 21  1  1  0  0  0  0
 22 21  1  0  0  0  0
 23 22  1  0  0  0  0
 24 27  1  0  0  0  0
 25 29  1  0  0  0  0
 25 30  1  0  0  0  0
 25 32  1  0  0  0  0
 27 23  1  0  0  0  0
 28 30  2  0  0  0  0
 29 24  2  0  0  0  0
 30 31  1  0  0  0  0
 31 33  1  6  0  0  0
 31 26  1  0  0  0  0
 32 27  2  0  0  0  0
 32 26  1  0  0  0  0
 33 34  1  1  0  0  0
 33 35  1  0  0  0  0
 35 36  1  0  0  0  0
 36 37  1  0  0  0  0
 38  1  1  0  0  0  0
 39 47  1  0  0  0  0
 40 39  1  0  0  0  0
 41 40  2  0  0  0  0
 43 39  2  0  0  0  0
 43 48  1  0  0  0  0
 44 43  1  0  0  0  0
 45 42  1  0  0  0  0
 46 41  1  0  0  0  0
 46 44  2  0  0  0  0
 47 49  1  0  0  0  0
 47 42  2  0  0  0  0
 48 38  1  0  0  0  0
 48 45  2  0  0  0  0
 49 51  1  0  0  0  0
 50 49  2  0  0  0  0
 51 52  1  0  0  0  0
 52 53  1  0  0  0  0
 54 59  1  0  0  0  0
 55 62  1  6  0  0  0
 55 56  1  0  0  0  0
 56 57  2  0  0  0  0
 57 59  1  0  0  0  0
 58 55  1  0  0  0  0
 58 54  1  0  0  0  0
 59 53  1  1  0  0  0
 60 61  1  0  0  0  0
 62 60  1  0  0  0  0
 62 61  1  0  0  0  0
M  END
>  <MODEL>
3

>  <REMARK>
 VINA RESULT:      -7.0      2.707     10.570
  Name = 
  21 active torsions:
  status: ('A' for Active; 'I' for Inactive)
    1  A    between atoms: C_2  and  C_40
    2  A    between atoms: C_2  and  S_58
    3  A    between atoms: C_3  and  C_55
    4  A    between atoms: C_6  and  C_39
    5  A    between atoms: C_6  and  C_49
    6  A    between atoms: N_8  and  C_25
    7  A    between atoms: N_8  and  C_57
    8  A    between atoms: N_10  and  C_41
    9  A    between atoms: N_10  and  N_50
   10  A    between atoms: C_11  and  N_53
   11  A    between atoms: N_13  and  C_25
   12  A    between atoms: N_13  and  C_35
   13  A    between atoms: C_14  and  C_34
   14  A    between atoms: C_25  and  C_59
   15  A    between atoms: C_27  and  C_51
   16  A    between atoms: C_30  and  C_49
   17  A    between atoms: C_31  and  C_48
   18  A    between atoms: C_35  and  C_51
   19  A    between atoms: C_40  and  C_59
   20  A    between atoms: C_41  and  C_60
   21  A    between atoms: C_48  and  S_58
                            x       y       z     vdW  Elec       q    Type
                         _______ _______ _______ _____ _____    ______ ____

>  <TORSDO>
F 21

$$$$
=
 OpenBabel10232407463D

 62 69  0  0  1  0  0  0  0  0999 V2000
  190.1700  176.9500  137.8940 C   0  0  2  0  0  3  0  0  0  0  0  0
  188.8670  176.2230  137.6090 C   0  0  0  0  0  2  0  0  0  0  0  0
  188.5410  176.2410  136.1280 C   0  0  0  0  0  2  0  0  0  0  0  0
  189.0310  174.9490  135.5060 C   0  0  0  0  0  2  0  0  0  0  0  0
  188.7000  173.5470  136.6120 S   0  0  0  0  0  0  0  0  0  0  0  0
  187.2240  173.0840  135.6570 C   0  0  0  0  0  2  0  0  0  0  0  0
  184.8850  174.0440  136.0330 C   0  0  1  0  0  3  0  0  0  0  0  0
  185.9820  173.1130  136.5320 C   0  0  2  0  0  0  0  0  0  0  0  0
  186.1590  173.0670  137.9220 O   0  0  0  0  0  1  0  0  0  0  0  0
  184.7000  172.5090  135.9700 C   0  0  1  0  0  3  0  0  0  0  0  0
  183.7950  171.9360  137.0610 C   0  0  0  0  0  1  0  0  0  0  0  0
  182.3910  178.6660  139.2700 C   0  0  0  0  0  2  0  0  0  0  0  0
  183.4630  176.6280  138.4750 N   0  0  0  0  0  0  0  0  0  0  0  0
  181.6850  177.8600  140.2640 N   0  0  0  0  0  2  0  0  0  0  0  0
  183.7150  177.9990  138.9140 C   0  0  0  0  0  2  0  0  0  0  0  0
  182.5510  175.7950  139.2600 C   0  0  0  0  0  2  0  0  0  0  0  0
  184.2900  176.0350  137.4650 C   0  0  0  0  0  0  0  0  0  0  0  0
  181.3010  176.5990  139.6290 C   0  0  0  0  0  2  0  0  0  0  0  0
  185.1360  176.7410  136.8530 O   0  0  0  0  0  0  0  0  0  0  0  0
  184.1470  174.6500  137.1380 N   0  0  0  0  0  2  0  0  0  0  0  0
  191.1320  175.9990  138.4280 N   0  0  0  0  0  2  0  0  0  0  0  0
  192.4290  176.2730  137.8200 C   0  0  0  0  0  2  0  0  0  0  0  0
  192.4600  175.8010  136.3680 C   0  0  0  0  0  2  0  0  0  0  0  0
  192.3530  173.2500  135.9000 C   0  0  0  0  0  3  0  0  0  0  0  0
  194.3030  172.6800  136.6020 N   0  0  0  0  0  0  0  0  0  0  0  0
  195.0580  174.5260  137.7600 N   0  0  0  0  0  2  0  0  0  0  0  0
  193.0270  174.4220  136.2570 C   0  0  0  0  0  0  0  0  0  0  0  0
  195.3430  170.9810  137.8720 O   0  0  0  0  0  0  0  0  0  0  0  0
  193.1560  172.1870  136.1660 N   0  0  0  0  0  0  0  0  0  0  0  0
  195.1830  172.2010  137.5920 C   0  0  0  0  0  0  0  0  0  0  0  0
  195.7790  173.3680  138.3290 C   0  0  1  0  0  3  0  0  0  0  0  0
  194.2430  173.9860  136.7230 C   0  0  0  0  0  0  0  0  0  0  0  0
  197.2880  173.4720  138.0880 C   0  0  1  0  0  3  0  0  0  0  0  0
  197.6730  173.1210  136.6530 C   0  0  0  0  0  1  0  0  0  0  0  0
  197.7740  174.8700  138.4520 C   0  0  0  0  0  2  0  0  0  0  0  0
  198.5150  174.8870  139.7820 C   0  0  0  0  0  2  0  0  0  0  0  0
  197.6610  175.5210  140.8640 C   0  0  0  0  0  1  0  0  0  0  0  0
  189.9420  178.0100  138.8670 N   0  0  0  0  0  2  0  0  0  0  0  0
  188.0560  177.3360  142.0810 C   0  0  0  0  0  0  0  0  0  0  0  0
  188.2230  176.6760  143.2600 N   0  0  0  0  0  0  0  0  0  0  0  0
  189.3620  175.9860  143.5360 C   0  0  0  0  0  3  0  0  0  0  0  0
  186.7840  178.7290  140.6160 N   0  0  0  0  0  0  0  0  0  0  0  0
  189.1010  177.3100  141.1270 C   0  0  0  0  0  0  0  0  0  0  0  0
  190.2350  176.6140  141.4170 N   0  0  0  0  0  0  0  0  0  0  0  0
  187.7700  178.7070  139.6820 C   0  0  0  0  0  3  0  0  0  0  0  0
  190.3880  175.9540  142.5940 C   0  0  0  0  0  3  0  0  0  0  0  0
  186.8790  178.0640  141.8000 C   0  0  0  0  0  0  0  0  0  0  0  0
  188.9490  178.0000  139.9040 C   0  0  0  0  0  0  0  0  0  0  0  0
  185.7350  178.1460  142.7380 C   0  0  0  0  0  0  0  0  0  0  0  0
  184.5890  177.7910  142.3470 O   0  0  0  0  0  0  0  0  0  0  0  0
  185.9140  178.5860  144.0880 N   0  0  0  0  0  2  0  0  0  0  0  0
  184.8640  178.5890  145.0170 N   0  0  0  0  0  2  0  0  0  0  0  0
  185.3620  179.2140  146.2340 C   0  0  0  0  0  2  0  0  0  0  0  0
  187.1560  179.0460  147.9820 C   0  0  0  0  0  2  0  0  0  0  0  0
  189.1260  177.3180  147.0060 C   0  0  1  0  0  3  0  0  0  0  0  0
  187.9390  176.6220  146.5600 N   0  0  0  0  0  0  0  0  0  0  0  0
  186.8460  177.2560  146.3180 C   0  0  0  0  0  3  0  0  0  0  0  0
  188.7730  178.3270  148.5010 S   0  0  0  0  0  0  0  0  0  0  0  0
  186.7700  178.7340  146.5360 C   0  0  1  0  0  3  0  0  0  0  0  0
  191.3710  176.5150  146.3320 C   0  0  0  0  0  2  0  0  0  0  0  0
  191.4770  177.0560  147.7420 C   0  0  0  0  0  2  0  0  0  0  0  0
  190.2260  176.3170  147.3070 C   0  0  0  0  0  3  0  0  0  0  0  0
  1  2  1  1  0  0  0
  1 21  1  0  0  0  0
  1 38  1  0  0  0  0
  3  2  1  0  0  0  0
  4  3  1  0  0  0  0
  4  5  1  0  0  0  0
  6  8  1  0  0  0  0
  6  5  1  0  0  0  0
  7  8  1  0  0  0  0
  7 20  1  1  0  0  0
  8  9  1  1  0  0  0
 10  7  1  0  0  0  0
 10  8  1  0  0  0  0
 10 11  1  1  0  0  0
 12 14  1  0  0  0  0
 13 15  1  0  0  0  0
 13 16  1  0  0  0  0
 15 12  1  0  0  0  0
 16 18  1  0  0  0  0
 17 13  1  0  0  0  0
 18 14  1  0  0  0  0
 19 17  2  0  0  0  0
 20 17  1  0  0  0  0
 22 21  1  0  0  0  0
 23 22  1  0  0  0  0
 24 29  2  0  0  0  0
 24 27  1  0  0  0  0
 25 32  1  0  0  0  0
 25 30  1  0  0  0  0
 26 31  1  0  0  0  0
 27 23  1  0  0  0  0
 27 32  2  0  0  0  0
 29 25  1  0  0  0  0
 30 28  2  0  0  0  0
 30 31  1  0  0  0  0
 31 33  1  6  0  0  0
 32 26  1  0  0  0  0
 33 34  1  6  0  0  0
 33 35  1  0  0  0  0
 35 36  1  0  0  0  0
 36 37  1  0  0  0  0
 38 48  1  0  0  0  0
 39 40  2  0  0  0  0
 40 41  1  0  0  0  0
 42 47  2  0  0  0  0
 43 44  2  0  0  0  0
 43 39  1  0  0  0  0
 44 46  1  0  0  0  0
 45 48  2  0  0  0  0
 45 42  1  0  0  0  0
 46 41  2  0  0  0  0
 47 39  1  0  0  0  0
 47 49  1  0  0  0  0
 48 43  1  0  0  0  0
 49 51  1  0  0  0  0
 50 49  2  0  0  0  0
 51 52  1  0  0  0  0
 52 53  1  0  0  0  0
 54 58  1  0  0  0  0
 55 62  1  1  0  0  0
 55 58  1  0  0  0  0
 56 55  1  0  0  0  0
 57 59  1  0  0  0  0
 57 56  2  0  0  0  0
 59 53  1  1  0  0  0
 59 54  1  0  0  0  0
 60 62  1  0  0  0  0
 60 61  1  0  0  0  0
 62 61  1  0  0  0  0
M  END
>  <MODEL>
4

>  <REMARK>
 VINA RESULT:      -6.8      2.938      9.020
  Name = 
  21 active torsions:
  status: ('A' for Active; 'I' for Inactive)
    1  A    between atoms: C_2  and  C_40
    2  A    between atoms: C_2  and  S_58
    3  A    between atoms: C_3  and  C_55
    4  A    between atoms: C_6  and  C_39
    5  A    between atoms: C_6  and  C_49
    6  A    between atoms: N_8  and  C_25
    7  A    between atoms: N_8  and  C_57
    8  A    between atoms: N_10  and  C_41
    9  A    between atoms: N_10  and  N_50
   10  A    between atoms: C_11  and  N_53
   11  A    between atoms: N_13  and  C_25
   12  A    between atoms: N_13  and  C_35
   13  A    between atoms: C_14  and  C_34
   14  A    between atoms: C_25  and  C_59
   15  A    between atoms: C_27  and  C_51
   16  A    between atoms: C_30  and  C_49
   17  A    between atoms: C_31  and  C_48
   18  A    between atoms: C_35  and  C_51
   19  A    between atoms: C_40  and  C_59
   20  A    between atoms: C_41  and  C_60
   21  A    between atoms: C_48  and  S_58
                            x       y       z     vdW  Elec       q    Type
                         _______ _______ _______ _____ _____    ______ ____

>  <TORSDO>
F 21

$$$$
=
 OpenBabel10232407463D

 62 69  0  0  1  0  0  0  0  0999 V2000
  190.4200  176.8450  140.2790 C   0  0  2  0  0  3  0  0  0  0  0  0
  189.0030  176.9390  139.7390 C   0  0  0  0  0  2  0  0  0  0  0  0
  188.5870  178.3830  139.5360 C   0  0  0  0  0  2  0  0  0  0  0  0
  188.1740  178.5720  138.0900 C   0  0  0  0  0  2  0  0  0  0  0  0
  187.1720  177.1660  137.5280 S   0  0  0  0  0  0  0  0  0  0  0  0
  185.6320  178.0650  137.8810 C   0  0  0  0  0  2  0  0  0  0  0  0
  183.8690  176.2380  138.1720 C   0  0  1  0  0  3  0  0  0  0  0  0
  184.4340  177.3420  137.2890 C   0  0  2  0  0  0  0  0  0  0  0  0
  184.4440  177.0790  135.9120 O   0  0  0  0  0  1  0  0  0  0  0  0
  183.0780  177.5490  137.9520 C   0  0  1  0  0  3  0  0  0  0  0  0
  181.9170  177.4280  136.9640 C   0  0  0  0  0  1  0  0  0  0  0  0
  183.3580  170.3620  136.3620 C   0  0  0  0  0  2  0  0  0  0  0  0
  183.4670  172.7870  136.5600 N   0  0  0  0  0  0  0  0  0  0  0  0
  182.2230  170.5260  135.4570 N   0  0  0  0  0  2  0  0  0  0  0  0
  184.2590  171.5900  136.2850 C   0  0  0  0  0  2  0  0  0  0  0  0
  182.1700  172.9390  135.9010 C   0  0  0  0  0  2  0  0  0  0  0  0
  184.0630  173.9000  137.2410 C   0  0  0  0  0  0  0  0  0  0  0  0
  181.3960  171.6190  135.9670 C   0  0  0  0  0  2  0  0  0  0  0  0
  185.2190  173.7890  137.7320 O   0  0  0  0  0  0  0  0  0  0  0  0
  183.3450  175.1280  137.3810 N   0  0  0  0  0  2  0  0  0  0  0  0
  190.5080  177.6220  141.5060 N   0  0  0  0  0  2  0  0  0  0  0  0
  191.1430  176.7950  142.5250 C   0  0  0  0  0  2  0  0  0  0  0  0
  190.1000  176.0050  143.3120 C   0  0  0  0  0  2  0  0  0  0  0  0
  189.7670  176.9180  145.7190 C   0  0  0  0  0  3  0  0  0  0  0  0
  187.9410  178.0130  145.4320 N   0  0  0  0  0  0  0  0  0  0  0  0
  187.1660  177.3100  143.3780 N   0  0  0  0  0  2  0  0  0  0  0  0
  189.4520  176.8540  144.3580 C   0  0  0  0  0  0  0  0  0  0  0  0
  185.8730  178.3950  146.5100 O   0  0  0  0  0  0  0  0  0  0  0  0
  188.7890  177.6060  146.3620 N   0  0  0  0  0  0  0  0  0  0  0  0
  186.5380  178.1330  145.4700 C   0  0  0  0  0  0  0  0  0  0  0  0
  185.9750  177.7700  144.1230 C   0  0  1  0  0  3  0  0  0  0  0  0
  188.2680  177.5400  144.2520 C   0  0  0  0  0  0  0  0  0  0  0  0
  185.3200  178.9760  143.4450 C   0  0  1  0  0  3  0  0  0  0  0  0
  185.4020  178.9040  141.9230 C   0  0  0  0  0  1  0  0  0  0  0  0
  183.8720  179.1030  143.9030 C   0  0  0  0  0  2  0  0  0  0  0  0
  182.8910  178.8140  142.7760 C   0  0  0  0  0  2  0  0  0  0  0  0
  181.4710  179.1360  143.2050 C   0  0  0  0  0  1  0  0  0  0  0  0
  191.3580  177.3750  139.2990 N   0  0  0  0  0  2  0  0  0  0  0  0
  192.9610  175.3560  136.5260 C   0  0  0  0  0  0  0  0  0  0  0  0
  192.6790  174.9200  135.2670 N   0  0  0  0  0  0  0  0  0  0  0  0
  191.4950  175.2050  134.6620 C   0  0  0  0  0  3  0  0  0  0  0  0
  194.4310  175.5610  138.3970 N   0  0  0  0  0  0  0  0  0  0  0  0
  191.9990  176.1320  137.2140 C   0  0  0  0  0  0  0  0  0  0  0  0
  190.8180  176.4090  136.5950 N   0  0  0  0  0  0  0  0  0  0  0  0
  193.5170  176.2980  139.0790 C   0  0  0  0  0  3  0  0  0  0  0  0
  190.5450  175.9650  135.3410 C   0  0  0  0  0  3  0  0  0  0  0  0
  194.1970  175.0710  137.1490 C   0  0  0  0  0  0  0  0  0  0  0  0
  192.2800  176.6020  138.5150 C   0  0  0  0  0  0  0  0  0  0  0  0
  195.2600  174.2660  136.5050 C   0  0  0  0  0  0  0  0  0  0  0  0
  195.2010  173.0070  136.5600 O   0  0  0  0  0  0  0  0  0  0  0  0
  196.3340  174.8900  135.7940 N   0  0  0  0  0  2  0  0  0  0  0  0
  197.3040  174.1480  135.1040 N   0  0  0  0  0  2  0  0  0  0  0  0
  198.5510  174.2670  135.8450 C   0  0  0  0  0  2  0  0  0  0  0  0
  199.5340  172.5070  137.3410 C   0  0  0  0  0  2  0  0  0  0  0  0
  200.0770  170.2640  135.7620 C   0  0  1  0  0  3  0  0  0  0  0  0
  198.8040  170.6640  135.2010 N   0  0  0  0  0  0  0  0  0  0  0  0
  198.4170  171.8890  135.2340 C   0  0  0  0  0  3  0  0  0  0  0  0
  200.2220  170.8050  137.5120 S   0  0  0  0  0  0  0  0  0  0  0  0
  199.2650  172.9290  135.8960 C   0  0  1  0  0  3  0  0  0  0  0  0
  198.8550  168.1130  135.6430 C   0  0  0  0  0  2  0  0  0  0  0  0
  199.6430  168.2680  134.3600 C   0  0  0  0  0  2  0  0  0  0  0  0
  200.2270  168.7560  135.6730 C   0  0  0  0  0  3  0  0  0  0  0  0
  1  2  1  6  0  0  0
  1 21  1  0  0  0  0
  3  2  1  0  0  0  0
  4  3  1  0  0  0  0
  5  6  1  0  0  0  0
  5  4  1  0  0  0  0
  7 20  1  6  0  0  0
  8  9  1  6  0  0  0
  8  6  1  0  0  0  0
  8 10  1  0  0  0  0
  8  7  1  0  0  0  0
 10 11  1  6  0  0  0
 10  7  1  0  0  0  0
 13 17  1  0  0  0  0
 14 18  1  0  0  0  0
 14 12  1  0  0  0  0
 15 12  1  0  0  0  0
 15 13  1  0  0  0  0
 16 18  1  0  0  0  0
 16 13  1  0  0  0  0
 17 20  1  0  0  0  0
 17 19  2  0  0  0  0
 21 22  1  0  0  0  0
 22 23  1  0  0  0  0
 23 27  1  0  0  0  0
 24 29  2  0  0  0  0
 25 30  1  0  0  0  0
 25 29  1  0  0  0  0
 26 31  1  0  0  0  0
 26 32  1  0  0  0  0
 27 24  1  0  0  0  0
 30 28  2  0  0  0  0
 31 33  1  6  0  0  0
 31 30  1  0  0  0  0
 32 27  2  0  0  0  0
 32 25  1  0  0  0  0
 33 34  1  6  0  0  0
 33 35  1  0  0  0  0
 36 37  1  0  0  0  0
 36 35  1  0  0  0  0
 38  1  1  0  0  0  0
 39 47  2  0  0  0  0
 39 43  1  0  0  0  0
 40 39  1  0  0  0  0
 41 40  2  0  0  0  0
 41 46  1  0  0  0  0
 42 45  2  0  0  0  0
 43 48  2  0  0  0  0
 44 43  1  0  0  0  0
 46 44  2  0  0  0  0
 47 42  1  0  0  0  0
 48 45  1  0  0  0  0
 48 38  1  0  0  0  0
 49 50  2  0  0  0  0
 49 47  1  0  0  0  0
 51 49  1  0  0  0  0
 52 51  1  0  0  0  0
 52 53  1  0  0  0  0
 54 58  1  0  0  0  0
 55 62  1  1  0  0  0
 55 58  1  0  0  0  0
 56 57  2  0  0  0  0
 56 55  1  0  0  0  0
 57 59  1  0  0  0  0
 59 53  1  1  0  0  0
 59 54  1  0  0  0  0
 60 62  1  0  0  0  0
 61 60  1  0  0  0  0
 61 62  1  0  0  0  0
M  END
>  <MODEL>
5

>  <REMARK>
 VINA RESULT:      -6.8      3.189      6.086
  Name = 
  21 active torsions:
  status: ('A' for Active; 'I' for Inactive)
    1  A    between atoms: C_2  and  C_40
    2  A    between atoms: C_2  and  S_58
    3  A    between atoms: C_3  and  C_55
    4  A    between atoms: C_6  and  C_39
    5  A    between atoms: C_6  and  C_49
    6  A    between atoms: N_8  and  C_25
    7  A    between atoms: N_8  and  C_57
    8  A    between atoms: N_10  and  C_41
    9  A    between atoms: N_10  and  N_50
   10  A    between atoms: C_11  and  N_53
   11  A    between atoms: N_13  and  C_25
   12  A    between atoms: N_13  and  C_35
   13  A    between atoms: C_14  and  C_34
   14  A    between atoms: C_25  and  C_59
   15  A    between atoms: C_27  and  C_51
   16  A    between atoms: C_30  and  C_49
   17  A    between atoms: C_31  and  C_48
   18  A    between atoms: C_35  and  C_51
   19  A    between atoms: C_40  and  C_59
   20  A    between atoms: C_41  and  C_60
   21  A    between atoms: C_48  and  S_58
                            x       y       z     vdW  Elec       q    Type
                         _______ _______ _______ _____ _____    ______ ____

>  <TORSDO>
F 21

$$$$
=
 OpenBabel10232407463D

 62 69  0  0  1  0  0  0  0  0999 V2000
  188.6730  174.9160  136.8920 C   0  0  2  0  0  3  0  0  0  0  0  0
  189.7980  173.9730  136.5030 C   0  0  0  0  0  2  0  0  0  0  0  0
  189.2700  172.7750  135.7370 C   0  0  0  0  0  2  0  0  0  0  0  0
  190.3010  172.3650  134.7050 C   0  0  0  0  0  2  0  0  0  0  0  0
  191.8970  173.1590  135.0510 S   0  0  0  0  0  0  0  0  0  0  0  0
  192.6650  171.5540  135.4260 C   0  0  0  0  0  2  0  0  0  0  0  0
  194.6790  171.7510  136.9870 C   0  0  1  0  0  3  0  0  0  0  0  0
  194.1720  171.6910  135.5520 C   0  0  2  0  0  0  0  0  0  0  0  0
  194.8330  172.5220  134.6350 O   0  0  0  0  0  1  0  0  0  0  0  0
  194.9520  170.5060  136.1090 C   0  0  1  0  0  3  0  0  0  0  0  0
  196.3730  170.4250  135.5530 C   0  0  0  0  0  1  0  0  0  0  0  0
  198.9620  175.0290  139.9800 C   0  0  0  0  0  2  0  0  0  0  0  0
  197.3140  174.1230  138.4330 N   0  0  0  0  0  0  0  0  0  0  0  0
  199.7960  175.3730  138.8310 N   0  0  0  0  0  2  0  0  0  0  0  0
  197.4950  175.0240  139.5690 C   0  0  0  0  0  2  0  0  0  0  0  0
  198.2600  174.1990  137.3190 C   0  0  0  0  0  2  0  0  0  0  0  0
  196.0960  173.3810  138.2930 C   0  0  0  0  0  0  0  0  0  0  0  0
  199.6910  174.2860  137.8580 C   0  0  0  0  0  2  0  0  0  0  0  0
  195.2440  173.3920  139.2230 O   0  0  0  0  0  0  0  0  0  0  0  0
  195.8500  172.6150  137.1110 N   0  0  0  0  0  2  0  0  0  0  0  0
  187.7770  175.0740  135.7560 N   0  0  0  0  0  2  0  0  0  0  0  0
  187.8000  176.4740  135.3490 C   0  0  0  0  0  2  0  0  0  0  0  0
  186.6910  177.2600  136.0450 C   0  0  0  0  0  2  0  0  0  0  0  0
  184.8930  175.8130  134.8570 C   0  0  0  0  0  3  0  0  0  0  0  0
  183.2690  176.0590  136.2420 N   0  0  0  0  0  0  0  0  0  0  0  0
  183.9360  177.7950  137.6060 N   0  0  0  0  0  2  0  0  0  0  0  0
  185.3770  176.5550  135.9390 C   0  0  0  0  0  0  0  0  0  0  0  0
  180.9380  176.4430  136.2470 O   0  0  0  0  0  0  0  0  0  0  0  0
  183.5730  175.5590  135.0560 N   0  0  0  0  0  0  0  0  0  0  0  0
  182.0940  176.6940  136.6880 C   0  0  0  0  0  0  0  0  0  0  0  0
  182.4580  177.7860  137.6550 C   0  0  1  0  0  3  0  0  0  0  0  0
  184.2890  176.7010  136.7630 C   0  0  0  0  0  0  0  0  0  0  0  0
  181.9460  177.4820  139.0650 C   0  0  1  0  0  3  0  0  0  0  0  0
  182.1600  176.0230  139.4600 C   0  0  0  0  0  1  0  0  0  0  0  0
  182.6090  178.4170  140.0690 C   0  0  0  0  0  2  0  0  0  0  0  0
  183.4530  177.6570  141.0840 C   0  0  0  0  0  2  0  0  0  0  0  0
  183.7560  178.5280  142.2890 C   0  0  0  0  0  1  0  0  0  0  0  0
  189.2220  176.2140  137.2630 N   0  0  0  0  0  2  0  0  0  0  0  0
  189.4120  177.6830  140.7480 C   0  0  0  0  0  0  0  0  0  0  0  0
  188.6350  178.3830  141.6200 N   0  0  0  0  0  0  0  0  0  0  0  0
  187.3670  178.7580  141.3030 C   0  0  0  0  0  3  0  0  0  0  0  0
  191.4400  176.5560  140.1790 N   0  0  0  0  0  0  0  0  0  0  0  0
  188.8790  177.3310  139.4850 C   0  0  0  0  0  0  0  0  0  0  0  0
  187.6080  177.7150  139.1820 N   0  0  0  0  0  0  0  0  0  0  0  0
  190.9520  176.2180  138.9580 C   0  0  0  0  0  3  0  0  0  0  0  0
  186.8440  178.4170  140.0570 C   0  0  0  0  0  3  0  0  0  0  0  0
  190.7250  177.2810  141.0830 C   0  0  0  0  0  0  0  0  0  0  0  0
  189.6670  176.5950  138.5740 C   0  0  0  0  0  0  0  0  0  0  0  0
  191.3640  177.6050  142.3790 C   0  0  0  0  0  0  0  0  0  0  0  0
  192.3810  178.3520  142.3970 O   0  0  0  0  0  0  0  0  0  0  0  0
  190.8270  177.1170  143.6130 N   0  0  0  0  0  2  0  0  0  0  0  0
  191.3630  177.4810  144.8560 N   0  0  0  0  0  2  0  0  0  0  0  0
  190.9010  176.5050  145.8320 C   0  0  0  0  0  2  0  0  0  0  0  0
  189.5730  177.3630  147.7810 C   0  0  0  0  0  2  0  0  0  0  0  0
  187.0080  177.9740  146.8500 C   0  0  1  0  0  3  0  0  0  0  0  0
  187.8000  178.4620  145.7420 N   0  0  0  0  0  0  0  0  0  0  0  0
  188.9510  177.9570  145.4720 C   0  0  0  0  0  3  0  0  0  0  0  0
  187.9700  178.0190  148.4150 S   0  0  0  0  0  0  0  0  0  0  0  0
  189.5180  176.8740  146.3340 C   0  0  1  0  0  3  0  0  0  0  0  0
  185.2250  179.1720  145.6160 C   0  0  0  0  0  2  0  0  0  0  0  0
  184.5720  178.0580  146.4060 C   0  0  0  0  0  2  0  0  0  0  0  0
  185.7500  178.8130  146.9920 C   0  0  0  0  0  3  0  0  0  0  0  0
  1  2  1  6  0  0  0
  1 38  1  0  0  0  0
  3  2  1  0  0  0  0
  4  5  1  0  0  0  0
  4  3  1  0  0  0  0
  5  6  1  0  0  0  0
  6  8  1  0  0  0  0
  7 20  1  6  0  0  0
  8  9  1  6  0  0  0
  8 10  1  0  0  0  0
  8  7  1  0  0  0  0
 10 11  1  6  0  0  0
 10  7  1  0  0  0  0
 13 15  1  0  0  0  0
 14 12  1  0  0  0  0
 15 12  1  0  0  0  0
 16 18  1  0  0  0  0
 16 13  1  0  0  0  0
 17 13  1  0  0  0  0
 17 19  2  0  0  0  0
 18 14  1  0  0  0  0
 20 17  1  0  0  0  0
 21  1  1  0  0  0  0
 22 21  1  0  0  0  0
 22 23  1  0  0  0  0
 24 29  2  0  0  0  0
 24 27  1  0  0  0  0
 25 30  1  0  0  0  0
 25 32  1  0  0  0  0
 26 31  1  0  0  0  0
 27 23  1  0  0  0  0
 27 32  2  0  0  0  0
 28 30  2  0  0  0  0
 29 25  1  0  0  0  0
 30 31  1  0  0  0  0
 31 33  1  1  0  0  0
 32 26  1  0  0  0  0
 33 34  1  1  0  0  0
 33 35  1  0  0  0  0
 35 36  1  0  0  0  0
 36 37  1  0  0  0  0
 38 48  1  0  0  0  0
 39 47  1  0  0  0  0
 39 40  2  0  0  0  0
 41 40  1  0  0  0  0
 42 47  2  0  0  0  0
 43 39  1  0  0  0  0
 44 43  2  0  0  0  0
 44 46  1  0  0  0  0
 45 42  1  0  0  0  0
 46 41  2  0  0  0  0
 47 49  1  0  0  0  0
 48 45  2  0  0  0  0
 48 43  1  0  0  0  0
 49 50  2  0  0  0  0
 49 51  1  0  0  0  0
 51 52  1  0  0  0  0
 52 53  1  0  0  0  0
 54 58  1  0  0  0  0
 55 62  1  1  0  0  0
 55 58  1  0  0  0  0
 56 55  1  0  0  0  0
 57 56  2  0  0  0  0
 57 59  1  0  0  0  0
 59 53  1  6  0  0  0
 59 54  1  0  0  0  0
 60 61  1  0  0  0  0
 60 62  1  0  0  0  0
 61 62  1  0  0  0  0
M  END
>  <MODEL>
6

>  <REMARK>
 VINA RESULT:      -6.5      3.241     11.056
  Name = 
  21 active torsions:
  status: ('A' for Active; 'I' for Inactive)
    1  A    between atoms: C_2  and  C_40
    2  A    between atoms: C_2  and  S_58
    3  A    between atoms: C_3  and  C_55
    4  A    between atoms: C_6  and  C_39
    5  A    between atoms: C_6  and  C_49
    6  A    between atoms: N_8  and  C_25
    7  A    between atoms: N_8  and  C_57
    8  A    between atoms: N_10  and  C_41
    9  A    between atoms: N_10  and  N_50
   10  A    between atoms: C_11  and  N_53
   11  A    between atoms: N_13  and  C_25
   12  A    between atoms: N_13  and  C_35
   13  A    between atoms: C_14  and  C_34
   14  A    between atoms: C_25  and  C_59
   15  A    between atoms: C_27  and  C_51
   16  A    between atoms: C_30  and  C_49
   17  A    between atoms: C_31  and  C_48
   18  A    between atoms: C_35  and  C_51
   19  A    between atoms: C_40  and  C_59
   20  A    between atoms: C_41  and  C_60
   21  A    between atoms: C_48  and  S_58
                            x       y       z     vdW  Elec       q    Type
                         _______ _______ _______ _____ _____    ______ ____

>  <TORSDO>
F 21

$$$$
=
 OpenBabel10232407463D

 62 69  0  0  1  0  0  0  0  0999 V2000
  185.2560  178.5740  139.5530 C   0  0  2  0  0  3  0  0  0  0  0  0
  186.7570  178.6610  139.7670 C   0  0  0  0  0  2  0  0  0  0  0  0
  187.5060  177.8130  138.7570 C   0  0  0  0  0  2  0  0  0  0  0  0
  188.8650  178.4360  138.5110 C   0  0  0  0  0  2  0  0  0  0  0  0
  189.2920  178.3530  136.7480 S   0  0  0  0  0  0  0  0  0  0  0  0
  188.3260  176.8270  136.5400 C   0  0  0  0  0  2  0  0  0  0  0  0
  189.7100  174.8350  137.3430 C   0  0  1  0  0  3  0  0  0  0  0  0
  189.2250  175.6640  136.1610 C   0  0  2  0  0  0  0  0  0  0  0  0
  190.1580  175.8650  135.1330 O   0  0  0  0  0  1  0  0  0  0  0  0
  188.6810  174.2520  136.3440 C   0  0  1  0  0  3  0  0  0  0  0  0
  189.2680  173.2620  135.3380 C   0  0  0  0  0  1  0  0  0  0  0  0
  195.6870  173.9780  138.6080 C   0  0  0  0  0  2  0  0  0  0  0  0
  193.4940  174.3100  137.6010 N   0  0  0  0  0  0  0  0  0  0  0  0
  195.9810  173.0080  137.5560 N   0  0  0  0  0  2  0  0  0  0  0  0
  194.6820  175.0030  138.0970 C   0  0  0  0  0  2  0  0  0  0  0  0
  193.6720  173.1450  136.7340 C   0  0  0  0  0  2  0  0  0  0  0  0
  192.2010  174.9140  137.7370 C   0  0  0  0  0  0  0  0  0  0  0  0
  194.7650  172.2350  137.3050 C   0  0  0  0  0  2  0  0  0  0  0  0
  192.0710  175.9700  138.4140 O   0  0  0  0  0  0  0  0  0  0  0  0
  191.0570  174.3160  137.1230 N   0  0  0  0  0  2  0  0  0  0  0  0
  184.6980  179.9180  139.5860 N   0  0  0  0  0  2  0  0  0  0  0  0
  183.7180  180.0310  138.5130 C   0  0  0  0  0  2  0  0  0  0  0  0
  182.5200  179.1210  138.7730 C   0  0  0  0  0  2  0  0  0  0  0  0
  181.0810  178.6570  136.6630 C   0  0  0  0  0  3  0  0  0  0  0  0
  181.8520  176.7250  136.1280 N   0  0  0  0  0  0  0  0  0  0  0  0
  183.0670  176.0600  137.9720 N   0  0  0  0  0  2  0  0  0  0  0  0
  182.1300  178.3690  137.5420 C   0  0  0  0  0  0  0  0  0  0  0  0
  181.0900  174.6130  135.3920 O   0  0  0  0  0  0  0  0  0  0  0  0
  180.9080  177.6000  135.8280 N   0  0  0  0  0  0  0  0  0  0  0  0
  181.8160  175.3170  136.1470 C   0  0  0  0  0  0  0  0  0  0  0  0
  182.6660  174.8160  137.2820 C   0  0  1  0  0  3  0  0  0  0  0  0
  182.5520  177.1180  137.1670 C   0  0  0  0  0  0  0  0  0  0  0  0
  183.8830  174.0400  136.7710 C   0  0  1  0  0  3  0  0  0  0  0  0
  185.1950  174.5740  137.3400 C   0  0  0  0  0  1  0  0  0  0  0  0
  183.7200  172.5580  137.0860 C   0  0  0  0  0  2  0  0  0  0  0  0
  184.0290  171.6820  135.8800 C   0  0  0  0  0  2  0  0  0  0  0  0
  183.7410  170.2240  136.1870 C   0  0  0  0  0  1  0  0  0  0  0  0
  184.6520  177.7710  140.6070 N   0  0  0  0  0  2  0  0  0  0  0  0
  183.9360  178.7030  144.2070 C   0  0  0  0  0  0  0  0  0  0  0  0
  182.9020  179.1430  144.9760 N   0  0  0  0  0  0  0  0  0  0  0  0
  181.6700  179.3780  144.4500 C   0  0  0  0  0  3  0  0  0  0  0  0
  186.1960  177.9760  143.9420 N   0  0  0  0  0  0  0  0  0  0  0  0
  183.7150  178.4750  142.8280 C   0  0  0  0  0  0  0  0  0  0  0  0
  182.4770  178.7160  142.3150 N   0  0  0  0  0  0  0  0  0  0  0  0
  186.0090  177.7630  142.6140 C   0  0  0  0  0  3  0  0  0  0  0  0
  181.4550  179.1600  143.0900 C   0  0  0  0  0  3  0  0  0  0  0  0
  185.2110  178.4450  144.7570 C   0  0  0  0  0  0  0  0  0  0  0  0
  184.7730  178.0070  142.0190 C   0  0  0  0  0  0  0  0  0  0  0  0
  185.5320  178.6550  146.1870 C   0  0  0  0  0  0  0  0  0  0  0  0
  184.5930  178.7890  147.0190 O   0  0  0  0  0  0  0  0  0  0  0  0
  186.8870  178.6750  146.6480 N   0  0  0  0  0  2  0  0  0  0  0  0
  187.2130  178.7860  148.0070 N   0  0  0  0  0  2  0  0  0  0  0  0
  188.2890  177.8440  148.2750 C   0  0  0  0  0  2  0  0  0  0  0  0
  190.5210  177.0570  147.4390 C   0  0  0  0  0  2  0  0  0  0  0  0
  190.4430  177.1140  144.6440 C   0  0  1  0  0  3  0  0  0  0  0  0
  189.1160  176.6070  144.9220 N   0  0  0  0  0  0  0  0  0  0  0  0
  188.5130  176.8870  146.0220 C   0  0  0  0  0  3  0  0  0  0  0  0
  191.6080  176.6810  145.9970 S   0  0  0  0  0  0  0  0  0  0  0  0
  189.1940  177.7160  147.0640 C   0  0  1  0  0  3  0  0  0  0  0  0
  189.8420  176.6290  142.2900 C   0  0  0  0  0  2  0  0  0  0  0  0
  190.9650  177.6450  142.2810 C   0  0  0  0  0  2  0  0  0  0  0  0
  190.9440  176.5470  143.3280 C   0  0  0  0  0  3  0  0  0  0  0  0
  1 21  1  0  0  0  0
  1  2  1  1  0  0  0
  1 38  1  0  0  0  0
  3  2  1  0  0  0  0
  4  3  1  0  0  0  0
  5  4  1  0  0  0  0
  6  5  1  0  0  0  0
  7 20  1  6  0  0  0
  8  9  1  6  0  0  0
  8 10  1  0  0  0  0
  8  6  1  0  0  0  0
  8  7  1  0  0  0  0
 10 11  1  6  0  0  0
 10  7  1  0  0  0  0
 13 17  1  0  0  0  0
 13 15  1  0  0  0  0
 14 12  1  0  0  0  0
 15 12  1  0  0  0  0
 16 18  1  0  0  0  0
 16 13  1  0  0  0  0
 17 19  2  0  0  0  0
 18 14  1  0  0  0  0
 20 17  1  0  0  0  0
 22 23  1  0  0  0  0
 22 21  1  0  0  0  0
 24 27  1  0  0  0  0
 25 30  1  0  0  0  0
 25 32  1  0  0  0  0
 27 23  1  0  0  0  0
 28 30  2  0  0  0  0
 29 25  1  0  0  0  0
 29 24  2  0  0  0  0
 30 31  1  0  0  0  0
 31 33  1  6  0  0  0
 31 26  1  0  0  0  0
 32 27  2  0  0  0  0
 32 26  1  0  0  0  0
 33 35  1  0  0  0  0
 33 34  1  1  0  0  0
 36 37  1  0  0  0  0
 36 35  1  0  0  0  0
 38 48  1  0  0  0  0
 39 47  1  0  0  0  0
 39 40  2  0  0  0  0
 41 40  1  0  0  0  0
 42 47  2  0  0  0  0
 43 39  1  0  0  0  0
 44 43  2  0  0  0  0
 44 46  1  0  0  0  0
 45 42  1  0  0  0  0
 46 41  2  0  0  0  0
 47 49  1  0  0  0  0
 48 45  2  0  0  0  0
 48 43  1  0  0  0  0
 49 51  1  0  0  0  0
 49 50  2  0  0  0  0
 51 52  1  0  0  0  0
 52 53  1  0  0  0  0
 55 62  1  6  0  0  0
 55 56  1  0  0  0  0
 55 58  1  0  0  0  0
 56 57  2  0  0  0  0
 57 59  1  0  0  0  0
 58 54  1  0  0  0  0
 59 54  1  0  0  0  0
 59 53  1  1  0  0  0
 60 62  1  0  0  0  0
 61 60  1  0  0  0  0
 61 62  1  0  0  0  0
M  END
>  <MODEL>
7

>  <REMARK>
 VINA RESULT:      -6.4      2.517      9.630
  Name = 
  21 active torsions:
  status: ('A' for Active; 'I' for Inactive)
    1  A    between atoms: C_2  and  C_40
    2  A    between atoms: C_2  and  S_58
    3  A    between atoms: C_3  and  C_55
    4  A    between atoms: C_6  and  C_39
    5  A    between atoms: C_6  and  C_49
    6  A    between atoms: N_8  and  C_25
    7  A    between atoms: N_8  and  C_57
    8  A    between atoms: N_10  and  C_41
    9  A    between atoms: N_10  and  N_50
   10  A    between atoms: C_11  and  N_53
   11  A    between atoms: N_13  and  C_25
   12  A    between atoms: N_13  and  C_35
   13  A    between atoms: C_14  and  C_34
   14  A    between atoms: C_25  and  C_59
   15  A    between atoms: C_27  and  C_51
   16  A    between atoms: C_30  and  C_49
   17  A    between atoms: C_31  and  C_48
   18  A    between atoms: C_35  and  C_51
   19  A    between atoms: C_40  and  C_59
   20  A    between atoms: C_41  and  C_60
   21  A    between atoms: C_48  and  S_58
                            x       y       z     vdW  Elec       q    Type
                         _______ _______ _______ _____ _____    ______ ____

>  <TORSDO>
F 21

$$$$
=
 OpenBabel10232407463D

 62 69  0  0  1  0  0  0  0  0999 V2000
  190.6670  177.0910  139.6390 C   0  0  2  0  0  3  0  0  0  0  0  0
  191.1790  175.9880  138.7290 C   0  0  0  0  0  2  0  0  0  0  0  0
  192.6770  176.0970  138.5210 C   0  0  0  0  0  2  0  0  0  0  0  0
  192.9390  176.5380  137.0950 C   0  0  0  0  0  2  0  0  0  0  0  0
  192.4630  175.2300  135.9290 S   0  0  0  0  0  0  0  0  0  0  0  0
  194.2050  174.8870  135.5340 C   0  0  0  0  0  2  0  0  0  0  0  0
  196.2750  173.6020  136.3050 C   0  0  1  0  0  3  0  0  0  0  0  0
  194.7890  173.8720  136.5010 C   0  0  2  0  0  0  0  0  0  0  0  0
  194.0050  172.7580  136.8340 O   0  0  0  0  0  1  0  0  0  0  0  0
  195.7750  174.3720  137.5510 C   0  0  1  0  0  3  0  0  0  0  0  0
  195.7370  173.5410  138.8340 C   0  0  0  0  0  1  0  0  0  0  0  0
  199.7880  169.0100  138.4560 C   0  0  0  0  0  2  0  0  0  0  0  0
  198.2600  170.4630  137.2370 N   0  0  0  0  0  0  0  0  0  0  0  0
  198.8280  167.9220  138.2860 N   0  0  0  0  0  2  0  0  0  0  0  0
  199.6460  170.0050  137.3100 C   0  0  0  0  0  2  0  0  0  0  0  0
  197.1880  169.4710  137.3210 C   0  0  0  0  0  2  0  0  0  0  0  0
  197.9690  171.8050  136.8240 C   0  0  0  0  0  0  0  0  0  0  0  0
  197.4850  168.4790  138.4490 C   0  0  0  0  0  2  0  0  0  0  0  0
  198.9090  172.6310  136.6680 O   0  0  0  0  0  0  0  0  0  0  0  0
  196.6170  172.2140  136.6060 N   0  0  0  0  0  2  0  0  0  0  0  0
  189.8410  176.4980  140.6790 N   0  0  0  0  0  2  0  0  0  0  0  0
  190.6660  176.3130  141.8680 C   0  0  0  0  0  2  0  0  0  0  0  0
  190.9670  177.6540  142.5330 C   0  0  0  0  0  2  0  0  0  0  0  0
  190.6430  177.4290  145.0980 C   0  0  0  0  0  3  0  0  0  0  0  0
  188.5650  177.9570  145.2390 N   0  0  0  0  0  0  0  0  0  0  0  0
  187.8090  177.9020  143.0610 N   0  0  0  0  0  2  0  0  0  0  0  0
  190.2200  177.8020  143.8190 C   0  0  0  0  0  0  0  0  0  0  0  0
  186.5940  177.2670  146.3440 O   0  0  0  0  0  0  0  0  0  0  0  0
  189.5830  177.4950  145.9460 N   0  0  0  0  0  0  0  0  0  0  0  0
  187.1950  177.6330  145.2970 C   0  0  0  0  0  0  0  0  0  0  0  0
  186.6210  177.6660  143.9070 C   0  0  1  0  0  3  0  0  0  0  0  0
  188.8870  178.0940  143.9740 C   0  0  0  0  0  0  0  0  0  0  0  0
  185.5900  178.7890  143.7530 C   0  0  1  0  0  3  0  0  0  0  0  0
  185.7240  179.5220  142.4210 C   0  0  0  0  0  1  0  0  0  0  0  0
  184.1840  178.2260  143.9220 C   0  0  0  0  0  2  0  0  0  0  0  0
  183.1460  179.3270  144.0880 C   0  0  0  0  0  2  0  0  0  0  0  0
  181.7500  178.7920  143.8250 C   0  0  0  0  0  1  0  0  0  0  0  0
  189.8740  178.0390  138.8690 N   0  0  0  0  0  2  0  0  0  0  0  0
  186.6270  177.2220  137.1010 C   0  0  0  0  0  0  0  0  0  0  0  0
  186.1930  176.6220  135.9580 N   0  0  0  0  0  0  0  0  0  0  0  0
  187.0620  176.1000  135.0520 C   0  0  0  0  0  3  0  0  0  0  0  0
  186.2180  178.3120  139.1870 N   0  0  0  0  0  0  0  0  0  0  0  0
  188.0180  177.2920  137.3530 C   0  0  0  0  0  0  0  0  0  0  0  0
  188.8760  176.7650  136.4360 N   0  0  0  0  0  0  0  0  0  0  0  0
  187.5480  178.4000  139.4420 C   0  0  0  0  0  3  0  0  0  0  0  0
  188.4320  176.1740  135.2970 C   0  0  0  0  0  3  0  0  0  0  0  0
  185.7230  177.7520  138.0490 C   0  0  0  0  0  0  0  0  0  0  0  0
  188.4840  177.9000  138.5390 C   0  0  0  0  0  0  0  0  0  0  0  0
  184.2540  177.7240  137.8680 C   0  0  0  0  0  0  0  0  0  0  0  0
  183.5710  178.7340  138.1940 O   0  0  0  0  0  0  0  0  0  0  0  0
  183.5980  176.5860  137.2980 N   0  0  0  0  0  2  0  0  0  0  0  0
  182.2210  176.5710  137.0370 N   0  0  0  0  0  2  0  0  0  0  0  0
  181.6240  175.5730  137.9130 C   0  0  0  0  0  2  0  0  0  0  0  0
  180.5680  173.9530  136.3120 C   0  0  0  0  0  2  0  0  0  0  0  0
  182.3900  171.8740  135.8910 C   0  0  1  0  0  3  0  0  0  0  0  0
  183.2950  173.0030  135.8970 N   0  0  0  0  0  0  0  0  0  0  0  0
  183.0170  174.0760  136.5480 C   0  0  0  0  0  3  0  0  0  0  0  0
  180.7080  172.3830  135.3550 S   0  0  0  0  0  0  0  0  0  0  0  0
  181.7210  174.1950  137.2860 C   0  0  1  0  0  3  0  0  0  0  0  0
  183.4140  169.6200  135.7930 C   0  0  0  0  0  2  0  0  0  0  0  0
  182.0680  169.5470  135.1040 C   0  0  0  0  0  2  0  0  0  0  0  0
  182.9220  170.7930  134.9680 C   0  0  0  0  0  3  0  0  0  0  0  0
  1  2  1  6  0  0  0
  1 21  1  0  0  0  0
  3  2  1  0  0  0  0
  4  3  1  0  0  0  0
  5  4  1  0  0  0  0
  6  5  1  0  0  0  0
  6  8  1  0  0  0  0
  7  8  1  0  0  0  0
  7 20  1  1  0  0  0
  7 10  1  0  0  0  0
  8  9  1  1  0  0  0
  8 10  1  0  0  0  0
 10 11  1  1  0  0  0
 13 15  1  0  0  0  0
 13 16  1  0  0  0  0
 14 18  1  0  0  0  0
 14 12  1  0  0  0  0
 15 12  1  0  0  0  0
 16 18  1  0  0  0  0
 17 13  1  0  0  0  0
 19 17  2  0  0  0  0
 20 17  1  0  0  0  0
 21 22  1  0  0  0  0
 22 23  1  0  0  0  0
 23 27  1  0  0  0  0
 24 29  2  0  0  0  0
 25 30  1  0  0  0  0
 25 29  1  0  0  0  0
 26 31  1  0  0  0  0
 26 32  1  0  0  0  0
 27 32  2  0  0  0  0
 27 24  1  0  0  0  0
 30 28  2  0  0  0  0
 31 33  1  1  0  0  0
 31 30  1  0  0  0  0
 32 25  1  0  0  0  0
 33 34  1  6  0  0  0
 33 35  1  0  0  0  0
 35 36  1  0  0  0  0
 37 36  1  0  0  0  0
 38  1  1  0  0  0  0
 39 43  2  0  0  0  0
 39 47  1  0  0  0  0
 40 39  1  0  0  0  0
 41 46  1  0  0  0  0
 41 40  2  0  0  0  0
 42 45  1  0  0  0  0
 43 48  1  0  0  0  0
 44 43  1  0  0  0  0
 46 44  2  0  0  0  0
 47 42  2  0  0  0  0
 48 38  1  0  0  0  0
 48 45  2  0  0  0  0
 49 47  1  0  0  0  0
 49 50  2  0  0  0  0
 51 49  1  0  0  0  0
 52 51  1  0  0  0  0
 52 53  1  0  0  0  0
 54 59  1  0  0  0  0
 55 62  1  6  0  0  0
 55 56  1  0  0  0  0
 56 57  2  0  0  0  0
 57 59  1  0  0  0  0
 58 55  1  0  0  0  0
 58 54  1  0  0  0  0
 59 53  1  6  0  0  0
 61 60  1  0  0  0  0
 62 61  1  0  0  0  0
 62 60  1  0  0  0  0
M  END
>  <MODEL>
8

>  <REMARK>
 VINA RESULT:      -6.2      3.232      9.861
  Name = 
  21 active torsions:
  status: ('A' for Active; 'I' for Inactive)
    1  A    between atoms: C_2  and  C_40
    2  A    between atoms: C_2  and  S_58
    3  A    between atoms: C_3  and  C_55
    4  A    between atoms: C_6  and  C_39
    5  A    between atoms: C_6  and  C_49
    6  A    between atoms: N_8  and  C_25
    7  A    between atoms: N_8  and  C_57
    8  A    between atoms: N_10  and  C_41
    9  A    between atoms: N_10  and  N_50
   10  A    between atoms: C_11  and  N_53
   11  A    between atoms: N_13  and  C_25
   12  A    between atoms: N_13  and  C_35
   13  A    between atoms: C_14  and  C_34
   14  A    between atoms: C_25  and  C_59
   15  A    between atoms: C_27  and  C_51
   16  A    between atoms: C_30  and  C_49
   17  A    between atoms: C_31  and  C_48
   18  A    between atoms: C_35  and  C_51
   19  A    between atoms: C_40  and  C_59
   20  A    between atoms: C_41  and  C_60
   21  A    between atoms: C_48  and  S_58
                            x       y       z     vdW  Elec       q    Type
                         _______ _______ _______ _____ _____    ______ ____

>  <TORSDO>
F 21

$$$$
=
 OpenBabel10232407463D

 62 69  0  0  1  0  0  0  0  0999 V2000
  188.1520  177.5040  137.8220 C   0  0  2  0  0  3  0  0  0  0  0  0
  189.4120  177.0720  137.0930 C   0  0  0  0  0  2  0  0  0  0  0  0
  189.1610  175.8400  136.2450 C   0  0  0  0  0  2  0  0  0  0  0  0
  189.5450  176.1500  134.8120 C   0  0  0  0  0  2  0  0  0  0  0  0
  191.3510  176.1410  134.6230 S   0  0  0  0  0  0  0  0  0  0  0  0
  191.4650  174.4840  135.3640 C   0  0  0  0  0  2  0  0  0  0  0  0
  193.9450  175.0910  135.4700 C   0  0  1  0  0  3  0  0  0  0  0  0
  192.7940  174.3000  136.0760 C   0  0  2  0  0  0  0  0  0  0  0  0
  193.1130  173.0170  136.5440 O   0  0  0  0  0  1  0  0  0  0  0  0
  193.3600  175.4870  136.8470 C   0  0  1  0  0  3  0  0  0  0  0  0
  194.2120  175.0570  138.0420 C   0  0  0  0  0  1  0  0  0  0  0  0
  200.0660  174.5340  136.0100 C   0  0  0  0  0  2  0  0  0  0  0  0
  197.6940  174.3100  135.5020 N   0  0  0  0  0  0  0  0  0  0  0  0
  200.1230  173.0860  136.1980 N   0  0  0  0  0  2  0  0  0  0  0  0
  198.9530  174.8820  135.0280 C   0  0  0  0  0  2  0  0  0  0  0  0
  197.6850  172.9230  135.9690 C   0  0  0  0  0  2  0  0  0  0  0  0
  196.4590  174.9970  135.2610 C   0  0  0  0  0  0  0  0  0  0  0  0
  198.8940  172.6720  136.8750 C   0  0  0  0  0  2  0  0  0  0  0  0
  196.4720  176.1600  134.7750 O   0  0  0  0  0  0  0  0  0  0  0  0
  195.2130  174.3750  135.5860 N   0  0  0  0  0  2  0  0  0  0  0  0
  187.3130  178.2580  136.9040 N   0  0  0  0  0  2  0  0  0  0  0  0
  185.9800  177.6650  136.9120 C   0  0  0  0  0  2  0  0  0  0  0  0
  185.6180  177.1260  135.5300 C   0  0  0  0  0  2  0  0  0  0  0  0
  183.1230  176.5300  135.9260 C   0  0  0  0  0  3  0  0  0  0  0  0
  183.2560  174.3870  135.8560 N   0  0  0  0  0  0  0  0  0  0  0  0
  185.5170  173.9480  135.9780 N   0  0  0  0  0  2  0  0  0  0  0  0
  184.4430  176.2050  135.5970 C   0  0  0  0  0  0  0  0  0  0  0  0
  182.4360  172.4860  136.9940 O   0  0  0  0  0  0  0  0  0  0  0  0
  182.4260  175.3810  136.1210 N   0  0  0  0  0  0  0  0  0  0  0  0
  183.3880  173.1240  136.4650 C   0  0  0  0  0  0  0  0  0  0  0  0
  184.8410  172.7390  136.4960 C   0  0  1  0  0  3  0  0  0  0  0  0
  184.4650  174.8330  135.6010 C   0  0  0  0  0  0  0  0  0  0  0  0
  185.1180  171.5200  135.6110 C   0  0  1  0  0  3  0  0  0  0  0  0
  184.0330  171.3060  134.5590 C   0  0  0  0  0  1  0  0  0  0  0  0
  186.4870  171.6570  134.9570 C   0  0  0  0  0  2  0  0  0  0  0  0
  187.5910  171.0510  135.8140 C   0  0  0  0  0  2  0  0  0  0  0  0
  188.6470  172.0910  136.1400 C   0  0  0  0  0  1  0  0  0  0  0  0
  188.5030  178.3420  138.9610 N   0  0  0  0  0  2  0  0  0  0  0  0
  187.6740  177.7420  142.6070 C   0  0  0  0  0  0  0  0  0  0  0  0
  188.2190  177.1580  143.7100 N   0  0  0  0  0  0  0  0  0  0  0  0
  189.4350  176.5500  143.6680 C   0  0  0  0  0  3  0  0  0  0  0  0
  185.9400  178.9790  141.5260 N   0  0  0  0  0  0  0  0  0  0  0  0
  188.3990  177.7220  141.3920 C   0  0  0  0  0  0  0  0  0  0  0  0
  189.6140  177.1070  141.3660 N   0  0  0  0  0  0  0  0  0  0  0  0
  186.6140  178.9600  140.3470 C   0  0  0  0  0  3  0  0  0  0  0  0
  190.1460  176.5240  142.4700 C   0  0  0  0  0  3  0  0  0  0  0  0
  186.4180  178.3870  142.6550 C   0  0  0  0  0  0  0  0  0  0  0  0
  187.8540  178.3330  140.2420 C   0  0  0  0  0  0  0  0  0  0  0  0
  185.5910  178.4560  143.8810 C   0  0  0  0  0  0  0  0  0  0  0  0
  184.3990  178.0420  143.8470 O   0  0  0  0  0  0  0  0  0  0  0  0
  186.1290  178.9500  145.1110 N   0  0  0  0  0  2  0  0  0  0  0  0
  185.3920  178.9450  146.3040 N   0  0  0  0  0  2  0  0  0  0  0  0
  185.8960  177.8510  147.1220 C   0  0  0  0  0  2  0  0  0  0  0  0
  187.8540  178.4840  148.5590 C   0  0  0  0  0  2  0  0  0  0  0  0
  190.1540  177.4430  147.3580 C   0  0  1  0  0  3  0  0  0  0  0  0
  189.2400  176.3420  147.1450 N   0  0  0  0  0  0  0  0  0  0  0  0
  187.9720  176.5370  147.0550 C   0  0  0  0  0  3  0  0  0  0  0  0
  189.6750  178.4170  148.8410 S   0  0  0  0  0  0  0  0  0  0  0  0
  187.4090  177.9130  147.2130 C   0  0  1  0  0  3  0  0  0  0  0  0
  191.5460  175.3970  147.4780 C   0  0  0  0  0  2  0  0  0  0  0  0
  191.9820  176.1820  146.2590 C   0  0  0  0  0  2  0  0  0  0  0  0
  191.5670  176.9130  147.5220 C   0  0  0  0  0  3  0  0  0  0  0  0
  1  2  1  6  0  0  0
  1 38  1  0  0  0  0
  3  2  1  0  0  0  0
  4  3  1  0  0  0  0
  5  4  1  0  0  0  0
  5  6  1  0  0  0  0
  6  8  1  0  0  0  0
  7 20  1  1  0  0  0
  7  8  1  0  0  0  0
  7 10  1  0  0  0  0
  8  9  1  1  0  0  0
  8 10  1  0  0  0  0
 10 11  1  1  0  0  0
 12 14  1  0  0  0  0
 13 16  1  0  0  0  0
 14 18  1  0  0  0  0
 15 13  1  0  0  0  0
 15 12  1  0  0  0  0
 16 18  1  0  0  0  0
 17 13  1  0  0  0  0
 17 20  1  0  0  0  0
 19 17  2  0  0  0  0
 21 22  1  0  0  0  0
 21  1  1  0  0  0  0
 23 27  1  0  0  0  0
 23 22  1  0  0  0  0
 24 29  2  0  0  0  0
 25 29  1  0  0  0  0
 25 30  1  0  0  0  0
 26 31  1  0  0  0  0
 27 32  2  0  0  0  0
 27 24  1  0  0  0  0
 30 31  1  0  0  0  0
 30 28  2  0  0  0  0
 31 33  1  6  0  0  0
 32 25  1  0  0  0  0
 32 26  1  0  0  0  0
 33 34  1  6  0  0  0
 35 33  1  0  0  0  0
 35 36  1  0  0  0  0
 36 37  1  0  0  0  0
 38 48  1  0  0  0  0
 39 47  1  0  0  0  0
 39 40  2  0  0  0  0
 41 40  1  0  0  0  0
 42 47  2  0  0  0  0
 43 39  1  0  0  0  0
 44 43  2  0  0  0  0
 44 46  1  0  0  0  0
 45 42  1  0  0  0  0
 46 41  2  0  0  0  0
 47 49  1  0  0  0  0
 48 45  2  0  0  0  0
 48 43  1  0  0  0  0
 49 51  1  0  0  0  0
 50 49  2  0  0  0  0
 51 52  1  0  0  0  0
 52 53  1  0  0  0  0
 54 58  1  0  0  0  0
 55 62  1  1  0  0  0
 55 58  1  0  0  0  0
 56 55  1  0  0  0  0
 57 56  2  0  0  0  0
 57 59  1  0  0  0  0
 59 53  1  1  0  0  0
 59 54  1  0  0  0  0
 60 62  1  0  0  0  0
 61 60  1  0  0  0  0
 61 62  1  0  0  0  0
M  END
>  <MODEL>
9

>  <REMARK>
 VINA RESULT:      -6.1      3.164     10.876
  Name = 
  21 active torsions:
  status: ('A' for Active; 'I' for Inactive)
    1  A    between atoms: C_2  and  C_40
    2  A    between atoms: C_2  and  S_58
    3  A    between atoms: C_3  and  C_55
    4  A    between atoms: C_6  and  C_39
    5  A    between atoms: C_6  and  C_49
    6  A    between atoms: N_8  and  C_25
    7  A    between atoms: N_8  and  C_57
    8  A    between atoms: N_10  and  C_41
    9  A    between atoms: N_10  and  N_50
   10  A    between atoms: C_11  and  N_53
   11  A    between atoms: N_13  and  C_25
   12  A    between atoms: N_13  and  C_35
   13  A    between atoms: C_14  and  C_34
   14  A    between atoms: C_25  and  C_59
   15  A    between atoms: C_27  and  C_51
   16  A    between atoms: C_30  and  C_49
   17  A    between atoms: C_31  and  C_48
   18  A    between atoms: C_35  and  C_51
   19  A    between atoms: C_40  and  C_59
   20  A    between atoms: C_41  and  C_60
   21  A    between atoms: C_48  and  S_58
                            x       y       z     vdW  Elec       q    Type
                         _______ _______ _______ _____ _____    ______ ____

>  <TORSDO>
F 21

$$$$
