=
 OpenBabel10232411573D

 37 43  0  0  1  0  0  0  0  0999 V2000
  188.4970  177.6190  142.5650 C   0  0  0  0  0  0  0  0  0  0  0  0
  184.4310  179.2560  140.6130 N   0  0  0  0  0  0  0  0  0  0  0  0
  184.4030  178.4090  142.8530 C   0  0  0  0  0  3  0  0  0  0  0  0
  188.2670  177.2400  139.3890 C   0  0  0  0  0  2  0  0  0  0  0  0
  190.4810  176.0890  142.3430 C   0  0  0  0  0  2  0  0  0  0  0  0
  190.0960  178.1080  140.8990 N   0  0  1  0  0  0  0  0  0  0  0  0
  191.5160  176.5110  144.5250 N   0  0  0  0  0  0  0  0  0  0  0  0
  183.7460  178.9790  141.7570 C   0  0  0  0  0  3  0  0  0  0  0  0
  187.8350  178.1240  141.4830 C   0  0  0  0  0  0  0  0  0  0  0  0
  187.8310  177.3180  143.7600 C   0  0  0  0  0  3  0  0  0  0  0  0
  186.4630  178.4210  141.5610 C   0  0  0  0  0  0  0  0  0  0  0  0
  188.7480  178.3240  140.3100 C   0  0  1  0  0  0  0  0  0  0  0  0
  190.6240  175.6180  143.7910 C   0  0  0  0  0  2  0  0  0  0  0  0
  189.9470  177.5380  142.2630 C   0  0  1  0  0  0  0  0  0  0  0  0
  185.7670  178.1280  142.7600 C   0  0  0  0  0  0  0  0  0  0  0  0
  186.4550  177.5670  143.8470 C   0  0  0  0  0  3  0  0  0  0  0  0
  185.7610  178.9900  140.4910 C   0  0  0  0  0  3  0  0  0  0  0  0
  190.8700  177.8200  144.6140 C   0  0  0  0  0  2  0  0  0  0  0  0
  190.7430  178.4380  143.2210 C   0  0  0  0  0  2  0  0  0  0  0  0
  189.6820  177.1850  139.8400 C   0  0  2  0  0  0  0  0  0  0  0  0
  190.4670  177.5300  138.6660 N   0  0  0  0  0  2  0  0  0  0  0  0
  191.1690  176.3290  138.2380 C   0  0  0  0  0  2  0  0  0  0  0  0
  192.6700  176.5650  138.2250 C   0  0  1  0  0  3  0  0  0  0  0  0
  193.1320  177.2060  139.5240 C   0  0  0  0  0  1  0  0  0  0  0  0
  194.8050  175.1990  138.2620 N   0  0  0  0  0  2  0  0  0  0  0  0
  195.6260  174.0360  138.0970 C   0  0  0  0  0  0  0  0  0  0  0  0
  195.1130  172.8950  137.7790 N   0  0  0  0  0  2  0  0  0  0  0  0
  193.3950  175.2810  137.9980 C   0  0  0  0  0  0  0  0  0  0  0  0
  197.0870  174.1370  138.3310 C   0  0  0  0  0  1  0  0  0  0  0  0
  192.7590  174.2870  137.5550 O   0  0  0  0  0  0  0  0  0  0  0  0
  191.5880  175.9940  145.8800 C   0  0  0  0  0  2  0  0  0  0  0  0
  191.1240  177.0340  146.8880 C   0  0  1  0  0  3  0  0  0  0  0  0
  189.7500  176.6500  147.4450 C   0  0  0  0  0  3  0  0  0  0  0  0
  189.0980  177.7620  148.2520 C   0  0  0  0  0  2  0  0  0  0  0  0
  188.7100  177.5510  146.8090 C   0  0  0  0  0  2  0  0  0  0  0  0
  192.5820  175.8510  148.0570 C   0  0  0  0  0  1  0  0  0  0  0  0
  192.0820  177.1430  147.8950 O   0  0  0  0  0  0  0  0  0  0  0  0
  1 10  1  0  0  0  0
  2  8  1  0  0  0  0
  4 20  1  0  0  0  0
  4 12  1  0  0  0  0
  5 13  1  0  0  0  0
  6 14  1  0  0  0  0
  7 18  1  0  0  0  0
  7 31  1  0  0  0  0
  8  3  2  0  0  0  0
  9 11  1  0  0  0  0
  9  1  2  0  0  0  0
 10 16  2  0  0  0  0
 11 15  2  0  0  0  0
 12  6  1  0  0  0  0
 12  9  1  0  0  0  0
 13  7  1  0  0  0  0
 14  5  1  0  0  0  0
 14  1  1  0  0  0  0
 14 19  1  0  0  0  0
 15  3  1  0  0  0  0
 15 16  1  0  0  0  0
 17  2  2  0  0  0  0
 17 11  1  0  0  0  0
 19 18  1  0  0  0  0
 20 12  1  0  0  0  0
 20  6  1  0  0  0  0
 21 20  1  0  0  0  0
 22 21  1  0  0  0  0
 23 22  1  0  0  0  0
 23 24  1  0  0  0  0
 26 25  1  0  0  0  0
 26 29  1  0  0  0  0
 27 26  2  0  0  0  0
 28 23  1  0  0  0  0
 28 25  1  0  0  0  0
 30 28  2  0  0  0  0
 31 32  1  0  0  0  0
 32 33  1  0  0  0  0
 32 37  1  0  0  0  0
 33 34  1  0  0  0  0
 35 33  1  0  0  0  0
 35 34  1  0  0  0  0
 37 36  1  0  0  0  0
M  END
>  <MODEL>
1

>  <REMARK>
 VINA RESULT:      -9.2      0.000      0.000
  Name = 
  8 active torsions:
  status: ('A' for Active; 'I' for Inactive)
    1  A    between atoms: C_3  and  C_17
    2  A    between atoms: C_3  and  C_28
    3  A    between atoms: N_7  and  C_28
    4  A    between atoms: N_7  and  C_31
    5  A    between atoms: C_12  and  C_19
    6  A    between atoms: N_14  and  C_34
    7  A    between atoms: C_19  and  C_34
    8  A    between atoms: C_19  and  O_35
                            x       y       z     vdW  Elec       q    Type
                         _______ _______ _______ _____ _____    ______ ____

>  <TORSDO>
F 8

$$$$
=
 OpenBabel10232411573D

 37 43  0  0  1  0  0  0  0  0999 V2000
  188.4070  177.6710  142.5400 C   0  0  0  0  0  0  0  0  0  0  0  0
  184.2670  179.2660  140.7150 N   0  0  0  0  0  0  0  0  0  0  0  0
  184.3100  178.3910  142.9440 C   0  0  0  0  0  3  0  0  0  0  0  0
  188.1000  177.3290  139.3660 C   0  0  0  0  0  2  0  0  0  0  0  0
  190.4090  176.1770  142.2460 C   0  0  0  0  0  2  0  0  0  0  0  0
  189.9550  178.2070  140.8400 N   0  0  1  0  0  0  0  0  0  0  0  0
  191.4940  176.5880  144.4060 N   0  0  0  0  0  0  0  0  0  0  0  0
  183.6160  178.9640  141.8730 C   0  0  0  0  0  3  0  0  0  0  0  0
  187.7090  178.1790  141.4820 C   0  0  0  0  0  0  0  0  0  0  0  0
  187.7780  177.3450  143.7470 C   0  0  0  0  0  3  0  0  0  0  0  0
  186.3360  178.4530  141.5990 C   0  0  0  0  0  0  0  0  0  0  0  0
  188.5890  178.4080  140.2880 C   0  0  1  0  0  0  0  0  0  0  0  0
  190.5970  175.6900  143.6850 C   0  0  0  0  0  2  0  0  0  0  0  0
  189.8500  177.6180  142.2000 C   0  0  1  0  0  0  0  0  0  0  0  0
  185.6760  178.1340  142.8120 C   0  0  0  0  0  0  0  0  0  0  0  0
  186.4000  177.5710  143.8740 C   0  0  0  0  0  3  0  0  0  0  0  0
  185.5970  179.0230  140.5550 C   0  0  0  0  0  3  0  0  0  0  0  0
  190.8300  177.8850  144.5290 C   0  0  0  0  0  2  0  0  0  0  0  0
  190.6560  178.5190  143.1480 C   0  0  0  0  0  2  0  0  0  0  0  0
  189.5280  177.2900  139.7790 C   0  0  2  0  0  0  0  0  0  0  0  0
  190.2760  177.6630  138.5900 N   0  0  0  0  0  2  0  0  0  0  0  0
  191.1290  176.5380  138.2380 C   0  0  0  0  0  2  0  0  0  0  0  0
  190.7430  175.9820  136.8760 C   0  0  1  0  0  3  0  0  0  0  0  0
  191.9770  175.6920  136.0370 C   0  0  0  0  0  1  0  0  0  0  0  0
  188.5060  174.7920  136.8180 N   0  0  0  0  0  2  0  0  0  0  0  0
  187.6000  173.6860  136.9280 C   0  0  0  0  0  0  0  0  0  0  0  0
  188.0300  172.4880  137.1410 N   0  0  0  0  0  2  0  0  0  0  0  0
  189.9250  174.7440  137.0340 C   0  0  0  0  0  0  0  0  0  0  0  0
  186.1450  173.9180  136.7570 C   0  0  0  0  0  1  0  0  0  0  0  0
  190.4940  173.6730  137.3780 O   0  0  0  0  0  0  0  0  0  0  0  0
  191.6090  176.0550  145.7530 C   0  0  0  0  0  2  0  0  0  0  0  0
  191.1040  177.0540  146.7820 C   0  0  1  0  0  3  0  0  0  0  0  0
  189.7080  176.6520  147.2650 C   0  0  0  0  0  3  0  0  0  0  0  0
  189.1140  177.6290  148.2670 C   0  0  0  0  0  2  0  0  0  0  0  0
  188.7230  177.7110  146.8120 C   0  0  0  0  0  2  0  0  0  0  0  0
  192.5210  175.8260  147.9520 C   0  0  0  0  0  1  0  0  0  0  0  0
  192.0190  177.1200  147.8320 O   0  0  0  0  0  0  0  0  0  0  0  0
  1 10  1  0  0  0  0
  2  8  1  0  0  0  0
  4 20  1  0  0  0  0
  4 12  1  0  0  0  0
  5 13  1  0  0  0  0
  6 14  1  0  0  0  0
  7 18  1  0  0  0  0
  7 31  1  0  0  0  0
  8  3  2  0  0  0  0
  9 11  1  0  0  0  0
  9  1  2  0  0  0  0
 10 16  2  0  0  0  0
 11 15  2  0  0  0  0
 12  6  1  0  0  0  0
 12  9  1  0  0  0  0
 13  7  1  0  0  0  0
 14  5  1  0  0  0  0
 14  1  1  0  0  0  0
 14 19  1  0  0  0  0
 15  3  1  0  0  0  0
 15 16  1  0  0  0  0
 17  2  2  0  0  0  0
 17 11  1  0  0  0  0
 19 18  1  0  0  0  0
 20 12  1  0  0  0  0
 20  6  1  0  0  0  0
 21 20  1  0  0  0  0
 22 21  1  0  0  0  0
 23 28  1  0  0  0  0
 23 22  1  0  0  0  0
 24 23  1  0  0  0  0
 25 26  1  0  0  0  0
 25 28  1  0  0  0  0
 26 27  2  0  0  0  0
 28 30  2  0  0  0  0
 29 26  1  0  0  0  0
 31 32  1  0  0  0  0
 32 33  1  0  0  0  0
 32 37  1  0  0  0  0
 33 34  1  0  0  0  0
 35 33  1  0  0  0  0
 35 34  1  0  0  0  0
 37 36  1  0  0  0  0
M  END
>  <MODEL>
2

>  <REMARK>
 VINA RESULT:      -9.2      2.002      2.950
  Name = 
  8 active torsions:
  status: ('A' for Active; 'I' for Inactive)
    1  A    between atoms: C_3  and  C_17
    2  A    between atoms: C_3  and  C_28
    3  A    between atoms: N_7  and  C_28
    4  A    between atoms: N_7  and  C_31
    5  A    between atoms: C_12  and  C_19
    6  A    between atoms: N_14  and  C_34
    7  A    between atoms: C_19  and  C_34
    8  A    between atoms: C_19  and  O_35
                            x       y       z     vdW  Elec       q    Type
                         _______ _______ _______ _____ _____    ______ ____

>  <TORSDO>
F 8

$$$$
=
 OpenBabel10232411573D

 37 43  0  0  1  0  0  0  0  0999 V2000
  190.6420  177.1590  140.8910 C   0  0  0  0  0  0  0  0  0  0  0  0
  191.5200  176.4390  136.2300 N   0  0  0  0  0  0  0  0  0  0  0  0
  193.3450  176.4620  137.7810 C   0  0  0  0  0  3  0  0  0  0  0  0
  188.6090  178.6190  138.8850 C   0  0  0  0  0  2  0  0  0  0  0  0
  189.5460  178.6020  142.6370 C   0  0  0  0  0  2  0  0  0  0  0  0
  188.2830  177.2190  140.9630 N   0  0  1  0  0  0  0  0  0  0  0  0
  190.3290  177.4170  144.6350 N   0  0  0  0  0  0  0  0  0  0  0  0
  192.8550  176.3280  136.4770 C   0  0  0  0  0  3  0  0  0  0  0  0
  190.1800  177.0820  139.6080 C   0  0  0  0  0  0  0  0  0  0  0  0
  192.0050  177.0520  141.1900 C   0  0  0  0  0  3  0  0  0  0  0  0
  191.0650  176.8240  138.5470 C   0  0  0  0  0  0  0  0  0  0  0  0
  188.6940  177.2670  139.5350 C   0  0  1  0  0  0  0  0  0  0  0  0
  190.6030  178.5390  143.7420 C   0  0  0  0  0  2  0  0  0  0  0  0
  189.4940  177.2890  141.8220 C   0  0  1  0  0  0  0  0  0  0  0  0
  192.4500  176.7090  138.8230 C   0  0  0  0  0  0  0  0  0  0  0  0
  192.9120  176.8360  140.1430 C   0  0  0  0  0  3  0  0  0  0  0  0
  190.6240  176.6850  137.2250 C   0  0  0  0  0  3  0  0  0  0  0  0
  190.5030  176.1810  143.8740 C   0  0  0  0  0  2  0  0  0  0  0  0
  189.4420  176.0860  142.7770 C   0  0  0  0  0  2  0  0  0  0  0  0
  188.0170  178.4660  140.2400 C   0  0  2  0  0  0  0  0  0  0  0  0
  186.5790  178.5200  140.0330 N   0  0  0  0  0  2  0  0  0  0  0  0
  185.9970  179.2150  141.1710 C   0  0  0  0  0  2  0  0  0  0  0  0
  184.5000  178.9570  141.2440 C   0  0  1  0  0  3  0  0  0  0  0  0
  184.1350  177.6610  140.5380 C   0  0  0  0  0  1  0  0  0  0  0  0
  185.0220  178.9310  143.7240 N   0  0  0  0  0  2  0  0  0  0  0  0
  184.7360  178.9000  145.1280 C   0  0  0  0  0  0  0  0  0  0  0  0
  183.5240  178.9570  145.5670 N   0  0  0  0  0  2  0  0  0  0  0  0
  184.0510  178.9130  142.6660 C   0  0  0  0  0  0  0  0  0  0  0  0
  185.8580  178.8360  146.0970 C   0  0  0  0  0  1  0  0  0  0  0  0
  182.8180  178.8400  142.9170 O   0  0  0  0  0  0  0  0  0  0  0  0
  191.3760  177.4320  145.6420 C   0  0  0  0  0  2  0  0  0  0  0  0
  190.8020  177.2000  147.0320 C   0  0  1  0  0  3  0  0  0  0  0  0
  189.3220  177.5930  147.0620 C   0  0  0  0  0  3  0  0  0  0  0  0
  188.5380  176.8920  148.1600 C   0  0  0  0  0  2  0  0  0  0  0  0
  189.0430  178.2980  148.3740 C   0  0  0  0  0  2  0  0  0  0  0  0
  192.3690  175.7330  147.5620 C   0  0  0  0  0  1  0  0  0  0  0  0
  190.9930  175.8640  147.3800 O   0  0  0  0  0  0  0  0  0  0  0  0
  1 10  1  0  0  0  0
  1 14  1  0  0  0  0
  2  8  2  0  0  0  0
  2 17  1  0  0  0  0
  3 15  2  0  0  0  0
  4 12  1  0  0  0  0
  4 20  1  0  0  0  0
  5 13  1  0  0  0  0
  6 14  1  0  0  0  0
  7 31  1  0  0  0  0
  8  3  1  0  0  0  0
  9  1  2  0  0  0  0
 11 15  1  0  0  0  0
 11  9  1  0  0  0  0
 12  9  1  0  0  0  0
 12 20  1  0  0  0  0
 12  6  1  0  0  0  0
 13  7  1  0  0  0  0
 14  5  1  0  0  0  0
 14 19  1  0  0  0  0
 15 16  1  0  0  0  0
 16 10  2  0  0  0  0
 17 11  2  0  0  0  0
 18  7  1  0  0  0  0
 19 18  1  0  0  0  0
 20  6  1  0  0  0  0
 21 20  1  0  0  0  0
 21 22  1  0  0  0  0
 22 23  1  0  0  0  0
 23 28  1  0  0  0  0
 24 23  1  0  0  0  0
 25 26  1  0  0  0  0
 26 27  2  0  0  0  0
 26 29  1  0  0  0  0
 28 30  2  0  0  0  0
 28 25  1  0  0  0  0
 31 32  1  0  0  0  0
 32 33  1  0  0  0  0
 32 37  1  0  0  0  0
 33 34  1  0  0  0  0
 33 35  1  0  0  0  0
 34 35  1  0  0  0  0
 37 36  1  0  0  0  0
M  END
>  <MODEL>
3

>  <REMARK>
 VINA RESULT:      -9.1      2.514      7.085
  Name = 
  8 active torsions:
  status: ('A' for Active; 'I' for Inactive)
    1  A    between atoms: C_3  and  C_17
    2  A    between atoms: C_3  and  C_28
    3  A    between atoms: N_7  and  C_28
    4  A    between atoms: N_7  and  C_31
    5  A    between atoms: C_12  and  C_19
    6  A    between atoms: N_14  and  C_34
    7  A    between atoms: C_19  and  C_34
    8  A    between atoms: C_19  and  O_35
                            x       y       z     vdW  Elec       q    Type
                         _______ _______ _______ _____ _____    ______ ____

>  <TORSDO>
F 8

$$$$
=
 OpenBabel10232411573D

 37 43  0  0  1  0  0  0  0  0999 V2000
  190.7260  177.1540  141.1020 C   0  0  0  0  0  0  0  0  0  0  0  0
  191.7970  176.4960  136.4720 N   0  0  0  0  0  0  0  0  0  0  0  0
  193.5600  176.5340  138.0930 C   0  0  0  0  0  3  0  0  0  0  0  0
  188.7480  178.5990  139.0320 C   0  0  0  0  0  2  0  0  0  0  0  0
  189.5390  178.5600  142.8170 C   0  0  0  0  0  2  0  0  0  0  0  0
  188.3660  177.1730  141.0820 N   0  0  1  0  0  0  0  0  0  0  0  0
  190.2630  177.3680  144.8330 N   0  0  0  0  0  0  0  0  0  0  0  0
  193.1230  176.4050  136.7700 C   0  0  0  0  0  3  0  0  0  0  0  0
  190.3160  177.0820  139.8010 C   0  0  0  0  0  0  0  0  0  0  0  0
  192.0790  177.0670  141.4530 C   0  0  0  0  0  3  0  0  0  0  0  0
  191.2460  176.8500  138.7730 C   0  0  0  0  0  0  0  0  0  0  0  0
  188.8310  177.2430  139.6720 C   0  0  1  0  0  0  0  0  0  0  0  0
  190.5520  178.5040  143.9620 C   0  0  0  0  0  2  0  0  0  0  0  0
  189.5400  177.2540  141.9880 C   0  0  1  0  0  0  0  0  0  0  0  0
  192.6210  176.7560  139.1020 C   0  0  0  0  0  0  0  0  0  0  0  0
  193.0290  176.8770  140.4400 C   0  0  0  0  0  3  0  0  0  0  0  0
  190.8590  176.7160  137.4340 C   0  0  0  0  0  3  0  0  0  0  0  0
  190.4890  176.1430  144.0670 C   0  0  0  0  0  2  0  0  0  0  0  0
  189.4730  176.0420  142.9290 C   0  0  0  0  0  2  0  0  0  0  0  0
  188.1060  178.4220  140.3610 C   0  0  2  0  0  0  0  0  0  0  0  0
  186.6770  178.4540  140.0980 N   0  0  0  0  0  2  0  0  0  0  0  0
  186.0370  179.1080  141.2290 C   0  0  0  0  0  2  0  0  0  0  0  0
  184.7600  178.3790  141.6140 C   0  0  1  0  0  3  0  0  0  0  0  0
  184.3960  178.6470  143.0660 C   0  0  0  0  0  1  0  0  0  0  0  0
  182.3970  178.0670  140.7520 N   0  0  0  0  0  2  0  0  0  0  0  0
  181.2380  178.3490  139.9570 C   0  0  0  0  0  0  0  0  0  0  0  0
  181.1900  179.3840  139.1880 N   0  0  0  0  0  2  0  0  0  0  0  0
  183.6380  178.7880  140.7180 C   0  0  0  0  0  0  0  0  0  0  0  0
  180.0580  177.4550  140.0480 C   0  0  0  0  0  1  0  0  0  0  0  0
  183.8080  179.7520  139.9250 O   0  0  0  0  0  0  0  0  0  0  0  0
  191.2700  177.3910  145.8810 C   0  0  0  0  0  2  0  0  0  0  0  0
  190.6990  176.8910  147.1990 C   0  0  1  0  0  3  0  0  0  0  0  0
  189.1680  176.9150  147.1520 C   0  0  0  0  0  3  0  0  0  0  0  0
  188.5340  177.3480  148.4650 C   0  0  0  0  0  2  0  0  0  0  0  0
  188.7080  178.3460  147.3460 C   0  0  0  0  0  2  0  0  0  0  0  0
  192.5320  175.8020  147.7810 C   0  0  0  0  0  1  0  0  0  0  0  0
  191.1920  175.6120  147.4470 O   0  0  0  0  0  0  0  0  0  0  0  0
  1 10  1  0  0  0  0
  1 14  1  0  0  0  0
  2  8  2  0  0  0  0
  2 17  1  0  0  0  0
  3 15  2  0  0  0  0
  4 12  1  0  0  0  0
  4 20  1  0  0  0  0
  5 13  1  0  0  0  0
  6 14  1  0  0  0  0
  7 31  1  0  0  0  0
  8  3  1  0  0  0  0
  9  1  2  0  0  0  0
 11 15  1  0  0  0  0
 11  9  1  0  0  0  0
 12  9  1  0  0  0  0
 12 20  1  0  0  0  0
 12  6  1  0  0  0  0
 13  7  1  0  0  0  0
 14  5  1  0  0  0  0
 14 19  1  0  0  0  0
 15 16  1  0  0  0  0
 16 10  2  0  0  0  0
 17 11  2  0  0  0  0
 18  7  1  0  0  0  0
 19 18  1  0  0  0  0
 20  6  1  0  0  0  0
 21 20  1  0  0  0  0
 21 22  1  0  0  0  0
 22 23  1  0  0  0  0
 23 24  1  0  0  0  0
 26 29  1  0  0  0  0
 26 25  1  0  0  0  0
 27 26  2  0  0  0  0
 28 25  1  0  0  0  0
 28 23  1  0  0  0  0
 30 28  2  0  0  0  0
 31 32  1  0  0  0  0
 32 37  1  0  0  0  0
 33 32  1  0  0  0  0
 33 35  1  0  0  0  0
 33 34  1  0  0  0  0
 35 34  1  0  0  0  0
 37 36  1  0  0  0  0
M  END
>  <MODEL>
4

>  <REMARK>
 VINA RESULT:      -8.1      2.465      7.329
  Name = 
  8 active torsions:
  status: ('A' for Active; 'I' for Inactive)
    1  A    between atoms: C_3  and  C_17
    2  A    between atoms: C_3  and  C_28
    3  A    between atoms: N_7  and  C_28
    4  A    between atoms: N_7  and  C_31
    5  A    between atoms: C_12  and  C_19
    6  A    between atoms: N_14  and  C_34
    7  A    between atoms: C_19  and  C_34
    8  A    between atoms: C_19  and  O_35
                            x       y       z     vdW  Elec       q    Type
                         _______ _______ _______ _____ _____    ______ ____

>  <TORSDO>
F 8

$$$$
=
 OpenBabel10232411573D

 37 43  0  0  1  0  0  0  0  0999 V2000
  186.3300  178.1420  142.5700 C   0  0  0  0  0  0  0  0  0  0  0  0
  181.5770  178.7920  142.5260 N   0  0  0  0  0  0  0  0  0  0  0  0
  182.8250  179.1020  140.5050 C   0  0  0  0  0  3  0  0  0  0  0  0
  185.0800  179.2150  145.3220 C   0  0  0  0  0  2  0  0  0  0  0  0
  188.5300  178.7090  143.6490 C   0  0  0  0  0  2  0  0  0  0  0  0
  186.7200  177.3740  144.7680 N   0  0  1  0  0  0  0  0  0  0  0  0
  190.0100  177.4610  142.1440 N   0  0  0  0  0  0  0  0  0  0  0  0
  181.6090  179.0930  141.1980 C   0  0  0  0  0  3  0  0  0  0  0  0
  185.1460  178.1910  143.2480 C   0  0  0  0  0  0  0  0  0  0  0  0
  186.4090  178.4460  141.2050 C   0  0  0  0  0  3  0  0  0  0  0  0
  183.9490  178.4870  142.5720 C   0  0  0  0  0  0  0  0  0  0  0  0
  185.3190  177.8670  144.7020 C   0  0  1  0  0  0  0  0  0  0  0  0
  189.4300  178.7740  142.4130 C   0  0  0  0  0  2  0  0  0  0  0  0
  187.4010  177.6660  143.4800 C   0  0  1  0  0  0  0  0  0  0  0  0
  184.0020  178.7960  141.1910 C   0  0  0  0  0  0  0  0  0  0  0  0
  185.2350  178.7850  140.5190 C   0  0  0  0  0  3  0  0  0  0  0  0
  182.7090  178.4940  143.2220 C   0  0  0  0  0  3  0  0  0  0  0  0
  188.9230  176.5550  141.7750 C   0  0  0  0  0  2  0  0  0  0  0  0
  187.9880  176.3430  142.9670 C   0  0  0  0  0  2  0  0  0  0  0  0
  186.4070  178.5790  145.5400 C   0  0  2  0  0  0  0  0  0  0  0  0
  186.4090  178.1810  146.9380 N   0  0  0  0  0  2  0  0  0  0  0  0
  187.4690  178.9250  147.6040 C   0  0  0  0  0  2  0  0  0  0  0  0
  188.4290  177.9750  148.3020 C   0  0  1  0  0  3  0  0  0  0  0  0
  187.7220  176.6950  148.7190 C   0  0  0  0  0  1  0  0  0  0  0  0
  190.5870  176.7270  147.8470 N   0  0  0  0  0  2  0  0  0  0  0  0
  191.7430  176.3260  147.1000 C   0  0  0  0  0  0  0  0  0  0  0  0
  191.9210  176.7160  145.8820 N   0  0  0  0  0  2  0  0  0  0  0  0
  189.5850  177.6590  147.4130 C   0  0  0  0  0  0  0  0  0  0  0  0
  192.7340  175.4160  147.7250 C   0  0  0  0  0  1  0  0  0  0  0  0
  189.6740  178.2350  146.2950 O   0  0  0  0  0  0  0  0  0  0  0  0
  190.8380  177.6150  140.9610 C   0  0  0  0  0  2  0  0  0  0  0  0
  190.2550  176.8540  139.7810 C   0  0  1  0  0  3  0  0  0  0  0  0
  190.0730  177.7940  138.5860 C   0  0  0  0  0  3  0  0  0  0  0  0
  188.7010  177.6850  137.9390 C   0  0  0  0  0  2  0  0  0  0  0  0
  188.9830  178.7910  138.9260 C   0  0  0  0  0  2  0  0  0  0  0  0
  191.9190  176.2510  138.4570 C   0  0  0  0  0  1  0  0  0  0  0  0
  191.0930  175.7820  139.4780 O   0  0  0  0  0  0  0  0  0  0  0  0
  1  9  1  0  0  0  0
  1 14  1  0  0  0  0
  2 17  2  0  0  0  0
  3 15  1  0  0  0  0
  3  8  2  0  0  0  0
  4 20  1  0  0  0  0
  6 20  1  0  0  0  0
  7 13  1  0  0  0  0
  8  2  1  0  0  0  0
  9 12  1  0  0  0  0
 10  1  2  0  0  0  0
 11 17  1  0  0  0  0
 11  9  2  0  0  0  0
 12  6  1  0  0  0  0
 12  4  1  0  0  0  0
 12 20  1  0  0  0  0
 13  5  1  0  0  0  0
 14  5  1  0  0  0  0
 14  6  1  0  0  0  0
 15 11  1  0  0  0  0
 16 15  2  0  0  0  0
 16 10  1  0  0  0  0
 18  7  1  0  0  0  0
 18 19  1  0  0  0  0
 19 14  1  0  0  0  0
 20 21  1  0  0  0  0
 21 22  1  0  0  0  0
 22 23  1  0  0  0  0
 23 24  1  0  0  0  0
 26 29  1  0  0  0  0
 26 25  1  0  0  0  0
 27 26  2  0  0  0  0
 28 25  1  0  0  0  0
 28 23  1  0  0  0  0
 30 28  2  0  0  0  0
 31  7  1  0  0  0  0
 32 31  1  0  0  0  0
 33 35  1  0  0  0  0
 33 32  1  0  0  0  0
 34 33  1  0  0  0  0
 34 35  1  0  0  0  0
 36 37  1  0  0  0  0
 37 32  1  0  0  0  0
M  END
>  <MODEL>
5

>  <REMARK>
 VINA RESULT:      -7.9      2.620      7.096
  Name = 
  8 active torsions:
  status: ('A' for Active; 'I' for Inactive)
    1  A    between atoms: C_3  and  C_17
    2  A    between atoms: C_3  and  C_28
    3  A    between atoms: N_7  and  C_28
    4  A    between atoms: N_7  and  C_31
    5  A    between atoms: C_12  and  C_19
    6  A    between atoms: N_14  and  C_34
    7  A    between atoms: C_19  and  C_34
    8  A    between atoms: C_19  and  O_35
                            x       y       z     vdW  Elec       q    Type
                         _______ _______ _______ _____ _____    ______ ____

>  <TORSDO>
F 8

$$$$
=
 OpenBabel10232411573D

 37 43  0  0  1  0  0  0  0  0999 V2000
  189.6420  176.8610  137.4500 C   0  0  0  0  0  0  0  0  0  0  0  0
  194.2370  175.8080  138.3430 N   0  0  0  0  0  0  0  0  0  0  0  0
  193.2240  175.0280  136.3180 C   0  0  0  0  0  3  0  0  0  0  0  0
  190.3840  176.5410  140.5540 C   0  0  0  0  0  2  0  0  0  0  0  0
  187.2680  176.8340  138.2820 C   0  0  0  0  0  2  0  0  0  0  0  0
  189.0820  178.2740  139.2560 N   0  0  1  0  0  0  0  0  0  0  0  0
  186.1670  177.7090  136.2730 N   0  0  0  0  0  0  0  0  0  0  0  0
  194.3330  175.1320  137.1640 C   0  0  0  0  0  3  0  0  0  0  0  0
  190.7150  176.9090  138.2940 C   0  0  0  0  0  0  0  0  0  0  0  0
  189.6970  176.1760  136.2300 C   0  0  0  0  0  3  0  0  0  0  0  0
  191.9380  176.3220  137.9260 C   0  0  0  0  0  0  0  0  0  0  0  0
  190.4030  177.6610  139.5540 C   0  0  1  0  0  0  0  0  0  0  0  0
  186.5310  176.4880  136.9860 C   0  0  0  0  0  2  0  0  0  0  0  0
  188.5370  177.6760  138.0090 C   0  0  1  0  0  0  0  0  0  0  0  0
  192.0200  175.6250  136.6950 C   0  0  0  0  0  0  0  0  0  0  0  0
  190.8940  175.5470  135.8610 C   0  0  0  0  0  3  0  0  0  0  0  0
  193.0750  176.3960  138.7400 C   0  0  0  0  0  3  0  0  0  0  0  0
  187.4000  178.3650  135.8440 C   0  0  0  0  0  2  0  0  0  0  0  0
  188.1970  178.8360  137.0610 C   0  0  0  0  0  2  0  0  0  0  0  0
  189.1350  177.3270  140.3730 C   0  0  2  0  0  0  0  0  0  0  0  0
  189.0080  178.1180  141.5860 N   0  0  0  0  0  2  0  0  0  0  0  0
  187.7520  177.7490  142.2210 C   0  0  0  0  0  2  0  0  0  0  0  0
  188.0020  177.1700  143.6040 C   0  0  1  0  0  3  0  0  0  0  0  0
  189.4300  177.4360  144.0550 C   0  0  0  0  0  1  0  0  0  0  0  0
  185.7290  178.1450  144.1550 N   0  0  0  0  0  2  0  0  0  0  0  0
  184.7020  178.7010  144.9860 C   0  0  0  0  0  0  0  0  0  0  0  0
  184.8500  178.7890  146.2650 N   0  0  0  0  0  2  0  0  0  0  0  0
  187.0370  177.7410  144.5880 C   0  0  0  0  0  0  0  0  0  0  0  0
  183.4300  179.1500  144.3680 C   0  0  0  0  0  1  0  0  0  0  0  0
  187.3950  177.8790  145.7890 O   0  0  0  0  0  0  0  0  0  0  0  0
  185.4810  177.2870  135.0640 C   0  0  0  0  0  2  0  0  0  0  0  0
  184.3760  176.2910  135.3810 C   0  0  1  0  0  3  0  0  0  0  0  0
  183.0380  177.0210  135.5300 C   0  0  0  0  0  3  0  0  0  0  0  0
  182.1380  176.4130  136.5950 C   0  0  0  0  0  2  0  0  0  0  0  0
  182.9760  177.6250  136.9180 C   0  0  0  0  0  2  0  0  0  0  0  0
  184.6500  174.1290  135.0120 C   0  0  0  0  0  1  0  0  0  0  0  0
  184.3350  175.3280  134.3740 O   0  0  0  0  0  0  0  0  0  0  0  0
  1 14  1  0  0  0  0
  1  9  1  0  0  0  0
  2 17  2  0  0  0  0
  3 15  1  0  0  0  0
  3  8  2  0  0  0  0
  6 12  1  0  0  0  0
  6 20  1  0  0  0  0
  7 13  1  0  0  0  0
  8  2  1  0  0  0  0
  9 12  1  0  0  0  0
 10  1  2  0  0  0  0
 11  9  2  0  0  0  0
 11 17  1  0  0  0  0
 12 20  1  0  0  0  0
 12  4  1  0  0  0  0
 13  5  1  0  0  0  0
 14  5  1  0  0  0  0
 14  6  1  0  0  0  0
 15 11  1  0  0  0  0
 16 10  1  0  0  0  0
 16 15  2  0  0  0  0
 18  7  1  0  0  0  0
 18 19  1  0  0  0  0
 19 14  1  0  0  0  0
 20  4  1  0  0  0  0
 20 21  1  0  0  0  0
 21 22  1  0  0  0  0
 22 23  1  0  0  0  0
 23 24  1  0  0  0  0
 23 28  1  0  0  0  0
 25 28  1  0  0  0  0
 25 26  1  0  0  0  0
 26 27  2  0  0  0  0
 28 30  2  0  0  0  0
 29 26  1  0  0  0  0
 31 32  1  0  0  0  0
 31  7  1  0  0  0  0
 32 33  1  0  0  0  0
 33 34  1  0  0  0  0
 33 35  1  0  0  0  0
 34 35  1  0  0  0  0
 37 36  1  0  0  0  0
 37 32  1  0  0  0  0
M  END
>  <MODEL>
6

>  <REMARK>
 VINA RESULT:      -7.8      3.517      9.811
  Name = 
  8 active torsions:
  status: ('A' for Active; 'I' for Inactive)
    1  A    between atoms: C_3  and  C_17
    2  A    between atoms: C_3  and  C_28
    3  A    between atoms: N_7  and  C_28
    4  A    between atoms: N_7  and  C_31
    5  A    between atoms: C_12  and  C_19
    6  A    between atoms: N_14  and  C_34
    7  A    between atoms: C_19  and  C_34
    8  A    between atoms: C_19  and  O_35
                            x       y       z     vdW  Elec       q    Type
                         _______ _______ _______ _____ _____    ______ ____

>  <TORSDO>
F 8

$$$$
=
 OpenBabel10232411573D

 37 43  0  0  1  0  0  0  0  0999 V2000
  189.0260  177.4310  143.9760 C   0  0  0  0  0  0  0  0  0  0  0  0
  192.5320  175.6370  146.7170 N   0  0  0  0  0  0  0  0  0  0  0  0
  190.7790  176.9130  147.7350 C   0  0  0  0  0  3  0  0  0  0  0  0
  191.8820  177.1810  142.5380 C   0  0  0  0  0  2  0  0  0  0  0  0
  188.4140  178.7880  141.9490 C   0  0  0  0  0  2  0  0  0  0  0  0
  189.5360  176.5430  141.8500 N   0  0  1  0  0  0  0  0  0  0  0  0
  185.9760  178.7580  142.2110 N   0  0  0  0  0  0  0  0  0  0  0  0
  191.9600  176.1680  147.8330 C   0  0  0  0  0  3  0  0  0  0  0  0
  190.2080  176.7530  144.0760 C   0  0  0  0  0  0  0  0  0  0  0  0
  188.4050  177.9950  145.0970 C   0  0  0  0  0  3  0  0  0  0  0  0
  190.8050  176.5440  145.3320 C   0  0  0  0  0  0  0  0  0  0  0  0
  190.6970  176.2800  142.7400 C   0  0  1  0  0  0  0  0  0  0  0  0
  187.1860  179.5310  142.4800 C   0  0  0  0  0  2  0  0  0  0  0  0
  188.5450  177.3790  142.5740 C   0  0  1  0  0  0  0  0  0  0  0  0
  190.1950  177.1030  146.4810 C   0  0  0  0  0  0  0  0  0  0  0  0
  189.0050  177.8350  146.3540 C   0  0  0  0  0  3  0  0  0  0  0  0
  191.9880  175.8090  145.4810 C   0  0  0  0  0  3  0  0  0  0  0  0
  186.0430  177.5260  142.9950 C   0  0  0  0  0  2  0  0  0  0  0  0
  187.1950  176.6500  142.4990 C   0  0  0  0  0  2  0  0  0  0  0  0
  190.7790  177.2560  141.5440 C   0  0  2  0  0  0  0  0  0  0  0  0
  191.3150  176.6470  140.3380 N   0  0  0  0  0  2  0  0  0  0  0  0
  191.3030  177.6590  139.2920 C   0  0  0  0  0  2  0  0  0  0  0  0
  190.4200  177.2210  138.1350 C   0  0  1  0  0  3  0  0  0  0  0  0
  190.2740  175.7070  138.1050 C   0  0  0  0  0  1  0  0  0  0  0  0
  187.9180  177.1820  137.7350 N   0  0  0  0  0  2  0  0  0  0  0  0
  186.5720  177.6750  137.7670 C   0  0  0  0  0  0  0  0  0  0  0  0
  186.2780  178.7790  138.3680 N   0  0  0  0  0  2  0  0  0  0  0  0
  189.0780  177.8660  138.2340 C   0  0  0  0  0  0  0  0  0  0  0  0
  185.4920  176.8830  137.1300 C   0  0  0  0  0  1  0  0  0  0  0  0
  188.9870  179.0170  138.7380 O   0  0  0  0  0  0  0  0  0  0  0  0
  184.8710  179.5310  142.7490 C   0  0  0  0  0  2  0  0  0  0  0  0
  183.9040  178.6420  143.5160 C   0  0  1  0  0  3  0  0  0  0  0  0
  183.7260  179.1680  144.9440 C   0  0  0  0  0  3  0  0  0  0  0  0
  184.4360  178.3200  145.9880 C   0  0  0  0  0  2  0  0  0  0  0  0
  185.0850  179.5810  145.4720 C   0  0  0  0  0  2  0  0  0  0  0  0
  181.7610  179.1520  143.6950 C   0  0  0  0  0  1  0  0  0  0  0  0
  182.6950  178.5910  142.8260 O   0  0  0  0  0  0  0  0  0  0  0  0
  1  9  2  0  0  0  0
  1 10  1  0  0  0  0
  2  8  1  0  0  0  0
  3  8  2  0  0  0  0
  4 12  1  0  0  0  0
  5 13  1  0  0  0  0
  5 14  1  0  0  0  0
  6 14  1  0  0  0  0
  6 12  1  0  0  0  0
  7 13  1  0  0  0  0
  7 31  1  0  0  0  0
  7 18  1  0  0  0  0
  9 11  1  0  0  0  0
 10 16  2  0  0  0  0
 11 17  1  0  0  0  0
 11 15  2  0  0  0  0
 12  9  1  0  0  0  0
 14  1  1  0  0  0  0
 15  3  1  0  0  0  0
 16 15  1  0  0  0  0
 17  2  2  0  0  0  0
 19 14  1  0  0  0  0
 19 18  1  0  0  0  0
 20  6  1  0  0  0  0
 20  4  1  0  0  0  0
 20 12  1  0  0  0  0
 21 20  1  0  0  0  0
 22 21  1  0  0  0  0
 23 28  1  0  0  0  0
 23 22  1  0  0  0  0
 24 23  1  0  0  0  0
 25 26  1  0  0  0  0
 25 28  1  0  0  0  0
 26 27  2  0  0  0  0
 28 30  2  0  0  0  0
 29 26  1  0  0  0  0
 31 32  1  0  0  0  0
 32 33  1  0  0  0  0
 33 35  1  0  0  0  0
 33 34  1  0  0  0  0
 35 34  1  0  0  0  0
 37 32  1  0  0  0  0
 37 36  1  0  0  0  0
M  END
>  <MODEL>
7

>  <REMARK>
 VINA RESULT:      -7.8      3.055      6.629
  Name = 
  8 active torsions:
  status: ('A' for Active; 'I' for Inactive)
    1  A    between atoms: C_3  and  C_17
    2  A    between atoms: C_3  and  C_28
    3  A    between atoms: N_7  and  C_28
    4  A    between atoms: N_7  and  C_31
    5  A    between atoms: C_12  and  C_19
    6  A    between atoms: N_14  and  C_34
    7  A    between atoms: C_19  and  C_34
    8  A    between atoms: C_19  and  O_35
                            x       y       z     vdW  Elec       q    Type
                         _______ _______ _______ _____ _____    ______ ____

>  <TORSDO>
F 8

$$$$
=
 OpenBabel10232411573D

 37 43  0  0  1  0  0  0  0  0999 V2000
  189.5890  176.8400  137.2500 C   0  0  0  0  0  0  0  0  0  0  0  0
  194.2240  175.7810  137.8950 N   0  0  0  0  0  0  0  0  0  0  0  0
  193.0990  174.9890  135.9350 C   0  0  0  0  0  3  0  0  0  0  0  0
  190.5010  176.5410  140.3100 C   0  0  0  0  0  2  0  0  0  0  0  0
  187.2650  176.8260  138.2120 C   0  0  0  0  0  2  0  0  0  0  0  0
  189.1330  178.2680  139.0730 N   0  0  1  0  0  0  0  0  0  0  0  0
  186.0560  177.6890  136.2620 N   0  0  0  0  0  0  0  0  0  0  0  0
  194.2540  175.0960  136.7180 C   0  0  0  0  0  3  0  0  0  0  0  0
  190.7070  176.8910  138.0330 C   0  0  0  0  0  0  0  0  0  0  0  0
  189.5740  176.1460  136.0340 C   0  0  0  0  0  3  0  0  0  0  0  0
  191.9070  176.2980  137.6020 C   0  0  0  0  0  0  0  0  0  0  0  0
  190.4680  177.6530  139.3020 C   0  0  1  0  0  0  0  0  0  0  0  0
  186.4560  176.4720  136.9630 C   0  0  0  0  0  2  0  0  0  0  0  0
  188.5180  177.6630  137.8640 C   0  0  1  0  0  0  0  0  0  0  0  0
  191.9190  175.5920  136.3740 C   0  0  0  0  0  0  0  0  0  0  0  0
  190.7480  175.5110  135.6040 C   0  0  0  0  0  3  0  0  0  0  0  0
  193.0880  176.3760  138.3510 C   0  0  0  0  0  3  0  0  0  0  0  0
  187.2650  178.3380  135.7590 C   0  0  0  0  0  2  0  0  0  0  0  0
  188.1290  178.8160  136.9270 C   0  0  0  0  0  2  0  0  0  0  0  0
  189.2460  177.3300  140.1940 C   0  0  2  0  0  0  0  0  0  0  0  0
  189.1890  178.1300  141.4050 N   0  0  0  0  0  2  0  0  0  0  0  0
  188.1180  177.5960  142.2330 C   0  0  0  0  0  2  0  0  0  0  0  0
  188.6650  177.1100  143.5660 C   0  0  1  0  0  3  0  0  0  0  0  0
  190.0530  177.6750  143.8230 C   0  0  0  0  0  1  0  0  0  0  0  0
  188.2510  177.6420  146.0090 N   0  0  0  0  0  2  0  0  0  0  0  0
  187.4860  178.0050  147.1650 C   0  0  0  0  0  0  0  0  0  0  0  0
  186.2410  178.3330  147.0680 N   0  0  0  0  0  2  0  0  0  0  0  0
  187.7410  177.4870  144.6750 C   0  0  0  0  0  0  0  0  0  0  0  0
  188.1460  178.0390  148.4930 C   0  0  0  0  0  1  0  0  0  0  0  0
  186.5160  177.6440  144.4260 O   0  0  0  0  0  0  0  0  0  0  0  0
  185.3030  177.2590  135.0960 C   0  0  0  0  0  2  0  0  0  0  0  0
  184.3830  176.0970  135.4360 C   0  0  1  0  0  3  0  0  0  0  0  0
  182.9240  176.5630  135.4300 C   0  0  0  0  0  3  0  0  0  0  0  0
  182.1900  176.2560  136.7260 C   0  0  0  0  0  2  0  0  0  0  0  0
  182.7600  177.6330  136.4900 C   0  0  0  0  0  2  0  0  0  0  0  0
  184.4180  173.8940  135.2580 C   0  0  0  0  0  1  0  0  0  0  0  0
  184.6040  175.0660  134.5260 O   0  0  0  0  0  0  0  0  0  0  0  0
  1 14  1  0  0  0  0
  1  9  1  0  0  0  0
  2 17  2  0  0  0  0
  3 15  1  0  0  0  0
  3  8  2  0  0  0  0
  6 12  1  0  0  0  0
  6 20  1  0  0  0  0
  7 13  1  0  0  0  0
  8  2  1  0  0  0  0
  9 12  1  0  0  0  0
 10  1  2  0  0  0  0
 11  9  2  0  0  0  0
 11 17  1  0  0  0  0
 12 20  1  0  0  0  0
 12  4  1  0  0  0  0
 13  5  1  0  0  0  0
 14  5  1  0  0  0  0
 14  6  1  0  0  0  0
 15 11  1  0  0  0  0
 16 10  1  0  0  0  0
 16 15  2  0  0  0  0
 18  7  1  0  0  0  0
 18 19  1  0  0  0  0
 19 14  1  0  0  0  0
 20  4  1  0  0  0  0
 20 21  1  0  0  0  0
 21 22  1  0  0  0  0
 22 23  1  0  0  0  0
 23 24  1  0  0  0  0
 23 28  1  0  0  0  0
 25 26  1  0  0  0  0
 26 29  1  0  0  0  0
 27 26  2  0  0  0  0
 28 25  1  0  0  0  0
 30 28  2  0  0  0  0
 31 32  1  0  0  0  0
 31  7  1  0  0  0  0
 33 32  1  0  0  0  0
 33 35  1  0  0  0  0
 33 34  1  0  0  0  0
 35 34  1  0  0  0  0
 37 36  1  0  0  0  0
 37 32  1  0  0  0  0
M  END
>  <MODEL>
8

>  <REMARK>
 VINA RESULT:      -7.5      3.611      9.661
  Name = 
  8 active torsions:
  status: ('A' for Active; 'I' for Inactive)
    1  A    between atoms: C_3  and  C_17
    2  A    between atoms: C_3  and  C_28
    3  A    between atoms: N_7  and  C_28
    4  A    between atoms: N_7  and  C_31
    5  A    between atoms: C_12  and  C_19
    6  A    between atoms: N_14  and  C_34
    7  A    between atoms: C_19  and  C_34
    8  A    between atoms: C_19  and  O_35
                            x       y       z     vdW  Elec       q    Type
                         _______ _______ _______ _____ _____    ______ ____

>  <TORSDO>
F 8

$$$$
=
 OpenBabel10232411573D

 37 43  0  0  1  0  0  0  0  0999 V2000
  187.0440  177.9880  141.7270 C   0  0  0  0  0  0  0  0  0  0  0  0
  183.1200  179.5850  139.4760 N   0  0  0  0  0  0  0  0  0  0  0  0
  182.9260  178.7050  141.6950 C   0  0  0  0  0  3  0  0  0  0  0  0
  187.0770  177.6530  138.5380 C   0  0  0  0  0  2  0  0  0  0  0  0
  189.0670  176.4950  141.6450 C   0  0  0  0  0  2  0  0  0  0  0  0
  188.7630  178.5290  140.2030 N   0  0  1  0  0  0  0  0  0  0  0  0
  189.9150  176.9030  143.9090 N   0  0  0  0  0  0  0  0  0  0  0  0
  182.3490  179.2800  140.5570 C   0  0  0  0  0  3  0  0  0  0  0  0
  186.4620  178.4980  140.6020 C   0  0  0  0  0  0  0  0  0  0  0  0
  186.2900  177.6590  142.8610 C   0  0  0  0  0  3  0  0  0  0  0  0
  185.0830  178.7710  140.5740 C   0  0  0  0  0  0  0  0  0  0  0  0
  187.4630  178.7300  139.5100 C   0  0  1  0  0  0  0  0  0  0  0  0
  189.1010  176.0050  143.0940 C   0  0  0  0  0  2  0  0  0  0  0  0
  188.5150  177.9360  141.5420 C   0  0  1  0  0  0  0  0  0  0  0  0
  184.2990  178.4490  141.7080 C   0  0  0  0  0  0  0  0  0  0  0  0
  184.9060  177.8830  142.8400 C   0  0  0  0  0  3  0  0  0  0  0  0
  184.4590  179.3430  139.4580 C   0  0  0  0  0  3  0  0  0  0  0  0
  189.2410  178.1990  143.9630 C   0  0  0  0  0  2  0  0  0  0  0  0
  189.2150  178.8350  142.5730 C   0  0  0  0  0  2  0  0  0  0  0  0
  188.4520  177.6140  139.1010 C   0  0  2  0  0  0  0  0  0  0  0  0
  189.3220  177.9900  137.9990 N   0  0  0  0  0  2  0  0  0  0  0  0
  189.4170  176.8460  137.1050 C   0  0  0  0  0  2  0  0  0  0  0  0
  189.8670  175.6090  137.8670 C   0  0  1  0  0  3  0  0  0  0  0  0
  189.5770  174.3450  137.0730 C   0  0  0  0  0  1  0  0  0  0  0  0
  192.2940  175.3610  137.1820 N   0  0  0  0  0  2  0  0  0  0  0  0
  193.7180  175.4030  137.3430 C   0  0  0  0  0  0  0  0  0  0  0  0
  194.2560  175.8650  138.4200 N   0  0  0  0  0  2  0  0  0  0  0  0
  191.3220  175.6960  138.1840 C   0  0  0  0  0  0  0  0  0  0  0  0
  194.5890  174.9410  136.2350 C   0  0  0  0  0  1  0  0  0  0  0  0
  191.6770  176.0450  139.3420 O   0  0  0  0  0  0  0  0  0  0  0  0
  189.8870  176.3660  145.2590 C   0  0  0  0  0  2  0  0  0  0  0  0
  190.4960  177.3460  146.2500 C   0  0  1  0  0  3  0  0  0  0  0  0
  189.8720  177.1500  147.6340 C   0  0  0  0  0  3  0  0  0  0  0  0
  189.0170  178.3270  148.0790 C   0  0  0  0  0  2  0  0  0  0  0  0
  188.3650  177.1070  147.4760 C   0  0  0  0  0  2  0  0  0  0  0  0
  192.0720  175.9670  146.9570 C   0  0  0  0  0  1  0  0  0  0  0  0
  191.8780  177.1650  146.2710 O   0  0  0  0  0  0  0  0  0  0  0  0
  1 10  1  0  0  0  0
  2  8  1  0  0  0  0
  3 15  1  0  0  0  0
  4 20  1  0  0  0  0
  4 12  1  0  0  0  0
  5 13  1  0  0  0  0
  6 14  1  0  0  0  0
  7 18  1  0  0  0  0
  7 31  1  0  0  0  0
  8  3  2  0  0  0  0
  9  1  2  0  0  0  0
 11  9  1  0  0  0  0
 11 15  2  0  0  0  0
 12  6  1  0  0  0  0
 12  9  1  0  0  0  0
 13  7  1  0  0  0  0
 14  5  1  0  0  0  0
 14  1  1  0  0  0  0
 14 19  1  0  0  0  0
 15 16  1  0  0  0  0
 16 10  2  0  0  0  0
 17  2  2  0  0  0  0
 17 11  1  0  0  0  0
 19 18  1  0  0  0  0
 20 12  1  0  0  0  0
 20  6  1  0  0  0  0
 21 20  1  0  0  0  0
 22 23  1  0  0  0  0
 22 21  1  0  0  0  0
 23 28  1  0  0  0  0
 24 23  1  0  0  0  0
 25 26  1  0  0  0  0
 25 28  1  0  0  0  0
 26 27  2  0  0  0  0
 28 30  2  0  0  0  0
 29 26  1  0  0  0  0
 31 32  1  0  0  0  0
 32 37  1  0  0  0  0
 32 33  1  0  0  0  0
 33 34  1  0  0  0  0
 35 33  1  0  0  0  0
 35 34  1  0  0  0  0
 37 36  1  0  0  0  0
M  END
>  <MODEL>
9

>  <REMARK>
 VINA RESULT:      -7.5      1.561      2.067
  Name = 
  8 active torsions:
  status: ('A' for Active; 'I' for Inactive)
    1  A    between atoms: C_3  and  C_17
    2  A    between atoms: C_3  and  C_28
    3  A    between atoms: N_7  and  C_28
    4  A    between atoms: N_7  and  C_31
    5  A    between atoms: C_12  and  C_19
    6  A    between atoms: N_14  and  C_34
    7  A    between atoms: C_19  and  C_34
    8  A    between atoms: C_19  and  O_35
                            x       y       z     vdW  Elec       q    Type
                         _______ _______ _______ _____ _____    ______ ____

>  <TORSDO>
F 8

$$$$
