=
 OpenBabel10232409193D

 30 32  0  0  1  0  0  0  0  0999 V2000
  188.1800  177.3140  146.3560 C   0  0  0  0  0  3  0  0  0  0  0  0
  190.2510  177.0490  144.4270 C   0  0  0  0  0  0  0  0  0  0  0  0
  186.9540  177.5820  141.9170 C   0  0  0  0  0  2  0  0  0  0  0  0
  188.9160  176.4490  144.2140 C   0  0  1  0  0  3  0  0  0  0  0  0
  190.9660  177.6660  143.4450 C   0  0  0  0  0  3  0  0  0  0  0  0
  190.6190  177.2450  145.8440 C   0  0  0  0  0  0  0  0  0  0  0  0
  189.5640  177.0330  146.9040 C   0  0  0  0  0  2  0  0  0  0  0  0
  186.5130  177.4170  144.5180 C   0  0  0  0  0  2  0  0  0  0  0  0
  188.3080  176.9080  141.8820 C   0  0  2  0  0  3  0  0  0  0  0  0
  187.8570  176.9910  145.0960 C   0  0  0  0  0  0  0  0  0  0  0  0
  191.7850  177.5870  146.1740 O   0  0  0  0  0  0  0  0  0  0  0  0
  188.5790  176.3680  142.9950 C   0  0  0  0  0  2  0  0  0  0  0  0
  186.6480  178.3310  143.2610 C   0  0  2  0  0  3  0  0  0  0  0  0
  190.6270  177.8730  141.9870 C   0  0  0  0  0  3  0  0  0  0  0  0
  189.4870  177.5940  141.2790 C   0  0  0  0  0  0  0  0  0  0  0  0
  185.4820  179.8920  141.8850 O   0  0  0  0  0  1  0  0  0  0  0  0
  185.4470  179.2720  143.1360 C   0  0  1  0  0  3  0  0  0  0  0  0
  184.0950  178.5690  143.3450 C   0  0  2  0  0  3  0  0  0  0  0  0
  182.0690  178.8930  142.5100 C   0  0  0  0  0  1  0  0  0  0  0  0
  183.3680  178.5300  142.1510 O   0  0  0  0  0  0  0  0  0  0  0  0
  183.8450  179.0640  145.6840 O   0  0  0  0  0  1  0  0  0  0  0  0
  183.2640  179.2510  144.4290 C   0  0  0  0  0  2  0  0  0  0  0  0
  189.4770  177.9300  139.8340 C   0  0  0  0  0  0  0  0  0  0  0  0
  189.0500  179.0530  139.4500 O   0  0  0  0  0  0  0  0  0  0  0  0
  190.1180  176.7990  138.5930 S   0  0  0  0  0  0  0  0  0  0  0  0
  188.8500  177.2170  137.3970 C   0  0  0  0  0  0  0  0  0  0  0  0
  189.1320  177.8800  136.4120 O   0  0  0  0  0  0  0  0  0  0  0  0
  187.4460  176.7460  137.6100 C   0  0  0  0  0  2  0  0  0  0  0  0
  186.4410  177.8020  137.1790 C   0  0  0  0  0  2  0  0  0  0  0  0
  186.1220  178.6290  138.2560 O   0  0  0  0  0  1  0  0  0  0  0  0
  1  7  1  0  0  0  0
  2  6  1  0  0  0  0
  3 13  1  0  0  0  0
  4 12  1  6  0  0  0
  4  2  1  0  0  0  0
  4 10  1  0  0  0  0
  5  2  2  0  0  0  0
  6 11  2  0  0  0  0
  6  7  1  0  0  0  0
  8 10  1  0  0  0  0
  9  3  1  1  0  0  0
  9 12  1  0  0  0  0
 10  1  2  0  0  0  0
 13 17  1  6  0  0  0
 13  8  1  0  0  0  0
 14  5  1  0  0  0  0
 15  9  1  0  0  0  0
 15 14  2  0  0  0  0
 17 16  1  6  0  0  0
 17 18  1  0  0  0  0
 18 22  1  1  0  0  0
 20 19  1  0  0  0  0
 20 18  1  0  0  0  0
 22 21  1  0  0  0  0
 23 15  1  0  0  0  0
 24 23  2  0  0  0  0
 25 23  1  0  0  0  0
 26 28  1  0  0  0  0
 26 25  1  0  0  0  0
 27 26  2  0  0  0  0
 29 28  1  0  0  0  0
 29 30  1  0  0  0  0
M  END
>  <MODEL>
1

>  <REMARK>
 VINA RESULT:      -7.5      0.000      0.000
  Name = 
  9 active torsions:
  status: ('A' for Active; 'I' for Inactive)
    1  A    between atoms: C_3  and  C_28
    2  A    between atoms: C_3  and  S_29
    3  A    between atoms: C_8  and  C_22
    4  A    between atoms: C_11  and  C_24
    5  A    between atoms: C_11  and  C_26
    6  A    between atoms: C_17  and  C_22
    7  A    between atoms: C_17  and  S_29
    8  A    between atoms: O_18  and  C_26
    9  A    between atoms: C_26  and  C_30
                            x       y       z     vdW  Elec       q    Type
                         _______ _______ _______ _____ _____    ______ ____

>  <TORSDO>
F 9

$$$$
=
 OpenBabel10232409193D

 30 32  0  0  1  0  0  0  0  0999 V2000
  186.4280  178.2000  147.1620 C   0  0  0  0  0  3  0  0  0  0  0  0
  189.0780  177.6460  146.2930 C   0  0  0  0  0  0  0  0  0  0  0  0
  187.0400  177.4460  142.6520 C   0  0  0  0  0  2  0  0  0  0  0  0
  187.9130  176.9410  145.7160 C   0  0  1  0  0  3  0  0  0  0  0  0
  190.1390  178.0790  145.5560 C   0  0  0  0  0  3  0  0  0  0  0  0
  188.8710  178.1610  147.6620 C   0  0  0  0  0  0  0  0  0  0  0  0
  187.4800  178.1210  148.2500 C   0  0  0  0  0  2  0  0  0  0  0  0
  185.6150  177.8150  144.8470 C   0  0  0  0  0  2  0  0  0  0  0  0
  188.2780  176.8580  143.2920 C   0  0  2  0  0  3  0  0  0  0  0  0
  186.6120  177.5980  145.9790 C   0  0  0  0  0  0  0  0  0  0  0  0
  189.8270  178.6300  148.3350 O   0  0  0  0  0  0  0  0  0  0  0  0
  188.0760  176.5830  144.5120 C   0  0  0  0  0  2  0  0  0  0  0  0
  186.2590  178.4470  143.5750 C   0  0  2  0  0  3  0  0  0  0  0  0
  190.4020  177.9510  144.0730 C   0  0  0  0  0  3  0  0  0  0  0  0
  189.6200  177.4640  143.0590 C   0  0  0  0  0  0  0  0  0  0  0  0
  185.8070  179.6920  141.5910 O   0  0  0  0  0  1  0  0  0  0  0  0
  185.2320  179.2700  142.7920 C   0  0  1  0  0  3  0  0  0  0  0  0
  183.9210  178.5140  142.5200 C   0  0  2  0  0  3  0  0  0  0  0  0
  182.3560  178.4930  140.9520 C   0  0  0  0  0  1  0  0  0  0  0  0
  183.7290  178.3360  141.1460 O   0  0  0  0  0  0  0  0  0  0  0  0
  182.3550  178.6680  144.3380 O   0  0  0  0  0  1  0  0  0  0  0  0
  182.7170  179.2370  143.1150 C   0  0  0  0  0  2  0  0  0  0  0  0
  190.1850  177.4830  141.6870 C   0  0  0  0  0  0  0  0  0  0  0  0
  191.2820  178.0640  141.4630 O   0  0  0  0  0  0  0  0  0  0  0  0
  189.3800  176.6390  140.3190 S   0  0  0  0  0  0  0  0  0  0  0  0
  188.9990  178.1630  139.4570 C   0  0  0  0  0  0  0  0  0  0  0  0
  188.4900  179.0950  140.0580 O   0  0  0  0  0  0  0  0  0  0  0  0
  189.3110  178.2880  138.0000 C   0  0  0  0  0  2  0  0  0  0  0  0
  188.0480  178.2060  137.1580 C   0  0  0  0  0  2  0  0  0  0  0  0
  187.5590  179.4870  136.9000 O   0  0  0  0  0  1  0  0  0  0  0  0
  1  7  1  0  0  0  0
  2  6  1  0  0  0  0
  3 13  1  0  0  0  0
  4 12  1  6  0  0  0
  4 10  1  0  0  0  0
  4  2  1  0  0  0  0
  5  2  2  0  0  0  0
  6  7  1  0  0  0  0
  6 11  2  0  0  0  0
  8 10  1  0  0  0  0
  9  3  1  1  0  0  0
  9 12  1  0  0  0  0
 10  1  2  0  0  0  0
 13 17  1  6  0  0  0
 13  8  1  0  0  0  0
 14  5  1  0  0  0  0
 15  9  1  0  0  0  0
 15 14  2  0  0  0  0
 17 16  1  6  0  0  0
 18 17  1  0  0  0  0
 18 22  1  6  0  0  0
 19 20  1  0  0  0  0
 20 18  1  0  0  0  0
 22 21  1  0  0  0  0
 23 15  1  0  0  0  0
 24 23  2  0  0  0  0
 25 23  1  0  0  0  0
 26 27  2  0  0  0  0
 26 25  1  0  0  0  0
 28 26  1  0  0  0  0
 29 28  1  0  0  0  0
 30 29  1  0  0  0  0
M  END
>  <MODEL>
2

>  <REMARK>
 VINA RESULT:      -7.2      1.467      2.017
  Name = 
  9 active torsions:
  status: ('A' for Active; 'I' for Inactive)
    1  A    between atoms: C_3  and  C_28
    2  A    between atoms: C_3  and  S_29
    3  A    between atoms: C_8  and  C_22
    4  A    between atoms: C_11  and  C_24
    5  A    between atoms: C_11  and  C_26
    6  A    between atoms: C_17  and  C_22
    7  A    between atoms: C_17  and  S_29
    8  A    between atoms: O_18  and  C_26
    9  A    between atoms: C_26  and  C_30
                            x       y       z     vdW  Elec       q    Type
                         _______ _______ _______ _____ _____    ______ ____

>  <TORSDO>
F 9

$$$$
=
 OpenBabel10232409193D

 30 32  0  0  1  0  0  0  0  0999 V2000
  186.2750  178.5900  147.4030 C   0  0  0  0  0  3  0  0  0  0  0  0
  188.7950  177.6430  146.4900 C   0  0  0  0  0  0  0  0  0  0  0  0
  186.5520  177.3010  142.9830 C   0  0  0  0  0  2  0  0  0  0  0  0
  187.5290  177.0210  146.0440 C   0  0  1  0  0  3  0  0  0  0  0  0
  189.8560  177.8680  145.6660 C   0  0  0  0  0  3  0  0  0  0  0  0
  188.7220  178.3180  147.8010 C   0  0  0  0  0  0  0  0  0  0  0  0
  187.3690  178.5030  148.4480 C   0  0  0  0  0  2  0  0  0  0  0  0
  185.2990  178.0620  145.1820 C   0  0  0  0  0  2  0  0  0  0  0  0
  187.7490  176.6420  143.6310 C   0  0  2  0  0  3  0  0  0  0  0  0
  186.3260  177.8500  146.2870 C   0  0  0  0  0  0  0  0  0  0  0  0
  189.7590  178.7420  148.3770 O   0  0  0  0  0  0  0  0  0  0  0  0
  187.5850  176.5230  144.8810 C   0  0  0  0  0  2  0  0  0  0  0  0
  185.9380  178.4770  143.8210 C   0  0  2  0  0  3  0  0  0  0  0  0
  190.0220  177.5560  144.1960 C   0  0  0  0  0  3  0  0  0  0  0  0
  189.1360  177.0600  143.2760 C   0  0  0  0  0  0  0  0  0  0  0  0
  185.6290  179.7960  141.8580 O   0  0  0  0  0  1  0  0  0  0  0  0
  184.9690  179.3280  142.9960 C   0  0  1  0  0  3  0  0  0  0  0  0
  183.6850  178.5800  142.5990 C   0  0  2  0  0  3  0  0  0  0  0  0
  182.3060  178.7950  140.8780 C   0  0  0  0  0  1  0  0  0  0  0  0
  183.6110  178.4280  141.2100 O   0  0  0  0  0  0  0  0  0  0  0  0
  181.9630  178.6970  144.2720 O   0  0  0  0  0  1  0  0  0  0  0  0
  182.4350  179.2960  143.1030 C   0  0  0  0  0  2  0  0  0  0  0  0
  189.6230  176.8680  141.8870 C   0  0  0  0  0  0  0  0  0  0  0  0
  190.4120  175.9200  141.6200 O   0  0  0  0  0  0  0  0  0  0  0  0
  189.0730  177.9170  140.5360 S   0  0  0  0  0  0  0  0  0  0  0  0
  190.5150  177.5660  139.5290 C   0  0  0  0  0  0  0  0  0  0  0  0
  191.6330  177.6630  140.0070 O   0  0  0  0  0  0  0  0  0  0  0  0
  190.3380  177.1480  138.1040 C   0  0  0  0  0  2  0  0  0  0  0  0
  189.8790  175.7020  138.0080 C   0  0  0  0  0  2  0  0  0  0  0  0
  190.9540  174.8410  138.2300 O   0  0  0  0  0  1  0  0  0  0  0  0
  1  7  1  0  0  0  0
  2  6  1  0  0  0  0
  3 13  1  0  0  0  0
  4 12  1  6  0  0  0
  4 10  1  0  0  0  0
  4  2  1  0  0  0  0
  5  2  2  0  0  0  0
  6 11  2  0  0  0  0
  6  7  1  0  0  0  0
  8 10  1  0  0  0  0
  9  3  1  1  0  0  0
  9 12  1  0  0  0  0
 10  1  2  0  0  0  0
 13 17  1  6  0  0  0
 13  8  1  0  0  0  0
 14  5  1  0  0  0  0
 15  9  1  0  0  0  0
 15 14  2  0  0  0  0
 17 16  1  6  0  0  0
 18 17  1  0  0  0  0
 18 22  1  6  0  0  0
 19 20  1  0  0  0  0
 20 18  1  0  0  0  0
 22 21  1  0  0  0  0
 23 15  1  0  0  0  0
 24 23  2  0  0  0  0
 25 23  1  0  0  0  0
 26 27  2  0  0  0  0
 26 25  1  0  0  0  0
 28 26  1  0  0  0  0
 29 28  1  0  0  0  0
 29 30  1  0  0  0  0
M  END
>  <MODEL>
3

>  <REMARK>
 VINA RESULT:      -7.1      1.914      2.650
  Name = 
  9 active torsions:
  status: ('A' for Active; 'I' for Inactive)
    1  A    between atoms: C_3  and  C_28
    2  A    between atoms: C_3  and  S_29
    3  A    between atoms: C_8  and  C_22
    4  A    between atoms: C_11  and  C_24
    5  A    between atoms: C_11  and  C_26
    6  A    between atoms: C_17  and  C_22
    7  A    between atoms: C_17  and  S_29
    8  A    between atoms: O_18  and  C_26
    9  A    between atoms: C_26  and  C_30
                            x       y       z     vdW  Elec       q    Type
                         _______ _______ _______ _____ _____    ______ ____

>  <TORSDO>
F 9

$$$$
=
 OpenBabel10232409193D

 30 32  0  0  1  0  0  0  0  0999 V2000
  188.1690  177.2980  146.4330 C   0  0  0  0  0  3  0  0  0  0  0  0
  190.2730  177.0300  144.5400 C   0  0  0  0  0  0  0  0  0  0  0  0
  187.0220  177.5700  141.9730 C   0  0  0  0  0  2  0  0  0  0  0  0
  188.9410  176.4320  144.3030 C   0  0  1  0  0  3  0  0  0  0  0  0
  191.0060  177.6460  143.5710 C   0  0  0  0  0  3  0  0  0  0  0  0
  190.6170  177.2250  145.9630 C   0  0  0  0  0  0  0  0  0  0  0  0
  189.5430  177.0150  147.0050 C   0  0  0  0  0  2  0  0  0  0  0  0
  186.5350  177.4040  144.5650 C   0  0  0  0  0  2  0  0  0  0  0  0
  188.3750  176.8930  141.9620 C   0  0  2  0  0  3  0  0  0  0  0  0
  187.8680  176.9760  145.1670 C   0  0  0  0  0  0  0  0  0  0  0  0
  191.7780  177.5650  146.3140 O   0  0  0  0  0  0  0  0  0  0  0  0
  188.6260  176.3520  143.0790 C   0  0  0  0  0  2  0  0  0  0  0  0
  186.6940  178.3190  143.3120 C   0  0  2  0  0  3  0  0  0  0  0  0
  190.6930  177.8540  142.1070 C   0  0  0  0  0  3  0  0  0  0  0  0
  189.5660  177.5780  141.3790 C   0  0  0  0  0  0  0  0  0  0  0  0
  185.5340  179.8540  141.9010 O   0  0  0  0  0  1  0  0  0  0  0  0
  185.4960  179.2620  143.1660 C   0  0  1  0  0  3  0  0  0  0  0  0
  184.1420  178.5700  143.3900 C   0  0  2  0  0  3  0  0  0  0  0  0
  182.0590  178.7770  142.6630 C   0  0  0  0  0  1  0  0  0  0  0  0
  183.3720  178.6000  142.2230 O   0  0  0  0  0  0  0  0  0  0  0  0
  184.0970  179.1600  145.7200 O   0  0  0  0  0  1  0  0  0  0  0  0
  183.3610  179.2100  144.5340 C   0  0  0  0  0  2  0  0  0  0  0  0
  189.5810  177.9130  139.9340 C   0  0  0  0  0  0  0  0  0  0  0  0
  188.8110  178.8070  139.4860 O   0  0  0  0  0  0  0  0  0  0  0  0
  190.7190  177.1250  138.7890 S   0  0  0  0  0  0  0  0  0  0  0  0
  189.4800  176.9490  137.5050 C   0  0  0  0  0  0  0  0  0  0  0  0
  189.3280  177.8330  136.6770 O   0  0  0  0  0  0  0  0  0  0  0  0
  188.6380  175.7140  137.4520 C   0  0  0  0  0  2  0  0  0  0  0  0
  189.3010  174.6340  136.6130 C   0  0  0  0  0  2  0  0  0  0  0  0
  190.0720  173.8010  137.4230 O   0  0  0  0  0  1  0  0  0  0  0  0
  1  7  1  0  0  0  0
  2  6  1  0  0  0  0
  3 13  1  0  0  0  0
  4 12  1  6  0  0  0
  4  2  1  0  0  0  0
  4 10  1  0  0  0  0
  5  2  2  0  0  0  0
  6 11  2  0  0  0  0
  6  7  1  0  0  0  0
  8 10  1  0  0  0  0
  9  3  1  1  0  0  0
  9 12  1  0  0  0  0
 10  1  2  0  0  0  0
 13 17  1  6  0  0  0
 13  8  1  0  0  0  0
 14  5  1  0  0  0  0
 15  9  1  0  0  0  0
 15 14  2  0  0  0  0
 17 16  1  6  0  0  0
 17 18  1  0  0  0  0
 18 22  1  1  0  0  0
 20 19  1  0  0  0  0
 20 18  1  0  0  0  0
 22 21  1  0  0  0  0
 23 15  1  0  0  0  0
 24 23  2  0  0  0  0
 25 23  1  0  0  0  0
 26 25  1  0  0  0  0
 27 26  2  0  0  0  0
 28 26  1  0  0  0  0
 29 30  1  0  0  0  0
 29 28  1  0  0  0  0
M  END
>  <MODEL>
4

>  <REMARK>
 VINA RESULT:      -7.1      0.998      1.440
  Name = 
  9 active torsions:
  status: ('A' for Active; 'I' for Inactive)
    1  A    between atoms: C_3  and  C_28
    2  A    between atoms: C_3  and  S_29
    3  A    between atoms: C_8  and  C_22
    4  A    between atoms: C_11  and  C_24
    5  A    between atoms: C_11  and  C_26
    6  A    between atoms: C_17  and  C_22
    7  A    between atoms: C_17  and  S_29
    8  A    between atoms: O_18  and  C_26
    9  A    between atoms: C_26  and  C_30
                            x       y       z     vdW  Elec       q    Type
                         _______ _______ _______ _____ _____    ______ ____

>  <TORSDO>
F 9

$$$$
=
 OpenBabel10232409193D

 30 32  0  0  1  0  0  0  0  0999 V2000
  186.2520  178.5980  140.9740 C   0  0  0  0  0  3  0  0  0  0  0  0
  187.3160  177.7860  138.4660 C   0  0  0  0  0  0  0  0  0  0  0  0
  190.5900  177.0290  140.9480 C   0  0  0  0  0  2  0  0  0  0  0  0
  188.1420  178.5090  139.4570 C   0  0  1  0  0  3  0  0  0  0  0  0
  187.7760  176.7450  137.7180 C   0  0  0  0  0  3  0  0  0  0  0  0
  185.8640  178.0320  138.5770 C   0  0  0  0  0  0  0  0  0  0  0  0
  185.3460  178.7910  139.7750 C   0  0  0  0  0  2  0  0  0  0  0  0
  188.4620  178.1700  142.0230 C   0  0  0  0  0  2  0  0  0  0  0  0
  190.3220  177.3860  139.5030 C   0  0  2  0  0  3  0  0  0  0  0  0
  187.5820  178.5150  140.8280 C   0  0  0  0  0  0  0  0  0  0  0  0
  185.0620  177.6170  137.6980 O   0  0  0  0  0  0  0  0  0  0  0  0
  189.3740  178.2210  139.4050 C   0  0  0  0  0  2  0  0  0  0  0  0
  189.2940  176.8660  141.8170 C   0  0  2  0  0  3  0  0  0  0  0  0
  189.1460  176.1070  137.6850 C   0  0  0  0  0  3  0  0  0  0  0  0
  190.2590  176.3270  138.4540 C   0  0  0  0  0  0  0  0  0  0  0  0
  190.4820  175.1350  142.9480 O   0  0  0  0  0  1  0  0  0  0  0  0
  189.5790  176.1800  143.1550 C   0  0  1  0  0  3  0  0  0  0  0  0
  190.1130  177.1390  144.2330 C   0  0  2  0  0  3  0  0  0  0  0  0
  191.5510  176.7840  145.8790 C   0  0  0  0  0  1  0  0  0  0  0  0
  191.4650  176.8910  144.4900 O   0  0  0  0  0  0  0  0  0  0  0  0
  188.2980  177.9870  145.5620 O   0  0  0  0  0  1  0  0  0  0  0  0
  189.3160  177.0320  145.5300 C   0  0  0  0  0  2  0  0  0  0  0  0
  191.4670  175.5170  138.1610 C   0  0  0  0  0  0  0  0  0  0  0  0
  191.3520  174.2940  137.8740 O   0  0  0  0  0  0  0  0  0  0  0  0
  193.1120  176.2400  138.1400 S   0  0  0  0  0  0  0  0  0  0  0  0
  193.5950  175.3730  136.6480 C   0  0  0  0  0  0  0  0  0  0  0  0
  193.1400  175.7120  135.5680 O   0  0  0  0  0  0  0  0  0  0  0  0
  194.5620  174.2340  136.7330 C   0  0  0  0  0  2  0  0  0  0  0  0
  195.3530  174.2820  138.0300 C   0  0  0  0  0  2  0  0  0  0  0  0
  195.0560  173.1680  138.8150 O   0  0  0  0  0  1  0  0  0  0  0  0
  2  6  1  0  0  0  0
  2  4  1  0  0  0  0
  3 13  1  0  0  0  0
  4 12  1  1  0  0  0
  4 10  1  0  0  0  0
  5  2  2  0  0  0  0
  6  7  1  0  0  0  0
  7  1  1  0  0  0  0
  9 12  1  1  0  0  0
  9  3  1  0  0  0  0
 10  1  2  0  0  0  0
 10  8  1  0  0  0  0
 11  6  2  0  0  0  0
 13  8  1  0  0  0  0
 13 17  1  1  0  0  0
 14  5  1  0  0  0  0
 14 15  2  0  0  0  0
 15  9  1  0  0  0  0
 17 16  1  6  0  0  0
 17 18  1  0  0  0  0
 18 20  1  0  0  0  0
 18 22  1  1  0  0  0
 20 19  1  0  0  0  0
 22 21  1  0  0  0  0
 23 15  1  0  0  0  0
 24 23  2  0  0  0  0
 25 23  1  0  0  0  0
 26 28  1  0  0  0  0
 26 25  1  0  0  0  0
 27 26  2  0  0  0  0
 28 29  1  0  0  0  0
 29 30  1  0  0  0  0
M  END
>  <MODEL>
5

>  <REMARK>
 VINA RESULT:      -6.6      3.242      6.458
  Name = 
  9 active torsions:
  status: ('A' for Active; 'I' for Inactive)
    1  A    between atoms: C_3  and  C_28
    2  A    between atoms: C_3  and  S_29
    3  A    between atoms: C_8  and  C_22
    4  A    between atoms: C_11  and  C_24
    5  A    between atoms: C_11  and  C_26
    6  A    between atoms: C_17  and  C_22
    7  A    between atoms: C_17  and  S_29
    8  A    between atoms: O_18  and  C_26
    9  A    between atoms: C_26  and  C_30
                            x       y       z     vdW  Elec       q    Type
                         _______ _______ _______ _____ _____    ______ ____

>  <TORSDO>
F 9

$$$$
=
 OpenBabel10232409193D

 30 32  0  0  1  0  0  0  0  0999 V2000
  184.0050  178.5150  144.5900 C   0  0  0  0  0  3  0  0  0  0  0  0
  183.7530  178.8870  141.7830 C   0  0  0  0  0  0  0  0  0  0  0  0
  187.8670  178.2290  142.0830 C   0  0  0  0  0  2  0  0  0  0  0  0
  184.9060  179.4290  142.5320 C   0  0  1  0  0  3  0  0  0  0  0  0
  183.8560  178.3110  140.5520 C   0  0  0  0  0  3  0  0  0  0  0  0
  182.5290  178.6960  142.5870 C   0  0  0  0  0  0  0  0  0  0  0  0
  182.6150  178.8520  144.0880 C   0  0  0  0  0  2  0  0  0  0  0  0
  186.4690  178.3530  144.3220 C   0  0  0  0  0  2  0  0  0  0  0  0
  186.8990  178.9620  141.1810 C   0  0  2  0  0  3  0  0  0  0  0  0
  185.0930  178.8330  143.8750 C   0  0  0  0  0  0  0  0  0  0  0  0
  181.4300  178.4030  142.0460 O   0  0  0  0  0  0  0  0  0  0  0  0
  185.9710  179.5050  141.8500 C   0  0  0  0  0  2  0  0  0  0  0  0
  187.1790  177.4560  143.2620 C   0  0  2  0  0  3  0  0  0  0  0  0
  185.0740  178.1000  139.6820 C   0  0  0  0  0  3  0  0  0  0  0  0
  186.4020  178.3340  139.9220 C   0  0  0  0  0  0  0  0  0  0  0  0
  188.5830  175.5480  142.9810 O   0  0  0  0  0  1  0  0  0  0  0  0
  188.1320  176.4640  143.9340 C   0  0  1  0  0  3  0  0  0  0  0  0
  189.3260  177.1380  144.6310 C   0  0  2  0  0  3  0  0  0  0  0  0
  191.2450  177.8290  143.7660 C   0  0  0  0  0  1  0  0  0  0  0  0
  190.5340  176.6750  144.1010 O   0  0  0  0  0  0  0  0  0  0  0  0
  188.9750  178.0820  146.8140 O   0  0  0  0  0  1  0  0  0  0  0  0
  189.3060  176.9060  146.1390 C   0  0  0  0  0  2  0  0  0  0  0  0
  187.3630  178.0110  138.8390 C   0  0  0  0  0  0  0  0  0  0  0  0
  187.0380  177.2020  137.9280 O   0  0  0  0  0  0  0  0  0  0  0  0
  188.9800  178.7900  138.7410 S   0  0  0  0  0  0  0  0  0  0  0  0
  189.8600  177.2320  138.8390 C   0  0  0  0  0  0  0  0  0  0  0  0
  189.9180  176.6270  139.8970 O   0  0  0  0  0  0  0  0  0  0  0  0
  190.5200  176.6760  137.6170 C   0  0  0  0  0  2  0  0  0  0  0  0
  189.9480  175.3140  137.2570 C   0  0  0  0  0  2  0  0  0  0  0  0
  190.7870  174.3020  137.7230 O   0  0  0  0  0  1  0  0  0  0  0  0
  2  4  1  0  0  0  0
  2  6  1  0  0  0  0
  3 13  1  0  0  0  0
  4 12  1  6  0  0  0
  4 10  1  0  0  0  0
  5  2  2  0  0  0  0
  6  7  1  0  0  0  0
  7  1  1  0  0  0  0
  9 12  1  1  0  0  0
  9  3  1  0  0  0  0
 10  8  1  0  0  0  0
 10  1  2  0  0  0  0
 11  6  2  0  0  0  0
 13 17  1  1  0  0  0
 13  8  1  0  0  0  0
 14 15  2  0  0  0  0
 14  5  1  0  0  0  0
 15  9  1  0  0  0  0
 17 16  1  6  0  0  0
 17 18  1  0  0  0  0
 18 22  1  1  0  0  0
 19 20  1  0  0  0  0
 20 18  1  0  0  0  0
 22 21  1  0  0  0  0
 23 15  1  0  0  0  0
 24 23  2  0  0  0  0
 25 26  1  0  0  0  0
 25 23  1  0  0  0  0
 26 27  2  0  0  0  0
 28 26  1  0  0  0  0
 29 28  1  0  0  0  0
 29 30  1  0  0  0  0
M  END
>  <MODEL>
6

>  <REMARK>
 VINA RESULT:      -6.6      2.045      5.523
  Name = 
  9 active torsions:
  status: ('A' for Active; 'I' for Inactive)
    1  A    between atoms: C_3  and  C_28
    2  A    between atoms: C_3  and  S_29
    3  A    between atoms: C_8  and  C_22
    4  A    between atoms: C_11  and  C_24
    5  A    between atoms: C_11  and  C_26
    6  A    between atoms: C_17  and  C_22
    7  A    between atoms: C_17  and  S_29
    8  A    between atoms: O_18  and  C_26
    9  A    between atoms: C_26  and  C_30
                            x       y       z     vdW  Elec       q    Type
                         _______ _______ _______ _____ _____    ______ ____

>  <TORSDO>
F 9

$$$$
=
 OpenBabel10232409193D

 30 32  0  0  1  0  0  0  0  0999 V2000
  191.6080  176.5690  142.6350 C   0  0  0  0  0  3  0  0  0  0  0  0
  189.3160  177.5300  144.0140 C   0  0  0  0  0  0  0  0  0  0  0  0
  188.2260  178.3790  140.0720 C   0  0  0  0  0  2  0  0  0  0  0  0
  189.8690  178.2470  142.8450 C   0  0  1  0  0  3  0  0  0  0  0  0
  187.9810  177.3700  144.2380 C   0  0  0  0  0  3  0  0  0  0  0  0
  190.2930  176.7020  144.7500 C   0  0  0  0  0  0  0  0  0  0  0  0
  191.6620  176.4880  144.1470 C   0  0  0  0  0  2  0  0  0  0  0  0
  190.6430  177.4000  140.5030 C   0  0  0  0  0  2  0  0  0  0  0  0
  187.9550  178.9100  141.4620 C   0  0  2  0  0  3  0  0  0  0  0  0
  190.7950  177.4380  142.0180 C   0  0  0  0  0  0  0  0  0  0  0  0
  190.0020  176.1750  145.8560 O   0  0  0  0  0  0  0  0  0  0  0  0
  189.0020  178.8810  142.1750 C   0  0  0  0  0  2  0  0  0  0  0  0
  189.1780  177.1320  140.0390 C   0  0  2  0  0  3  0  0  0  0  0  0
  186.8000  177.8530  143.4290 C   0  0  0  0  0  3  0  0  0  0  0  0
  186.7390  178.4900  142.2170 C   0  0  0  0  0  0  0  0  0  0  0  0
  187.8990  176.6070  138.0960 O   0  0  0  0  0  1  0  0  0  0  0  0
  189.1530  176.4240  138.6820 C   0  0  1  0  0  3  0  0  0  0  0  0
  190.2630  176.8930  137.7270 C   0  0  2  0  0  3  0  0  0  0  0  0
  190.0050  176.8980  135.5260 C   0  0  0  0  0  1  0  0  0  0  0  0
  189.7250  177.6410  136.6740 O   0  0  0  0  0  0  0  0  0  0  0  0
  191.1250  174.6800  138.0940 O   0  0  0  0  0  1  0  0  0  0  0  0
  191.0590  175.7190  137.1650 C   0  0  0  0  0  2  0  0  0  0  0  0
  185.3970  178.8330  141.6870 C   0  0  0  0  0  0  0  0  0  0  0  0
  185.2900  179.5320  140.6430 O   0  0  0  0  0  0  0  0  0  0  0  0
  183.8900  178.2260  142.4560 S   0  0  0  0  0  0  0  0  0  0  0  0
  184.0530  179.2990  143.8830 C   0  0  0  0  0  0  0  0  0  0  0  0
  184.4580  180.4420  143.7450 O   0  0  0  0  0  0  0  0  0  0  0  0
  183.6880  178.7880  145.2400 C   0  0  0  0  0  2  0  0  0  0  0  0
  184.9260  178.3960  146.0300 C   0  0  0  0  0  2  0  0  0  0  0  0
  185.2300  179.3820  146.9680 O   0  0  0  0  0  1  0  0  0  0  0  0
  1  7  1  0  0  0  0
  2  5  2  0  0  0  0
  2  6  1  0  0  0  0
  4 12  1  6  0  0  0
  4  2  1  0  0  0  0
  6 11  2  0  0  0  0
  7  6  1  0  0  0  0
  8 10  1  0  0  0  0
  9  3  1  6  0  0  0
  9 12  1  0  0  0  0
  9 15  1  0  0  0  0
 10  1  2  0  0  0  0
 10  4  1  0  0  0  0
 13 17  1  6  0  0  0
 13  3  1  0  0  0  0
 13  8  1  0  0  0  0
 14  5  1  0  0  0  0
 15 14  2  0  0  0  0
 17 16  1  6  0  0  0
 18 22  1  6  0  0  0
 18 17  1  0  0  0  0
 19 20  1  0  0  0  0
 20 18  1  0  0  0  0
 22 21  1  0  0  0  0
 23 15  1  0  0  0  0
 23 25  1  0  0  0  0
 24 23  2  0  0  0  0
 25 26  1  0  0  0  0
 26 28  1  0  0  0  0
 27 26  2  0  0  0  0
 28 29  1  0  0  0  0
 29 30  1  0  0  0  0
M  END
>  <MODEL>
7

>  <REMARK>
 VINA RESULT:      -6.3      2.210      6.433
  Name = 
  9 active torsions:
  status: ('A' for Active; 'I' for Inactive)
    1  A    between atoms: C_3  and  C_28
    2  A    between atoms: C_3  and  S_29
    3  A    between atoms: C_8  and  C_22
    4  A    between atoms: C_11  and  C_24
    5  A    between atoms: C_11  and  C_26
    6  A    between atoms: C_17  and  C_22
    7  A    between atoms: C_17  and  S_29
    8  A    between atoms: O_18  and  C_26
    9  A    between atoms: C_26  and  C_30
                            x       y       z     vdW  Elec       q    Type
                         _______ _______ _______ _____ _____    ______ ____

>  <TORSDO>
F 9

$$$$
=
 OpenBabel10232409193D

 30 32  0  0  1  0  0  0  0  0999 V2000
  191.3610  176.6970  142.8240 C   0  0  0  0  0  3  0  0  0  0  0  0
  188.9390  177.7320  143.8930 C   0  0  0  0  0  0  0  0  0  0  0  0
  188.2350  178.2500  139.8090 C   0  0  0  0  0  2  0  0  0  0  0  0
  189.6000  178.3610  142.7290 C   0  0  1  0  0  3  0  0  0  0  0  0
  187.5900  177.5710  143.9990 C   0  0  0  0  0  3  0  0  0  0  0  0
  189.8450  176.9790  144.7840 C   0  0  0  0  0  0  0  0  0  0  0  0
  191.2670  176.7370  144.3360 C   0  0  0  0  0  2  0  0  0  0  0  0
  190.6040  177.3430  140.5480 C   0  0  0  0  0  2  0  0  0  0  0  0
  187.8260  178.8860  141.1190 C   0  0  2  0  0  3  0  0  0  0  0  0
  190.6060  177.5030  142.0640 C   0  0  0  0  0  0  0  0  0  0  0  0
  189.4500  176.5370  145.8950 O   0  0  0  0  0  0  0  0  0  0  0  0
  188.7970  178.9290  141.9300 C   0  0  0  0  0  2  0  0  0  0  0  0
  189.1920  177.0180  139.9680 C   0  0  2  0  0  3  0  0  0  0  0  0
  186.4900  177.9720  143.0430 C   0  0  0  0  0  3  0  0  0  0  0  0
  186.5450  178.5100  141.7840 C   0  0  0  0  0  0  0  0  0  0  0  0
  188.0390  176.0970  138.0940 O   0  0  0  0  0  1  0  0  0  0  0  0
  189.3050  176.2040  138.6760 C   0  0  1  0  0  3  0  0  0  0  0  0
  190.3070  176.7910  137.6690 C   0  0  2  0  0  3  0  0  0  0  0  0
  190.3480  176.7670  135.4540 C   0  0  0  0  0  1  0  0  0  0  0  0
  189.6430  177.2860  136.5420 O   0  0  0  0  0  0  0  0  0  0  0  0
  191.3310  174.6590  138.0970 O   0  0  0  0  0  1  0  0  0  0  0  0
  191.3470  175.7600  137.2390 C   0  0  0  0  0  2  0  0  0  0  0  0
  185.2580  178.7910  141.1010 C   0  0  0  0  0  0  0  0  0  0  0  0
  185.2320  179.5380  140.0850 O   0  0  0  0  0  0  0  0  0  0  0  0
  183.7150  178.0420  141.6390 S   0  0  0  0  0  0  0  0  0  0  0  0
  182.9610  178.1630  140.0170 C   0  0  0  0  0  0  0  0  0  0  0  0
  182.3590  179.1750  139.6960 O   0  0  0  0  0  0  0  0  0  0  0  0
  183.0780  177.0200  139.0590 C   0  0  0  0  0  2  0  0  0  0  0  0
  183.6130  177.4850  137.7140 C   0  0  0  0  0  2  0  0  0  0  0  0
  185.0000  177.3440  137.6740 O   0  0  0  0  0  1  0  0  0  0  0  0
  1  7  1  0  0  0  0
  2  5  2  0  0  0  0
  2  6  1  0  0  0  0
  3 13  1  0  0  0  0
  4 12  1  6  0  0  0
  4  2  1  0  0  0  0
  6 11  2  0  0  0  0
  7  6  1  0  0  0  0
  8 10  1  0  0  0  0
  9  3  1  6  0  0  0
  9 15  1  0  0  0  0
  9 12  1  0  0  0  0
 10  4  1  0  0  0  0
 10  1  2  0  0  0  0
 13 17  1  6  0  0  0
 13  8  1  0  0  0  0
 14  5  1  0  0  0  0
 15 14  2  0  0  0  0
 17 16  1  6  0  0  0
 18 22  1  6  0  0  0
 18 17  1  0  0  0  0
 19 20  1  0  0  0  0
 20 18  1  0  0  0  0
 22 21  1  0  0  0  0
 23 25  1  0  0  0  0
 23 15  1  0  0  0  0
 24 23  2  0  0  0  0
 26 25  1  0  0  0  0
 27 26  2  0  0  0  0
 28 26  1  0  0  0  0
 29 28  1  0  0  0  0
 30 29  1  0  0  0  0
M  END
>  <MODEL>
8

>  <REMARK>
 VINA RESULT:      -6.1      2.541      5.799
  Name = 
  9 active torsions:
  status: ('A' for Active; 'I' for Inactive)
    1  A    between atoms: C_3  and  C_28
    2  A    between atoms: C_3  and  S_29
    3  A    between atoms: C_8  and  C_22
    4  A    between atoms: C_11  and  C_24
    5  A    between atoms: C_11  and  C_26
    6  A    between atoms: C_17  and  C_22
    7  A    between atoms: C_17  and  S_29
    8  A    between atoms: O_18  and  C_26
    9  A    between atoms: C_26  and  C_30
                            x       y       z     vdW  Elec       q    Type
                         _______ _______ _______ _____ _____    ______ ____

>  <TORSDO>
F 9

$$$$
=
 OpenBabel10232409193D

 30 32  0  0  1  0  0  0  0  0999 V2000
  190.8750  176.5820  142.5900 C   0  0  0  0  0  3  0  0  0  0  0  0
  188.4420  177.7200  143.5210 C   0  0  0  0  0  0  0  0  0  0  0  0
  187.9270  178.1270  139.3960 C   0  0  0  0  0  2  0  0  0  0  0  0
  189.1700  178.2920  142.3680 C   0  0  1  0  0  3  0  0  0  0  0  0
  187.0860  177.6000  143.5730 C   0  0  0  0  0  3  0  0  0  0  0  0
  189.2860  176.9700  144.4730 C   0  0  0  0  0  0  0  0  0  0  0  0
  190.7190  176.6730  144.0940 C   0  0  0  0  0  2  0  0  0  0  0  0
  190.2350  177.1760  140.2650 C   0  0  0  0  0  2  0  0  0  0  0  0
  187.4820  178.8160  140.6670 C   0  0  2  0  0  3  0  0  0  0  0  0
  190.1780  177.3840  141.7730 C   0  0  0  0  0  0  0  0  0  0  0  0
  188.8320  176.5750  145.5790 O   0  0  0  0  0  0  0  0  0  0  0  0
  188.4200  178.8570  141.5180 C   0  0  0  0  0  2  0  0  0  0  0  0
  188.8400  176.8740  139.6350 C   0  0  2  0  0  3  0  0  0  0  0  0
  186.0400  178.0020  142.5590 C   0  0  0  0  0  3  0  0  0  0  0  0
  186.1630  178.4980  141.2870 C   0  0  0  0  0  0  0  0  0  0  0  0
  187.7470  175.9520  137.7250 O   0  0  0  0  0  1  0  0  0  0  0  0
  188.9820  176.0160  138.3740 C   0  0  1  0  0  3  0  0  0  0  0  0
  190.0670  176.5230  137.4090 C   0  0  2  0  0  3  0  0  0  0  0  0
  190.4730  176.5390  135.2310 C   0  0  0  0  0  1  0  0  0  0  0  0
  189.5060  176.8790  136.1780 O   0  0  0  0  0  0  0  0  0  0  0  0
  190.7720  174.2440  137.7050 O   0  0  0  0  0  1  0  0  0  0  0  0
  191.1610  175.4820  137.1900 C   0  0  0  0  0  2  0  0  0  0  0  0
  184.9160  178.7930  140.5410 C   0  0  0  0  0  0  0  0  0  0  0  0
  184.7660  179.9130  139.9800 O   0  0  0  0  0  0  0  0  0  0  0  0
  183.6130  177.5700  140.3490 S   0  0  0  0  0  0  0  0  0  0  0  0
  182.3680  178.6160  141.1050 C   0  0  0  0  0  0  0  0  0  0  0  0
  181.5310  179.1700  140.4110 O   0  0  0  0  0  0  0  0  0  0  0  0
  182.3580  178.8010  142.5890 C   0  0  0  0  0  2  0  0  0  0  0  0
  180.9390  178.9560  143.1130 C   0  0  0  0  0  2  0  0  0  0  0  0
  180.5150  180.2770  142.9700 O   0  0  0  0  0  1  0  0  0  0  0  0
  1  7  1  0  0  0  0
  2  5  2  0  0  0  0
  2  6  1  0  0  0  0
  3 13  1  0  0  0  0
  4 12  1  6  0  0  0
  4  2  1  0  0  0  0
  6 11  2  0  0  0  0
  7  6  1  0  0  0  0
  8 10  1  0  0  0  0
  9  3  1  6  0  0  0
  9 15  1  0  0  0  0
  9 12  1  0  0  0  0
 10  4  1  0  0  0  0
 10  1  2  0  0  0  0
 13 17  1  6  0  0  0
 13  8  1  0  0  0  0
 14  5  1  0  0  0  0
 15 14  2  0  0  0  0
 17 16  1  6  0  0  0
 18 22  1  6  0  0  0
 18 17  1  0  0  0  0
 19 20  1  0  0  0  0
 20 18  1  0  0  0  0
 22 21  1  0  0  0  0
 23 15  1  0  0  0  0
 24 23  2  0  0  0  0
 25 23  1  0  0  0  0
 25 26  1  0  0  0  0
 26 28  1  0  0  0  0
 27 26  2  0  0  0  0
 28 29  1  0  0  0  0
 30 29  1  0  0  0  0
M  END
>  <MODEL>
9

>  <REMARK>
 VINA RESULT:      -6.0      2.326      6.382
  Name = 
  9 active torsions:
  status: ('A' for Active; 'I' for Inactive)
    1  A    between atoms: C_3  and  C_28
    2  A    between atoms: C_3  and  S_29
    3  A    between atoms: C_8  and  C_22
    4  A    between atoms: C_11  and  C_24
    5  A    between atoms: C_11  and  C_26
    6  A    between atoms: C_17  and  C_22
    7  A    between atoms: C_17  and  S_29
    8  A    between atoms: O_18  and  C_26
    9  A    between atoms: C_26  and  C_30
                            x       y       z     vdW  Elec       q    Type
                         _______ _______ _______ _____ _____    ______ ____

>  <TORSDO>
F 9

$$$$
