=
 OpenBabel10232410493D

 35 36  0  0  1  0  0  0  0  0999 V2000
  188.3970  176.9100  138.3530 C   0  0  1  0  0  3  0  0  0  0  0  0
  189.1110  179.0450  139.1580 O   0  0  0  0  0  0  0  0  0  0  0  0
  188.5280  177.9570  139.4280 C   0  0  0  0  0  0  0  0  0  0  0  0
  188.0610  177.7150  140.7220 O   0  0  0  0  0  0  0  0  0  0  0  0
  188.4900  178.5120  141.8160 C   0  0  0  0  0  2  0  0  0  0  0  0
  190.9970  176.9780  146.3600 C   0  0  0  0  0  3  0  0  0  0  0  0
  187.4870  176.4290  143.8420 N   0  0  0  0  0  1  0  0  0  0  0  0
  191.1910  176.7600  143.9300 C   0  0  0  0  0  0  0  0  0  0  0  0
  189.7490  177.9620  142.4090 C   0  0  0  0  0  3  0  0  0  0  0  0
  188.6620  177.0150  144.4040 C   0  0  0  0  0  0  0  0  0  0  0  0
  191.5480  176.4780  145.2950 N   0  0  0  0  0  0  0  0  0  0  0  0
  188.6760  177.3620  145.6980 C   0  0  0  0  0  0  0  0  0  0  0  0
  189.8920  177.9770  146.3070 C   0  0  0  0  0  2  0  0  0  0  0  0
  192.0590  176.5760  143.0370 O   0  0  0  0  0  0  0  0  0  0  0  0
  189.8420  177.2400  143.5310 C   0  0  0  0  0  0  0  0  0  0  0  0
  187.5060  177.1000  146.5860 C   0  0  0  0  0  1  0  0  0  0  0  0
  188.1950  177.9150  136.0570 C   0  0  0  0  0  1  0  0  0  0  0  0
  187.4270  177.3570  137.2460 C   0  0  2  0  0  3  0  0  0  0  0  0
  186.5390  178.3980  137.7370 N   0  0  0  0  0  2  0  0  0  0  0  0
  184.5840  177.1260  137.5840 O   0  0  0  0  0  0  0  0  0  0  0  0
  185.1490  178.1770  137.9890 C   0  0  0  0  0  0  0  0  0  0  0  0
  184.3730  179.2000  138.7450 C   0  0  0  0  0  2  0  0  0  0  0  0
  184.6830  179.0870  140.2270 C   0  0  0  0  0  2  0  0  0  0  0  0
  183.6420  178.2290  140.9290 C   0  0  0  0  0  2  0  0  0  0  0  0
  185.0150  178.6730  144.4260 C   0  0  0  0  0  3  0  0  0  0  0  0
  183.8630  178.9980  145.1480 C   0  0  0  0  0  3  0  0  0  0  0  0
  182.5250  178.7800  143.1370 C   0  0  0  0  0  0  0  0  0  0  0  0
  183.6890  178.4660  142.4030 C   0  0  0  0  0  0  0  0  0  0  0  0
  184.9250  178.4120  143.0580 C   0  0  0  0  0  3  0  0  0  0  0  0
  182.6220  179.0520  144.5060 C   0  0  0  0  0  3  0  0  0  0  0  0
  181.1840  178.8710  142.4840 C   0  0  0  0  0  2  0  0  0  0  0  0
  180.5550  180.1360  142.8270 N   0  0  0  0  0  1  0  0  0  0  0  0
  189.7710  176.5640  137.7900 C   0  0  0  0  0  2  0  0  0  0  0  0
  191.7250  175.6030  138.1260 C   0  0  0  0  0  1  0  0  0  0  0  0
  190.4760  175.7970  138.7170 O   0  0  0  0  0  0  0  0  0  0  0  0
  1 33  1  6  0  0  0
  1  3  1  0  0  0  0
  2  3  2  0  0  0  0
  3  4  1  0  0  0  0
  4  5  1  0  0  0  0
  5  9  1  0  0  0  0
  7 10  1  0  0  0  0
  8 11  1  0  0  0  0
  9 15  2  0  0  0  0
 10 12  2  0  0  0  0
 11  6  2  0  0  0  0
 12 13  1  0  0  0  0
 12 16  1  0  0  0  0
 13  6  1  0  0  0  0
 14  8  2  0  0  0  0
 15  8  1  0  0  0  0
 15 10  1  0  0  0  0
 18 17  1  6  0  0  0
 18 19  1  0  0  0  0
 18  1  1  0  0  0  0
 19 21  1  0  0  0  0
 20 21  2  0  0  0  0
 21 22  1  0  0  0  0
 22 23  1  0  0  0  0
 23 24  1  0  0  0  0
 24 28  1  0  0  0  0
 25 26  1  0  0  0  0
 27 30  1  0  0  0  0
 28 29  1  0  0  0  0
 28 27  2  0  0  0  0
 29 25  2  0  0  0  0
 30 26  2  0  0  0  0
 31 32  1  0  0  0  0
 31 27  1  0  0  0  0
 33 35  1  0  0  0  0
 34 35  1  0  0  0  0
M  END
>  <MODEL>
1

>  <REMARK>
 VINA RESULT:      -7.9      0.000      0.000
  Name = 
  13 active torsions:
  status: ('A' for Active; 'I' for Inactive)
    1  A    between atoms: O_4  and  C_8
    2  A    between atoms: O_4  and  C_24
    3  A    between atoms: C_5  and  C_11
    4  A    between atoms: N_7  and  C_34
    5  A    between atoms: C_8  and  C_30
    6  A    between atoms: C_14  and  C_24
    7  A    between atoms: C_16  and  C_22
    8  A    between atoms: C_17  and  C_18
    9  A    between atoms: C_17  and  C_19
   10  A    between atoms: C_18  and  C_22
   11  A    between atoms: O_28  and  C_35
   12  A    between atoms: C_30  and  C_34
   13  A    between atoms: C_30  and  C_35
                            x       y       z     vdW  Elec       q    Type
                         _______ _______ _______ _____ _____    ______ ____

>  <TORSDO>
F 13

$$$$
=
 OpenBabel10232410493D

 35 36  0  0  1  0  0  0  0  0999 V2000
  188.7610  177.2740  140.2950 C   0  0  1  0  0  3  0  0  0  0  0  0
  188.5780  179.2790  141.5840 O   0  0  0  0  0  0  0  0  0  0  0  0
  188.1440  178.1090  141.3860 C   0  0  0  0  0  0  0  0  0  0  0  0
  187.1420  177.5860  142.2070 O   0  0  0  0  0  0  0  0  0  0  0  0
  187.4630  176.7990  143.3440 C   0  0  0  0  0  2  0  0  0  0  0  0
  188.1920  177.6870  148.6330 C   0  0  0  0  0  3  0  0  0  0  0  0
  189.8800  178.1770  144.6490 N   0  0  0  0  0  1  0  0  0  0  0  0
  186.8300  178.4690  146.7560 C   0  0  0  0  0  0  0  0  0  0  0  0
  186.8930  177.4100  144.5860 C   0  0  0  0  0  3  0  0  0  0  0  0
  189.0630  177.6890  145.7130 C   0  0  0  0  0  0  0  0  0  0  0  0
  187.3240  178.4980  148.1080 N   0  0  0  0  0  0  0  0  0  0  0  0
  189.6320  177.0710  146.7560 C   0  0  0  0  0  0  0  0  0  0  0  0
  188.7990  176.5520  147.8800 C   0  0  0  0  0  2  0  0  0  0  0  0
  185.7090  178.9930  146.5200 O   0  0  0  0  0  0  0  0  0  0  0  0
  187.5910  177.8680  145.6300 C   0  0  0  0  0  0  0  0  0  0  0  0
  191.1140  176.9260  146.8610 C   0  0  0  0  0  1  0  0  0  0  0  0
  189.2380  178.5830  138.2030 C   0  0  0  0  0  1  0  0  0  0  0  0
  188.2360  177.6820  138.9080 C   0  0  2  0  0  3  0  0  0  0  0  0
  186.9830  178.4100  139.0320 N   0  0  0  0  0  2  0  0  0  0  0  0
  186.1350  177.7670  136.9510 O   0  0  0  0  0  0  0  0  0  0  0  0
  185.9320  178.3160  138.0670 C   0  0  0  0  0  0  0  0  0  0  0  0
  184.5880  178.8660  138.3970 C   0  0  0  0  0  2  0  0  0  0  0  0
  184.4910  179.1230  139.8910 C   0  0  0  0  0  2  0  0  0  0  0  0
  183.9290  177.9060  140.6100 C   0  0  0  0  0  2  0  0  0  0  0  0
  183.2040  178.9320  144.1780 C   0  0  0  0  0  3  0  0  0  0  0  0
  181.8380  179.2200  144.1230 C   0  0  0  0  0  3  0  0  0  0  0  0
  181.7910  178.6080  141.7760 C   0  0  0  0  0  0  0  0  0  0  0  0
  183.1740  178.3310  141.8260 C   0  0  0  0  0  0  0  0  0  0  0  0
  183.8680  178.4920  143.0320 C   0  0  0  0  0  3  0  0  0  0  0  0
  181.1340  179.0600  142.9250 C   0  0  0  0  0  3  0  0  0  0  0  0
  181.0070  178.4720  140.5120 C   0  0  0  0  0  2  0  0  0  0  0  0
  180.8820  179.7700  139.8680 N   0  0  0  0  0  1  0  0  0  0  0  0
  190.2810  177.3580  140.3680 C   0  0  0  0  0  2  0  0  0  0  0  0
  191.9560  177.3690  141.8000 C   0  0  0  0  0  1  0  0  0  0  0  0
  190.7270  176.7580  141.5450 O   0  0  0  0  0  0  0  0  0  0  0  0
  1 33  1  6  0  0  0
  1  3  1  0  0  0  0
  3  2  2  0  0  0  0
  3  4  1  0  0  0  0
  4  5  1  0  0  0  0
  5  9  1  0  0  0  0
  7 10  1  0  0  0  0
  8 11  1  0  0  0  0
  9 15  2  0  0  0  0
 10 12  2  0  0  0  0
 11  6  2  0  0  0  0
 12 16  1  0  0  0  0
 12 13  1  0  0  0  0
 13  6  1  0  0  0  0
 14  8  2  0  0  0  0
 15 10  1  0  0  0  0
 15  8  1  0  0  0  0
 18 17  1  1  0  0  0
 18 19  1  0  0  0  0
 18  1  1  0  0  0  0
 20 21  2  0  0  0  0
 21 22  1  0  0  0  0
 21 19  1  0  0  0  0
 22 23  1  0  0  0  0
 23 24  1  0  0  0  0
 24 28  1  0  0  0  0
 26 25  1  0  0  0  0
 27 28  2  0  0  0  0
 27 30  1  0  0  0  0
 28 29  1  0  0  0  0
 29 25  2  0  0  0  0
 30 26  2  0  0  0  0
 31 27  1  0  0  0  0
 32 31  1  0  0  0  0
 33 35  1  0  0  0  0
 35 34  1  0  0  0  0
M  END
>  <MODEL>
2

>  <REMARK>
 VINA RESULT:      -7.9      1.980      2.883
  Name = 
  13 active torsions:
  status: ('A' for Active; 'I' for Inactive)
    1  A    between atoms: O_4  and  C_8
    2  A    between atoms: O_4  and  C_24
    3  A    between atoms: C_5  and  C_11
    4  A    between atoms: N_7  and  C_34
    5  A    between atoms: C_8  and  C_30
    6  A    between atoms: C_14  and  C_24
    7  A    between atoms: C_16  and  C_22
    8  A    between atoms: C_17  and  C_18
    9  A    between atoms: C_17  and  C_19
   10  A    between atoms: C_18  and  C_22
   11  A    between atoms: O_28  and  C_35
   12  A    between atoms: C_30  and  C_34
   13  A    between atoms: C_30  and  C_35
                            x       y       z     vdW  Elec       q    Type
                         _______ _______ _______ _____ _____    ______ ____

>  <TORSDO>
F 13

$$$$
=
 OpenBabel10232410493D

 35 36  0  0  1  0  0  0  0  0999 V2000
  189.3690  177.7550  144.3770 C   0  0  1  0  0  3  0  0  0  0  0  0
  188.2630  175.9430  143.2780 O   0  0  0  0  0  0  0  0  0  0  0  0
  188.3920  177.1960  143.3770 C   0  0  0  0  0  0  0  0  0  0  0  0
  187.6730  178.0420  142.5280 O   0  0  0  0  0  0  0  0  0  0  0  0
  188.0110  178.1620  141.1550 C   0  0  0  0  0  2  0  0  0  0  0  0
  191.4840  175.7670  137.7640 C   0  0  0  0  0  3  0  0  0  0  0  0
  188.5160  178.9210  138.2200 N   0  0  0  0  0  1  0  0  0  0  0  0
  191.4650  177.2280  139.7270 C   0  0  0  0  0  0  0  0  0  0  0  0
  189.4330  177.7540  140.9240 C   0  0  0  0  0  3  0  0  0  0  0  0
  189.2630  177.7300  138.4690 C   0  0  0  0  0  0  0  0  0  0  0  0
  192.0810  176.5290  138.6310 N   0  0  0  0  0  0  0  0  0  0  0  0
  189.2500  176.7380  137.5680 C   0  0  0  0  0  0  0  0  0  0  0  0
  190.0210  175.4830  137.8070 C   0  0  0  0  0  2  0  0  0  0  0  0
  192.1820  177.5410  140.7140 O   0  0  0  0  0  0  0  0  0  0  0  0
  190.0290  177.6130  139.7360 C   0  0  0  0  0  0  0  0  0  0  0  0
  188.5130  176.8700  136.2770 C   0  0  0  0  0  1  0  0  0  0  0  0
  189.1550  176.9280  146.7410 C   0  0  0  0  0  1  0  0  0  0  0  0
  188.7050  177.9860  145.7450 C   0  0  2  0  0  3  0  0  0  0  0  0
  187.2580  177.9090  145.6280 N   0  0  0  0  0  2  0  0  0  0  0  0
  186.8100  178.6590  147.7960 O   0  0  0  0  0  0  0  0  0  0  0  0
  186.3710  178.3690  146.6510 C   0  0  0  0  0  0  0  0  0  0  0  0
  184.9200  178.5110  146.3470 C   0  0  0  0  0  2  0  0  0  0  0  0
  184.7360  178.9290  144.8990 C   0  0  0  0  0  2  0  0  0  0  0  0
  183.2610  178.9690  144.5340 C   0  0  0  0  0  2  0  0  0  0  0  0
  184.0750  178.1830  140.9240 C   0  0  0  0  0  3  0  0  0  0  0  0
  182.8190  178.2720  140.3200 C   0  0  0  0  0  3  0  0  0  0  0  0
  181.8220  178.8700  142.4500 C   0  0  0  0  0  0  0  0  0  0  0  0
  183.0880  178.7660  143.0640 C   0  0  0  0  0  0  0  0  0  0  0  0
  184.2060  178.4260  142.2920 C   0  0  0  0  0  3  0  0  0  0  0  0
  181.6950  178.6140  141.0800 C   0  0  0  0  0  3  0  0  0  0  0  0
  180.5940  179.2090  143.2290 C   0  0  0  0  0  2  0  0  0  0  0  0
  180.2180  180.5920  142.9790 N   0  0  0  0  0  1  0  0  0  0  0  0
  190.5840  176.8410  144.4890 C   0  0  0  0  0  2  0  0  0  0  0  0
  191.7810  178.6490  144.0960 C   0  0  0  0  0  1  0  0  0  0  0  0
  191.6110  177.3280  143.6800 O   0  0  0  0  0  0  0  0  0  0  0  0
  1 33  1  1  0  0  0
  1 18  1  0  0  0  0
  2  3  2  0  0  0  0
  3  1  1  0  0  0  0
  4  3  1  0  0  0  0
  5  4  1  0  0  0  0
  6 13  1  0  0  0  0
  6 11  2  0  0  0  0
  7 10  1  0  0  0  0
  8 15  1  0  0  0  0
  8 14  2  0  0  0  0
  9  5  1  0  0  0  0
 10 15  1  0  0  0  0
 11  8  1  0  0  0  0
 12 13  1  0  0  0  0
 12 10  2  0  0  0  0
 15  9  2  0  0  0  0
 16 12  1  0  0  0  0
 18 17  1  1  0  0  0
 19 18  1  0  0  0  0
 19 21  1  0  0  0  0
 21 20  2  0  0  0  0
 22 21  1  0  0  0  0
 23 22  1  0  0  0  0
 24 23  1  0  0  0  0
 25 29  1  0  0  0  0
 26 25  2  0  0  0  0
 26 30  1  0  0  0  0
 27 28  1  0  0  0  0
 27 31  1  0  0  0  0
 28 24  1  0  0  0  0
 29 28  2  0  0  0  0
 30 27  2  0  0  0  0
 32 31  1  0  0  0  0
 35 34  1  0  0  0  0
 35 33  1  0  0  0  0
M  END
>  <MODEL>
3

>  <REMARK>
 VINA RESULT:      -7.9      2.101      6.059
  Name = 
  13 active torsions:
  status: ('A' for Active; 'I' for Inactive)
    1  A    between atoms: O_4  and  C_8
    2  A    between atoms: O_4  and  C_24
    3  A    between atoms: C_5  and  C_11
    4  A    between atoms: N_7  and  C_34
    5  A    between atoms: C_8  and  C_30
    6  A    between atoms: C_14  and  C_24
    7  A    between atoms: C_16  and  C_22
    8  A    between atoms: C_17  and  C_18
    9  A    between atoms: C_17  and  C_19
   10  A    between atoms: C_18  and  C_22
   11  A    between atoms: O_28  and  C_35
   12  A    between atoms: C_30  and  C_34
   13  A    between atoms: C_30  and  C_35
                            x       y       z     vdW  Elec       q    Type
                         _______ _______ _______ _____ _____    ______ ____

>  <TORSDO>
F 13

$$$$
=
 OpenBabel10232410493D

 35 36  0  0  1  0  0  0  0  0999 V2000
  189.1270  177.8660  145.2560 C   0  0  1  0  0  3  0  0  0  0  0  0
  187.9950  176.1910  143.9810 O   0  0  0  0  0  0  0  0  0  0  0  0
  188.4080  177.3840  144.0240 C   0  0  0  0  0  0  0  0  0  0  0  0
  188.2430  178.2220  142.9180 O   0  0  0  0  0  0  0  0  0  0  0  0
  188.3030  177.7090  141.5950 C   0  0  0  0  0  2  0  0  0  0  0  0
  191.5920  175.9580  137.6700 C   0  0  0  0  0  3  0  0  0  0  0  0
  188.4640  178.7990  138.7260 N   0  0  0  0  0  1  0  0  0  0  0  0
  191.6590  177.2080  139.7740 C   0  0  0  0  0  0  0  0  0  0  0  0
  189.7200  177.4430  141.1960 C   0  0  0  0  0  3  0  0  0  0  0  0
  189.3150  177.6530  138.7780 C   0  0  0  0  0  0  0  0  0  0  0  0
  192.2140  176.6740  138.5580 N   0  0  0  0  0  0  0  0  0  0  0  0
  189.2850  176.7600  137.7800 C   0  0  0  0  0  0  0  0  0  0  0  0
  190.1640  175.5540  137.8130 C   0  0  0  0  0  2  0  0  0  0  0  0
  192.4450  177.4760  140.7200 O   0  0  0  0  0  0  0  0  0  0  0  0
  190.2070  177.4720  139.9510 C   0  0  0  0  0  0  0  0  0  0  0  0
  188.4200  176.9610  136.5810 C   0  0  0  0  0  1  0  0  0  0  0  0
  188.4400  176.9420  147.4900 C   0  0  0  0  0  1  0  0  0  0  0  0
  188.1660  178.0150  146.4470 C   0  0  2  0  0  3  0  0  0  0  0  0
  186.7870  177.8770  146.0090 N   0  0  0  0  0  2  0  0  0  0  0  0
  185.9410  179.5820  147.3660 O   0  0  0  0  0  0  0  0  0  0  0  0
  185.7480  178.7670  146.4240 C   0  0  0  0  0  0  0  0  0  0  0  0
  184.4330  178.7300  145.7240 C   0  0  0  0  0  2  0  0  0  0  0  0
  184.6390  178.3630  144.2650 C   0  0  0  0  0  2  0  0  0  0  0  0
  184.1470  179.4790  143.3560 C   0  0  0  0  0  2  0  0  0  0  0  0
  180.6800  178.5020  142.1980 C   0  0  0  0  0  3  0  0  0  0  0  0
  180.9100  178.1510  140.8650 C   0  0  0  0  0  3  0  0  0  0  0  0
  183.2770  178.6120  141.1390 C   0  0  0  0  0  0  0  0  0  0  0  0
  183.0440  178.9810  142.4810 C   0  0  0  0  0  0  0  0  0  0  0  0
  181.7440  178.9180  142.9990 C   0  0  0  0  0  3  0  0  0  0  0  0
  182.2040  178.2070  140.3360 C   0  0  0  0  0  3  0  0  0  0  0  0
  184.6380  178.6800  140.5300 C   0  0  0  0  0  2  0  0  0  0  0  0
  184.6690  179.7090  139.5030 N   0  0  0  0  0  1  0  0  0  0  0  0
  190.2870  176.9320  145.5830 C   0  0  0  0  0  2  0  0  0  0  0  0
  191.6340  176.1410  144.0280 C   0  0  0  0  0  1  0  0  0  0  0  0
  191.3950  177.2740  144.8070 O   0  0  0  0  0  0  0  0  0  0  0  0
  1 33  1  1  0  0  0
  1 18  1  0  0  0  0
  2  3  2  0  0  0  0
  3  1  1  0  0  0  0
  4  3  1  0  0  0  0
  5  4  1  0  0  0  0
  6 13  1  0  0  0  0
  6 11  2  0  0  0  0
  7 10  1  0  0  0  0
  8 15  1  0  0  0  0
  8 14  2  0  0  0  0
  9  5  1  0  0  0  0
 10 15  1  0  0  0  0
 11  8  1  0  0  0  0
 12 13  1  0  0  0  0
 12 10  2  0  0  0  0
 15  9  2  0  0  0  0
 16 12  1  0  0  0  0
 18 17  1  1  0  0  0
 19 21  1  0  0  0  0
 19 18  1  0  0  0  0
 21 20  2  0  0  0  0
 22 21  1  0  0  0  0
 23 22  1  0  0  0  0
 24 23  1  0  0  0  0
 25 29  1  0  0  0  0
 26 25  2  0  0  0  0
 27 28  1  0  0  0  0
 28 29  2  0  0  0  0
 28 24  1  0  0  0  0
 30 26  1  0  0  0  0
 30 27  2  0  0  0  0
 31 27  1  0  0  0  0
 32 31  1  0  0  0  0
 34 35  1  0  0  0  0
 35 33  1  0  0  0  0
M  END
>  <MODEL>
4

>  <REMARK>
 VINA RESULT:      -7.8      2.259      6.277
  Name = 
  13 active torsions:
  status: ('A' for Active; 'I' for Inactive)
    1  A    between atoms: O_4  and  C_8
    2  A    between atoms: O_4  and  C_24
    3  A    between atoms: C_5  and  C_11
    4  A    between atoms: N_7  and  C_34
    5  A    between atoms: C_8  and  C_30
    6  A    between atoms: C_14  and  C_24
    7  A    between atoms: C_16  and  C_22
    8  A    between atoms: C_17  and  C_18
    9  A    between atoms: C_17  and  C_19
   10  A    between atoms: C_18  and  C_22
   11  A    between atoms: O_28  and  C_35
   12  A    between atoms: C_30  and  C_34
   13  A    between atoms: C_30  and  C_35
                            x       y       z     vdW  Elec       q    Type
                         _______ _______ _______ _____ _____    ______ ____

>  <TORSDO>
F 13

$$$$
=
 OpenBabel10232410493D

 35 36  0  0  1  0  0  0  0  0999 V2000
  183.6430  177.8410  140.0580 C   0  0  1  0  0  3  0  0  0  0  0  0
  184.8590  179.8460  139.5940 O   0  0  0  0  0  0  0  0  0  0  0  0
  184.8660  178.7140  140.1550 C   0  0  0  0  0  0  0  0  0  0  0  0
  186.0160  178.2640  140.8080 O   0  0  0  0  0  0  0  0  0  0  0  0
  187.2780  178.8700  140.5720 C   0  0  0  0  0  2  0  0  0  0  0  0
  190.2190  175.3560  137.6930 C   0  0  0  0  0  3  0  0  0  0  0  0
  188.9520  179.5050  138.0740 N   0  0  0  0  0  1  0  0  0  0  0  0
  190.2280  176.5000  139.8560 C   0  0  0  0  0  0  0  0  0  0  0  0
  188.3700  177.8480  140.6100 C   0  0  0  0  0  3  0  0  0  0  0  0
  188.9830  178.0870  138.2390 C   0  0  0  0  0  0  0  0  0  0  0  0
  190.7840  175.6720  138.8190 N   0  0  0  0  0  0  0  0  0  0  0  0
  188.8210  177.2920  137.1730 C   0  0  0  0  0  0  0  0  0  0  0  0
  188.8480  175.8070  137.3200 C   0  0  0  0  0  2  0  0  0  0  0  0
  190.6610  176.3570  141.0300 O   0  0  0  0  0  0  0  0  0  0  0  0
  189.1820  177.5250  139.5990 C   0  0  0  0  0  0  0  0  0  0  0  0
  188.6610  177.8540  135.8000 C   0  0  0  0  0  1  0  0  0  0  0  0
  181.6460  179.3260  140.4160 C   0  0  0  0  0  1  0  0  0  0  0  0
  182.5540  178.2840  141.0510 C   0  0  2  0  0  3  0  0  0  0  0  0
  183.1560  178.8730  142.2360 N   0  0  0  0  0  2  0  0  0  0  0  0
  181.3390  178.4610  143.6470 O   0  0  0  0  0  0  0  0  0  0  0  0
  182.5390  178.8250  143.5250 C   0  0  0  0  0  0  0  0  0  0  0  0
  183.3330  179.2000  144.7280 C   0  0  0  0  0  2  0  0  0  0  0  0
  184.7880  178.8180  144.5230 C   0  0  0  0  0  2  0  0  0  0  0  0
  185.4140  178.3600  145.8320 C   0  0  0  0  0  2  0  0  0  0  0  0
  188.4110  176.8930  144.0500 C   0  0  0  0  0  3  0  0  0  0  0  0
  189.3960  176.9630  145.0380 C   0  0  0  0  0  3  0  0  0  0  0  0
  187.7880  177.9050  146.5920 C   0  0  0  0  0  0  0  0  0  0  0  0
  186.7960  177.8480  145.5900 C   0  0  0  0  0  0  0  0  0  0  0  0
  187.1180  177.3380  144.3270 C   0  0  0  0  0  3  0  0  0  0  0  0
  189.0860  177.4680  146.3050 C   0  0  0  0  0  3  0  0  0  0  0  0
  187.5050  178.4580  147.9500 C   0  0  0  0  0  2  0  0  0  0  0  0
  188.3070  177.7610  148.9430 N   0  0  0  0  0  1  0  0  0  0  0  0
  183.1230  177.8250  138.6250 C   0  0  0  0  0  2  0  0  0  0  0  0
  183.9990  176.2830  137.3160 C   0  0  0  0  0  1  0  0  0  0  0  0
  182.9480  176.5060  138.2070 O   0  0  0  0  0  0  0  0  0  0  0  0
  1 33  1  6  0  0  0
  1  3  1  0  0  0  0
  1 18  1  0  0  0  0
  2  3  2  0  0  0  0
  3  4  1  0  0  0  0
  5  9  1  0  0  0  0
  5  4  1  0  0  0  0
  6 11  2  0  0  0  0
  7 10  1  0  0  0  0
  8 14  2  0  0  0  0
 10 15  1  0  0  0  0
 11  8  1  0  0  0  0
 12 13  1  0  0  0  0
 12 10  2  0  0  0  0
 13  6  1  0  0  0  0
 15  8  1  0  0  0  0
 15  9  2  0  0  0  0
 16 12  1  0  0  0  0
 18 17  1  6  0  0  0
 18 19  1  0  0  0  0
 19 21  1  0  0  0  0
 21 20  2  0  0  0  0
 21 22  1  0  0  0  0
 23 22  1  0  0  0  0
 23 24  1  0  0  0  0
 25 29  2  0  0  0  0
 25 26  1  0  0  0  0
 26 30  2  0  0  0  0
 27 31  1  0  0  0  0
 28 24  1  0  0  0  0
 28 27  2  0  0  0  0
 29 28  1  0  0  0  0
 30 27  1  0  0  0  0
 31 32  1  0  0  0  0
 34 35  1  0  0  0  0
 35 33  1  0  0  0  0
M  END
>  <MODEL>
5

>  <REMARK>
 VINA RESULT:      -7.7      2.319      6.331
  Name = 
  13 active torsions:
  status: ('A' for Active; 'I' for Inactive)
    1  A    between atoms: O_4  and  C_8
    2  A    between atoms: O_4  and  C_24
    3  A    between atoms: C_5  and  C_11
    4  A    between atoms: N_7  and  C_34
    5  A    between atoms: C_8  and  C_30
    6  A    between atoms: C_14  and  C_24
    7  A    between atoms: C_16  and  C_22
    8  A    between atoms: C_17  and  C_18
    9  A    between atoms: C_17  and  C_19
   10  A    between atoms: C_18  and  C_22
   11  A    between atoms: O_28  and  C_35
   12  A    between atoms: C_30  and  C_34
   13  A    between atoms: C_30  and  C_35
                            x       y       z     vdW  Elec       q    Type
                         _______ _______ _______ _____ _____    ______ ____

>  <TORSDO>
F 13

$$$$
=
 OpenBabel10232410493D

 35 36  0  0  1  0  0  0  0  0999 V2000
  190.7460  176.8370  144.8530 C   0  0  1  0  0  3  0  0  0  0  0  0
  189.1290  178.2910  145.8450 O   0  0  0  0  0  0  0  0  0  0  0  0
  189.3300  177.2730  145.1240 C   0  0  0  0  0  0  0  0  0  0  0  0
  188.2490  176.5390  144.6320 O   0  0  0  0  0  0  0  0  0  0  0  0
  186.9890  177.1520  144.4060 C   0  0  0  0  0  2  0  0  0  0  0  0
  183.7530  179.0670  140.5140 C   0  0  0  0  0  3  0  0  0  0  0  0
  184.9780  179.4610  144.6740 N   0  0  0  0  0  1  0  0  0  0  0  0
  186.1140  179.0280  141.1590 C   0  0  0  0  0  0  0  0  0  0  0  0
  186.9200  177.7220  143.0240 C   0  0  0  0  0  3  0  0  0  0  0  0
  184.7880  178.9000  143.3740 C   0  0  0  0  0  0  0  0  0  0  0  0
  184.9880  179.4390  140.3610 N   0  0  0  0  0  0  0  0  0  0  0  0
  183.5460  178.6880  142.9190 C   0  0  0  0  0  0  0  0  0  0  0  0
  183.3220  178.1020  141.5650 C   0  0  0  0  0  2  0  0  0  0  0  0
  187.2620  179.0940  140.6470 O   0  0  0  0  0  0  0  0  0  0  0  0
  185.9790  178.5510  142.5600 C   0  0  0  0  0  0  0  0  0  0  0  0
  182.3470  179.0750  143.7190 C   0  0  0  0  0  1  0  0  0  0  0  0
  191.5140  179.0620  143.9700 C   0  0  0  0  0  1  0  0  0  0  0  0
  191.3460  177.5840  143.6500 C   0  0  2  0  0  3  0  0  0  0  0  0
  190.4740  177.4690  142.4930 N   0  0  0  0  0  2  0  0  0  0  0  0
  192.1930  177.4330  140.9100 O   0  0  0  0  0  0  0  0  0  0  0  0
  190.9670  177.2840  141.1640 C   0  0  0  0  0  0  0  0  0  0  0  0
  190.0190  176.9010  140.0810 C   0  0  0  0  0  2  0  0  0  0  0  0
  189.7460  178.1000  139.1900 C   0  0  0  0  0  2  0  0  0  0  0  0
  189.7530  177.6940  137.7250 C   0  0  0  0  0  2  0  0  0  0  0  0
  186.1250  176.7000  137.3190 C   0  0  0  0  0  3  0  0  0  0  0  0
  186.2370  175.4250  136.7590 C   0  0  0  0  0  3  0  0  0  0  0  0
  188.6560  175.5790  136.8610 C   0  0  0  0  0  0  0  0  0  0  0  0
  188.5450  176.8720  137.4130 C   0  0  0  0  0  0  0  0  0  0  0  0
  187.2760  177.4200  137.6410 C   0  0  0  0  0  3  0  0  0  0  0  0
  187.4980  174.8660  136.5300 C   0  0  0  0  0  3  0  0  0  0  0  0
  189.9830  174.9550  136.5790 C   0  0  0  0  0  2  0  0  0  0  0  0
  190.3850  174.1220  137.7020 N   0  0  0  0  0  1  0  0  0  0  0  0
  191.5970  177.0140  146.1060 C   0  0  0  0  0  2  0  0  0  0  0  0
  192.3610  175.7880  147.7700 C   0  0  0  0  0  1  0  0  0  0  0  0
  191.1900  176.1020  147.0800 O   0  0  0  0  0  0  0  0  0  0  0  0
  1  3  1  0  0  0  0
  1 33  1  1  0  0  0
  3  2  2  0  0  0  0
  4  3  1  0  0  0  0
  5  4  1  0  0  0  0
  6 13  1  0  0  0  0
  8 15  1  0  0  0  0
  9  5  1  0  0  0  0
 10  7  1  0  0  0  0
 11  6  2  0  0  0  0
 11  8  1  0  0  0  0
 12 10  2  0  0  0  0
 12 16  1  0  0  0  0
 13 12  1  0  0  0  0
 14  8  2  0  0  0  0
 15  9  2  0  0  0  0
 15 10  1  0  0  0  0
 18 17  1  1  0  0  0
 18  1  1  0  0  0  0
 19 18  1  0  0  0  0
 20 21  2  0  0  0  0
 21 19  1  0  0  0  0
 22 21  1  0  0  0  0
 23 22  1  0  0  0  0
 24 23  1  0  0  0  0
 25 29  1  0  0  0  0
 26 25  2  0  0  0  0
 27 28  1  0  0  0  0
 28 29  2  0  0  0  0
 28 24  1  0  0  0  0
 30 26  1  0  0  0  0
 30 27  2  0  0  0  0
 31 27  1  0  0  0  0
 31 32  1  0  0  0  0
 33 35  1  0  0  0  0
 35 34  1  0  0  0  0
M  END
>  <MODEL>
6

>  <REMARK>
 VINA RESULT:      -7.6      2.338      7.450
  Name = 
  13 active torsions:
  status: ('A' for Active; 'I' for Inactive)
    1  A    between atoms: O_4  and  C_8
    2  A    between atoms: O_4  and  C_24
    3  A    between atoms: C_5  and  C_11
    4  A    between atoms: N_7  and  C_34
    5  A    between atoms: C_8  and  C_30
    6  A    between atoms: C_14  and  C_24
    7  A    between atoms: C_16  and  C_22
    8  A    between atoms: C_17  and  C_18
    9  A    between atoms: C_17  and  C_19
   10  A    between atoms: C_18  and  C_22
   11  A    between atoms: O_28  and  C_35
   12  A    between atoms: C_30  and  C_34
   13  A    between atoms: C_30  and  C_35
                            x       y       z     vdW  Elec       q    Type
                         _______ _______ _______ _____ _____    ______ ____

>  <TORSDO>
F 13

$$$$
=
 OpenBabel10232410493D

 35 36  0  0  1  0  0  0  0  0999 V2000
  189.8600  177.3030  138.3720 C   0  0  1  0  0  3  0  0  0  0  0  0
  188.5170  178.7010  139.7700 O   0  0  0  0  0  0  0  0  0  0  0  0
  188.5400  177.8810  138.8100 C   0  0  0  0  0  0  0  0  0  0  0  0
  187.3480  177.4800  138.2030 O   0  0  0  0  0  0  0  0  0  0  0  0
  186.5090  178.4180  137.5460 C   0  0  0  0  0  2  0  0  0  0  0  0
  181.7480  176.4540  139.2090 C   0  0  0  0  0  3  0  0  0  0  0  0
  184.3860  179.9180  139.1860 N   0  0  0  0  0  1  0  0  0  0  0  0
  182.8810  177.1820  137.1650 C   0  0  0  0  0  0  0  0  0  0  0  0
  185.2220  177.7750  137.1310 C   0  0  0  0  0  3  0  0  0  0  0  0
  183.9390  178.5670  139.0750 C   0  0  0  0  0  0  0  0  0  0  0  0
  181.7530  176.7370  137.9410 N   0  0  0  0  0  0  0  0  0  0  0  0
  183.4410  177.9430  140.1510 C   0  0  0  0  0  0  0  0  0  0  0  0
  182.9690  176.5300  140.0610 C   0  0  0  0  0  2  0  0  0  0  0  0
  182.8630  176.9860  135.9220 O   0  0  0  0  0  0  0  0  0  0  0  0
  184.0500  177.8770  137.7650 C   0  0  0  0  0  0  0  0  0  0  0  0
  183.2910  178.6470  141.4590 C   0  0  0  0  0  1  0  0  0  0  0  0
  192.2460  176.8500  139.0210 C   0  0  0  0  0  1  0  0  0  0  0  0
  190.8820  177.2960  139.5230 C   0  0  2  0  0  3  0  0  0  0  0  0
  190.4630  176.3780  140.5690 N   0  0  0  0  0  2  0  0  0  0  0  0
  191.4860  177.5420  142.3200 O   0  0  0  0  0  0  0  0  0  0  0  0
  190.7030  176.6230  141.9580 C   0  0  0  0  0  0  0  0  0  0  0  0
  190.0100  175.7850  142.9760 C   0  0  0  0  0  2  0  0  0  0  0  0
  188.7080  176.4490  143.3860 C   0  0  0  0  0  2  0  0  0  0  0  0
  188.9110  177.3140  144.6200 C   0  0  0  0  0  2  0  0  0  0  0  0
  185.2900  178.4090  144.6630 C   0  0  0  0  0  3  0  0  0  0  0  0
  185.0700  178.6240  146.0260 C   0  0  0  0  0  3  0  0  0  0  0  0
  187.3750  178.0350  146.5030 C   0  0  0  0  0  0  0  0  0  0  0  0
  187.5940  177.8040  145.1290 C   0  0  0  0  0  0  0  0  0  0  0  0
  186.5470  177.9970  144.2190 C   0  0  0  0  0  3  0  0  0  0  0  0
  186.1090  178.4370  146.9430 C   0  0  0  0  0  3  0  0  0  0  0  0
  188.4500  177.8260  147.5180 C   0  0  0  0  0  2  0  0  0  0  0  0
  187.8590  177.6630  148.8360 N   0  0  0  0  0  1  0  0  0  0  0  0
  189.6550  175.9070  137.7950 C   0  0  0  0  0  2  0  0  0  0  0  0
  189.5650  176.4430  135.6590 C   0  0  0  0  0  1  0  0  0  0  0  0
  190.3620  175.7870  136.5980 O   0  0  0  0  0  0  0  0  0  0  0  0
  1 33  1  1  0  0  0
  1  3  1  0  0  0  0
  1 18  1  0  0  0  0
  3  2  2  0  0  0  0
  4  3  1  0  0  0  0
  5  4  1  0  0  0  0
  6 13  1  0  0  0  0
  8 15  1  0  0  0  0
  8 11  1  0  0  0  0
  9  5  1  0  0  0  0
  9 15  2  0  0  0  0
 10  7  1  0  0  0  0
 10 12  2  0  0  0  0
 11  6  2  0  0  0  0
 12 16  1  0  0  0  0
 13 12  1  0  0  0  0
 14  8  2  0  0  0  0
 15 10  1  0  0  0  0
 18 17  1  6  0  0  0
 18 19  1  0  0  0  0
 19 21  1  0  0  0  0
 21 20  2  0  0  0  0
 21 22  1  0  0  0  0
 22 23  1  0  0  0  0
 23 24  1  0  0  0  0
 24 28  1  0  0  0  0
 25 26  1  0  0  0  0
 26 30  2  0  0  0  0
 27 30  1  0  0  0  0
 27 31  1  0  0  0  0
 28 27  2  0  0  0  0
 29 25  2  0  0  0  0
 29 28  1  0  0  0  0
 31 32  1  0  0  0  0
 34 35  1  0  0  0  0
 35 33  1  0  0  0  0
M  END
>  <MODEL>
7

>  <REMARK>
 VINA RESULT:      -7.5      2.149      6.715
  Name = 
  13 active torsions:
  status: ('A' for Active; 'I' for Inactive)
    1  A    between atoms: O_4  and  C_8
    2  A    between atoms: O_4  and  C_24
    3  A    between atoms: C_5  and  C_11
    4  A    between atoms: N_7  and  C_34
    5  A    between atoms: C_8  and  C_30
    6  A    between atoms: C_14  and  C_24
    7  A    between atoms: C_16  and  C_22
    8  A    between atoms: C_17  and  C_18
    9  A    between atoms: C_17  and  C_19
   10  A    between atoms: C_18  and  C_22
   11  A    between atoms: O_28  and  C_35
   12  A    between atoms: C_30  and  C_34
   13  A    between atoms: C_30  and  C_35
                            x       y       z     vdW  Elec       q    Type
                         _______ _______ _______ _____ _____    ______ ____

>  <TORSDO>
F 13

$$$$
=
 OpenBabel10232410493D

 35 36  0  0  1  0  0  0  0  0999 V2000
  189.7950  177.7640  144.0320 C   0  0  1  0  0  3  0  0  0  0  0  0
  188.7280  178.8750  142.2050 O   0  0  0  0  0  0  0  0  0  0  0  0
  189.6840  178.1370  142.5780 C   0  0  0  0  0  0  0  0  0  0  0  0
  190.5880  177.6350  141.6390 O   0  0  0  0  0  0  0  0  0  0  0  0
  190.1850  177.3660  140.3050 C   0  0  0  0  0  2  0  0  0  0  0  0
  191.9250  174.2590  136.2290 C   0  0  0  0  0  3  0  0  0  0  0  0
  189.0540  177.2980  137.4480 N   0  0  0  0  0  1  0  0  0  0  0  0
  192.6080  176.2070  137.5450 C   0  0  0  0  0  0  0  0  0  0  0  0
  191.3600  176.9650  139.4690 C   0  0  0  0  0  3  0  0  0  0  0  0
  190.0230  176.2530  137.5300 C   0  0  0  0  0  0  0  0  0  0  0  0
  192.7240  175.2540  136.4720 N   0  0  0  0  0  0  0  0  0  0  0  0
  189.7480  175.0500  137.0080 C   0  0  0  0  0  0  0  0  0  0  0  0
  190.7440  173.9420  137.0830 C   0  0  0  0  0  2  0  0  0  0  0  0
  193.6480  176.8080  137.9230 O   0  0  0  0  0  0  0  0  0  0  0  0
  191.3160  176.5220  138.2090 C   0  0  0  0  0  0  0  0  0  0  0  0
  188.4650  174.7890  136.2900 C   0  0  0  0  0  1  0  0  0  0  0  0
  188.3070  175.8920  143.2590 C   0  0  0  0  0  1  0  0  0  0  0  0
  188.7030  176.7620  144.4430 C   0  0  2  0  0  3  0  0  0  0  0  0
  187.5160  177.4630  144.9040 N   0  0  0  0  0  2  0  0  0  0  0  0
  187.9290  177.1430  147.1820 O   0  0  0  0  0  0  0  0  0  0  0  0
  187.2510  177.7140  146.2860 C   0  0  0  0  0  0  0  0  0  0  0  0
  186.1700  178.6690  146.6600 C   0  0  0  0  0  2  0  0  0  0  0  0
  184.9450  178.4190  145.7980 C   0  0  0  0  0  2  0  0  0  0  0  0
  184.8650  179.4340  144.6690 C   0  0  0  0  0  2  0  0  0  0  0  0
  181.3360  178.8480  143.4390 C   0  0  0  0  0  3  0  0  0  0  0  0
  181.5440  178.5880  142.0820 C   0  0  0  0  0  3  0  0  0  0  0  0
  183.9390  178.8250  142.3900 C   0  0  0  0  0  0  0  0  0  0  0  0
  183.7290  179.1030  143.7570 C   0  0  0  0  0  0  0  0  0  0  0  0
  182.4260  179.1080  144.2700 C   0  0  0  0  0  3  0  0  0  0  0  0
  182.8410  178.5770  141.5580 C   0  0  0  0  0  3  0  0  0  0  0  0
  185.3050  178.8270  141.7870 C   0  0  0  0  0  2  0  0  0  0  0  0
  185.2580  179.4240  140.4620 N   0  0  0  0  0  1  0  0  0  0  0  0
  191.1910  177.2270  144.3300 C   0  0  0  0  0  2  0  0  0  0  0  0
  191.7560  176.5080  146.3350 C   0  0  0  0  0  1  0  0  0  0  0  0
  191.6070  177.6750  145.5840 O   0  0  0  0  0  0  0  0  0  0  0  0
  1 33  1  6  0  0  0
  1 18  1  0  0  0  0
  2  3  2  0  0  0  0
  3  1  1  0  0  0  0
  4  3  1  0  0  0  0
  5  4  1  0  0  0  0
  6 11  2  0  0  0  0
  6 13  1  0  0  0  0
  7 10  1  0  0  0  0
  8 14  2  0  0  0  0
  8 15  1  0  0  0  0
  9  5  1  0  0  0  0
 10 15  1  0  0  0  0
 11  8  1  0  0  0  0
 12 13  1  0  0  0  0
 12 10  2  0  0  0  0
 15  9  2  0  0  0  0
 16 12  1  0  0  0  0
 18 17  1  6  0  0  0
 18 19  1  0  0  0  0
 19 21  1  0  0  0  0
 21 22  1  0  0  0  0
 21 20  2  0  0  0  0
 23 22  1  0  0  0  0
 24 23  1  0  0  0  0
 25 29  1  0  0  0  0
 26 25  2  0  0  0  0
 27 28  1  0  0  0  0
 28 29  2  0  0  0  0
 28 24  1  0  0  0  0
 30 26  1  0  0  0  0
 30 27  2  0  0  0  0
 31 27  1  0  0  0  0
 32 31  1  0  0  0  0
 33 35  1  0  0  0  0
 35 34  1  0  0  0  0
M  END
>  <MODEL>
8

>  <REMARK>
 VINA RESULT:      -7.5      2.386      6.510
  Name = 
  13 active torsions:
  status: ('A' for Active; 'I' for Inactive)
    1  A    between atoms: O_4  and  C_8
    2  A    between atoms: O_4  and  C_24
    3  A    between atoms: C_5  and  C_11
    4  A    between atoms: N_7  and  C_34
    5  A    between atoms: C_8  and  C_30
    6  A    between atoms: C_14  and  C_24
    7  A    between atoms: C_16  and  C_22
    8  A    between atoms: C_17  and  C_18
    9  A    between atoms: C_17  and  C_19
   10  A    between atoms: C_18  and  C_22
   11  A    between atoms: O_28  and  C_35
   12  A    between atoms: C_30  and  C_34
   13  A    between atoms: C_30  and  C_35
                            x       y       z     vdW  Elec       q    Type
                         _______ _______ _______ _____ _____    ______ ____

>  <TORSDO>
F 13

$$$$
=
 OpenBabel10232410493D

 35 36  0  0  1  0  0  0  0  0999 V2000
  189.7240  177.9760  143.9210 C   0  0  1  0  0  3  0  0  0  0  0  0
  191.2790  177.0150  142.3810 O   0  0  0  0  0  0  0  0  0  0  0  0
  190.1990  177.6540  142.5290 C   0  0  0  0  0  0  0  0  0  0  0  0
  189.4900  178.1000  141.4100 O   0  0  0  0  0  0  0  0  0  0  0  0
  189.8250  177.6520  140.1050 C   0  0  0  0  0  2  0  0  0  0  0  0
  187.9920  177.1740  135.0350 C   0  0  0  0  0  3  0  0  0  0  0  0
  190.3140  175.2900  138.2000 N   0  0  0  0  0  1  0  0  0  0  0  0
  187.1900  177.1190  137.3470 C   0  0  0  0  0  0  0  0  0  0  0  0
  188.6170  177.6560  139.2200 C   0  0  0  0  0  3  0  0  0  0  0  0
  189.6380  176.2940  137.4430 C   0  0  0  0  0  0  0  0  0  0  0  0
  187.0630  176.9730  135.9210 N   0  0  0  0  0  0  0  0  0  0  0  0
  190.0550  176.5820  136.2030 C   0  0  0  0  0  0  0  0  0  0  0  0
  189.3660  177.6280  135.3920 C   0  0  0  0  0  2  0  0  0  0  0  0
  186.1470  177.3320  138.0200 O   0  0  0  0  0  0  0  0  0  0  0  0
  188.4910  177.0090  138.0580 C   0  0  0  0  0  0  0  0  0  0  0  0
  191.1820  175.8370  135.5680 C   0  0  0  0  0  1  0  0  0  0  0  0
  188.3480  175.9630  143.3060 C   0  0  0  0  0  1  0  0  0  0  0  0
  188.6840  176.9530  144.4110 C   0  0  2  0  0  3  0  0  0  0  0  0
  187.4560  177.6250  144.8040 N   0  0  0  0  0  2  0  0  0  0  0  0
  187.7480  177.3160  147.1020 O   0  0  0  0  0  0  0  0  0  0  0  0
  187.1080  177.8700  146.1690 C   0  0  0  0  0  0  0  0  0  0  0  0
  185.9840  178.7970  146.4800 C   0  0  0  0  0  2  0  0  0  0  0  0
  184.7850  178.4590  145.6120 C   0  0  0  0  0  2  0  0  0  0  0  0
  184.6750  179.4290  144.4460 C   0  0  0  0  0  2  0  0  0  0  0  0
  181.0990  178.7870  143.3900 C   0  0  0  0  0  3  0  0  0  0  0  0
  181.2450  178.5210  142.0260 C   0  0  0  0  0  3  0  0  0  0  0  0
  183.6480  178.7930  142.2170 C   0  0  0  0  0  0  0  0  0  0  0  0
  183.5010  179.0760  143.5910 C   0  0  0  0  0  0  0  0  0  0  0  0
  182.2240  179.0670  144.1660 C   0  0  0  0  0  3  0  0  0  0  0  0
  182.5150  178.5250  141.4410 C   0  0  0  0  0  3  0  0  0  0  0  0
  184.9840  178.8100  141.5490 C   0  0  0  0  0  2  0  0  0  0  0  0
  184.8970  179.5370  140.2930 N   0  0  0  0  0  1  0  0  0  0  0  0
  190.9120  178.0690  144.8710 C   0  0  0  0  0  2  0  0  0  0  0  0
  191.7800  176.4370  146.0710 C   0  0  0  0  0  1  0  0  0  0  0  0
  190.6720  177.2820  145.9980 O   0  0  0  0  0  0  0  0  0  0  0  0
  1 18  1  0  0  0  0
  1 33  1  1  0  0  0
  2  3  2  0  0  0  0
  3  1  1  0  0  0  0
  4  3  1  0  0  0  0
  5  4  1  0  0  0  0
  6 13  1  0  0  0  0
  6 11  2  0  0  0  0
  8 14  2  0  0  0  0
  8 15  1  0  0  0  0
  9  5  1  0  0  0  0
 10 15  1  0  0  0  0
 10  7  1  0  0  0  0
 11  8  1  0  0  0  0
 12 10  2  0  0  0  0
 13 12  1  0  0  0  0
 15  9  2  0  0  0  0
 16 12  1  0  0  0  0
 18 17  1  6  0  0  0
 18 19  1  0  0  0  0
 19 21  1  0  0  0  0
 21 22  1  0  0  0  0
 21 20  2  0  0  0  0
 23 22  1  0  0  0  0
 24 23  1  0  0  0  0
 25 29  1  0  0  0  0
 26 25  2  0  0  0  0
 27 28  1  0  0  0  0
 28 29  2  0  0  0  0
 28 24  1  0  0  0  0
 30 26  1  0  0  0  0
 30 27  2  0  0  0  0
 31 27  1  0  0  0  0
 32 31  1  0  0  0  0
 33 35  1  0  0  0  0
 35 34  1  0  0  0  0
M  END
>  <MODEL>
9

>  <REMARK>
 VINA RESULT:      -7.5      1.953      6.827
  Name = 
  13 active torsions:
  status: ('A' for Active; 'I' for Inactive)
    1  A    between atoms: O_4  and  C_8
    2  A    between atoms: O_4  and  C_24
    3  A    between atoms: C_5  and  C_11
    4  A    between atoms: N_7  and  C_34
    5  A    between atoms: C_8  and  C_30
    6  A    between atoms: C_14  and  C_24
    7  A    between atoms: C_16  and  C_22
    8  A    between atoms: C_17  and  C_18
    9  A    between atoms: C_17  and  C_19
   10  A    between atoms: C_18  and  C_22
   11  A    between atoms: O_28  and  C_35
   12  A    between atoms: C_30  and  C_34
   13  A    between atoms: C_30  and  C_35
                            x       y       z     vdW  Elec       q    Type
                         _______ _______ _______ _____ _____    ______ ____

>  <TORSDO>
F 13

$$$$
