=
 OpenBabel10232408033D

 46 48  0  0  1  0  0  0  0  0999 V2000
  187.5530  178.1190  147.1610 C   0  0  0  0  0  0  0  0  0  0  0  0
  187.7140  177.6500  145.8400 C   0  0  0  0  0  3  0  0  0  0  0  0
  185.5850  178.6410  145.2950 C   0  0  0  0  0  0  0  0  0  0  0  0
  184.6760  178.8380  144.1300 C   0  0  0  0  0  3  0  0  0  0  0  0
  185.4230  179.0640  146.6080 C   0  0  0  0  0  3  0  0  0  0  0  0
  186.5870  177.5880  143.5290 C   0  0  0  0  0  0  0  0  0  0  0  0
  186.4060  178.7830  147.5110 N   0  0  0  0  0  0  0  0  0  0  0  0
  186.6960  177.9310  144.9310 C   0  0  1  0  0  3  0  0  0  0  0  0
  185.4420  178.0970  143.0580 C   0  0  0  0  0  0  0  0  0  0  0  0
  189.9050  177.4150  147.8740 N   0  0  0  0  0  2  0  0  0  0  0  0
  188.5810  177.8610  148.1940 C   0  0  0  0  0  0  0  0  0  0  0  0
  188.2810  178.0410  149.4020 O   0  0  0  0  0  0  0  0  0  0  0  0
  191.4820  176.4640  146.2340 C   0  0  0  0  0  0  0  0  0  0  0  0
  192.2410  175.7500  147.2950 C   0  0  0  0  0  1  0  0  0  0  0  0
  190.3660  177.2890  146.5600 N   0  0  0  0  0  2  0  0  0  0  0  0
  191.8320  176.3400  145.0320 O   0  0  0  0  0  0  0  0  0  0  0  0
  187.5200  176.6890  142.7780 C   0  0  0  0  0  2  0  0  0  0  0  0
  189.2380  177.1450  140.9290 C   0  0  2  0  0  3  0  0  0  0  0  0
  188.3990  178.2640  141.1650 O   0  0  0  0  0  0  0  0  0  0  0  0
  189.5550  178.2940  143.2700 C   0  0  0  0  0  1  0  0  0  0  0  0
  188.7230  177.4840  142.2880 C   0  0  1  0  0  0  0  0  0  0  0  0
  190.6350  177.5500  140.7890 N   0  0  0  0  0  2  0  0  0  0  0  0
  191.0760  177.1920  139.5090 N   0  0  0  0  0  2  0  0  0  0  0  0
  190.3630  176.0410  139.1460 N   0  0  0  0  0  2  0  0  0  0  0  0
  191.1950  175.2880  138.3040 N   0  0  0  0  0  2  0  0  0  0  0  0
  192.2330  176.1930  137.8080 C   0  0  0  0  0  2  0  0  0  0  0  0
  193.2120  175.5030  136.9610 N   0  0  0  0  0  0  0  0  0  0  0  0
  192.6690  175.3600  135.6160 C   0  0  0  0  0  1  0  0  0  0  0  0
  193.4610  174.1670  137.4790 C   0  0  0  0  0  1  0  0  0  0  0  0
  185.0160  178.0100  141.6290 C   0  0  1  0  0  3  0  0  0  0  0  0
  183.5580  177.5750  141.5220 C   0  0  0  0  0  2  0  0  0  0  0  0
  181.5710  178.3050  140.9080 C   0  0  0  0  0  1  0  0  0  0  0  0
  182.7110  178.6780  141.6150 O   0  0  0  0  0  0  0  0  0  0  0  0
  185.2350  179.3540  140.9560 C   0  0  0  0  0  2  0  0  0  0  0  0
  185.0280  179.2270  139.4610 C   0  0  0  0  0  2  0  0  0  0  0  0
  186.0750  178.3380  138.8870 C   0  0  0  0  0  3  0  0  0  0  0  0
  186.2910  178.3280  137.5740 C   0  0  0  0  0  3  0  0  0  0  0  0
  187.3280  177.4270  136.9690 C   0  0  2  0  0  3  0  0  0  0  0  0
  189.6030  177.6410  135.9270 O   0  0  0  0  0  0  0  0  0  0  0  0
  188.6120  178.1720  136.7440 C   0  0  0  0  0  0  0  0  0  0  0  0
  188.7950  179.2720  137.3170 O   0  0  0  0  0  1  0  0  0  0  0  0
  186.8020  176.7200  135.7110 C   0  0  2  0  0  3  0  0  0  0  0  0
  186.1720  177.7120  134.7510 C   0  0  0  0  0  1  0  0  0  0  0  0
  185.8470  175.5710  136.0380 C   0  0  0  0  0  2  0  0  0  0  0  0
  187.0960  173.7130  136.7600 O   0  0  0  0  0  0  0  0  0  0  0  0
  186.4210  174.6750  137.0870 C   0  0  0  0  0  3  0  0  0  0  0  0
  1  7  1  0  0  0  0
  1 11  1  0  0  0  0
  2  1  2  0  0  0  0
  3  5  1  0  0  0  0
  4  3  2  0  0  0  0
  5  7  2  0  0  0  0
  6  8  1  0  0  0  0
  8  3  1  0  0  0  0
  8  2  1  6  0  0  0
  9  6  2  0  0  0  0
  9  4  1  0  0  0  0
 10 11  1  0  0  0  0
 11 12  2  0  0  0  0
 13 15  1  0  0  0  0
 13 14  1  0  0  0  0
 15 10  1  0  0  0  0
 16 13  2  0  0  0  0
 17  6  1  0  0  0  0
 18 22  1  1  0  0  0
 18 19  1  0  0  0  0
 18 21  1  0  0  0  0
 19 21  1  0  0  0  0
 21 17  1  0  0  0  0
 21 20  1  1  0  0  0
 23 22  1  0  0  0  0
 24 23  1  0  0  0  0
 25 24  1  0  0  0  0
 26 25  1  0  0  0  0
 27 29  1  0  0  0  0
 27 26  1  0  0  0  0
 28 27  1  0  0  0  0
 30 34  1  1  0  0  0
 30  9  1  0  0  0  0
 31 33  1  0  0  0  0
 31 30  1  0  0  0  0
 32 33  1  0  0  0  0
 35 34  1  0  0  0  0
 36 35  1  0  0  0  0
 37 36  2  0  0  0  0
 38 37  1  6  0  0  0
 39 40  2  0  0  0  0
 40 38  1  0  0  0  0
 40 41  1  0  0  0  0
 42 43  1  6  0  0  0
 42 44  1  0  0  0  0
 42 38  1  0  0  0  0
 44 46  1  0  0  0  0
 45 46  2  0  0  0  0
M  END
>  <MODEL>
1

>  <REMARK>
 VINA RESULT:      -7.2      0.000      0.000
  Name = 
  21 active torsions:
  status: ('A' for Active; 'I' for Inactive)
    1  A    between atoms: C_1  and  C_33
    2  A    between atoms: C_1  and  C_41
    3  A    between atoms: N_2  and  C_4
    4  A    between atoms: C_4  and  N_38
    5  A    between atoms: C_6  and  N_28
    6  A    between atoms: N_8  and  N_16
    7  A    between atoms: C_9  and  C_34
    8  A    between atoms: N_10  and  N_19
    9  A    between atoms: N_10  and  N_38
   10  A    between atoms: C_11  and  C_27
   11  A    between atoms: C_12  and  C_20
   12  A    between atoms: C_12  and  C_21
   13  A    between atoms: C_15  and  C_20
   14  A    between atoms: C_15  and  C_40
   15  A    between atoms: C_15  and  C_42
   16  A    between atoms: N_19  and  N_28
   17  A    between atoms: C_24  and  C_25
   18  A    between atoms: C_24  and  C_27
   19  A    between atoms: C_25  and  C_26
   20  A    between atoms: C_25  and  C_46
   21  A    between atoms: C_26  and  O_45
                            x       y       z     vdW  Elec       q    Type
                         _______ _______ _______ _____ _____    ______ ____

>  <TORSDO>
F 21

$$$$
=
 OpenBabel10232408033D

 46 48  0  0  1  0  0  0  0  0999 V2000
  187.4900  178.0720  147.0630 C   0  0  0  0  0  0  0  0  0  0  0  0
  187.6810  177.6240  145.7390 C   0  0  0  0  0  3  0  0  0  0  0  0
  185.5040  178.5030  145.1930 C   0  0  0  0  0  0  0  0  0  0  0  0
  184.5900  178.6610  144.0260 C   0  0  0  0  0  3  0  0  0  0  0  0
  185.3150  178.9060  146.5090 C   0  0  0  0  0  3  0  0  0  0  0  0
  186.5680  177.5200  143.4230 C   0  0  0  0  0  0  0  0  0  0  0  0
  186.3080  178.6710  147.4140 N   0  0  0  0  0  0  0  0  0  0  0  0
  186.6530  177.8570  144.8280 C   0  0  1  0  0  3  0  0  0  0  0  0
  185.3990  177.9710  142.9520 C   0  0  0  0  0  0  0  0  0  0  0  0
  189.8610  177.4400  147.7840 N   0  0  0  0  0  2  0  0  0  0  0  0
  188.5270  177.8620  148.0980 C   0  0  0  0  0  0  0  0  0  0  0  0
  188.2260  178.0610  149.3040 O   0  0  0  0  0  0  0  0  0  0  0  0
  191.4390  176.4700  146.1570 C   0  0  0  0  0  0  0  0  0  0  0  0
  192.2010  175.7740  147.2280 C   0  0  0  0  0  1  0  0  0  0  0  0
  190.3200  177.2970  146.4710 N   0  0  0  0  0  2  0  0  0  0  0  0
  191.7890  176.3300  144.9560 O   0  0  0  0  0  0  0  0  0  0  0  0
  187.5510  176.6790  142.6680 C   0  0  0  0  0  2  0  0  0  0  0  0
  189.2020  177.2340  140.7860 C   0  0  2  0  0  3  0  0  0  0  0  0
  188.2920  178.2960  141.0280 O   0  0  0  0  0  0  0  0  0  0  0  0
  189.4790  178.4220  143.1120 C   0  0  0  0  0  1  0  0  0  0  0  0
  188.6880  177.5490  142.1520 C   0  0  1  0  0  0  0  0  0  0  0  0
  190.5650  177.7320  140.6180 N   0  0  0  0  0  2  0  0  0  0  0  0
  191.3090  176.7670  139.9280 N   0  0  0  0  0  2  0  0  0  0  0  0
  190.3900  175.9880  139.2120 N   0  0  0  0  0  2  0  0  0  0  0  0
  191.1140  175.2910  138.2320 N   0  0  0  0  0  2  0  0  0  0  0  0
  190.1360  174.6420  137.3580 C   0  0  0  0  0  2  0  0  0  0  0  0
  190.6790  174.3760  136.0220 N   0  0  0  0  0  0  0  0  0  0  0  0
  191.6200  173.2650  136.0970 C   0  0  0  0  0  1  0  0  0  0  0  0
  191.4080  175.5390  135.5420 C   0  0  0  0  0  1  0  0  0  0  0  0
  184.9830  177.8730  141.5200 C   0  0  1  0  0  3  0  0  0  0  0  0
  183.4660  177.7870  141.3990 C   0  0  0  0  0  2  0  0  0  0  0  0
  181.8050  177.1420  140.1020 C   0  0  0  0  0  1  0  0  0  0  0  0
  183.1030  176.8080  140.4750 O   0  0  0  0  0  0  0  0  0  0  0  0
  185.5250  179.0690  140.7550 C   0  0  0  0  0  2  0  0  0  0  0  0
  184.6870  179.3190  139.5190 C   0  0  0  0  0  2  0  0  0  0  0  0
  185.3930  178.7850  138.3220 C   0  0  0  0  0  3  0  0  0  0  0  0
  184.7850  177.9040  137.5310 C   0  0  0  0  0  3  0  0  0  0  0  0
  185.4820  177.3360  136.3290 C   0  0  2  0  0  3  0  0  0  0  0  0
  185.7190  175.2570  137.7160 O   0  0  0  0  0  1  0  0  0  0  0  0
  185.6390  175.8500  136.4610 C   0  0  0  0  0  0  0  0  0  0  0  0
  185.7200  175.1430  135.4280 O   0  0  0  0  0  0  0  0  0  0  0  0
  186.8020  178.0680  136.0390 C   0  0  2  0  0  3  0  0  0  0  0  0
  187.0770  178.1260  134.5480 C   0  0  0  0  0  1  0  0  0  0  0  0
  187.9840  177.4710  136.8060 C   0  0  0  0  0  2  0  0  0  0  0  0
  188.9440  179.3360  137.8690 O   0  0  0  0  0  0  0  0  0  0  0  0
  189.0640  178.4850  137.0050 C   0  0  0  0  0  3  0  0  0  0  0  0
  1  7  1  0  0  0  0
  1 11  1  0  0  0  0
  2  1  2  0  0  0  0
  3  5  1  0  0  0  0
  4  3  2  0  0  0  0
  5  7  2  0  0  0  0
  6  8  1  0  0  0  0
  8  3  1  0  0  0  0
  8  2  1  6  0  0  0
  9  6  2  0  0  0  0
  9  4  1  0  0  0  0
 10 11  1  0  0  0  0
 11 12  2  0  0  0  0
 13 15  1  0  0  0  0
 13 14  1  0  0  0  0
 15 10  1  0  0  0  0
 16 13  2  0  0  0  0
 17  6  1  0  0  0  0
 18 22  1  1  0  0  0
 18 19  1  0  0  0  0
 18 21  1  0  0  0  0
 19 21  1  0  0  0  0
 21 17  1  0  0  0  0
 21 20  1  1  0  0  0
 23 22  1  0  0  0  0
 24 23  1  0  0  0  0
 25 24  1  0  0  0  0
 26 25  1  0  0  0  0
 27 28  1  0  0  0  0
 27 26  1  0  0  0  0
 29 27  1  0  0  0  0
 30 34  1  6  0  0  0
 30  9  1  0  0  0  0
 31 30  1  0  0  0  0
 32 33  1  0  0  0  0
 33 31  1  0  0  0  0
 35 34  1  0  0  0  0
 36 35  1  0  0  0  0
 37 36  2  0  0  0  0
 38 40  1  0  0  0  0
 38 37  1  1  0  0  0
 40 39  1  0  0  0  0
 41 40  2  0  0  0  0
 42 43  1  6  0  0  0
 42 38  1  0  0  0  0
 42 44  1  0  0  0  0
 44 46  1  0  0  0  0
 46 45  2  0  0  0  0
M  END
>  <MODEL>
2

>  <REMARK>
 VINA RESULT:      -6.9      1.043      2.004
  Name = 
  21 active torsions:
  status: ('A' for Active; 'I' for Inactive)
    1  A    between atoms: C_1  and  C_33
    2  A    between atoms: C_1  and  C_41
    3  A    between atoms: N_2  and  C_4
    4  A    between atoms: C_4  and  N_38
    5  A    between atoms: C_6  and  N_28
    6  A    between atoms: N_8  and  N_16
    7  A    between atoms: C_9  and  C_34
    8  A    between atoms: N_10  and  N_19
    9  A    between atoms: N_10  and  N_38
   10  A    between atoms: C_11  and  C_27
   11  A    between atoms: C_12  and  C_20
   12  A    between atoms: C_12  and  C_21
   13  A    between atoms: C_15  and  C_20
   14  A    between atoms: C_15  and  C_40
   15  A    between atoms: C_15  and  C_42
   16  A    between atoms: N_19  and  N_28
   17  A    between atoms: C_24  and  C_25
   18  A    between atoms: C_24  and  C_27
   19  A    between atoms: C_25  and  C_26
   20  A    between atoms: C_25  and  C_46
   21  A    between atoms: C_26  and  O_45
                            x       y       z     vdW  Elec       q    Type
                         _______ _______ _______ _____ _____    ______ ____

>  <TORSDO>
F 21

$$$$
=
 OpenBabel10232408033D

 46 48  0  0  1  0  0  0  0  0999 V2000
  185.1260  177.4510  137.5220 C   0  0  0  0  0  0  0  0  0  0  0  0
  185.7450  178.0070  138.6620 C   0  0  0  0  0  2  0  0  0  0  0  0
  183.6160  177.9100  139.7880 C   0  0  0  0  0  0  0  0  0  0  0  0
  183.0070  178.2040  141.1170 C   0  0  0  0  0  3  0  0  0  0  0  0
  183.0130  177.3980  138.6470 C   0  0  0  0  0  3  0  0  0  0  0  0
  185.2980  178.7730  141.0750 C   0  0  0  0  0  0  0  0  0  0  0  0
  183.7810  177.1910  137.5390 N   0  0  0  0  0  0  0  0  0  0  0  0
  184.9470  178.2280  139.7820 C   0  0  0  0  0  0  0  0  0  0  0  0
  184.2040  178.7670  141.8470 C   0  0  0  0  0  0  0  0  0  0  0  0
  186.6420  175.9830  136.0780 N   0  0  0  0  0  2  0  0  0  0  0  0
  185.8960  177.1900  136.2860 C   0  0  0  0  0  0  0  0  0  0  0  0
  185.8970  178.0610  135.3780 O   0  0  0  0  0  0  0  0  0  0  0  0
  185.6740  173.8500  136.8490 C   0  0  0  0  0  0  0  0  0  0  0  0
  184.6390  173.8710  135.7820 C   0  0  0  0  0  1  0  0  0  0  0  0
  186.6170  174.9130  136.9780 N   0  0  0  0  0  2  0  0  0  0  0  0
  185.7190  172.8810  137.6500 O   0  0  0  0  0  0  0  0  0  0  0  0
  186.6200  179.3800  141.4340 C   0  0  0  0  0  2  0  0  0  0  0  0
  188.6690  178.4160  140.2310 C   0  0  2  0  0  3  0  0  0  0  0  0
  188.9870  178.8890  141.5310 O   0  0  0  0  0  0  0  0  0  0  0  0
  187.5920  177.0510  142.2000 C   0  0  0  0  0  1  0  0  0  0  0  0
  187.7110  178.3200  141.3720 C   0  0  1  0  0  0  0  0  0  0  0  0
  189.2940  177.1220  139.9700 N   0  0  0  0  0  2  0  0  0  0  0  0
  189.0730  176.7840  138.6290 N   0  0  0  0  0  2  0  0  0  0  0  0
  190.3290  176.7610  138.0090 N   0  0  0  0  0  2  0  0  0  0  0  0
  190.9030  175.5100  138.2840 N   0  0  0  0  0  2  0  0  0  0  0  0
  192.3300  175.6170  137.9790 C   0  0  0  0  0  2  0  0  0  0  0  0
  192.5760  175.8290  136.5490 N   0  0  0  0  0  0  0  0  0  0  0  0
  192.3260  174.5870  135.8280 C   0  0  0  0  0  1  0  0  0  0  0  0
  193.9680  176.1900  136.3330 C   0  0  0  0  0  1  0  0  0  0  0  0
  184.1920  179.1910  143.2800 C   0  0  1  0  0  3  0  0  0  0  0  0
  182.7980  179.6450  143.7000 C   0  0  0  0  0  2  0  0  0  0  0  0
  180.8190  178.7160  143.9780 C   0  0  0  0  0  1  0  0  0  0  0  0
  182.1430  178.6300  144.3970 O   0  0  0  0  0  0  0  0  0  0  0  0
  184.6770  178.0420  144.1490 C   0  0  0  0  0  2  0  0  0  0  0  0
  185.6530  178.5530  145.1880 C   0  0  0  0  0  2  0  0  0  0  0  0
  186.7700  177.5820  145.3420 C   0  0  0  0  0  3  0  0  0  0  0  0
  187.9910  178.0170  145.6460 C   0  0  0  0  0  3  0  0  0  0  0  0
  189.1390  177.0590  145.7880 C   0  0  2  0  0  3  0  0  0  0  0  0
  190.6900  176.2870  147.6050 O   0  0  0  0  0  0  0  0  0  0  0  0
  189.4710  176.8430  147.2360 C   0  0  0  0  0  0  0  0  0  0  0  0
  188.6300  177.1480  148.1150 O   0  0  0  0  0  1  0  0  0  0  0  0
  190.3450  177.4890  144.9400 C   0  0  2  0  0  3  0  0  0  0  0  0
  190.1960  178.9220  144.4660 C   0  0  0  0  0  1  0  0  0  0  0  0
  190.6130  176.5360  143.7740 C   0  0  0  0  0  2  0  0  0  0  0  0
  191.8460  177.1960  141.8840 O   0  0  0  0  0  0  0  0  0  0  0  0
  191.8780  176.8930  143.0650 C   0  0  0  0  0  3  0  0  0  0  0  0
  1  7  2  0  0  0  0
  1  2  1  0  0  0  0
  2  8  1  0  0  0  0
  3  4  1  0  0  0  0
  4  9  2  0  0  0  0
  5  3  2  0  0  0  0
  6 17  1  0  0  0  0
  6  9  1  0  0  0  0
  7  5  1  0  0  0  0
  8  3  1  0  0  0  0
  8  6  2  0  0  0  0
  9 30  1  0  0  0  0
 10 11  1  0  0  0  0
 10 15  1  0  0  0  0
 11  1  1  0  0  0  0
 12 11  2  0  0  0  0
 13 15  1  0  0  0  0
 13 16  2  0  0  0  0
 14 13  1  0  0  0  0
 18 22  1  1  0  0  0
 18 21  1  0  0  0  0
 18 19  1  0  0  0  0
 21 17  1  0  0  0  0
 21 19  1  0  0  0  0
 21 20  1  1  0  0  0
 23 22  1  0  0  0  0
 24 25  1  0  0  0  0
 24 23  1  0  0  0  0
 26 25  1  0  0  0  0
 27 26  1  0  0  0  0
 28 27  1  0  0  0  0
 29 27  1  0  0  0  0
 30 31  1  1  0  0  0
 30 34  1  0  0  0  0
 31 33  1  0  0  0  0
 32 33  1  0  0  0  0
 34 35  1  0  0  0  0
 35 36  1  0  0  0  0
 36 37  2  0  0  0  0
 38 37  1  1  0  0  0
 38 40  1  0  0  0  0
 40 39  2  0  0  0  0
 40 41  1  0  0  0  0
 42 43  1  6  0  0  0
 42 38  1  0  0  0  0
 44 42  1  0  0  0  0
 45 46  2  0  0  0  0
 46 44  1  0  0  0  0
M  END
>  <MODEL>
3

>  <REMARK>
 VINA RESULT:      -6.6      2.546      7.481
  Name = 
  21 active torsions:
  status: ('A' for Active; 'I' for Inactive)
    1  A    between atoms: C_1  and  C_33
    2  A    between atoms: C_1  and  C_41
    3  A    between atoms: N_2  and  C_4
    4  A    between atoms: C_4  and  N_38
    5  A    between atoms: C_6  and  N_28
    6  A    between atoms: N_8  and  N_16
    7  A    between atoms: C_9  and  C_34
    8  A    between atoms: N_10  and  N_19
    9  A    between atoms: N_10  and  N_38
   10  A    between atoms: C_11  and  C_27
   11  A    between atoms: C_12  and  C_20
   12  A    between atoms: C_12  and  C_21
   13  A    between atoms: C_15  and  C_20
   14  A    between atoms: C_15  and  C_40
   15  A    between atoms: C_15  and  C_42
   16  A    between atoms: N_19  and  N_28
   17  A    between atoms: C_24  and  C_25
   18  A    between atoms: C_24  and  C_27
   19  A    between atoms: C_25  and  C_26
   20  A    between atoms: C_25  and  C_46
   21  A    between atoms: C_26  and  O_45
                            x       y       z     vdW  Elec       q    Type
                         _______ _______ _______ _____ _____    ______ ____

>  <TORSDO>
F 21

$$$$
=
 OpenBabel10232408033D

 46 48  0  0  1  0  0  0  0  0999 V2000
  189.4100  177.1290  146.7840 C   0  0  0  0  0  0  0  0  0  0  0  0
  188.8190  177.0320  145.5070 C   0  0  0  0  0  3  0  0  0  0  0  0
  186.8970  178.1980  146.3760 C   0  0  0  0  0  0  0  0  0  0  0  0
  185.5790  178.7310  145.9270 C   0  0  0  0  0  2  0  0  0  0  0  0
  187.4760  178.2540  147.6370 C   0  0  0  0  0  3  0  0  0  0  0  0
  186.7070  177.6320  144.1680 C   0  0  0  0  0  0  0  0  0  0  0  0
  188.7140  177.7080  147.8130 N   0  0  0  0  0  0  0  0  0  0  0  0
  187.5480  177.5790  145.3440 C   0  0  0  0  0  0  0  0  0  0  0  0
  185.5810  178.2850  144.4840 C   0  0  0  0  0  0  0  0  0  0  0  0
  191.9190  176.9730  146.3160 N   0  0  0  0  0  2  0  0  0  0  0  0
  190.7540  176.5700  147.0480 C   0  0  0  0  0  0  0  0  0  0  0  0
  190.8820  175.7050  147.9530 O   0  0  0  0  0  0  0  0  0  0  0  0
  191.7380  177.7320  143.9770 C   0  0  0  0  0  0  0  0  0  0  0  0
  191.6450  176.3370  143.4730 C   0  0  0  0  0  1  0  0  0  0  0  0
  191.9000  178.0010  145.3680 N   0  0  0  0  0  2  0  0  0  0  0  0
  191.6750  178.6910  143.1640 O   0  0  0  0  0  0  0  0  0  0  0  0
  186.9840  176.9420  142.8680 C   0  0  0  0  0  2  0  0  0  0  0  0
  188.7830  176.9700  141.0400 C   0  0  2  0  0  3  0  0  0  0  0  0
  187.6770  177.7980  140.7140 O   0  0  0  0  0  0  0  0  0  0  0  0
  188.4920  179.0850  142.5700 C   0  0  0  0  0  1  0  0  0  0  0  0
  188.0200  177.7280  142.0750 C   0  0  1  0  0  0  0  0  0  0  0  0
  190.0490  177.6350  140.7410 N   0  0  0  0  0  2  0  0  0  0  0  0
  190.7380  176.8710  139.7900 N   0  0  0  0  0  2  0  0  0  0  0  0
  190.6360  177.5590  138.5730 N   0  0  0  0  0  2  0  0  0  0  0  0
  190.3960  176.6010  137.5760 N   0  0  0  0  0  2  0  0  0  0  0  0
  191.2290  175.4390  137.8900 C   0  0  0  0  0  2  0  0  0  0  0  0
  192.4880  175.4410  137.1400 N   0  0  0  0  0  0  0  0  0  0  0  0
  192.2000  175.5630  135.7160 C   0  0  0  0  0  1  0  0  0  0  0  0
  193.1880  174.1820  137.3410 C   0  0  0  0  0  1  0  0  0  0  0  0
  184.4980  178.6010  143.5040 C   0  0  1  0  0  3  0  0  0  0  0  0
  183.3730  179.3830  144.1720 C   0  0  0  0  0  2  0  0  0  0  0  0
  181.3560  178.9660  143.3870 C   0  0  0  0  0  1  0  0  0  0  0  0
  182.2590  178.5680  144.3670 O   0  0  0  0  0  0  0  0  0  0  0  0
  185.0860  179.3780  142.3380 C   0  0  0  0  0  2  0  0  0  0  0  0
  184.1510  179.3150  141.1480 C   0  0  0  0  0  2  0  0  0  0  0  0
  184.6120  178.2570  140.2080 C   0  0  0  0  0  3  0  0  0  0  0  0
  184.4860  178.4340  138.8950 C   0  0  0  0  0  3  0  0  0  0  0  0
  184.9260  177.3740  137.9270 C   0  0  2  0  0  3  0  0  0  0  0  0
  186.8910  178.8280  137.3530 O   0  0  0  0  0  0  0  0  0  0  0  0
  186.3710  177.5570  137.5630 C   0  0  0  0  0  0  0  0  0  0  0  0
  187.1060  176.5490  137.4270 O   0  0  0  0  0  1  0  0  0  0  0  0
  183.9940  177.2940  136.7090 C   0  0  2  0  0  3  0  0  0  0  0  0
  182.6330  177.8870  137.0250 C   0  0  0  0  0  1  0  0  0  0  0  0
  183.8730  175.8740  136.1540 C   0  0  0  0  0  2  0  0  0  0  0  0
  185.3390  174.6900  134.7470 O   0  0  0  0  0  0  0  0  0  0  0  0
  184.6890  175.7080  134.9130 C   0  0  0  0  0  3  0  0  0  0  0  0
  1 11  1  0  0  0  0
  1  7  1  0  0  0  0
  2  1  2  0  0  0  0
  3  5  1  0  0  0  0
  4  3  1  0  0  0  0
  5  7  2  0  0  0  0
  6  9  2  0  0  0  0
  6  8  1  0  0  0  0
  8  2  1  0  0  0  0
  8  3  2  0  0  0  0
  9  4  1  0  0  0  0
 10 11  1  0  0  0  0
 11 12  2  0  0  0  0
 13 15  1  0  0  0  0
 14 13  1  0  0  0  0
 15 10  1  0  0  0  0
 16 13  2  0  0  0  0
 17  6  1  0  0  0  0
 18 22  1  6  0  0  0
 18 21  1  0  0  0  0
 19 18  1  0  0  0  0
 19 21  1  0  0  0  0
 21 20  1  1  0  0  0
 21 17  1  0  0  0  0
 23 22  1  0  0  0  0
 24 23  1  0  0  0  0
 25 26  1  0  0  0  0
 25 24  1  0  0  0  0
 27 29  1  0  0  0  0
 27 26  1  0  0  0  0
 28 27  1  0  0  0  0
 30 34  1  6  0  0  0
 30 31  1  0  0  0  0
 30  9  1  0  0  0  0
 31 33  1  0  0  0  0
 32 33  1  0  0  0  0
 35 34  1  0  0  0  0
 36 35  1  0  0  0  0
 37 36  2  0  0  0  0
 38 37  1  1  0  0  0
 39 40  2  0  0  0  0
 40 38  1  0  0  0  0
 41 40  1  0  0  0  0
 42 43  1  1  0  0  0
 42 38  1  0  0  0  0
 44 42  1  0  0  0  0
 45 46  2  0  0  0  0
 46 44  1  0  0  0  0
M  END
>  <MODEL>
4

>  <REMARK>
 VINA RESULT:      -6.4      1.714      2.244
  Name = 
  21 active torsions:
  status: ('A' for Active; 'I' for Inactive)
    1  A    between atoms: C_1  and  C_33
    2  A    between atoms: C_1  and  C_41
    3  A    between atoms: N_2  and  C_4
    4  A    between atoms: C_4  and  N_38
    5  A    between atoms: C_6  and  N_28
    6  A    between atoms: N_8  and  N_16
    7  A    between atoms: C_9  and  C_34
    8  A    between atoms: N_10  and  N_19
    9  A    between atoms: N_10  and  N_38
   10  A    between atoms: C_11  and  C_27
   11  A    between atoms: C_12  and  C_20
   12  A    between atoms: C_12  and  C_21
   13  A    between atoms: C_15  and  C_20
   14  A    between atoms: C_15  and  C_40
   15  A    between atoms: C_15  and  C_42
   16  A    between atoms: N_19  and  N_28
   17  A    between atoms: C_24  and  C_25
   18  A    between atoms: C_24  and  C_27
   19  A    between atoms: C_25  and  C_26
   20  A    between atoms: C_25  and  C_46
   21  A    between atoms: C_26  and  O_45
                            x       y       z     vdW  Elec       q    Type
                         _______ _______ _______ _____ _____    ______ ____

>  <TORSDO>
F 21

$$$$
=
 OpenBabel10232408033D

 46 48  0  0  1  0  0  0  0  0999 V2000
  189.5370  177.5200  139.6000 C   0  0  0  0  0  0  0  0  0  0  0  0
  188.5200  178.1090  140.3820 C   0  0  0  0  0  2  0  0  0  0  0  0
  187.0040  177.7940  138.5340 C   0  0  0  0  0  0  0  0  0  0  0  0
  185.5720  178.0050  138.1770 C   0  0  0  0  0  3  0  0  0  0  0  0
  188.0240  177.2500  137.7640 C   0  0  0  0  0  3  0  0  0  0  0  0
  186.0390  178.7840  140.3560 C   0  0  0  0  0  0  0  0  0  0  0  0
  189.2680  177.1370  138.3120 N   0  0  0  0  0  0  0  0  0  0  0  0
  187.2580  178.2330  139.8050 C   0  0  0  0  0  0  0  0  0  0  0  0
  185.0690  178.6620  139.4410 C   0  0  0  0  0  0  0  0  0  0  0  0
  191.2130  177.4280  141.5300 N   0  0  0  0  0  2  0  0  0  0  0  0
  190.9080  177.3540  140.1300 C   0  0  0  0  0  0  0  0  0  0  0  0
  191.8470  177.1400  139.3200 O   0  0  0  0  0  0  0  0  0  0  0  0
  190.4460  178.3190  143.6970 C   0  0  0  0  0  0  0  0  0  0  0  0
  191.7600  178.9630  143.9600 C   0  0  0  0  0  1  0  0  0  0  0  0
  190.2270  177.5540  142.5130 N   0  0  0  0  0  2  0  0  0  0  0  0
  189.5140  178.4490  144.5320 O   0  0  0  0  0  0  0  0  0  0  0  0
  185.9230  179.5030  141.6650 C   0  0  0  0  0  2  0  0  0  0  0  0
  184.6250  178.8690  143.7840 C   0  0  2  0  0  3  0  0  0  0  0  0
  184.3730  177.9700  142.7150 O   0  0  0  0  0  0  0  0  0  0  0  0
  186.6800  177.3990  143.0640 C   0  0  0  0  0  1  0  0  0  0  0  0
  185.6720  178.5030  142.7850 C   0  0  1  0  0  0  0  0  0  0  0  0
  184.8360  178.1530  145.0400 N   0  0  0  0  0  2  0  0  0  0  0  0
  184.3850  178.9600  146.0930 N   0  0  0  0  0  2  0  0  0  0  0  0
  185.4890  179.1850  146.9270 N   0  0  0  0  0  2  0  0  0  0  0  0
  186.5710  178.4780  146.3800 N   0  0  0  0  0  2  0  0  0  0  0  0
  187.1620  177.6930  147.4640 C   0  0  0  0  0  2  0  0  0  0  0  0
  188.6020  177.9350  147.6020 N   0  0  0  0  0  0  0  0  0  0  0  0
  189.3240  176.6960  147.3440 C   0  0  0  0  0  1  0  0  0  0  0  0
  188.9080  178.3490  148.9620 C   0  0  0  0  0  1  0  0  0  0  0  0
  183.6470  179.0550  139.6750 C   0  0  1  0  0  3  0  0  0  0  0  0
  183.1120  179.8800  138.5100 C   0  0  0  0  0  2  0  0  0  0  0  0
  181.7310  181.5960  138.4270 C   0  0  0  0  0  1  0  0  0  0  0  0
  182.9950  181.2210  138.8730 O   0  0  0  0  0  0  0  0  0  0  0  0
  182.8090  177.8060  139.8910 C   0  0  0  0  0  2  0  0  0  0  0  0
  181.8530  177.6140  138.7310 C   0  0  0  0  0  2  0  0  0  0  0  0
  182.2720  176.4310  137.9310 C   0  0  0  0  0  3  0  0  0  0  0  0
  183.0320  175.4890  138.4850 C   0  0  0  0  0  3  0  0  0  0  0  0
  183.4830  174.2960  137.6940 C   0  0  2  0  0  3  0  0  0  0  0  0
  184.8790  175.4520  135.9560 O   0  0  0  0  0  0  0  0  0  0  0  0
  184.7990  174.5700  137.0270 C   0  0  0  0  0  0  0  0  0  0  0  0
  185.8300  173.9780  137.4290 O   0  0  0  0  0  1  0  0  0  0  0  0
  182.3940  173.8140  136.7230 C   0  0  2  0  0  3  0  0  0  0  0  0
  181.1640  173.3420  137.4750 C   0  0  0  0  0  1  0  0  0  0  0  0
  182.9040  172.7460  135.7530 C   0  0  0  0  0  2  0  0  0  0  0  0
  182.2630  170.4840  135.8220 O   0  0  0  0  0  0  0  0  0  0  0  0
  182.8660  171.3890  136.3760 C   0  0  0  0  0  3  0  0  0  0  0  0
  1 11  1  0  0  0  0
  1  2  1  0  0  0  0
  3  8  1  0  0  0  0
  4  3  1  0  0  0  0
  4  9  2  0  0  0  0
  5  7  1  0  0  0  0
  5  3  2  0  0  0  0
  6 17  1  0  0  0  0
  7  1  2  0  0  0  0
  8  6  2  0  0  0  0
  8  2  1  0  0  0  0
  9 30  1  0  0  0  0
  9  6  1  0  0  0  0
 10 15  1  0  0  0  0
 11 10  1  0  0  0  0
 12 11  2  0  0  0  0
 13 14  1  0  0  0  0
 13 16  2  0  0  0  0
 15 13  1  0  0  0  0
 17 21  1  0  0  0  0
 18 22  1  1  0  0  0
 19 21  1  0  0  0  0
 19 18  1  0  0  0  0
 21 20  1  1  0  0  0
 21 18  1  0  0  0  0
 22 23  1  0  0  0  0
 23 24  1  0  0  0  0
 25 24  1  0  0  0  0
 25 26  1  0  0  0  0
 26 27  1  0  0  0  0
 27 29  1  0  0  0  0
 28 27  1  0  0  0  0
 30 31  1  6  0  0  0
 30 34  1  0  0  0  0
 31 33  1  0  0  0  0
 32 33  1  0  0  0  0
 35 34  1  0  0  0  0
 36 37  2  0  0  0  0
 36 35  1  0  0  0  0
 38 37  1  6  0  0  0
 39 40  2  0  0  0  0
 40 41  1  0  0  0  0
 40 38  1  0  0  0  0
 42 43  1  1  0  0  0
 42 38  1  0  0  0  0
 44 46  1  0  0  0  0
 44 42  1  0  0  0  0
 45 46  2  0  0  0  0
M  END
>  <MODEL>
5

>  <REMARK>
 VINA RESULT:      -6.0      2.554      6.733
  Name = 
  21 active torsions:
  status: ('A' for Active; 'I' for Inactive)
    1  A    between atoms: C_1  and  C_33
    2  A    between atoms: C_1  and  C_41
    3  A    between atoms: N_2  and  C_4
    4  A    between atoms: C_4  and  N_38
    5  A    between atoms: C_6  and  N_28
    6  A    between atoms: N_8  and  N_16
    7  A    between atoms: C_9  and  C_34
    8  A    between atoms: N_10  and  N_19
    9  A    between atoms: N_10  and  N_38
   10  A    between atoms: C_11  and  C_27
   11  A    between atoms: C_12  and  C_20
   12  A    between atoms: C_12  and  C_21
   13  A    between atoms: C_15  and  C_20
   14  A    between atoms: C_15  and  C_40
   15  A    between atoms: C_15  and  C_42
   16  A    between atoms: N_19  and  N_28
   17  A    between atoms: C_24  and  C_25
   18  A    between atoms: C_24  and  C_27
   19  A    between atoms: C_25  and  C_26
   20  A    between atoms: C_25  and  C_46
   21  A    between atoms: C_26  and  O_45
                            x       y       z     vdW  Elec       q    Type
                         _______ _______ _______ _____ _____    ______ ____

>  <TORSDO>
F 21

$$$$
=
 OpenBabel10232408033D

 46 48  0  0  1  0  0  0  0  0999 V2000
  189.3520  177.5220  143.0100 C   0  0  0  0  0  0  0  0  0  0  0  0
  189.1510  177.0510  141.6960 C   0  0  0  0  0  3  0  0  0  0  0  0
  191.5040  177.3770  141.2870 C   0  0  0  0  0  0  0  0  0  0  0  0
  192.5190  177.1830  140.2120 C   0  0  0  0  0  3  0  0  0  0  0  0
  191.6800  177.8730  142.5720 C   0  0  0  0  0  3  0  0  0  0  0  0
  190.3620  176.5620  139.4800 C   0  0  0  0  0  0  0  0  0  0  0  0
  190.5970  177.9440  143.3980 N   0  0  0  0  0  0  0  0  0  0  0  0
  190.2620  176.9980  140.8560 C   0  0  1  0  0  3  0  0  0  0  0  0
  191.6410  176.6610  139.0980 C   0  0  0  0  0  0  0  0  0  0  0  0
  188.3660  177.3060  145.3600 N   0  0  0  0  0  2  0  0  0  0  0  0
  188.2270  177.6180  143.9670 C   0  0  0  0  0  0  0  0  0  0  0  0
  187.1020  177.9890  143.5430 O   0  0  0  0  0  0  0  0  0  0  0  0
  189.8700  177.2850  147.3140 C   0  0  0  0  0  0  0  0  0  0  0  0
  188.8750  178.0000  148.1570 C   0  0  0  0  0  1  0  0  0  0  0  0
  189.5960  176.9890  145.9460 N   0  0  0  0  0  2  0  0  0  0  0  0
  190.9710  176.9380  147.8150 O   0  0  0  0  0  0  0  0  0  0  0  0
  189.2080  176.2070  138.5940 C   0  0  0  0  0  2  0  0  0  0  0  0
  187.3620  177.9870  138.6550 C   0  0  2  0  0  3  0  0  0  0  0  0
  188.6430  178.5370  138.9190 O   0  0  0  0  0  0  0  0  0  0  0  0
  189.0240  177.9490  136.6220 C   0  0  0  0  0  1  0  0  0  0  0  0
  188.6020  177.4720  138.0020 C   0  0  1  0  0  0  0  0  0  0  0  0
  186.6030  178.8280  137.7340 N   0  0  0  0  0  2  0  0  0  0  0  0
  185.2660  178.8520  138.1520 N   0  0  0  0  0  2  0  0  0  0  0  0
  185.2640  179.3540  139.4600 N   0  0  0  0  0  2  0  0  0  0  0  0
  184.2030  178.7360  140.1390 N   0  0  0  0  0  2  0  0  0  0  0  0
  182.9670  179.3410  139.6430 C   0  0  0  0  0  2  0  0  0  0  0  0
  181.8710  178.3700  139.5530 N   0  0  0  0  0  0  0  0  0  0  0  0
  181.7550  177.9020  138.1780 C   0  0  0  0  0  1  0  0  0  0  0  0
  180.6130  179.0070  139.9090 C   0  0  0  0  0  1  0  0  0  0  0  0
  192.1480  176.2330  137.7590 C   0  0  1  0  0  3  0  0  0  0  0  0
  193.4160  176.9940  137.3890 C   0  0  0  0  0  2  0  0  0  0  0  0
  194.5970  176.6110  135.5680 C   0  0  0  0  0  1  0  0  0  0  0  0
  194.3670  176.1270  136.8520 O   0  0  0  0  0  0  0  0  0  0  0  0
  192.3940  174.7330  137.7710 C   0  0  0  0  0  2  0  0  0  0  0  0
  191.7540  174.0920  136.5570 C   0  0  0  0  0  2  0  0  0  0  0  0
  192.7800  173.3230  135.8020 C   0  0  0  0  0  3  0  0  0  0  0  0
  193.8100  172.7800  136.4450 C   0  0  0  0  0  3  0  0  0  0  0  0
  194.8680  172.0150  135.7030 C   0  0  2  0  0  3  0  0  0  0  0  0
  193.5560  170.0310  136.5080 O   0  0  0  0  0  1  0  0  0  0  0  0
  194.5420  170.5500  135.6770 C   0  0  0  0  0  0  0  0  0  0  0  0
  195.1820  169.7890  134.9130 O   0  0  0  0  0  0  0  0  0  0  0  0
  196.2730  172.3200  136.2430 C   0  0  2  0  0  3  0  0  0  0  0  0
  196.3080  172.2260  137.7570 C   0  0  0  0  0  1  0  0  0  0  0  0
  196.8130  173.6640  135.7510 C   0  0  0  0  0  2  0  0  0  0  0  0
  197.6850  175.4620  136.9910 O   0  0  0  0  0  0  0  0  0  0  0  0
  197.7460  174.2680  136.7490 C   0  0  0  0  0  3  0  0  0  0  0  0
  1  7  1  0  0  0  0
  1 11  1  0  0  0  0
  2  1  2  0  0  0  0
  3  5  1  0  0  0  0
  4  3  2  0  0  0  0
  5  7  2  0  0  0  0
  6  8  1  0  0  0  0
  8  3  1  0  0  0  0
  8  2  1  1  0  0  0
  9  6  2  0  0  0  0
  9  4  1  0  0  0  0
 10 15  1  0  0  0  0
 11 10  1  0  0  0  0
 12 11  2  0  0  0  0
 13 16  2  0  0  0  0
 13 14  1  0  0  0  0
 15 13  1  0  0  0  0
 17  6  1  0  0  0  0
 18 22  1  6  0  0  0
 18 19  1  0  0  0  0
 21 20  1  6  0  0  0
 21 17  1  0  0  0  0
 21 18  1  0  0  0  0
 21 19  1  0  0  0  0
 22 23  1  0  0  0  0
 23 24  1  0  0  0  0
 24 25  1  0  0  0  0
 26 25  1  0  0  0  0
 27 26  1  0  0  0  0
 27 29  1  0  0  0  0
 28 27  1  0  0  0  0
 30 31  1  1  0  0  0
 30 34  1  0  0  0  0
 30  9  1  0  0  0  0
 32 33  1  0  0  0  0
 33 31  1  0  0  0  0
 35 34  1  0  0  0  0
 36 37  2  0  0  0  0
 36 35  1  0  0  0  0
 38 42  1  0  0  0  0
 38 37  1  1  0  0  0
 40 38  1  0  0  0  0
 40 39  1  0  0  0  0
 41 40  2  0  0  0  0
 42 43  1  1  0  0  0
 44 42  1  0  0  0  0
 44 46  1  0  0  0  0
 46 45  2  0  0  0  0
M  END
>  <MODEL>
6

>  <REMARK>
 VINA RESULT:      -5.9      3.742      8.345
  Name = 
  21 active torsions:
  status: ('A' for Active; 'I' for Inactive)
    1  A    between atoms: C_1  and  C_33
    2  A    between atoms: C_1  and  C_41
    3  A    between atoms: N_2  and  C_4
    4  A    between atoms: C_4  and  N_38
    5  A    between atoms: C_6  and  N_28
    6  A    between atoms: N_8  and  N_16
    7  A    between atoms: C_9  and  C_34
    8  A    between atoms: N_10  and  N_19
    9  A    between atoms: N_10  and  N_38
   10  A    between atoms: C_11  and  C_27
   11  A    between atoms: C_12  and  C_20
   12  A    between atoms: C_12  and  C_21
   13  A    between atoms: C_15  and  C_20
   14  A    between atoms: C_15  and  C_40
   15  A    between atoms: C_15  and  C_42
   16  A    between atoms: N_19  and  N_28
   17  A    between atoms: C_24  and  C_25
   18  A    between atoms: C_24  and  C_27
   19  A    between atoms: C_25  and  C_26
   20  A    between atoms: C_25  and  C_46
   21  A    between atoms: C_26  and  O_45
                            x       y       z     vdW  Elec       q    Type
                         _______ _______ _______ _____ _____    ______ ____

>  <TORSDO>
F 21

$$$$
=
 OpenBabel10232408033D

 46 48  0  0  1  0  0  0  0  0999 V2000
  182.5400  178.9910  138.7310 C   0  0  0  0  0  0  0  0  0  0  0  0
  183.6830  178.6200  137.9910 C   0  0  0  0  0  3  0  0  0  0  0  0
  184.9460  178.6560  140.0450 C   0  0  0  0  0  0  0  0  0  0  0  0
  186.3220  178.3870  140.5500 C   0  0  0  0  0  2  0  0  0  0  0  0
  183.8200  179.0570  140.7530 C   0  0  0  0  0  3  0  0  0  0  0  0
  186.1910  178.0940  138.2100 C   0  0  0  0  0  0  0  0  0  0  0  0
  182.6480  179.2250  140.0770 N   0  0  0  0  0  0  0  0  0  0  0  0
  184.8780  178.4660  138.6920 C   0  0  0  0  0  0  0  0  0  0  0  0
  187.0250  178.0450  139.2560 C   0  0  0  0  0  0  0  0  0  0  0  0
  180.6680  180.4790  137.8240 N   0  0  0  0  0  2  0  0  0  0  0  0
  181.2310  179.1830  138.0680 C   0  0  0  0  0  0  0  0  0  0  0  0
  180.5840  178.1670  137.7030 O   0  0  0  0  0  0  0  0  0  0  0  0
  181.1450  182.8450  137.3210 C   0  0  0  0  0  0  0  0  0  0  0  0
  180.2250  182.8400  136.1530 C   0  0  0  0  0  1  0  0  0  0  0  0
  181.3570  181.6660  138.0940 N   0  0  0  0  0  2  0  0  0  0  0  0
  181.7480  183.9060  137.6300 O   0  0  0  0  0  0  0  0  0  0  0  0
  186.5800  177.9410  136.7720 C   0  0  0  0  0  2  0  0  0  0  0  0
  185.3260  176.5000  135.0620 C   0  0  2  0  0  3  0  0  0  0  0  0
  186.7300  176.2990  135.0020 O   0  0  0  0  0  0  0  0  0  0  0  0
  186.3710  175.3430  137.1760 C   0  0  0  0  0  1  0  0  0  0  0  0
  186.1930  176.5550  136.2750 C   0  0  1  0  0  0  0  0  0  0  0  0
  184.6060  175.2300  134.9980 N   0  0  0  0  0  2  0  0  0  0  0  0
  183.2510  175.4990  134.7680 N   0  0  0  0  0  2  0  0  0  0  0  0
  182.5890  174.2630  134.7780 N   0  0  0  0  0  2  0  0  0  0  0  0
  181.2120  174.5330  134.7880 N   0  0  0  0  0  2  0  0  0  0  0  0
  180.8840  175.0360  136.1220 C   0  0  0  0  0  2  0  0  0  0  0  0
  181.4580  174.2040  137.1840 N   0  0  0  0  0  0  0  0  0  0  0  0
  180.4230  173.3290  137.7220 C   0  0  0  0  0  1  0  0  0  0  0  0
  181.9320  175.0450  138.2710 C   0  0  0  0  0  1  0  0  0  0  0  0
  188.4560  177.6260  139.1630 C   0  0  1  0  0  3  0  0  0  0  0  0
  189.3220  178.7600  138.6270 C   0  0  0  0  0  2  0  0  0  0  0  0
  190.0930  177.3090  137.1580 C   0  0  0  0  0  1  0  0  0  0  0  0
  189.5610  178.5910  137.2640 O   0  0  0  0  0  0  0  0  0  0  0  0
  188.9370  177.1720  140.5320 C   0  0  0  0  0  2  0  0  0  0  0  0
  190.4090  177.4900  140.6980 C   0  0  0  0  0  2  0  0  0  0  0  0
  190.7280  177.6300  142.1450 C   0  0  0  0  0  3  0  0  0  0  0  0
  189.8690  177.1890  143.0600 C   0  0  0  0  0  3  0  0  0  0  0  0
  190.1590  177.3350  144.5260 C   0  0  2  0  0  3  0  0  0  0  0  0
  191.9750  176.7170  146.1460 O   0  0  0  0  0  1  0  0  0  0  0  0
  191.3700  176.5350  144.9080 C   0  0  0  0  0  0  0  0  0  0  0  0
  191.8490  175.7120  144.0920 O   0  0  0  0  0  0  0  0  0  0  0  0
  188.9230  177.0230  145.3830 C   0  0  2  0  0  3  0  0  0  0  0  0
  187.6460  177.3930  144.6540 C   0  0  0  0  0  1  0  0  0  0  0  0
  188.9890  177.6730  146.7670 C   0  0  0  0  0  2  0  0  0  0  0  0
  187.4740  178.4480  148.3900 O   0  0  0  0  0  0  0  0  0  0  0  0
  187.6280  177.7990  147.3690 C   0  0  0  0  0  3  0  0  0  0  0  0
  1  7  1  0  0  0  0
  2  8  1  0  0  0  0
  2  1  2  0  0  0  0
  3  4  1  0  0  0  0
  3  5  1  0  0  0  0
  6  8  1  0  0  0  0
  6  9  2  0  0  0  0
  7  5  2  0  0  0  0
  8  3  2  0  0  0  0
  9  4  1  0  0  0  0
 10 11  1  0  0  0  0
 10 15  1  0  0  0  0
 11  1  1  0  0  0  0
 12 11  2  0  0  0  0
 13 16  2  0  0  0  0
 13 15  1  0  0  0  0
 14 13  1  0  0  0  0
 17  6  1  0  0  0  0
 18 22  1  1  0  0  0
 18 21  1  0  0  0  0
 19 18  1  0  0  0  0
 19 21  1  0  0  0  0
 21 17  1  0  0  0  0
 21 20  1  1  0  0  0
 23 24  1  0  0  0  0
 23 22  1  0  0  0  0
 24 25  1  0  0  0  0
 25 26  1  0  0  0  0
 26 27  1  0  0  0  0
 27 28  1  0  0  0  0
 27 29  1  0  0  0  0
 30 31  1  1  0  0  0
 30  9  1  0  0  0  0
 30 34  1  0  0  0  0
 32 33  1  0  0  0  0
 33 31  1  0  0  0  0
 34 35  1  0  0  0  0
 35 36  1  0  0  0  0
 36 37  2  0  0  0  0
 38 37  1  6  0  0  0
 38 40  1  0  0  0  0
 38 42  1  0  0  0  0
 40 39  1  0  0  0  0
 41 40  2  0  0  0  0
 42 43  1  6  0  0  0
 42 44  1  0  0  0  0
 44 46  1  0  0  0  0
 46 45  2  0  0  0  0
M  END
>  <MODEL>
7

>  <REMARK>
 VINA RESULT:      -5.6      4.625      9.689
  Name = 
  21 active torsions:
  status: ('A' for Active; 'I' for Inactive)
    1  A    between atoms: C_1  and  C_33
    2  A    between atoms: C_1  and  C_41
    3  A    between atoms: N_2  and  C_4
    4  A    between atoms: C_4  and  N_38
    5  A    between atoms: C_6  and  N_28
    6  A    between atoms: N_8  and  N_16
    7  A    between atoms: C_9  and  C_34
    8  A    between atoms: N_10  and  N_19
    9  A    between atoms: N_10  and  N_38
   10  A    between atoms: C_11  and  C_27
   11  A    between atoms: C_12  and  C_20
   12  A    between atoms: C_12  and  C_21
   13  A    between atoms: C_15  and  C_20
   14  A    between atoms: C_15  and  C_40
   15  A    between atoms: C_15  and  C_42
   16  A    between atoms: N_19  and  N_28
   17  A    between atoms: C_24  and  C_25
   18  A    between atoms: C_24  and  C_27
   19  A    between atoms: C_25  and  C_26
   20  A    between atoms: C_25  and  C_46
   21  A    between atoms: C_26  and  O_45
                            x       y       z     vdW  Elec       q    Type
                         _______ _______ _______ _____ _____    ______ ____

>  <TORSDO>
F 21

$$$$
=
 OpenBabel10232408033D

 46 48  0  0  1  0  0  0  0  0999 V2000
  185.2840  173.1470  136.1740 C   0  0  0  0  0  0  0  0  0  0  0  0
  185.5330  174.5350  136.1580 C   0  0  0  0  0  3  0  0  0  0  0  0
  183.7410  174.8120  137.7460 C   0  0  0  0  0  0  0  0  0  0  0  0
  183.0630  175.8800  138.5350 C   0  0  0  0  0  2  0  0  0  0  0  0
  183.4830  173.4480  137.7230 C   0  0  0  0  0  3  0  0  0  0  0  0
  184.7540  176.7750  137.1510 C   0  0  0  0  0  0  0  0  0  0  0  0
  184.2530  172.6500  136.9290 N   0  0  0  0  0  0  0  0  0  0  0  0
  184.7290  175.3410  136.9620 C   0  0  0  0  0  0  0  0  0  0  0  0
  183.8100  177.0980  138.0450 C   0  0  0  0  0  0  0  0  0  0  0  0
  185.4910  171.1960  134.5330 N   0  0  0  0  0  2  0  0  0  0  0  0
  186.0840  172.2170  135.3460 C   0  0  0  0  0  0  0  0  0  0  0  0
  187.3380  172.3270  135.3550 O   0  0  0  0  0  0  0  0  0  0  0  0
  183.3770  170.0200  135.0150 C   0  0  0  0  0  0  0  0  0  0  0  0
  184.0720  168.9910  135.8330 C   0  0  0  0  0  1  0  0  0  0  0  0
  184.1080  171.0640  134.3740 N   0  0  0  0  0  2  0  0  0  0  0  0
  182.1270  169.9690  134.8850 O   0  0  0  0  0  0  0  0  0  0  0  0
  185.5870  177.7430  136.3690 C   0  0  0  0  0  2  0  0  0  0  0  0
  188.0000  177.1430  135.7430 C   0  0  2  0  0  3  0  0  0  0  0  0
  187.8580  178.5170  136.0640 O   0  0  0  0  0  0  0  0  0  0  0  0
  187.4250  177.6390  138.2570 C   0  0  0  0  0  1  0  0  0  0  0  0
  187.0460  177.6250  136.7850 C   0  0  1  0  0  0  0  0  0  0  0  0
  189.1960  176.5750  136.3590 N   0  0  0  0  0  2  0  0  0  0  0  0
  189.1690  175.1850  136.1840 N   0  0  0  0  0  2  0  0  0  0  0  0
  189.2840  174.6170  137.4600 N   0  0  0  0  0  2  0  0  0  0  0  0
  190.1440  173.5140  137.3450 N   0  0  0  0  0  2  0  0  0  0  0  0
  191.0840  173.8150  136.2650 C   0  0  0  0  0  2  0  0  0  0  0  0
  192.4730  173.5370  136.6450 N   0  0  0  0  0  0  0  0  0  0  0  0
  192.8900  174.4860  137.6690 C   0  0  0  0  0  1  0  0  0  0  0  0
  193.3470  173.7150  135.4970 C   0  0  0  0  0  1  0  0  0  0  0  0
  183.5800  178.4850  138.5510 C   0  0  1  0  0  3  0  0  0  0  0  0
  182.2290  178.5930  139.2490 C   0  0  0  0  0  2  0  0  0  0  0  0
  181.5280  180.1620  137.8680 C   0  0  0  0  0  1  0  0  0  0  0  0
  181.2240  178.8830  138.3270 O   0  0  0  0  0  0  0  0  0  0  0  0
  184.7120  178.8720  139.4890 C   0  0  0  0  0  2  0  0  0  0  0  0
  184.3170  178.5900  140.9240 C   0  0  0  0  0  2  0  0  0  0  0  0
  185.5200  178.6660  141.7960 C   0  0  0  0  0  3  0  0  0  0  0  0
  185.5360  178.0280  142.9640 C   0  0  0  0  0  3  0  0  0  0  0  0
  186.7300  178.1050  143.8700 C   0  0  2  0  0  3  0  0  0  0  0  0
  187.8390  175.9120  143.3550 O   0  0  0  0  0  1  0  0  0  0  0  0
  187.8690  177.3010  143.3140 C   0  0  0  0  0  0  0  0  0  0  0  0
  188.8630  177.8920  142.8280 O   0  0  0  0  0  0  0  0  0  0  0  0
  186.3700  177.7360  145.3170 C   0  0  2  0  0  3  0  0  0  0  0  0
  185.2920  178.6540  145.8620 C   0  0  0  0  0  1  0  0  0  0  0  0
  187.5940  177.6990  146.2350 C   0  0  0  0  0  2  0  0  0  0  0  0
  187.5020  177.8090  148.5830 O   0  0  0  0  0  0  0  0  0  0  0  0
  187.3180  178.3950  147.5290 C   0  0  0  0  0  3  0  0  0  0  0  0
  1  7  1  0  0  0  0
  2  1  2  0  0  0  0
  2  8  1  0  0  0  0
  3  4  1  0  0  0  0
  5  3  1  0  0  0  0
  6  9  2  0  0  0  0
  7  5  2  0  0  0  0
  8  6  1  0  0  0  0
  8  3  2  0  0  0  0
  9  4  1  0  0  0  0
  9 30  1  0  0  0  0
 10 11  1  0  0  0  0
 11 12  2  0  0  0  0
 11  1  1  0  0  0  0
 13 14  1  0  0  0  0
 15 10  1  0  0  0  0
 15 13  1  0  0  0  0
 16 13  2  0  0  0  0
 17 21  1  0  0  0  0
 17  6  1  0  0  0  0
 18 19  1  0  0  0  0
 18 22  1  1  0  0  0
 18 21  1  0  0  0  0
 19 21  1  0  0  0  0
 21 20  1  1  0  0  0
 23 22  1  0  0  0  0
 23 24  1  0  0  0  0
 25 24  1  0  0  0  0
 26 27  1  0  0  0  0
 26 25  1  0  0  0  0
 27 28  1  0  0  0  0
 29 27  1  0  0  0  0
 30 31  1  1  0  0  0
 30 34  1  0  0  0  0
 32 33  1  0  0  0  0
 33 31  1  0  0  0  0
 34 35  1  0  0  0  0
 35 36  1  0  0  0  0
 36 37  2  0  0  0  0
 38 37  1  6  0  0  0
 38 42  1  0  0  0  0
 40 39  1  0  0  0  0
 40 38  1  0  0  0  0
 41 40  2  0  0  0  0
 42 43  1  1  0  0  0
 42 44  1  0  0  0  0
 44 46  1  0  0  0  0
 46 45  2  0  0  0  0
M  END
>  <MODEL>
8

>  <REMARK>
 VINA RESULT:      -5.4      3.371      8.760
  Name = 
  21 active torsions:
  status: ('A' for Active; 'I' for Inactive)
    1  A    between atoms: C_1  and  C_33
    2  A    between atoms: C_1  and  C_41
    3  A    between atoms: N_2  and  C_4
    4  A    between atoms: C_4  and  N_38
    5  A    between atoms: C_6  and  N_28
    6  A    between atoms: N_8  and  N_16
    7  A    between atoms: C_9  and  C_34
    8  A    between atoms: N_10  and  N_19
    9  A    between atoms: N_10  and  N_38
   10  A    between atoms: C_11  and  C_27
   11  A    between atoms: C_12  and  C_20
   12  A    between atoms: C_12  and  C_21
   13  A    between atoms: C_15  and  C_20
   14  A    between atoms: C_15  and  C_40
   15  A    between atoms: C_15  and  C_42
   16  A    between atoms: N_19  and  N_28
   17  A    between atoms: C_24  and  C_25
   18  A    between atoms: C_24  and  C_27
   19  A    between atoms: C_25  and  C_26
   20  A    between atoms: C_25  and  C_46
   21  A    between atoms: C_26  and  O_45
                            x       y       z     vdW  Elec       q    Type
                         _______ _______ _______ _____ _____    ______ ____

>  <TORSDO>
F 21

$$$$
=
 OpenBabel10232408033D

 46 48  0  0  1  0  0  0  0  0999 V2000
  187.3450  178.3560  137.9000 C   0  0  0  0  0  0  0  0  0  0  0  0
  188.6660  177.9580  138.1930 C   0  0  0  0  0  3  0  0  0  0  0  0
  188.0440  177.8240  140.5180 C   0  0  0  0  0  0  0  0  0  0  0  0
  188.6240  177.4550  141.8410 C   0  0  0  0  0  2  0  0  0  0  0  0
  186.7580  178.2520  140.2190 C   0  0  0  0  0  3  0  0  0  0  0  0
  190.2310  177.2840  140.1190 C   0  0  0  0  0  0  0  0  0  0  0  0
  186.4420  178.5180  138.9190 N   0  0  0  0  0  0  0  0  0  0  0  0
  188.9800  177.7050  139.5260 C   0  0  0  0  0  0  0  0  0  0  0  0
  190.0450  177.1380  141.4370 C   0  0  0  0  0  0  0  0  0  0  0  0
  186.3220  177.6710  135.6580 N   0  0  0  0  0  2  0  0  0  0  0  0
  186.9260  178.6520  136.5120 C   0  0  0  0  0  0  0  0  0  0  0  0
  187.1060  179.8130  136.0610 O   0  0  0  0  0  0  0  0  0  0  0  0
  184.6860  176.0950  136.6150 C   0  0  0  0  0  0  0  0  0  0  0  0
  183.6590  177.1600  136.7580 C   0  0  0  0  0  1  0  0  0  0  0  0
  185.9830  176.3890  136.1010 N   0  0  0  0  0  2  0  0  0  0  0  0
  184.4060  174.9160  136.9550 O   0  0  0  0  0  0  0  0  0  0  0  0
  191.5420  177.1800  139.4020 C   0  0  0  0  0  2  0  0  0  0  0  0
  192.2120  175.0740  138.1000 C   0  0  2  0  0  3  0  0  0  0  0  0
  190.8430  175.0580  138.4740 O   0  0  0  0  0  0  0  0  0  0  0  0
  190.7180  176.8810  136.9150 C   0  0  0  0  0  1  0  0  0  0  0  0
  191.3850  176.3160  138.1580 C   0  0  1  0  0  0  0  0  0  0  0  0
  192.3890  174.6360  136.7180 N   0  0  0  0  0  2  0  0  0  0  0  0
  193.2590  173.5370  136.7090 N   0  0  0  0  0  2  0  0  0  0  0  0
  194.3900  173.9140  137.4450 N   0  0  0  0  0  2  0  0  0  0  0  0
  195.3090  174.4630  136.5370 N   0  0  0  0  0  2  0  0  0  0  0  0
  196.4490  173.5480  136.4750 C   0  0  0  0  0  2  0  0  0  0  0  0
  197.7280  174.2450  136.6460 N   0  0  0  0  0  0  0  0  0  0  0  0
  197.8570  174.6820  138.0300 C   0  0  0  0  0  1  0  0  0  0  0  0
  197.7640  175.4300  135.8040 C   0  0  0  0  0  1  0  0  0  0  0  0
  191.0960  176.6440  142.3770 C   0  0  1  0  0  3  0  0  0  0  0  0
  191.9890  177.7880  142.8440 C   0  0  0  0  0  2  0  0  0  0  0  0
  191.7790  179.5510  144.1510 C   0  0  0  0  0  1  0  0  0  0  0  0
  191.2420  178.9530  143.0150 O   0  0  0  0  0  0  0  0  0  0  0  0
  190.4310  175.9540  143.5570 C   0  0  0  0  0  2  0  0  0  0  0  0
  191.2490  176.1670  144.8130 C   0  0  0  0  0  2  0  0  0  0  0  0
  190.4470  176.9320  145.8060 C   0  0  0  0  0  3  0  0  0  0  0  0
  189.1980  177.2900  145.5170 C   0  0  0  0  0  3  0  0  0  0  0  0
  188.3740  178.0770  146.4950 C   0  0  2  0  0  3  0  0  0  0  0  0
  188.6890  178.0590  148.9850 O   0  0  0  0  0  1  0  0  0  0  0  0
  188.3260  177.3850  147.8250 C   0  0  0  0  0  0  0  0  0  0  0  0
  187.9750  176.1820  147.8830 O   0  0  0  0  0  0  0  0  0  0  0  0
  186.9870  178.4120  145.9280 C   0  0  2  0  0  3  0  0  0  0  0  0
  186.0230  178.7940  147.0360 C   0  0  0  0  0  1  0  0  0  0  0  0
  186.4230  177.2900  145.0540 C   0  0  0  0  0  2  0  0  0  0  0  0
  184.5680  178.4420  144.1800 O   0  0  0  0  0  0  0  0  0  0  0  0
  185.6000  177.8390  143.9350 C   0  0  0  0  0  3  0  0  0  0  0  0
  1  2  2  0  0  0  0
  1  7  1  0  0  0  0
  2  8  1  0  0  0  0
  3  4  1  0  0  0  0
  5  3  1  0  0  0  0
  6  9  2  0  0  0  0
  7  5  2  0  0  0  0
  8  6  1  0  0  0  0
  8  3  2  0  0  0  0
  9  4  1  0  0  0  0
  9 30  1  0  0  0  0
 10 15  1  0  0  0  0
 10 11  1  0  0  0  0
 11  1  1  0  0  0  0
 12 11  2  0  0  0  0
 13 14  1  0  0  0  0
 13 16  2  0  0  0  0
 15 13  1  0  0  0  0
 17  6  1  0  0  0  0
 18 22  1  6  0  0  0
 18 21  1  0  0  0  0
 18 19  1  0  0  0  0
 21 20  1  6  0  0  0
 21 19  1  0  0  0  0
 21 17  1  0  0  0  0
 23 22  1  0  0  0  0
 23 24  1  0  0  0  0
 25 24  1  0  0  0  0
 26 25  1  0  0  0  0
 26 27  1  0  0  0  0
 27 28  1  0  0  0  0
 29 27  1  0  0  0  0
 30 31  1  1  0  0  0
 30 34  1  0  0  0  0
 31 33  1  0  0  0  0
 33 32  1  0  0  0  0
 34 35  1  0  0  0  0
 35 36  1  0  0  0  0
 37 36  2  0  0  0  0
 38 37  1  6  0  0  0
 38 40  1  0  0  0  0
 40 41  2  0  0  0  0
 40 39  1  0  0  0  0
 42 38  1  0  0  0  0
 42 43  1  1  0  0  0
 44 42  1  0  0  0  0
 46 45  2  0  0  0  0
 46 44  1  0  0  0  0
M  END
>  <MODEL>
9

>  <REMARK>
 VINA RESULT:      -5.4      3.171      8.556
  Name = 
  21 active torsions:
  status: ('A' for Active; 'I' for Inactive)
    1  A    between atoms: C_1  and  C_33
    2  A    between atoms: C_1  and  C_41
    3  A    between atoms: N_2  and  C_4
    4  A    between atoms: C_4  and  N_38
    5  A    between atoms: C_6  and  N_28
    6  A    between atoms: N_8  and  N_16
    7  A    between atoms: C_9  and  C_34
    8  A    between atoms: N_10  and  N_19
    9  A    between atoms: N_10  and  N_38
   10  A    between atoms: C_11  and  C_27
   11  A    between atoms: C_12  and  C_20
   12  A    between atoms: C_12  and  C_21
   13  A    between atoms: C_15  and  C_20
   14  A    between atoms: C_15  and  C_40
   15  A    between atoms: C_15  and  C_42
   16  A    between atoms: N_19  and  N_28
   17  A    between atoms: C_24  and  C_25
   18  A    between atoms: C_24  and  C_27
   19  A    between atoms: C_25  and  C_26
   20  A    between atoms: C_25  and  C_46
   21  A    between atoms: C_26  and  O_45
                            x       y       z     vdW  Elec       q    Type
                         _______ _______ _______ _____ _____    ______ ____

>  <TORSDO>
F 21

$$$$
