=
 OpenBabel10232410413D

 50 56  0  0  1  0  0  0  0  0999 V2000
  189.4990  175.3340  137.1050 C   0  0  0  0  0  0  0  0  0  0  0  0
  189.8710  176.5690  139.8080 C   0  0  0  0  0  2  0  0  0  0  0  0
  192.0160  176.8740  139.3800 C   0  0  0  0  0  0  0  0  0  0  0  0
  190.7380  175.7250  137.6630 C   0  0  0  0  0  0  0  0  0  0  0  0
  190.8350  176.3540  138.9210 C   0  0  0  0  0  0  0  0  0  0  0  0
  191.8910  177.4240  140.5710 C   0  0  0  0  0  2  0  0  0  0  0  0
  189.4660  174.6140  135.9060 C   0  0  0  0  0  0  0  0  0  0  0  0
  191.9430  175.5430  136.9230 C   0  0  0  0  0  0  0  0  0  0  0  0
  194.2370  176.3160  136.5410 O   0  0  0  0  0  1  0  0  0  0  0  0
  190.4580  177.2880  140.9840 C   0  0  2  0  0  3  0  0  0  0  0  0
  193.1210  176.2180  137.3620 C   0  0  0  0  0  0  0  0  0  0  0  0
  191.8950  174.7650  135.7340 C   0  0  0  0  0  0  0  0  0  0  0  0
  193.1650  176.8500  138.6070 C   0  0  0  0  0  3  0  0  0  0  0  0
  190.6640  174.3240  135.2490 C   0  0  0  0  0  3  0  0  0  0  0  0
  193.0640  174.3330  135.0290 N   0  0  0  0  0  2  0  0  0  0  0  0
  194.9580  172.7500  134.4810 C   0  0  0  0  0  1  0  0  0  0  0  0
  193.7810  173.1240  135.3090 C   0  0  0  0  0  0  0  0  0  0  0  0
  193.4340  172.3740  136.2620 O   0  0  0  0  0  0  0  0  0  0  0  0
  188.2990  175.7880  137.6770 O   0  0  0  0  0  0  0  0  0  0  0  0
  185.8940  178.3280  137.9990 C   0  0  2  0  0  3  0  0  0  0  0  0
  188.0770  179.1010  137.3770 O   0  0  0  0  0  1  0  0  0  0  0  0
  187.3760  178.0330  137.9290 C   0  0  2  0  0  3  0  0  0  0  0  0
  185.4880  178.5140  139.4490 C   0  0  0  0  0  1  0  0  0  0  0  0
  185.2640  177.1530  137.4680 N   0  0  0  0  0  2  0  0  0  0  0  0
  187.5030  176.7980  137.0400 C   0  0  2  0  0  3  0  0  0  0  0  0
  186.0900  176.3350  136.9410 C   0  0  0  0  0  2  0  0  0  0  0  0
  190.3580  176.4050  142.2320 C   0  0  0  0  0  2  0  0  0  0  0  0
  190.8810  176.2020  144.5440 N   0  0  0  0  0  2  0  0  0  0  0  0
  189.5580  177.9520  143.8950 C   0  0  0  0  0  2  0  0  0  0  0  0
  190.6760  177.1120  143.4900 N   0  0  0  0  0  0  0  0  0  0  0  0
  189.6760  177.9900  145.3910 C   0  0  2  0  0  3  0  0  0  0  0  0
  190.5280  176.8590  145.7420 N   0  0  0  0  0  2  0  0  0  0  0  0
  188.3350  177.8520  146.0520 C   0  0  0  0  0  0  0  0  0  0  0  0
  187.2790  178.1470  145.3650 N   0  0  0  0  0  0  0  0  0  0  0  0
  188.6480  178.5760  148.3020 O   0  0  0  0  0  1  0  0  0  0  0  0
  188.2530  177.4900  147.5150 C   0  0  0  0  0  2  0  0  0  0  0  0
  185.9500  178.1570  145.9310 C   0  0  0  0  0  2  0  0  0  0  0  0
  183.6200  178.6450  145.2880 C   0  0  0  0  0  2  0  0  0  0  0  0
  185.0430  179.0860  145.1330 C   0  0  2  0  0  3  0  0  0  0  0  0
  184.0260  178.9740  142.9510 N   0  0  0  0  0  2  0  0  0  0  0  0
  182.9870  179.0120  143.9730 C   0  0  0  0  0  2  0  0  0  0  0  0
  185.3050  178.9100  143.6530 C   0  0  0  0  0  2  0  0  0  0  0  0
  188.2030  174.2100  135.3650 N   0  0  0  0  0  2  0  0  0  0  0  0
  186.7660  172.9430  136.7400 O   0  0  0  0  0  0  0  0  0  0  0  0
  185.3920  172.1800  135.1530 N   0  0  0  0  0  0  0  0  0  0  0  0
  185.5190  172.4600  136.3990 C   0  0  0  0  0  0  0  0  0  0  0  0
  187.6000  172.9030  135.5930 C   0  0  1  0  0  3  0  0  0  0  0  0
  186.6250  172.5440  134.4640 C   0  0  0  0  0  2  0  0  0  0  0  0
  183.3730  171.4310  137.0430 C   0  0  0  0  0  1  0  0  0  0  0  0
  184.5270  172.1990  137.3480 O   0  0  0  0  0  0  0  0  0  0  0  0
  1  4  1  0  0  0  0
  1 19  1  0  0  0  0
  2 10  1  0  0  0  0
  3  6  1  0  0  0  0
  4  5  2  0  0  0  0
  5  3  1  0  0  0  0
  5  2  1  0  0  0  0
  6 10  1  0  0  0  0
  7  1  2  0  0  0  0
  8 11  2  0  0  0  0
  8  4  1  0  0  0  0
  9 11  1  0  0  0  0
 10 27  1  1  0  0  0
 11 13  1  0  0  0  0
 12  8  1  0  0  0  0
 13  3  2  0  0  0  0
 14 12  2  0  0  0  0
 14  7  1  0  0  0  0
 15 17  1  0  0  0  0
 15 12  1  0  0  0  0
 16 17  1  0  0  0  0
 17 18  2  0  0  0  0
 20 23  1  1  0  0  0
 22 21  1  6  0  0  0
 22 20  1  0  0  0  0
 24 20  1  0  0  0  0
 25 19  1  1  0  0  0
 25 22  1  0  0  0  0
 26 25  1  0  0  0  0
 26 24  1  0  0  0  0
 27 30  1  0  0  0  0
 28 32  1  0  0  0  0
 29 31  1  0  0  0  0
 30 29  1  0  0  0  0
 30 28  1  0  0  0  0
 31 32  1  0  0  0  0
 31 33  1  1  0  0  0
 33 36  1  0  0  0  0
 34 37  1  0  0  0  0
 34 33  2  0  0  0  0
 36 35  1  0  0  0  0
 39 38  1  0  0  0  0
 39 37  1  1  0  0  0
 40 42  1  0  0  0  0
 40 41  1  0  0  0  0
 41 38  1  0  0  0  0
 42 39  1  0  0  0  0
 43  7  1  0  0  0  0
 45 46  2  0  0  0  0
 46 44  1  0  0  0  0
 46 50  1  0  0  0  0
 47 43  1  6  0  0  0
 47 44  1  0  0  0  0
 48 45  1  0  0  0  0
 48 47  1  0  0  0  0
 49 50  1  0  0  0  0
M  END
>  <MODEL>
1

>  <REMARK>
 VINA RESULT:      -8.4      0.000      0.000
  Name = 
  12 active torsions:
  status: ('A' for Active; 'I' for Inactive)
    1  A    between atoms: C_1  and  O_10
    2  A    between atoms: N_2  and  C_39
    3  A    between atoms: CA_3  and  C_37
    4  A    between atoms: CA_3  and  C_46
    5  A    between atoms: C_8  and  C_15
    6  A    between atoms: C_8  and  N_25
    7  A    between atoms: O_10  and  C_41
    8  A    between atoms: C_12  and  N_34
    9  A    between atoms: C_12  and  C_35
   10  A    between atoms: C_19  and  N_21
   11  A    between atoms: N_21  and  C_49
   12  A    between atoms: O_28  and  C_47
                            x       y       z     vdW  Elec       q    Type
                         _______ _______ _______ _____ _____    ______ ____

>  <TORSDO>
F 12

$$$$
=
 OpenBabel10232410413D

 50 56  0  0  1  0  0  0  0  0999 V2000
  188.6650  177.9770  140.8730 C   0  0  0  0  0  0  0  0  0  0  0  0
  185.7350  178.5690  141.0350 C   0  0  0  0  0  2  0  0  0  0  0  0
  185.7890  178.2640  143.2220 C   0  0  0  0  0  0  0  0  0  0  0  0
  187.8720  177.8680  142.0370 C   0  0  0  0  0  0  0  0  0  0  0  0
  186.5070  178.2180  142.0560 C   0  0  0  0  0  0  0  0  0  0  0  0
  184.5350  178.6200  143.0230 C   0  0  0  0  0  2  0  0  0  0  0  0
  189.9860  177.5110  140.8770 C   0  0  0  0  0  0  0  0  0  0  0  0
  188.4620  177.4480  143.2660 C   0  0  0  0  0  0  0  0  0  0  0  0
  188.3490  177.5280  145.7120 O   0  0  0  0  0  1  0  0  0  0  0  0
  184.3620  178.8670  141.5560 C   0  0  2  0  0  3  0  0  0  0  0  0
  187.7300  177.6440  144.4750 C   0  0  0  0  0  0  0  0  0  0  0  0
  189.7860  176.9320  143.2380 C   0  0  0  0  0  0  0  0  0  0  0  0
  186.3830  178.0160  144.4470 C   0  0  0  0  0  3  0  0  0  0  0  0
  190.5190  176.9780  142.0520 C   0  0  0  0  0  3  0  0  0  0  0  0
  190.4010  176.2820  144.3570 N   0  0  0  0  0  2  0  0  0  0  0  0
  191.9420  176.1230  146.3540 C   0  0  0  0  0  1  0  0  0  0  0  0
  191.4070  176.8740  145.1880 C   0  0  0  0  0  0  0  0  0  0  0  0
  191.8560  178.0250  144.9360 O   0  0  0  0  0  0  0  0  0  0  0  0
  188.1790  178.6770  139.7570 O   0  0  0  0  0  0  0  0  0  0  0  0
  186.4690  177.4850  136.9290 C   0  0  2  0  0  3  0  0  0  0  0  0
  187.6960  179.5140  136.5650 O   0  0  0  0  0  1  0  0  0  0  0  0
  187.1490  178.6880  137.5430 C   0  0  2  0  0  3  0  0  0  0  0  0
  184.9680  177.6140  137.1050 C   0  0  0  0  0  1  0  0  0  0  0  0
  186.9510  176.3670  137.6880 N   0  0  0  0  0  2  0  0  0  0  0  0
  188.2520  178.1200  138.4360 C   0  0  2  0  0  3  0  0  0  0  0  0
  187.9040  176.6720  138.4810 C   0  0  0  0  0  2  0  0  0  0  0  0
  183.3610  177.8640  140.9750 C   0  0  0  0  0  2  0  0  0  0  0  0
  181.0100  177.6500  140.6690 N   0  0  0  0  0  2  0  0  0  0  0  0
  182.2160  178.6790  139.0190 C   0  0  0  0  0  2  0  0  0  0  0  0
  182.1240  178.4870  140.4590 N   0  0  0  0  0  0  0  0  0  0  0  0
  180.7900  178.5920  138.5640 C   0  0  2  0  0  3  0  0  0  0  0  0
  180.0740  177.9340  139.6520 N   0  0  0  0  0  2  0  0  0  0  0  0
  180.6630  177.7880  137.3010 C   0  0  0  0  0  0  0  0  0  0  0  0
  180.9960  176.5380  137.3350 N   0  0  0  0  0  0  0  0  0  0  0  0
  181.4030  178.9700  135.3680 O   0  0  0  0  0  1  0  0  0  0  0  0
  180.2690  178.4690  136.0140 C   0  0  0  0  0  2  0  0  0  0  0  0
  181.0210  175.6990  136.1590 C   0  0  0  0  0  2  0  0  0  0  0  0
  182.6640  174.6770  137.6860 C   0  0  0  0  0  2  0  0  0  0  0  0
  181.9790  174.5320  136.3620 C   0  0  2  0  0  3  0  0  0  0  0  0
  184.3500  174.2310  136.0440 N   0  0  0  0  0  2  0  0  0  0  0  0
  184.0220  174.0680  137.4560 C   0  0  0  0  0  2  0  0  0  0  0  0
  183.1170  174.6250  135.3680 C   0  0  0  0  0  2  0  0  0  0  0  0
  190.7680  177.6120  139.6820 N   0  0  0  0  0  2  0  0  0  0  0  0
  190.8340  175.3580  138.9940 O   0  0  0  0  0  0  0  0  0  0  0  0
  191.7210  175.6660  136.9680 N   0  0  0  0  0  0  0  0  0  0  0  0
  191.0030  174.8980  137.7040 C   0  0  0  0  0  0  0  0  0  0  0  0
  191.6040  176.5380  139.1630 C   0  0  1  0  0  3  0  0  0  0  0  0
  192.0790  176.8520  137.7370 C   0  0  0  0  0  2  0  0  0  0  0  0
  189.1730  173.4620  136.8870 C   0  0  0  0  0  1  0  0  0  0  0  0
  190.5230  173.6560  137.2780 O   0  0  0  0  0  0  0  0  0  0  0  0
  1  7  2  0  0  0  0
  1  4  1  0  0  0  0
  2 10  1  0  0  0  0
  2  5  1  0  0  0  0
  3 13  1  0  0  0  0
  4  5  1  0  0  0  0
  4  8  2  0  0  0  0
  5  3  2  0  0  0  0
  6  3  1  0  0  0  0
  7 14  1  0  0  0  0
  8 11  1  0  0  0  0
 10 27  1  6  0  0  0
 10  6  1  0  0  0  0
 11  9  1  0  0  0  0
 12  8  1  0  0  0  0
 12 15  1  0  0  0  0
 13 11  2  0  0  0  0
 14 12  2  0  0  0  0
 15 17  1  0  0  0  0
 17 16  1  0  0  0  0
 18 17  2  0  0  0  0
 19  1  1  0  0  0  0
 20 23  1  1  0  0  0
 20 22  1  0  0  0  0
 20 24  1  0  0  0  0
 22 21  1  6  0  0  0
 22 25  1  0  0  0  0
 24 26  1  0  0  0  0
 25 26  1  0  0  0  0
 25 19  1  1  0  0  0
 29 30  1  0  0  0  0
 30 28  1  0  0  0  0
 30 27  1  0  0  0  0
 31 33  1  6  0  0  0
 31 29  1  0  0  0  0
 31 32  1  0  0  0  0
 32 28  1  0  0  0  0
 33 34  2  0  0  0  0
 35 36  1  0  0  0  0
 36 33  1  0  0  0  0
 37 34  1  0  0  0  0
 39 37  1  6  0  0  0
 39 38  1  0  0  0  0
 40 41  1  0  0  0  0
 41 38  1  0  0  0  0
 42 40  1  0  0  0  0
 42 39  1  0  0  0  0
 43  7  1  0  0  0  0
 44 47  1  0  0  0  0
 45 46  2  0  0  0  0
 45 48  1  0  0  0  0
 46 44  1  0  0  0  0
 47 43  1  6  0  0  0
 48 47  1  0  0  0  0
 49 50  1  0  0  0  0
 50 46  1  0  0  0  0
M  END
>  <MODEL>
2

>  <REMARK>
 VINA RESULT:      -8.0      2.959      8.263
  Name = 
  12 active torsions:
  status: ('A' for Active; 'I' for Inactive)
    1  A    between atoms: C_1  and  O_10
    2  A    between atoms: N_2  and  C_39
    3  A    between atoms: CA_3  and  C_37
    4  A    between atoms: CA_3  and  C_46
    5  A    between atoms: C_8  and  C_15
    6  A    between atoms: C_8  and  N_25
    7  A    between atoms: O_10  and  C_41
    8  A    between atoms: C_12  and  N_34
    9  A    between atoms: C_12  and  C_35
   10  A    between atoms: C_19  and  N_21
   11  A    between atoms: N_21  and  C_49
   12  A    between atoms: O_28  and  C_47
                            x       y       z     vdW  Elec       q    Type
                         _______ _______ _______ _____ _____    ______ ____

>  <TORSDO>
F 12

$$$$
=
 OpenBabel10232410413D

 50 56  0  0  1  0  0  0  0  0999 V2000
  188.2870  177.9460  140.9480 C   0  0  0  0  0  0  0  0  0  0  0  0
  185.3440  178.4920  141.0140 C   0  0  0  0  0  2  0  0  0  0  0  0
  185.3630  178.3550  143.2190 C   0  0  0  0  0  0  0  0  0  0  0  0
  187.4740  177.9100  142.1040 C   0  0  0  0  0  0  0  0  0  0  0  0
  186.1020  178.2350  142.0730 C   0  0  0  0  0  0  0  0  0  0  0  0
  184.1070  178.6710  142.9720 C   0  0  0  0  0  2  0  0  0  0  0  0
  189.6150  177.5080  141.0110 C   0  0  0  0  0  0  0  0  0  0  0  0
  188.0490  177.5970  143.3710 C   0  0  0  0  0  0  0  0  0  0  0  0
  187.8880  177.8610  145.8020 O   0  0  0  0  0  1  0  0  0  0  0  0
  183.9570  178.8010  141.4870 C   0  0  2  0  0  3  0  0  0  0  0  0
  187.2910  177.8700  144.5490 C   0  0  0  0  0  0  0  0  0  0  0  0
  189.3820  177.1060  143.4060 C   0  0  0  0  0  0  0  0  0  0  0  0
  185.9380  178.2120  144.4700 C   0  0  0  0  0  3  0  0  0  0  0  0
  190.1360  177.0770  142.2330 C   0  0  0  0  0  3  0  0  0  0  0  0
  189.9870  176.5560  144.5810 N   0  0  0  0  0  2  0  0  0  0  0  0
  191.6890  176.4440  146.4480 C   0  0  0  0  0  1  0  0  0  0  0  0
  191.1740  177.0680  145.2000 C   0  0  0  0  0  0  0  0  0  0  0  0
  191.8000  178.0380  144.6910 O   0  0  0  0  0  0  0  0  0  0  0  0
  187.8090  178.5490  139.7740 O   0  0  0  0  0  0  0  0  0  0  0  0
  187.8110  177.4390  136.4410 C   0  0  2  0  0  3  0  0  0  0  0  0
  188.1620  175.7080  138.0640 O   0  0  0  0  0  1  0  0  0  0  0  0
  188.1970  177.0850  137.8590 C   0  0  2  0  0  3  0  0  0  0  0  0
  189.0350  177.9420  135.6990 C   0  0  0  0  0  1  0  0  0  0  0  0
  186.8570  178.5030  136.5780 N   0  0  0  0  0  2  0  0  0  0  0  0
  187.1660  177.7800  138.7470 C   0  0  2  0  0  3  0  0  0  0  0  0
  186.4880  178.6930  137.7850 C   0  0  0  0  0  2  0  0  0  0  0  0
  182.9840  177.7380  140.9680 C   0  0  0  0  0  2  0  0  0  0  0  0
  181.2910  177.7580  139.2960 N   0  0  0  0  0  2  0  0  0  0  0  0
  183.2930  176.7760  138.7820 C   0  0  0  0  0  2  0  0  0  0  0  0
  182.6760  177.8630  139.5280 N   0  0  0  0  0  0  0  0  0  0  0  0
  182.3720  176.5910  137.6120 C   0  0  2  0  0  3  0  0  0  0  0  0
  181.1210  177.2360  137.9960 N   0  0  0  0  0  2  0  0  0  0  0  0
  182.1350  175.1360  137.3230 C   0  0  0  0  0  0  0  0  0  0  0  0
  183.1490  174.4050  136.9890 N   0  0  0  0  0  0  0  0  0  0  0  0
  180.4060  174.0660  138.5680 O   0  0  0  0  0  1  0  0  0  0  0  0
  180.7280  174.5920  137.3130 C   0  0  0  0  0  2  0  0  0  0  0  0
  183.0220  173.0240  136.5820 C   0  0  0  0  0  2  0  0  0  0  0  0
  185.2420  173.1610  137.6460 C   0  0  0  0  0  2  0  0  0  0  0  0
  184.2790  172.2460  136.9530 C   0  0  2  0  0  3  0  0  0  0  0  0
  186.4530  171.9870  135.9450 N   0  0  0  0  0  2  0  0  0  0  0  0
  186.5920  172.6260  137.2490 C   0  0  0  0  0  2  0  0  0  0  0  0
  185.0210  171.8430  135.6970 C   0  0  0  0  0  2  0  0  0  0  0  0
  190.4180  177.5330  139.8260 N   0  0  0  0  0  2  0  0  0  0  0  0
  191.4710  176.2310  138.1650 O   0  0  0  0  0  0  0  0  0  0  0  0
  193.5660  176.9320  138.4860 N   0  0  0  0  0  0  0  0  0  0  0  0
  192.7350  176.4240  137.6490 C   0  0  0  0  0  0  0  0  0  0  0  0
  191.4800  176.5760  139.5410 C   0  0  1  0  0  3  0  0  0  0  0  0
  192.8610  177.2180  139.7310 C   0  0  0  0  0  2  0  0  0  0  0  0
  194.3530  176.3350  135.7910 C   0  0  0  0  0  1  0  0  0  0  0  0
  193.1000  176.0020  136.3680 O   0  0  0  0  0  0  0  0  0  0  0  0
  1  7  2  0  0  0  0
  1  4  1  0  0  0  0
  2 10  1  0  0  0  0
  2  5  1  0  0  0  0
  3 13  1  0  0  0  0
  4  8  2  0  0  0  0
  5  4  1  0  0  0  0
  5  3  2  0  0  0  0
  6  3  1  0  0  0  0
  7 14  1  0  0  0  0
  8 12  1  0  0  0  0
  8 11  1  0  0  0  0
 10 27  1  6  0  0  0
 10  6  1  0  0  0  0
 11  9  1  0  0  0  0
 12 15  1  0  0  0  0
 13 11  2  0  0  0  0
 14 12  2  0  0  0  0
 15 17  1  0  0  0  0
 17 16  1  0  0  0  0
 18 17  2  0  0  0  0
 19  1  1  0  0  0  0
 20 23  1  6  0  0  0
 20 24  1  0  0  0  0
 20 22  1  0  0  0  0
 22 21  1  6  0  0  0
 22 25  1  0  0  0  0
 24 26  1  0  0  0  0
 25 19  1  1  0  0  0
 26 25  1  0  0  0  0
 28 30  1  0  0  0  0
 29 30  1  0  0  0  0
 30 27  1  0  0  0  0
 31 33  1  1  0  0  0
 31 32  1  0  0  0  0
 31 29  1  0  0  0  0
 32 28  1  0  0  0  0
 34 33  2  0  0  0  0
 36 33  1  0  0  0  0
 36 35  1  0  0  0  0
 37 34  1  0  0  0  0
 39 37  1  6  0  0  0
 39 38  1  0  0  0  0
 40 41  1  0  0  0  0
 41 38  1  0  0  0  0
 42 40  1  0  0  0  0
 42 39  1  0  0  0  0
 43  7  1  0  0  0  0
 44 47  1  0  0  0  0
 45 48  1  0  0  0  0
 46 44  1  0  0  0  0
 46 45  2  0  0  0  0
 47 48  1  0  0  0  0
 47 43  1  6  0  0  0
 49 50  1  0  0  0  0
 50 46  1  0  0  0  0
M  END
>  <MODEL>
3

>  <REMARK>
 VINA RESULT:      -8.0      2.483      8.735
  Name = 
  12 active torsions:
  status: ('A' for Active; 'I' for Inactive)
    1  A    between atoms: C_1  and  O_10
    2  A    between atoms: N_2  and  C_39
    3  A    between atoms: CA_3  and  C_37
    4  A    between atoms: CA_3  and  C_46
    5  A    between atoms: C_8  and  C_15
    6  A    between atoms: C_8  and  N_25
    7  A    between atoms: O_10  and  C_41
    8  A    between atoms: C_12  and  N_34
    9  A    between atoms: C_12  and  C_35
   10  A    between atoms: C_19  and  N_21
   11  A    between atoms: N_21  and  C_49
   12  A    between atoms: O_28  and  C_47
                            x       y       z     vdW  Elec       q    Type
                         _______ _______ _______ _____ _____    ______ ____

>  <TORSDO>
F 12

$$$$
=
 OpenBabel10232410413D

 50 56  0  0  1  0  0  0  0  0999 V2000
  186.8060  178.6280  141.4810 C   0  0  0  0  0  0  0  0  0  0  0  0
  188.9370  177.9120  139.5030 C   0  0  0  0  0  2  0  0  0  0  0  0
  187.4390  177.9210  137.8790 C   0  0  0  0  0  0  0  0  0  0  0  0
  186.5880  178.3260  140.1170 C   0  0  0  0  0  0  0  0  0  0  0  0
  187.6460  178.0520  139.2260 C   0  0  0  0  0  0  0  0  0  0  0  0
  188.5560  177.6750  137.2240 C   0  0  0  0  0  2  0  0  0  0  0  0
  185.7180  178.7820  142.3480 C   0  0  0  0  0  0  0  0  0  0  0  0
  185.2660  178.3500  139.5840 C   0  0  0  0  0  0  0  0  0  0  0  0
  183.8810  178.6610  137.5870 O   0  0  0  0  0  1  0  0  0  0  0  0
  189.6710  177.6470  138.2240 C   0  0  2  0  0  3  0  0  0  0  0  0
  185.1040  178.3520  138.1660 C   0  0  0  0  0  0  0  0  0  0  0  0
  184.1740  178.4570  140.4880 C   0  0  0  0  0  0  0  0  0  0  0  0
  186.1860  178.0990  137.3190 C   0  0  0  0  0  3  0  0  0  0  0  0
  184.4200  178.6750  141.8430 C   0  0  0  0  0  3  0  0  0  0  0  0
  182.8090  178.2730  140.0970 N   0  0  0  0  0  2  0  0  0  0  0  0
  180.7620  176.9270  139.4720 C   0  0  0  0  0  1  0  0  0  0  0  0
  182.2040  177.0030  139.8270 C   0  0  0  0  0  0  0  0  0  0  0  0
  182.8850  175.9420  139.8740 O   0  0  0  0  0  0  0  0  0  0  0  0
  188.1030  178.9130  141.9370 O   0  0  0  0  0  0  0  0  0  0  0  0
  190.9030  177.0530  142.9600 C   0  0  2  0  0  3  0  0  0  0  0  0
  190.5360  179.0650  144.2130 O   0  0  0  0  0  1  0  0  0  0  0  0
  190.2280  178.4050  143.0270 C   0  0  2  0  0  3  0  0  0  0  0  0
  191.9960  177.0900  141.9090 C   0  0  0  0  0  1  0  0  0  0  0  0
  189.8670  176.1490  142.5490 N   0  0  0  0  0  2  0  0  0  0  0  0
  188.7300  178.1150  142.9530 C   0  0  2  0  0  3  0  0  0  0  0  0
  188.7060  176.6810  142.5520 C   0  0  0  0  0  2  0  0  0  0  0  0
  190.2960  176.2490  138.2680 C   0  0  0  0  0  2  0  0  0  0  0  0
  191.0240  174.6360  136.6770 N   0  0  0  0  0  2  0  0  0  0  0  0
  192.5830  176.0730  137.5360 C   0  0  0  0  0  2  0  0  0  0  0  0
  191.1900  175.9600  137.1280 N   0  0  0  0  0  0  0  0  0  0  0  0
  193.2910  175.1100  136.6290 C   0  0  2  0  0  3  0  0  0  0  0  0
  192.2510  174.2270  136.1120 N   0  0  0  0  0  2  0  0  0  0  0  0
  194.3240  174.3110  137.3730 C   0  0  0  0  0  0  0  0  0  0  0  0
  195.1270  174.9400  138.1690 N   0  0  0  0  0  0  0  0  0  0  0  0
  195.2800  172.6410  135.9650 O   0  0  0  0  0  1  0  0  0  0  0  0
  194.4770  172.8370  137.0930 C   0  0  0  0  0  2  0  0  0  0  0  0
  196.2260  174.2920  138.8470 C   0  0  0  0  0  2  0  0  0  0  0  0
  198.2930  173.6270  137.6800 C   0  0  0  0  0  2  0  0  0  0  0  0
  197.5560  174.7810  138.2860 C   0  0  2  0  0  3  0  0  0  0  0  0
  199.8220  174.7960  139.1060 N   0  0  0  0  0  2  0  0  0  0  0  0
  199.7420  173.9700  137.9070 C   0  0  0  0  0  2  0  0  0  0  0  0
  198.4600  175.2190  139.4180 C   0  0  0  0  0  2  0  0  0  0  0  0
  185.9580  179.0700  143.7300 N   0  0  0  0  0  2  0  0  0  0  0  0
  186.7630  178.0070  145.6750 O   0  0  0  0  0  0  0  0  0  0  0  0
  185.1470  178.6400  147.0800 N   0  0  0  0  0  0  0  0  0  0  0  0
  186.3690  178.2610  146.9720 C   0  0  0  0  0  0  0  0  0  0  0  0
  185.6410  178.1550  144.8190 C   0  0  1  0  0  3  0  0  0  0  0  0
  184.5730  178.7530  145.7440 C   0  0  0  0  0  2  0  0  0  0  0  0
  188.6130  178.0460  147.9720 C   0  0  0  0  0  1  0  0  0  0  0  0
  187.1970  178.0220  148.0720 O   0  0  0  0  0  0  0  0  0  0  0  0
  1 19  1  0  0  0  0
  1  7  1  0  0  0  0
  3  5  2  0  0  0  0
  4  1  2  0  0  0  0
  5  2  1  0  0  0  0
  5  4  1  0  0  0  0
  6  3  1  0  0  0  0
  6 10  1  0  0  0  0
  7 43  1  0  0  0  0
  8  4  1  0  0  0  0
  8 12  2  0  0  0  0
  9 11  1  0  0  0  0
 10 27  1  1  0  0  0
 10  2  1  0  0  0  0
 11  8  1  0  0  0  0
 12 14  1  0  0  0  0
 13  3  1  0  0  0  0
 13 11  2  0  0  0  0
 14  7  2  0  0  0  0
 15 12  1  0  0  0  0
 16 17  1  0  0  0  0
 17 18  2  0  0  0  0
 17 15  1  0  0  0  0
 20 23  1  6  0  0  0
 20 22  1  0  0  0  0
 22 21  1  1  0  0  0
 24 26  1  0  0  0  0
 24 20  1  0  0  0  0
 25 19  1  6  0  0  0
 25 22  1  0  0  0  0
 26 25  1  0  0  0  0
 28 30  1  0  0  0  0
 30 29  1  0  0  0  0
 30 27  1  0  0  0  0
 31 33  1  1  0  0  0
 31 29  1  0  0  0  0
 32 31  1  0  0  0  0
 32 28  1  0  0  0  0
 33 34  2  0  0  0  0
 34 37  1  0  0  0  0
 35 36  1  0  0  0  0
 36 33  1  0  0  0  0
 38 41  1  0  0  0  0
 38 39  1  0  0  0  0
 39 37  1  1  0  0  0
 39 42  1  0  0  0  0
 40 42  1  0  0  0  0
 41 40  1  0  0  0  0
 44 46  1  0  0  0  0
 46 45  2  0  0  0  0
 46 50  1  0  0  0  0
 47 43  1  6  0  0  0
 47 44  1  0  0  0  0
 47 48  1  0  0  0  0
 48 45  1  0  0  0  0
 49 50  1  0  0  0  0
M  END
>  <MODEL>
4

>  <REMARK>
 VINA RESULT:      -7.9      2.961     10.443
  Name = 
  12 active torsions:
  status: ('A' for Active; 'I' for Inactive)
    1  A    between atoms: C_1  and  O_10
    2  A    between atoms: N_2  and  C_39
    3  A    between atoms: CA_3  and  C_37
    4  A    between atoms: CA_3  and  C_46
    5  A    between atoms: C_8  and  C_15
    6  A    between atoms: C_8  and  N_25
    7  A    between atoms: O_10  and  C_41
    8  A    between atoms: C_12  and  N_34
    9  A    between atoms: C_12  and  C_35
   10  A    between atoms: C_19  and  N_21
   11  A    between atoms: N_21  and  C_49
   12  A    between atoms: O_28  and  C_47
                            x       y       z     vdW  Elec       q    Type
                         _______ _______ _______ _____ _____    ______ ____

>  <TORSDO>
F 12

$$$$
=
 OpenBabel10232410413D

 50 56  0  0  1  0  0  0  0  0999 V2000
  186.8360  178.7110  141.5690 C   0  0  0  0  0  0  0  0  0  0  0  0
  189.1050  177.8730  139.8030 C   0  0  0  0  0  2  0  0  0  0  0  0
  187.7490  177.8560  138.0600 C   0  0  0  0  0  0  0  0  0  0  0  0
  186.7250  178.3630  140.2030 C   0  0  0  0  0  0  0  0  0  0  0  0
  187.8460  178.0320  139.4140 C   0  0  0  0  0  0  0  0  0  0  0  0
  188.9100  177.5600  137.5100 C   0  0  0  0  0  2  0  0  0  0  0  0
  185.6840  178.9220  142.3350 C   0  0  0  0  0  0  0  0  0  0  0  0
  185.4530  178.3990  139.5590 C   0  0  0  0  0  0  0  0  0  0  0  0
  184.2480  178.6680  137.4430 O   0  0  0  0  0  1  0  0  0  0  0  0
  189.9360  177.5430  138.6010 C   0  0  2  0  0  3  0  0  0  0  0  0
  185.4100  178.3520  138.1340 C   0  0  0  0  0  0  0  0  0  0  0  0
  184.2930  178.5640  140.3640 C   0  0  0  0  0  0  0  0  0  0  0  0
  186.5520  178.0430  137.3900 C   0  0  0  0  0  3  0  0  0  0  0  0
  184.4310  178.8270  141.7270 C   0  0  0  0  0  3  0  0  0  0  0  0
  182.9610  178.3980  139.8660 N   0  0  0  0  0  2  0  0  0  0  0  0
  180.8970  177.0850  139.2270 C   0  0  0  0  0  1  0  0  0  0  0  0
  182.3020  177.1350  139.7110 C   0  0  0  0  0  0  0  0  0  0  0  0
  182.9040  176.0580  139.9700 O   0  0  0  0  0  0  0  0  0  0  0  0
  188.0980  178.9820  142.1220 O   0  0  0  0  0  0  0  0  0  0  0  0
  190.7390  176.9750  143.2790 C   0  0  2  0  0  3  0  0  0  0  0  0
  190.4650  179.0390  144.4710 O   0  0  0  0  0  1  0  0  0  0  0  0
  190.1520  178.3690  143.2910 C   0  0  2  0  0  3  0  0  0  0  0  0
  191.8640  176.9140  142.2630 C   0  0  0  0  0  1  0  0  0  0  0  0
  189.6600  176.1280  142.8580 N   0  0  0  0  0  2  0  0  0  0  0  0
  188.6410  178.1730  143.1770 C   0  0  2  0  0  3  0  0  0  0  0  0
  188.5370  176.7330  142.8100 C   0  0  0  0  0  2  0  0  0  0  0  0
  190.5180  176.1340  138.7460 C   0  0  0  0  0  2  0  0  0  0  0  0
  190.7580  174.1870  137.3990 N   0  0  0  0  0  2  0  0  0  0  0  0
  192.4770  175.6960  137.4150 C   0  0  0  0  0  2  0  0  0  0  0  0
  191.0290  175.5670  137.4810 N   0  0  0  0  0  0  0  0  0  0  0  0
  192.8930  174.5300  136.5690 C   0  0  2  0  0  3  0  0  0  0  0  0
  191.7630  173.6080  136.5940 N   0  0  0  0  0  2  0  0  0  0  0  0
  194.1190  173.8580  137.1220 C   0  0  0  0  0  0  0  0  0  0  0  0
  194.2330  172.5780  136.9770 N   0  0  0  0  0  0  0  0  0  0  0  0
  196.0200  175.2960  137.0680 O   0  0  0  0  0  1  0  0  0  0  0  0
  195.1160  174.6580  137.9230 C   0  0  0  0  0  2  0  0  0  0  0  0
  195.3110  171.8140  137.5630 C   0  0  0  0  0  2  0  0  0  0  0  0
  193.9580  170.1490  136.3490 C   0  0  0  0  0  2  0  0  0  0  0  0
  195.2070  170.3510  137.1500 C   0  0  2  0  0  3  0  0  0  0  0  0
  194.0290  168.4390  138.0250 N   0  0  0  0  0  2  0  0  0  0  0  0
  193.5420  168.7410  136.6830 C   0  0  0  0  0  2  0  0  0  0  0  0
  194.9820  169.4890  138.3740 C   0  0  0  0  0  2  0  0  0  0  0  0
  185.8160  179.2550  143.7210 N   0  0  0  0  0  2  0  0  0  0  0  0
  186.7530  178.2740  145.6500 O   0  0  0  0  0  0  0  0  0  0  0  0
  185.0980  178.7300  147.0790 N   0  0  0  0  0  0  0  0  0  0  0  0
  186.3510  178.4800  146.9540 C   0  0  0  0  0  0  0  0  0  0  0  0
  185.6100  178.3080  144.8090 C   0  0  1  0  0  3  0  0  0  0  0  0
  184.4980  178.7880  145.7520 C   0  0  0  0  0  2  0  0  0  0  0  0
  188.1880  177.2910  148.0920 C   0  0  0  0  0  1  0  0  0  0  0  0
  187.2140  178.3230  148.0420 O   0  0  0  0  0  0  0  0  0  0  0  0
  1 19  1  0  0  0  0
  1  7  1  0  0  0  0
  3  5  2  0  0  0  0
  4  1  2  0  0  0  0
  5  2  1  0  0  0  0
  5  4  1  0  0  0  0
  6  3  1  0  0  0  0
  6 10  1  0  0  0  0
  7 43  1  0  0  0  0
  8  4  1  0  0  0  0
  8 12  2  0  0  0  0
  9 11  1  0  0  0  0
 10 27  1  1  0  0  0
 10  2  1  0  0  0  0
 11  8  1  0  0  0  0
 12 14  1  0  0  0  0
 13  3  1  0  0  0  0
 13 11  2  0  0  0  0
 14  7  2  0  0  0  0
 15 12  1  0  0  0  0
 16 17  1  0  0  0  0
 17 15  1  0  0  0  0
 17 18  2  0  0  0  0
 20 23  1  6  0  0  0
 20 22  1  0  0  0  0
 22 21  1  1  0  0  0
 24 20  1  0  0  0  0
 25 19  1  6  0  0  0
 25 22  1  0  0  0  0
 26 24  1  0  0  0  0
 26 25  1  0  0  0  0
 28 30  1  0  0  0  0
 29 30  1  0  0  0  0
 30 27  1  0  0  0  0
 31 32  1  0  0  0  0
 31 33  1  1  0  0  0
 31 29  1  0  0  0  0
 32 28  1  0  0  0  0
 33 36  1  0  0  0  0
 34 33  2  0  0  0  0
 34 37  1  0  0  0  0
 35 36  1  0  0  0  0
 38 41  1  0  0  0  0
 38 39  1  0  0  0  0
 39 37  1  1  0  0  0
 39 42  1  0  0  0  0
 40 42  1  0  0  0  0
 41 40  1  0  0  0  0
 44 46  1  0  0  0  0
 46 45  2  0  0  0  0
 46 50  1  0  0  0  0
 47 43  1  6  0  0  0
 47 44  1  0  0  0  0
 47 48  1  0  0  0  0
 48 45  1  0  0  0  0
 50 49  1  0  0  0  0
M  END
>  <MODEL>
5

>  <REMARK>
 VINA RESULT:      -7.8      2.956     10.272
  Name = 
  12 active torsions:
  status: ('A' for Active; 'I' for Inactive)
    1  A    between atoms: C_1  and  O_10
    2  A    between atoms: N_2  and  C_39
    3  A    between atoms: CA_3  and  C_37
    4  A    between atoms: CA_3  and  C_46
    5  A    between atoms: C_8  and  C_15
    6  A    between atoms: C_8  and  N_25
    7  A    between atoms: O_10  and  C_41
    8  A    between atoms: C_12  and  N_34
    9  A    between atoms: C_12  and  C_35
   10  A    between atoms: C_19  and  N_21
   11  A    between atoms: N_21  and  C_49
   12  A    between atoms: O_28  and  C_47
                            x       y       z     vdW  Elec       q    Type
                         _______ _______ _______ _____ _____    ______ ____

>  <TORSDO>
F 12

$$$$
=
 OpenBabel10232410413D

 50 56  0  0  1  0  0  0  0  0999 V2000
  187.4580  178.1880  142.5650 C   0  0  0  0  0  0  0  0  0  0  0  0
  184.8610  178.5170  141.1110 C   0  0  0  0  0  2  0  0  0  0  0  0
  183.8000  178.7040  143.0390 C   0  0  0  0  0  0  0  0  0  0  0  0
  186.1840  178.2610  143.1730 C   0  0  0  0  0  0  0  0  0  0  0  0
  185.0040  178.4740  142.4300 C   0  0  0  0  0  0  0  0  0  0  0  0
  182.8260  178.8850  142.1690 C   0  0  0  0  0  2  0  0  0  0  0  0
  188.5840  177.8650  143.3320 C   0  0  0  0  0  0  0  0  0  0  0  0
  186.0640  178.1790  144.5920 C   0  0  0  0  0  0  0  0  0  0  0  0
  184.7380  178.7810  146.5620 O   0  0  0  0  0  1  0  0  0  0  0  0
  183.4220  178.7870  140.7980 C   0  0  2  0  0  3  0  0  0  0  0  0
  184.8290  178.5630  145.1940 C   0  0  0  0  0  0  0  0  0  0  0  0
  187.2080  177.7990  145.3450 C   0  0  0  0  0  0  0  0  0  0  0  0
  183.6900  178.7880  144.4170 C   0  0  0  0  0  3  0  0  0  0  0  0
  188.4390  177.6560  144.7050 C   0  0  0  0  0  3  0  0  0  0  0  0
  187.1590  177.4730  146.7390 N   0  0  0  0  0  2  0  0  0  0  0  0
  187.8700  177.6340  149.1590 C   0  0  0  0  0  1  0  0  0  0  0  0
  188.0440  178.0080  147.7310 C   0  0  0  0  0  0  0  0  0  0  0  0
  188.9810  178.7870  147.4060 O   0  0  0  0  0  0  0  0  0  0  0  0
  187.6190  178.5770  141.2250 O   0  0  0  0  0  0  0  0  0  0  0  0
  188.8630  178.0900  137.9760 C   0  0  2  0  0  3  0  0  0  0  0  0
  190.4560  177.6780  139.7210 O   0  0  0  0  0  1  0  0  0  0  0  0
  189.2440  178.2960  139.4250 C   0  0  2  0  0  3  0  0  0  0  0  0
  188.9830  179.4090  137.2350 C   0  0  0  0  0  1  0  0  0  0  0  0
  187.4880  177.6810  138.0150 N   0  0  0  0  0  2  0  0  0  0  0  0
  188.1140  177.6620  140.2360 C   0  0  2  0  0  3  0  0  0  0  0  0
  187.0720  177.4340  139.1970 C   0  0  0  0  0  2  0  0  0  0  0  0
  182.8210  177.5900  140.0550 C   0  0  0  0  0  2  0  0  0  0  0  0
  181.5620  176.9410  138.1430 N   0  0  0  0  0  2  0  0  0  0  0  0
  183.6920  177.7090  137.8130 C   0  0  0  0  0  2  0  0  0  0  0  0
  182.5030  177.8640  138.6390 N   0  0  0  0  0  0  0  0  0  0  0  0
  183.1400  177.2890  136.4830 C   0  0  2  0  0  3  0  0  0  0  0  0
  181.7870  176.8150  136.7550 N   0  0  0  0  0  2  0  0  0  0  0  0
  183.9590  176.1890  135.8690 C   0  0  0  0  0  0  0  0  0  0  0  0
  184.0080  175.0500  136.4790 N   0  0  0  0  0  0  0  0  0  0  0  0
  185.8780  177.2780  134.9650 O   0  0  0  0  0  1  0  0  0  0  0  0
  184.7860  176.4670  134.6380 C   0  0  0  0  0  2  0  0  0  0  0  0
  184.8500  173.9600  136.0410 C   0  0  0  0  0  2  0  0  0  0  0  0
  183.4400  172.1390  136.9200 C   0  0  0  0  0  2  0  0  0  0  0  0
  183.9990  172.7500  135.6730 C   0  0  2  0  0  3  0  0  0  0  0  0
  184.3950  170.3730  135.6130 N   0  0  0  0  0  2  0  0  0  0  0  0
  183.3570  170.6710  136.5930 C   0  0  0  0  0  2  0  0  0  0  0  0
  184.8820  171.6560  135.1110 C   0  0  0  0  0  2  0  0  0  0  0  0
  189.8640  177.7770  142.6960 N   0  0  0  0  0  2  0  0  0  0  0  0
  190.9240  177.8620  144.8000 O   0  0  0  0  0  0  0  0  0  0  0  0
  191.8620  175.8350  144.7700 N   0  0  0  0  0  0  0  0  0  0  0  0
  191.4280  176.7910  145.5090 C   0  0  0  0  0  0  0  0  0  0  0  0
  191.1220  177.6270  143.4150 C   0  0  1  0  0  3  0  0  0  0  0  0
  191.6060  176.1710  143.3740 C   0  0  0  0  0  2  0  0  0  0  0  0
  192.2590  175.7890  147.6030 C   0  0  0  0  0  1  0  0  0  0  0  0
  191.5510  176.7990  146.9010 O   0  0  0  0  0  0  0  0  0  0  0  0
  1  4  2  0  0  0  0
  1  7  1  0  0  0  0
  2  5  1  0  0  0  0
  3 13  1  0  0  0  0
  4  8  1  0  0  0  0
  5  3  2  0  0  0  0
  5  4  1  0  0  0  0
  6  3  1  0  0  0  0
  7 14  2  0  0  0  0
  8 11  1  0  0  0  0
  8 12  2  0  0  0  0
 10 27  1  6  0  0  0
 10  2  1  0  0  0  0
 10  6  1  0  0  0  0
 11  9  1  0  0  0  0
 12 15  1  0  0  0  0
 13 11  2  0  0  0  0
 14 12  1  0  0  0  0
 15 17  1  0  0  0  0
 17 16  1  0  0  0  0
 18 17  2  0  0  0  0
 19  1  1  0  0  0  0
 20 23  1  6  0  0  0
 20 24  1  0  0  0  0
 20 22  1  0  0  0  0
 22 21  1  6  0  0  0
 22 25  1  0  0  0  0
 24 26  1  0  0  0  0
 25 19  1  1  0  0  0
 26 25  1  0  0  0  0
 28 30  1  0  0  0  0
 29 30  1  0  0  0  0
 30 27  1  0  0  0  0
 31 33  1  1  0  0  0
 31 32  1  0  0  0  0
 31 29  1  0  0  0  0
 32 28  1  0  0  0  0
 33 34  2  0  0  0  0
 36 35  1  0  0  0  0
 36 33  1  0  0  0  0
 37 34  1  0  0  0  0
 39 37  1  1  0  0  0
 39 38  1  0  0  0  0
 40 41  1  0  0  0  0
 41 38  1  0  0  0  0
 42 40  1  0  0  0  0
 42 39  1  0  0  0  0
 43  7  1  0  0  0  0
 44 46  1  0  0  0  0
 45 46  2  0  0  0  0
 46 50  1  0  0  0  0
 47 43  1  6  0  0  0
 47 44  1  0  0  0  0
 48 47  1  0  0  0  0
 48 45  1  0  0  0  0
 50 49  1  0  0  0  0
M  END
>  <MODEL>
6

>  <REMARK>
 VINA RESULT:      -7.7      3.544     10.222
  Name = 
  12 active torsions:
  status: ('A' for Active; 'I' for Inactive)
    1  A    between atoms: C_1  and  O_10
    2  A    between atoms: N_2  and  C_39
    3  A    between atoms: CA_3  and  C_37
    4  A    between atoms: CA_3  and  C_46
    5  A    between atoms: C_8  and  C_15
    6  A    between atoms: C_8  and  N_25
    7  A    between atoms: O_10  and  C_41
    8  A    between atoms: C_12  and  N_34
    9  A    between atoms: C_12  and  C_35
   10  A    between atoms: C_19  and  N_21
   11  A    between atoms: N_21  and  C_49
   12  A    between atoms: O_28  and  C_47
                            x       y       z     vdW  Elec       q    Type
                         _______ _______ _______ _____ _____    ______ ____

>  <TORSDO>
F 12

$$$$
=
 OpenBabel10232410413D

 50 56  0  0  1  0  0  0  0  0999 V2000
  187.0560  177.6190  138.3420 C   0  0  0  0  0  0  0  0  0  0  0  0
  188.8410  177.1990  140.7090 C   0  0  0  0  0  2  0  0  0  0  0  0
  187.2840  178.0290  142.0370 C   0  0  0  0  0  0  0  0  0  0  0  0
  186.7780  178.0410  139.6620 C   0  0  0  0  0  0  0  0  0  0  0  0
  187.6380  177.7600  140.7430 C   0  0  0  0  0  0  0  0  0  0  0  0
  188.2240  177.6840  142.8950 C   0  0  0  0  0  2  0  0  0  0  0  0
  186.2270  178.0200  137.2870 C   0  0  0  0  0  0  0  0  0  0  0  0
  185.5610  178.7270  139.9500 C   0  0  0  0  0  0  0  0  0  0  0  0
  183.8720  179.2550  141.6450 O   0  0  0  0  0  1  0  0  0  0  0  0
  189.3550  177.0920  142.1120 C   0  0  2  0  0  3  0  0  0  0  0  0
  185.1620  178.8630  141.3130 C   0  0  0  0  0  0  0  0  0  0  0  0
  184.7600  179.1690  138.8620 C   0  0  0  0  0  0  0  0  0  0  0  0
  186.0400  178.5480  142.3540 C   0  0  0  0  0  3  0  0  0  0  0  0
  185.1040  178.8040  137.5600 C   0  0  0  0  0  3  0  0  0  0  0  0
  183.6410  180.0490  139.0150 N   0  0  0  0  0  2  0  0  0  0  0  0
  181.1870  180.6560  139.0440 C   0  0  0  0  0  1  0  0  0  0  0  0
  182.2750  179.6690  138.8100 C   0  0  0  0  0  0  0  0  0  0  0  0
  181.9800  178.5070  138.4190 O   0  0  0  0  0  0  0  0  0  0  0  0
  188.0790  176.6860  138.1060 O   0  0  0  0  0  0  0  0  0  0  0  0
  191.1440  175.6940  136.7060 C   0  0  2  0  0  3  0  0  0  0  0  0
  189.2800  175.5750  135.2000 O   0  0  0  0  0  1  0  0  0  0  0  0
  189.6410  175.6490  136.5430 C   0  0  2  0  0  3  0  0  0  0  0  0
  191.6220  174.3860  137.3100 C   0  0  0  0  0  1  0  0  0  0  0  0
  191.3780  176.7670  137.6290 N   0  0  0  0  0  2  0  0  0  0  0  0
  189.1260  176.9480  137.1610 C   0  0  2  0  0  3  0  0  0  0  0  0
  190.3310  177.4550  137.8740 C   0  0  0  0  0  2  0  0  0  0  0  0
  190.6070  177.9590  142.2710 C   0  0  0  0  0  2  0  0  0  0  0  0
  191.4260  175.9910  143.3300 N   0  0  0  0  0  2  0  0  0  0  0  0
  191.5220  177.9560  144.4990 C   0  0  0  0  0  2  0  0  0  0  0  0
  191.6270  177.3760  143.1680 N   0  0  0  0  0  0  0  0  0  0  0  0
  192.0130  176.8590  145.3970 C   0  0  2  0  0  3  0  0  0  0  0  0
  191.9320  175.6390  144.6000 N   0  0  0  0  0  2  0  0  0  0  0  0
  191.1600  176.7300  146.6260 C   0  0  0  0  0  0  0  0  0  0  0  0
  190.1340  177.5090  146.7440 N   0  0  0  0  0  0  0  0  0  0  0  0
  192.9380  175.9460  148.0070 O   0  0  0  0  0  1  0  0  0  0  0  0
  191.5760  175.7940  147.7340 C   0  0  0  0  0  2  0  0  0  0  0  0
  189.3100  177.5500  147.9300 C   0  0  0  0  0  2  0  0  0  0  0  0
  187.6790  177.5280  146.0810 C   0  0  0  0  0  2  0  0  0  0  0  0
  187.8430  177.3640  147.5610 C   0  0  2  0  0  3  0  0  0  0  0  0
  186.0110  178.8750  147.1480 N   0  0  0  0  0  2  0  0  0  0  0  0
  186.3010  178.1170  145.9370 C   0  0  0  0  0  2  0  0  0  0  0  0
  187.0240  178.5020  148.1320 C   0  0  0  0  0  2  0  0  0  0  0  0
  186.5360  177.5980  135.9550 N   0  0  0  0  0  2  0  0  0  0  0  0
  185.7740  175.3910  136.2870 O   0  0  0  0  0  0  0  0  0  0  0  0
  183.7430  175.6120  135.3860 N   0  0  0  0  0  0  0  0  0  0  0  0
  184.4670  174.9540  136.2170 C   0  0  0  0  0  0  0  0  0  0  0  0
  185.9670  176.4140  135.3230 C   0  0  1  0  0  3  0  0  0  0  0  0
  184.5430  176.6920  134.8190 C   0  0  0  0  0  2  0  0  0  0  0  0
  184.8770  173.0140  137.6820 C   0  0  0  0  0  1  0  0  0  0  0  0
  184.0100  173.8290  136.9080 O   0  0  0  0  0  0  0  0  0  0  0  0
  1  4  1  0  0  0  0
  2  5  1  0  0  0  0
  2 10  1  0  0  0  0
  3 13  1  0  0  0  0
  3  6  1  0  0  0  0
  4  8  2  0  0  0  0
  4  5  1  0  0  0  0
  5  3  2  0  0  0  0
  7 14  1  0  0  0  0
  7  1  2  0  0  0  0
  8 11  1  0  0  0  0
 10 27  1  6  0  0  0
 10  6  1  0  0  0  0
 11  9  1  0  0  0  0
 11 13  2  0  0  0  0
 12 15  1  0  0  0  0
 12  8  1  0  0  0  0
 14 12  2  0  0  0  0
 17 15  1  0  0  0  0
 17 16  1  0  0  0  0
 18 17  2  0  0  0  0
 19  1  1  0  0  0  0
 20 23  1  1  0  0  0
 20 24  1  0  0  0  0
 22 21  1  6  0  0  0
 22 20  1  0  0  0  0
 22 25  1  0  0  0  0
 24 26  1  0  0  0  0
 25 26  1  0  0  0  0
 25 19  1  1  0  0  0
 27 30  1  0  0  0  0
 28 32  1  0  0  0  0
 29 31  1  0  0  0  0
 30 28  1  0  0  0  0
 30 29  1  0  0  0  0
 31 33  1  1  0  0  0
 32 31  1  0  0  0  0
 33 34  2  0  0  0  0
 33 36  1  0  0  0  0
 34 37  1  0  0  0  0
 36 35  1  0  0  0  0
 38 39  1  0  0  0  0
 39 37  1  6  0  0  0
 39 42  1  0  0  0  0
 40 42  1  0  0  0  0
 41 38  1  0  0  0  0
 41 40  1  0  0  0  0
 43  7  1  0  0  0  0
 45 46  2  0  0  0  0
 46 44  1  0  0  0  0
 46 50  1  0  0  0  0
 47 43  1  1  0  0  0
 47 44  1  0  0  0  0
 48 47  1  0  0  0  0
 48 45  1  0  0  0  0
 50 49  1  0  0  0  0
M  END
>  <MODEL>
7

>  <REMARK>
 VINA RESULT:      -7.6      2.534      6.105
  Name = 
  12 active torsions:
  status: ('A' for Active; 'I' for Inactive)
    1  A    between atoms: C_1  and  O_10
    2  A    between atoms: N_2  and  C_39
    3  A    between atoms: CA_3  and  C_37
    4  A    between atoms: CA_3  and  C_46
    5  A    between atoms: C_8  and  C_15
    6  A    between atoms: C_8  and  N_25
    7  A    between atoms: O_10  and  C_41
    8  A    between atoms: C_12  and  N_34
    9  A    between atoms: C_12  and  C_35
   10  A    between atoms: C_19  and  N_21
   11  A    between atoms: N_21  and  C_49
   12  A    between atoms: O_28  and  C_47
                            x       y       z     vdW  Elec       q    Type
                         _______ _______ _______ _____ _____    ______ ____

>  <TORSDO>
F 12

$$$$
=
 OpenBabel10232410413D

 50 56  0  0  1  0  0  0  0  0999 V2000
  185.8700  176.9770  136.8550 C   0  0  0  0  0  0  0  0  0  0  0  0
  187.8220  177.8830  138.9370 C   0  0  0  0  0  2  0  0  0  0  0  0
  189.3360  176.4940  138.1300 C   0  0  0  0  0  0  0  0  0  0  0  0
  187.1500  176.4190  137.0740 C   0  0  0  0  0  0  0  0  0  0  0  0
  188.0430  176.9340  138.0360 C   0  0  0  0  0  0  0  0  0  0  0  0
  190.0050  177.1050  139.0870 C   0  0  0  0  0  2  0  0  0  0  0  0
  184.9790  176.3610  135.9670 C   0  0  0  0  0  0  0  0  0  0  0  0
  187.6050  175.3360  136.2660 C   0  0  0  0  0  0  0  0  0  0  0  0
  189.5430  174.1640  135.3320 O   0  0  0  0  0  1  0  0  0  0  0  0
  189.0790  178.0960  139.7230 C   0  0  2  0  0  3  0  0  0  0  0  0
  188.9910  175.0020  136.2920 C   0  0  0  0  0  0  0  0  0  0  0  0
  186.6700  174.6940  135.4090 C   0  0  0  0  0  0  0  0  0  0  0  0
  189.8460  175.5550  137.2490 C   0  0  0  0  0  3  0  0  0  0  0  0
  185.3850  175.2200  135.2730 C   0  0  0  0  0  3  0  0  0  0  0  0
  186.9470  173.4690  134.7200 N   0  0  0  0  0  2  0  0  0  0  0  0
  187.0990  170.9580  134.4760 C   0  0  0  0  0  1  0  0  0  0  0  0
  186.8290  172.1650  135.3010 C   0  0  0  0  0  0  0  0  0  0  0  0
  186.5110  172.0260  136.5130 O   0  0  0  0  0  0  0  0  0  0  0  0
  185.5420  178.2210  137.4180 O   0  0  0  0  0  0  0  0  0  0  0  0
  183.9590  178.8930  140.4810 C   0  0  2  0  0  3  0  0  0  0  0  0
  183.7320  180.6320  138.8440 O   0  0  0  0  0  1  0  0  0  0  0  0
  184.4710  179.5050  139.1960 C   0  0  2  0  0  3  0  0  0  0  0  0
  184.9780  179.1170  141.5830 C   0  0  0  0  0  1  0  0  0  0  0  0
  183.8530  177.4900  140.1990 N   0  0  0  0  0  2  0  0  0  0  0  0
  184.3150  178.4150  138.1370 C   0  0  2  0  0  3  0  0  0  0  0  0
  184.0210  177.2120  138.9640 C   0  0  0  0  0  2  0  0  0  0  0  0
  188.8420  177.7190  141.1880 C   0  0  0  0  0  2  0  0  0  0  0  0
  190.0220  175.9480  142.2540 N   0  0  0  0  0  2  0  0  0  0  0  0
  190.1870  178.0430  143.1600 C   0  0  0  0  0  2  0  0  0  0  0  0
  190.0680  177.3130  141.9060 N   0  0  0  0  0  0  0  0  0  0  0  0
  190.9420  177.0950  144.0450 C   0  0  2  0  0  3  0  0  0  0  0  0
  190.8040  175.7850  143.4180 N   0  0  0  0  0  2  0  0  0  0  0  0
  190.3700  177.0660  145.4340 C   0  0  0  0  0  0  0  0  0  0  0  0
  189.1090  177.3150  145.5820 N   0  0  0  0  0  0  0  0  0  0  0  0
  192.0570  175.7160  146.4400 O   0  0  0  0  0  1  0  0  0  0  0  0
  191.2840  176.8670  146.6170 C   0  0  0  0  0  2  0  0  0  0  0  0
  188.4760  177.4240  146.8770 C   0  0  0  0  0  2  0  0  0  0  0  0
  186.6060  177.7220  145.2990 C   0  0  0  0  0  2  0  0  0  0  0  0
  186.9600  177.4320  146.7250 C   0  0  2  0  0  3  0  0  0  0  0  0
  185.2870  179.1660  146.6810 N   0  0  0  0  0  2  0  0  0  0  0  0
  185.3040  178.4720  145.3990 C   0  0  0  0  0  2  0  0  0  0  0  0
  186.3780  178.6100  147.4770 C   0  0  0  0  0  2  0  0  0  0  0  0
  183.6800  176.9290  135.7720 N   0  0  0  0  0  2  0  0  0  0  0  0
  182.4920  174.9520  136.2650 O   0  0  0  0  0  0  0  0  0  0  0  0
  180.5380  175.8800  136.8200 N   0  0  0  0  0  0  0  0  0  0  0  0
  181.3040  174.8600  136.9600 C   0  0  0  0  0  0  0  0  0  0  0  0
  182.4810  176.1460  135.4990 C   0  0  1  0  0  3  0  0  0  0  0  0
  181.2250  176.8720  136.0010 C   0  0  0  0  0  2  0  0  0  0  0  0
  181.4110  172.4220  137.3140 C   0  0  0  0  0  1  0  0  0  0  0  0
  180.9300  173.7110  137.6630 O   0  0  0  0  0  0  0  0  0  0  0  0
  1  4  1  0  0  0  0
  1 19  1  0  0  0  0
  2 10  1  0  0  0  0
  3  6  1  0  0  0  0
  4  5  2  0  0  0  0
  5  3  1  0  0  0  0
  5  2  1  0  0  0  0
  6 10  1  0  0  0  0
  7  1  2  0  0  0  0
  8 11  2  0  0  0  0
  8  4  1  0  0  0  0
  9 11  1  0  0  0  0
 10 27  1  1  0  0  0
 11 13  1  0  0  0  0
 12  8  1  0  0  0  0
 13  3  2  0  0  0  0
 14 12  2  0  0  0  0
 14  7  1  0  0  0  0
 15 17  1  0  0  0  0
 15 12  1  0  0  0  0
 16 17  1  0  0  0  0
 17 18  2  0  0  0  0
 20 23  1  1  0  0  0
 22 21  1  6  0  0  0
 22 20  1  0  0  0  0
 24 20  1  0  0  0  0
 25 19  1  1  0  0  0
 25 26  1  0  0  0  0
 25 22  1  0  0  0  0
 26 24  1  0  0  0  0
 27 30  1  0  0  0  0
 28 32  1  0  0  0  0
 29 31  1  0  0  0  0
 30 28  1  0  0  0  0
 30 29  1  0  0  0  0
 31 33  1  1  0  0  0
 32 31  1  0  0  0  0
 33 34  2  0  0  0  0
 33 36  1  0  0  0  0
 34 37  1  0  0  0  0
 35 36  1  0  0  0  0
 38 41  1  0  0  0  0
 38 39  1  0  0  0  0
 39 37  1  6  0  0  0
 39 42  1  0  0  0  0
 40 42  1  0  0  0  0
 41 40  1  0  0  0  0
 43  7  1  0  0  0  0
 44 46  1  0  0  0  0
 45 46  2  0  0  0  0
 46 50  1  0  0  0  0
 47 43  1  1  0  0  0
 47 48  1  0  0  0  0
 47 44  1  0  0  0  0
 48 45  1  0  0  0  0
 49 50  1  0  0  0  0
M  END
>  <MODEL>
8

>  <REMARK>
 VINA RESULT:      -7.6      2.541      4.193
  Name = 
  12 active torsions:
  status: ('A' for Active; 'I' for Inactive)
    1  A    between atoms: C_1  and  O_10
    2  A    between atoms: N_2  and  C_39
    3  A    between atoms: CA_3  and  C_37
    4  A    between atoms: CA_3  and  C_46
    5  A    between atoms: C_8  and  C_15
    6  A    between atoms: C_8  and  N_25
    7  A    between atoms: O_10  and  C_41
    8  A    between atoms: C_12  and  N_34
    9  A    between atoms: C_12  and  C_35
   10  A    between atoms: C_19  and  N_21
   11  A    between atoms: N_21  and  C_49
   12  A    between atoms: O_28  and  C_47
                            x       y       z     vdW  Elec       q    Type
                         _______ _______ _______ _____ _____    ______ ____

>  <TORSDO>
F 12

$$$$
=
 OpenBabel10232410413D

 50 56  0  0  1  0  0  0  0  0999 V2000
  190.0060  174.8150  136.8030 C   0  0  0  0  0  0  0  0  0  0  0  0
  190.0590  176.1880  139.4630 C   0  0  0  0  0  2  0  0  0  0  0  0
  192.1790  176.7230  139.1510 C   0  0  0  0  0  0  0  0  0  0  0  0
  191.1540  175.3690  137.4150 C   0  0  0  0  0  0  0  0  0  0  0  0
  191.0970  176.0530  138.6460 C   0  0  0  0  0  0  0  0  0  0  0  0
  191.9160  177.3010  140.3060 C   0  0  0  0  0  2  0  0  0  0  0  0
  190.1330  174.0500  135.6380 C   0  0  0  0  0  0  0  0  0  0  0  0
  192.4180  175.2990  136.7580 C   0  0  0  0  0  0  0  0  0  0  0  0
  194.6280  176.3180  136.4800 O   0  0  0  0  0  1  0  0  0  0  0  0
  190.4830  177.0160  140.6380 C   0  0  2  0  0  3  0  0  0  0  0  0
  193.4800  176.1220  137.2350 C   0  0  0  0  0  0  0  0  0  0  0  0
  192.5350  174.4750  135.6050 C   0  0  0  0  0  0  0  0  0  0  0  0
  193.3710  176.8030  138.4510 C   0  0  0  0  0  3  0  0  0  0  0  0
  191.3960  173.8750  135.0680 C   0  0  0  0  0  3  0  0  0  0  0  0
  193.7890  174.1540  134.9930 N   0  0  0  0  0  2  0  0  0  0  0  0
  195.9260  172.8370  134.6960 C   0  0  0  0  0  1  0  0  0  0  0  0
  194.6680  173.1140  135.4380 C   0  0  0  0  0  0  0  0  0  0  0  0
  194.3940  172.4330  136.4640 O   0  0  0  0  0  0  0  0  0  0  0  0
  188.7280  175.1480  137.2800 O   0  0  0  0  0  0  0  0  0  0  0  0
  188.0000  178.5250  136.6370 C   0  0  2  0  0  3  0  0  0  0  0  0
  188.8260  177.3090  134.7410 O   0  0  0  0  0  1  0  0  0  0  0  0
  188.7330  177.3020  136.1310 C   0  0  2  0  0  3  0  0  0  0  0  0
  188.9820  179.4390  137.3460 C   0  0  0  0  0  1  0  0  0  0  0  0
  187.0470  178.0130  137.5810 N   0  0  0  0  0  2  0  0  0  0  0  0
  187.9040  176.1080  136.6010 C   0  0  2  0  0  3  0  0  0  0  0  0
  186.9660  176.7390  137.5710 C   0  0  0  0  0  2  0  0  0  0  0  0
  190.4030  176.1770  141.9170 C   0  0  0  0  0  2  0  0  0  0  0  0
  190.1440  176.1640  144.2820 N   0  0  0  0  0  2  0  0  0  0  0  0
  189.2490  177.9180  143.1160 C   0  0  0  0  0  2  0  0  0  0  0  0
  190.3630  176.9810  143.1560 N   0  0  0  0  0  0  0  0  0  0  0  0
  188.8880  178.0900  144.5620 C   0  0  2  0  0  3  0  0  0  0  0  0
  189.4850  176.9510  145.2510 N   0  0  0  0  0  2  0  0  0  0  0  0
  187.3990  178.0920  144.7610 C   0  0  0  0  0  0  0  0  0  0  0  0
  186.6430  177.9140  143.7270 N   0  0  0  0  0  0  0  0  0  0  0  0
  187.4170  177.6060  147.0950 O   0  0  0  0  0  1  0  0  0  0  0  0
  186.8240  178.4110  146.1190 C   0  0  0  0  0  2  0  0  0  0  0  0
  185.2020  178.0070  143.7810 C   0  0  0  0  0  2  0  0  0  0  0  0
  183.6760  178.1870  141.8540 C   0  0  0  0  0  2  0  0  0  0  0  0
  184.6890  178.9220  142.6760 C   0  0  2  0  0  3  0  0  0  0  0  0
  185.2320  179.2080  140.3450 N   0  0  0  0  0  2  0  0  0  0  0  0
  183.8480  178.7650  140.4740 C   0  0  0  0  0  2  0  0  0  0  0  0
  185.8020  179.2070  141.6900 C   0  0  0  0  0  2  0  0  0  0  0  0
  188.9620  173.4820  135.0420 N   0  0  0  0  0  2  0  0  0  0  0  0
  187.2060  172.5930  136.3410 O   0  0  0  0  0  0  0  0  0  0  0  0
  186.2970  171.2670  134.7910 N   0  0  0  0  0  0  0  0  0  0  0  0
  186.0920  171.9290  135.8720 C   0  0  0  0  0  0  0  0  0  0  0  0
  188.3140  172.2660  135.5170 C   0  0  1  0  0  3  0  0  0  0  0  0
  187.6700  171.4970  134.3550 C   0  0  0  0  0  2  0  0  0  0  0  0
  183.7840  171.1050  136.1470 C   0  0  0  0  0  1  0  0  0  0  0  0
  184.8830  171.8970  136.5720 O   0  0  0  0  0  0  0  0  0  0  0  0
  1 19  1  0  0  0  0
  1  4  1  0  0  0  0
  2 10  1  0  0  0  0
  3  6  1  0  0  0  0
  4  5  2  0  0  0  0
  5  3  1  0  0  0  0
  5  2  1  0  0  0  0
  6 10  1  0  0  0  0
  7  1  2  0  0  0  0
  8 11  2  0  0  0  0
  8  4  1  0  0  0  0
  9 11  1  0  0  0  0
 10 27  1  1  0  0  0
 11 13  1  0  0  0  0
 12  8  1  0  0  0  0
 13  3  2  0  0  0  0
 14 12  2  0  0  0  0
 14  7  1  0  0  0  0
 15 17  1  0  0  0  0
 15 12  1  0  0  0  0
 16 17  1  0  0  0  0
 17 18  2  0  0  0  0
 20 23  1  1  0  0  0
 20 24  1  0  0  0  0
 22 21  1  6  0  0  0
 22 25  1  0  0  0  0
 22 20  1  0  0  0  0
 25 19  1  1  0  0  0
 25 26  1  0  0  0  0
 26 24  1  0  0  0  0
 27 30  1  0  0  0  0
 28 32  1  0  0  0  0
 29 30  1  0  0  0  0
 29 31  1  0  0  0  0
 30 28  1  0  0  0  0
 31 33  1  6  0  0  0
 31 32  1  0  0  0  0
 33 36  1  0  0  0  0
 34 37  1  0  0  0  0
 34 33  2  0  0  0  0
 36 35  1  0  0  0  0
 38 39  1  0  0  0  0
 39 37  1  1  0  0  0
 40 41  1  0  0  0  0
 40 42  1  0  0  0  0
 41 38  1  0  0  0  0
 42 39  1  0  0  0  0
 43  7  1  0  0  0  0
 45 46  2  0  0  0  0
 46 44  1  0  0  0  0
 46 50  1  0  0  0  0
 47 43  1  6  0  0  0
 47 44  1  0  0  0  0
 48 45  1  0  0  0  0
 48 47  1  0  0  0  0
 49 50  1  0  0  0  0
M  END
>  <MODEL>
9

>  <REMARK>
 VINA RESULT:      -7.3      1.309      1.626
  Name = 
  12 active torsions:
  status: ('A' for Active; 'I' for Inactive)
    1  A    between atoms: C_1  and  O_10
    2  A    between atoms: N_2  and  C_39
    3  A    between atoms: CA_3  and  C_37
    4  A    between atoms: CA_3  and  C_46
    5  A    between atoms: C_8  and  C_15
    6  A    between atoms: C_8  and  N_25
    7  A    between atoms: O_10  and  C_41
    8  A    between atoms: C_12  and  N_34
    9  A    between atoms: C_12  and  C_35
   10  A    between atoms: C_19  and  N_21
   11  A    between atoms: N_21  and  C_49
   12  A    between atoms: O_28  and  C_47
                            x       y       z     vdW  Elec       q    Type
                         _______ _______ _______ _____ _____    ______ ____

>  <TORSDO>
F 12

$$$$
