=
 OpenBabel10232410113D

 66 73  0  0  1  0  0  0  0  0999 V2000
  185.6430  174.2560  136.4420 C   0  0  0  0  0  3  0  0  0  0  0  0
  184.0290  172.6420  136.6580 C   0  0  0  0  0  0  0  0  0  0  0  0
  180.5970  175.6190  137.8910 C   0  0  0  0  0  3  0  0  0  0  0  0
  184.0520  170.1470  136.2810 C   0  0  0  0  0  1  0  0  0  0  0  0
  184.3020  176.3560  137.1540 C   0  0  0  0  0  0  0  0  0  0  0  0
  182.0230  171.2590  136.9980 N   0  0  0  0  0  0  0  0  0  0  0  0
  183.5130  173.9410  137.0390 C   0  0  0  0  0  0  0  0  0  0  0  0
  181.1390  173.5020  137.5190 C   0  0  0  0  0  0  0  0  0  0  0  0
  185.3610  172.8970  136.2880 C   0  0  0  0  0  0  0  0  0  0  0  0
  181.9240  175.5800  137.6520 N   0  0  0  0  0  0  0  0  0  0  0  0
  183.3420  171.4090  136.6710 C   0  0  0  0  0  0  0  0  0  0  0  0
  181.0380  172.1260  137.3630 C   0  0  0  0  0  3  0  0  0  0  0  0
  182.2410  174.3010  137.3930 C   0  0  0  0  0  0  0  0  0  0  0  0
  180.0730  174.3320  137.8310 C   0  0  0  0  0  3  0  0  0  0  0  0
  182.8380  176.7340  137.6000 C   0  0  0  0  0  0  0  0  0  0  0  0
  184.5010  174.8750  136.9090 C   0  0  0  0  0  0  0  0  0  0  0  0
  186.3320  171.6150  134.3460 C   0  0  0  0  0  1  0  0  0  0  0  0
  186.3640  171.8730  135.8520 C   0  0  0  0  0  2  0  0  0  0  0  0
  182.7560  177.5290  138.9120 C   0  0  0  0  0  2  0  0  0  0  0  0
  181.5310  178.4360  138.9290 C   0  0  2  0  0  3  0  0  0  0  0  0
  181.7250  179.6620  138.0170 C   0  0  2  0  0  3  0  0  0  0  0  0
  182.8140  180.6580  138.4260 C   0  0  0  0  0  1  0  0  0  0  0  0
  180.5300  180.2330  137.5190 O   0  0  0  0  0  0  0  0  0  0  0  0
  180.6680  181.6300  137.5070 C   0  0  0  0  0  1  0  0  0  0  0  0
  181.1550  178.7760  140.3420 C   0  0  0  0  0  3  0  0  0  0  0  0
  182.0230  178.7260  141.3550 C   0  0  0  0  0  3  0  0  0  0  0  0
  181.5860  179.0270  142.7510 C   0  0  0  0  0  2  0  0  0  0  0  0
  183.3760  180.0480  144.1760 C   0  0  0  0  0  2  0  0  0  0  0  0
  183.9520  177.6960  142.9530 S   0  0  0  0  0  0  0  0  0  0  0  0
  182.7090  178.7530  143.7450 C   0  0  2  0  0  3  0  0  0  0  0  0
  185.3570  178.7530  143.4750 C   0  0  2  0  0  0  0  0  0  0  0  0
  184.8140  179.7180  144.5180 C   0  0  0  0  0  2  0  0  0  0  0  0
  185.0810  179.1370  140.9330 C   0  0  0  0  0  2  0  0  0  0  0  0
  186.5740  178.9790  141.1500 C   0  0  0  0  0  2  0  0  0  0  0  0
  185.7150  179.6080  142.2230 C   0  0  0  0  0  3  0  0  0  0  0  0
  186.4080  177.9030  144.1140 N   0  0  0  0  0  0  0  0  0  0  0  0
  187.5590  177.5130  143.3900 N   0  0  0  0  0  0  0  0  0  0  0  0
  188.0620  176.3470  143.4840 N   0  0  0  0  0  0  0  0  0  0  0  0
  189.2070  175.9710  142.6670 C   0  0  0  0  0  2  0  0  0  0  0  0
  190.4450  176.7270  143.1430 C   0  0  1  0  0  3  0  0  0  0  0  0
  191.0240  178.7900  144.1390 C   0  0  0  0  0  2  0  0  0  0  0  0
  190.2780  178.2080  142.9650 C   0  0  0  0  0  2  0  0  0  0  0  0
  190.6580  176.5270  144.6250 C   0  0  0  0  0  2  0  0  0  0  0  0
  190.9900  177.8160  145.2250 N   0  0  0  0  0  2  0  0  0  0  0  0
  186.3910  177.4870  145.5100 C   0  0  0  0  0  2  0  0  0  0  0  0
  187.5590  177.8990  146.1490 O   0  0  0  0  0  1  0  0  0  0  0  0
  185.3780  176.8810  138.0990 C   0  0  0  0  0  2  0  0  0  0  0  0
  186.0810  178.1020  137.5080 C   0  0  0  0  0  2  0  0  0  0  0  0
  186.9120  177.7390  136.2810 C   0  0  0  0  0  2  0  0  0  0  0  0
  190.3890  176.2730  135.8450 C   0  0  1  0  0  3  0  0  0  0  0  0
  189.1420  178.1650  137.1210 O   0  0  0  0  0  0  0  0  0  0  0  0
  188.2570  177.1540  136.6980 C   0  0  2  0  0  3  0  0  0  0  0  0
  188.8910  176.3720  135.5560 C   0  0  0  0  0  2  0  0  0  0  0  0
  190.2540  177.5530  137.7640 C   0  0  2  0  0  3  0  0  0  0  0  0
  190.6280  176.2810  137.2350 O   0  0  0  0  0  0  0  0  0  0  0  0
  189.4930  178.6190  139.7610 F   0  0  0  0  0  0  0  0  0  0  0  0
  189.1380  176.4130  139.5120 F   0  0  0  0  0  0  0  0  0  0  0  0
  190.0220  177.4430  139.2650 C   0  0  0  0  0  0  0  0  0  0  0  0
  191.2220  177.1720  139.9070 F   0  0  0  0  0  0  0  0  0  0  0  0
  190.2990  174.0630  134.9830 O   0  0  0  0  0  0  0  0  0  0  0  0
  190.9870  175.0510  135.2050 C   0  0  0  0  0  0  0  0  0  0  0  0
  192.4340  175.0500  134.8040 C   0  0  0  0  0  2  0  0  0  0  0  0
  193.2790  175.8980  135.7550 C   0  0  1  0  0  3  0  0  0  0  0  0
  193.7750  175.0970  136.7880 O   0  0  0  0  0  1  0  0  0  0  0  0
  194.4500  176.5080  135.0100 C   0  0  0  0  0  2  0  0  0  0  0  0
  195.6190  176.3970  135.7620 O   0  0  0  0  0  1  0  0  0  0  0  0
  1 16  1  0  0  0  0
  2 11  2  0  0  0  0
  2  7  1  0  0  0  0
  4 11  1  0  0  0  0
  5 15  2  0  0  0  0
  5 47  1  0  0  0  0
  6 12  2  0  0  0  0
  7 13  1  0  0  0  0
  8 14  1  0  0  0  0
  9  1  2  0  0  0  0
  9  2  1  0  0  0  0
 10  3  1  0  0  0  0
 11  6  1  0  0  0  0
 12  8  1  0  0  0  0
 13  8  2  0  0  0  0
 13 10  1  0  0  0  0
 14  3  2  0  0  0  0
 15 10  1  0  0  0  0
 15 19  1  0  0  0  0
 16  7  2  0  0  0  0
 16  5  1  0  0  0  0
 17 18  1  0  0  0  0
 18  9  1  0  0  0  0
 20 19  1  1  0  0  0
 20 25  1  0  0  0  0
 21 22  1  1  0  0  0
 21 20  1  0  0  0  0
 23 21  1  0  0  0  0
 24 23  1  0  0  0  0
 25 26  2  0  0  0  0
 26 27  1  0  0  0  0
 28 32  1  0  0  0  0
 29 31  1  0  0  0  0
 29 30  1  0  0  0  0
 30 27  1  6  0  0  0
 30 28  1  0  0  0  0
 31 36  1  1  0  0  0
 31 32  1  0  0  0  0
 33 34  1  0  0  0  0
 33 35  1  0  0  0  0
 34 35  1  0  0  0  0
 35 31  1  0  0  0  0
 36 45  1  0  0  0  0
 37 38  2  0  0  0  0
 37 36  1  0  0  0  0
 39 38  1  0  0  0  0
 40 39  1  1  0  0  0
 40 43  1  0  0  0  0
 41 44  1  0  0  0  0
 42 40  1  0  0  0  0
 42 41  1  0  0  0  0
 43 44  1  0  0  0  0
 45 46  1  0  0  0  0
 48 47  1  0  0  0  0
 49 48  1  0  0  0  0
 50 61  1  1  0  0  0
 50 55  1  0  0  0  0
 51 54  1  0  0  0  0
 52 49  1  6  0  0  0
 52 51  1  0  0  0  0
 53 50  1  0  0  0  0
 53 52  1  0  0  0  0
 54 58  1  1  0  0  0
 55 54  1  0  0  0  0
 58 57  1  0  0  0  0
 58 56  1  0  0  0  0
 58 59  1  0  0  0  0
 60 61  2  0  0  0  0
 62 61  1  0  0  0  0
 62 63  1  0  0  0  0
 63 64  1  1  0  0  0
 65 63  1  0  0  0  0
 65 66  1  0  0  0  0
M  END
>  <MODEL>
1

>  <REMARK>
 VINA RESULT:      -5.8      0.000      0.000
  Name = 
  23 active torsions:
  status: ('A' for Active; 'I' for Inactive)
    1  A    between atoms: C_1  and  C_5
    2  A    between atoms: C_1  and  C_27
    3  A    between atoms: N_2  and  N_11
    4  A    between atoms: C_5  and  C_37
    5  A    between atoms: C_7  and  C_10
    6  A    between atoms: C_7  and  N_59
    7  A    between atoms: C_9  and  N_11
    8  A    between atoms: N_11  and  C_54
    9  A    between atoms: C_12  and  C_53
   10  A    between atoms: C_12  and  C_64
   11  A    between atoms: C_13  and  C_53
   12  A    between atoms: C_23  and  C_37
   13  A    between atoms: C_24  and  C_38
   14  A    between atoms: C_24  and  C_56
   15  A    between atoms: C_28  and  C_36
   16  A    between atoms: C_28  and  C_46
   17  A    between atoms: C_30  and  C_51
   18  A    between atoms: C_35  and  C_61
   19  A    between atoms: O_41  and  C_44
   20  A    between atoms: C_42  and  C_54
   21  A    between atoms: C_44  and  C_53
   22  A    between atoms: C_47  and  C_50
   23  A    between atoms: C_51  and  C_56
                            x       y       z     vdW  Elec       q    Type
                         _______ _______ _______ _____ _____    ______ ____

>  <TORSDO>
F 23

$$$$
=
 OpenBabel10232410113D

 66 73  0  0  1  0  0  0  0  0999 V2000
  191.1630  172.0220  135.5710 C   0  0  0  0  0  3  0  0  0  0  0  0
  193.3990  172.5150  135.6840 C   0  0  0  0  0  0  0  0  0  0  0  0
  192.8820  176.2520  138.5000 C   0  0  0  0  0  3  0  0  0  0  0  0
  195.4420  171.3960  134.7130 C   0  0  0  0  0  1  0  0  0  0  0  0
  190.1850  173.9670  136.9760 C   0  0  0  0  0  0  0  0  0  0  0  0
  195.6670  173.3860  136.0760 N   0  0  0  0  0  0  0  0  0  0  0  0
  192.6170  173.5070  136.3930 C   0  0  0  0  0  0  0  0  0  0  0  0
  194.3180  174.9870  137.3790 C   0  0  0  0  0  0  0  0  0  0  0  0
  192.4430  171.6080  135.1960 C   0  0  0  0  0  0  0  0  0  0  0  0
  192.1630  175.3550  137.7950 N   0  0  0  0  0  0  0  0  0  0  0  0
  194.8010  172.4860  135.5200 C   0  0  0  0  0  0  0  0  0  0  0  0
  195.5070  174.4720  136.8840 C   0  0  0  0  0  3  0  0  0  0  0  0
  193.0370  174.5700  137.1460 C   0  0  0  0  0  0  0  0  0  0  0  0
  194.2380  176.0620  138.2530 C   0  0  0  0  0  3  0  0  0  0  0  0
  190.6970  175.2090  137.8020 C   0  0  0  0  0  0  0  0  0  0  0  0
  191.2920  173.1900  136.2970 C   0  0  0  0  0  0  0  0  0  0  0  0
  191.8720  169.1970  134.7300 C   0  0  0  0  0  1  0  0  0  0  0  0
  192.7230  170.4060  134.3460 C   0  0  0  0  0  2  0  0  0  0  0  0
  190.0340  176.5430  137.4260 C   0  0  0  0  0  2  0  0  0  0  0  0
  188.9580  176.9250  138.4350 C   0  0  2  0  0  3  0  0  0  0  0  0
  188.2590  178.2410  138.0420 C   0  0  2  0  0  3  0  0  0  0  0  0
  189.1650  179.4440  137.7610 C   0  0  0  0  0  1  0  0  0  0  0  0
  187.0710  178.5240  138.7560 O   0  0  0  0  0  0  0  0  0  0  0  0
  185.9780  178.0280  138.0290 C   0  0  0  0  0  1  0  0  0  0  0  0
  189.5250  176.9240  139.8250 C   0  0  0  0  0  3  0  0  0  0  0  0
  190.7810  177.2870  140.0970 C   0  0  0  0  0  3  0  0  0  0  0  0
  191.3110  177.2210  141.4910 C   0  0  0  0  0  2  0  0  0  0  0  0
  191.0540  178.9850  143.2510 C   0  0  0  0  0  2  0  0  0  0  0  0
  189.7440  176.6420  143.6400 S   0  0  0  0  0  0  0  0  0  0  0  0
  190.3520  177.8870  142.4710 C   0  0  2  0  0  3  0  0  0  0  0  0
  190.0860  177.6840  145.1110 C   0  0  2  0  0  0  0  0  0  0  0  0
  190.3670  179.0870  144.5960 C   0  0  0  0  0  2  0  0  0  0  0  0
  191.9350  175.8770  145.0440 C   0  0  0  0  0  2  0  0  0  0  0  0
  191.4030  175.8480  146.4640 C   0  0  0  0  0  2  0  0  0  0  0  0
  191.4280  177.1470  145.6920 C   0  0  0  0  0  3  0  0  0  0  0  0
  188.8700  177.7300  145.9800 N   0  0  0  0  0  0  0  0  0  0  0  0
  187.6370  178.2040  145.4730 N   0  0  0  0  0  0  0  0  0  0  0  0
  186.5170  177.7370  145.8560 N   0  0  0  0  0  0  0  0  0  0  0  0
  185.2730  178.3050  145.3560 C   0  0  0  0  0  2  0  0  0  0  0  0
  185.1220  177.9790  143.8720 C   0  0  1  0  0  3  0  0  0  0  0  0
  184.4370  179.0140  141.8610 C   0  0  0  0  0  2  0  0  0  0  0  0
  183.9710  178.7280  143.2660 C   0  0  0  0  0  2  0  0  0  0  0  0
  186.3390  178.4300  143.0980 C   0  0  0  0  0  2  0  0  0  0  0  0
  185.8940  179.0880  141.8730 N   0  0  0  0  0  2  0  0  0  0  0  0
  188.8190  177.2280  147.3470 C   0  0  0  0  0  2  0  0  0  0  0  0
  189.1480  178.2420  148.2450 O   0  0  0  0  0  1  0  0  0  0  0  0
  189.0940  174.3170  135.9690 C   0  0  0  0  0  2  0  0  0  0  0  0
  187.7190  173.8870  136.4760 C   0  0  0  0  0  2  0  0  0  0  0  0
  187.3720  172.4680  136.0380 C   0  0  0  0  0  2  0  0  0  0  0  0
  183.6790  173.3400  136.1940 C   0  0  1  0  0  3  0  0  0  0  0  0
  185.3360  171.8010  134.9120 O   0  0  0  0  0  0  0  0  0  0  0  0
  185.8700  172.2260  136.1440 C   0  0  2  0  0  3  0  0  0  0  0  0
  185.1450  173.4830  136.6030 C   0  0  0  0  0  2  0  0  0  0  0  0
  184.0170  171.3150  135.1340 C   0  0  2  0  0  3  0  0  0  0  0  0
  183.2990  171.9810  136.1720 O   0  0  0  0  0  0  0  0  0  0  0  0
  185.3190  169.3280  135.3780 F   0  0  0  0  0  0  0  0  0  0  0  0
  183.4620  169.5620  136.6230 F   0  0  0  0  0  0  0  0  0  0  0  0
  184.0250  169.8140  135.3900 C   0  0  0  0  0  0  0  0  0  0  0  0
  183.2810  169.1670  134.4130 F   0  0  0  0  0  0  0  0  0  0  0  0
  181.5620  174.0470  137.0050 O   0  0  0  0  0  0  0  0  0  0  0  0
  182.7800  174.1320  137.1030 C   0  0  0  0  0  0  0  0  0  0  0  0
  183.3780  175.0110  138.1640 C   0  0  0  0  0  2  0  0  0  0  0  0
  182.3810  176.0670  138.6420 C   0  0  1  0  0  3  0  0  0  0  0  0
  182.7390  176.5130  139.9180 O   0  0  0  0  0  1  0  0  0  0  0  0
  182.3840  177.2520  137.6960 C   0  0  0  0  0  2  0  0  0  0  0  0
  181.7440  178.3450  138.2800 O   0  0  0  0  0  1  0  0  0  0  0  0
  1 16  1  0  0  0  0
  2  7  1  0  0  0  0
  4 11  1  0  0  0  0
  5 15  2  0  0  0  0
  6 12  2  0  0  0  0
  7 13  1  0  0  0  0
  8 14  1  0  0  0  0
  9  1  2  0  0  0  0
  9  2  1  0  0  0  0
 10 15  1  0  0  0  0
 10  3  1  0  0  0  0
 11  2  2  0  0  0  0
 11  6  1  0  0  0  0
 12  8  1  0  0  0  0
 13  8  2  0  0  0  0
 13 10  1  0  0  0  0
 14  3  2  0  0  0  0
 16  7  2  0  0  0  0
 16  5  1  0  0  0  0
 18 17  1  0  0  0  0
 18  9  1  0  0  0  0
 19 15  1  0  0  0  0
 20 19  1  6  0  0  0
 20 25  1  0  0  0  0
 21 22  1  1  0  0  0
 21 20  1  0  0  0  0
 21 23  1  0  0  0  0
 24 23  1  0  0  0  0
 25 26  2  0  0  0  0
 26 27  1  0  0  0  0
 28 32  1  0  0  0  0
 29 31  1  0  0  0  0
 30 27  1  6  0  0  0
 30 28  1  0  0  0  0
 30 29  1  0  0  0  0
 31 35  1  0  0  0  0
 31 36  1  1  0  0  0
 32 31  1  0  0  0  0
 33 35  1  0  0  0  0
 33 34  1  0  0  0  0
 35 34  1  0  0  0  0
 36 45  1  0  0  0  0
 37 38  2  0  0  0  0
 37 36  1  0  0  0  0
 39 38  1  0  0  0  0
 40 39  1  1  0  0  0
 41 44  1  0  0  0  0
 41 42  1  0  0  0  0
 42 40  1  0  0  0  0
 43 40  1  0  0  0  0
 44 43  1  0  0  0  0
 45 46  1  0  0  0  0
 47 48  1  0  0  0  0
 47  5  1  0  0  0  0
 49 48  1  0  0  0  0
 50 53  1  0  0  0  0
 50 61  1  1  0  0  0
 51 54  1  0  0  0  0
 51 52  1  0  0  0  0
 52 49  1  6  0  0  0
 52 53  1  0  0  0  0
 54 58  1  1  0  0  0
 54 55  1  0  0  0  0
 55 50  1  0  0  0  0
 56 58  1  0  0  0  0
 58 57  1  0  0  0  0
 59 58  1  0  0  0  0
 60 61  2  0  0  0  0
 61 62  1  0  0  0  0
 62 63  1  0  0  0  0
 63 64  1  1  0  0  0
 65 66  1  0  0  0  0
 65 63  1  0  0  0  0
M  END
>  <MODEL>
2

>  <REMARK>
 VINA RESULT:      -5.8      3.726      8.580
  Name = 
  23 active torsions:
  status: ('A' for Active; 'I' for Inactive)
    1  A    between atoms: C_1  and  C_5
    2  A    between atoms: C_1  and  C_27
    3  A    between atoms: N_2  and  N_11
    4  A    between atoms: C_5  and  C_37
    5  A    between atoms: C_7  and  C_10
    6  A    between atoms: C_7  and  N_59
    7  A    between atoms: C_9  and  N_11
    8  A    between atoms: N_11  and  C_54
    9  A    between atoms: C_12  and  C_53
   10  A    between atoms: C_12  and  C_64
   11  A    between atoms: C_13  and  C_53
   12  A    between atoms: C_23  and  C_37
   13  A    between atoms: C_24  and  C_38
   14  A    between atoms: C_24  and  C_56
   15  A    between atoms: C_28  and  C_36
   16  A    between atoms: C_28  and  C_46
   17  A    between atoms: C_30  and  C_51
   18  A    between atoms: C_35  and  C_61
   19  A    between atoms: O_41  and  C_44
   20  A    between atoms: C_42  and  C_54
   21  A    between atoms: C_44  and  C_53
   22  A    between atoms: C_47  and  C_50
   23  A    between atoms: C_51  and  C_56
                            x       y       z     vdW  Elec       q    Type
                         _______ _______ _______ _____ _____    ______ ____

>  <TORSDO>
F 23

$$$$
=
 OpenBabel10232410113D

 66 73  0  0  1  0  0  0  0  0999 V2000
  190.6810  177.6280  138.9410 C   0  0  0  0  0  3  0  0  0  0  0  0
  190.7470  175.8200  137.5330 C   0  0  0  0  0  0  0  0  0  0  0  0
  186.2660  176.1940  136.1330 C   0  0  0  0  0  3  0  0  0  0  0  0
  192.5960  174.2310  136.8840 C   0  0  0  0  0  1  0  0  0  0  0  0
  188.1960  178.3190  138.6980 C   0  0  0  0  0  0  0  0  0  0  0  0
  190.3800  173.9840  135.9350 N   0  0  0  0  0  0  0  0  0  0  0  0
  189.4120  176.3800  137.5900 C   0  0  0  0  0  0  0  0  0  0  0  0
  188.1510  175.0370  135.9580 C   0  0  0  0  0  0  0  0  0  0  0  0
  191.5000  176.6400  138.3890 C   0  0  0  0  0  0  0  0  0  0  0  0
  187.1440  176.7180  137.0140 N   0  0  0  0  0  0  0  0  0  0  0  0
  191.1740  174.6990  136.7890 C   0  0  0  0  0  0  0  0  0  0  0  0
  189.0810  174.0950  135.5430 C   0  0  0  0  0  3  0  0  0  0  0  0
  188.2940  176.0370  136.8790 C   0  0  0  0  0  0  0  0  0  0  0  0
  186.8580  175.1270  135.4630 C   0  0  0  0  0  3  0  0  0  0  0  0
  186.9130  177.8750  137.8960 C   0  0  0  0  0  0  0  0  0  0  0  0
  189.4060  177.4460  138.4440 C   0  0  0  0  0  0  0  0  0  0  0  0
  193.2950  176.9470  140.1340 C   0  0  0  0  0  1  0  0  0  0  0  0
  192.9500  176.4640  138.7260 C   0  0  0  0  0  2  0  0  0  0  0  0
  185.6690  177.6330  138.7640 C   0  0  0  0  0  2  0  0  0  0  0  0
  184.6800  178.7860  138.6400 C   0  0  2  0  0  3  0  0  0  0  0  0
  184.0850  179.1690  140.0090 C   0  0  2  0  0  3  0  0  0  0  0  0
  184.9750  178.9390  141.2340 C   0  0  0  0  0  1  0  0  0  0  0  0
  182.7180  178.8480  140.1780 O   0  0  0  0  0  0  0  0  0  0  0  0
  181.9660  180.0320  140.1180 C   0  0  0  0  0  1  0  0  0  0  0  0
  183.6520  178.4790  137.5890 C   0  0  0  0  0  3  0  0  0  0  0  0
  182.7360  177.5180  137.7310 C   0  0  0  0  0  3  0  0  0  0  0  0
  181.7670  177.2190  136.6340 C   0  0  0  0  0  2  0  0  0  0  0  0
  181.2530  175.7290  134.6870 C   0  0  0  0  0  2  0  0  0  0  0  0
  182.6200  174.6380  136.7610 S   0  0  0  0  0  0  0  0  0  0  0  0
  182.2840  176.0990  135.7400 C   0  0  2  0  0  3  0  0  0  0  0  0
  181.7140  173.5010  135.6420 C   0  0  2  0  0  0  0  0  0  0  0  0
  181.4600  174.2670  134.3530 C   0  0  0  0  0  2  0  0  0  0  0  0
  180.2230  173.7900  137.7340 C   0  0  0  0  0  2  0  0  0  0  0  0
  180.2280  172.2990  137.4540 C   0  0  0  0  0  2  0  0  0  0  0  0
  180.3250  173.2850  136.3120 C   0  0  0  0  0  3  0  0  0  0  0  0
  182.5770  172.3190  135.3310 N   0  0  0  0  0  0  0  0  0  0  0  0
  183.9090  172.2540  135.8030 N   0  0  0  0  0  0  0  0  0  0  0  0
  184.7000  171.3080  135.4830 N   0  0  0  0  0  0  0  0  0  0  0  0
  186.0830  171.3210  135.9380 C   0  0  0  0  0  2  0  0  0  0  0  0
  186.9220  170.4030  135.0520 C   0  0  1  0  0  3  0  0  0  0  0  0
  188.7130  168.8720  135.2280 C   0  0  0  0  0  2  0  0  0  0  0  0
  188.3280  170.2910  135.5640 C   0  0  0  0  0  2  0  0  0  0  0  0
  186.3790  168.9940  135.0730 C   0  0  0  0  0  2  0  0  0  0  0  0
  187.4970  168.0660  135.2060 N   0  0  0  0  0  2  0  0  0  0  0  0
  182.1180  171.1320  134.6210 C   0  0  0  0  0  2  0  0  0  0  0  0
  181.6780  170.1680  135.5270 O   0  0  0  0  0  1  0  0  0  0  0  0
  187.9540  178.4590  140.1980 C   0  0  0  0  0  2  0  0  0  0  0  0
  188.5560  177.2820  140.9640 C   0  0  0  0  0  2  0  0  0  0  0  0
  187.7530  176.9530  142.2190 C   0  0  0  0  0  2  0  0  0  0  0  0
  188.4480  177.4110  145.9240 C   0  0  1  0  0  3  0  0  0  0  0  0
  189.6190  176.6520  143.7310 O   0  0  0  0  0  0  0  0  0  0  0  0
  188.4820  177.4410  143.4650 C   0  0  2  0  0  3  0  0  0  0  0  0
  187.5620  177.4250  144.6780 C   0  0  0  0  0  2  0  0  0  0  0  0
  190.4110  177.3150  144.7100 C   0  0  2  0  0  3  0  0  0  0  0  0
  189.6720  178.0660  145.6720 O   0  0  0  0  0  0  0  0  0  0  0  0
  190.8790  179.3560  143.5610 F   0  0  0  0  0  0  0  0  0  0  0  0
  192.4140  178.5440  144.9880 F   0  0  0  0  0  0  0  0  0  0  0  0
  191.4600  178.2020  144.0520 C   0  0  0  0  0  0  0  0  0  0  0  0
  192.0710  177.5150  143.0130 F   0  0  0  0  0  0  0  0  0  0  0  0
  188.3370  178.7880  147.8550 O   0  0  0  0  0  0  0  0  0  0  0  0
  187.7430  178.0290  147.1000 C   0  0  0  0  0  0  0  0  0  0  0  0
  186.2880  177.7400  147.3350 C   0  0  0  0  0  2  0  0  0  0  0  0
  185.4380  179.0030  147.1940 C   0  0  1  0  0  3  0  0  0  0  0  0
  186.0390  180.0580  147.8890 O   0  0  0  0  0  1  0  0  0  0  0  0
  185.3190  179.3910  145.7330 C   0  0  0  0  0  2  0  0  0  0  0  0
  184.3840  178.5830  145.0870 O   0  0  0  0  0  1  0  0  0  0  0  0
  2  7  1  0  0  0  0
  2  9  1  0  0  0  0
  3 10  1  0  0  0  0
  5 47  1  0  0  0  0
  6 11  1  0  0  0  0
  7 16  2  0  0  0  0
  8 13  2  0  0  0  0
  9 18  1  0  0  0  0
  9  1  2  0  0  0  0
 10 15  1  0  0  0  0
 11  4  1  0  0  0  0
 11  2  2  0  0  0  0
 12  6  2  0  0  0  0
 12  8  1  0  0  0  0
 13 10  1  0  0  0  0
 13  7  1  0  0  0  0
 14  8  1  0  0  0  0
 14  3  2  0  0  0  0
 15  5  2  0  0  0  0
 15 19  1  0  0  0  0
 16  5  1  0  0  0  0
 16  1  1  0  0  0  0
 18 17  1  0  0  0  0
 20 25  1  6  0  0  0
 20 19  1  0  0  0  0
 20 21  1  0  0  0  0
 21 23  1  0  0  0  0
 21 22  1  1  0  0  0
 24 23  1  0  0  0  0
 25 26  2  0  0  0  0
 27 26  1  0  0  0  0
 28 30  1  0  0  0  0
 30 27  1  1  0  0  0
 30 29  1  0  0  0  0
 31 36  1  6  0  0  0
 31 35  1  0  0  0  0
 31 29  1  0  0  0  0
 32 28  1  0  0  0  0
 32 31  1  0  0  0  0
 34 33  1  0  0  0  0
 35 34  1  0  0  0  0
 35 33  1  0  0  0  0
 36 37  1  0  0  0  0
 38 37  2  0  0  0  0
 38 39  1  0  0  0  0
 40 43  1  0  0  0  0
 40 42  1  0  0  0  0
 40 39  1  1  0  0  0
 41 42  1  0  0  0  0
 43 44  1  0  0  0  0
 44 41  1  0  0  0  0
 45 36  1  0  0  0  0
 45 46  1  0  0  0  0
 47 48  1  0  0  0  0
 48 49  1  0  0  0  0
 50 61  1  1  0  0  0
 51 54  1  0  0  0  0
 52 49  1  6  0  0  0
 52 51  1  0  0  0  0
 52 53  1  0  0  0  0
 53 50  1  0  0  0  0
 54 58  1  6  0  0  0
 54 55  1  0  0  0  0
 55 50  1  0  0  0  0
 56 58  1  0  0  0  0
 58 57  1  0  0  0  0
 59 58  1  0  0  0  0
 61 62  1  0  0  0  0
 61 60  2  0  0  0  0
 63 62  1  0  0  0  0
 63 64  1  1  0  0  0
 65 63  1  0  0  0  0
 66 65  1  0  0  0  0
M  END
>  <MODEL>
3

>  <REMARK>
 VINA RESULT:      -5.0      3.626      9.048
  Name = 
  23 active torsions:
  status: ('A' for Active; 'I' for Inactive)
    1  A    between atoms: C_1  and  C_5
    2  A    between atoms: C_1  and  C_27
    3  A    between atoms: N_2  and  N_11
    4  A    between atoms: C_5  and  C_37
    5  A    between atoms: C_7  and  C_10
    6  A    between atoms: C_7  and  N_59
    7  A    between atoms: C_9  and  N_11
    8  A    between atoms: N_11  and  C_54
    9  A    between atoms: C_12  and  C_53
   10  A    between atoms: C_12  and  C_64
   11  A    between atoms: C_13  and  C_53
   12  A    between atoms: C_23  and  C_37
   13  A    between atoms: C_24  and  C_38
   14  A    between atoms: C_24  and  C_56
   15  A    between atoms: C_28  and  C_36
   16  A    between atoms: C_28  and  C_46
   17  A    between atoms: C_30  and  C_51
   18  A    between atoms: C_35  and  C_61
   19  A    between atoms: O_41  and  C_44
   20  A    between atoms: C_42  and  C_54
   21  A    between atoms: C_44  and  C_53
   22  A    between atoms: C_47  and  C_50
   23  A    between atoms: C_51  and  C_56
                            x       y       z     vdW  Elec       q    Type
                         _______ _______ _______ _____ _____    ______ ____

>  <TORSDO>
F 23

$$$$
=
 OpenBabel10232410113D

 66 73  0  0  1  0  0  0  0  0999 V2000
  190.7490  177.6890  139.3460 C   0  0  0  0  0  3  0  0  0  0  0  0
  190.6630  175.9800  137.8200 C   0  0  0  0  0  0  0  0  0  0  0  0
  186.0800  176.4750  136.8640 C   0  0  0  0  0  3  0  0  0  0  0  0
  192.4270  174.4260  136.9010 C   0  0  0  0  0  1  0  0  0  0  0  0
  188.2600  178.4110  139.3770 C   0  0  0  0  0  0  0  0  0  0  0  0
  190.1310  174.2580  136.1450 N   0  0  0  0  0  0  0  0  0  0  0  0
  189.3460  176.5430  138.0370 C   0  0  0  0  0  0  0  0  0  0  0  0
  187.9260  175.3210  136.4410 C   0  0  0  0  0  0  0  0  0  0  0  0
  191.5020  176.7360  138.6570 C   0  0  0  0  0  0  0  0  0  0  0  0
  187.0400  176.9340  137.6940 N   0  0  0  0  0  0  0  0  0  0  0  0
  191.0070  174.9080  136.9690 C   0  0  0  0  0  0  0  0  0  0  0  0
  188.8020  174.4030  135.8810 C   0  0  0  0  0  3  0  0  0  0  0  0
  188.1650  176.2560  137.4090 C   0  0  0  0  0  0  0  0  0  0  0  0
  186.5940  175.4530  136.0740 C   0  0  0  0  0  3  0  0  0  0  0  0
  186.9050  178.0300  138.6680 C   0  0  0  0  0  0  0  0  0  0  0  0
  189.4320  177.5490  138.9570 C   0  0  0  0  0  0  0  0  0  0  0  0
  193.4650  176.9900  140.2190 C   0  0  0  0  0  1  0  0  0  0  0  0
  192.9740  176.5280  138.8470 C   0  0  0  0  0  2  0  0  0  0  0  0
  185.7420  177.7390  139.6290 C   0  0  0  0  0  2  0  0  0  0  0  0
  184.7830  178.9210  139.7050 C   0  0  2  0  0  3  0  0  0  0  0  0
  184.2650  179.1340  141.1410 C   0  0  2  0  0  3  0  0  0  0  0  0
  185.2990  179.5490  142.1910 C   0  0  0  0  0  1  0  0  0  0  0  0
  183.2960  178.1980  141.5720 O   0  0  0  0  0  0  0  0  0  0  0  0
  182.1800  178.8960  142.0590 C   0  0  0  0  0  1  0  0  0  0  0  0
  183.6990  178.7790  138.6770 C   0  0  0  0  0  3  0  0  0  0  0  0
  182.8950  177.7140  138.6130 C   0  0  0  0  0  3  0  0  0  0  0  0
  181.8640  177.5990  137.5390 C   0  0  0  0  0  2  0  0  0  0  0  0
  181.2090  176.4010  135.4390 C   0  0  0  0  0  2  0  0  0  0  0  0
  182.7730  175.0560  137.2000 S   0  0  0  0  0  0  0  0  0  0  0  0
  182.3210  176.6420  136.4450 C   0  0  2  0  0  3  0  0  0  0  0  0
  181.7940  174.0710  136.0020 C   0  0  2  0  0  0  0  0  0  0  0  0
  181.4130  175.0120  134.8700 C   0  0  0  0  0  2  0  0  0  0  0  0
  180.4040  174.1960  138.1780 C   0  0  0  0  0  2  0  0  0  0  0  0
  180.5410  172.7150  137.8800 C   0  0  0  0  0  2  0  0  0  0  0  0
  180.4740  173.7130  136.7470 C   0  0  0  0  0  3  0  0  0  0  0  0
  182.6480  172.9770  135.4440 N   0  0  0  0  0  0  0  0  0  0  0  0
  184.0260  172.9040  135.7610 N   0  0  0  0  0  0  0  0  0  0  0  0
  184.7150  171.8510  135.5660 N   0  0  0  0  0  0  0  0  0  0  0  0
  186.1440  171.8460  135.8430 C   0  0  0  0  0  2  0  0  0  0  0  0
  186.8280  170.7830  134.9860 C   0  0  1  0  0  3  0  0  0  0  0  0
  187.5670  168.5440  135.1420 C   0  0  0  0  0  2  0  0  0  0  0  0
  187.6910  169.8840  135.8220 C   0  0  0  0  0  2  0  0  0  0  0  0
  185.8070  169.8710  134.3480 C   0  0  0  0  0  2  0  0  0  0  0  0
  186.2700  168.4920  134.4770 N   0  0  0  0  0  2  0  0  0  0  0  0
  182.1460  171.8780  134.6300 C   0  0  0  0  0  2  0  0  0  0  0  0
  180.7930  172.0650  134.3510 O   0  0  0  0  0  1  0  0  0  0  0  0
  188.1580  178.4510  140.8990 C   0  0  0  0  0  2  0  0  0  0  0  0
  188.4550  177.0820  141.5070 C   0  0  0  0  0  2  0  0  0  0  0  0
  187.4310  176.7010  142.5720 C   0  0  0  0  0  2  0  0  0  0  0  0
  190.0490  177.4530  145.2190 C   0  0  1  0  0  3  0  0  0  0  0  0
  187.7080  178.2480  144.4130 O   0  0  0  0  0  0  0  0  0  0  0  0
  187.9940  176.9420  143.9680 C   0  0  2  0  0  3  0  0  0  0  0  0
  189.5000  176.7160  143.9970 C   0  0  0  0  0  2  0  0  0  0  0  0
  187.9900  178.3230  145.8050 C   0  0  2  0  0  3  0  0  0  0  0  0
  189.0790  177.5110  146.2420 O   0  0  0  0  0  0  0  0  0  0  0  0
  185.8640  179.0750  146.5900 F   0  0  0  0  0  0  0  0  0  0  0  0
  186.1300  176.8940  146.1150 F   0  0  0  0  0  0  0  0  0  0  0  0
  186.7480  178.0140  146.6300 C   0  0  0  0  0  0  0  0  0  0  0  0
  187.1100  177.7650  147.9470 F   0  0  0  0  0  0  0  0  0  0  0  0
  191.9570  176.0580  144.9970 O   0  0  0  0  0  0  0  0  0  0  0  0
  191.3150  176.8130  145.7160 C   0  0  0  0  0  0  0  0  0  0  0  0
  191.8180  177.1250  147.0960 C   0  0  0  0  0  2  0  0  0  0  0  0
  191.7100  175.9110  148.0190 C   0  0  1  0  0  3  0  0  0  0  0  0
  191.4820  174.7590  147.2600 O   0  0  0  0  0  1  0  0  0  0  0  0
  192.9990  175.7310  148.7970 C   0  0  0  0  0  2  0  0  0  0  0  0
  193.5010  176.9670  149.2040 O   0  0  0  0  0  1  0  0  0  0  0  0
  2  7  1  0  0  0  0
  2  9  1  0  0  0  0
  3 10  1  0  0  0  0
  4 11  1  0  0  0  0
  5 47  1  0  0  0  0
  6 11  1  0  0  0  0
  7 16  2  0  0  0  0
  8 13  2  0  0  0  0
  9 18  1  0  0  0  0
  9  1  2  0  0  0  0
 10 15  1  0  0  0  0
 11  2  2  0  0  0  0
 12  6  2  0  0  0  0
 12  8  1  0  0  0  0
 13 10  1  0  0  0  0
 13  7  1  0  0  0  0
 14  8  1  0  0  0  0
 14  3  2  0  0  0  0
 15  5  2  0  0  0  0
 15 19  1  0  0  0  0
 16  1  1  0  0  0  0
 16  5  1  0  0  0  0
 18 17  1  0  0  0  0
 19 20  1  0  0  0  0
 20 25  1  6  0  0  0
 20 21  1  0  0  0  0
 21 23  1  0  0  0  0
 21 22  1  1  0  0  0
 23 24  1  0  0  0  0
 26 25  2  0  0  0  0
 27 26  1  0  0  0  0
 28 30  1  0  0  0  0
 30 29  1  0  0  0  0
 30 27  1  1  0  0  0
 31 36  1  6  0  0  0
 31 35  1  0  0  0  0
 31 29  1  0  0  0  0
 32 28  1  0  0  0  0
 32 31  1  0  0  0  0
 34 33  1  0  0  0  0
 35 34  1  0  0  0  0
 35 33  1  0  0  0  0
 36 37  1  0  0  0  0
 38 37  2  0  0  0  0
 38 39  1  0  0  0  0
 40 42  1  0  0  0  0
 40 39  1  1  0  0  0
 41 42  1  0  0  0  0
 43 44  1  0  0  0  0
 43 40  1  0  0  0  0
 44 41  1  0  0  0  0
 45 36  1  0  0  0  0
 46 45  1  0  0  0  0
 47 48  1  0  0  0  0
 48 49  1  0  0  0  0
 50 61  1  1  0  0  0
 50 55  1  0  0  0  0
 51 54  1  0  0  0  0
 52 49  1  6  0  0  0
 52 53  1  0  0  0  0
 52 51  1  0  0  0  0
 53 50  1  0  0  0  0
 54 55  1  0  0  0  0
 54 58  1  1  0  0  0
 56 58  1  0  0  0  0
 57 58  1  0  0  0  0
 58 59  1  0  0  0  0
 60 61  2  0  0  0  0
 61 62  1  0  0  0  0
 62 63  1  0  0  0  0
 63 64  1  6  0  0  0
 63 65  1  0  0  0  0
 65 66  1  0  0  0  0
M  END
>  <MODEL>
4

>  <REMARK>
 VINA RESULT:      -4.8      3.862      8.847
  Name = 
  23 active torsions:
  status: ('A' for Active; 'I' for Inactive)
    1  A    between atoms: C_1  and  C_5
    2  A    between atoms: C_1  and  C_27
    3  A    between atoms: N_2  and  N_11
    4  A    between atoms: C_5  and  C_37
    5  A    between atoms: C_7  and  C_10
    6  A    between atoms: C_7  and  N_59
    7  A    between atoms: C_9  and  N_11
    8  A    between atoms: N_11  and  C_54
    9  A    between atoms: C_12  and  C_53
   10  A    between atoms: C_12  and  C_64
   11  A    between atoms: C_13  and  C_53
   12  A    between atoms: C_23  and  C_37
   13  A    between atoms: C_24  and  C_38
   14  A    between atoms: C_24  and  C_56
   15  A    between atoms: C_28  and  C_36
   16  A    between atoms: C_28  and  C_46
   17  A    between atoms: C_30  and  C_51
   18  A    between atoms: C_35  and  C_61
   19  A    between atoms: O_41  and  C_44
   20  A    between atoms: C_42  and  C_54
   21  A    between atoms: C_44  and  C_53
   22  A    between atoms: C_47  and  C_50
   23  A    between atoms: C_51  and  C_56
                            x       y       z     vdW  Elec       q    Type
                         _______ _______ _______ _____ _____    ______ ____

>  <TORSDO>
F 23

$$$$
=
 OpenBabel10232410113D

 66 73  0  0  1  0  0  0  0  0999 V2000
  185.8410  178.8760  143.0070 C   0  0  0  0  0  3  0  0  0  0  0  0
  187.4270  177.9480  144.3780 C   0  0  0  0  0  0  0  0  0  0  0  0
  190.5040  177.0350  140.9330 C   0  0  0  0  0  3  0  0  0  0  0  0
  187.5340  177.6110  146.8770 C   0  0  0  0  0  1  0  0  0  0  0  0
  186.9790  178.5630  140.7000 C   0  0  0  0  0  0  0  0  0  0  0  0
  189.3710  176.9010  145.4650 N   0  0  0  0  0  0  0  0  0  0  0  0
  187.8340  177.8640  142.9900 C   0  0  0  0  0  0  0  0  0  0  0  0
  190.0900  176.8870  143.1070 C   0  0  0  0  0  0  0  0  0  0  0  0
  186.1800  178.5940  144.3320 C   0  0  0  0  0  0  0  0  0  0  0  0
  189.2440  177.4740  141.1340 N   0  0  0  0  0  0  0  0  0  0  0  0
  188.1310  177.4750  145.5070 C   0  0  0  0  0  0  0  0  0  0  0  0
  190.2510  176.6320  144.4610 C   0  0  0  0  0  3  0  0  0  0  0  0
  189.0100  177.4150  142.4550 C   0  0  0  0  0  0  0  0  0  0  0  0
  191.0610  176.6440  142.1460 C   0  0  0  0  0  3  0  0  0  0  0  0
  188.3270  178.0010  140.1080 C   0  0  0  0  0  0  0  0  0  0  0  0
  186.8630  178.4150  142.2020 C   0  0  0  0  0  0  0  0  0  0  0  0
  183.8490  179.1630  145.1080 C   0  0  0  0  0  1  0  0  0  0  0  0
  185.2980  178.8890  145.5080 C   0  0  0  0  0  2  0  0  0  0  0  0
  188.1490  176.9690  138.9830 C   0  0  0  0  0  2  0  0  0  0  0  0
  189.2080  177.1460  137.9030 C   0  0  2  0  0  3  0  0  0  0  0  0
  188.7030  176.6560  136.5320 C   0  0  2  0  0  3  0  0  0  0  0  0
  188.3550  175.1690  136.4190 C   0  0  0  0  0  1  0  0  0  0  0  0
  189.3670  177.2150  135.4150 O   0  0  0  0  0  0  0  0  0  0  0  0
  188.4510  177.3310  134.3580 C   0  0  0  0  0  1  0  0  0  0  0  0
  190.5040  176.5240  138.3370 C   0  0  0  0  0  3  0  0  0  0  0  0
  191.6940  176.9560  137.9120 C   0  0  0  0  0  3  0  0  0  0  0  0
  192.9510  176.2700  138.3360 C   0  0  0  0  0  2  0  0  0  0  0  0
  193.1650  176.2630  135.8400 C   0  0  0  0  0  2  0  0  0  0  0  0
  194.6220  174.4350  137.2170 S   0  0  0  0  0  0  0  0  0  0  0  0
  193.9020  176.0990  137.1580 C   0  0  2  0  0  3  0  0  0  0  0  0
  194.2700  174.0920  135.4500 C   0  0  2  0  0  0  0  0  0  0  0  0
  193.8910  175.4200  134.8130 C   0  0  0  0  0  2  0  0  0  0  0  0
  191.9010  173.6790  134.5000 C   0  0  0  0  0  2  0  0  0  0  0  0
  191.7090  173.8160  135.9990 C   0  0  0  0  0  2  0  0  0  0  0  0
  192.9830  173.2150  135.4500 C   0  0  0  0  0  3  0  0  0  0  0  0
  195.5110  173.5830  134.7870 N   0  0  0  0  0  0  0  0  0  0  0  0
  195.6460  172.2120  134.4630 N   0  0  0  0  0  0  0  0  0  0  0  0
  196.3300  171.4080  135.1740 N   0  0  0  0  0  0  0  0  0  0  0  0
  196.3830  169.9920  134.8390 C   0  0  0  0  0  2  0  0  0  0  0  0
  196.0350  169.1610  136.0710 C   0  0  1  0  0  3  0  0  0  0  0  0
  194.7730  169.3330  138.0620 C   0  0  0  0  0  2  0  0  0  0  0  0
  195.8560  170.0330  137.2800 C   0  0  0  0  0  2  0  0  0  0  0  0
  194.7100  168.4600  135.8880 C   0  0  0  0  0  2  0  0  0  0  0  0
  193.9360  168.5990  137.1190 N   0  0  0  0  0  2  0  0  0  0  0  0
  196.6130  174.4290  134.3480 C   0  0  0  0  0  2  0  0  0  0  0  0
  197.4950  174.6570  135.4040 O   0  0  0  0  0  1  0  0  0  0  0  0
  185.7350  177.9990  140.0200 C   0  0  0  0  0  2  0  0  0  0  0  0
  185.6350  178.4770  138.5730 C   0  0  0  0  0  2  0  0  0  0  0  0
  184.1880  178.7210  138.1550 C   0  0  0  0  0  2  0  0  0  0  0  0
  183.8870  175.0880  137.0890 C   0  0  1  0  0  3  0  0  0  0  0  0
  183.1420  176.7030  138.9860 O   0  0  0  0  0  0  0  0  0  0  0  0
  183.4970  177.4050  137.8180 C   0  0  2  0  0  3  0  0  0  0  0  0
  184.3890  176.5250  136.9510 C   0  0  0  0  0  2  0  0  0  0  0  0
  182.2560  175.6470  138.6290 C   0  0  2  0  0  3  0  0  0  0  0  0
  182.5000  175.0690  137.3470 O   0  0  0  0  0  0  0  0  0  0  0  0
  180.4680  176.8910  137.6500 F   0  0  0  0  0  0  0  0  0  0  0  0
  179.9880  174.9850  138.7410 F   0  0  0  0  0  0  0  0  0  0  0  0
  180.8050  176.0960  138.7290 C   0  0  0  0  0  0  0  0  0  0  0  0
  180.6150  176.8100  139.9040 F   0  0  0  0  0  0  0  0  0  0  0  0
  184.1590  174.7790  134.7510 O   0  0  0  0  0  0  0  0  0  0  0  0
  184.2160  174.2770  135.8670 C   0  0  0  0  0  0  0  0  0  0  0  0
  184.6500  172.8470  136.0130 C   0  0  0  0  0  2  0  0  0  0  0  0
  186.1730  172.7280  136.0680 C   0  0  1  0  0  3  0  0  0  0  0  0
  186.5700  172.3240  137.3460 O   0  0  0  0  0  1  0  0  0  0  0  0
  186.6520  171.6980  135.0630 C   0  0  0  0  0  2  0  0  0  0  0  0
  185.5750  171.1760  134.3470 O   0  0  0  0  0  1  0  0  0  0  0  0
  1  9  1  0  0  0  0
  2 11  1  0  0  0  0
  3 10  1  0  0  0  0
  3 14  2  0  0  0  0
  5 16  1  0  0  0  0
  6 11  2  0  0  0  0
  7  2  1  0  0  0  0
  8 12  2  0  0  0  0
  9  2  2  0  0  0  0
  9 18  1  0  0  0  0
 10 13  1  0  0  0  0
 11  4  1  0  0  0  0
 12  6  1  0  0  0  0
 13  7  2  0  0  0  0
 13  8  1  0  0  0  0
 14  8  1  0  0  0  0
 15  5  2  0  0  0  0
 15 10  1  0  0  0  0
 16  7  1  0  0  0  0
 16  1  2  0  0  0  0
 17 18  1  0  0  0  0
 19 15  1  0  0  0  0
 20 25  1  1  0  0  0
 20 19  1  0  0  0  0
 21 22  1  1  0  0  0
 21 20  1  0  0  0  0
 23 21  1  0  0  0  0
 24 23  1  0  0  0  0
 26 27  1  0  0  0  0
 26 25  2  0  0  0  0
 28 30  1  0  0  0  0
 30 29  1  0  0  0  0
 30 27  1  1  0  0  0
 31 36  1  6  0  0  0
 31 29  1  0  0  0  0
 32 31  1  0  0  0  0
 32 28  1  0  0  0  0
 33 35  1  0  0  0  0
 33 34  1  0  0  0  0
 35 31  1  0  0  0  0
 35 34  1  0  0  0  0
 37 36  1  0  0  0  0
 37 38  2  0  0  0  0
 39 38  1  0  0  0  0
 40 39  1  6  0  0  0
 40 42  1  0  0  0  0
 42 41  1  0  0  0  0
 43 40  1  0  0  0  0
 43 44  1  0  0  0  0
 44 41  1  0  0  0  0
 45 36  1  0  0  0  0
 45 46  1  0  0  0  0
 47  5  1  0  0  0  0
 48 47  1  0  0  0  0
 49 48  1  0  0  0  0
 50 61  1  6  0  0  0
 50 55  1  0  0  0  0
 52 49  1  1  0  0  0
 52 51  1  0  0  0  0
 53 50  1  0  0  0  0
 53 52  1  0  0  0  0
 54 58  1  6  0  0  0
 54 51  1  0  0  0  0
 55 54  1  0  0  0  0
 56 58  1  0  0  0  0
 58 57  1  0  0  0  0
 58 59  1  0  0  0  0
 60 61  2  0  0  0  0
 61 62  1  0  0  0  0
 62 63  1  0  0  0  0
 63 64  1  1  0  0  0
 65 63  1  0  0  0  0
 66 65  1  0  0  0  0
M  END
>  <MODEL>
5

>  <REMARK>
 VINA RESULT:      -4.5      4.740     10.224
  Name = 
  23 active torsions:
  status: ('A' for Active; 'I' for Inactive)
    1  A    between atoms: C_1  and  C_5
    2  A    between atoms: C_1  and  C_27
    3  A    between atoms: N_2  and  N_11
    4  A    between atoms: C_5  and  C_37
    5  A    between atoms: C_7  and  C_10
    6  A    between atoms: C_7  and  N_59
    7  A    between atoms: C_9  and  N_11
    8  A    between atoms: N_11  and  C_54
    9  A    between atoms: C_12  and  C_53
   10  A    between atoms: C_12  and  C_64
   11  A    between atoms: C_13  and  C_53
   12  A    between atoms: C_23  and  C_37
   13  A    between atoms: C_24  and  C_38
   14  A    between atoms: C_24  and  C_56
   15  A    between atoms: C_28  and  C_36
   16  A    between atoms: C_28  and  C_46
   17  A    between atoms: C_30  and  C_51
   18  A    between atoms: C_35  and  C_61
   19  A    between atoms: O_41  and  C_44
   20  A    between atoms: C_42  and  C_54
   21  A    between atoms: C_44  and  C_53
   22  A    between atoms: C_47  and  C_50
   23  A    between atoms: C_51  and  C_56
                            x       y       z     vdW  Elec       q    Type
                         _______ _______ _______ _____ _____    ______ ____

>  <TORSDO>
F 23

$$$$
=
 OpenBabel10232410113D

 66 73  0  0  1  0  0  0  0  0999 V2000
  185.4790  176.5090  137.4110 C   0  0  0  0  0  3  0  0  0  0  0  0
  183.6140  175.9540  136.1990 C   0  0  0  0  0  0  0  0  0  0  0  0
  181.1000  179.7090  137.5220 C   0  0  0  0  0  3  0  0  0  0  0  0
  183.1080  174.0450  134.6290 C   0  0  0  0  0  1  0  0  0  0  0  0
  184.6470  178.6610  138.5900 C   0  0  0  0  0  0  0  0  0  0  0  0
  181.4380  175.7450  135.0690 N   0  0  0  0  0  0  0  0  0  0  0  0
  183.3790  177.1460  136.9890 C   0  0  0  0  0  0  0  0  0  0  0  0
  181.1120  177.8400  136.3280 C   0  0  0  0  0  0  0  0  0  0  0  0
  184.9420  175.6020  136.4950 C   0  0  0  0  0  0  0  0  0  0  0  0
  182.2680  179.0810  137.7690 N   0  0  0  0  0  0  0  0  0  0  0  0
  182.7030  175.3020  135.3410 C   0  0  0  0  0  0  0  0  0  0  0  0
  180.7150  176.8290  135.4640 C   0  0  0  0  0  3  0  0  0  0  0  0
  182.2860  177.9690  137.0170 C   0  0  0  0  0  0  0  0  0  0  0  0
  180.3420  178.9520  136.6340 C   0  0  0  0  0  3  0  0  0  0  0  0
  183.3580  179.5670  138.6330 C   0  0  0  0  0  0  0  0  0  0  0  0
  184.5040  177.4410  137.7050 C   0  0  0  0  0  0  0  0  0  0  0  0
  185.7620  173.2700  136.9910 C   0  0  0  0  0  1  0  0  0  0  0  0
  185.6720  174.4030  135.9700 C   0  0  0  0  0  2  0  0  0  0  0  0
  182.8210  179.8480  140.0460 C   0  0  0  0  0  2  0  0  0  0  0  0
  182.5090  178.5510  140.7820 C   0  0  2  0  0  3  0  0  0  0  0  0
  181.3000  177.8270  140.1610 C   0  0  2  0  0  3  0  0  0  0  0  0
  180.0120  177.8010  140.9910 C   0  0  0  0  0  1  0  0  0  0  0  0
  181.6070  176.6300  139.4720 O   0  0  0  0  0  0  0  0  0  0  0  0
  182.0030  175.6610  140.4070 C   0  0  0  0  0  1  0  0  0  0  0  0
  182.3800  178.8070  142.2560 C   0  0  0  0  0  3  0  0  0  0  0  0
  183.3330  178.4870  143.1340 C   0  0  0  0  0  3  0  0  0  0  0  0
  183.1340  178.7190  144.5960 C   0  0  0  0  0  2  0  0  0  0  0  0
  185.5140  179.4010  144.2180 C   0  0  0  0  0  2  0  0  0  0  0  0
  184.9860  177.9000  146.4150 S   0  0  0  0  0  0  0  0  0  0  0  0
  184.4280  179.1790  145.2560 C   0  0  2  0  0  3  0  0  0  0  0  0
  186.7060  177.9050  145.7770 C   0  0  2  0  0  0  0  0  0  0  0  0
  186.8420  179.1370  144.8960 C   0  0  0  0  0  2  0  0  0  0  0  0
  188.0460  176.6150  143.9810 C   0  0  0  0  0  2  0  0  0  0  0  0
  186.7020  176.9040  143.3400 C   0  0  0  0  0  2  0  0  0  0  0  0
  186.7960  176.6700  144.8310 C   0  0  0  0  0  3  0  0  0  0  0  0
  187.6600  178.0300  146.9220 N   0  0  0  0  0  0  0  0  0  0  0  0
  188.8310  177.2370  146.9750 N   0  0  0  0  0  0  0  0  0  0  0  0
  189.8810  177.5260  146.3140 N   0  0  0  0  0  0  0  0  0  0  0  0
  191.0840  176.7180  146.4540 C   0  0  0  0  0  2  0  0  0  0  0  0
  191.9440  176.8600  145.2010 C   0  0  1  0  0  3  0  0  0  0  0  0
  191.8050  176.5000  142.8700 C   0  0  0  0  0  2  0  0  0  0  0  0
  191.6110  175.8000  144.1910 C   0  0  0  0  0  2  0  0  0  0  0  0
  191.6660  178.1720  144.5060 C   0  0  0  0  0  2  0  0  0  0  0  0
  191.5600  177.9240  143.0710 N   0  0  0  0  0  2  0  0  0  0  0  0
  187.5270  179.0020  147.9990 C   0  0  0  0  0  2  0  0  0  0  0  0
  187.0910  178.3730  149.1640 O   0  0  0  0  0  1  0  0  0  0  0  0
  185.1470  178.2520  139.9720 C   0  0  0  0  0  2  0  0  0  0  0  0
  186.4600  178.9540  140.3110 C   0  0  0  0  0  2  0  0  0  0  0  0
  187.5690  177.9560  140.6320 C   0  0  0  0  0  2  0  0  0  0  0  0
  190.6580  176.8160  138.7390 C   0  0  1  0  0  3  0  0  0  0  0  0
  188.1030  177.1630  138.4080 O   0  0  0  0  0  0  0  0  0  0  0  0
  188.5900  177.9070  139.5010 C   0  0  2  0  0  3  0  0  0  0  0  0
  189.9050  177.3050  139.9760 C   0  0  0  0  0  2  0  0  0  0  0  0
  188.9530  177.3910  137.2900 C   0  0  2  0  0  3  0  0  0  0  0  0
  190.3270  177.5990  137.6130 O   0  0  0  0  0  0  0  0  0  0  0  0
  187.0570  178.5810  136.4570 F   0  0  0  0  0  0  0  0  0  0  0  0
  188.9240  179.7330  136.9510 F   0  0  0  0  0  0  0  0  0  0  0  0
  188.4380  178.5460  136.4410 C   0  0  0  0  0  0  0  0  0  0  0  0
  188.8800  178.4010  135.1340 F   0  0  0  0  0  0  0  0  0  0  0  0
  192.5980  176.9450  140.1010 O   0  0  0  0  0  0  0  0  0  0  0  0
  192.1430  176.8130  138.9720 C   0  0  0  0  0  0  0  0  0  0  0  0
  193.0810  176.6140  137.8160 C   0  0  0  0  0  2  0  0  0  0  0  0
  193.6790  175.2070  137.8170 C   0  0  1  0  0  3  0  0  0  0  0  0
  192.6550  174.2580  137.7440 O   0  0  0  0  0  1  0  0  0  0  0  0
  194.5910  175.0280  136.6190 C   0  0  0  0  0  2  0  0  0  0  0  0
  193.9140  175.3320  135.4380 O   0  0  0  0  0  1  0  0  0  0  0  0
  1 16  1  0  0  0  0
  2  9  1  0  0  0  0
  2  7  1  0  0  0  0
  3 10  1  0  0  0  0
  4 11  1  0  0  0  0
  5 15  2  0  0  0  0
  5 47  1  0  0  0  0
  6 11  1  0  0  0  0
  6 12  2  0  0  0  0
  7 13  1  0  0  0  0
  7 16  2  0  0  0  0
  8 14  1  0  0  0  0
  8 13  2  0  0  0  0
  9  1  2  0  0  0  0
 10 15  1  0  0  0  0
 11  2  2  0  0  0  0
 12  8  1  0  0  0  0
 13 10  1  0  0  0  0
 14  3  2  0  0  0  0
 15 19  1  0  0  0  0
 16  5  1  0  0  0  0
 18  9  1  0  0  0  0
 18 17  1  0  0  0  0
 20 19  1  6  0  0  0
 20 25  1  0  0  0  0
 21 20  1  0  0  0  0
 21 22  1  1  0  0  0
 23 21  1  0  0  0  0
 23 24  1  0  0  0  0
 25 26  2  0  0  0  0
 26 27  1  0  0  0  0
 28 32  1  0  0  0  0
 28 30  1  0  0  0  0
 30 27  1  6  0  0  0
 30 29  1  0  0  0  0
 31 29  1  0  0  0  0
 31 36  1  1  0  0  0
 32 31  1  0  0  0  0
 33 35  1  0  0  0  0
 34 33  1  0  0  0  0
 34 35  1  0  0  0  0
 35 31  1  0  0  0  0
 36 37  1  0  0  0  0
 36 45  1  0  0  0  0
 38 39  1  0  0  0  0
 38 37  2  0  0  0  0
 40 39  1  1  0  0  0
 41 44  1  0  0  0  0
 41 42  1  0  0  0  0
 42 40  1  0  0  0  0
 43 40  1  0  0  0  0
 44 43  1  0  0  0  0
 45 46  1  0  0  0  0
 47 48  1  0  0  0  0
 48 49  1  0  0  0  0
 50 61  1  1  0  0  0
 50 53  1  0  0  0  0
 51 52  1  0  0  0  0
 52 53  1  0  0  0  0
 52 49  1  1  0  0  0
 54 58  1  1  0  0  0
 54 55  1  0  0  0  0
 54 51  1  0  0  0  0
 55 50  1  0  0  0  0
 58 56  1  0  0  0  0
 58 57  1  0  0  0  0
 59 58  1  0  0  0  0
 61 60  2  0  0  0  0
 62 63  1  0  0  0  0
 62 61  1  0  0  0  0
 63 64  1  6  0  0  0
 65 63  1  0  0  0  0
 66 65  1  0  0  0  0
M  END
>  <MODEL>
6

>  <REMARK>
 VINA RESULT:      -4.0      2.355      3.493
  Name = 
  23 active torsions:
  status: ('A' for Active; 'I' for Inactive)
    1  A    between atoms: C_1  and  C_5
    2  A    between atoms: C_1  and  C_27
    3  A    between atoms: N_2  and  N_11
    4  A    between atoms: C_5  and  C_37
    5  A    between atoms: C_7  and  C_10
    6  A    between atoms: C_7  and  N_59
    7  A    between atoms: C_9  and  N_11
    8  A    between atoms: N_11  and  C_54
    9  A    between atoms: C_12  and  C_53
   10  A    between atoms: C_12  and  C_64
   11  A    between atoms: C_13  and  C_53
   12  A    between atoms: C_23  and  C_37
   13  A    between atoms: C_24  and  C_38
   14  A    between atoms: C_24  and  C_56
   15  A    between atoms: C_28  and  C_36
   16  A    between atoms: C_28  and  C_46
   17  A    between atoms: C_30  and  C_51
   18  A    between atoms: C_35  and  C_61
   19  A    between atoms: O_41  and  C_44
   20  A    between atoms: C_42  and  C_54
   21  A    between atoms: C_44  and  C_53
   22  A    between atoms: C_47  and  C_50
   23  A    between atoms: C_51  and  C_56
                            x       y       z     vdW  Elec       q    Type
                         _______ _______ _______ _____ _____    ______ ____

>  <TORSDO>
F 23

$$$$
=
 OpenBabel10232410113D

 66 73  0  0  1  0  0  0  0  0999 V2000
  185.7640  175.6120  136.5280 C   0  0  0  0  0  3  0  0  0  0  0  0
  183.8490  174.4940  135.9440 C   0  0  0  0  0  0  0  0  0  0  0  0
  180.9600  178.1260  136.7380 C   0  0  0  0  0  3  0  0  0  0  0  0
  183.4360  172.1560  135.0880 C   0  0  0  0  0  1  0  0  0  0  0  0
  184.7690  177.8950  137.2450 C   0  0  0  0  0  0  0  0  0  0  0  0
  181.5860  173.6870  135.4130 N   0  0  0  0  0  0  0  0  0  0  0  0
  183.5420  175.8270  136.4210 C   0  0  0  0  0  0  0  0  0  0  0  0
  181.1060  176.0040  136.1100 C   0  0  0  0  0  0  0  0  0  0  0  0
  185.2500  174.4150  136.0260 C   0  0  0  0  0  0  0  0  0  0  0  0
  182.2480  177.7510  136.8810 N   0  0  0  0  0  0  0  0  0  0  0  0
  182.9380  173.5070  135.5110 C   0  0  0  0  0  0  0  0  0  0  0  0
  180.7570  174.7410  135.6540 C   0  0  0  0  0  3  0  0  0  0  0  0
  182.3380  176.4770  136.4670 C   0  0  0  0  0  0  0  0  0  0  0  0
  180.2110  177.0510  136.2710 C   0  0  0  0  0  3  0  0  0  0  0  0
  183.3640  178.6050  137.3260 C   0  0  0  0  0  0  0  0  0  0  0  0
  184.7010  176.4600  136.7690 C   0  0  0  0  0  0  0  0  0  0  0  0
  186.7950  172.6290  136.9120 C   0  0  0  0  0  1  0  0  0  0  0  0
  186.0850  173.2160  135.6920 C   0  0  0  0  0  2  0  0  0  0  0  0
  183.0380  179.2220  138.6960 C   0  0  0  0  0  2  0  0  0  0  0  0
  182.7060  178.1440  139.7190 C   0  0  2  0  0  3  0  0  0  0  0  0
  181.2360  177.6940  139.6070 C   0  0  2  0  0  3  0  0  0  0  0  0
  180.1830  178.8030  139.5110 C   0  0  0  0  0  1  0  0  0  0  0  0
  180.8860  176.5860  140.4140 O   0  0  0  0  0  0  0  0  0  0  0  0
  181.0590  175.4110  139.6680 C   0  0  0  0  0  1  0  0  0  0  0  0
  183.1070  178.5910  141.0950 C   0  0  0  0  0  3  0  0  0  0  0  0
  184.1090  178.0300  141.7770 C   0  0  0  0  0  3  0  0  0  0  0  0
  184.4360  178.4800  143.1630 C   0  0  0  0  0  2  0  0  0  0  0  0
  186.5180  178.9960  141.8700 C   0  0  0  0  0  2  0  0  0  0  0  0
  186.8250  178.0710  144.4010 S   0  0  0  0  0  0  0  0  0  0  0  0
  185.8470  179.0520  143.2310 C   0  0  2  0  0  3  0  0  0  0  0  0
  188.2380  177.8830  143.2470 C   0  0  2  0  0  0  0  0  0  0  0  0
  188.0080  178.8690  142.1110 C   0  0  0  0  0  2  0  0  0  0  0  0
  188.8470  175.3730  143.3620 C   0  0  0  0  0  2  0  0  0  0  0  0
  189.2910  175.8260  141.9830 C   0  0  0  0  0  2  0  0  0  0  0  0
  188.0830  176.4580  142.6360 C   0  0  0  0  0  3  0  0  0  0  0  0
  189.5060  178.2520  143.9490 N   0  0  0  0  0  0  0  0  0  0  0  0
  190.0170  177.4410  144.9890 N   0  0  0  0  0  0  0  0  0  0  0  0
  190.7340  177.9110  145.9310 N   0  0  0  0  0  0  0  0  0  0  0  0
  191.1800  177.0490  147.0160 C   0  0  0  0  0  2  0  0  0  0  0  0
  190.1300  177.0360  148.1240 C   0  0  1  0  0  3  0  0  0  0  0  0
  188.3840  178.3870  148.9660 C   0  0  0  0  0  2  0  0  0  0  0  0
  189.8510  178.4250  148.6230 C   0  0  0  0  0  2  0  0  0  0  0  0
  188.8060  176.5300  147.6030 C   0  0  0  0  0  2  0  0  0  0  0  0
  187.7440  177.3910  148.1140 N   0  0  0  0  0  2  0  0  0  0  0  0
  190.3460  179.3850  143.5840 C   0  0  0  0  0  2  0  0  0  0  0  0
  191.6130  178.9420  143.2040 O   0  0  0  0  0  1  0  0  0  0  0  0
  185.5670  177.9810  138.5420 C   0  0  0  0  0  2  0  0  0  0  0  0
  187.0410  178.2720  138.2640 C   0  0  0  0  0  2  0  0  0  0  0  0
  187.9600  177.3110  139.0100 C   0  0  0  0  0  2  0  0  0  0  0  0
  191.4770  176.1080  138.2330 C   0  0  1  0  0  3  0  0  0  0  0  0
  189.0040  175.6870  137.5490 O   0  0  0  0  0  0  0  0  0  0  0  0
  189.1680  176.9500  138.1540 C   0  0  2  0  0  3  0  0  0  0  0  0
  190.4460  176.9520  138.9810 C   0  0  0  0  0  2  0  0  0  0  0  0
  190.0040  175.5310  136.5490 C   0  0  2  0  0  3  0  0  0  0  0  0
  191.2490  176.1620  136.8410 O   0  0  0  0  0  0  0  0  0  0  0  0
  190.4930  176.6440  134.4930 F   0  0  0  0  0  0  0  0  0  0  0  0
  189.0770  174.8980  134.4660 F   0  0  0  0  0  0  0  0  0  0  0  0
  189.4930  175.9950  135.1910 C   0  0  0  0  0  0  0  0  0  0  0  0
  188.4180  176.8560  135.3640 F   0  0  0  0  0  0  0  0  0  0  0  0
  193.1080  177.1940  139.5740 O   0  0  0  0  0  0  0  0  0  0  0  0
  192.8780  176.5410  138.5630 C   0  0  0  0  0  0  0  0  0  0  0  0
  194.0150  176.1430  137.6660 C   0  0  0  0  0  2  0  0  0  0  0  0
  194.1690  174.6240  137.5990 C   0  0  1  0  0  3  0  0  0  0  0  0
  193.8990  174.1780  136.3010 O   0  0  0  0  0  1  0  0  0  0  0  0
  195.5870  174.2270  137.9620 C   0  0  0  0  0  2  0  0  0  0  0  0
  195.6190  173.6230  139.2190 O   0  0  0  0  0  1  0  0  0  0  0  0
  1 16  1  0  0  0  0
  2  9  1  0  0  0  0
  2  7  1  0  0  0  0
  3 10  1  0  0  0  0
  4 11  1  0  0  0  0
  5 15  2  0  0  0  0
  5 47  1  0  0  0  0
  6 11  1  0  0  0  0
  6 12  2  0  0  0  0
  7 13  1  0  0  0  0
  7 16  2  0  0  0  0
  8 14  1  0  0  0  0
  8 13  2  0  0  0  0
  9  1  2  0  0  0  0
 10 15  1  0  0  0  0
 11  2  2  0  0  0  0
 12  8  1  0  0  0  0
 13 10  1  0  0  0  0
 14  3  2  0  0  0  0
 15 19  1  0  0  0  0
 16  5  1  0  0  0  0
 18  9  1  0  0  0  0
 18 17  1  0  0  0  0
 20 19  1  6  0  0  0
 20 25  1  0  0  0  0
 21 22  1  1  0  0  0
 21 20  1  0  0  0  0
 21 23  1  0  0  0  0
 24 23  1  0  0  0  0
 25 26  2  0  0  0  0
 26 27  1  0  0  0  0
 28 32  1  0  0  0  0
 28 30  1  0  0  0  0
 30 27  1  6  0  0  0
 30 29  1  0  0  0  0
 31 36  1  1  0  0  0
 31 29  1  0  0  0  0
 32 31  1  0  0  0  0
 34 35  1  0  0  0  0
 34 33  1  0  0  0  0
 35 31  1  0  0  0  0
 35 33  1  0  0  0  0
 36 37  1  0  0  0  0
 37 38  2  0  0  0  0
 38 39  1  0  0  0  0
 40 39  1  6  0  0  0
 40 42  1  0  0  0  0
 42 41  1  0  0  0  0
 43 44  1  0  0  0  0
 43 40  1  0  0  0  0
 44 41  1  0  0  0  0
 45 36  1  0  0  0  0
 46 45  1  0  0  0  0
 48 47  1  0  0  0  0
 48 49  1  0  0  0  0
 50 61  1  6  0  0  0
 50 53  1  0  0  0  0
 51 52  1  0  0  0  0
 52 53  1  0  0  0  0
 52 49  1  1  0  0  0
 54 58  1  6  0  0  0
 54 55  1  0  0  0  0
 54 51  1  0  0  0  0
 55 50  1  0  0  0  0
 56 58  1  0  0  0  0
 57 58  1  0  0  0  0
 58 59  1  0  0  0  0
 61 60  2  0  0  0  0
 62 61  1  0  0  0  0
 63 64  1  6  0  0  0
 63 62  1  0  0  0  0
 63 65  1  0  0  0  0
 65 66  1  0  0  0  0
M  END
>  <MODEL>
7

>  <REMARK>
 VINA RESULT:      -3.8      2.393      3.541
  Name = 
  23 active torsions:
  status: ('A' for Active; 'I' for Inactive)
    1  A    between atoms: C_1  and  C_5
    2  A    between atoms: C_1  and  C_27
    3  A    between atoms: N_2  and  N_11
    4  A    between atoms: C_5  and  C_37
    5  A    between atoms: C_7  and  C_10
    6  A    between atoms: C_7  and  N_59
    7  A    between atoms: C_9  and  N_11
    8  A    between atoms: N_11  and  C_54
    9  A    between atoms: C_12  and  C_53
   10  A    between atoms: C_12  and  C_64
   11  A    between atoms: C_13  and  C_53
   12  A    between atoms: C_23  and  C_37
   13  A    between atoms: C_24  and  C_38
   14  A    between atoms: C_24  and  C_56
   15  A    between atoms: C_28  and  C_36
   16  A    between atoms: C_28  and  C_46
   17  A    between atoms: C_30  and  C_51
   18  A    between atoms: C_35  and  C_61
   19  A    between atoms: O_41  and  C_44
   20  A    between atoms: C_42  and  C_54
   21  A    between atoms: C_44  and  C_53
   22  A    between atoms: C_47  and  C_50
   23  A    between atoms: C_51  and  C_56
                            x       y       z     vdW  Elec       q    Type
                         _______ _______ _______ _____ _____    ______ ____

>  <TORSDO>
F 23

$$$$
=
 OpenBabel10232410113D

 66 73  0  0  1  0  0  0  0  0999 V2000
  189.8650  176.6920  144.4870 C   0  0  0  0  0  3  0  0  0  0  0  0
  189.3890  177.5960  146.5390 C   0  0  0  0  0  0  0  0  0  0  0  0
  184.7140  177.5200  145.9770 C   0  0  0  0  0  3  0  0  0  0  0  0
  190.8510  178.3070  148.4690 C   0  0  0  0  0  1  0  0  0  0  0  0
  187.4760  176.4750  143.5070 C   0  0  0  0  0  0  0  0  0  0  0  0
  188.4420  178.5240  148.6120 N   0  0  0  0  0  0  0  0  0  0  0  0
  188.1770  177.4030  145.7680 C   0  0  0  0  0  0  0  0  0  0  0  0
  186.3890  178.0660  147.3240 C   0  0  0  0  0  0  0  0  0  0  0  0
  190.4110  177.1300  145.6950 C   0  0  0  0  0  0  0  0  0  0  0  0
  185.8620  177.2960  145.3040 N   0  0  0  0  0  0  0  0  0  0  0  0
  189.5000  178.1410  147.8370 C   0  0  0  0  0  0  0  0  0  0  0  0
  187.0910  178.5060  148.4380 C   0  0  0  0  0  3  0  0  0  0  0  0
  186.8730  177.5950  146.1360 C   0  0  0  0  0  0  0  0  0  0  0  0
  185.0050  178.0170  147.2430 C   0  0  0  0  0  3  0  0  0  0  0  0
  185.9850  176.7460  143.9430 C   0  0  0  0  0  0  0  0  0  0  0  0
  188.4980  176.8740  144.5500 C   0  0  0  0  0  0  0  0  0  0  0  0
  192.3560  175.8780  146.6970 C   0  0  0  0  0  1  0  0  0  0  0  0
  191.8790  177.1500  145.9970 C   0  0  0  0  0  2  0  0  0  0  0  0
  185.1760  177.6010  142.9550 C   0  0  0  0  0  2  0  0  0  0  0  0
  185.7900  178.9870  142.7990 C   0  0  2  0  0  3  0  0  0  0  0  0
  184.8970  180.0730  143.4300 C   0  0  2  0  0  3  0  0  0  0  0  0
  185.3180  180.5940  144.8080 C   0  0  0  0  0  1  0  0  0  0  0  0
  183.5070  179.8890  143.2440 O   0  0  0  0  0  0  0  0  0  0  0  0
  182.9590  179.3720  144.4280 C   0  0  0  0  0  1  0  0  0  0  0  0
  186.1410  179.2420  141.3620 C   0  0  0  0  0  3  0  0  0  0  0  0
  185.3180  178.9490  140.3510 C   0  0  0  0  0  3  0  0  0  0  0  0
  185.7360  179.1760  138.9350 C   0  0  0  0  0  2  0  0  0  0  0  0
  183.2870  179.3220  138.4310 C   0  0  0  0  0  2  0  0  0  0  0  0
  184.5260  176.9670  137.9040 S   0  0  0  0  0  0  0  0  0  0  0  0
  184.6270  178.7770  137.9700 C   0  0  2  0  0  3  0  0  0  0  0  0
  182.7060  176.9420  138.1340 C   0  0  2  0  0  0  0  0  0  0  0  0
  182.2210  178.3690  137.9320 C   0  0  0  0  0  2  0  0  0  0  0  0
  181.0430  176.3880  140.0340 C   0  0  0  0  0  2  0  0  0  0  0  0
  181.7830  177.6260  140.5030 C   0  0  0  0  0  2  0  0  0  0  0  0
  182.4870  176.6050  139.6390 C   0  0  0  0  0  3  0  0  0  0  0  0
  182.0850  176.0750  137.0840 N   0  0  0  0  0  0  0  0  0  0  0  0
  182.0730  174.6670  137.2260 N   0  0  0  0  0  0  0  0  0  0  0  0
  182.5830  173.8900  136.3550 N   0  0  0  0  0  0  0  0  0  0  0  0
  182.6070  172.4510  136.5770 C   0  0  0  0  0  2  0  0  0  0  0  0
  184.0410  171.9990  136.8430 C   0  0  1  0  0  3  0  0  0  0  0  0
  186.2270  172.3700  136.0270 C   0  0  0  0  0  2  0  0  0  0  0  0
  184.8450  171.9720  135.5750 C   0  0  0  0  0  2  0  0  0  0  0  0
  184.7540  172.9800  137.7430 C   0  0  0  0  0  2  0  0  0  0  0  0
  186.0920  173.2140  137.2090 N   0  0  0  0  0  2  0  0  0  0  0  0
  181.3840  176.5810  135.9110 C   0  0  0  0  0  2  0  0  0  0  0  0
  182.2900  176.8400  134.8840 O   0  0  0  0  0  1  0  0  0  0  0  0
  187.8340  177.0910  142.1580 C   0  0  0  0  0  2  0  0  0  0  0  0
  189.2370  176.6760  141.7190 C   0  0  0  0  0  2  0  0  0  0  0  0
  189.9960  177.8330  141.0780 C   0  0  0  0  0  2  0  0  0  0  0  0
  191.9760  176.1230  138.3250 C   0  0  1  0  0  3  0  0  0  0  0  0
  189.5250  176.5480  139.0820 O   0  0  0  0  0  0  0  0  0  0  0  0
  190.4140  177.4780  139.6550 C   0  0  2  0  0  3  0  0  0  0  0  0
  191.8270  176.9130  139.6250 C   0  0  0  0  0  2  0  0  0  0  0  0
  189.7840  176.4770  137.6840 C   0  0  2  0  0  3  0  0  0  0  0  0
  191.1500  176.6640  137.3170 O   0  0  0  0  0  0  0  0  0  0  0  0
  187.5660  177.1850  137.1520 F   0  0  0  0  0  0  0  0  0  0  0  0
  189.1830  178.7370  137.3280 F   0  0  0  0  0  0  0  0  0  0  0  0
  188.9010  177.4510  136.9160 C   0  0  0  0  0  0  0  0  0  0  0  0
  189.1580  177.3460  135.5570 F   0  0  0  0  0  0  0  0  0  0  0  0
  193.8550  176.9380  137.1260 O   0  0  0  0  0  0  0  0  0  0  0  0
  193.4100  176.0790  137.8760 C   0  0  0  0  0  0  0  0  0  0  0  0
  194.3160  174.9910  138.3750 C   0  0  0  0  0  2  0  0  0  0  0  0
  195.1700  174.4120  137.2470 C   0  0  1  0  0  3  0  0  0  0  0  0
  196.4160  175.0450  137.2240 O   0  0  0  0  0  1  0  0  0  0  0  0
  195.3840  172.9260  137.4650 C   0  0  0  0  0  2  0  0  0  0  0  0
  196.2850  172.7110  138.5070 O   0  0  0  0  0  1  0  0  0  0  0  0
  1 16  2  0  0  0  0
  1  9  1  0  0  0  0
  2 11  1  0  0  0  0
  3 14  2  0  0  0  0
  5 15  2  0  0  0  0
  5 16  1  0  0  0  0
  7 13  2  0  0  0  0
  7  2  1  0  0  0  0
  8 12  2  0  0  0  0
  9 18  1  0  0  0  0
  9  2  2  0  0  0  0
 10  3  1  0  0  0  0
 10 13  1  0  0  0  0
 11  4  1  0  0  0  0
 11  6  2  0  0  0  0
 12  6  1  0  0  0  0
 13  8  1  0  0  0  0
 14  8  1  0  0  0  0
 15 10  1  0  0  0  0
 16  7  1  0  0  0  0
 18 17  1  0  0  0  0
 19 15  1  0  0  0  0
 20 25  1  6  0  0  0
 20 19  1  0  0  0  0
 20 21  1  0  0  0  0
 21 22  1  1  0  0  0
 23 21  1  0  0  0  0
 23 24  1  0  0  0  0
 26 25  2  0  0  0  0
 27 26  1  0  0  0  0
 29 30  1  0  0  0  0
 29 31  1  0  0  0  0
 30 28  1  0  0  0  0
 30 27  1  1  0  0  0
 31 36  1  6  0  0  0
 31 35  1  0  0  0  0
 32 31  1  0  0  0  0
 32 28  1  0  0  0  0
 33 34  1  0  0  0  0
 35 33  1  0  0  0  0
 35 34  1  0  0  0  0
 36 37  1  0  0  0  0
 38 39  1  0  0  0  0
 38 37  2  0  0  0  0
 40 39  1  6  0  0  0
 40 43  1  0  0  0  0
 41 44  1  0  0  0  0
 42 41  1  0  0  0  0
 42 40  1  0  0  0  0
 44 43  1  0  0  0  0
 45 36  1  0  0  0  0
 46 45  1  0  0  0  0
 47  5  1  0  0  0  0
 48 47  1  0  0  0  0
 49 48  1  0  0  0  0
 50 61  1  6  0  0  0
 50 53  1  0  0  0  0
 51 52  1  0  0  0  0
 52 49  1  1  0  0  0
 53 52  1  0  0  0  0
 54 58  1  6  0  0  0
 54 51  1  0  0  0  0
 55 54  1  0  0  0  0
 55 50  1  0  0  0  0
 58 56  1  0  0  0  0
 58 57  1  0  0  0  0
 59 58  1  0  0  0  0
 60 61  2  0  0  0  0
 61 62  1  0  0  0  0
 63 64  1  1  0  0  0
 63 65  1  0  0  0  0
 63 62  1  0  0  0  0
 65 66  1  0  0  0  0
M  END
>  <MODEL>
8

>  <REMARK>
 VINA RESULT:      -3.7      2.355      8.269
  Name = 
  23 active torsions:
  status: ('A' for Active; 'I' for Inactive)
    1  A    between atoms: C_1  and  C_5
    2  A    between atoms: C_1  and  C_27
    3  A    between atoms: N_2  and  N_11
    4  A    between atoms: C_5  and  C_37
    5  A    between atoms: C_7  and  C_10
    6  A    between atoms: C_7  and  N_59
    7  A    between atoms: C_9  and  N_11
    8  A    between atoms: N_11  and  C_54
    9  A    between atoms: C_12  and  C_53
   10  A    between atoms: C_12  and  C_64
   11  A    between atoms: C_13  and  C_53
   12  A    between atoms: C_23  and  C_37
   13  A    between atoms: C_24  and  C_38
   14  A    between atoms: C_24  and  C_56
   15  A    between atoms: C_28  and  C_36
   16  A    between atoms: C_28  and  C_46
   17  A    between atoms: C_30  and  C_51
   18  A    between atoms: C_35  and  C_61
   19  A    between atoms: O_41  and  C_44
   20  A    between atoms: C_42  and  C_54
   21  A    between atoms: C_44  and  C_53
   22  A    between atoms: C_47  and  C_50
   23  A    between atoms: C_51  and  C_56
                            x       y       z     vdW  Elec       q    Type
                         _______ _______ _______ _____ _____    ______ ____

>  <TORSDO>
F 23

$$$$
=
 OpenBabel10232410113D

 66 73  0  0  1  0  0  0  0  0999 V2000
  185.0720  174.2090  136.2260 C   0  0  0  0  0  3  0  0  0  0  0  0
  182.9350  173.4630  136.5900 C   0  0  0  0  0  0  0  0  0  0  0  0
  181.0230  177.7530  136.9130 C   0  0  0  0  0  3  0  0  0  0  0  0
  181.9320  171.1500  136.6950 C   0  0  0  0  0  1  0  0  0  0  0  0
  184.7090  176.7690  136.4000 C   0  0  0  0  0  0  0  0  0  0  0  0
  180.5350  173.1060  136.9970 N   0  0  0  0  0  0  0  0  0  0  0  0
  182.9970  174.9080  136.6690 C   0  0  0  0  0  0  0  0  0  0  0  0
  180.6490  175.5690  137.0000 C   0  0  0  0  0  0  0  0  0  0  0  0
  184.2570  173.0780  136.3050 C   0  0  0  0  0  0  0  0  0  0  0  0
  182.2180  177.1360  136.8110 N   0  0  0  0  0  0  0  0  0  0  0  0
  181.8010  172.6420  136.7720 C   0  0  0  0  0  0  0  0  0  0  0  0
  179.9920  174.3510  137.0980 C   0  0  0  0  0  3  0  0  0  0  0  0
  181.9830  175.8130  136.8290 C   0  0  0  0  0  0  0  0  0  0  0  0
  180.0160  176.8030  137.0480 C   0  0  0  0  0  3  0  0  0  0  0  0
  183.5270  177.7870  136.6270 C   0  0  0  0  0  0  0  0  0  0  0  0
  184.2830  175.3170  136.4590 C   0  0  0  0  0  0  0  0  0  0  0  0
  185.0510  171.2880  134.7180 C   0  0  0  0  0  1  0  0  0  0  0  0
  184.7530  171.6710  136.1670 C   0  0  0  0  0  2  0  0  0  0  0  0
  183.7690  178.8050  137.7520 C   0  0  0  0  0  2  0  0  0  0  0  0
  182.6120  178.8130  138.7440 C   0  0  2  0  0  3  0  0  0  0  0  0
  181.8800  180.1690  138.7460 C   0  0  2  0  0  3  0  0  0  0  0  0
  182.7450  181.4180  138.5470 C   0  0  0  0  0  1  0  0  0  0  0  0
  180.8440  180.2890  139.7020 O   0  0  0  0  0  0  0  0  0  0  0  0
  180.1140  181.4560  139.4320 C   0  0  0  0  0  1  0  0  0  0  0  0
  183.0850  178.3700  140.0980 C   0  0  0  0  0  3  0  0  0  0  0  0
  184.3690  178.1280  140.3740 C   0  0  0  0  0  3  0  0  0  0  0  0
  184.7820  177.6420  141.7250 C   0  0  0  0  0  2  0  0  0  0  0  0
  186.6920  179.1440  141.1170 C   0  0  0  0  0  2  0  0  0  0  0  0
  187.1300  177.3020  143.0590 S   0  0  0  0  0  0  0  0  0  0  0  0
  185.9700  178.4380  142.2510 C   0  0  2  0  0  3  0  0  0  0  0  0
  188.5900  177.9760  142.1760 C   0  0  2  0  0  0  0  0  0  0  0  0
  188.1440  179.2760  141.5240 C   0  0  0  0  0  2  0  0  0  0  0  0
  190.3360  176.7100  140.7510 C   0  0  0  0  0  2  0  0  0  0  0  0
  189.5080  177.4990  139.7540 C   0  0  0  0  0  2  0  0  0  0  0  0
  188.8700  176.9710  141.0190 C   0  0  0  0  0  3  0  0  0  0  0  0
  189.6690  178.2850  143.1650 N   0  0  0  0  0  0  0  0  0  0  0  0
  190.0720  177.3200  144.1180 N   0  0  0  0  0  0  0  0  0  0  0  0
  190.8780  177.5920  145.0660 N   0  0  0  0  0  0  0  0  0  0  0  0
  191.2100  176.5840  146.0620 C   0  0  0  0  0  2  0  0  0  0  0  0
  190.2940  176.7410  147.2730 C   0  0  1  0  0  3  0  0  0  0  0  0
  188.9670  178.3890  148.3260 C   0  0  0  0  0  2  0  0  0  0  0  0
  190.3680  178.1330  147.8330 C   0  0  0  0  0  2  0  0  0  0  0  0
  188.8480  176.5490  146.8800 C   0  0  0  0  0  2  0  0  0  0  0  0
  188.0490  177.5910  147.5200 N   0  0  0  0  0  2  0  0  0  0  0  0
  190.4370  179.5220  143.1820 C   0  0  0  0  0  2  0  0  0  0  0  0
  191.7840  179.2500  143.4170 O   0  0  0  0  0  1  0  0  0  0  0  0
  185.8980  177.0040  137.3250 C   0  0  0  0  0  2  0  0  0  0  0  0
  187.1170  177.4900  136.5420 C   0  0  0  0  0  2  0  0  0  0  0  0
  187.3810  176.6280  135.3120 C   0  0  0  0  0  2  0  0  0  0  0  0
  190.7160  175.4110  136.6610 C   0  0  1  0  0  3  0  0  0  0  0  0
  188.1990  174.7590  136.6150 O   0  0  0  0  0  0  0  0  0  0  0  0
  188.5230  175.6530  135.5750 C   0  0  2  0  0  3  0  0  0  0  0  0
  189.8050  176.3950  135.9260 C   0  0  0  0  0  2  0  0  0  0  0  0
  189.1560  173.7060  136.6210 C   0  0  2  0  0  3  0  0  0  0  0  0
  190.4730  174.0900  136.2280 O   0  0  0  0  0  0  0  0  0  0  0  0
  189.7230  171.6570  135.5330 F   0  0  0  0  0  0  0  0  0  0  0  0
  187.6780  171.8670  136.4440 F   0  0  0  0  0  0  0  0  0  0  0  0
  188.6820  172.5340  135.7730 C   0  0  0  0  0  0  0  0  0  0  0  0
  188.1860  173.0010  134.5640 F   0  0  0  0  0  0  0  0  0  0  0  0
  192.5180  176.5010  135.5640 O   0  0  0  0  0  0  0  0  0  0  0  0
  192.1640  175.7750  136.4850 C   0  0  0  0  0  0  0  0  0  0  0  0
  193.1850  175.2720  137.4650 C   0  0  0  0  0  2  0  0  0  0  0  0
  194.2230  174.3810  136.7830 C   0  0  1  0  0  3  0  0  0  0  0  0
  195.4900  174.9610  136.8920 O   0  0  0  0  0  1  0  0  0  0  0  0
  194.2550  173.0170  137.4470 C   0  0  0  0  0  2  0  0  0  0  0  0
  194.9770  172.1120  136.6690 O   0  0  0  0  0  1  0  0  0  0  0  0
  1  9  2  0  0  0  0
  1 16  1  0  0  0  0
  2  7  1  0  0  0  0
  2 11  2  0  0  0  0
  3 14  2  0  0  0  0
  4 11  1  0  0  0  0
  5 16  1  0  0  0  0
  5 15  2  0  0  0  0
  5 47  1  0  0  0  0
  6 12  2  0  0  0  0
  7 13  1  0  0  0  0
  8 14  1  0  0  0  0
  8 12  1  0  0  0  0
  9  2  1  0  0  0  0
 10 13  1  0  0  0  0
 10  3  1  0  0  0  0
 11  6  1  0  0  0  0
 13  8  2  0  0  0  0
 15 10  1  0  0  0  0
 15 19  1  0  0  0  0
 16  7  2  0  0  0  0
 17 18  1  0  0  0  0
 18  9  1  0  0  0  0
 20 19  1  6  0  0  0
 20 21  1  0  0  0  0
 20 25  1  0  0  0  0
 21 22  1  1  0  0  0
 21 23  1  0  0  0  0
 24 23  1  0  0  0  0
 25 26  2  0  0  0  0
 26 27  1  0  0  0  0
 28 32  1  0  0  0  0
 28 30  1  0  0  0  0
 30 27  1  6  0  0  0
 30 29  1  0  0  0  0
 31 29  1  0  0  0  0
 31 36  1  1  0  0  0
 32 31  1  0  0  0  0
 33 35  1  0  0  0  0
 34 33  1  0  0  0  0
 34 35  1  0  0  0  0
 35 31  1  0  0  0  0
 36 45  1  0  0  0  0
 36 37  1  0  0  0  0
 37 38  2  0  0  0  0
 38 39  1  0  0  0  0
 40 39  1  6  0  0  0
 40 42  1  0  0  0  0
 42 41  1  0  0  0  0
 43 40  1  0  0  0  0
 43 44  1  0  0  0  0
 44 41  1  0  0  0  0
 45 46  1  0  0  0  0
 48 47  1  0  0  0  0
 49 48  1  0  0  0  0
 50 61  1  6  0  0  0
 51 54  1  0  0  0  0
 52 49  1  1  0  0  0
 52 53  1  0  0  0  0
 52 51  1  0  0  0  0
 53 50  1  0  0  0  0
 54 58  1  6  0  0  0
 55 54  1  0  0  0  0
 55 50  1  0  0  0  0
 56 58  1  0  0  0  0
 58 57  1  0  0  0  0
 59 58  1  0  0  0  0
 60 61  2  0  0  0  0
 61 62  1  0  0  0  0
 63 64  1  1  0  0  0
 63 65  1  0  0  0  0
 63 62  1  0  0  0  0
 66 65  1  0  0  0  0
M  END
>  <MODEL>
9

>  <REMARK>
 VINA RESULT:      -3.7      2.386      3.328
  Name = 
  23 active torsions:
  status: ('A' for Active; 'I' for Inactive)
    1  A    between atoms: C_1  and  C_5
    2  A    between atoms: C_1  and  C_27
    3  A    between atoms: N_2  and  N_11
    4  A    between atoms: C_5  and  C_37
    5  A    between atoms: C_7  and  C_10
    6  A    between atoms: C_7  and  N_59
    7  A    between atoms: C_9  and  N_11
    8  A    between atoms: N_11  and  C_54
    9  A    between atoms: C_12  and  C_53
   10  A    between atoms: C_12  and  C_64
   11  A    between atoms: C_13  and  C_53
   12  A    between atoms: C_23  and  C_37
   13  A    between atoms: C_24  and  C_38
   14  A    between atoms: C_24  and  C_56
   15  A    between atoms: C_28  and  C_36
   16  A    between atoms: C_28  and  C_46
   17  A    between atoms: C_30  and  C_51
   18  A    between atoms: C_35  and  C_61
   19  A    between atoms: O_41  and  C_44
   20  A    between atoms: C_42  and  C_54
   21  A    between atoms: C_44  and  C_53
   22  A    between atoms: C_47  and  C_50
   23  A    between atoms: C_51  and  C_56
                            x       y       z     vdW  Elec       q    Type
                         _______ _______ _______ _____ _____    ______ ____

>  <TORSDO>
F 23

$$$$
