=
 OpenBabel10222421523D

 54 61  0  0  1  0  0  0  0  0999 V2000
  184.6330  178.2510  143.2310 C   0  0  0  0  0  0  0  0  0  0  0  0
  185.7470  177.9280  145.3770 C   0  0  0  0  0  3  0  0  0  0  0  0
  185.8780  178.0970  142.6160 C   0  0  0  0  0  0  0  0  0  0  0  0
  186.1340  178.1750  141.3030 N   0  0  0  0  0  0  0  0  0  0  0  0
  188.0660  177.7640  142.4430 C   0  0  0  0  0  3  0  0  0  0  0  0
  187.0200  177.8570  143.3400 C   0  0  0  0  0  0  0  0  0  0  0  0
  187.0030  177.7650  144.7480 C   0  0  0  0  0  0  0  0  0  0  0  0
  184.5780  178.1670  144.6300 C   0  0  0  0  0  2  0  0  0  0  0  0
  187.4680  177.9740  141.1990 C   0  0  0  0  0  0  0  0  0  0  0  0
  188.1950  177.9490  139.9070 C   0  0  0  0  0  0  0  0  0  0  0  0
  191.6180  177.0990  138.1980 C   0  0  2  0  0  3  0  0  0  0  0  0
  190.2020  177.2500  141.0290 O   0  0  0  0  0  0  0  0  0  0  0  0
  189.5650  177.5830  139.8180 C   0  0  0  0  0  0  0  0  0  0  0  0
  192.5690  175.1910  136.8890 C   0  0  0  0  0  0  0  0  0  0  0  0
  190.1970  177.5640  138.5270 C   0  0  0  0  0  0  0  0  0  0  0  0
  191.5940  176.0960  137.0610 C   0  0  0  0  0  3  0  0  0  0  0  0
  188.1270  178.3820  137.5240 C   0  0  0  0  0  3  0  0  0  0  0  0
  187.4980  178.3400  138.7590 C   0  0  0  0  0  3  0  0  0  0  0  0
  192.5550  177.6290  140.2910 C   0  0  0  0  0  2  0  0  0  0  0  0
  191.9470  177.2640  142.5960 C   0  0  0  0  0  2  0  0  0  0  0  0
  189.4580  178.0010  137.4150 C   0  0  0  0  0  3  0  0  0  0  0  0
  193.7290  176.2420  138.8550 C   0  0  0  0  0  2  0  0  0  0  0  0
  192.3860  176.5670  139.3280 N   0  0  2  0  0  0  0  0  0  0  0  0
  191.5520  177.4000  141.3410 C   0  0  0  0  0  0  0  0  0  0  0  0
  193.6700  175.0410  137.9140 C   0  0  0  0  0  2  0  0  0  0  0  0
  192.4470  174.2020  135.7620 C   0  0  1  0  0  3  0  0  0  0  0  0
  191.5230  174.6350  134.8070 O   0  0  0  0  0  1  0  0  0  0  0  0
  193.7390  173.9600  135.1320 N   0  0  0  0  0  0  0  0  0  0  0  0
  195.7530  175.2540  134.6620 C   0  0  0  0  0  3  0  0  0  0  0  0
  196.1490  173.2490  136.1000 N   0  0  0  0  0  2  0  0  0  0  0  0
  194.1410  172.5820  134.8260 C   0  0  0  0  0  2  0  0  0  0  0  0
  194.4270  175.0920  134.5860 C   0  0  0  0  0  3  0  0  0  0  0  0
  196.6220  174.3480  135.3590 N   0  0  0  0  0  2  0  0  0  0  0  0
  195.6110  172.2930  135.1450 C   0  0  0  0  0  2  0  0  0  0  0  0
  189.4270  177.0990  145.0020 C   0  0  0  0  0  3  0  0  0  0  0  0
  190.5070  177.1250  147.1690 C   0  0  0  0  0  3  0  0  0  0  0  0
  188.2200  177.5330  145.5770 C   0  0  0  0  0  0  0  0  0  0  0  0
  188.1790  177.7500  146.9650 C   0  0  0  0  0  3  0  0  0  0  0  0
  189.3130  177.5480  147.7560 C   0  0  0  0  0  3  0  0  0  0  0  0
  190.5630  176.8970  145.7910 C   0  0  0  0  0  3  0  0  0  0  0  0
  183.4470  178.4990  142.4660 N   0  0  0  0  0  0  0  0  0  0  0  0
  182.7490  179.6540  142.6530 O   0  0  0  0  0  0  0  0  0  0  0  0
  181.6380  179.3060  143.4330 C   0  0  0  0  0  2  0  0  0  0  0  0
  180.6090  180.3190  143.2940 N   0  0  0  0  0  1  0  0  0  0  0  0
  183.0520  177.5380  141.4290 C   0  0  0  0  0  2  0  0  0  0  0  0
  180.8720  177.9030  138.3790 C   0  0  0  0  0  2  0  0  0  0  0  0
  180.1090  177.7400  140.7160 C   0  0  0  0  0  1  0  0  0  0  0  0
  183.2490  177.8740  137.8720 C   0  0  0  0  0  0  0  0  0  0  0  0
  183.5480  178.4050  139.2490 C   0  0  1  0  0  3  0  0  0  0  0  0
  181.2730  177.4630  139.7800 C   0  0  2  0  0  3  0  0  0  0  0  0
  181.9350  177.6210  137.4860 O   0  0  0  0  0  0  0  0  0  0  0  0
  184.1870  177.6740  137.0590 O   0  0  0  0  0  0  0  0  0  0  0  0
  183.8690  179.8890  139.1690 C   0  0  0  0  0  1  0  0  0  0  0  0
  182.4740  178.1900  140.2430 N   0  0  0  0  0  0  0  0  0  0  0  0
  1  8  1  0  0  0  0
  3  1  2  0  0  0  0
  3  6  1  0  0  0  0
  4  3  1  0  0  0  0
  5  6  2  0  0  0  0
  6  7  1  0  0  0  0
  7  2  2  0  0  0  0
  7 37  1  0  0  0  0
  8  2  1  0  0  0  0
  9  4  2  0  0  0  0
  9  5  1  0  0  0  0
 10  9  1  0  0  0  0
 11 16  1  6  0  0  0
 11 15  1  0  0  0  0
 11 23  1  0  0  0  0
 12 24  1  0  0  0  0
 13 10  1  0  0  0  0
 13 12  1  0  0  0  0
 14 16  2  0  0  0  0
 14 25  1  0  0  0  0
 15 13  2  0  0  0  0
 17 18  1  0  0  0  0
 18 10  2  0  0  0  0
 19 24  1  0  0  0  0
 21 17  2  0  0  0  0
 21 15  1  0  0  0  0
 23 22  1  6  0  0  0
 23 19  1  0  0  0  0
 24 20  2  0  0  0  0
 25 22  1  0  0  0  0
 26 27  1  6  0  0  0
 26 14  1  0  0  0  0
 28 26  1  0  0  0  0
 29 33  1  0  0  0  0
 31 28  1  0  0  0  0
 31 34  1  0  0  0  0
 32 29  2  0  0  0  0
 32 28  1  0  0  0  0
 33 30  1  0  0  0  0
 34 30  1  0  0  0  0
 35 37  2  0  0  0  0
 35 40  1  0  0  0  0
 36 39  1  0  0  0  0
 37 38  1  0  0  0  0
 38 39  2  0  0  0  0
 40 36  2  0  0  0  0
 41 42  1  0  0  0  0
 41  1  1  0  0  0  0
 42 43  1  0  0  0  0
 44 43  1  0  0  0  0
 45 41  1  0  0  0  0
 46 50  1  0  0  0  0
 48 49  1  0  0  0  0
 49 53  1  6  0  0  0
 49 54  1  0  0  0  0
 50 54  1  0  0  0  0
 50 47  1  1  0  0  0
 51 48  1  0  0  0  0
 51 46  1  0  0  0  0
 52 48  2  0  0  0  0
 54 45  1  0  0  0  0
M  END
>  <MODEL>
1

>  <REMARK>
 VINA RESULT:      -9.2      0.000      0.000
  Name = 
  9 active torsions:
  status: ('A' for Active; 'I' for Inactive)
    1  A    between atoms: N_1  and  C_14
    2  A    between atoms: C_3  and  N_19
    3  A    between atoms: C_5  and  C_52
    4  A    between atoms: C_14  and  C_20
    5  A    between atoms: N_19  and  O_29
    6  A    between atoms: N_19  and  C_38
    7  A    between atoms: C_23  and  O_29
    8  A    between atoms: C_28  and  C_42
    9  A    between atoms: C_38  and  N_51
                            x       y       z     vdW  Elec       q    Type
                         _______ _______ _______ _____ _____    ______ ____

>  <TORSDO>
F 9

$$$$
=
 OpenBabel10222421523D

 54 61  0  0  1  0  0  0  0  0999 V2000
  182.4480  178.8000  141.3440 C   0  0  0  0  0  0  0  0  0  0  0  0
  183.1130  178.5960  143.6820 C   0  0  0  0  0  3  0  0  0  0  0  0
  183.7910  178.6330  140.9980 C   0  0  0  0  0  0  0  0  0  0  0  0
  184.3040  178.6520  139.7600 N   0  0  0  0  0  0  0  0  0  0  0  0
  185.9710  178.3220  141.2810 C   0  0  0  0  0  3  0  0  0  0  0  0
  184.7670  178.4440  141.9460 C   0  0  0  0  0  0  0  0  0  0  0  0
  184.4690  178.4200  143.3250 C   0  0  0  0  0  0  0  0  0  0  0  0
  182.1160  178.7820  142.7060 C   0  0  0  0  0  2  0  0  0  0  0  0
  185.6330  178.4640  139.9330 C   0  0  0  0  0  0  0  0  0  0  0  0
  186.6030  178.3870  138.8150 C   0  0  0  0  0  0  0  0  0  0  0  0
  190.2050  177.2210  137.8020 C   0  0  2  0  0  3  0  0  0  0  0  0
  188.2610  177.4680  140.2920 O   0  0  0  0  0  0  0  0  0  0  0  0
  187.9200  177.8840  138.9910 C   0  0  0  0  0  0  0  0  0  0  0  0
  191.2150  175.2490  136.6420 C   0  0  0  0  0  0  0  0  0  0  0  0
  188.7980  177.8230  137.8540 C   0  0  0  0  0  0  0  0  0  0  0  0
  190.3170  176.2460  136.6470 C   0  0  0  0  0  3  0  0  0  0  0  0
  187.0660  178.8650  136.4850 C   0  0  0  0  0  3  0  0  0  0  0  0
  186.1970  178.8670  137.5650 C   0  0  0  0  0  3  0  0  0  0  0  0
  190.7400  177.6170  140.0590 C   0  0  0  0  0  2  0  0  0  0  0  0
  189.6410  177.2770  142.1790 C   0  0  0  0  0  2  0  0  0  0  0  0
  188.3480  178.3520  136.6330 C   0  0  0  0  0  3  0  0  0  0  0  0
  192.0440  176.1420  138.8400 C   0  0  0  0  0  2  0  0  0  0  0  0
  190.6700  176.5940  139.0430 N   0  0  2  0  0  0  0  0  0  0  0  0
  189.5260  177.4740  140.8760 C   0  0  0  0  0  0  0  0  0  0  0  0
  192.0630  174.9690  137.8610 C   0  0  0  0  0  2  0  0  0  0  0  0
  191.2310  174.2970  135.4770 C   0  0  1  0  0  3  0  0  0  0  0  0
  192.0850  173.2170  135.7180 O   0  0  0  0  0  1  0  0  0  0  0  0
  189.8890  173.8140  135.1740 N   0  0  0  0  0  0  0  0  0  0  0  0
  188.4330  172.0170  135.9500 C   0  0  0  0  0  3  0  0  0  0  0  0
  187.4740  174.3030  136.2580 N   0  0  0  0  0  2  0  0  0  0  0  0
  189.0000  174.6380  134.3460 C   0  0  0  0  0  2  0  0  0  0  0  0
  189.6050  172.4390  135.4590 C   0  0  0  0  0  3  0  0  0  0  0  0
  187.3600  172.9020  136.3100 N   0  0  0  0  0  2  0  0  0  0  0  0
  187.5550  174.6720  134.8530 C   0  0  0  0  0  2  0  0  0  0  0  0
  186.6610  177.4870  144.1680 C   0  0  0  0  0  3  0  0  0  0  0  0
  187.4300  177.9510  146.4170 C   0  0  0  0  0  3  0  0  0  0  0  0
  185.4970  178.2440  144.3900 C   0  0  0  0  0  0  0  0  0  0  0  0
  185.3180  178.8440  145.6480 C   0  0  0  0  0  3  0  0  0  0  0  0
  186.2760  178.7000  146.6550 C   0  0  0  0  0  3  0  0  0  0  0  0
  187.6210  177.3410  145.1740 C   0  0  0  0  0  3  0  0  0  0  0  0
  181.4380  178.9950  140.3470 N   0  0  0  0  0  0  0  0  0  0  0  0
  181.5840  179.9800  139.4170 O   0  0  0  0  0  0  0  0  0  0  0  0
  180.5330  180.8790  139.6450 C   0  0  0  0  0  2  0  0  0  0  0  0
  180.5340  181.9010  138.6160 N   0  0  0  0  0  1  0  0  0  0  0  0
  180.3000  178.0700  140.2930 C   0  0  0  0  0  2  0  0  0  0  0  0
  181.4430  174.9930  138.4450 C   0  0  0  0  0  2  0  0  0  0  0  0
  180.0200  175.0520  140.4550 C   0  0  0  0  0  1  0  0  0  0  0  0
  182.2150  177.0680  137.4420 C   0  0  0  0  0  0  0  0  0  0  0  0
  181.0310  177.7910  138.0260 C   0  0  1  0  0  3  0  0  0  0  0  0
  181.0170  175.8480  139.6300 C   0  0  2  0  0  3  0  0  0  0  0  0
  182.3980  175.7090  137.6810 O   0  0  0  0  0  0  0  0  0  0  0  0
  183.0350  177.6890  136.7190 O   0  0  0  0  0  0  0  0  0  0  0  0
  179.9870  178.0240  136.9460 C   0  0  0  0  0  1  0  0  0  0  0  0
  180.3990  177.1130  139.1800 N   0  0  0  0  0  0  0  0  0  0  0  0
  1  8  1  0  0  0  0
  3  1  2  0  0  0  0
  3  6  1  0  0  0  0
  4  9  2  0  0  0  0
  4  3  1  0  0  0  0
  5  6  2  0  0  0  0
  6  7  1  0  0  0  0
  7  2  2  0  0  0  0
  7 37  1  0  0  0  0
  8  2  1  0  0  0  0
  9  5  1  0  0  0  0
 10 13  1  0  0  0  0
 10  9  1  0  0  0  0
 11 16  1  6  0  0  0
 11 15  1  0  0  0  0
 11 23  1  0  0  0  0
 12 24  1  0  0  0  0
 13 12  1  0  0  0  0
 14 16  2  0  0  0  0
 14 25  1  0  0  0  0
 15 13  2  0  0  0  0
 17 21  2  0  0  0  0
 17 18  1  0  0  0  0
 18 10  2  0  0  0  0
 19 24  1  0  0  0  0
 21 15  1  0  0  0  0
 23 22  1  6  0  0  0
 23 19  1  0  0  0  0
 24 20  2  0  0  0  0
 25 22  1  0  0  0  0
 26 27  1  1  0  0  0
 26 14  1  0  0  0  0
 28 32  1  0  0  0  0
 28 26  1  0  0  0  0
 29 33  1  0  0  0  0
 30 33  1  0  0  0  0
 31 34  1  0  0  0  0
 31 28  1  0  0  0  0
 32 29  2  0  0  0  0
 34 30  1  0  0  0  0
 35 37  2  0  0  0  0
 35 40  1  0  0  0  0
 36 39  1  0  0  0  0
 37 38  1  0  0  0  0
 38 39  2  0  0  0  0
 40 36  2  0  0  0  0
 41  1  1  0  0  0  0
 42 43  1  0  0  0  0
 42 41  1  0  0  0  0
 44 43  1  0  0  0  0
 45 41  1  0  0  0  0
 46 50  1  0  0  0  0
 48 51  1  0  0  0  0
 48 49  1  0  0  0  0
 49 53  1  6  0  0  0
 49 54  1  0  0  0  0
 50 47  1  6  0  0  0
 51 46  1  0  0  0  0
 52 48  2  0  0  0  0
 54 50  1  0  0  0  0
 54 45  1  0  0  0  0
M  END
>  <MODEL>
2

>  <REMARK>
 VINA RESULT:      -9.1      2.376      3.600
  Name = 
  9 active torsions:
  status: ('A' for Active; 'I' for Inactive)
    1  A    between atoms: N_1  and  C_14
    2  A    between atoms: C_3  and  N_19
    3  A    between atoms: C_5  and  C_52
    4  A    between atoms: C_14  and  C_20
    5  A    between atoms: N_19  and  O_29
    6  A    between atoms: N_19  and  C_38
    7  A    between atoms: C_23  and  O_29
    8  A    between atoms: C_28  and  C_42
    9  A    between atoms: C_38  and  N_51
                            x       y       z     vdW  Elec       q    Type
                         _______ _______ _______ _____ _____    ______ ____

>  <TORSDO>
F 9

$$$$
=
 OpenBabel10222421523D

 54 61  0  0  1  0  0  0  0  0999 V2000
  182.5000  178.8280  140.8850 C   0  0  0  0  0  0  0  0  0  0  0  0
  183.0880  178.6630  143.2470 C   0  0  0  0  0  3  0  0  0  0  0  0
  183.8490  178.6270  140.5840 C   0  0  0  0  0  0  0  0  0  0  0  0
  184.3990  178.6080  139.3630 N   0  0  0  0  0  0  0  0  0  0  0  0
  186.0120  178.2790  140.9410 C   0  0  0  0  0  3  0  0  0  0  0  0
  184.7910  178.4400  141.5660 C   0  0  0  0  0  0  0  0  0  0  0  0
  184.4510  178.4520  142.9350 C   0  0  0  0  0  0  0  0  0  0  0  0
  182.1260  178.8470  142.2360 C   0  0  0  0  0  2  0  0  0  0  0  0
  185.7180  178.3970  139.5810 C   0  0  0  0  0  0  0  0  0  0  0  0
  186.7210  178.2760  138.4950 C   0  0  0  0  0  0  0  0  0  0  0  0
  190.3480  177.0700  137.6330 C   0  0  2  0  0  3  0  0  0  0  0  0
  188.3330  177.4150  140.0550 O   0  0  0  0  0  0  0  0  0  0  0  0
  188.0310  177.7800  138.7290 C   0  0  0  0  0  0  0  0  0  0  0  0
  191.3880  175.0530  136.5810 C   0  0  0  0  0  0  0  0  0  0  0  0
  188.9410  177.6740  137.6210 C   0  0  0  0  0  0  0  0  0  0  0  0
  190.4920  176.0490  136.5210 C   0  0  0  0  0  3  0  0  0  0  0  0
  187.2520  178.6620  136.1630 C   0  0  0  0  0  3  0  0  0  0  0  0
  186.3510  178.7070  137.2170 C   0  0  0  0  0  3  0  0  0  0  0  0
  190.8190  177.5530  139.8880 C   0  0  0  0  0  2  0  0  0  0  0  0
  189.6580  177.2980  141.9870 C   0  0  0  0  0  2  0  0  0  0  0  0
  188.5270  178.1550  136.3680 C   0  0  0  0  0  3  0  0  0  0  0  0
  192.1550  176.0310  138.7660 C   0  0  0  0  0  2  0  0  0  0  0  0
  190.7760  176.4910  138.9110 N   0  0  2  0  0  0  0  0  0  0  0  0
  189.5810  177.4440  140.6750 C   0  0  0  0  0  0  0  0  0  0  0  0
  192.2000  174.8210  137.8350 C   0  0  0  0  0  2  0  0  0  0  0  0
  191.4360  174.0550  135.4560 C   0  0  1  0  0  3  0  0  0  0  0  0
  190.5710  174.4190  134.4210 O   0  0  0  0  0  1  0  0  0  0  0  0
  192.7930  173.9070  134.9430 N   0  0  0  0  0  0  0  0  0  0  0  0
  194.6940  175.3710  134.5050 C   0  0  0  0  0  3  0  0  0  0  0  0
  195.1780  173.5430  136.1370 N   0  0  0  0  0  2  0  0  0  0  0  0
  193.3580  172.5610  134.7880 C   0  0  0  0  0  2  0  0  0  0  0  0
  193.4020  175.0600  134.3490 C   0  0  0  0  0  3  0  0  0  0  0  0
  195.5940  174.6240  135.3390 N   0  0  0  0  0  2  0  0  0  0  0  0
  194.8200  172.4610  135.2340 C   0  0  0  0  0  2  0  0  0  0  0  0
  186.5850  177.4770  143.8740 C   0  0  0  0  0  3  0  0  0  0  0  0
  187.3070  177.9930  146.1260 C   0  0  0  0  0  3  0  0  0  0  0  0
  185.4430  178.2800  144.0360 C   0  0  0  0  0  0  0  0  0  0  0  0
  185.2490  178.9290  145.2660 C   0  0  0  0  0  3  0  0  0  0  0  0
  186.1730  178.7880  146.3050 C   0  0  0  0  0  3  0  0  0  0  0  0
  187.5110  177.3350  144.9110 C   0  0  0  0  0  3  0  0  0  0  0  0
  181.5250  179.0210  139.8530 N   0  0  0  0  0  0  0  0  0  0  0  0
  181.7150  179.9870  138.9120 O   0  0  0  0  0  0  0  0  0  0  0  0
  180.8110  181.0110  139.2270 C   0  0  0  0  0  2  0  0  0  0  0  0
  180.8370  182.0210  138.1870 N   0  0  0  0  0  1  0  0  0  0  0  0
  180.3740  178.1120  139.7790 C   0  0  0  0  0  2  0  0  0  0  0  0
  181.6910  174.9570  138.1980 C   0  0  0  0  0  2  0  0  0  0  0  0
  180.2370  175.1070  140.1810 C   0  0  0  0  0  1  0  0  0  0  0  0
  182.3790  176.9810  137.0400 C   0  0  0  0  0  0  0  0  0  0  0  0
  181.1520  177.6890  137.5500 C   0  0  1  0  0  3  0  0  0  0  0  0
  181.2060  175.8820  139.3050 C   0  0  2  0  0  3  0  0  0  0  0  0
  182.6220  175.6550  137.3900 O   0  0  0  0  0  0  0  0  0  0  0  0
  183.1790  177.5810  136.2790 O   0  0  0  0  0  0  0  0  0  0  0  0
  180.1150  177.7840  136.4430 C   0  0  0  0  0  1  0  0  0  0  0  0
  180.5360  177.0750  138.7480 N   0  0  0  0  0  0  0  0  0  0  0  0
  1  8  1  0  0  0  0
  3  1  2  0  0  0  0
  3  6  1  0  0  0  0
  4  9  2  0  0  0  0
  4  3  1  0  0  0  0
  5  6  2  0  0  0  0
  6  7  1  0  0  0  0
  7  2  2  0  0  0  0
  7 37  1  0  0  0  0
  8  2  1  0  0  0  0
  9  5  1  0  0  0  0
 10 13  1  0  0  0  0
 10  9  1  0  0  0  0
 11 16  1  6  0  0  0
 11 23  1  0  0  0  0
 12 24  1  0  0  0  0
 13 12  1  0  0  0  0
 14 25  1  0  0  0  0
 15 11  1  0  0  0  0
 15 13  2  0  0  0  0
 16 14  2  0  0  0  0
 17 21  2  0  0  0  0
 17 18  1  0  0  0  0
 18 10  2  0  0  0  0
 19 24  1  0  0  0  0
 21 15  1  0  0  0  0
 23 22  1  6  0  0  0
 23 19  1  0  0  0  0
 24 20  2  0  0  0  0
 25 22  1  0  0  0  0
 26 27  1  6  0  0  0
 26 14  1  0  0  0  0
 28 26  1  0  0  0  0
 29 33  1  0  0  0  0
 31 28  1  0  0  0  0
 31 34  1  0  0  0  0
 32 29  2  0  0  0  0
 32 28  1  0  0  0  0
 33 30  1  0  0  0  0
 34 30  1  0  0  0  0
 35 37  2  0  0  0  0
 35 40  1  0  0  0  0
 36 39  1  0  0  0  0
 37 38  1  0  0  0  0
 38 39  2  0  0  0  0
 40 36  2  0  0  0  0
 41  1  1  0  0  0  0
 42 43  1  0  0  0  0
 42 41  1  0  0  0  0
 44 43  1  0  0  0  0
 45 41  1  0  0  0  0
 46 50  1  0  0  0  0
 48 51  1  0  0  0  0
 48 49  1  0  0  0  0
 49 53  1  6  0  0  0
 49 54  1  0  0  0  0
 50 47  1  1  0  0  0
 51 46  1  0  0  0  0
 52 48  2  0  0  0  0
 54 50  1  0  0  0  0
 54 45  1  0  0  0  0
M  END
>  <MODEL>
3

>  <REMARK>
 VINA RESULT:      -9.0      1.701      2.598
  Name = 
  9 active torsions:
  status: ('A' for Active; 'I' for Inactive)
    1  A    between atoms: N_1  and  C_14
    2  A    between atoms: C_3  and  N_19
    3  A    between atoms: C_5  and  C_52
    4  A    between atoms: C_14  and  C_20
    5  A    between atoms: N_19  and  O_29
    6  A    between atoms: N_19  and  C_38
    7  A    between atoms: C_23  and  O_29
    8  A    between atoms: C_28  and  C_42
    9  A    between atoms: C_38  and  N_51
                            x       y       z     vdW  Elec       q    Type
                         _______ _______ _______ _____ _____    ______ ____

>  <TORSDO>
F 9

$$$$
=
 OpenBabel10222421523D

 54 61  0  0  1  0  0  0  0  0999 V2000
  192.7810  173.4070  135.3420 C   0  0  0  0  0  0  0  0  0  0  0  0
  191.0170  172.0460  134.3480 C   0  0  0  0  0  3  0  0  0  0  0  0
  191.8000  174.0170  136.1280 C   0  0  0  0  0  0  0  0  0  0  0  0
  191.9900  175.0020  137.0170 N   0  0  0  0  0  2  0  0  0  0  0  0
  189.7790  174.4470  136.9380 C   0  0  0  0  0  3  0  0  0  0  0  0
  190.4770  173.6590  136.0450 C   0  0  0  0  0  0  0  0  0  0  0  0
  190.0310  172.6620  135.1520 C   0  0  0  0  0  0  0  0  0  0  0  0
  192.3730  172.4120  134.4420 C   0  0  0  0  0  3  0  0  0  0  0  0
  190.7570  175.2650  137.5090 C   0  0  0  0  0  0  0  0  0  0  0  0
  190.4900  176.2820  138.5550 C   0  0  0  0  0  0  0  0  0  0  0  0
  187.7270  178.5560  140.1510 C   0  0  2  0  0  3  0  0  0  0  0  0
  188.2210  176.4960  137.7940 O   0  0  0  0  0  0  0  0  0  0  0  0
  189.2190  176.8980  138.7030 C   0  0  0  0  0  0  0  0  0  0  0  0
  186.2590  178.4790  142.1760 C   0  0  0  0  0  0  0  0  0  0  0  0
  189.0320  177.8620  139.7530 C   0  0  0  0  0  0  0  0  0  0  0  0
  187.4880  178.4120  141.6410 C   0  0  0  0  0  3  0  0  0  0  0  0
  191.3860  177.6330  140.3550 C   0  0  0  0  0  3  0  0  0  0  0  0
  191.5520  176.6570  139.3840 C   0  0  0  0  0  3  0  0  0  0  0  0
  186.7350  178.4880  138.0180 C   0  0  0  0  0  2  0  0  0  0  0  0
  186.4360  176.8160  136.3060 C   0  0  0  0  0  2  0  0  0  0  0  0
  190.1430  178.2250  140.5310 C   0  0  0  0  0  3  0  0  0  0  0  0
  185.4060  178.9450  139.8580 C   0  0  0  0  0  2  0  0  0  0  0  0
  186.5360  178.1390  139.4040 N   0  0  2  0  0  0  0  0  0  0  0  0
  187.1450  177.2530  137.3330 C   0  0  0  0  0  0  0  0  0  0  0  0
  185.0380  178.5590  141.2900 C   0  0  0  0  0  2  0  0  0  0  0  0
  186.1040  178.2820  143.6590 C   0  0  1  0  0  3  0  0  0  0  0  0
  184.8860  177.6690  143.9630 O   0  0  0  0  0  1  0  0  0  0  0  0
  187.2070  177.4980  144.2030 N   0  0  0  0  0  0  0  0  0  0  0  0
  188.9490  176.0370  143.3200 C   0  0  0  0  0  3  0  0  0  0  0  0
  189.8230  178.0160  144.5700 N   0  0  0  0  0  2  0  0  0  0  0  0
  187.6030  177.6920  145.6030 C   0  0  0  0  0  2  0  0  0  0  0  0
  187.6600  176.3780  143.4330 C   0  0  0  0  0  3  0  0  0  0  0  0
  190.0230  176.7950  143.9000 N   0  0  0  0  0  2  0  0  0  0  0  0
  189.1210  177.7120  145.8070 C   0  0  0  0  0  2  0  0  0  0  0  0
  188.1910  170.9300  135.2180 C   0  0  0  0  0  3  0  0  0  0  0  0
  185.8940  171.5340  134.7510 C   0  0  0  0  0  3  0  0  0  0  0  0
  188.6030  172.2590  135.0080 C   0  0  0  0  0  0  0  0  0  0  0  0
  187.6330  173.2130  134.6600 C   0  0  0  0  0  3  0  0  0  0  0  0
  186.2880  172.8560  134.5320 C   0  0  0  0  0  3  0  0  0  0  0  0
  186.8470  170.5710  135.0910 C   0  0  0  0  0  3  0  0  0  0  0  0
  194.1590  173.7870  135.4380 N   0  0  0  0  0  0  0  0  0  0  0  0
  194.6770  174.6880  134.5560 O   0  0  0  0  0  0  0  0  0  0  0  0
  195.4680  175.5570  135.3190 C   0  0  0  0  0  2  0  0  0  0  0  0
  194.6770  176.7030  135.7280 N   0  0  0  0  0  1  0  0  0  0  0  0
  194.9700  173.2620  136.5430 C   0  0  0  0  0  2  0  0  0  0  0  0
  196.5970  169.8920  136.9760 C   0  0  0  0  0  2  0  0  0  0  0  0
  194.1790  170.3670  136.9970 C   0  0  0  0  0  1  0  0  0  0  0  0
  198.1860  171.6950  136.6100 C   0  0  0  0  0  0  0  0  0  0  0  0
  197.1310  172.4730  135.8680 C   0  0  1  0  0  3  0  0  0  0  0  0
  195.5560  170.9890  137.1570 C   0  0  2  0  0  3  0  0  0  0  0  0
  197.8870  170.4490  137.1550 O   0  0  0  0  0  0  0  0  0  0  0  0
  199.3470  172.1620  136.7230 O   0  0  0  0  0  0  0  0  0  0  0  0
  197.3780  172.3730  134.3710 C   0  0  0  0  0  1  0  0  0  0  0  0
  195.7390  172.0670  136.1630 N   0  0  0  0  0  0  0  0  0  0  0  0
  1 41  1  0  0  0  0
  1  3  1  0  0  0  0
  2  8  1  0  0  0  0
  2  7  2  0  0  0  0
  3  4  1  0  0  0  0
  4  9  1  0  0  0  0
  5  9  2  0  0  0  0
  6  3  2  0  0  0  0
  6  5  1  0  0  0  0
  7  6  1  0  0  0  0
  8  1  2  0  0  0  0
  9 10  1  0  0  0  0
 10 13  2  0  0  0  0
 10 18  1  0  0  0  0
 11 16  1  1  0  0  0
 12 13  1  0  0  0  0
 13 15  1  0  0  0  0
 14 26  1  0  0  0  0
 15 11  1  0  0  0  0
 15 21  2  0  0  0  0
 16 14  2  0  0  0  0
 17 21  1  0  0  0  0
 18 17  2  0  0  0  0
 20 24  2  0  0  0  0
 22 25  1  0  0  0  0
 23 19  1  6  0  0  0
 23 22  1  0  0  0  0
 23 11  1  0  0  0  0
 24 12  1  0  0  0  0
 24 19  1  0  0  0  0
 25 14  1  0  0  0  0
 26 27  1  6  0  0  0
 26 28  1  0  0  0  0
 28 31  1  0  0  0  0
 29 32  2  0  0  0  0
 29 33  1  0  0  0  0
 30 34  1  0  0  0  0
 31 34  1  0  0  0  0
 32 28  1  0  0  0  0
 33 30  1  0  0  0  0
 36 40  2  0  0  0  0
 37  7  1  0  0  0  0
 37 35  2  0  0  0  0
 38 37  1  0  0  0  0
 39 38  2  0  0  0  0
 39 36  1  0  0  0  0
 40 35  1  0  0  0  0
 41 45  1  0  0  0  0
 42 43  1  0  0  0  0
 42 41  1  0  0  0  0
 43 44  1  0  0  0  0
 46 51  1  0  0  0  0
 46 50  1  0  0  0  0
 48 52  2  0  0  0  0
 48 51  1  0  0  0  0
 49 53  1  6  0  0  0
 49 54  1  0  0  0  0
 49 48  1  0  0  0  0
 50 47  1  6  0  0  0
 54 45  1  0  0  0  0
 54 50  1  0  0  0  0
M  END
>  <MODEL>
4

>  <REMARK>
 VINA RESULT:      -7.5      3.261     11.690
  Name = 
  9 active torsions:
  status: ('A' for Active; 'I' for Inactive)
    1  A    between atoms: N_1  and  C_14
    2  A    between atoms: C_3  and  N_19
    3  A    between atoms: C_5  and  C_52
    4  A    between atoms: C_14  and  C_20
    5  A    between atoms: N_19  and  O_29
    6  A    between atoms: N_19  and  C_38
    7  A    between atoms: C_23  and  O_29
    8  A    between atoms: C_28  and  C_42
    9  A    between atoms: C_38  and  N_51
                            x       y       z     vdW  Elec       q    Type
                         _______ _______ _______ _____ _____    ______ ____

>  <TORSDO>
F 9

$$$$
=
 OpenBabel10222421523D

 54 61  0  0  1  0  0  0  0  0999 V2000
  192.7720  174.5440  135.4380 C   0  0  0  0  0  0  0  0  0  0  0  0
  191.0180  173.2430  134.3510 C   0  0  0  0  0  3  0  0  0  0  0  0
  191.8360  174.9040  136.4110 C   0  0  0  0  0  0  0  0  0  0  0  0
  192.0440  175.7160  137.4560 N   0  0  0  0  0  2  0  0  0  0  0  0
  189.8830  174.9900  137.4610 C   0  0  0  0  0  3  0  0  0  0  0  0
  190.5400  174.4500  136.3730 C   0  0  0  0  0  0  0  0  0  0  0  0
  190.0770  173.6050  135.3430 C   0  0  0  0  0  0  0  0  0  0  0  0
  192.3470  173.7050  134.3980 C   0  0  0  0  0  3  0  0  0  0  0  0
  190.8520  175.7690  138.0950 C   0  0  0  0  0  0  0  0  0  0  0  0
  190.6230  176.5420  139.3390 C   0  0  0  0  0  0  0  0  0  0  0  0
  187.9200  178.4260  141.4610 C   0  0  2  0  0  3  0  0  0  0  0  0
  188.3340  176.9120  138.7090 O   0  0  0  0  0  0  0  0  0  0  0  0
  189.3600  177.1120  139.6520 C   0  0  0  0  0  0  0  0  0  0  0  0
  186.5110  177.9220  143.4660 C   0  0  0  0  0  0  0  0  0  0  0  0
  189.2090  177.8320  140.8870 C   0  0  0  0  0  0  0  0  0  0  0  0
  187.7230  177.9700  142.8940 C   0  0  0  0  0  3  0  0  0  0  0  0
  191.5780  177.4820  141.3580 C   0  0  0  0  0  3  0  0  0  0  0  0
  191.7100  176.7330  140.1980 C   0  0  0  0  0  3  0  0  0  0  0  0
  186.8670  178.8110  139.3920 C   0  0  0  0  0  2  0  0  0  0  0  0
  186.5080  177.5380  137.3740 C   0  0  0  0  0  2  0  0  0  0  0  0
  190.3440  178.0230  141.6910 C   0  0  0  0  0  3  0  0  0  0  0  0
  185.5940  178.8680  141.3250 C   0  0  0  0  0  2  0  0  0  0  0  0
  186.7050  178.1760  140.6780 N   0  0  2  0  0  0  0  0  0  0  0  0
  187.2490  177.7490  138.4500 C   0  0  0  0  0  0  0  0  0  0  0  0
  185.2650  178.1880  142.6530 C   0  0  0  0  0  2  0  0  0  0  0  0
  186.3970  177.4160  144.8780 C   0  0  1  0  0  3  0  0  0  0  0  0
  186.3840  176.0190  144.9140 O   0  0  0  0  0  1  0  0  0  0  0  0
  187.4820  177.9260  145.7080 N   0  0  0  0  0  0  0  0  0  0  0  0
  187.8260  178.4100  148.0740 C   0  0  0  0  0  3  0  0  0  0  0  0
  189.4180  176.7260  147.1420 N   0  0  0  0  0  2  0  0  0  0  0  0
  188.8290  178.0420  145.1380 C   0  0  0  0  0  2  0  0  0  0  0  0
  187.1230  178.5550  146.9450 C   0  0  0  0  0  3  0  0  0  0  0  0
  188.9750  177.5560  148.1880 N   0  0  0  0  0  2  0  0  0  0  0  0
  189.9360  177.5950  146.0980 C   0  0  0  0  0  2  0  0  0  0  0  0
  188.3390  171.7860  135.5840 C   0  0  0  0  0  3  0  0  0  0  0  0
  186.0110  172.2120  135.0750 C   0  0  0  0  0  3  0  0  0  0  0  0
  188.6740  173.1090  135.2470 C   0  0  0  0  0  0  0  0  0  0  0  0
  187.6520  173.9700  134.8140 C   0  0  0  0  0  3  0  0  0  0  0  0
  186.3290  173.5260  134.7290 C   0  0  0  0  0  3  0  0  0  0  0  0
  187.0170  171.3400  135.5000 C   0  0  0  0  0  3  0  0  0  0  0  0
  194.1220  175.0220  135.4870 N   0  0  0  0  0  0  0  0  0  0  0  0
  194.3780  176.2890  135.9160 O   0  0  0  0  0  0  0  0  0  0  0  0
  195.0020  176.9370  134.8400 C   0  0  0  0  0  2  0  0  0  0  0  0
  195.5800  178.1880  135.2940 N   0  0  0  0  0  1  0  0  0  0  0  0
  195.2170  174.1030  135.1540 C   0  0  0  0  0  2  0  0  0  0  0  0
  198.3420  172.9810  136.9350 C   0  0  0  0  0  2  0  0  0  0  0  0
  198.1540  174.8470  135.3370 C   0  0  0  0  0  1  0  0  0  0  0  0
  196.3710  171.6870  137.5270 C   0  0  0  0  0  0  0  0  0  0  0  0
  195.4960  172.8640  137.1890 C   0  0  1  0  0  3  0  0  0  0  0  0
  197.4900  173.5680  135.8180 C   0  0  2  0  0  3  0  0  0  0  0  0
  197.7530  171.7700  137.3740 O   0  0  0  0  0  0  0  0  0  0  0  0
  195.8560  170.6280  137.9690 O   0  0  0  0  0  0  0  0  0  0  0  0
  195.0430  173.5520  138.4660 C   0  0  0  0  0  1  0  0  0  0  0  0
  196.1200  173.8610  136.2900 N   0  0  0  0  0  0  0  0  0  0  0  0
  1 41  1  0  0  0  0
  1  3  1  0  0  0  0
  2  8  1  0  0  0  0
  2  7  2  0  0  0  0
  3  4  1  0  0  0  0
  4  9  1  0  0  0  0
  5  9  2  0  0  0  0
  6  3  2  0  0  0  0
  6  5  1  0  0  0  0
  7  6  1  0  0  0  0
  8  1  2  0  0  0  0
  9 10  1  0  0  0  0
 10 13  2  0  0  0  0
 10 18  1  0  0  0  0
 11 16  1  1  0  0  0
 12 13  1  0  0  0  0
 13 15  1  0  0  0  0
 14 26  1  0  0  0  0
 15 11  1  0  0  0  0
 15 21  2  0  0  0  0
 16 14  2  0  0  0  0
 17 21  1  0  0  0  0
 18 17  2  0  0  0  0
 20 24  2  0  0  0  0
 22 25  1  0  0  0  0
 23 19  1  6  0  0  0
 23 22  1  0  0  0  0
 23 11  1  0  0  0  0
 24 12  1  0  0  0  0
 24 19  1  0  0  0  0
 25 14  1  0  0  0  0
 26 27  1  6  0  0  0
 26 28  1  0  0  0  0
 28 32  1  0  0  0  0
 29 33  1  0  0  0  0
 30 33  1  0  0  0  0
 31 28  1  0  0  0  0
 31 34  1  0  0  0  0
 32 29  2  0  0  0  0
 34 30  1  0  0  0  0
 36 40  2  0  0  0  0
 37  7  1  0  0  0  0
 37 35  2  0  0  0  0
 38 37  1  0  0  0  0
 39 38  2  0  0  0  0
 39 36  1  0  0  0  0
 40 35  1  0  0  0  0
 41 42  1  0  0  0  0
 43 44  1  0  0  0  0
 43 42  1  0  0  0  0
 45 41  1  0  0  0  0
 45 54  1  0  0  0  0
 46 51  1  0  0  0  0
 48 52  2  0  0  0  0
 49 48  1  0  0  0  0
 49 53  1  1  0  0  0
 50 47  1  1  0  0  0
 50 54  1  0  0  0  0
 50 46  1  0  0  0  0
 51 48  1  0  0  0  0
 54 49  1  0  0  0  0
M  END
>  <MODEL>
5

>  <REMARK>
 VINA RESULT:      -7.2      3.244     11.730
  Name = 
  9 active torsions:
  status: ('A' for Active; 'I' for Inactive)
    1  A    between atoms: N_1  and  C_14
    2  A    between atoms: C_3  and  N_19
    3  A    between atoms: C_5  and  C_52
    4  A    between atoms: C_14  and  C_20
    5  A    between atoms: N_19  and  O_29
    6  A    between atoms: N_19  and  C_38
    7  A    between atoms: C_23  and  O_29
    8  A    between atoms: C_28  and  C_42
    9  A    between atoms: C_38  and  N_51
                            x       y       z     vdW  Elec       q    Type
                         _______ _______ _______ _____ _____    ______ ____

>  <TORSDO>
F 9

$$$$
=
 OpenBabel10222421523D

 54 61  0  0  1  0  0  0  0  0999 V2000
  188.2420  177.3180  139.1060 C   0  0  0  0  0  0  0  0  0  0  0  0
  186.0390  177.8230  138.1860 C   0  0  0  0  0  3  0  0  0  0  0  0
  188.3840  176.3520  138.1070 C   0  0  0  0  0  0  0  0  0  0  0  0
  189.4300  175.5320  137.9350 N   0  0  0  0  0  0  0  0  0  0  0  0
  187.8500  175.1140  136.3440 C   0  0  0  0  0  3  0  0  0  0  0  0
  187.4050  176.1260  137.1720 C   0  0  0  0  0  0  0  0  0  0  0  0
  186.1930  176.8480  137.1730 C   0  0  0  0  0  0  0  0  0  0  0  0
  187.0490  178.0560  139.1380 C   0  0  0  0  0  2  0  0  0  0  0  0
  189.1030  174.7770  136.8610 C   0  0  0  0  0  0  0  0  0  0  0  0
  189.9920  173.7370  136.2880 C   0  0  0  0  0  0  0  0  0  0  0  0
  193.6980  172.4770  136.0880 C   0  0  2  0  0  3  0  0  0  0  0  0
  191.9100  174.8260  137.2420 O   0  0  0  0  0  0  0  0  0  0  0  0
  191.3990  173.7570  136.4810 C   0  0  0  0  0  0  0  0  0  0  0  0
  195.0760  170.7080  137.1970 C   0  0  0  0  0  0  0  0  0  0  0  0
  192.1940  172.7030  135.9110 C   0  0  0  0  0  0  0  0  0  0  0  0
  193.9680  171.0500  136.5220 C   0  0  0  0  0  3  0  0  0  0  0  0
  190.1810  171.7580  134.9040 C   0  0  0  0  0  3  0  0  0  0  0  0
  189.4060  172.7370  135.5050 C   0  0  0  0  0  3  0  0  0  0  0  0
  194.2630  174.7380  136.4160 C   0  0  0  0  0  2  0  0  0  0  0  0
  193.4110  176.5540  137.7570 C   0  0  0  0  0  2  0  0  0  0  0  0
  191.5550  171.7470  135.1040 C   0  0  0  0  0  3  0  0  0  0  0  0
  195.8020  173.1040  136.9830 C   0  0  0  0  0  2  0  0  0  0  0  0
  194.3760  173.4170  136.9870 N   0  0  2  0  0  0  0  0  0  0  0  0
  193.1710  175.4100  137.1370 C   0  0  0  0  0  0  0  0  0  0  0  0
  196.0400  171.7660  137.6810 C   0  0  0  0  0  2  0  0  0  0  0  0
  195.2460  169.2770  137.6290 C   0  0  1  0  0  3  0  0  0  0  0  0
  194.3050  168.4470  137.0140 O   0  0  0  0  0  1  0  0  0  0  0  0
  196.5940  168.7990  137.3460 N   0  0  0  0  0  0  0  0  0  0  0  0
  198.2020  169.0050  135.5240 C   0  0  0  0  0  3  0  0  0  0  0  0
  199.0370  169.8690  137.7140 N   0  0  0  0  0  2  0  0  0  0  0  0
  197.3780  168.1830  138.4230 C   0  0  0  0  0  2  0  0  0  0  0  0
  196.9790  168.6950  135.9700 C   0  0  0  0  0  3  0  0  0  0  0  0
  199.2390  169.5410  136.3610 N   0  0  0  0  0  2  0  0  0  0  0  0
  198.8460  168.6180  138.4320 C   0  0  0  0  0  2  0  0  0  0  0  0
  184.3640  175.4160  136.1780 C   0  0  0  0  0  3  0  0  0  0  0  0
  183.0030  176.2270  134.3480 C   0  0  0  0  0  3  0  0  0  0  0  0
  185.0920  176.6190  136.1950 C   0  0  0  0  0  0  0  0  0  0  0  0
  184.7580  177.6170  135.2640 C   0  0  0  0  0  3  0  0  0  0  0  0
  183.7210  177.4240  134.3460 C   0  0  0  0  0  3  0  0  0  0  0  0
  183.3270  175.2210  135.2620 C   0  0  0  0  0  3  0  0  0  0  0  0
  189.2700  177.5480  140.0760 N   0  0  0  0  0  0  0  0  0  0  0  0
  190.5390  177.1140  139.8360 O   0  0  0  0  0  0  0  0  0  0  0  0
  191.3800  177.9860  140.5390 C   0  0  0  0  0  2  0  0  0  0  0  0
  192.5490  177.2650  141.0060 N   0  0  0  0  0  1  0  0  0  0  0  0
  188.9550  178.3260  141.2810 C   0  0  0  0  0  2  0  0  0  0  0  0
  187.1040  177.4620  144.4460 C   0  0  0  0  0  2  0  0  0  0  0  0
  186.1010  178.0390  142.2710 C   0  0  0  0  0  1  0  0  0  0  0  0
  189.5220  177.3740  144.6820 C   0  0  0  0  0  0  0  0  0  0  0  0
  189.6550  177.0870  143.2100 C   0  0  1  0  0  3  0  0  0  0  0  0
  187.3660  178.1340  143.1050 C   0  0  2  0  0  3  0  0  0  0  0  0
  188.2660  177.5720  145.2490 O   0  0  0  0  0  0  0  0  0  0  0  0
  190.5470  177.4180  145.4090 O   0  0  0  0  0  0  0  0  0  0  0  0
  189.9370  175.6080  142.9990 C   0  0  0  0  0  1  0  0  0  0  0  0
  188.4870  177.4860  142.3930 N   0  0  0  0  0  0  0  0  0  0  0  0
  1  8  1  0  0  0  0
  1 41  1  0  0  0  0
  2  8  1  0  0  0  0
  3  1  2  0  0  0  0
  4  3  1  0  0  0  0
  5  9  1  0  0  0  0
  5  6  2  0  0  0  0
  6  7  1  0  0  0  0
  6  3  1  0  0  0  0
  7  2  2  0  0  0  0
  9  4  2  0  0  0  0
 10 13  1  0  0  0  0
 10  9  1  0  0  0  0
 11 16  1  1  0  0  0
 11 23  1  0  0  0  0
 13 12  1  0  0  0  0
 14 26  1  0  0  0  0
 14 25  1  0  0  0  0
 15 11  1  0  0  0  0
 15 13  2  0  0  0  0
 16 14  2  0  0  0  0
 17 21  2  0  0  0  0
 17 18  1  0  0  0  0
 18 10  2  0  0  0  0
 19 24  1  0  0  0  0
 21 15  1  0  0  0  0
 22 23  1  0  0  0  0
 22 25  1  0  0  0  0
 23 19  1  6  0  0  0
 24 12  1  0  0  0  0
 24 20  2  0  0  0  0
 26 27  1  6  0  0  0
 28 26  1  0  0  0  0
 28 31  1  0  0  0  0
 29 32  2  0  0  0  0
 29 33  1  0  0  0  0
 30 34  1  0  0  0  0
 31 34  1  0  0  0  0
 32 28  1  0  0  0  0
 33 30  1  0  0  0  0
 35 37  1  0  0  0  0
 36 40  1  0  0  0  0
 37  7  1  0  0  0  0
 38 37  2  0  0  0  0
 39 36  2  0  0  0  0
 39 38  1  0  0  0  0
 40 35  2  0  0  0  0
 41 45  1  0  0  0  0
 42 41  1  0  0  0  0
 42 43  1  0  0  0  0
 43 44  1  0  0  0  0
 45 54  1  0  0  0  0
 46 51  1  0  0  0  0
 48 51  1  0  0  0  0
 48 52  2  0  0  0  0
 49 53  1  1  0  0  0
 49 48  1  0  0  0  0
 50 47  1  6  0  0  0
 50 46  1  0  0  0  0
 54 50  1  0  0  0  0
 54 49  1  0  0  0  0
M  END
>  <MODEL>
6

>  <REMARK>
 VINA RESULT:      -6.9      3.290      7.680
  Name = 
  9 active torsions:
  status: ('A' for Active; 'I' for Inactive)
    1  A    between atoms: N_1  and  C_14
    2  A    between atoms: C_3  and  N_19
    3  A    between atoms: C_5  and  C_52
    4  A    between atoms: C_14  and  C_20
    5  A    between atoms: N_19  and  O_29
    6  A    between atoms: N_19  and  C_38
    7  A    between atoms: C_23  and  O_29
    8  A    between atoms: C_28  and  C_42
    9  A    between atoms: C_38  and  N_51
                            x       y       z     vdW  Elec       q    Type
                         _______ _______ _______ _____ _____    ______ ____

>  <TORSDO>
F 9

$$$$
=
 OpenBabel10222421523D

 54 61  0  0  1  0  0  0  0  0999 V2000
  186.4310  178.3920  141.4400 C   0  0  0  0  0  0  0  0  0  0  0  0
  184.1400  178.9780  140.8430 C   0  0  0  0  0  3  0  0  0  0  0  0
  186.6770  178.1690  140.0830 C   0  0  0  0  0  0  0  0  0  0  0  0
  187.8280  177.7510  139.5390 N   0  0  0  0  0  0  0  0  0  0  0  0
  186.2630  178.0420  137.9060 C   0  0  0  0  0  3  0  0  0  0  0  0
  185.7040  178.3500  139.1310 C   0  0  0  0  0  0  0  0  0  0  0  0
  184.3970  178.7580  139.4700 C   0  0  0  0  0  0  0  0  0  0  0  0
  185.1420  178.7990  141.8150 C   0  0  0  0  0  2  0  0  0  0  0  0
  187.5740  177.6710  138.2120 C   0  0  0  0  0  0  0  0  0  0  0  0
  188.5860  177.2680  137.2070 C   0  0  0  0  0  0  0  0  0  0  0  0
  192.2210  175.8830  136.7290 C   0  0  2  0  0  3  0  0  0  0  0  0
  190.1840  176.8550  138.9530 O   0  0  0  0  0  0  0  0  0  0  0  0
  189.8940  176.8540  137.5750 C   0  0  0  0  0  0  0  0  0  0  0  0
  193.2700  173.6610  136.2610 C   0  0  0  0  0  0  0  0  0  0  0  0
  190.8150  176.4600  136.5440 C   0  0  0  0  0  0  0  0  0  0  0  0
  192.3750  174.6040  135.9300 C   0  0  0  0  0  3  0  0  0  0  0  0
  189.1390  177.0210  134.8610 C   0  0  0  0  0  3  0  0  0  0  0  0
  188.2290  177.3420  135.8570 C   0  0  0  0  0  3  0  0  0  0  0  0
  192.6710  176.9500  138.7780 C   0  0  0  0  0  2  0  0  0  0  0  0
  191.4920  177.2600  140.8590 C   0  0  0  0  0  2  0  0  0  0  0  0
  190.4120  176.5890  135.2050 C   0  0  0  0  0  3  0  0  0  0  0  0
  194.0170  175.1870  138.1130 C   0  0  0  0  0  2  0  0  0  0  0  0
  192.6380  175.6660  138.1180 N   0  0  2  0  0  0  0  0  0  0  0  0
  191.4270  177.0510  139.5540 C   0  0  0  0  0  0  0  0  0  0  0  0
  194.0700  173.7730  137.5380 C   0  0  0  0  0  2  0  0  0  0  0  0
  193.3280  172.4010  135.4410 C   0  0  1  0  0  3  0  0  0  0  0  0
  192.4090  172.4380  134.3900 O   0  0  0  0  0  1  0  0  0  0  0  0
  194.6710  172.1720  134.9220 N   0  0  0  0  0  0  0  0  0  0  0  0
  196.6710  173.5120  134.5270 C   0  0  0  0  0  3  0  0  0  0  0  0
  197.0240  171.6050  136.1020 N   0  0  0  0  0  2  0  0  0  0  0  0
  195.1400  170.7960  134.7260 C   0  0  0  0  0  2  0  0  0  0  0  0
  195.3610  173.2970  134.3630 C   0  0  0  0  0  3  0  0  0  0  0  0
  197.5150  172.6780  135.3370 N   0  0  0  0  0  2  0  0  0  0  0  0
  196.5910  170.5780  135.1670 C   0  0  0  0  0  2  0  0  0  0  0  0
  183.0820  178.0070  137.4480 C   0  0  0  0  0  3  0  0  0  0  0  0
  181.2120  179.3050  136.6240 C   0  0  0  0  0  3  0  0  0  0  0  0
  183.3020  178.9410  138.4750 C   0  0  0  0  0  0  0  0  0  0  0  0
  182.4620  180.0640  138.5510 C   0  0  0  0  0  3  0  0  0  0  0  0
  181.4230  180.2460  137.6330 C   0  0  0  0  0  3  0  0  0  0  0  0
  182.0440  178.1860  136.5290 C   0  0  0  0  0  3  0  0  0  0  0  0
  187.4540  178.2030  142.4260 N   0  0  0  0  0  0  0  0  0  0  0  0
  188.6760  178.7780  142.2540 O   0  0  0  0  0  0  0  0  0  0  0  0
  189.5590  178.0460  143.0590 C   0  0  0  0  0  2  0  0  0  0  0  0
  190.5520  178.9370  143.6290 N   0  0  0  0  0  1  0  0  0  0  0  0
  187.1360  177.4590  143.6510 C   0  0  0  0  0  2  0  0  0  0  0  0
  186.6510  178.4120  147.2630 C   0  0  0  0  0  2  0  0  0  0  0  0
  188.7350  177.6050  146.2270 C   0  0  0  0  0  1  0  0  0  0  0  0
  184.6520  178.6960  145.9090 C   0  0  0  0  0  0  0  0  0  0  0  0
  185.5080  178.8850  144.6850 C   0  0  1  0  0  3  0  0  0  0  0  0
  187.2250  177.6650  146.0680 C   0  0  2  0  0  3  0  0  0  0  0  0
  185.2390  178.4480  147.1470 O   0  0  0  0  0  0  0  0  0  0  0  0
  183.4010  178.7820  145.8190 O   0  0  0  0  0  0  0  0  0  0  0  0
  185.5790  180.3610  144.3300 C   0  0  0  0  0  1  0  0  0  0  0  0
  186.8800  178.3420  144.8000 N   0  0  0  0  0  0  0  0  0  0  0  0
  1  8  1  0  0  0  0
  1 41  1  0  0  0  0
  2  8  1  0  0  0  0
  3  1  2  0  0  0  0
  4  3  1  0  0  0  0
  5  9  1  0  0  0  0
  5  6  2  0  0  0  0
  6  7  1  0  0  0  0
  6  3  1  0  0  0  0
  7  2  2  0  0  0  0
  9  4  2  0  0  0  0
 10 13  1  0  0  0  0
 10  9  1  0  0  0  0
 11 16  1  6  0  0  0
 11 23  1  0  0  0  0
 12 24  1  0  0  0  0
 13 12  1  0  0  0  0
 14 25  1  0  0  0  0
 15 11  1  0  0  0  0
 15 13  2  0  0  0  0
 16 14  2  0  0  0  0
 17 21  2  0  0  0  0
 17 18  1  0  0  0  0
 18 10  2  0  0  0  0
 19 24  1  0  0  0  0
 21 15  1  0  0  0  0
 23 22  1  6  0  0  0
 23 19  1  0  0  0  0
 24 20  2  0  0  0  0
 25 22  1  0  0  0  0
 26 27  1  6  0  0  0
 26 14  1  0  0  0  0
 28 26  1  0  0  0  0
 29 33  1  0  0  0  0
 31 28  1  0  0  0  0
 31 34  1  0  0  0  0
 32 29  2  0  0  0  0
 32 28  1  0  0  0  0
 33 30  1  0  0  0  0
 34 30  1  0  0  0  0
 35 37  1  0  0  0  0
 36 39  2  0  0  0  0
 37 38  2  0  0  0  0
 37  7  1  0  0  0  0
 39 38  1  0  0  0  0
 40 36  1  0  0  0  0
 40 35  2  0  0  0  0
 41 45  1  0  0  0  0
 42 41  1  0  0  0  0
 42 43  1  0  0  0  0
 43 44  1  0  0  0  0
 45 54  1  0  0  0  0
 48 51  1  0  0  0  0
 49 53  1  1  0  0  0
 49 54  1  0  0  0  0
 49 48  1  0  0  0  0
 50 47  1  1  0  0  0
 50 46  1  0  0  0  0
 51 46  1  0  0  0  0
 52 48  2  0  0  0  0
 54 50  1  0  0  0  0
M  END
>  <MODEL>
7

>  <REMARK>
 VINA RESULT:      -6.8      2.527      6.024
  Name = 
  9 active torsions:
  status: ('A' for Active; 'I' for Inactive)
    1  A    between atoms: N_1  and  C_14
    2  A    between atoms: C_3  and  N_19
    3  A    between atoms: C_5  and  C_52
    4  A    between atoms: C_14  and  C_20
    5  A    between atoms: N_19  and  O_29
    6  A    between atoms: N_19  and  C_38
    7  A    between atoms: C_23  and  O_29
    8  A    between atoms: C_28  and  C_42
    9  A    between atoms: C_38  and  N_51
                            x       y       z     vdW  Elec       q    Type
                         _______ _______ _______ _____ _____    ______ ____

>  <TORSDO>
F 9

$$$$
=
 OpenBabel10222421523D

 54 61  0  0  1  0  0  0  0  0999 V2000
  187.2410  178.2990  142.1760 C   0  0  0  0  0  0  0  0  0  0  0  0
  184.9350  178.9620  141.7340 C   0  0  0  0  0  3  0  0  0  0  0  0
  187.3970  178.1040  140.8010 C   0  0  0  0  0  0  0  0  0  0  0  0
  188.5000  177.6670  140.1780 N   0  0  0  0  0  0  0  0  0  0  0  0
  186.8480  178.0420  138.6510 C   0  0  0  0  0  3  0  0  0  0  0  0
  186.3730  178.3340  139.9150 C   0  0  0  0  0  0  0  0  0  0  0  0
  185.1010  178.7700  140.3440 C   0  0  0  0  0  0  0  0  0  0  0  0
  185.9890  178.7310  142.6380 C   0  0  0  0  0  2  0  0  0  0  0  0
  188.1640  177.6280  138.8670 C   0  0  0  0  0  0  0  0  0  0  0  0
  189.1010  177.2230  137.7920 C   0  0  0  0  0  0  0  0  0  0  0  0
  192.7030  175.8680  137.0550 C   0  0  2  0  0  3  0  0  0  0  0  0
  190.8310  176.8460  139.4170 O   0  0  0  0  0  0  0  0  0  0  0  0
  190.4370  176.8260  138.0650 C   0  0  0  0  0  0  0  0  0  0  0  0
  193.7370  173.6500  136.5330 C   0  0  0  0  0  0  0  0  0  0  0  0
  191.2810  176.4280  136.9710 C   0  0  0  0  0  0  0  0  0  0  0  0
  192.8090  174.5800  136.2610 C   0  0  0  0  0  3  0  0  0  0  0  0
  189.4760  176.9530  135.4140 C   0  0  0  0  0  3  0  0  0  0  0  0
  188.6410  177.2770  136.4720 C   0  0  0  0  0  3  0  0  0  0  0  0
  193.2960  176.9630  139.0510 C   0  0  0  0  0  2  0  0  0  0  0  0
  192.2750  177.2860  141.2130 C   0  0  0  0  0  2  0  0  0  0  0  0
  190.7760  176.5370  135.6650 C   0  0  0  0  0  3  0  0  0  0  0  0
  194.6060  175.2050  138.3050 C   0  0  0  0  0  2  0  0  0  0  0  0
  193.2260  175.6710  138.4110 N   0  0  2  0  0  0  0  0  0  0  0  0
  192.1130  177.0610  139.9190 C   0  0  0  0  0  0  0  0  0  0  0  0
  194.6310  173.7850  137.7440 C   0  0  0  0  0  2  0  0  0  0  0  0
  193.7460  172.3810  135.7260 C   0  0  1  0  0  3  0  0  0  0  0  0
  192.9370  172.4960  134.5920 O   0  0  0  0  0  1  0  0  0  0  0  0
  195.1020  172.0150  135.3350 N   0  0  0  0  0  0  0  0  0  0  0  0
  197.0810  173.1730  134.5030 C   0  0  0  0  0  3  0  0  0  0  0  0
  197.4450  171.9690  136.6610 N   0  0  0  0  0  2  0  0  0  0  0  0
  195.6020  170.6720  135.6510 C   0  0  0  0  0  2  0  0  0  0  0  0
  195.7780  172.8810  134.4160 C   0  0  0  0  0  3  0  0  0  0  0  0
  197.9280  172.7070  135.5660 N   0  0  0  0  0  2  0  0  0  0  0  0
  197.0490  170.6640  136.1540 C   0  0  0  0  0  2  0  0  0  0  0  0
  183.4140  177.9700  138.6410 C   0  0  0  0  0  3  0  0  0  0  0  0
  181.7720  179.4850  137.7070 C   0  0  0  0  0  3  0  0  0  0  0  0
  183.9540  179.0070  139.4220 C   0  0  0  0  0  0  0  0  0  0  0  0
  183.3850  180.2880  139.3210 C   0  0  0  0  0  3  0  0  0  0  0  0
  182.3020  180.5260  138.4710 C   0  0  0  0  0  3  0  0  0  0  0  0
  182.3310  178.2070  137.7900 C   0  0  0  0  0  3  0  0  0  0  0  0
  188.3150  178.0570  143.0910 N   0  0  0  0  0  0  0  0  0  0  0  0
  189.3670  177.2780  142.7130 O   0  0  0  0  0  0  0  0  0  0  0  0
  188.9760  175.9570  142.9700 C   0  0  0  0  0  2  0  0  0  0  0  0
  190.1420  175.0950  142.9710 N   0  0  0  0  0  1  0  0  0  0  0  0
  188.3050  178.7260  144.3980 C   0  0  0  0  0  2  0  0  0  0  0  0
  186.8530  177.2930  147.5650 C   0  0  0  0  0  2  0  0  0  0  0  0
  185.7250  177.4660  145.3820 C   0  0  0  0  0  1  0  0  0  0  0  0
  189.1470  178.0590  147.8100 C   0  0  0  0  0  0  0  0  0  0  0  0
  189.3820  177.8250  146.3420 C   0  0  1  0  0  3  0  0  0  0  0  0
  186.8720  178.0050  146.2190 C   0  0  2  0  0  3  0  0  0  0  0  0
  187.8980  177.8080  148.3710 O   0  0  0  0  0  0  0  0  0  0  0  0
  190.0880  178.4640  148.5400 O   0  0  0  0  0  0  0  0  0  0  0  0
  190.1640  176.5370  146.1440 C   0  0  0  0  0  1  0  0  0  0  0  0
  188.1530  177.7840  145.5170 N   0  0  0  0  0  0  0  0  0  0  0  0
  1  8  1  0  0  0  0
  1 41  1  0  0  0  0
  2  8  1  0  0  0  0
  3  1  2  0  0  0  0
  4  3  1  0  0  0  0
  5  9  1  0  0  0  0
  5  6  2  0  0  0  0
  6  7  1  0  0  0  0
  6  3  1  0  0  0  0
  7  2  2  0  0  0  0
  9  4  2  0  0  0  0
 10 13  1  0  0  0  0
 10  9  1  0  0  0  0
 11 16  1  1  0  0  0
 11 23  1  0  0  0  0
 12 24  1  0  0  0  0
 13 12  1  0  0  0  0
 14 25  1  0  0  0  0
 15 11  1  0  0  0  0
 15 13  2  0  0  0  0
 16 14  2  0  0  0  0
 17 21  2  0  0  0  0
 17 18  1  0  0  0  0
 18 10  2  0  0  0  0
 19 24  1  0  0  0  0
 21 15  1  0  0  0  0
 23 22  1  6  0  0  0
 23 19  1  0  0  0  0
 24 20  2  0  0  0  0
 25 22  1  0  0  0  0
 26 27  1  6  0  0  0
 26 14  1  0  0  0  0
 28 31  1  0  0  0  0
 28 26  1  0  0  0  0
 29 33  1  0  0  0  0
 31 34  1  0  0  0  0
 32 29  2  0  0  0  0
 32 28  1  0  0  0  0
 33 30  1  0  0  0  0
 34 30  1  0  0  0  0
 35 37  1  0  0  0  0
 36 40  1  0  0  0  0
 36 39  2  0  0  0  0
 37  7  1  0  0  0  0
 38 37  2  0  0  0  0
 39 38  1  0  0  0  0
 40 35  2  0  0  0  0
 41 45  1  0  0  0  0
 42 43  1  0  0  0  0
 42 41  1  0  0  0  0
 43 44  1  0  0  0  0
 45 54  1  0  0  0  0
 46 51  1  0  0  0  0
 48 51  1  0  0  0  0
 48 52  2  0  0  0  0
 49 53  1  1  0  0  0
 49 48  1  0  0  0  0
 50 47  1  6  0  0  0
 50 46  1  0  0  0  0
 54 50  1  0  0  0  0
 54 49  1  0  0  0  0
M  END
>  <MODEL>
8

>  <REMARK>
 VINA RESULT:      -6.7      2.828      6.284
  Name = 
  9 active torsions:
  status: ('A' for Active; 'I' for Inactive)
    1  A    between atoms: N_1  and  C_14
    2  A    between atoms: C_3  and  N_19
    3  A    between atoms: C_5  and  C_52
    4  A    between atoms: C_14  and  C_20
    5  A    between atoms: N_19  and  O_29
    6  A    between atoms: N_19  and  C_38
    7  A    between atoms: C_23  and  O_29
    8  A    between atoms: C_28  and  C_42
    9  A    between atoms: C_38  and  N_51
                            x       y       z     vdW  Elec       q    Type
                         _______ _______ _______ _____ _____    ______ ____

>  <TORSDO>
F 9

$$$$
=
 OpenBabel10222421523D

 54 61  0  0  1  0  0  0  0  0999 V2000
  186.6760  177.8840  143.7960 C   0  0  0  0  0  0  0  0  0  0  0  0
  184.3360  178.4140  144.2400 C   0  0  0  0  0  3  0  0  0  0  0  0
  186.4000  178.0300  142.4340 C   0  0  0  0  0  0  0  0  0  0  0  0
  187.2620  177.8550  141.4230 N   0  0  0  0  0  0  0  0  0  0  0  0
  185.2110  178.4200  140.6010 C   0  0  0  0  0  3  0  0  0  0  0  0
  185.1480  178.3640  141.9790 C   0  0  0  0  0  0  0  0  0  0  0  0
  184.0660  178.5680  142.8610 C   0  0  0  0  0  0  0  0  0  0  0  0
  185.6230  178.0780  144.7020 C   0  0  0  0  0  2  0  0  0  0  0  0
  186.5360  178.0920  140.3050 C   0  0  0  0  0  0  0  0  0  0  0  0
  187.0990  178.0370  138.9350 C   0  0  0  0  0  0  0  0  0  0  0  0
  190.2640  177.0800  136.8310 C   0  0  2  0  0  3  0  0  0  0  0  0
  189.2090  177.2920  139.8110 O   0  0  0  0  0  0  0  0  0  0  0  0
  188.4370  177.6320  138.6840 C   0  0  0  0  0  0  0  0  0  0  0  0
  190.9980  175.1360  135.4380 C   0  0  0  0  0  0  0  0  0  0  0  0
  188.9060  177.5860  137.3250 C   0  0  0  0  0  0  0  0  0  0  0  0
  190.0750  176.0680  135.7170 C   0  0  0  0  0  3  0  0  0  0  0  0
  186.7510  178.4520  136.5730 C   0  0  0  0  0  3  0  0  0  0  0  0
  186.2770  178.4370  137.8760 C   0  0  0  0  0  3  0  0  0  0  0  0
  191.4630  177.6010  138.7870 C   0  0  0  0  0  2  0  0  0  0  0  0
  191.1320  177.2720  141.1540 C   0  0  0  0  0  2  0  0  0  0  0  0
  188.0480  178.0340  136.3080 C   0  0  0  0  0  3  0  0  0  0  0  0
  192.4160  176.1710  137.2360 C   0  0  0  0  0  2  0  0  0  0  0  0
  191.1500  176.5350  137.8650 N   0  0  2  0  0  0  0  0  0  0  0  0
  190.5900  177.4080  139.9550 C   0  0  0  0  0  0  0  0  0  0  0  0
  192.2110  174.9640  136.3220 C   0  0  0  0  0  2  0  0  0  0  0  0
  190.7120  174.1410  134.3460 C   0  0  1  0  0  3  0  0  0  0  0  0
  191.6510  173.1060  134.3460 O   0  0  0  0  0  1  0  0  0  0  0  0
  189.3670  173.5940  134.4710 N   0  0  0  0  0  0  0  0  0  0  0  0
  188.3710  171.4750  135.1570 C   0  0  0  0  0  3  0  0  0  0  0  0
  187.6350  173.4310  136.5260 N   0  0  0  0  0  2  0  0  0  0  0  0
  188.2130  174.4960  134.3750 C   0  0  0  0  0  2  0  0  0  0  0  0
  189.2260  172.1700  134.3970 C   0  0  0  0  0  3  0  0  0  0  0  0
  187.5520  172.0710  136.1750 N   0  0  0  0  0  2  0  0  0  0  0  0
  187.1170  174.1940  135.4010 C   0  0  0  0  0  2  0  0  0  0  0  0
  181.6860  179.2790  143.3290 C   0  0  0  0  0  3  0  0  0  0  0  0
  180.0930  179.5600  141.5280 C   0  0  0  0  0  3  0  0  0  0  0  0
  182.6850  178.9060  142.4120 C   0  0  0  0  0  0  0  0  0  0  0  0
  182.3570  178.8600  141.0470 C   0  0  0  0  0  3  0  0  0  0  0  0
  181.0710  179.1850  140.6060 C   0  0  0  0  0  3  0  0  0  0  0  0
  180.4000  179.6040  142.8910 C   0  0  0  0  0  3  0  0  0  0  0  0
  187.9860  177.5360  144.2600 N   0  0  0  0  0  0  0  0  0  0  0  0
  188.3400  176.2250  144.3710 O   0  0  0  0  0  0  0  0  0  0  0  0
  188.7760  175.8390  143.0960 C   0  0  0  0  0  2  0  0  0  0  0  0
  190.0230  175.1060  143.2080 N   0  0  0  0  0  1  0  0  0  0  0  0
  188.9560  178.6050  144.5280 C   0  0  0  0  0  2  0  0  0  0  0  0
  191.6190  176.9120  146.5850 C   0  0  0  0  0  2  0  0  0  0  0  0
  191.9770  178.3200  144.5950 C   0  0  0  0  0  1  0  0  0  0  0  0
  189.3670  176.5370  147.4190 C   0  0  0  0  0  0  0  0  0  0  0  0
  188.9220  177.8350  146.7990 C   0  0  1  0  0  3  0  0  0  0  0  0
  190.9500  177.4890  145.3450 C   0  0  2  0  0  3  0  0  0  0  0  0
  190.6830  176.1060  147.2790 O   0  0  0  0  0  0  0  0  0  0  0  0
  188.5520  175.8460  148.0820 O   0  0  0  0  0  0  0  0  0  0  0  0
  188.8040  178.9040  147.8740 C   0  0  0  0  0  1  0  0  0  0  0  0
  189.7910  178.3300  145.7080 N   0  0  0  0  0  0  0  0  0  0  0  0
  1 41  1  0  0  0  0
  1  8  1  0  0  0  0
  2  8  1  0  0  0  0
  3  1  2  0  0  0  0
  4  3  1  0  0  0  0
  5  6  2  0  0  0  0
  6  3  1  0  0  0  0
  6  7  1  0  0  0  0
  7  2  2  0  0  0  0
  9  5  1  0  0  0  0
  9  4  2  0  0  0  0
 10  9  1  0  0  0  0
 11 16  1  6  0  0  0
 11 15  1  0  0  0  0
 11 23  1  0  0  0  0
 12 24  1  0  0  0  0
 13 10  1  0  0  0  0
 13 12  1  0  0  0  0
 14 16  2  0  0  0  0
 14 25  1  0  0  0  0
 15 13  2  0  0  0  0
 17 18  1  0  0  0  0
 18 10  2  0  0  0  0
 19 24  1  0  0  0  0
 21 17  2  0  0  0  0
 21 15  1  0  0  0  0
 23 22  1  6  0  0  0
 23 19  1  0  0  0  0
 24 20  2  0  0  0  0
 25 22  1  0  0  0  0
 26 27  1  1  0  0  0
 26 28  1  0  0  0  0
 26 14  1  0  0  0  0
 29 33  1  0  0  0  0
 31 28  1  0  0  0  0
 31 34  1  0  0  0  0
 32 28  1  0  0  0  0
 32 29  2  0  0  0  0
 33 30  1  0  0  0  0
 34 30  1  0  0  0  0
 36 40  2  0  0  0  0
 37  7  1  0  0  0  0
 37 35  2  0  0  0  0
 38 37  1  0  0  0  0
 39 38  2  0  0  0  0
 39 36  1  0  0  0  0
 40 35  1  0  0  0  0
 41 42  1  0  0  0  0
 41 45  1  0  0  0  0
 43 44  1  0  0  0  0
 43 42  1  0  0  0  0
 45 54  1  0  0  0  0
 46 51  1  0  0  0  0
 48 52  2  0  0  0  0
 49 48  1  0  0  0  0
 49 53  1  1  0  0  0
 50 47  1  1  0  0  0
 50 54  1  0  0  0  0
 50 46  1  0  0  0  0
 51 48  1  0  0  0  0
 54 49  1  0  0  0  0
M  END
>  <MODEL>
9

>  <REMARK>
 VINA RESULT:      -6.5      2.954      6.872
  Name = 
  9 active torsions:
  status: ('A' for Active; 'I' for Inactive)
    1  A    between atoms: N_1  and  C_14
    2  A    between atoms: C_3  and  N_19
    3  A    between atoms: C_5  and  C_52
    4  A    between atoms: C_14  and  C_20
    5  A    between atoms: N_19  and  O_29
    6  A    between atoms: N_19  and  C_38
    7  A    between atoms: C_23  and  O_29
    8  A    between atoms: C_28  and  C_42
    9  A    between atoms: C_38  and  N_51
                            x       y       z     vdW  Elec       q    Type
                         _______ _______ _______ _____ _____    ______ ____

>  <TORSDO>
F 9

$$$$
