=
 OpenBabel10232408183D

 32 33  0  0  1  0  0  0  0  0999 V2000
  185.5190  178.1750  144.5300 C   0  0  0  0  0  0  0  0  0  0  0  0
  186.7720  177.5170  144.4110 C   0  0  0  0  0  0  0  0  0  0  0  0
  187.6020  177.4330  145.5340 C   0  0  0  0  0  3  0  0  0  0  0  0
  187.2180  177.9860  146.7580 C   0  0  0  0  0  0  0  0  0  0  0  0
  185.9910  178.6410  146.8670 C   0  0  0  0  0  3  0  0  0  0  0  0
  185.1470  178.7300  145.7610 C   0  0  0  0  0  3  0  0  0  0  0  0
  184.5350  178.2800  143.4070 C   0  0  0  0  0  2  0  0  0  0  0  0
  184.7090  179.5900  142.6510 C   0  0  0  0  0  2  0  0  0  0  0  0
  185.3690  178.9110  139.1230 O   0  0  0  0  0  0  0  0  0  0  0  0
  183.2820  179.0750  140.1600 N   0  0  0  0  0  2  0  0  0  0  0  0
  184.7130  179.1070  140.1800 C   0  0  0  0  0  0  0  0  0  0  0  0
  185.4100  179.3580  141.3990 N   0  0  0  0  0  2  0  0  0  0  0  0
  181.3700  178.0170  139.2390 N   0  0  0  0  0  1  0  0  0  0  0  0
  182.0400  180.1770  138.3790 C   0  0  0  0  0  1  0  0  0  0  0  0
  182.5180  178.8510  138.9410 C   0  0  1  0  0  3  0  0  0  0  0  0
  188.1300  177.9060  147.9350 C   0  0  0  0  0  2  0  0  0  0  0  0
  190.4610  177.1820  147.6120 C   0  0  0  0  0  3  0  0  0  0  0  0
  189.1750  176.8540  147.7380 C   0  0  0  0  0  3  0  0  0  0  0  0
  192.6200  176.4160  148.1890 O   0  0  0  0  0  1  0  0  0  0  0  0
  191.5000  176.1270  147.4080 C   0  0  2  0  0  3  0  0  0  0  0  0
  191.5210  177.3580  145.2390 C   0  0  0  0  0  1  0  0  0  0  0  0
  191.9100  176.0730  145.9470 C   0  0  0  0  0  2  0  0  0  0  0  0
  187.2570  176.9270  143.1950 N   0  0  0  0  0  2  0  0  0  0  0  0
  188.6090  176.4550  142.9440 C   0  0  0  0  0  2  0  0  0  0  0  0
  189.3860  177.5150  142.3180 N   0  0  0  0  0  2  0  0  0  0  0  0
  188.7010  178.2540  140.1430 C   0  0  0  0  0  3  0  0  0  0  0  0
  188.9940  177.2430  137.9050 C   0  0  0  0  0  3  0  0  0  0  0  0
  189.9750  176.3640  138.1020 C   0  0  0  0  0  3  0  0  0  0  0  0
  190.8350  177.0120  140.3670 C   0  0  0  0  0  3  0  0  0  0  0  0
  188.8750  178.5100  138.6820 C   0  0  0  0  0  2  0  0  0  0  0  0
  189.5960  177.6110  140.9060 C   0  0  0  0  0  0  0  0  0  0  0  0
  191.0010  176.4670  139.1560 C   0  0  0  0  0  3  0  0  0  0  0  0
  1  6  1  0  0  0  0
  2  1  2  0  0  0  0
  2  3  1  0  0  0  0
  3  4  2  0  0  0  0
  4  5  1  0  0  0  0
  4 16  1  0  0  0  0
  6  5  2  0  0  0  0
  7  1  1  0  0  0  0
  8  7  1  0  0  0  0
  9 11  2  0  0  0  0
 10 11  1  0  0  0  0
 11 12  1  0  0  0  0
 12  8  1  0  0  0  0
 15 14  1  1  0  0  0
 15 13  1  0  0  0  0
 15 10  1  0  0  0  0
 17 18  2  0  0  0  0
 18 16  1  0  0  0  0
 20 17  1  0  0  0  0
 20 19  1  1  0  0  0
 21 22  1  0  0  0  0
 22 20  1  0  0  0  0
 23  2  1  0  0  0  0
 24 23  1  0  0  0  0
 25 24  1  0  0  0  0
 26 31  2  0  0  0  0
 27 28  2  0  0  0  0
 27 30  1  0  0  0  0
 28 32  1  0  0  0  0
 29 31  1  0  0  0  0
 30 26  1  0  0  0  0
 31 25  1  0  0  0  0
 32 29  2  0  0  0  0
M  END
>  <MODEL>
1

>  <REMARK>
 VINA RESULT:      -8.6      0.000      0.000
  Name = 
  12 active torsions:
  status: ('A' for Active; 'I' for Inactive)
    1  A    between atoms: N_1  and  C_25
    2  A    between atoms: N_1  and  C_32
    3  A    between atoms: C_2  and  C_27
    4  A    between atoms: C_3  and  C_16
    5  A    between atoms: C_6  and  N_31
    6  A    between atoms: C_10  and  C_19
    7  A    between atoms: N_14  and  C_18
    8  A    between atoms: C_16  and  C_23
    9  A    between atoms: C_19  and  C_24
   10  A    between atoms: C_20  and  C_27
   11  A    between atoms: C_23  and  N_28
   12  A    between atoms: N_31  and  C_32
                            x       y       z     vdW  Elec       q    Type
                         _______ _______ _______ _____ _____    ______ ____

>  <TORSDO>
F 12

$$$$
=
 OpenBabel10232408183D

 32 33  0  0  1  0  0  0  0  0999 V2000
  185.5940  178.1970  144.2950 C   0  0  0  0  0  0  0  0  0  0  0  0
  186.7840  177.4260  144.3620 C   0  0  0  0  0  0  0  0  0  0  0  0
  187.4980  177.3860  145.5650 C   0  0  0  0  0  3  0  0  0  0  0  0
  187.0580  178.0910  146.6880 C   0  0  0  0  0  0  0  0  0  0  0  0
  185.8930  178.8560  146.6140 C   0  0  0  0  0  3  0  0  0  0  0  0
  185.1650  178.9040  145.4260 C   0  0  0  0  0  3  0  0  0  0  0  0
  184.7300  178.2710  143.0750 C   0  0  0  0  0  2  0  0  0  0  0  0
  185.5680  178.5080  141.8270 C   0  0  0  0  0  2  0  0  0  0  0  0
  184.0980  180.2750  138.9870 O   0  0  0  0  0  0  0  0  0  0  0  0
  184.8310  178.0570  139.0410 N   0  0  0  0  0  2  0  0  0  0  0  0
  184.6110  179.3340  139.6500 C   0  0  0  0  0  0  0  0  0  0  0  0
  184.9710  179.5540  141.0120 N   0  0  0  0  0  2  0  0  0  0  0  0
  185.5010  176.9760  137.0390 N   0  0  0  0  0  1  0  0  0  0  0  0
  183.1550  176.9910  137.6340 C   0  0  0  0  0  1  0  0  0  0  0  0
  184.4580  177.7680  137.6640 C   0  0  1  0  0  3  0  0  0  0  0  0
  187.8480  178.0530  147.9530 C   0  0  0  0  0  2  0  0  0  0  0  0
  190.1940  177.4250  147.5480 C   0  0  0  0  0  3  0  0  0  0  0  0
  188.9550  177.0510  147.8680 C   0  0  0  0  0  3  0  0  0  0  0  0
  192.3780  176.8380  148.2320 O   0  0  0  0  0  1  0  0  0  0  0  0
  191.2960  176.4180  147.4580 C   0  0  2  0  0  3  0  0  0  0  0  0
  191.3850  177.4980  145.2120 C   0  0  0  0  0  1  0  0  0  0  0  0
  191.7430  176.2610  146.0160 C   0  0  0  0  0  2  0  0  0  0  0  0
  187.3190  176.6770  143.2600 N   0  0  0  0  0  2  0  0  0  0  0  0
  188.7090  176.6410  142.8350 C   0  0  0  0  0  2  0  0  0  0  0  0
  189.0070  177.8270  142.0460 N   0  0  0  0  0  2  0  0  0  0  0  0
  188.6680  178.4540  139.7580 C   0  0  0  0  0  3  0  0  0  0  0  0
  189.0930  177.2350  137.6480 C   0  0  0  0  0  3  0  0  0  0  0  0
  189.9340  176.2730  138.0240 C   0  0  0  0  0  3  0  0  0  0  0  0
  190.6000  177.0080  140.3280 C   0  0  0  0  0  3  0  0  0  0  0  0
  189.0370  178.5680  138.3150 C   0  0  0  0  0  2  0  0  0  0  0  0
  189.3870  177.7820  140.6670 C   0  0  0  0  0  0  0  0  0  0  0  0
  190.8380  176.3500  139.1870 C   0  0  0  0  0  3  0  0  0  0  0  0
  1  2  2  0  0  0  0
  1  6  1  0  0  0  0
  2  3  1  0  0  0  0
  3  4  2  0  0  0  0
  4 16  1  0  0  0  0
  5  4  1  0  0  0  0
  6  5  2  0  0  0  0
  7  1  1  0  0  0  0
  8  7  1  0  0  0  0
  9 11  2  0  0  0  0
 10 11  1  0  0  0  0
 11 12  1  0  0  0  0
 12  8  1  0  0  0  0
 13 15  1  0  0  0  0
 15 14  1  1  0  0  0
 15 10  1  0  0  0  0
 17 18  2  0  0  0  0
 18 16  1  0  0  0  0
 20 17  1  0  0  0  0
 20 19  1  1  0  0  0
 21 22  1  0  0  0  0
 22 20  1  0  0  0  0
 23  2  1  0  0  0  0
 24 23  1  0  0  0  0
 25 24  1  0  0  0  0
 26 31  2  0  0  0  0
 27 28  2  0  0  0  0
 27 30  1  0  0  0  0
 28 32  1  0  0  0  0
 29 31  1  0  0  0  0
 30 26  1  0  0  0  0
 31 25  1  0  0  0  0
 32 29  2  0  0  0  0
M  END
>  <MODEL>
2

>  <REMARK>
 VINA RESULT:      -8.4      1.188      1.317
  Name = 
  12 active torsions:
  status: ('A' for Active; 'I' for Inactive)
    1  A    between atoms: N_1  and  C_25
    2  A    between atoms: N_1  and  C_32
    3  A    between atoms: C_2  and  C_27
    4  A    between atoms: C_3  and  C_16
    5  A    between atoms: C_6  and  N_31
    6  A    between atoms: C_10  and  C_19
    7  A    between atoms: N_14  and  C_18
    8  A    between atoms: C_16  and  C_23
    9  A    between atoms: C_19  and  C_24
   10  A    between atoms: C_20  and  C_27
   11  A    between atoms: C_23  and  N_28
   12  A    between atoms: N_31  and  C_32
                            x       y       z     vdW  Elec       q    Type
                         _______ _______ _______ _____ _____    ______ ____

>  <TORSDO>
F 12

$$$$
=
 OpenBabel10232408183D

 32 33  0  0  1  0  0  0  0  0999 V2000
  189.2870  178.2150  139.3520 C   0  0  0  0  0  0  0  0  0  0  0  0
  188.5440  178.3460  140.5550 C   0  0  0  0  0  0  0  0  0  0  0  0
  188.9500  177.6250  141.6830 C   0  0  0  0  0  3  0  0  0  0  0  0
  190.0660  176.7850  141.6400 C   0  0  0  0  0  0  0  0  0  0  0  0
  190.7870  176.6520  140.4520 C   0  0  0  0  0  3  0  0  0  0  0  0
  190.4010  177.3660  139.3180 C   0  0  0  0  0  3  0  0  0  0  0  0
  188.9690  178.9740  138.1020 C   0  0  0  0  0  2  0  0  0  0  0  0
  188.0910  178.1500  137.1710 C   0  0  0  0  0  2  0  0  0  0  0  0
  184.4700  177.8070  137.5130 O   0  0  0  0  0  0  0  0  0  0  0  0
  186.0070  176.1140  137.0340 N   0  0  0  0  0  2  0  0  0  0  0  0
  185.6700  177.4760  137.3200 C   0  0  0  0  0  0  0  0  0  0  0  0
  186.6900  178.4710  137.3870 N   0  0  0  0  0  2  0  0  0  0  0  0
  184.4830  174.9570  135.6330 N   0  0  0  0  0  1  0  0  0  0  0  0
  185.6480  173.7290  137.3630 C   0  0  0  0  0  1  0  0  0  0  0  0
  185.0130  175.0530  136.9810 C   0  0  1  0  0  3  0  0  0  0  0  0
  190.4660  176.0080  142.8480 C   0  0  0  0  0  2  0  0  0  0  0  0
  190.5670  176.3510  145.2840 C   0  0  0  0  0  3  0  0  0  0  0  0
  190.5030  176.8800  144.0630 C   0  0  0  0  0  3  0  0  0  0  0  0
  191.7710  176.9940  147.2130 O   0  0  0  0  0  1  0  0  0  0  0  0
  190.5980  177.2270  146.4950 C   0  0  2  0  0  3  0  0  0  0  0  0
  189.1280  178.1040  148.3090 C   0  0  0  0  0  1  0  0  0  0  0  0
  189.4020  176.9340  147.3830 C   0  0  0  0  0  2  0  0  0  0  0  0
  187.3800  179.1750  140.6940 N   0  0  0  0  0  2  0  0  0  0  0  0
  186.0060  178.7190  140.8270 C   0  0  0  0  0  2  0  0  0  0  0  0
  185.3610  179.4290  141.9210 N   0  0  0  0  0  2  0  0  0  0  0  0
  184.2700  179.3780  144.0550 C   0  0  0  0  0  3  0  0  0  0  0  0
  185.1240  178.8520  146.3160 C   0  0  0  0  0  3  0  0  0  0  0  0
  186.2620  178.2080  146.0620 C   0  0  0  0  0  3  0  0  0  0  0  0
  186.0880  177.7530  143.6010 C   0  0  0  0  0  3  0  0  0  0  0  0
  183.9490  178.8120  145.3990 C   0  0  0  0  0  2  0  0  0  0  0  0
  185.2070  178.8830  143.2350 C   0  0  0  0  0  0  0  0  0  0  0  0
  186.5500  177.4620  144.8230 C   0  0  0  0  0  3  0  0  0  0  0  0
  1  2  1  0  0  0  0
  2 23  1  0  0  0  0
  2  3  2  0  0  0  0
  4  3  1  0  0  0  0
  4 16  1  0  0  0  0
  5  4  2  0  0  0  0
  6  1  2  0  0  0  0
  6  5  1  0  0  0  0
  7  1  1  0  0  0  0
  8 12  1  0  0  0  0
  8  7  1  0  0  0  0
 10 11  1  0  0  0  0
 11 12  1  0  0  0  0
 11  9  2  0  0  0  0
 13 15  1  0  0  0  0
 15 10  1  0  0  0  0
 15 14  1  6  0  0  0
 16 18  1  0  0  0  0
 17 20  1  0  0  0  0
 18 17  2  0  0  0  0
 20 19  1  1  0  0  0
 20 22  1  0  0  0  0
 22 21  1  0  0  0  0
 23 24  1  0  0  0  0
 24 25  1  0  0  0  0
 25 31  1  0  0  0  0
 26 30  1  0  0  0  0
 28 27  2  0  0  0  0
 29 32  2  0  0  0  0
 30 27  1  0  0  0  0
 31 29  1  0  0  0  0
 31 26  2  0  0  0  0
 32 28  1  0  0  0  0
M  END
>  <MODEL>
3

>  <REMARK>
 VINA RESULT:      -8.2      2.318      5.693
  Name = 
  12 active torsions:
  status: ('A' for Active; 'I' for Inactive)
    1  A    between atoms: N_1  and  C_25
    2  A    between atoms: N_1  and  C_32
    3  A    between atoms: C_2  and  C_27
    4  A    between atoms: C_3  and  C_16
    5  A    between atoms: C_6  and  N_31
    6  A    between atoms: C_10  and  C_19
    7  A    between atoms: N_14  and  C_18
    8  A    between atoms: C_16  and  C_23
    9  A    between atoms: C_19  and  C_24
   10  A    between atoms: C_20  and  C_27
   11  A    between atoms: C_23  and  N_28
   12  A    between atoms: N_31  and  C_32
                            x       y       z     vdW  Elec       q    Type
                         _______ _______ _______ _____ _____    ______ ____

>  <TORSDO>
F 12

$$$$
=
 OpenBabel10232408183D

 32 33  0  0  1  0  0  0  0  0999 V2000
  186.4600  177.6480  146.2570 C   0  0  0  0  0  0  0  0  0  0  0  0
  186.7080  177.4900  144.8680 C   0  0  0  0  0  0  0  0  0  0  0  0
  185.7770  177.9930  143.9530 C   0  0  0  0  0  3  0  0  0  0  0  0
  184.6170  178.6410  144.3870 C   0  0  0  0  0  0  0  0  0  0  0  0
  184.3730  178.7840  145.7530 C   0  0  0  0  0  3  0  0  0  0  0  0
  185.2920  178.2940  146.6800 C   0  0  0  0  0  3  0  0  0  0  0  0
  187.4110  177.1910  147.3190 C   0  0  0  0  0  2  0  0  0  0  0  0
  188.4970  178.2290  147.5630 C   0  0  0  0  0  2  0  0  0  0  0  0
  191.8190  176.7090  147.5220 O   0  0  0  0  0  0  0  0  0  0  0  0
  190.6530  177.5980  145.7020 N   0  0  0  0  0  2  0  0  0  0  0  0
  190.7780  177.2720  147.0920 C   0  0  0  0  0  0  0  0  0  0  0  0
  189.7220  177.5810  148.0000 N   0  0  0  0  0  2  0  0  0  0  0  0
  191.4300  176.0830  144.0510 N   0  0  0  0  0  1  0  0  0  0  0  0
  191.7730  178.4550  143.7180 C   0  0  0  0  0  1  0  0  0  0  0  0
  191.7080  177.3320  144.7350 C   0  0  1  0  0  3  0  0  0  0  0  0
  183.6260  179.1480  143.3940 C   0  0  0  0  0  2  0  0  0  0  0  0
  182.9910  178.7370  141.0510 C   0  0  0  0  0  3  0  0  0  0  0  0
  183.8600  178.5480  142.0440 C   0  0  0  0  0  3  0  0  0  0  0  0
  183.1120  176.7420  139.7900 O   0  0  0  0  0  1  0  0  0  0  0  0
  183.2270  178.1300  139.7050 C   0  0  2  0  0  3  0  0  0  0  0  0
  184.9260  177.7480  137.9200 C   0  0  0  0  0  1  0  0  0  0  0  0
  184.6170  178.4870  139.2090 C   0  0  0  0  0  2  0  0  0  0  0  0
  187.8640  176.8320  144.3270 N   0  0  0  0  0  2  0  0  0  0  0  0
  188.1060  176.5250  142.9270 C   0  0  0  0  0  2  0  0  0  0  0  0
  188.7900  177.6440  142.2950 N   0  0  0  0  0  2  0  0  0  0  0  0
  188.3090  178.2630  140.0300 C   0  0  0  0  0  3  0  0  0  0  0  0
  188.8350  177.1510  137.8840 C   0  0  0  0  0  3  0  0  0  0  0  0
  189.8060  176.3020  138.2190 C   0  0  0  0  0  3  0  0  0  0  0  0
  190.4310  177.0760  140.5220 C   0  0  0  0  0  3  0  0  0  0  0  0
  188.6210  178.4510  138.5810 C   0  0  0  0  0  2  0  0  0  0  0  0
  189.1350  177.6760  140.9070 C   0  0  0  0  0  0  0  0  0  0  0  0
  190.7220  176.4770  139.3610 C   0  0  0  0  0  3  0  0  0  0  0  0
  1  6  1  0  0  0  0
  1  7  1  0  0  0  0
  2  1  2  0  0  0  0
  3  4  2  0  0  0  0
  3  2  1  0  0  0  0
  4  5  1  0  0  0  0
  5  6  2  0  0  0  0
  7  8  1  0  0  0  0
  8 12  1  0  0  0  0
 10 11  1  0  0  0  0
 11  9  2  0  0  0  0
 11 12  1  0  0  0  0
 13 15  1  0  0  0  0
 15 14  1  6  0  0  0
 15 10  1  0  0  0  0
 16  4  1  0  0  0  0
 17 18  2  0  0  0  0
 18 16  1  0  0  0  0
 20 19  1  1  0  0  0
 20 17  1  0  0  0  0
 21 22  1  0  0  0  0
 22 20  1  0  0  0  0
 23  2  1  0  0  0  0
 24 23  1  0  0  0  0
 25 24  1  0  0  0  0
 26 31  2  0  0  0  0
 27 28  2  0  0  0  0
 27 30  1  0  0  0  0
 28 32  1  0  0  0  0
 29 31  1  0  0  0  0
 30 26  1  0  0  0  0
 31 25  1  0  0  0  0
 32 29  2  0  0  0  0
M  END
>  <MODEL>
4

>  <REMARK>
 VINA RESULT:      -8.1      2.215      6.915
  Name = 
  12 active torsions:
  status: ('A' for Active; 'I' for Inactive)
    1  A    between atoms: N_1  and  C_25
    2  A    between atoms: N_1  and  C_32
    3  A    between atoms: C_2  and  C_27
    4  A    between atoms: C_3  and  C_16
    5  A    between atoms: C_6  and  N_31
    6  A    between atoms: C_10  and  C_19
    7  A    between atoms: N_14  and  C_18
    8  A    between atoms: C_16  and  C_23
    9  A    between atoms: C_19  and  C_24
   10  A    between atoms: C_20  and  C_27
   11  A    between atoms: C_23  and  N_28
   12  A    between atoms: N_31  and  C_32
                            x       y       z     vdW  Elec       q    Type
                         _______ _______ _______ _____ _____    ______ ____

>  <TORSDO>
F 12

$$$$
=
 OpenBabel10232408183D

 32 33  0  0  1  0  0  0  0  0999 V2000
  183.5090  178.8480  141.5740 C   0  0  0  0  0  0  0  0  0  0  0  0
  184.8400  179.1140  141.9920 C   0  0  0  0  0  0  0  0  0  0  0  0
  185.1240  179.1550  143.3610 C   0  0  0  0  0  3  0  0  0  0  0  0
  184.1230  178.9410  144.3130 C   0  0  0  0  0  0  0  0  0  0  0  0
  182.8140  178.6900  143.8970 C   0  0  0  0  0  3  0  0  0  0  0  0
  182.5130  178.6400  142.5360 C   0  0  0  0  0  3  0  0  0  0  0  0
  183.1050  178.7350  140.1370 C   0  0  0  0  0  2  0  0  0  0  0  0
  183.1750  177.2900  139.6630 C   0  0  0  0  0  2  0  0  0  0  0  0
  183.8780  177.2750  136.0780 O   0  0  0  0  0  0  0  0  0  0  0  0
  185.4210  177.5200  137.8160 N   0  0  0  0  0  2  0  0  0  0  0  0
  184.0900  177.3370  137.3190 C   0  0  0  0  0  0  0  0  0  0  0  0
  182.9930  177.2250  138.2230 N   0  0  0  0  0  2  0  0  0  0  0  0
  187.1810  178.9270  137.0780 N   0  0  0  0  0  1  0  0  0  0  0  0
  187.6000  176.5560  137.3230 C   0  0  0  0  0  1  0  0  0  0  0  0
  186.5810  177.6130  136.9420 C   0  0  1  0  0  3  0  0  0  0  0  0
  184.4440  179.0140  145.7670 C   0  0  0  0  0  2  0  0  0  0  0  0
  186.3510  178.4100  147.2020 C   0  0  0  0  0  3  0  0  0  0  0  0
  185.6410  178.1800  146.0980 C   0  0  0  0  0  3  0  0  0  0  0  0
  188.1310  178.0310  148.7090 O   0  0  0  0  0  1  0  0  0  0  0  0
  187.5500  177.5770  147.5240 C   0  0  2  0  0  3  0  0  0  0  0  0
  189.8600  176.9800  146.7960 C   0  0  0  0  0  1  0  0  0  0  0  0
  188.5680  177.6710  146.4000 C   0  0  0  0  0  2  0  0  0  0  0  0
  185.9320  179.3550  141.0910 N   0  0  0  0  0  2  0  0  0  0  0  0
  186.9960  178.4230  140.7560 C   0  0  0  0  0  2  0  0  0  0  0  0
  188.2520  178.8980  141.3170 N   0  0  0  0  0  0  0  0  0  0  0  0
  190.2210  178.6160  142.6550 C   0  0  0  0  0  2  0  0  0  0  0  0
  191.4430  176.5840  143.3580 C   0  0  0  0  0  3  0  0  0  0  0  0
  190.5490  175.6160  143.1620 C   0  0  0  0  0  3  0  0  0  0  0  0
  188.4310  176.9050  142.7850 C   0  0  0  0  0  3  0  0  0  0  0  0
  191.0590  177.9800  143.7150 C   0  0  0  0  0  2  0  0  0  0  0  0
  189.0270  178.1520  142.2610 C   0  0  0  0  0  0  0  0  0  0  0  0
  189.0870  175.8040  143.1710 C   0  0  0  0  0  3  0  0  0  0  0  0
  1  2  2  0  0  0  0
  1  6  1  0  0  0  0
  2  3  1  0  0  0  0
  3  4  2  0  0  0  0
  4 16  1  0  0  0  0
  5  4  1  0  0  0  0
  6  5  2  0  0  0  0
  7  1  1  0  0  0  0
  8  7  1  0  0  0  0
  9 11  2  0  0  0  0
 11 10  1  0  0  0  0
 11 12  1  0  0  0  0
 12  8  1  0  0  0  0
 15 13  1  0  0  0  0
 15 14  1  1  0  0  0
 15 10  1  0  0  0  0
 16 18  1  0  0  0  0
 17 20  1  0  0  0  0
 18 17  2  0  0  0  0
 20 19  1  1  0  0  0
 22 21  1  0  0  0  0
 22 20  1  0  0  0  0
 23  2  1  0  0  0  0
 24 23  1  0  0  0  0
 24 25  1  0  0  0  0
 25 31  2  0  0  0  0
 26 30  1  0  0  0  0
 27 30  1  0  0  0  0
 28 32  1  0  0  0  0
 28 27  2  0  0  0  0
 29 32  2  0  0  0  0
 31 26  1  0  0  0  0
 31 29  1  0  0  0  0
M  END
>  <MODEL>
5

>  <REMARK>
 VINA RESULT:      -8.1      2.135      4.204
  Name = 
  12 active torsions:
  status: ('A' for Active; 'I' for Inactive)
    1  A    between atoms: N_1  and  C_25
    2  A    between atoms: N_1  and  C_32
    3  A    between atoms: C_2  and  C_27
    4  A    between atoms: C_3  and  C_16
    5  A    between atoms: C_6  and  N_31
    6  A    between atoms: C_10  and  C_19
    7  A    between atoms: N_14  and  C_18
    8  A    between atoms: C_16  and  C_23
    9  A    between atoms: C_19  and  C_24
   10  A    between atoms: C_20  and  C_27
   11  A    between atoms: C_23  and  N_28
   12  A    between atoms: N_31  and  C_32
                            x       y       z     vdW  Elec       q    Type
                         _______ _______ _______ _____ _____    ______ ____

>  <TORSDO>
F 12

$$$$
=
 OpenBabel10232408183D

 32 33  0  0  1  0  0  0  0  0999 V2000
  189.2670  178.2000  139.3460 C   0  0  0  0  0  0  0  0  0  0  0  0
  188.5170  178.2750  140.5500 C   0  0  0  0  0  0  0  0  0  0  0  0
  188.9080  177.4900  141.6400 C   0  0  0  0  0  3  0  0  0  0  0  0
  190.0140  176.6400  141.5580 C   0  0  0  0  0  0  0  0  0  0  0  0
  190.7410  176.5630  140.3690 C   0  0  0  0  0  3  0  0  0  0  0  0
  190.3710  177.3410  139.2730 C   0  0  0  0  0  3  0  0  0  0  0  0
  188.9650  179.0300  138.1370 C   0  0  0  0  0  2  0  0  0  0  0  0
  188.1970  178.2230  137.1000 C   0  0  0  0  0  2  0  0  0  0  0  0
  190.2260  176.2190  134.8170 O   0  0  0  0  0  0  0  0  0  0  0  0
  188.9870  175.4530  136.6430 N   0  0  0  0  0  2  0  0  0  0  0  0
  189.4610  176.4920  135.7800 C   0  0  0  0  0  0  0  0  0  0  0  0
  189.0750  177.8470  136.0050 N   0  0  0  0  0  2  0  0  0  0  0  0
  190.4140  173.6900  137.3350 N   0  0  0  0  0  1  0  0  0  0  0  0
  188.1220  173.1800  136.7500 C   0  0  0  0  0  1  0  0  0  0  0  0
  189.3260  174.0510  136.4460 C   0  0  1  0  0  3  0  0  0  0  0  0
  190.3980  175.7950  142.7250 C   0  0  0  0  0  2  0  0  0  0  0  0
  191.3010  176.5200  144.8970 C   0  0  0  0  0  3  0  0  0  0  0  0
  190.3140  176.5680  144.0020 C   0  0  0  0  0  3  0  0  0  0  0  0
  191.6410  176.4930  147.2350 O   0  0  0  0  0  1  0  0  0  0  0  0
  191.2090  177.2910  146.1750 C   0  0  2  0  0  3  0  0  0  0  0  0
  189.1770  176.9310  147.5770 C   0  0  0  0  0  1  0  0  0  0  0  0
  189.7730  177.7180  146.4240 C   0  0  0  0  0  2  0  0  0  0  0  0
  187.3620  179.1090  140.7270 N   0  0  0  0  0  2  0  0  0  0  0  0
  185.9770  178.6680  140.7700 C   0  0  0  0  0  2  0  0  0  0  0  0
  185.2710  179.3870  141.8200 N   0  0  0  0  0  2  0  0  0  0  0  0
  184.0980  179.3280  143.9100 C   0  0  0  0  0  3  0  0  0  0  0  0
  184.8970  178.9730  146.2230 C   0  0  0  0  0  3  0  0  0  0  0  0
  186.0950  178.4210  146.0430 C   0  0  0  0  0  3  0  0  0  0  0  0
  186.0660  177.8510  143.6000 C   0  0  0  0  0  3  0  0  0  0  0  0
  183.7690  178.7920  145.2640 C   0  0  0  0  0  2  0  0  0  0  0  0
  185.1080  178.8830  143.1490 C   0  0  0  0  0  0  0  0  0  0  0  0
  186.4990  177.6520  144.8510 C   0  0  0  0  0  3  0  0  0  0  0  0
  1  2  1  0  0  0  0
  2 23  1  0  0  0  0
  2  3  2  0  0  0  0
  4  3  1  0  0  0  0
  4 16  1  0  0  0  0
  5  4  2  0  0  0  0
  6  1  2  0  0  0  0
  6  5  1  0  0  0  0
  7  1  1  0  0  0  0
  8  7  1  0  0  0  0
  9 11  2  0  0  0  0
 11 12  1  0  0  0  0
 11 10  1  0  0  0  0
 12  8  1  0  0  0  0
 15 10  1  0  0  0  0
 15 14  1  1  0  0  0
 15 13  1  0  0  0  0
 16 18  1  0  0  0  0
 17 20  1  0  0  0  0
 18 17  2  0  0  0  0
 20 22  1  0  0  0  0
 20 19  1  1  0  0  0
 22 21  1  0  0  0  0
 23 24  1  0  0  0  0
 24 25  1  0  0  0  0
 25 31  1  0  0  0  0
 26 30  1  0  0  0  0
 28 27  2  0  0  0  0
 29 32  2  0  0  0  0
 30 27  1  0  0  0  0
 31 29  1  0  0  0  0
 31 26  2  0  0  0  0
 32 28  1  0  0  0  0
M  END
>  <MODEL>
6

>  <REMARK>
 VINA RESULT:      -8.0      2.683      6.471
  Name = 
  12 active torsions:
  status: ('A' for Active; 'I' for Inactive)
    1  A    between atoms: N_1  and  C_25
    2  A    between atoms: N_1  and  C_32
    3  A    between atoms: C_2  and  C_27
    4  A    between atoms: C_3  and  C_16
    5  A    between atoms: C_6  and  N_31
    6  A    between atoms: C_10  and  C_19
    7  A    between atoms: N_14  and  C_18
    8  A    between atoms: C_16  and  C_23
    9  A    between atoms: C_19  and  C_24
   10  A    between atoms: C_20  and  C_27
   11  A    between atoms: C_23  and  N_28
   12  A    between atoms: N_31  and  C_32
                            x       y       z     vdW  Elec       q    Type
                         _______ _______ _______ _____ _____    ______ ____

>  <TORSDO>
F 12

$$$$
=
 OpenBabel10232408183D

 32 33  0  0  1  0  0  0  0  0999 V2000
  185.2210  178.7560  144.6470 C   0  0  0  0  0  0  0  0  0  0  0  0
  186.4040  178.0350  144.3330 C   0  0  0  0  0  0  0  0  0  0  0  0
  187.2690  177.6710  145.3710 C   0  0  0  0  0  3  0  0  0  0  0  0
  186.9880  178.0080  146.6970 C   0  0  0  0  0  0  0  0  0  0  0  0
  185.8300  178.7260  146.9990 C   0  0  0  0  0  3  0  0  0  0  0  0
  184.9520  179.0930  145.9790 C   0  0  0  0  0  3  0  0  0  0  0  0
  184.2050  179.1530  143.6230 C   0  0  0  0  0  2  0  0  0  0  0  0
  182.8510  178.5280  143.9270 C   0  0  0  0  0  2  0  0  0  0  0  0
  180.2030  180.2160  142.0590 O   0  0  0  0  0  0  0  0  0  0  0  0
  181.5040  178.4130  141.3420 N   0  0  0  0  0  2  0  0  0  0  0  0
  181.1230  179.3930  142.3140 C   0  0  0  0  0  0  0  0  0  0  0  0
  181.7820  179.4490  143.5770 N   0  0  0  0  0  2  0  0  0  0  0  0
  181.7010  178.8590  139.0220 N   0  0  0  0  0  1  0  0  0  0  0  0
  180.5930  176.8290  139.7330 C   0  0  0  0  0  1  0  0  0  0  0  0
  180.8480  178.2910  140.0480 C   0  0  1  0  0  3  0  0  0  0  0  0
  187.9370  177.6310  147.7840 C   0  0  0  0  0  2  0  0  0  0  0  0
  190.0440  176.4310  147.3560 C   0  0  0  0  0  3  0  0  0  0  0  0
  189.3410  177.5610  147.2730 C   0  0  0  0  0  3  0  0  0  0  0  0
  192.3200  176.8580  147.8220 O   0  0  0  0  0  1  0  0  0  0  0  0
  191.4490  176.3680  146.8490 C   0  0  2  0  0  3  0  0  0  0  0  0
  191.3390  176.3530  144.3570 C   0  0  0  0  0  1  0  0  0  0  0  0
  191.5870  177.2040  145.5890 C   0  0  0  0  0  2  0  0  0  0  0  0
  186.7830  177.6530  143.0030 N   0  0  0  0  0  2  0  0  0  0  0  0
  187.6160  178.4180  142.0890 C   0  0  0  0  0  2  0  0  0  0  0  0
  188.7690  177.6210  141.6990 N   0  0  0  0  0  2  0  0  0  0  0  0
  188.6980  178.2440  139.3850 C   0  0  0  0  0  3  0  0  0  0  0  0
  189.6630  177.1770  137.3740 C   0  0  0  0  0  3  0  0  0  0  0  0
  190.5880  176.3640  137.8830 C   0  0  0  0  0  3  0  0  0  0  0  0
  190.7360  177.1380  140.2640 C   0  0  0  0  0  3  0  0  0  0  0  0
  189.2680  178.4600  138.0220 C   0  0  0  0  0  2  0  0  0  0  0  0
  189.3680  177.6810  140.4010 C   0  0  0  0  0  0  0  0  0  0  0  0
  191.2650  176.5640  139.1780 C   0  0  0  0  0  3  0  0  0  0  0  0
  1  6  1  0  0  0  0
  2  1  2  0  0  0  0
  2  3  1  0  0  0  0
  3  4  2  0  0  0  0
  4  5  1  0  0  0  0
  4 16  1  0  0  0  0
  6  5  2  0  0  0  0
  7  8  1  0  0  0  0
  7  1  1  0  0  0  0
  9 11  2  0  0  0  0
 10 11  1  0  0  0  0
 11 12  1  0  0  0  0
 12  8  1  0  0  0  0
 13 15  1  0  0  0  0
 15 14  1  6  0  0  0
 15 10  1  0  0  0  0
 18 17  2  0  0  0  0
 18 16  1  0  0  0  0
 20 17  1  0  0  0  0
 20 19  1  1  0  0  0
 21 22  1  0  0  0  0
 22 20  1  0  0  0  0
 23  2  1  0  0  0  0
 24 23  1  0  0  0  0
 25 24  1  0  0  0  0
 26 31  2  0  0  0  0
 27 28  2  0  0  0  0
 27 30  1  0  0  0  0
 28 32  1  0  0  0  0
 29 31  1  0  0  0  0
 30 26  1  0  0  0  0
 31 25  1  0  0  0  0
 32 29  2  0  0  0  0
M  END
>  <MODEL>
7

>  <REMARK>
 VINA RESULT:      -7.9      1.781      1.952
  Name = 
  12 active torsions:
  status: ('A' for Active; 'I' for Inactive)
    1  A    between atoms: N_1  and  C_25
    2  A    between atoms: N_1  and  C_32
    3  A    between atoms: C_2  and  C_27
    4  A    between atoms: C_3  and  C_16
    5  A    between atoms: C_6  and  N_31
    6  A    between atoms: C_10  and  C_19
    7  A    between atoms: N_14  and  C_18
    8  A    between atoms: C_16  and  C_23
    9  A    between atoms: C_19  and  C_24
   10  A    between atoms: C_20  and  C_27
   11  A    between atoms: C_23  and  N_28
   12  A    between atoms: N_31  and  C_32
                            x       y       z     vdW  Elec       q    Type
                         _______ _______ _______ _____ _____    ______ ____

>  <TORSDO>
F 12

$$$$
=
 OpenBabel10232408183D

 32 33  0  0  1  0  0  0  0  0999 V2000
  189.6400  177.1750  139.8240 C   0  0  0  0  0  0  0  0  0  0  0  0
  188.7520  178.1200  140.4040 C   0  0  0  0  0  0  0  0  0  0  0  0
  189.0380  178.6230  141.6780 C   0  0  0  0  0  3  0  0  0  0  0  0
  190.1730  178.2090  142.3800 C   0  0  0  0  0  0  0  0  0  0  0  0
  191.0370  177.2720  141.8090 C   0  0  0  0  0  3  0  0  0  0  0  0
  190.7720  176.7640  140.5380 C   0  0  0  0  0  3  0  0  0  0  0  0
  189.4550  176.6100  138.4500 C   0  0  0  0  0  2  0  0  0  0  0  0
  190.6450  175.7500  138.0500 C   0  0  0  0  0  2  0  0  0  0  0  0
  193.9290  176.9170  136.9530 O   0  0  0  0  0  0  0  0  0  0  0  0
  193.4350  174.8980  138.0220 N   0  0  0  0  0  2  0  0  0  0  0  0
  193.0580  176.1610  137.4620 C   0  0  0  0  0  0  0  0  0  0  0  0
  191.6940  176.5770  137.4770 N   0  0  0  0  0  2  0  0  0  0  0  0
  195.5220  174.9610  139.1460 N   0  0  0  0  0  1  0  0  0  0  0  0
  194.8180  172.8970  138.0970 C   0  0  0  0  0  1  0  0  0  0  0  0
  194.8070  174.4110  138.0100 C   0  0  1  0  0  3  0  0  0  0  0  0
  190.4450  178.7400  143.7470 C   0  0  0  0  0  2  0  0  0  0  0  0
  189.9240  177.8780  145.9930 C   0  0  0  0  0  3  0  0  0  0  0  0
  190.3990  177.6500  144.7690 C   0  0  0  0  0  3  0  0  0  0  0  0
  188.7840  176.9630  147.8490 O   0  0  0  0  0  1  0  0  0  0  0  0
  189.8870  176.7850  147.0130 C   0  0  2  0  0  3  0  0  0  0  0  0
  192.1530  175.7910  147.3200 C   0  0  0  0  0  1  0  0  0  0  0  0
  191.1560  176.8060  147.8470 C   0  0  0  0  0  2  0  0  0  0  0  0
  187.5580  178.5980  139.7660 N   0  0  0  0  0  2  0  0  0  0  0  0
  186.1960  178.4170  140.2390 C   0  0  0  0  0  2  0  0  0  0  0  0
  185.9660  179.2660  141.3990 N   0  0  0  0  0  2  0  0  0  0  0  0
  184.5180  179.2770  143.3090 C   0  0  0  0  0  3  0  0  0  0  0  0
  184.9620  178.8320  145.7010 C   0  0  0  0  0  3  0  0  0  0  0  0
  186.1280  178.1870  145.6730 C   0  0  0  0  0  3  0  0  0  0  0  0
  186.3890  177.6510  143.2360 C   0  0  0  0  0  3  0  0  0  0  0  0
  183.9660  178.7530  144.5940 C   0  0  0  0  0  2  0  0  0  0  0  0
  185.5850  178.7620  142.6830 C   0  0  0  0  0  0  0  0  0  0  0  0
  186.6300  177.4030  144.5290 C   0  0  0  0  0  3  0  0  0  0  0  0
  1  2  2  0  0  0  0
  1  6  1  0  0  0  0
  2  3  1  0  0  0  0
  3  4  2  0  0  0  0
  4 16  1  0  0  0  0
  5  4  1  0  0  0  0
  6  5  2  0  0  0  0
  7  1  1  0  0  0  0
  8  7  1  0  0  0  0
  9 11  2  0  0  0  0
 11 12  1  0  0  0  0
 11 10  1  0  0  0  0
 12  8  1  0  0  0  0
 15 10  1  0  0  0  0
 15 14  1  1  0  0  0
 15 13  1  0  0  0  0
 16 18  1  0  0  0  0
 17 20  1  0  0  0  0
 18 17  2  0  0  0  0
 20 22  1  0  0  0  0
 20 19  1  1  0  0  0
 21 22  1  0  0  0  0
 23 24  1  0  0  0  0
 23  2  1  0  0  0  0
 24 25  1  0  0  0  0
 25 31  1  0  0  0  0
 26 30  1  0  0  0  0
 28 27  2  0  0  0  0
 29 32  2  0  0  0  0
 30 27  1  0  0  0  0
 31 29  1  0  0  0  0
 31 26  2  0  0  0  0
 32 28  1  0  0  0  0
M  END
>  <MODEL>
8

>  <REMARK>
 VINA RESULT:      -7.9      3.153      7.404
  Name = 
  12 active torsions:
  status: ('A' for Active; 'I' for Inactive)
    1  A    between atoms: N_1  and  C_25
    2  A    between atoms: N_1  and  C_32
    3  A    between atoms: C_2  and  C_27
    4  A    between atoms: C_3  and  C_16
    5  A    between atoms: C_6  and  N_31
    6  A    between atoms: C_10  and  C_19
    7  A    between atoms: N_14  and  C_18
    8  A    between atoms: C_16  and  C_23
    9  A    between atoms: C_19  and  C_24
   10  A    between atoms: C_20  and  C_27
   11  A    between atoms: C_23  and  N_28
   12  A    between atoms: N_31  and  C_32
                            x       y       z     vdW  Elec       q    Type
                         _______ _______ _______ _____ _____    ______ ____

>  <TORSDO>
F 12

$$$$
=
 OpenBabel10232408183D

 32 33  0  0  1  0  0  0  0  0999 V2000
  189.7520  176.8250  139.5330 C   0  0  0  0  0  0  0  0  0  0  0  0
  189.6260  176.9080  140.9460 C   0  0  0  0  0  0  0  0  0  0  0  0
  188.5620  177.6370  141.4880 C   0  0  0  0  0  3  0  0  0  0  0  0
  187.6340  178.2800  140.6650 C   0  0  0  0  0  0  0  0  0  0  0  0
  187.7680  178.2040  139.2780 C   0  0  0  0  0  3  0  0  0  0  0  0
  188.8190  177.4770  138.7180 C   0  0  0  0  0  3  0  0  0  0  0  0
  190.8220  176.0340  138.8490 C   0  0  0  0  0  2  0  0  0  0  0  0
  192.0590  176.8870  138.6030 C   0  0  0  0  0  2  0  0  0  0  0  0
  194.3640  175.5120  136.1250 O   0  0  0  0  0  0  0  0  0  0  0  0
  194.5380  175.3580  138.4500 N   0  0  0  0  0  2  0  0  0  0  0  0
  193.8780  175.7880  137.2540 C   0  0  0  0  0  0  0  0  0  0  0  0
  192.6660  176.5360  137.3300 N   0  0  0  0  0  2  0  0  0  0  0  0
  196.5850  174.9350  139.5700 N   0  0  0  0  0  1  0  0  0  0  0  0
  195.4260  173.0930  138.5130 C   0  0  0  0  0  1  0  0  0  0  0  0
  195.7620  174.5700  138.4330 C   0  0  1  0  0  3  0  0  0  0  0  0
  186.5220  179.0720  141.2660 C   0  0  0  0  0  2  0  0  0  0  0  0
  185.0700  179.0120  143.2520 C   0  0  0  0  0  3  0  0  0  0  0  0
  186.1000  178.4980  142.5800 C   0  0  0  0  0  3  0  0  0  0  0  0
  183.3320  178.7880  144.8380 O   0  0  0  0  0  1  0  0  0  0  0  0
  184.6560  178.4380  144.5700 C   0  0  2  0  0  3  0  0  0  0  0  0
  185.1380  178.3930  147.0160 C   0  0  0  0  0  1  0  0  0  0  0  0
  185.5490  178.9730  145.6760 C   0  0  0  0  0  2  0  0  0  0  0  0
  190.5330  176.2910  141.8710 N   0  0  0  0  0  2  0  0  0  0  0  0
  191.7530  176.8760  142.4040 C   0  0  0  0  0  2  0  0  0  0  0  0
  191.9900  176.3670  143.7470 N   0  0  0  0  0  0  0  0  0  0  0  0
  191.5610  176.3070  146.1050 C   0  0  0  0  0  2  0  0  0  0  0  0
  189.4790  176.6420  147.3960 C   0  0  0  0  0  3  0  0  0  0  0  0
  188.6840  177.2620  146.5260 C   0  0  0  0  0  3  0  0  0  0  0  0
  190.2780  177.8940  144.6950 C   0  0  0  0  0  3  0  0  0  0  0  0
  190.9630  176.7880  147.3860 C   0  0  0  0  0  2  0  0  0  0  0  0
  191.2790  176.8250  144.9010 C   0  0  0  0  0  0  0  0  0  0  0  0
  189.1520  178.0830  145.3930 C   0  0  0  0  0  3  0  0  0  0  0  0
  1  2  1  0  0  0  0
  2  3  2  0  0  0  0
  2 23  1  0  0  0  0
  4 16  1  0  0  0  0
  4  3  1  0  0  0  0
  5  4  2  0  0  0  0
  6  5  1  0  0  0  0
  6  1  2  0  0  0  0
  7  1  1  0  0  0  0
  8  7  1  0  0  0  0
  9 11  2  0  0  0  0
 11 12  1  0  0  0  0
 11 10  1  0  0  0  0
 12  8  1  0  0  0  0
 15 10  1  0  0  0  0
 15 14  1  1  0  0  0
 15 13  1  0  0  0  0
 16 18  1  0  0  0  0
 17 20  1  0  0  0  0
 18 17  2  0  0  0  0
 20 19  1  1  0  0  0
 20 22  1  0  0  0  0
 22 21  1  0  0  0  0
 23 24  1  0  0  0  0
 24 25  1  0  0  0  0
 25 31  2  0  0  0  0
 26 30  1  0  0  0  0
 28 27  2  0  0  0  0
 29 31  1  0  0  0  0
 29 32  2  0  0  0  0
 30 27  1  0  0  0  0
 31 26  1  0  0  0  0
 32 28  1  0  0  0  0
M  END
>  <MODEL>
9

>  <REMARK>
 VINA RESULT:      -7.9      3.679      8.454
  Name = 
  12 active torsions:
  status: ('A' for Active; 'I' for Inactive)
    1  A    between atoms: N_1  and  C_25
    2  A    between atoms: N_1  and  C_32
    3  A    between atoms: C_2  and  C_27
    4  A    between atoms: C_3  and  C_16
    5  A    between atoms: C_6  and  N_31
    6  A    between atoms: C_10  and  C_19
    7  A    between atoms: N_14  and  C_18
    8  A    between atoms: C_16  and  C_23
    9  A    between atoms: C_19  and  C_24
   10  A    between atoms: C_20  and  C_27
   11  A    between atoms: C_23  and  N_28
   12  A    between atoms: N_31  and  C_32
                            x       y       z     vdW  Elec       q    Type
                         _______ _______ _______ _____ _____    ______ ____

>  <TORSDO>
F 12

$$$$
