=
 OpenBabel10232411133D

 33 36  0  0  1  0  0  0  0  0999 V2000
  193.5920  174.8480  136.9100 C   0  0  0  0  0  2  0  0  0  0  0  0
  192.0560  174.6300  134.3460 O   0  0  0  0  0  0  0  0  0  0  0  0
  187.4470  176.3690  136.7880 C   0  0  0  0  0  0  0  0  0  0  0  0
  189.3240  177.5310  137.8160 C   0  0  0  0  0  0  0  0  0  0  0  0
  193.0840  176.9160  138.2970 C   0  0  0  0  0  2  0  0  0  0  0  0
  192.3910  172.2310  135.8460 N   0  0  0  0  0  1  0  0  0  0  0  0
  191.1920  174.2220  135.1110 C   0  0  0  0  0  0  0  0  0  0  0  0
  191.3490  175.0600  138.1580 C   0  0  0  0  0  2  0  0  0  0  0  0
  191.5810  173.3600  136.2880 C   0  0  2  0  0  3  0  0  0  0  0  0
  194.1010  175.8070  137.9820 C   0  0  0  0  0  2  0  0  0  0  0  0
  187.6100  174.3450  135.3090 C   0  0  0  0  0  2  0  0  0  0  0  0
  191.6480  176.5470  137.9070 C   0  0  1  0  0  3  0  0  0  0  0  0
  186.8250  177.6040  136.5380 C   0  0  0  0  0  0  0  0  0  0  0  0
  192.3110  174.1370  137.3970 C   0  0  1  0  0  3  0  0  0  0  0  0
  188.6870  178.7590  137.5870 C   0  0  0  0  0  3  0  0  0  0  0  0
  186.5920  174.2610  137.4890 O   0  0  0  0  0  1  0  0  0  0  0  0
  188.8880  174.0080  135.7750 O   0  0  0  0  0  0  0  0  0  0  0  0
  185.5930  177.6600  135.8960 O   0  0  0  0  0  1  0  0  0  0  0  0
  190.6300  177.4980  138.5550 C   0  0  2  0  0  3  0  0  0  0  0  0
  189.7640  174.6000  134.8500 C   0  0  0  0  0  2  0  0  0  0  0  0
  186.7990  175.0810  136.3780 C   0  0  1  0  0  3  0  0  0  0  0  0
  188.6840  176.3460  137.4360 C   0  0  0  0  0  3  0  0  0  0  0  0
  187.4440  178.7930  136.9450 C   0  0  0  0  0  3  0  0  0  0  0  0
  191.6050  177.6710  141.1010 O   0  0  0  0  0  0  0  0  0  0  0  0
  190.3870  177.2560  140.3250 S   0  0  0  0  0  0  0  0  0  0  0  0
  190.1030  175.8080  140.6190 O   0  0  0  0  0  0  0  0  0  0  0  0
  188.9950  178.2270  140.8720 C   0  0  0  0  0  2  0  0  0  0  0  0
  187.8860  177.0140  144.3400 C   0  0  0  0  0  2  0  0  0  0  0  0
  188.1440  177.4800  141.8930 C   0  0  2  0  0  3  0  0  0  0  0  0
  186.7480  178.0620  141.9490 C   0  0  0  0  0  3  0  0  0  0  0  0
  186.0750  178.2450  143.0990 C   0  0  0  0  0  3  0  0  0  0  0  0
  186.6910  177.9620  144.4460 C   0  0  0  0  0  2  0  0  0  0  0  0
  188.8370  177.5180  143.2600 C   0  0  0  0  0  2  0  0  0  0  0  0
  1 10  1  0  0  0  0
  2  7  2  0  0  0  0
  3 22  1  0  0  0  0
  4 19  1  0  0  0  0
  7  9  1  0  0  0  0
  9  6  1  6  0  0  0
  9 14  1  0  0  0  0
 10  5  1  0  0  0  0
 11 17  1  0  0  0  0
 11 21  1  0  0  0  0
 12  8  1  1  0  0  0
 12  5  1  0  0  0  0
 12 19  1  0  0  0  0
 13  3  2  0  0  0  0
 13 23  1  0  0  0  0
 14  1  1  6  0  0  0
 14  8  1  0  0  0  0
 15  4  1  0  0  0  0
 18 13  1  0  0  0  0
 19 25  1  1  0  0  0
 20  7  1  0  0  0  0
 20 17  1  0  0  0  0
 21  3  1  0  0  0  0
 21 16  1  1  0  0  0
 22  4  2  0  0  0  0
 23 15  2  0  0  0  0
 25 26  2  0  0  0  0
 25 27  1  0  0  0  0
 25 24  2  0  0  0  0
 28 32  1  0  0  0  0
 29 27  1  6  0  0  0
 29 30  1  0  0  0  0
 29 33  1  0  0  0  0
 30 31  2  0  0  0  0
 31 32  1  0  0  0  0
 33 28  1  0  0  0  0
M  END
>  <MODEL>
1

>  <REMARK>
 VINA RESULT:      -6.8      0.000      0.000
  Name = 
  3 active torsions:
  status: ('A' for Active; 'I' for Inactive)
    1  A    between atoms: C_3  and  C_31
    2  A    between atoms: S_7  and  C_27
    3  A    between atoms: S_7  and  C_31
                            x       y       z     vdW  Elec       q    Type
                         _______ _______ _______ _____ _____    ______ ____

>  <TORSDO>
F 3

$$$$
=
 OpenBabel10232411133D

 33 36  0  0  1  0  0  0  0  0999 V2000
  184.5460  178.1100  142.2800 C   0  0  0  0  0  2  0  0  0  0  0  0
  184.0280  177.1100  139.5030 O   0  0  0  0  0  0  0  0  0  0  0  0
  189.2860  177.8740  138.0900 C   0  0  0  0  0  0  0  0  0  0  0  0
  189.2290  177.1880  140.4250 C   0  0  0  0  0  0  0  0  0  0  0  0
  186.7170  177.3040  143.3270 C   0  0  0  0  0  2  0  0  0  0  0  0
  183.3820  179.8360  140.0260 N   0  0  0  0  0  1  0  0  0  0  0  0
  184.7990  178.0200  139.2290 C   0  0  0  0  0  0  0  0  0  0  0  0
  186.8070  179.0280  141.4570 C   0  0  0  0  0  2  0  0  0  0  0  0
  184.7420  179.3120  140.0090 C   0  0  2  0  0  3  0  0  0  0  0  0
  185.3020  177.8490  143.5810 C   0  0  0  0  0  2  0  0  0  0  0  0
  187.3120  178.6510  136.7440 C   0  0  0  0  0  2  0  0  0  0  0  0
  187.2480  177.6330  141.9280 C   0  0  1  0  0  3  0  0  0  0  0  0
  190.1980  176.8430  137.8130 C   0  0  0  0  0  0  0  0  0  0  0  0
  185.2790  179.1800  141.4450 C   0  0  1  0  0  3  0  0  0  0  0  0
  190.1600  176.1760  140.1480 C   0  0  0  0  0  3  0  0  0  0  0  0
  189.1290  180.1210  137.3190 O   0  0  0  0  0  1  0  0  0  0  0  0
  186.5570  178.9650  137.8830 O   0  0  0  0  0  0  0  0  0  0  0  0
  190.6800  176.6500  136.5220 O   0  0  0  0  0  1  0  0  0  0  0  0
  188.7660  177.4040  141.8360 C   0  0  2  0  0  3  0  0  0  0  0  0
  185.7860  177.8140  138.1180 C   0  0  0  0  0  2  0  0  0  0  0  0
  188.8120  178.7970  137.0080 C   0  0  1  0  0  3  0  0  0  0  0  0
  188.8210  178.0430  139.3970 C   0  0  0  0  0  3  0  0  0  0  0  0
  190.6380  176.0030  138.8440 C   0  0  0  0  0  3  0  0  0  0  0  0
  189.4720  180.0200  142.1820 O   0  0  0  0  0  0  0  0  0  0  0  0
  189.7690  178.6360  142.6860 S   0  0  0  0  0  0  0  0  0  0  0  0
  191.2320  178.3540  142.4740 O   0  0  0  0  0  0  0  0  0  0  0  0
  189.4300  178.5740  144.4360 C   0  0  0  0  0  2  0  0  0  0  0  0
  191.9100  176.1610  146.0960 C   0  0  0  0  0  2  0  0  0  0  0  0
  189.9170  177.2750  145.0660 C   0  0  2  0  0  3  0  0  0  0  0  0
  189.2120  177.0240  146.3810 C   0  0  0  0  0  3  0  0  0  0  0  0
  189.8390  176.5480  147.4720 C   0  0  0  0  0  3  0  0  0  0  0  0
  191.3270  176.3040  147.5020 C   0  0  0  0  0  2  0  0  0  0  0  0
  191.4400  177.3270  145.2330 C   0  0  0  0  0  2  0  0  0  0  0  0
  1 10  1  0  0  0  0
  3 22  1  0  0  0  0
  4 19  1  0  0  0  0
  5 10  1  0  0  0  0
  7  2  2  0  0  0  0
  7  9  1  0  0  0  0
  9  6  1  1  0  0  0
  9 14  1  0  0  0  0
 11 21  1  0  0  0  0
 11 17  1  0  0  0  0
 12  8  1  1  0  0  0
 12  5  1  0  0  0  0
 13  3  2  0  0  0  0
 13 23  1  0  0  0  0
 14  8  1  6  0  0  0
 14  1  1  0  0  0  0
 15  4  1  0  0  0  0
 17 20  1  0  0  0  0
 18 13  1  0  0  0  0
 19 12  1  0  0  0  0
 19 25  1  6  0  0  0
 20  7  1  0  0  0  0
 21 16  1  1  0  0  0
 21  3  1  0  0  0  0
 22  4  2  0  0  0  0
 23 15  2  0  0  0  0
 24 25  2  0  0  0  0
 25 27  1  0  0  0  0
 26 25  2  0  0  0  0
 28 32  1  0  0  0  0
 29 27  1  1  0  0  0
 29 33  1  0  0  0  0
 29 30  1  0  0  0  0
 30 31  2  0  0  0  0
 31 32  1  0  0  0  0
 33 28  1  0  0  0  0
M  END
>  <MODEL>
2

>  <REMARK>
 VINA RESULT:      -6.7      3.329      6.385
  Name = 
  3 active torsions:
  status: ('A' for Active; 'I' for Inactive)
    1  A    between atoms: C_3  and  C_31
    2  A    between atoms: S_7  and  C_27
    3  A    between atoms: S_7  and  C_31
                            x       y       z     vdW  Elec       q    Type
                         _______ _______ _______ _____ _____    ______ ____

>  <TORSDO>
F 3

$$$$
=
 OpenBabel10232411133D

 33 36  0  0  1  0  0  0  0  0999 V2000
  181.7200  174.5360  137.6050 C   0  0  0  0  0  2  0  0  0  0  0  0
  184.0620  173.1950  136.3040 O   0  0  0  0  0  0  0  0  0  0  0  0
  186.9910  177.8450  136.4470 C   0  0  0  0  0  0  0  0  0  0  0  0
  185.5960  177.7770  138.4410 C   0  0  0  0  0  0  0  0  0  0  0  0
  182.3030  176.1140  139.5090 C   0  0  0  0  0  2  0  0  0  0  0  0
  181.9900  174.1110  134.5770 N   0  0  0  0  0  1  0  0  0  0  0  0
  184.1300  174.2750  135.7320 C   0  0  0  0  0  0  0  0  0  0  0  0
  182.8340  176.8060  137.1180 C   0  0  0  0  0  2  0  0  0  0  0  0
  182.8630  174.9950  135.3400 C   0  0  2  0  0  3  0  0  0  0  0  0
  181.2220  175.2270  138.8710 C   0  0  0  0  0  2  0  0  0  0  0  0
  186.7290  176.3780  134.4250 C   0  0  0  0  0  2  0  0  0  0  0  0
  183.3980  176.5350  138.5220 C   0  0  1  0  0  3  0  0  0  0  0  0
  188.1240  178.0540  137.2510 C   0  0  0  0  0  0  0  0  0  0  0  0
  182.1020  175.5860  136.5400 C   0  0  1  0  0  3  0  0  0  0  0  0
  186.7270  178.0110  139.2380 C   0  0  0  0  0  3  0  0  0  0  0  0
  186.3330  178.7510  134.3460 O   0  0  0  0  0  1  0  0  0  0  0  0
  185.3980  176.0580  134.7300 O   0  0  0  0  0  0  0  0  0  0  0  0
  189.3850  178.1820  136.6800 O   0  0  0  0  0  1  0  0  0  0  0  0
  184.2410  177.6920  139.0810 C   0  0  2  0  0  3  0  0  0  0  0  0
  185.4850  174.8500  135.4410 C   0  0  0  0  0  2  0  0  0  0  0  0
  187.1090  177.7620  134.9550 C   0  0  1  0  0  3  0  0  0  0  0  0
  185.7370  177.7220  137.0510 C   0  0  0  0  0  3  0  0  0  0  0  0
  187.9860  178.1430  138.6420 C   0  0  0  0  0  3  0  0  0  0  0  0
  182.3490  179.3650  138.0410 O   0  0  0  0  0  0  0  0  0  0  0  0
  183.4120  179.2930  139.0990 S   0  0  0  0  0  0  0  0  0  0  0  0
  184.4040  180.3970  138.8560 O   0  0  0  0  0  0  0  0  0  0  0  0
  182.6580  179.5530  140.6940 C   0  0  0  0  0  2  0  0  0  0  0  0
  185.2800  178.4580  143.2730 C   0  0  0  0  0  2  0  0  0  0  0  0
  183.2870  178.6800  141.7730 C   0  0  2  0  0  3  0  0  0  0  0  0
  182.4540  178.7120  143.0360 C   0  0  0  0  0  3  0  0  0  0  0  0
  182.9900  178.7750  144.2680 C   0  0  0  0  0  3  0  0  0  0  0  0
  184.4750  178.9080  144.4930 C   0  0  0  0  0  2  0  0  0  0  0  0
  184.7280  179.1370  142.0250 C   0  0  0  0  0  2  0  0  0  0  0  0
  1 10  1  0  0  0  0
  3 22  2  0  0  0  0
  3 13  1  0  0  0  0
  4 19  1  0  0  0  0
  4 15  2  0  0  0  0
  7  2  2  0  0  0  0
  9  6  1  1  0  0  0
  9  7  1  0  0  0  0
  9 14  1  0  0  0  0
 10  5  1  0  0  0  0
 11 17  1  0  0  0  0
 11 21  1  0  0  0  0
 12  8  1  6  0  0  0
 12 19  1  0  0  0  0
 12  5  1  0  0  0  0
 13 23  2  0  0  0  0
 14  8  1  1  0  0  0
 14  1  1  0  0  0  0
 17 20  1  0  0  0  0
 18 13  1  0  0  0  0
 19 25  1  6  0  0  0
 20  7  1  0  0  0  0
 21 16  1  6  0  0  0
 21  3  1  0  0  0  0
 22  4  1  0  0  0  0
 23 15  1  0  0  0  0
 24 25  2  0  0  0  0
 25 27  1  0  0  0  0
 26 25  2  0  0  0  0
 28 32  1  0  0  0  0
 29 27  1  6  0  0  0
 29 33  1  0  0  0  0
 29 30  1  0  0  0  0
 30 31  2  0  0  0  0
 31 32  1  0  0  0  0
 33 28  1  0  0  0  0
M  END
>  <MODEL>
3

>  <REMARK>
 VINA RESULT:      -6.7      4.232      6.774
  Name = 
  3 active torsions:
  status: ('A' for Active; 'I' for Inactive)
    1  A    between atoms: C_3  and  C_31
    2  A    between atoms: S_7  and  C_27
    3  A    between atoms: S_7  and  C_31
                            x       y       z     vdW  Elec       q    Type
                         _______ _______ _______ _____ _____    ______ ____

>  <TORSDO>
F 3

$$$$
=
 OpenBabel10232411133D

 33 36  0  0  1  0  0  0  0  0999 V2000
  185.5030  177.2760  135.6680 C   0  0  0  0  0  2  0  0  0  0  0  0
  187.1790  179.5910  136.5680 O   0  0  0  0  0  0  0  0  0  0  0  0
  191.3310  176.2500  137.9200 C   0  0  0  0  0  0  0  0  0  0  0  0
  190.2270  175.3180  135.9600 C   0  0  0  0  0  0  0  0  0  0  0  0
  186.7460  175.4960  134.3470 C   0  0  0  0  0  2  0  0  0  0  0  0
  185.2710  178.5900  138.4320 N   0  0  0  0  0  1  0  0  0  0  0  0
  187.4890  178.7910  137.4410 C   0  0  0  0  0  0  0  0  0  0  0  0
  187.1630  175.7010  136.8490 C   0  0  0  0  0  2  0  0  0  0  0  0
  186.4490  177.8490  137.9960 C   0  0  2  0  0  3  0  0  0  0  0  0
  185.3850  176.1390  134.6560 C   0  0  0  0  0  2  0  0  0  0  0  0
  190.4100  178.0630  139.3960 C   0  0  0  0  0  2  0  0  0  0  0  0
  187.7890  175.7320  135.4450 C   0  0  1  0  0  3  0  0  0  0  0  0
  192.5630  176.1920  137.2490 C   0  0  0  0  0  0  0  0  0  0  0  0
  186.0440  176.7390  137.0100 C   0  0  1  0  0  3  0  0  0  0  0  0
  191.4640  175.2390  135.3040 C   0  0  0  0  0  3  0  0  0  0  0  0
  190.7160  175.8060  140.1770 O   0  0  0  0  0  1  0  0  0  0  0  0
  189.0910  177.8500  138.9710 O   0  0  0  0  0  0  0  0  0  0  0  0
  193.7290  176.6300  137.8670 O   0  0  0  0  0  1  0  0  0  0  0  0
  188.9940  174.7910  135.2860 C   0  0  2  0  0  3  0  0  0  0  0  0
  188.9070  178.7760  137.9300 C   0  0  0  0  0  2  0  0  0  0  0  0
  191.2380  176.7780  139.3200 C   0  0  1  0  0  3  0  0  0  0  0  0
  190.1770  175.8000  137.2720 C   0  0  0  0  0  3  0  0  0  0  0  0
  192.6260  175.6800  135.9470 C   0  0  0  0  0  3  0  0  0  0  0  0
  188.5210  172.9160  137.2150 O   0  0  0  0  0  0  0  0  0  0  0  0
  188.6750  173.0730  135.7290 S   0  0  0  0  0  0  0  0  0  0  0  0
  189.8080  172.1970  135.2700 O   0  0  0  0  0  0  0  0  0  0  0  0
  187.1770  172.5220  134.9320 C   0  0  0  0  0  2  0  0  0  0  0  0
  183.9970  172.0010  137.0150 C   0  0  0  0  0  2  0  0  0  0  0  0
  186.2350  171.8250  135.9060 C   0  0  2  0  0  3  0  0  0  0  0  0
  185.7420  170.5170  135.3250 C   0  0  0  0  0  3  0  0  0  0  0  0
  184.4720  170.0920  135.4450 C   0  0  0  0  0  3  0  0  0  0  0  0
  183.4020  170.9290  136.1000 C   0  0  0  0  0  2  0  0  0  0  0  0
  185.0790  172.7660  136.2610 C   0  0  0  0  0  2  0  0  0  0  0  0
  2  7  2  0  0  0  0
  3 21  1  0  0  0  0
  4 22  2  0  0  0  0
  5 10  1  0  0  0  0
  7 20  1  0  0  0  0
  7  9  1  0  0  0  0
  8 14  1  0  0  0  0
  9  6  1  6  0  0  0
 10  1  1  0  0  0  0
 12  5  1  6  0  0  0
 12  8  1  0  0  0  0
 13 18  1  0  0  0  0
 13  3  2  0  0  0  0
 14  1  1  6  0  0  0
 14  9  1  0  0  0  0
 15 23  2  0  0  0  0
 15  4  1  0  0  0  0
 17 11  1  0  0  0  0
 19 12  1  0  0  0  0
 19 25  1  1  0  0  0
 19  4  1  0  0  0  0
 20 17  1  0  0  0  0
 21 11  1  0  0  0  0
 21 16  1  1  0  0  0
 22  3  1  0  0  0  0
 23 13  1  0  0  0  0
 25 24  2  0  0  0  0
 26 25  2  0  0  0  0
 27 25  1  0  0  0  0
 29 27  1  6  0  0  0
 29 33  1  0  0  0  0
 30 31  2  0  0  0  0
 30 29  1  0  0  0  0
 31 32  1  0  0  0  0
 32 28  1  0  0  0  0
 33 28  1  0  0  0  0
M  END
>  <MODEL>
4

>  <REMARK>
 VINA RESULT:      -6.4      3.257      7.230
  Name = 
  3 active torsions:
  status: ('A' for Active; 'I' for Inactive)
    1  A    between atoms: C_3  and  C_31
    2  A    between atoms: S_7  and  C_27
    3  A    between atoms: S_7  and  C_31
                            x       y       z     vdW  Elec       q    Type
                         _______ _______ _______ _____ _____    ______ ____

>  <TORSDO>
F 3

$$$$
=
 OpenBabel10232411133D

 33 36  0  0  1  0  0  0  0  0999 V2000
  193.5380  174.8850  137.1870 C   0  0  0  0  0  2  0  0  0  0  0  0
  192.5780  174.7450  134.3520 O   0  0  0  0  0  0  0  0  0  0  0  0
  187.5520  176.4270  135.8160 C   0  0  0  0  0  0  0  0  0  0  0  0
  189.1660  177.5530  137.2490 C   0  0  0  0  0  0  0  0  0  0  0  0
  192.7430  176.9150  138.4950 C   0  0  0  0  0  2  0  0  0  0  0  0
  192.5970  172.3040  135.8200 N   0  0  0  0  0  1  0  0  0  0  0  0
  191.5740  174.3180  134.9060 C   0  0  0  0  0  0  0  0  0  0  0  0
  191.0810  175.0680  137.9400 C   0  0  0  0  0  2  0  0  0  0  0  0
  191.7080  173.4210  136.1130 C   0  0  2  0  0  3  0  0  0  0  0  0
  193.8070  175.8120  138.3700 C   0  0  0  0  0  2  0  0  0  0  0  0
  188.0300  174.4450  134.3470 C   0  0  0  0  0  2  0  0  0  0  0  0
  191.4220  176.5600  137.8010 C   0  0  1  0  0  3  0  0  0  0  0  0
  186.9930  177.6700  135.4760 C   0  0  0  0  0  0  0  0  0  0  0  0
  192.1860  174.1640  137.3730 C   0  0  1  0  0  3  0  0  0  0  0  0
  188.5880  178.7890  136.9260 C   0  0  0  0  0  3  0  0  0  0  0  0
  186.5760  174.3010  136.2600 O   0  0  0  0  0  1  0  0  0  0  0  0
  189.1830  174.0910  135.0630 O   0  0  0  0  0  0  0  0  0  0  0  0
  185.9240  177.7470  134.5900 O   0  0  0  0  0  1  0  0  0  0  0  0
  190.2870  177.4960  138.2460 C   0  0  2  0  0  3  0  0  0  0  0  0
  190.2320  174.7070  134.3600 C   0  0  0  0  0  2  0  0  0  0  0  0
  187.0100  175.1530  135.2410 C   0  0  1  0  0  3  0  0  0  0  0  0
  188.6250  176.3820  136.7100 C   0  0  0  0  0  3  0  0  0  0  0  0
  187.5080  178.8450  136.0380 C   0  0  0  0  0  3  0  0  0  0  0  0
  189.0290  175.8530  140.0300 O   0  0  0  0  0  0  0  0  0  0  0  0
  189.6780  177.2040  139.9170 S   0  0  0  0  0  0  0  0  0  0  0  0
  188.6670  178.2520  140.2950 O   0  0  0  0  0  0  0  0  0  0  0  0
  191.0370  177.2900  141.0690 C   0  0  0  0  0  2  0  0  0  0  0  0
  191.3070  176.2630  144.7560 C   0  0  0  0  0  2  0  0  0  0  0  0
  190.5790  177.0940  142.5080 C   0  0  2  0  0  3  0  0  0  0  0  0
  190.3480  178.4310  143.1800 C   0  0  0  0  0  3  0  0  0  0  0  0
  190.7120  178.6880  144.4480 C   0  0  0  0  0  3  0  0  0  0  0  0
  191.4640  177.6870  145.2890 C   0  0  0  0  0  2  0  0  0  0  0  0
  191.6100  176.2450  143.2620 C   0  0  0  0  0  2  0  0  0  0  0  0
  1 10  1  0  0  0  0
  2  7  2  0  0  0  0
  3 22  1  0  0  0  0
  4 19  1  0  0  0  0
  7  9  1  0  0  0  0
  9  6  1  6  0  0  0
  9 14  1  0  0  0  0
 10  5  1  0  0  0  0
 11 17  1  0  0  0  0
 11 21  1  0  0  0  0
 12  8  1  1  0  0  0
 12 19  1  0  0  0  0
 12  5  1  0  0  0  0
 13  3  2  0  0  0  0
 13 23  1  0  0  0  0
 14  1  1  6  0  0  0
 14  8  1  0  0  0  0
 15  4  1  0  0  0  0
 18 13  1  0  0  0  0
 19 25  1  1  0  0  0
 20  7  1  0  0  0  0
 20 17  1  0  0  0  0
 21  3  1  0  0  0  0
 21 16  1  1  0  0  0
 22  4  2  0  0  0  0
 23 15  2  0  0  0  0
 25 24  2  0  0  0  0
 25 26  2  0  0  0  0
 25 27  1  0  0  0  0
 28 32  1  0  0  0  0
 29 27  1  6  0  0  0
 29 30  1  0  0  0  0
 29 33  1  0  0  0  0
 30 31  2  0  0  0  0
 31 32  1  0  0  0  0
 33 28  1  0  0  0  0
M  END
>  <MODEL>
5

>  <REMARK>
 VINA RESULT:      -5.9      1.710      1.966
  Name = 
  3 active torsions:
  status: ('A' for Active; 'I' for Inactive)
    1  A    between atoms: C_3  and  C_31
    2  A    between atoms: S_7  and  C_27
    3  A    between atoms: S_7  and  C_31
                            x       y       z     vdW  Elec       q    Type
                         _______ _______ _______ _____ _____    ______ ____

>  <TORSDO>
F 3

$$$$
=
 OpenBabel10232411133D

 33 36  0  0  1  0  0  0  0  0999 V2000
  189.7960  177.6450  137.0060 C   0  0  0  0  0  2  0  0  0  0  0  0
  189.6130  175.4200  135.0080 O   0  0  0  0  0  0  0  0  0  0  0  0
  184.3720  174.4460  136.3540 C   0  0  0  0  0  0  0  0  0  0  0  0
  184.7600  176.8430  136.5370 C   0  0  0  0  0  0  0  0  0  0  0  0
  187.7630  179.1660  137.1140 C   0  0  0  0  0  2  0  0  0  0  0  0
  190.7710  174.7830  137.5320 N   0  0  0  0  0  1  0  0  0  0  0  0
  188.9580  174.9110  135.9080 C   0  0  0  0  0  0  0  0  0  0  0  0
  187.5960  176.8040  138.0460 C   0  0  0  0  0  2  0  0  0  0  0  0
  189.3670  175.1260  137.3450 C   0  0  2  0  0  3  0  0  0  0  0  0
  189.2690  179.0250  137.3900 C   0  0  0  0  0  2  0  0  0  0  0  0
  186.1530  172.6850  136.1590 C   0  0  0  0  0  2  0  0  0  0  0  0
  187.0350  177.8190  137.0380 C   0  0  1  0  0  3  0  0  0  0  0  0
  183.2710  174.6920  135.5170 C   0  0  0  0  0  0  0  0  0  0  0  0
  189.0980  176.5560  137.8470 C   0  0  1  0  0  3  0  0  0  0  0  0
  183.6440  177.0840  135.7210 C   0  0  0  0  0  3  0  0  0  0  0  0
  184.7350  172.8640  138.0960 O   0  0  0  0  0  1  0  0  0  0  0  0
  187.1500  173.5220  136.6800 O   0  0  0  0  0  0  0  0  0  0  0  0
  182.5290  173.6390  134.9940 O   0  0  0  0  0  1  0  0  0  0  0  0
  185.5110  178.0000  137.1280 C   0  0  2  0  0  3  0  0  0  0  0  0
  187.7590  174.0860  135.5460 C   0  0  0  0  0  2  0  0  0  0  0  0
  184.7730  173.0470  136.7120 C   0  0  1  0  0  3  0  0  0  0  0  0
  185.0960  175.5260  136.8660 C   0  0  0  0  0  3  0  0  0  0  0  0
  182.9070  176.0100  135.2100 C   0  0  0  0  0  3  0  0  0  0  0  0
  183.6420  177.6660  139.0910 O   0  0  0  0  0  0  0  0  0  0  0  0
  184.8960  178.4270  138.7680 S   0  0  0  0  0  0  0  0  0  0  0  0
  184.5960  179.8990  138.8460 O   0  0  0  0  0  0  0  0  0  0  0  0
  186.1380  178.0380  139.9880 C   0  0  0  0  0  2  0  0  0  0  0  0
  184.3110  178.8130  143.2710 C   0  0  0  0  0  2  0  0  0  0  0  0
  185.8730  178.7370  141.3150 C   0  0  2  0  0  3  0  0  0  0  0  0
  186.9620  178.4130  142.3150 C   0  0  0  0  0  3  0  0  0  0  0  0
  186.7170  178.1580  143.6120 C   0  0  0  0  0  3  0  0  0  0  0  0
  185.3160  178.0890  144.1680 C   0  0  0  0  0  2  0  0  0  0  0  0
  184.4850  178.3420  141.8320 C   0  0  0  0  0  2  0  0  0  0  0  0
  1 10  1  0  0  0  0
  2  7  2  0  0  0  0
  3 21  1  0  0  0  0
  3 22  1  0  0  0  0
  4 22  2  0  0  0  0
  4 19  1  0  0  0  0
  5 10  1  0  0  0  0
  7  9  1  0  0  0  0
  9  6  1  6  0  0  0
  9 14  1  0  0  0  0
 11 17  1  0  0  0  0
 11 21  1  0  0  0  0
 12  5  1  1  0  0  0
 12 19  1  0  0  0  0
 12  8  1  0  0  0  0
 13  3  2  0  0  0  0
 14  1  1  6  0  0  0
 14  8  1  0  0  0  0
 15  4  1  0  0  0  0
 18 13  1  0  0  0  0
 19 25  1  1  0  0  0
 20  7  1  0  0  0  0
 20 17  1  0  0  0  0
 21 16  1  1  0  0  0
 23 13  1  0  0  0  0
 23 15  2  0  0  0  0
 25 26  2  0  0  0  0
 25 24  2  0  0  0  0
 25 27  1  0  0  0  0
 28 32  1  0  0  0  0
 29 27  1  6  0  0  0
 29 33  1  0  0  0  0
 29 30  1  0  0  0  0
 30 31  2  0  0  0  0
 31 32  1  0  0  0  0
 33 28  1  0  0  0  0
M  END
>  <MODEL>
6

>  <REMARK>
 VINA RESULT:      -5.9      2.843      4.302
  Name = 
  3 active torsions:
  status: ('A' for Active; 'I' for Inactive)
    1  A    between atoms: C_3  and  C_31
    2  A    between atoms: S_7  and  C_27
    3  A    between atoms: S_7  and  C_31
                            x       y       z     vdW  Elec       q    Type
                         _______ _______ _______ _____ _____    ______ ____

>  <TORSDO>
F 3

$$$$
=
 OpenBabel10232411133D

 33 36  0  0  1  0  0  0  0  0999 V2000
  182.9450  179.1550  139.0790 C   0  0  0  0  0  2  0  0  0  0  0  0
  181.0740  177.0940  140.1890 O   0  0  0  0  0  0  0  0  0  0  0  0
  182.8390  173.3370  136.5830 C   0  0  0  0  0  0  0  0  0  0  0  0
  184.7320  174.7440  137.1880 C   0  0  0  0  0  0  0  0  0  0  0  0
  185.2740  178.3050  138.5200 C   0  0  0  0  0  2  0  0  0  0  0  0
  179.9830  178.9340  138.3070 N   0  0  0  0  0  1  0  0  0  0  0  0
  180.9680  176.8160  139.0010 C   0  0  0  0  0  0  0  0  0  0  0  0
  183.3170  177.6240  137.0420 C   0  0  0  0  0  2  0  0  0  0  0  0
  180.9730  177.9180  137.9700 C   0  0  2  0  0  3  0  0  0  0  0  0
  184.4100  179.5270  138.8710 C   0  0  0  0  0  2  0  0  0  0  0  0
  180.4250  173.8490  137.0540 C   0  0  0  0  0  2  0  0  0  0  0  0
  184.4620  177.1380  137.9440 C   0  0  1  0  0  3  0  0  0  0  0  0
  183.5860  172.1950  136.9180 C   0  0  0  0  0  0  0  0  0  0  0  0
  182.3560  178.5670  137.7790 C   0  0  1  0  0  3  0  0  0  0  0  0
  185.4820  173.5990  137.4960 C   0  0  0  0  0  3  0  0  0  0  0  0
  181.3090  173.7870  134.8150 O   0  0  0  0  0  1  0  0  0  0  0  0
  180.6660  175.2200  137.2240 O   0  0  0  0  0  0  0  0  0  0  0  0
  183.0300  170.9260  136.8010 O   0  0  0  0  0  1  0  0  0  0  0  0
  185.3740  176.0970  137.2760 C   0  0  2  0  0  3  0  0  0  0  0  0
  180.8390  175.3730  138.6100 C   0  0  0  0  0  2  0  0  0  0  0  0
  181.4300  173.2200  136.0860 C   0  0  1  0  0  3  0  0  0  0  0  0
  183.4260  174.5990  136.7100 C   0  0  0  0  0  3  0  0  0  0  0  0
  184.9060  172.3300  137.3650 C   0  0  0  0  0  3  0  0  0  0  0  0
  185.1920  177.6160  135.0130 O   0  0  0  0  0  0  0  0  0  0  0  0
  186.0720  176.6080  135.6940 S   0  0  0  0  0  0  0  0  0  0  0  0
  186.2310  175.4190  134.7860 O   0  0  0  0  0  0  0  0  0  0  0  0
  187.6810  177.3320  135.9610 C   0  0  0  0  0  2  0  0  0  0  0  0
  190.8410  175.5360  137.1890 C   0  0  0  0  0  2  0  0  0  0  0  0
  188.5430  176.4840  136.8870 C   0  0  2  0  0  3  0  0  0  0  0  0
  188.7600  177.1900  138.2070 C   0  0  0  0  0  3  0  0  0  0  0  0
  189.9400  177.1960  138.8520 C   0  0  0  0  0  3  0  0  0  0  0  0
  191.1790  176.5660  138.2680 C   0  0  0  0  0  2  0  0  0  0  0  0
  189.8670  176.1510  136.1900 C   0  0  0  0  0  2  0  0  0  0  0  0
  3 22  2  0  0  0  0
  3 13  1  0  0  0  0
  4 19  1  0  0  0  0
  4 15  2  0  0  0  0
  5 10  1  0  0  0  0
  7  2  2  0  0  0  0
  9  6  1  1  0  0  0
  9  7  1  0  0  0  0
 10  1  1  0  0  0  0
 11 17  1  0  0  0  0
 12  8  1  6  0  0  0
 12  5  1  0  0  0  0
 13 23  2  0  0  0  0
 14  8  1  1  0  0  0
 14  9  1  0  0  0  0
 14  1  1  0  0  0  0
 17 20  1  0  0  0  0
 18 13  1  0  0  0  0
 19 25  1  6  0  0  0
 19 12  1  0  0  0  0
 20  7  1  0  0  0  0
 21 16  1  6  0  0  0
 21  3  1  0  0  0  0
 21 11  1  0  0  0  0
 22  4  1  0  0  0  0
 23 15  1  0  0  0  0
 24 25  2  0  0  0  0
 25 27  1  0  0  0  0
 26 25  2  0  0  0  0
 28 32  1  0  0  0  0
 29 27  1  6  0  0  0
 29 30  1  0  0  0  0
 30 31  2  0  0  0  0
 32 31  1  0  0  0  0
 33 29  1  0  0  0  0
 33 28  1  0  0  0  0
M  END
>  <MODEL>
7

>  <REMARK>
 VINA RESULT:      -5.7      4.755      8.196
  Name = 
  3 active torsions:
  status: ('A' for Active; 'I' for Inactive)
    1  A    between atoms: C_3  and  C_31
    2  A    between atoms: S_7  and  C_27
    3  A    between atoms: S_7  and  C_31
                            x       y       z     vdW  Elec       q    Type
                         _______ _______ _______ _____ _____    ______ ____

>  <TORSDO>
F 3

$$$$
=
 OpenBabel10232411133D

 33 36  0  0  1  0  0  0  0  0999 V2000
  190.2770  177.0410  140.8240 C   0  0  0  0  0  2  0  0  0  0  0  0
  187.9110  176.7840  142.6430 O   0  0  0  0  0  0  0  0  0  0  0  0
  184.4650  178.2090  138.6020 C   0  0  0  0  0  0  0  0  0  0  0  0
  186.2850  176.9260  137.6180 C   0  0  0  0  0  0  0  0  0  0  0  0
  189.9390  176.1190  138.4800 C   0  0  0  0  0  2  0  0  0  0  0  0
  189.3660  179.2300  142.7720 N   0  0  0  0  0  1  0  0  0  0  0  0
  187.5570  177.7790  142.0230 C   0  0  0  0  0  0  0  0  0  0  0  0
  188.7680  178.2780  139.1430 C   0  0  0  0  0  2  0  0  0  0  0  0
  188.5810  178.8120  141.6180 C   0  0  2  0  0  3  0  0  0  0  0  0
  190.9560  176.4910  139.5720 C   0  0  0  0  0  2  0  0  0  0  0  0
  184.4510  179.1950  140.9130 C   0  0  0  0  0  2  0  0  0  0  0  0
  188.5950  176.8380  138.6370 C   0  0  1  0  0  3  0  0  0  0  0  0
  183.5350  177.3440  138.0000 C   0  0  0  0  0  0  0  0  0  0  0  0
  189.5100  178.3370  140.4860 C   0  0  1  0  0  3  0  0  0  0  0  0
  185.3520  176.0810  136.9980 C   0  0  0  0  0  3  0  0  0  0  0  0
  184.4750  180.5660  138.9340 O   0  0  0  0  0  1  0  0  0  0  0  0
  185.8480  179.1510  141.0280 O   0  0  0  0  0  0  0  0  0  0  0  0
  182.1700  177.5300  138.1890 O   0  0  0  0  0  1  0  0  0  0  0  0
  187.7500  176.7320  137.3570 C   0  0  2  0  0  3  0  0  0  0  0  0
  186.1040  177.9340  141.6830 C   0  0  0  0  0  2  0  0  0  0  0  0
  184.0130  179.3560  139.4550 C   0  0  1  0  0  3  0  0  0  0  0  0
  185.8300  177.9970  138.3930 C   0  0  0  0  0  3  0  0  0  0  0  0
  183.9820  176.2890  137.1950 C   0  0  0  0  0  3  0  0  0  0  0  0
  189.2890  178.8020  136.4580 O   0  0  0  0  0  0  0  0  0  0  0  0
  188.3240  177.7530  135.9860 S   0  0  0  0  0  0  0  0  0  0  0  0
  187.1590  178.4380  135.3230 O   0  0  0  0  0  0  0  0  0  0  0  0
  189.1350  176.7230  134.7770 C   0  0  0  0  0  2  0  0  0  0  0  0
  188.8920  172.8950  134.8920 C   0  0  0  0  0  2  0  0  0  0  0  0
  189.3870  175.3160  135.3030 C   0  0  2  0  0  3  0  0  0  0  0  0
  190.8480  174.9470  135.1580 C   0  0  0  0  0  3  0  0  0  0  0  0
  191.2630  173.7300  134.7630 C   0  0  0  0  0  3  0  0  0  0  0  0
  190.2990  172.6470  134.3460 C   0  0  0  0  0  2  0  0  0  0  0  0
  188.4720  174.3260  134.5740 C   0  0  0  0  0  2  0  0  0  0  0  0
  3 21  1  0  0  0  0
  4 22  2  0  0  0  0
  5 10  1  0  0  0  0
  7  2  2  0  0  0  0
  9  7  1  0  0  0  0
  9  6  1  1  0  0  0
 10  1  1  0  0  0  0
 11 17  1  0  0  0  0
 12  5  1  6  0  0  0
 12  8  1  0  0  0  0
 13 18  1  0  0  0  0
 13  3  2  0  0  0  0
 14  8  1  6  0  0  0
 14  1  1  0  0  0  0
 14  9  1  0  0  0  0
 15 23  2  0  0  0  0
 15  4  1  0  0  0  0
 17 20  1  0  0  0  0
 19 25  1  6  0  0  0
 19  4  1  0  0  0  0
 19 12  1  0  0  0  0
 20  7  1  0  0  0  0
 21 16  1  6  0  0  0
 21 11  1  0  0  0  0
 22  3  1  0  0  0  0
 23 13  1  0  0  0  0
 25 24  2  0  0  0  0
 26 25  2  0  0  0  0
 27 25  1  0  0  0  0
 29 27  1  6  0  0  0
 30 29  1  0  0  0  0
 31 30  2  0  0  0  0
 32 31  1  0  0  0  0
 32 28  1  0  0  0  0
 33 28  1  0  0  0  0
 33 29  1  0  0  0  0
M  END
>  <MODEL>
8

>  <REMARK>
 VINA RESULT:      -5.7      3.118      6.877
  Name = 
  3 active torsions:
  status: ('A' for Active; 'I' for Inactive)
    1  A    between atoms: C_3  and  C_31
    2  A    between atoms: S_7  and  C_27
    3  A    between atoms: S_7  and  C_31
                            x       y       z     vdW  Elec       q    Type
                         _______ _______ _______ _____ _____    ______ ____

>  <TORSDO>
F 3

$$$$
=
 OpenBabel10232411133D

 33 36  0  0  1  0  0  0  0  0999 V2000
  188.6580  176.2720  136.9970 C   0  0  0  0  0  2  0  0  0  0  0  0
  188.2530  177.4320  139.7290 O   0  0  0  0  0  0  0  0  0  0  0  0
  182.8080  177.6420  138.9940 C   0  0  0  0  0  0  0  0  0  0  0  0
  183.6440  175.6640  137.8470 C   0  0  0  0  0  0  0  0  0  0  0  0
  186.9690  174.4970  136.3190 C   0  0  0  0  0  2  0  0  0  0  0  0
  188.9790  179.2510  137.6600 N   0  0  0  0  0  1  0  0  0  0  0  0
  187.4160  178.0900  139.1260 C   0  0  0  0  0  0  0  0  0  0  0  0
  186.2330  176.9310  136.4300 C   0  0  0  0  0  2  0  0  0  0  0  0
  187.7000  178.5540  137.7180 C   0  0  2  0  0  3  0  0  0  0  0  0
  188.3770  175.0720  136.0960 C   0  0  0  0  0  2  0  0  0  0  0  0
  184.2130  179.5390  139.8540 C   0  0  0  0  0  2  0  0  0  0  0  0
  186.0000  175.5040  136.9490 C   0  0  1  0  0  3  0  0  0  0  0  0
  181.8760  176.8450  139.6800 C   0  0  0  0  0  0  0  0  0  0  0  0
  187.6690  177.4150  136.6840 C   0  0  1  0  0  3  0  0  0  0  0  0
  182.6940  174.8770  138.5150 C   0  0  0  0  0  3  0  0  0  0  0  0
  182.6570  179.8170  138.0390 O   0  0  0  0  0  1  0  0  0  0  0  0
  185.2940  179.2230  139.0190 O   0  0  0  0  0  0  0  0  0  0  0  0
  181.0010  177.4120  140.6000 O   0  0  0  0  0  1  0  0  0  0  0  0
  184.5420  175.0330  136.8230 C   0  0  2  0  0  3  0  0  0  0  0  0
  186.1230  178.4130  139.8150 C   0  0  0  0  0  2  0  0  0  0  0  0
  182.8800  179.1210  139.2280 C   0  0  1  0  0  3  0  0  0  0  0  0
  183.6730  177.0430  138.0750 C   0  0  0  0  0  3  0  0  0  0  0  0
  181.8180  175.4680  139.4320 C   0  0  0  0  0  3  0  0  0  0  0  0
  184.5760  176.1870  134.3470 O   0  0  0  0  0  0  0  0  0  0  0  0
  183.8490  175.1560  135.1630 S   0  0  0  0  0  0  0  0  0  0  0  0
  182.3950  175.5370  135.2310 O   0  0  0  0  0  0  0  0  0  0  0  0
  183.9810  173.5760  134.3460 C   0  0  0  0  0  2  0  0  0  0  0  0
  183.0680  170.6070  136.5990 C   0  0  0  0  0  2  0  0  0  0  0  0
  184.2140  172.4400  135.3340 C   0  0  2  0  0  3  0  0  0  0  0  0
  185.0590  171.3530  134.7060 C   0  0  0  0  0  3  0  0  0  0  0  0
  184.8200  170.0420  134.8840 C   0  0  0  0  0  3  0  0  0  0  0  0
  183.6290  169.5380  135.6600 C   0  0  0  0  0  2  0  0  0  0  0  0
  182.8640  171.9040  135.8250 C   0  0  0  0  0  2  0  0  0  0  0  0
  3 21  1  0  0  0  0
  3 13  1  0  0  0  0
  4 22  1  0  0  0  0
  4 15  2  0  0  0  0
  7  2  2  0  0  0  0
  7 20  1  0  0  0  0
  8 12  1  0  0  0  0
  9  6  1  1  0  0  0
  9  7  1  0  0  0  0
 10  5  1  0  0  0  0
 10  1  1  0  0  0  0
 12  5  1  6  0  0  0
 13 18  1  0  0  0  0
 14  8  1  1  0  0  0
 14  1  1  0  0  0  0
 14  9  1  0  0  0  0
 15 23  1  0  0  0  0
 17 20  1  0  0  0  0
 17 11  1  0  0  0  0
 19 25  1  6  0  0  0
 19 12  1  0  0  0  0
 19  4  1  0  0  0  0
 21 16  1  6  0  0  0
 21 11  1  0  0  0  0
 22  3  2  0  0  0  0
 23 13  2  0  0  0  0
 24 25  2  0  0  0  0
 25 26  2  0  0  0  0
 27 25  1  0  0  0  0
 29 27  1  6  0  0  0
 29 33  1  0  0  0  0
 30 31  2  0  0  0  0
 30 29  1  0  0  0  0
 31 32  1  0  0  0  0
 32 28  1  0  0  0  0
 33 28  1  0  0  0  0
M  END
>  <MODEL>
9

>  <REMARK>
 VINA RESULT:      -5.6      4.263      7.885
  Name = 
  3 active torsions:
  status: ('A' for Active; 'I' for Inactive)
    1  A    between atoms: C_3  and  C_31
    2  A    between atoms: S_7  and  C_27
    3  A    between atoms: S_7  and  C_31
                            x       y       z     vdW  Elec       q    Type
                         _______ _______ _______ _____ _____    ______ ____

>  <TORSDO>
F 3

$$$$
