=
 OpenBabel10232410073D

 65 72  0  0  1  0  0  0  0  0999 V2000
  192.2610  177.2680  140.3930 C   0  0  0  0  0  0  0  0  0  0  0  0
  190.1910  176.4580  135.8600 C   0  0  0  0  0  3  0  0  0  0  0  0
  193.2270  176.6960  139.5080 N   0  0  0  0  0  2  0  0  0  0  0  0
  192.8650  176.3450  138.1970 N   0  0  0  0  0  0  0  0  0  0  0  0
  192.5940  177.5070  141.6630 C   0  0  0  0  0  3  0  0  0  0  0  0
  191.3200  176.1430  136.4200 N   0  0  0  0  0  0  0  0  0  0  0  0
  189.2450  177.3850  138.0490 C   0  0  1  0  0  3  0  0  0  0  0  0
  189.1920  177.3810  136.5100 C   0  0  2  0  0  3  0  0  0  0  0  0
  191.6690  176.5740  137.7400 C   0  0  0  0  0  0  0  0  0  0  0  0
  190.6390  177.2180  138.5920 C   0  0  0  0  0  0  0  0  0  0  0  0
  190.9110  177.5170  139.8650 C   0  0  0  0  0  3  0  0  0  0  0  0
  186.7250  176.7240  135.7440 C   0  0  0  0  0  0  0  0  0  0  0  0
  187.8430  177.0260  136.0710 C   0  0  0  0  0  0  0  0  0  0  0  0
  185.6550  174.1790  136.2930 N   0  0  0  0  0  2  0  0  0  0  0  0
  185.4140  176.3700  135.3970 N   0  0  0  0  0  0  0  0  0  0  0  0
  184.8930  175.2030  135.6270 C   0  0  0  0  0  0  0  0  0  0  0  0
  185.2790  172.7670  136.4480 C   0  0  1  0  0  3  0  0  0  0  0  0
  183.1930  171.5400  136.9510 C   0  0  0  0  0  2  0  0  0  0  0  0
  182.5100  170.5180  136.0750 C   0  0  0  0  0  2  0  0  0  0  0  0
  183.3340  170.4500  134.8130 C   0  0  0  0  0  2  0  0  0  0  0  0
  183.8610  172.5200  136.0120 C   0  0  2  0  0  3  0  0  0  0  0  0
  186.0690  171.8280  135.5490 C   0  0  1  0  0  3  0  0  0  0  0  0
  185.3660  171.6450  134.3510 O   0  0  0  0  0  0  0  0  0  0  0  0
  184.0010  171.8040  134.6760 C   0  0  1  0  0  3  0  0  0  0  0  0
  190.7550  170.0530  134.3730 C   0  0  0  0  0  3  0  0  0  0  0  0
  189.5120  173.3240  135.0110 N   0  0  0  0  0  0  0  0  0  0  0  0
  188.4030  170.0180  134.8800 N   0  0  0  0  0  0  0  0  0  0  0  0
  190.7820  171.4090  134.5270 N   0  0  0  0  0  0  0  0  0  0  0  0
  188.1000  173.5760  135.3360 C   0  0  0  0  0  2  0  0  0  0  0  0
  189.6310  172.0510  134.8530 C   0  0  0  0  0  0  0  0  0  0  0  0
  188.4680  171.3670  135.0180 C   0  0  0  0  0  0  0  0  0  0  0  0
  187.4970  172.2010  135.3100 C   0  0  0  0  0  0  0  0  0  0  0  0
  189.5460  169.3440  134.5520 C   0  0  0  0  0  3  0  0  0  0  0  0
  183.5880  174.9290  135.2080 O   0  0  0  0  0  0  0  0  0  0  0  0
  181.9320  176.9890  134.3500 O   0  0  0  0  0  0  0  0  0  0  0  0
  180.8690  174.9370  135.8640 O   0  0  0  0  0  1  0  0  0  0  0  0
  182.2350  175.9110  135.6170 P   0  0  0  0  0  0  0  0  0  0  0  0
  182.5330  176.6920  136.8770 O   0  0  0  0  0  1  0  0  0  0  0  0
  191.6490  178.0820  142.6750 C   0  0  0  0  0  2  0  0  0  0  0  0
  190.7230  177.0150  143.2450 C   0  0  0  0  0  2  0  0  0  0  0  0
  189.3340  177.4420  143.1660 N   0  0  0  0  0  2  0  0  0  0  0  0
  188.5440  176.5240  143.9750 C   0  0  0  0  0  2  0  0  0  0  0  0
  186.5470  177.7740  144.7480 C   0  0  0  0  0  0  0  0  0  0  0  0
  189.5720  176.7610  146.7210 C   0  0  0  0  0  1  0  0  0  0  0  0
  187.5480  178.0200  147.4380 C   0  0  0  0  0  2  0  0  0  0  0  0
  185.8710  179.7030  147.6970 O   0  0  0  0  0  0  0  0  0  0  0  0
  186.3990  178.8310  146.9550 C   0  0  0  0  0  0  0  0  0  0  0  0
  187.7800  177.2950  145.0150 C   0  0  0  0  0  0  0  0  0  0  0  0
  185.8990  178.6120  145.6720 O   0  0  0  0  0  0  0  0  0  0  0  0
  188.4980  177.7420  146.2750 C   0  0  2  0  0  3  0  0  0  0  0  0
  185.8770  177.4880  143.4270 C   0  0  0  0  0  2  0  0  0  0  0  0
  184.5990  178.2540  143.2610 C   0  0  0  0  0  0  0  0  0  0  0  0
  182.5690  178.9920  141.8480 C   0  0  2  0  0  3  0  0  0  0  0  0
  183.9960  178.3910  141.8660 C   0  0  0  0  0  2  0  0  0  0  0  0
  181.8500  178.8790  143.1940 C   0  0  0  0  0  2  0  0  0  0  0  0
  184.0090  178.7670  144.3560 C   0  0  0  0  0  3  0  0  0  0  0  0
  182.7180  179.5220  144.2630 C   0  0  0  0  0  2  0  0  0  0  0  0
  181.7480  178.3610  140.7220 C   0  0  0  0  0  3  0  0  0  0  0  0
  181.8300  179.1330  139.5550 O   0  0  0  0  0  1  0  0  0  0  0  0
  182.1890  177.0590  140.4550 O   0  0  0  0  0  1  0  0  0  0  0  0
  188.5800  178.5400  138.5880 O   0  0  0  0  0  0  0  0  0  0  0  0
  187.4690  178.5630  140.7010 C   0  0  0  0  0  2  0  0  0  0  0  0
  187.4140  178.5150  139.3740 C   0  0  0  0  0  0  0  0  0  0  0  0
  186.1760  178.4320  138.7320 O   0  0  0  0  0  0  0  0  0  0  0  0
  185.2570  179.4070  138.8470 O   0  0  0  0  0  1  0  0  0  0  0  0
  1  5  2  0  0  0  0
  2  6  2  0  0  0  0
  2  8  1  0  0  0  0
  3  1  1  0  0  0  0
  4  3  1  0  0  0  0
  5 39  1  0  0  0  0
  6  9  1  0  0  0  0
  7 61  1  6  0  0  0
  7 10  1  0  0  0  0
  8 13  1  1  0  0  0
  8  7  1  0  0  0  0
  9  4  2  0  0  0  0
  9 10  1  0  0  0  0
 10 11  2  0  0  0  0
 11  1  1  0  0  0  0
 12 13  3  0  0  0  0
 15 16  2  0  0  0  0
 15 12  1  0  0  0  0
 16 14  1  0  0  0  0
 17 14  1  6  0  0  0
 19 18  1  0  0  0  0
 20 19  1  0  0  0  0
 21 17  1  0  0  0  0
 21 18  1  1  0  0  0
 22 32  1  6  0  0  0
 22 17  1  0  0  0  0
 23 24  1  0  0  0  0
 23 22  1  0  0  0  0
 24 20  1  1  0  0  0
 24 21  1  0  0  0  0
 25 28  2  0  0  0  0
 25 33  1  0  0  0  0
 26 29  1  0  0  0  0
 27 31  1  0  0  0  0
 28 30  1  0  0  0  0
 30 26  2  0  0  0  0
 30 31  1  0  0  0  0
 31 32  2  0  0  0  0
 32 29  1  0  0  0  0
 33 27  2  0  0  0  0
 34 37  1  0  0  0  0
 34 16  1  0  0  0  0
 35 37  2  0  0  0  0
 37 36  1  0  0  0  0
 37 38  1  0  0  0  0
 39 40  1  0  0  0  0
 41 40  1  0  0  0  0
 41 42  1  0  0  0  0
 42 48  1  0  0  0  0
 43 48  2  0  0  0  0
 43 49  1  0  0  0  0
 47 45  1  0  0  0  0
 47 46  2  0  0  0  0
 48 50  1  0  0  0  0
 49 47  1  0  0  0  0
 50 44  1  1  0  0  0
 50 45  1  0  0  0  0
 51 43  1  0  0  0  0
 52 51  1  0  0  0  0
 52 56  2  0  0  0  0
 53 58  1  6  0  0  0
 53 54  1  0  0  0  0
 53 55  1  0  0  0  0
 54 52  1  0  0  0  0
 55 57  1  0  0  0  0
 57 56  1  0  0  0  0
 59 58  1  0  0  0  0
 60 58  1  0  0  0  0
 61 63  1  0  0  0  0
 63 62  2  0  0  0  0
 64 65  1  0  0  0  0
 64 63  1  0  0  0  0
M  END
>  <MODEL>
1

>  <REMARK>
 VINA RESULT:      -8.3      0.000      0.000
  Name = 
  17 active torsions:
  status: ('A' for Active; 'I' for Inactive)
    1  A    between atoms: C_2  and  C_19
    2  A    between atoms: C_3  and  N_15
    3  A    between atoms: C_5  and  C_19
    4  A    between atoms: C_6  and  C_9
    5  A    between atoms: C_7  and  N_30
    6  A    between atoms: O_11  and  C_42
    7  A    between atoms: C_13  and  N_28
    8  A    between atoms: C_13  and  C_53
    9  A    between atoms: O_14  and  P_27
   10  A    between atoms: O_14  and  C_59
   11  A    between atoms: O_24  and  C_42
   12  A    between atoms: O_24  and  C_46
   13  A    between atoms: N_28  and  C_29
   14  A    between atoms: C_29  and  C_40
   15  A    between atoms: C_33  and  C_53
   16  A    between atoms: C_35  and  C_50
   17  A    between atoms: C_56  and  C_63
                            x       y       z     vdW  Elec       q    Type
                         _______ _______ _______ _____ _____    ______ ____

>  <TORSDO>
F 17

$$$$
=
 OpenBabel10232410073D

 65 72  0  0  1  0  0  0  0  0999 V2000
  190.6260  175.3120  135.3690 C   0  0  0  0  0  0  0  0  0  0  0  0
  188.4160  179.1440  137.8020 C   0  0  0  0  0  3  0  0  0  0  0  0
  190.3660  176.3830  134.4600 N   0  0  0  0  0  2  0  0  0  0  0  0
  189.7150  177.5450  134.9060 N   0  0  0  0  0  0  0  0  0  0  0  0
  191.1590  174.1770  134.9110 C   0  0  0  0  0  3  0  0  0  0  0  0
  188.6610  178.8700  136.5560 N   0  0  0  0  0  0  0  0  0  0  0  0
  189.1950  176.8310  138.5700 C   0  0  1  0  0  3  0  0  0  0  0  0
  188.9490  178.3070  138.9360 C   0  0  2  0  0  3  0  0  0  0  0  0
  189.3810  177.6990  136.1530 C   0  0  0  0  0  0  0  0  0  0  0  0
  189.6770  176.6470  137.1560 C   0  0  0  0  0  0  0  0  0  0  0  0
  190.2390  175.4960  136.7750 C   0  0  0  0  0  3  0  0  0  0  0  0
  187.2410  178.4430  140.9790 C   0  0  0  0  0  0  0  0  0  0  0  0
  188.0270  178.3780  140.0700 C   0  0  0  0  0  0  0  0  0  0  0  0
  184.5120  177.8850  140.5780 N   0  0  0  0  0  2  0  0  0  0  0  0
  186.3000  178.5150  142.0150 N   0  0  0  0  0  0  0  0  0  0  0  0
  185.0340  178.2730  141.8620 C   0  0  0  0  0  0  0  0  0  0  0  0
  183.0960  177.7690  140.2050 C   0  0  1  0  0  3  0  0  0  0  0  0
  180.9630  178.6730  141.0680 C   0  0  0  0  0  2  0  0  0  0  0  0
  179.9830  179.5480  140.3240 C   0  0  0  0  0  2  0  0  0  0  0  0
  180.6070  179.7990  138.9740 C   0  0  0  0  0  2  0  0  0  0  0  0
  182.3320  179.0240  140.5310 C   0  0  2  0  0  3  0  0  0  0  0  0
  182.8730  177.6270  138.7070 C   0  0  1  0  0  3  0  0  0  0  0  0
  182.6780  178.9000  138.1520 O   0  0  0  0  0  0  0  0  0  0  0  0
  182.1050  179.6830  139.1770 C   0  0  1  0  0  3  0  0  0  0  0  0
  183.9760  173.1090  136.5010 C   0  0  0  0  0  3  0  0  0  0  0  0
  185.8160  176.1350  136.8370 N   0  0  0  0  0  0  0  0  0  0  0  0
  182.7260  174.7700  137.7130 N   0  0  0  0  0  0  0  0  0  0  0  0
  185.0230  173.9750  136.3680 N   0  0  0  0  0  0  0  0  0  0  0  0
  185.2700  177.3110  137.5290 C   0  0  0  0  0  2  0  0  0  0  0  0
  184.9140  175.2170  136.9030 C   0  0  0  0  0  0  0  0  0  0  0  0
  183.7850  175.6050  137.5550 C   0  0  0  0  0  0  0  0  0  0  0  0
  183.9100  176.8460  137.9650 C   0  0  0  0  0  0  0  0  0  0  0  0
  182.8070  173.5120  137.1850 C   0  0  0  0  0  3  0  0  0  0  0  0
  184.1640  178.4080  142.9470 O   0  0  0  0  0  0  0  0  0  0  0  0
  185.9380  178.0870  145.0620 O   0  0  0  0  0  1  0  0  0  0  0  0
  185.1450  180.6310  144.3340 O   0  0  0  0  0  0  0  0  0  0  0  0
  184.6500  179.0160  144.4830 P   0  0  0  0  0  0  0  0  0  0  0  0
  183.4950  178.9300  145.4540 O   0  0  0  0  0  1  0  0  0  0  0  0
  191.4490  172.9870  135.7760 C   0  0  0  0  0  2  0  0  0  0  0  0
  191.1720  171.6810  135.0420 C   0  0  0  0  0  2  0  0  0  0  0  0
  192.4170  171.0170  134.6840 N   0  0  0  0  0  2  0  0  0  0  0  0
  193.3610  171.2310  135.7710 C   0  0  0  0  0  2  0  0  0  0  0  0
  195.6700  170.9950  134.9000 C   0  0  0  0  0  0  0  0  0  0  0  0
  193.6620  168.5250  136.8840 C   0  0  0  0  0  1  0  0  0  0  0  0
  195.9730  168.3410  135.9790 C   0  0  0  0  0  2  0  0  0  0  0  0
  197.8480  168.1700  134.5060 O   0  0  0  0  0  0  0  0  0  0  0  0
  196.9200  168.8850  134.9690 C   0  0  0  0  0  0  0  0  0  0  0  0
  194.6110  170.4340  135.5210 C   0  0  0  0  0  0  0  0  0  0  0  0
  196.7780  170.2060  134.5440 O   0  0  0  0  0  0  0  0  0  0  0  0
  194.5850  168.9340  135.7470 C   0  0  2  0  0  3  0  0  0  0  0  0
  195.6530  172.4500  134.5060 C   0  0  0  0  0  2  0  0  0  0  0  0
  196.4320  173.3060  135.4590 C   0  0  0  0  0  0  0  0  0  0  0  0
  196.7090  174.4790  137.7420 C   0  0  2  0  0  3  0  0  0  0  0  0
  195.7500  173.8110  136.7270 C   0  0  0  0  0  2  0  0  0  0  0  0
  198.1740  174.0870  137.5350 C   0  0  0  0  0  2  0  0  0  0  0  0
  197.7210  173.5730  135.1780 C   0  0  0  0  0  3  0  0  0  0  0  0
  198.5630  174.4010  136.1000 C   0  0  0  0  0  2  0  0  0  0  0  0
  196.2490  174.1870  139.1710 C   0  0  0  0  0  3  0  0  0  0  0  0
  195.6470  175.3190  139.7380 O   0  0  0  0  0  1  0  0  0  0  0  0
  195.3480  173.1160  139.1940 O   0  0  0  0  0  1  0  0  0  0  0  0
  190.0550  176.1940  139.5310 O   0  0  0  0  0  0  0  0  0  0  0  0
  192.1620  177.2330  139.9520 C   0  0  0  0  0  2  0  0  0  0  0  0
  190.9610  176.8590  140.3770 C   0  0  0  0  0  0  0  0  0  0  0  0
  190.5760  177.1210  141.6940 O   0  0  0  0  0  0  0  0  0  0  0  0
  191.4730  177.1620  142.6950 O   0  0  0  0  0  1  0  0  0  0  0  0
  1 11  1  0  0  0  0
  2  8  1  0  0  0  0
  3  4  1  0  0  0  0
  3  1  1  0  0  0  0
  4  9  2  0  0  0  0
  5  1  2  0  0  0  0
  5 39  1  0  0  0  0
  6  2  2  0  0  0  0
  7  8  1  0  0  0  0
  7 61  1  1  0  0  0
  8 13  1  1  0  0  0
  9  6  1  0  0  0  0
  9 10  1  0  0  0  0
 10  7  1  0  0  0  0
 11 10  2  0  0  0  0
 12 15  1  0  0  0  0
 13 12  3  0  0  0  0
 14 16  1  0  0  0  0
 16 15  2  0  0  0  0
 16 34  1  0  0  0  0
 17 21  1  0  0  0  0
 17 14  1  6  0  0  0
 19 18  1  0  0  0  0
 20 19  1  0  0  0  0
 21 18  1  6  0  0  0
 22 32  1  6  0  0  0
 22 17  1  0  0  0  0
 23 22  1  0  0  0  0
 23 24  1  0  0  0  0
 24 20  1  6  0  0  0
 24 21  1  0  0  0  0
 25 33  1  0  0  0  0
 26 30  2  0  0  0  0
 26 29  1  0  0  0  0
 28 25  2  0  0  0  0
 28 30  1  0  0  0  0
 29 32  1  0  0  0  0
 30 31  1  0  0  0  0
 31 27  1  0  0  0  0
 31 32  2  0  0  0  0
 33 27  2  0  0  0  0
 34 37  1  0  0  0  0
 36 37  2  0  0  0  0
 37 35  1  0  0  0  0
 37 38  1  0  0  0  0
 40 39  1  0  0  0  0
 41 40  1  0  0  0  0
 41 42  1  0  0  0  0
 43 48  2  0  0  0  0
 46 47  2  0  0  0  0
 47 45  1  0  0  0  0
 48 50  1  0  0  0  0
 48 42  1  0  0  0  0
 49 43  1  0  0  0  0
 49 47  1  0  0  0  0
 50 45  1  0  0  0  0
 50 44  1  1  0  0  0
 51 43  1  0  0  0  0
 51 52  1  0  0  0  0
 52 54  1  0  0  0  0
 53 58  1  1  0  0  0
 54 53  1  0  0  0  0
 55 53  1  0  0  0  0
 56 52  2  0  0  0  0
 56 57  1  0  0  0  0
 57 55  1  0  0  0  0
 58 60  1  0  0  0  0
 58 59  1  0  0  0  0
 61 63  1  0  0  0  0
 62 63  2  0  0  0  0
 63 64  1  0  0  0  0
 64 65  1  0  0  0  0
M  END
>  <MODEL>
2

>  <REMARK>
 VINA RESULT:      -8.1      4.364     10.474
  Name = 
  17 active torsions:
  status: ('A' for Active; 'I' for Inactive)
    1  A    between atoms: C_2  and  C_19
    2  A    between atoms: C_3  and  N_15
    3  A    between atoms: C_5  and  C_19
    4  A    between atoms: C_6  and  C_9
    5  A    between atoms: C_7  and  N_30
    6  A    between atoms: O_11  and  C_42
    7  A    between atoms: C_13  and  N_28
    8  A    between atoms: C_13  and  C_53
    9  A    between atoms: O_14  and  P_27
   10  A    between atoms: O_14  and  C_59
   11  A    between atoms: O_24  and  C_42
   12  A    between atoms: O_24  and  C_46
   13  A    between atoms: N_28  and  C_29
   14  A    between atoms: C_29  and  C_40
   15  A    between atoms: C_33  and  C_53
   16  A    between atoms: C_35  and  C_50
   17  A    between atoms: C_56  and  C_63
                            x       y       z     vdW  Elec       q    Type
                         _______ _______ _______ _____ _____    ______ ____

>  <TORSDO>
F 17

$$$$
=
 OpenBabel10232410073D

 65 72  0  0  1  0  0  0  0  0999 V2000
  190.7820  176.9740  140.2740 C   0  0  0  0  0  0  0  0  0  0  0  0
  188.4110  177.8730  135.9090 C   0  0  0  0  0  3  0  0  0  0  0  0
  191.7130  177.4510  139.3010 N   0  0  0  0  0  2  0  0  0  0  0  0
  191.2860  177.7310  137.9920 N   0  0  0  0  0  0  0  0  0  0  0  0
  191.2200  176.6220  141.4850 C   0  0  0  0  0  3  0  0  0  0  0  0
  189.6530  177.8440  136.2870 N   0  0  0  0  0  0  0  0  0  0  0  0
  187.5980  176.9720  138.1610 C   0  0  1  0  0  3  0  0  0  0  0  0
  187.2640  177.7600  136.8810 C   0  0  2  0  0  3  0  0  0  0  0  0
  190.0380  177.6130  137.6470 C   0  0  0  0  0  0  0  0  0  0  0  0
  189.0140  177.1770  138.6280 C   0  0  0  0  0  0  0  0  0  0  0  0
  189.3750  176.8400  139.8690 C   0  0  0  0  0  3  0  0  0  0  0  0
  185.1920  176.5980  135.6720 C   0  0  0  0  0  0  0  0  0  0  0  0
  186.1190  177.1410  136.2140 C   0  0  0  0  0  0  0  0  0  0  0  0
  182.5950  176.5900  136.7560 N   0  0  0  0  0  2  0  0  0  0  0  0
  184.1220  175.9370  135.0530 N   0  0  0  0  0  0  0  0  0  0  0  0
  182.9150  175.9060  135.5310 C   0  0  0  0  0  0  0  0  0  0  0  0
  181.3420  176.4890  137.5160 C   0  0  1  0  0  3  0  0  0  0  0  0
  180.5360  175.1320  139.4190 C   0  0  0  0  0  2  0  0  0  0  0  0
  180.0580  175.6430  140.7570 C   0  0  0  0  0  2  0  0  0  0  0  0
  180.2320  177.1400  140.7060 C   0  0  0  0  0  2  0  0  0  0  0  0
  181.5920  176.1070  138.9500 C   0  0  2  0  0  3  0  0  0  0  0  0
  180.6060  177.8130  137.6510 C   0  0  1  0  0  3  0  0  0  0  0  0
  181.0070  178.4390  138.8390 O   0  0  0  0  0  0  0  0  0  0  0  0
  181.3580  177.3970  139.7240 C   0  0  1  0  0  3  0  0  0  0  0  0
  180.9100  182.7270  136.1500 C   0  0  0  0  0  3  0  0  0  0  0  0
  180.8620  179.6600  134.3490 N   0  0  0  0  0  0  0  0  0  0  0  0
  180.7230  180.8390  137.6300 N   0  0  0  0  0  0  0  0  0  0  0  0
  180.9270  181.8950  135.0680 N   0  0  0  0  0  0  0  0  0  0  0  0
  180.7640  178.3570  135.0230 C   0  0  0  0  0  2  0  0  0  0  0  0
  180.8420  180.5560  135.2750 C   0  0  0  0  0  0  0  0  0  0  0  0
  180.7490  180.0430  136.5310 C   0  0  0  0  0  0  0  0  0  0  0  0
  180.6970  178.7320  136.4750 C   0  0  0  0  0  0  0  0  0  0  0  0
  180.8070  182.1920  137.4530 C   0  0  0  0  0  3  0  0  0  0  0  0
  181.9210  175.1870  134.8620 O   0  0  0  0  0  0  0  0  0  0  0  0
  181.8160  173.2020  136.8050 O   0  0  0  0  0  1  0  0  0  0  0  0
  179.9830  173.1740  134.7380 O   0  0  0  0  0  1  0  0  0  0  0  0
  181.5870  173.5250  135.1610 P   0  0  0  0  0  0  0  0  0  0  0  0
  182.5250  172.6630  134.3470 O   0  0  0  0  0  0  0  0  0  0  0  0
  190.3310  176.0890  142.5680 C   0  0  0  0  0  2  0  0  0  0  0  0
  191.1310  175.3630  143.6420 C   0  0  0  0  0  2  0  0  0  0  0  0
  191.2540  176.1840  144.8370 N   0  0  0  0  0  2  0  0  0  0  0  0
  190.2840  177.2660  144.7320 C   0  0  0  0  0  2  0  0  0  0  0  0
  188.2220  177.5800  146.0710 C   0  0  0  0  0  0  0  0  0  0  0  0
  191.7170  176.9600  147.2830 C   0  0  0  0  0  1  0  0  0  0  0  0
  189.6160  177.2920  148.5750 C   0  0  0  0  0  2  0  0  0  0  0  0
  187.6550  178.2480  149.5510 O   0  0  0  0  0  0  0  0  0  0  0  0
  188.2330  177.8350  148.5100 C   0  0  0  0  0  0  0  0  0  0  0  0
  189.5620  177.4280  146.0400 C   0  0  0  0  0  0  0  0  0  0  0  0
  187.5720  177.8730  147.2830 O   0  0  0  0  0  0  0  0  0  0  0  0
  190.3710  177.6680  147.3020 C   0  0  2  0  0  3  0  0  0  0  0  0
  187.4080  177.5200  144.8030 C   0  0  0  0  0  2  0  0  0  0  0  0
  186.0720  178.1830  144.9530 C   0  0  0  0  0  0  0  0  0  0  0  0
  183.8650  179.0790  143.9590 C   0  0  2  0  0  3  0  0  0  0  0  0
  185.3230  178.6280  143.7000 C   0  0  0  0  0  2  0  0  0  0  0  0
  183.2950  178.5510  145.2770 C   0  0  0  0  0  2  0  0  0  0  0  0
  185.5630  178.3330  146.1900 C   0  0  0  0  0  3  0  0  0  0  0  0
  184.2220  178.9650  146.4080 C   0  0  0  0  0  2  0  0  0  0  0  0
  182.9770  178.6950  142.7740 C   0  0  0  0  0  3  0  0  0  0  0  0
  181.6680  179.1590  142.9640 O   0  0  0  0  0  1  0  0  0  0  0  0
  183.4910  179.2150  141.5800 O   0  0  0  0  0  1  0  0  0  0  0  0
  186.6350  177.2330  139.1970 O   0  0  0  0  0  0  0  0  0  0  0  0
  187.1590  178.8610  140.8630 C   0  0  0  0  0  2  0  0  0  0  0  0
  186.4300  178.4770  139.8210 C   0  0  0  0  0  0  0  0  0  0  0  0
  185.4290  179.3160  139.3250 O   0  0  0  0  0  0  0  0  0  0  0  0
  184.4090  178.8380  138.5920 O   0  0  0  0  0  1  0  0  0  0  0  0
  1  5  2  0  0  0  0
  2  6  2  0  0  0  0
  2  8  1  0  0  0  0
  3  1  1  0  0  0  0
  4  3  1  0  0  0  0
  5 39  1  0  0  0  0
  6  9  1  0  0  0  0
  7 10  1  0  0  0  0
  7 61  1  1  0  0  0
  8 13  1  6  0  0  0
  8  7  1  0  0  0  0
  9  4  2  0  0  0  0
  9 10  1  0  0  0  0
 10 11  2  0  0  0  0
 11  1  1  0  0  0  0
 12 13  3  0  0  0  0
 15 16  2  0  0  0  0
 15 12  1  0  0  0  0
 16 14  1  0  0  0  0
 17 14  1  6  0  0  0
 17 22  1  0  0  0  0
 17 21  1  0  0  0  0
 18 19  1  0  0  0  0
 20 19  1  0  0  0  0
 21 18  1  1  0  0  0
 21 24  1  0  0  0  0
 22 32  1  6  0  0  0
 22 23  1  0  0  0  0
 23 24  1  0  0  0  0
 24 20  1  1  0  0  0
 25 33  1  0  0  0  0
 26 29  1  0  0  0  0
 26 30  2  0  0  0  0
 28 30  1  0  0  0  0
 28 25  2  0  0  0  0
 29 32  1  0  0  0  0
 30 31  1  0  0  0  0
 31 27  1  0  0  0  0
 32 31  2  0  0  0  0
 33 27  2  0  0  0  0
 34 37  1  0  0  0  0
 34 16  1  0  0  0  0
 36 37  1  0  0  0  0
 37 35  1  0  0  0  0
 38 37  2  0  0  0  0
 39 40  1  0  0  0  0
 40 41  1  0  0  0  0
 42 41  1  0  0  0  0
 42 48  1  0  0  0  0
 43 49  1  0  0  0  0
 47 45  1  0  0  0  0
 47 46  2  0  0  0  0
 48 43  2  0  0  0  0
 48 50  1  0  0  0  0
 49 47  1  0  0  0  0
 50 44  1  6  0  0  0
 50 45  1  0  0  0  0
 51 52  1  0  0  0  0
 51 43  1  0  0  0  0
 52 56  2  0  0  0  0
 53 58  1  6  0  0  0
 53 55  1  0  0  0  0
 54 53  1  0  0  0  0
 54 52  1  0  0  0  0
 55 57  1  0  0  0  0
 56 57  1  0  0  0  0
 58 59  1  0  0  0  0
 60 58  1  0  0  0  0
 61 63  1  0  0  0  0
 63 62  2  0  0  0  0
 64 63  1  0  0  0  0
 65 64  1  0  0  0  0
M  END
>  <MODEL>
3

>  <REMARK>
 VINA RESULT:      -6.2      3.197      5.795
  Name = 
  17 active torsions:
  status: ('A' for Active; 'I' for Inactive)
    1  A    between atoms: C_2  and  C_19
    2  A    between atoms: C_3  and  N_15
    3  A    between atoms: C_5  and  C_19
    4  A    between atoms: C_6  and  C_9
    5  A    between atoms: C_7  and  N_30
    6  A    between atoms: O_11  and  C_42
    7  A    between atoms: C_13  and  N_28
    8  A    between atoms: C_13  and  C_53
    9  A    between atoms: O_14  and  P_27
   10  A    between atoms: O_14  and  C_59
   11  A    between atoms: O_24  and  C_42
   12  A    between atoms: O_24  and  C_46
   13  A    between atoms: N_28  and  C_29
   14  A    between atoms: C_29  and  C_40
   15  A    between atoms: C_33  and  C_53
   16  A    between atoms: C_35  and  C_50
   17  A    between atoms: C_56  and  C_63
                            x       y       z     vdW  Elec       q    Type
                         _______ _______ _______ _____ _____    ______ ____

>  <TORSDO>
F 17

$$$$
=
 OpenBabel10232410073D

 65 72  0  0  1  0  0  0  0  0999 V2000
  189.0930  178.0850  141.6850 C   0  0  0  0  0  0  0  0  0  0  0  0
  193.4680  176.7650  139.5410 C   0  0  0  0  0  3  0  0  0  0  0  0
  190.1860  178.6000  142.4470 N   0  0  0  0  0  2  0  0  0  0  0  0
  191.5090  178.3230  142.0620 N   0  0  0  0  0  0  0  0  0  0  0  0
  187.8440  178.2760  142.1160 C   0  0  0  0  0  3  0  0  0  0  0  0
  193.1310  177.3240  140.6630 N   0  0  0  0  0  0  0  0  0  0  0  0
  191.0320  176.2720  138.9360 C   0  0  1  0  0  3  0  0  0  0  0  0
  192.4750  176.4870  138.4420 C   0  0  2  0  0  3  0  0  0  0  0  0
  191.7730  177.6410  140.9870 C   0  0  0  0  0  0  0  0  0  0  0  0
  190.6810  177.1280  140.1220 C   0  0  0  0  0  0  0  0  0  0  0  0
  189.4050  177.3110  140.4740 C   0  0  0  0  0  3  0  0  0  0  0  0
  193.2350  174.3600  137.0260 C   0  0  0  0  0  0  0  0  0  0  0  0
  192.9060  175.3150  137.6790 C   0  0  0  0  0  0  0  0  0  0  0  0
  195.8790  173.4030  136.9130 N   0  0  0  0  0  2  0  0  0  0  0  0
  193.6020  173.2600  136.2380 N   0  0  0  0  0  0  0  0  0  0  0  0
  194.8130  172.7990  136.1570 C   0  0  0  0  0  0  0  0  0  0  0  0
  197.3160  173.1240  136.7800 C   0  0  1  0  0  3  0  0  0  0  0  0
  198.7800  172.2030  135.0140 C   0  0  0  0  0  2  0  0  0  0  0  0
  199.9410  172.8980  134.3460 C   0  0  0  0  0  2  0  0  0  0  0  0
  199.9800  174.2850  134.9400 C   0  0  0  0  0  2  0  0  0  0  0  0
  197.7820  173.2860  135.3590 C   0  0  2  0  0  3  0  0  0  0  0  0
  198.1960  174.1120  137.5310 C   0  0  1  0  0  3  0  0  0  0  0  0
  198.5520  175.1550  136.6650 O   0  0  0  0  0  0  0  0  0  0  0  0
  198.5590  174.5950  135.3690 C   0  0  1  0  0  3  0  0  0  0  0  0
  199.3620  175.5380  142.3370 C   0  0  0  0  0  3  0  0  0  0  0  0
  196.2950  175.4240  140.5390 N   0  0  0  0  0  0  0  0  0  0  0  0
  199.6820  174.7120  140.1000 N   0  0  0  0  0  0  0  0  0  0  0  0
  198.0220  175.6740  142.1090 N   0  0  0  0  0  0  0  0  0  0  0  0
  196.2210  174.9640  139.1440 C   0  0  0  0  0  2  0  0  0  0  0  0
  197.5310  175.3300  140.8920 C   0  0  0  0  0  0  0  0  0  0  0  0
  198.3480  174.8660  139.9090 C   0  0  0  0  0  0  0  0  0  0  0  0
  197.6480  174.6200  138.8250 C   0  0  0  0  0  0  0  0  0  0  0  0
  200.2070  175.0490  141.3160 C   0  0  0  0  0  3  0  0  0  0  0  0
  195.0910  171.7200  135.3140 O   0  0  0  0  0  0  0  0  0  0  0  0
  194.0390  169.7550  136.9730 O   0  0  0  0  0  1  0  0  0  0  0  0
  192.7010  170.4260  134.6510 O   0  0  0  0  0  1  0  0  0  0  0  0
  194.2280  170.2310  135.3620 P   0  0  0  0  0  0  0  0  0  0  0  0
  195.0010  169.1690  134.6150 O   0  0  0  0  0  0  0  0  0  0  0  0
  186.6310  177.7580  141.4040 C   0  0  0  0  0  2  0  0  0  0  0  0
  185.4560  178.7190  141.5280 C   0  0  0  0  0  2  0  0  0  0  0  0
  184.6160  178.6620  140.3410 N   0  0  0  0  0  2  0  0  0  0  0  0
  183.3290  178.1070  140.7370 C   0  0  0  0  0  2  0  0  0  0  0  0
  182.5660  177.4280  138.4780 C   0  0  0  0  0  0  0  0  0  0  0  0
  180.8360  179.6520  140.9540 C   0  0  0  0  0  1  0  0  0  0  0  0
  180.1240  178.9450  138.6760 C   0  0  0  0  0  2  0  0  0  0  0  0
  179.9850  178.6560  136.3080 O   0  0  0  0  0  0  0  0  0  0  0  0
  180.6040  178.4050  137.3760 C   0  0  0  0  0  0  0  0  0  0  0  0
  182.3700  178.1790  139.5820 C   0  0  0  0  0  0  0  0  0  0  0  0
  181.7470  177.6050  137.3490 O   0  0  0  0  0  0  0  0  0  0  0  0
  181.3220  179.2770  139.5630 C   0  0  2  0  0  3  0  0  0  0  0  0
  183.7090  176.4480  138.4030 C   0  0  0  0  0  2  0  0  0  0  0  0
  184.5460  176.6440  137.1760 C   0  0  0  0  0  0  0  0  0  0  0  0
  186.5010  177.7720  135.9240 C   0  0  2  0  0  3  0  0  0  0  0  0
  185.5320  177.8080  137.1300 C   0  0  0  0  0  2  0  0  0  0  0  0
  186.6330  176.3820  135.2970 C   0  0  0  0  0  2  0  0  0  0  0  0
  184.4220  175.7630  136.1650 C   0  0  0  0  0  3  0  0  0  0  0  0
  185.2470  175.8860  134.9200 C   0  0  0  0  0  2  0  0  0  0  0  0
  187.8650  178.3330  136.3290 C   0  0  0  0  0  3  0  0  0  0  0  0
  188.6840  178.5070  135.2040 O   0  0  0  0  0  1  0  0  0  0  0  0
  187.7210  179.5550  136.9970 O   0  0  0  0  0  1  0  0  0  0  0  0
  190.0890  176.4120  137.8600 O   0  0  0  0  0  0  0  0  0  0  0  0
  190.0870  175.6510  135.5970 C   0  0  0  0  0  2  0  0  0  0  0  0
  189.8210  175.4380  136.8810 C   0  0  0  0  0  0  0  0  0  0  0  0
  189.2600  174.2230  137.2820 O   0  0  0  0  0  0  0  0  0  0  0  0
  188.1690  173.7190  136.6790 O   0  0  0  0  0  1  0  0  0  0  0  0
  1  5  2  0  0  0  0
  1  3  1  0  0  0  0
  2  6  2  0  0  0  0
  4  3  1  0  0  0  0
  6  9  1  0  0  0  0
  7 61  1  6  0  0  0
  7 10  1  0  0  0  0
  8 13  1  1  0  0  0
  8  7  1  0  0  0  0
  8  2  1  0  0  0  0
  9  4  2  0  0  0  0
 10 11  2  0  0  0  0
 10  9  1  0  0  0  0
 11  1  1  0  0  0  0
 12 13  3  0  0  0  0
 15 12  1  0  0  0  0
 16 15  2  0  0  0  0
 16 14  1  0  0  0  0
 17 14  1  6  0  0  0
 17 22  1  0  0  0  0
 19 20  1  0  0  0  0
 19 18  1  0  0  0  0
 21 18  1  1  0  0  0
 21 24  1  0  0  0  0
 21 17  1  0  0  0  0
 22 32  1  1  0  0  0
 23 22  1  0  0  0  0
 24 20  1  1  0  0  0
 24 23  1  0  0  0  0
 26 30  2  0  0  0  0
 27 33  2  0  0  0  0
 28 25  2  0  0  0  0
 29 26  1  0  0  0  0
 30 28  1  0  0  0  0
 31 27  1  0  0  0  0
 31 30  1  0  0  0  0
 32 29  1  0  0  0  0
 32 31  2  0  0  0  0
 33 25  1  0  0  0  0
 34 37  1  0  0  0  0
 34 16  1  0  0  0  0
 36 37  1  0  0  0  0
 37 35  1  0  0  0  0
 38 37  2  0  0  0  0
 39 40  1  0  0  0  0
 39  5  1  0  0  0  0
 41 42  1  0  0  0  0
 41 40  1  0  0  0  0
 43 48  2  0  0  0  0
 45 50  1  0  0  0  0
 46 47  2  0  0  0  0
 47 45  1  0  0  0  0
 48 42  1  0  0  0  0
 49 47  1  0  0  0  0
 49 43  1  0  0  0  0
 50 48  1  0  0  0  0
 50 44  1  1  0  0  0
 51 43  1  0  0  0  0
 52 51  1  0  0  0  0
 53 58  1  1  0  0  0
 53 54  1  0  0  0  0
 54 52  1  0  0  0  0
 55 53  1  0  0  0  0
 56 52  2  0  0  0  0
 57 55  1  0  0  0  0
 57 56  1  0  0  0  0
 58 60  1  0  0  0  0
 59 58  1  0  0  0  0
 62 63  2  0  0  0  0
 63 64  1  0  0  0  0
 63 61  1  0  0  0  0
 65 64  1  0  0  0  0
M  END
>  <MODEL>
4

>  <REMARK>
 VINA RESULT:      -5.9      5.082      9.688
  Name = 
  17 active torsions:
  status: ('A' for Active; 'I' for Inactive)
    1  A    between atoms: C_2  and  C_19
    2  A    between atoms: C_3  and  N_15
    3  A    between atoms: C_5  and  C_19
    4  A    between atoms: C_6  and  C_9
    5  A    between atoms: C_7  and  N_30
    6  A    between atoms: O_11  and  C_42
    7  A    between atoms: C_13  and  N_28
    8  A    between atoms: C_13  and  C_53
    9  A    between atoms: O_14  and  P_27
   10  A    between atoms: O_14  and  C_59
   11  A    between atoms: O_24  and  C_42
   12  A    between atoms: O_24  and  C_46
   13  A    between atoms: N_28  and  C_29
   14  A    between atoms: C_29  and  C_40
   15  A    between atoms: C_33  and  C_53
   16  A    between atoms: C_35  and  C_50
   17  A    between atoms: C_56  and  C_63
                            x       y       z     vdW  Elec       q    Type
                         _______ _______ _______ _____ _____    ______ ____

>  <TORSDO>
F 17

$$$$
=
 OpenBabel10232410073D

 65 72  0  0  1  0  0  0  0  0999 V2000
  184.4710  179.2880  142.8060 C   0  0  0  0  0  0  0  0  0  0  0  0
  184.4140  178.3670  137.8420 C   0  0  0  0  0  3  0  0  0  0  0  0
  185.5430  179.9830  142.1660 N   0  0  0  0  0  2  0  0  0  0  0  0
  185.7520  179.8430  140.7840 N   0  0  0  0  0  0  0  0  0  0  0  0
  184.3430  179.3550  144.1320 C   0  0  0  0  0  3  0  0  0  0  0  0
  185.2380  178.9560  138.6550 N   0  0  0  0  0  0  0  0  0  0  0  0
  182.9460  177.5410  139.7680 C   0  0  1  0  0  3  0  0  0  0  0  0
  183.0480  177.8960  138.2730 C   0  0  2  0  0  3  0  0  0  0  0  0
  184.9550  179.1270  140.0480 C   0  0  0  0  0  0  0  0  0  0  0  0
  183.7900  178.4280  140.6440 C   0  0  0  0  0  0  0  0  0  0  0  0
  183.5800  178.4770  141.9620 C   0  0  0  0  0  3  0  0  0  0  0  0
  182.3680  175.7690  136.8160 C   0  0  0  0  0  0  0  0  0  0  0  0
  182.6570  176.7360  137.4710 C   0  0  0  0  0  0  0  0  0  0  0  0
  184.0200  173.4910  136.7930 N   0  0  0  0  0  2  0  0  0  0  0  0
  182.0600  174.6260  136.0650 N   0  0  0  0  0  0  0  0  0  0  0  0
  182.8050  173.5630  136.0250 C   0  0  0  0  0  0  0  0  0  0  0  0
  185.0540  172.4500  136.7030 C   0  0  1  0  0  3  0  0  0  0  0  0
  185.0670  169.9940  136.4240 C   0  0  0  0  0  2  0  0  0  0  0  0
  185.6970  169.2140  135.2950 C   0  0  0  0  0  2  0  0  0  0  0  0
  186.2590  170.2480  134.3510 C   0  0  0  0  0  2  0  0  0  0  0  0
  184.6160  171.3080  135.8270 C   0  0  2  0  0  3  0  0  0  0  0  0
  186.3290  172.9200  136.0190 C   0  0  1  0  0  3  0  0  0  0  0  0
  186.2440  172.6320  134.6500 O   0  0  0  0  0  0  0  0  0  0  0  0
  185.4170  171.4940  134.5450 C   0  0  1  0  0  3  0  0  0  0  0  0
  190.0440  176.0400  137.7370 C   0  0  0  0  0  3  0  0  0  0  0  0
  186.8010  176.6620  136.4140 N   0  0  0  0  0  0  0  0  0  0  0  0
  188.9120  173.9920  137.1800 N   0  0  0  0  0  0  0  0  0  0  0  0
  188.9630  176.7660  137.3250 N   0  0  0  0  0  0  0  0  0  0  0  0
  185.9080  175.5760  135.9870 C   0  0  0  0  0  2  0  0  0  0  0  0
  187.8780  176.1040  136.8500 C   0  0  0  0  0  0  0  0  0  0  0  0
  187.8590  174.7460  136.7750 C   0  0  0  0  0  0  0  0  0  0  0  0
  186.7160  174.3420  136.2690 C   0  0  0  0  0  0  0  0  0  0  0  0
  190.0200  174.6300  137.6640 C   0  0  0  0  0  3  0  0  0  0  0  0
  182.4350  172.4860  135.2160 O   0  0  0  0  0  0  0  0  0  0  0  0
  181.7480  169.7990  135.3930 O   0  0  0  0  0  1  0  0  0  0  0  0
  180.7420  171.5800  137.2500 O   0  0  0  0  0  1  0  0  0  0  0  0
  181.1840  171.3750  135.6260 P   0  0  0  0  0  0  0  0  0  0  0  0
  179.9820  171.6120  134.7420 O   0  0  0  0  0  0  0  0  0  0  0  0
  183.2690  178.6460  144.9010 C   0  0  0  0  0  2  0  0  0  0  0  0
  183.8490  177.8200  146.0420 C   0  0  0  0  0  2  0  0  0  0  0  0
  184.7730  178.6160  146.8370 N   0  0  0  0  0  2  0  0  0  0  0  0
  185.8920  178.9810  145.9810 C   0  0  0  0  0  2  0  0  0  0  0  0
  187.7270  177.3610  145.5860 C   0  0  0  0  0  0  0  0  0  0  0  0
  187.2110  179.6280  148.5290 C   0  0  0  0  0  1  0  0  0  0  0  0
  189.0230  177.9810  148.0830 C   0  0  0  0  0  2  0  0  0  0  0  0
  190.2370  175.9530  147.7300 O   0  0  0  0  0  0  0  0  0  0  0  0
  189.3890  176.7760  147.2920 C   0  0  0  0  0  0  0  0  0  0  0  0
  187.1250  178.2390  146.4160 C   0  0  0  0  0  0  0  0  0  0  0  0
  188.7920  176.5690  146.0480 O   0  0  0  0  0  0  0  0  0  0  0  0
  187.5440  178.2980  147.8730 C   0  0  2  0  0  3  0  0  0  0  0  0
  187.2210  177.1560  144.1810 C   0  0  0  0  0  2  0  0  0  0  0  0
  188.2300  177.5610  143.1480 C   0  0  0  0  0  0  0  0  0  0  0  0
  190.6140  178.2840  142.4730 C   0  0  2  0  0  3  0  0  0  0  0  0
  189.5720  178.1250  143.6070 C   0  0  0  0  0  2  0  0  0  0  0  0
  190.3080  177.4230  141.2460 C   0  0  0  0  0  2  0  0  0  0  0  0
  187.9290  177.3810  141.8490 C   0  0  0  0  0  3  0  0  0  0  0  0
  188.9020  177.7420  140.7680 C   0  0  0  0  0  2  0  0  0  0  0  0
  192.0200  178.0120  143.0100 C   0  0  0  0  0  3  0  0  0  0  0  0
  191.9840  177.0470  144.0270 O   0  0  0  0  0  1  0  0  0  0  0  0
  192.8690  177.5800  141.9840 O   0  0  0  0  0  1  0  0  0  0  0  0
  181.5740  177.4920  140.1970 O   0  0  0  0  0  0  0  0  0  0  0  0
  180.3580  178.4110  142.0340 C   0  0  0  0  0  2  0  0  0  0  0  0
  180.8780  178.5440  140.8190 C   0  0  0  0  0  0  0  0  0  0  0  0
  180.7350  179.7510  140.1290 O   0  0  0  0  0  0  0  0  0  0  0  0
  180.4010  180.8890  140.7630 O   0  0  0  0  0  1  0  0  0  0  0  0
  1  5  2  0  0  0  0
  2  8  1  0  0  0  0
  2  6  2  0  0  0  0
  3  1  1  0  0  0  0
  4  3  1  0  0  0  0
  5 39  1  0  0  0  0
  6  9  1  0  0  0  0
  7 61  1  1  0  0  0
  7 10  1  0  0  0  0
  8 13  1  6  0  0  0
  8  7  1  0  0  0  0
  9 10  1  0  0  0  0
  9  4  2  0  0  0  0
 10 11  2  0  0  0  0
 11  1  1  0  0  0  0
 12 13  3  0  0  0  0
 15 12  1  0  0  0  0
 16 15  2  0  0  0  0
 16 14  1  0  0  0  0
 17 14  1  6  0  0  0
 19 18  1  0  0  0  0
 20 19  1  0  0  0  0
 21 18  1  1  0  0  0
 21 17  1  0  0  0  0
 22 32  1  6  0  0  0
 22 17  1  0  0  0  0
 23 22  1  0  0  0  0
 24 20  1  1  0  0  0
 24 23  1  0  0  0  0
 24 21  1  0  0  0  0
 26 30  2  0  0  0  0
 27 33  2  0  0  0  0
 28 25  2  0  0  0  0
 29 32  1  0  0  0  0
 29 26  1  0  0  0  0
 30 28  1  0  0  0  0
 31 30  1  0  0  0  0
 31 27  1  0  0  0  0
 32 31  2  0  0  0  0
 33 25  1  0  0  0  0
 34 37  1  0  0  0  0
 34 16  1  0  0  0  0
 35 37  1  0  0  0  0
 37 36  1  0  0  0  0
 38 37  2  0  0  0  0
 39 40  1  0  0  0  0
 40 41  1  0  0  0  0
 42 48  1  0  0  0  0
 42 41  1  0  0  0  0
 43 49  1  0  0  0  0
 43 48  2  0  0  0  0
 47 46  2  0  0  0  0
 47 45  1  0  0  0  0
 48 50  1  0  0  0  0
 49 47  1  0  0  0  0
 50 45  1  0  0  0  0
 50 44  1  6  0  0  0
 51 43  1  0  0  0  0
 52 54  1  0  0  0  0
 52 51  1  0  0  0  0
 53 58  1  1  0  0  0
 53 54  1  0  0  0  0
 55 53  1  0  0  0  0
 56 52  2  0  0  0  0
 57 55  1  0  0  0  0
 57 56  1  0  0  0  0
 58 59  1  0  0  0  0
 60 58  1  0  0  0  0
 61 63  1  0  0  0  0
 63 62  2  0  0  0  0
 64 65  1  0  0  0  0
 64 63  1  0  0  0  0
M  END
>  <MODEL>
5

>  <REMARK>
 VINA RESULT:      -5.9      2.648      5.833
  Name = 
  17 active torsions:
  status: ('A' for Active; 'I' for Inactive)
    1  A    between atoms: C_2  and  C_19
    2  A    between atoms: C_3  and  N_15
    3  A    between atoms: C_5  and  C_19
    4  A    between atoms: C_6  and  C_9
    5  A    between atoms: C_7  and  N_30
    6  A    between atoms: O_11  and  C_42
    7  A    between atoms: C_13  and  N_28
    8  A    between atoms: C_13  and  C_53
    9  A    between atoms: O_14  and  P_27
   10  A    between atoms: O_14  and  C_59
   11  A    between atoms: O_24  and  C_42
   12  A    between atoms: O_24  and  C_46
   13  A    between atoms: N_28  and  C_29
   14  A    between atoms: C_29  and  C_40
   15  A    between atoms: C_33  and  C_53
   16  A    between atoms: C_35  and  C_50
   17  A    between atoms: C_56  and  C_63
                            x       y       z     vdW  Elec       q    Type
                         _______ _______ _______ _____ _____    ______ ____

>  <TORSDO>
F 17

$$$$
=
 OpenBabel10232410073D

 65 72  0  0  1  0  0  0  0  0999 V2000
  187.6460  175.7010  136.2490 C   0  0  0  0  0  0  0  0  0  0  0  0
  189.5450  178.8840  139.6770 C   0  0  0  0  0  3  0  0  0  0  0  0
  187.0640  176.9960  136.0900 N   0  0  0  0  0  2  0  0  0  0  0  0
  187.4110  178.0390  136.9640 N   0  0  0  0  0  0  0  0  0  0  0  0
  187.2360  174.6960  135.4720 C   0  0  0  0  0  3  0  0  0  0  0  0
  188.5790  178.9410  138.8100 N   0  0  0  0  0  0  0  0  0  0  0  0
  189.9390  176.3970  139.2250 C   0  0  1  0  0  3  0  0  0  0  0  0
  190.5140  177.7310  139.7360 C   0  0  2  0  0  3  0  0  0  0  0  0
  188.3000  177.8730  137.8990 C   0  0  0  0  0  0  0  0  0  0  0  0
  188.9830  176.5680  138.0770 C   0  0  0  0  0  0  0  0  0  0  0  0
  188.6460  175.5250  137.3130 C   0  0  0  0  0  3  0  0  0  0  0  0
  191.3570  177.3920  142.2420 C   0  0  0  0  0  0  0  0  0  0  0  0
  190.9880  177.5620  141.1100 C   0  0  0  0  0  0  0  0  0  0  0  0
  189.5430  176.8820  144.3320 N   0  0  0  0  0  2  0  0  0  0  0  0
  191.7760  177.1620  143.5600 N   0  0  0  0  0  0  0  0  0  0  0  0
  190.9650  176.9340  144.5480 C   0  0  0  0  0  0  0  0  0  0  0  0
  188.5000  176.8280  145.3660 C   0  0  1  0  0  3  0  0  0  0  0  0
  188.4580  176.5080  147.8160 C   0  0  0  0  0  2  0  0  0  0  0  0
  187.9300  177.4760  148.8470 C   0  0  0  0  0  2  0  0  0  0  0  0
  187.4920  178.6950  148.0730 C   0  0  0  0  0  2  0  0  0  0  0  0
  188.9990  177.3520  146.6840 C   0  0  2  0  0  3  0  0  0  0  0  0
  187.3140  177.7350  145.0770 C   0  0  1  0  0  3  0  0  0  0  0  0
  187.5320  178.9780  145.6880 O   0  0  0  0  0  0  0  0  0  0  0  0
  188.3390  178.7180  146.8160 C   0  0  1  0  0  3  0  0  0  0  0  0
  183.4970  178.8410  141.8060 C   0  0  0  0  0  3  0  0  0  0  0  0
  186.9150  177.9870  141.3140 N   0  0  0  0  0  0  0  0  0  0  0  0
  184.6160  178.4470  143.8990 N   0  0  0  0  0  0  0  0  0  0  0  0
  184.6490  178.5720  141.1230 N   0  0  0  0  0  0  0  0  0  0  0  0
  187.8220  177.7070  142.4370 C   0  0  0  0  0  2  0  0  0  0  0  0
  185.7620  178.2470  141.8280 C   0  0  0  0  0  0  0  0  0  0  0  0
  185.7440  178.1930  143.1870 C   0  0  0  0  0  0  0  0  0  0  0  0
  186.9360  177.8770  143.6380 C   0  0  0  0  0  0  0  0  0  0  0  0
  183.4790  178.7780  143.2170 C   0  0  0  0  0  3  0  0  0  0  0  0
  191.4740  176.7540  145.8370 O   0  0  0  0  0  0  0  0  0  0  0  0
  190.8340  174.4540  147.2600 O   0  0  0  0  0  1  0  0  0  0  0  0
  192.5760  174.2850  145.1220 O   0  0  0  0  0  0  0  0  0  0  0  0
  192.0690  175.2490  146.4220 P   0  0  0  0  0  0  0  0  0  0  0  0
  193.2330  175.4890  147.3560 O   0  0  0  0  0  1  0  0  0  0  0  0
  187.7650  173.2980  135.5740 C   0  0  0  0  0  2  0  0  0  0  0  0
  186.8640  172.3040  134.8520 C   0  0  0  0  0  2  0  0  0  0  0  0
  185.5460  172.8760  134.6220 N   0  0  0  0  0  2  0  0  0  0  0  0
  184.5770  172.0570  135.3370 C   0  0  0  0  0  2  0  0  0  0  0  0
  182.3910  173.1920  135.6170 C   0  0  0  0  0  0  0  0  0  0  0  0
  185.2620  173.0350  138.0260 C   0  0  0  0  0  1  0  0  0  0  0  0
  183.0540  174.1620  138.2480 C   0  0  0  0  0  2  0  0  0  0  0  0
  181.1980  175.6390  137.9560 O   0  0  0  0  0  0  0  0  0  0  0  0
  181.8900  174.6940  137.4900 C   0  0  0  0  0  0  0  0  0  0  0  0
  183.6280  172.9420  136.0960 C   0  0  0  0  0  0  0  0  0  0  0  0
  181.5630  174.1300  136.2570 O   0  0  0  0  0  0  0  0  0  0  0  0
  184.1520  173.7480  137.2700 C   0  0  2  0  0  3  0  0  0  0  0  0
  181.9060  172.5350  134.3500 C   0  0  0  0  0  2  0  0  0  0  0  0
  181.6050  171.0790  134.5440 C   0  0  0  0  0  0  0  0  0  0  0  0
  182.3620  168.6250  134.8040 C   0  0  2  0  0  3  0  0  0  0  0  0
  182.7240  170.0600  134.3500 C   0  0  0  0  0  2  0  0  0  0  0  0
  181.1870  168.5800  135.7830 C   0  0  0  0  0  2  0  0  0  0  0  0
  180.3610  170.7230  134.9160 C   0  0  0  0  0  3  0  0  0  0  0  0
  180.0000  169.2880  135.1500 C   0  0  0  0  0  2  0  0  0  0  0  0
  183.5960  167.9290  135.3800 C   0  0  0  0  0  3  0  0  0  0  0  0
  184.7450  168.2770  134.6560 O   0  0  0  0  0  1  0  0  0  0  0  0
  183.7720  168.2640  136.7280 O   0  0  0  0  0  1  0  0  0  0  0  0
  190.9890  175.4590  138.9300 O   0  0  0  0  0  0  0  0  0  0  0  0
  193.1160  174.9790  137.9570 C   0  0  0  0  0  2  0  0  0  0  0  0
  191.9430  175.6010  137.9060 C   0  0  0  0  0  0  0  0  0  0  0  0
  191.6380  176.4230  136.8180 O   0  0  0  0  0  0  0  0  0  0  0  0
  191.8370  176.0160  135.5520 O   0  0  0  0  0  1  0  0  0  0  0  0
  1 11  1  0  0  0  0
  2  8  1  0  0  0  0
  3  1  1  0  0  0  0
  3  4  1  0  0  0  0
  4  9  2  0  0  0  0
  5 39  1  0  0  0  0
  5  1  2  0  0  0  0
  6  2  2  0  0  0  0
  7 61  1  6  0  0  0
  7  8  1  0  0  0  0
  8 13  1  1  0  0  0
  9 10  1  0  0  0  0
  9  6  1  0  0  0  0
 10  7  1  0  0  0  0
 11 10  2  0  0  0  0
 12 15  1  0  0  0  0
 13 12  3  0  0  0  0
 14 16  1  0  0  0  0
 15 16  2  0  0  0  0
 16 34  1  0  0  0  0
 17 14  1  6  0  0  0
 17 21  1  0  0  0  0
 18 19  1  0  0  0  0
 20 19  1  0  0  0  0
 21 24  1  0  0  0  0
 21 18  1  1  0  0  0
 22 32  1  6  0  0  0
 22 17  1  0  0  0  0
 22 23  1  0  0  0  0
 23 24  1  0  0  0  0
 24 20  1  1  0  0  0
 25 33  1  0  0  0  0
 26 30  2  0  0  0  0
 26 29  1  0  0  0  0
 28 25  2  0  0  0  0
 28 30  1  0  0  0  0
 29 32  1  0  0  0  0
 30 31  1  0  0  0  0
 31 32  2  0  0  0  0
 31 27  1  0  0  0  0
 33 27  2  0  0  0  0
 34 37  1  0  0  0  0
 36 37  2  0  0  0  0
 37 35  1  0  0  0  0
 37 38  1  0  0  0  0
 40 39  1  0  0  0  0
 41 40  1  0  0  0  0
 41 42  1  0  0  0  0
 42 48  1  0  0  0  0
 43 48  2  0  0  0  0
 43 49  1  0  0  0  0
 47 46  2  0  0  0  0
 47 45  1  0  0  0  0
 48 50  1  0  0  0  0
 49 47  1  0  0  0  0
 50 44  1  1  0  0  0
 50 45  1  0  0  0  0
 51 52  1  0  0  0  0
 51 43  1  0  0  0  0
 52 56  2  0  0  0  0
 53 58  1  1  0  0  0
 53 55  1  0  0  0  0
 54 52  1  0  0  0  0
 54 53  1  0  0  0  0
 56 57  1  0  0  0  0
 57 55  1  0  0  0  0
 58 60  1  0  0  0  0
 59 58  1  0  0  0  0
 63 62  2  0  0  0  0
 63 61  1  0  0  0  0
 64 63  1  0  0  0  0
 65 64  1  0  0  0  0
M  END
>  <MODEL>
6

>  <REMARK>
 VINA RESULT:      -5.6      3.381     10.706
  Name = 
  17 active torsions:
  status: ('A' for Active; 'I' for Inactive)
    1  A    between atoms: C_2  and  C_19
    2  A    between atoms: C_3  and  N_15
    3  A    between atoms: C_5  and  C_19
    4  A    between atoms: C_6  and  C_9
    5  A    between atoms: C_7  and  N_30
    6  A    between atoms: O_11  and  C_42
    7  A    between atoms: C_13  and  N_28
    8  A    between atoms: C_13  and  C_53
    9  A    between atoms: O_14  and  P_27
   10  A    between atoms: O_14  and  C_59
   11  A    between atoms: O_24  and  C_42
   12  A    between atoms: O_24  and  C_46
   13  A    between atoms: N_28  and  C_29
   14  A    between atoms: C_29  and  C_40
   15  A    between atoms: C_33  and  C_53
   16  A    between atoms: C_35  and  C_50
   17  A    between atoms: C_56  and  C_63
                            x       y       z     vdW  Elec       q    Type
                         _______ _______ _______ _____ _____    ______ ____

>  <TORSDO>
F 17

$$$$
=
 OpenBabel10232410073D

 65 72  0  0  1  0  0  0  0  0999 V2000
  189.2690  178.1160  142.2730 C   0  0  0  0  0  0  0  0  0  0  0  0
  193.3580  176.7950  139.6230 C   0  0  0  0  0  3  0  0  0  0  0  0
  190.4360  178.7090  142.8450 N   0  0  0  0  0  2  0  0  0  0  0  0
  191.7030  178.4480  142.2970 N   0  0  0  0  0  0  0  0  0  0  0  0
  188.0840  178.2960  142.8610 C   0  0  0  0  0  3  0  0  0  0  0  0
  193.1560  177.4130  140.7470 N   0  0  0  0  0  0  0  0  0  0  0  0
  190.8820  176.1940  139.3910 C   0  0  1  0  0  3  0  0  0  0  0  0
  192.2350  176.4200  138.6900 C   0  0  2  0  0  3  0  0  0  0  0  0
  191.8430  177.7090  141.2370 C   0  0  0  0  0  0  0  0  0  0  0  0
  190.6640  177.1110  140.5630 C   0  0  0  0  0  0  0  0  0  0  0  0
  189.4420  177.2780  141.0770 C   0  0  0  0  0  3  0  0  0  0  0  0
  192.9360  174.2440  137.3190 C   0  0  0  0  0  0  0  0  0  0  0  0
  192.6020  175.2170  137.9430 C   0  0  0  0  0  0  0  0  0  0  0  0
  195.6450  173.5150  137.1050 N   0  0  0  0  0  2  0  0  0  0  0  0
  193.3560  173.1220  136.5910 N   0  0  0  0  0  0  0  0  0  0  0  0
  194.5980  172.7650  136.4650 C   0  0  0  0  0  0  0  0  0  0  0  0
  197.0910  173.3540  136.9000 C   0  0  1  0  0  3  0  0  0  0  0  0
  198.5380  172.5910  135.0470 C   0  0  0  0  0  2  0  0  0  0  0  0
  199.6100  173.3910  134.3460 C   0  0  0  0  0  2  0  0  0  0  0  0
  199.5680  174.7630  134.9740 C   0  0  0  0  0  2  0  0  0  0  0  0
  197.4770  173.5850  135.4650 C   0  0  2  0  0  3  0  0  0  0  0  0
  197.9270  174.3900  137.6370 C   0  0  1  0  0  3  0  0  0  0  0  0
  198.1600  175.4780  136.7840 O   0  0  0  0  0  0  0  0  0  0  0  0
  198.1500  174.9510  135.4750 C   0  0  1  0  0  3  0  0  0  0  0  0
  199.1820  175.5600  142.4900 C   0  0  0  0  0  3  0  0  0  0  0  0
  196.0800  175.5250  140.7490 N   0  0  0  0  0  0  0  0  0  0  0  0
  199.4610  174.8590  140.2050 N   0  0  0  0  0  0  0  0  0  0  0  0
  197.8370  175.7000  142.2970 N   0  0  0  0  0  0  0  0  0  0  0  0
  195.9800  175.1410  139.3330 C   0  0  0  0  0  2  0  0  0  0  0  0
  197.3230  175.4200  141.0720 C   0  0  0  0  0  0  0  0  0  0  0  0
  198.1220  175.0150  140.0490 C   0  0  0  0  0  0  0  0  0  0  0  0
  197.4020  174.8240  138.9680 C   0  0  0  0  0  0  0  0  0  0  0  0
  200.0090  175.1320  141.4280 C   0  0  0  0  0  3  0  0  0  0  0  0
  194.9240  171.6520  135.6850 O   0  0  0  0  0  0  0  0  0  0  0  0
  195.0350  170.1340  138.0110 O   0  0  0  0  0  1  0  0  0  0  0  0
  194.4030  168.9040  135.6190 O   0  0  0  0  0  0  0  0  0  0  0  0
  195.3380  170.1170  136.3480 P   0  0  0  0  0  0  0  0  0  0  0  0
  196.8040  169.8370  136.1090 O   0  0  0  0  0  1  0  0  0  0  0  0
  186.8060  177.6980  142.3550 C   0  0  0  0  0  2  0  0  0  0  0  0
  186.6240  177.9460  140.8630 C   0  0  0  0  0  2  0  0  0  0  0  0
  185.2250  177.8120  140.4840 N   0  0  0  0  0  2  0  0  0  0  0  0
  184.9800  178.7200  139.3730 C   0  0  0  0  0  2  0  0  0  0  0  0
  182.5610  178.6960  138.8300 C   0  0  0  0  0  0  0  0  0  0  0  0
  185.3720  176.9860  137.0300 C   0  0  0  0  0  1  0  0  0  0  0  0
  182.9330  176.9900  136.5380 C   0  0  0  0  0  2  0  0  0  0  0  0
  180.5720  176.6400  136.6630 O   0  0  0  0  0  0  0  0  0  0  0  0
  181.5860  177.2330  137.1200 C   0  0  0  0  0  0  0  0  0  0  0  0
  183.8040  178.2350  138.5730 C   0  0  0  0  0  0  0  0  0  0  0  0
  181.4510  178.1340  138.1760 O   0  0  0  0  0  0  0  0  0  0  0  0
  183.9840  177.0480  137.6450 C   0  0  2  0  0  3  0  0  0  0  0  0
  182.3320  179.7570  139.8750 C   0  0  0  0  0  2  0  0  0  0  0  0
  181.9060  179.1780  141.1900 C   0  0  0  0  0  0  0  0  0  0  0  0
  182.4310  178.3630  143.5830 C   0  0  2  0  0  3  0  0  0  0  0  0
  182.9750  178.7200  142.1780 C   0  0  0  0  0  2  0  0  0  0  0  0
  181.0620  178.9820  143.8740 C   0  0  0  0  0  2  0  0  0  0  0  0
  180.5910  179.1120  141.4690 C   0  0  0  0  0  3  0  0  0  0  0  0
  180.0980  178.5670  142.7740 C   0  0  0  0  0  2  0  0  0  0  0  0
  183.4540  178.7430  144.6550 C   0  0  0  0  0  3  0  0  0  0  0  0
  184.3390  179.7180  144.1720 O   0  0  0  0  0  1  0  0  0  0  0  0
  182.8150  179.2180  145.8060 O   0  0  0  0  0  1  0  0  0  0  0  0
  189.7960  176.2390  138.4490 O   0  0  0  0  0  0  0  0  0  0  0  0
  189.4190  178.4470  137.6240 C   0  0  0  0  0  2  0  0  0  0  0  0
  189.6710  177.1620  137.3960 C   0  0  0  0  0  0  0  0  0  0  0  0
  189.8130  176.7040  136.0840 O   0  0  0  0  0  0  0  0  0  0  0  0
  189.5960  177.5090  135.0290 O   0  0  0  0  0  1  0  0  0  0  0  0
  1  3  1  0  0  0  0
  1  5  2  0  0  0  0
  2  6  2  0  0  0  0
  4  3  1  0  0  0  0
  6  9  1  0  0  0  0
  7 61  1  6  0  0  0
  7 10  1  0  0  0  0
  8 13  1  1  0  0  0
  8  7  1  0  0  0  0
  8  2  1  0  0  0  0
  9  4  2  0  0  0  0
 10 11  2  0  0  0  0
 10  9  1  0  0  0  0
 11  1  1  0  0  0  0
 12 13  3  0  0  0  0
 15 12  1  0  0  0  0
 16 15  2  0  0  0  0
 16 14  1  0  0  0  0
 17 14  1  6  0  0  0
 17 22  1  0  0  0  0
 19 20  1  0  0  0  0
 19 18  1  0  0  0  0
 21 18  1  1  0  0  0
 21 24  1  0  0  0  0
 21 17  1  0  0  0  0
 22 32  1  1  0  0  0
 23 22  1  0  0  0  0
 24 20  1  1  0  0  0
 24 23  1  0  0  0  0
 26 30  2  0  0  0  0
 27 33  2  0  0  0  0
 28 25  2  0  0  0  0
 29 26  1  0  0  0  0
 30 28  1  0  0  0  0
 31 27  1  0  0  0  0
 31 30  1  0  0  0  0
 32 29  1  0  0  0  0
 32 31  2  0  0  0  0
 33 25  1  0  0  0  0
 34 37  1  0  0  0  0
 34 16  1  0  0  0  0
 36 37  2  0  0  0  0
 37 35  1  0  0  0  0
 38 37  1  0  0  0  0
 39  5  1  0  0  0  0
 40 39  1  0  0  0  0
 41 40  1  0  0  0  0
 42 41  1  0  0  0  0
 43 51  1  0  0  0  0
 45 47  1  0  0  0  0
 45 50  1  0  0  0  0
 46 47  2  0  0  0  0
 47 49  1  0  0  0  0
 48 43  2  0  0  0  0
 48 42  1  0  0  0  0
 49 43  1  0  0  0  0
 50 44  1  6  0  0  0
 50 48  1  0  0  0  0
 51 52  1  0  0  0  0
 52 56  2  0  0  0  0
 52 54  1  0  0  0  0
 53 55  1  0  0  0  0
 53 58  1  1  0  0  0
 54 53  1  0  0  0  0
 56 57  1  0  0  0  0
 57 55  1  0  0  0  0
 58 60  1  0  0  0  0
 59 58  1  0  0  0  0
 63 62  2  0  0  0  0
 63 61  1  0  0  0  0
 64 63  1  0  0  0  0
 65 64  1  0  0  0  0
M  END
>  <MODEL>
7

>  <REMARK>
 VINA RESULT:      -5.3      5.125      9.306
  Name = 
  17 active torsions:
  status: ('A' for Active; 'I' for Inactive)
    1  A    between atoms: C_2  and  C_19
    2  A    between atoms: C_3  and  N_15
    3  A    between atoms: C_5  and  C_19
    4  A    between atoms: C_6  and  C_9
    5  A    between atoms: C_7  and  N_30
    6  A    between atoms: O_11  and  C_42
    7  A    between atoms: C_13  and  N_28
    8  A    between atoms: C_13  and  C_53
    9  A    between atoms: O_14  and  P_27
   10  A    between atoms: O_14  and  C_59
   11  A    between atoms: O_24  and  C_42
   12  A    between atoms: O_24  and  C_46
   13  A    between atoms: N_28  and  C_29
   14  A    between atoms: C_29  and  C_40
   15  A    between atoms: C_33  and  C_53
   16  A    between atoms: C_35  and  C_50
   17  A    between atoms: C_56  and  C_63
                            x       y       z     vdW  Elec       q    Type
                         _______ _______ _______ _____ _____    ______ ____

>  <TORSDO>
F 17

$$$$
