=
 OpenBabel10232412343D

 34 38  0  0  1  0  0  0  0  0999 V2000
  188.9340  177.2350  141.3600 C   0  0  0  0  0  2  0  0  0  0  0  0
  187.2950  177.8920  143.6030 C   0  0  0  0  0  3  0  0  0  0  0  0
  185.2100  179.2510  140.8020 N   0  0  0  0  0  0  0  0  0  0  0  0
  188.2910  177.0160  143.7900 C   0  0  0  0  0  0  0  0  0  0  0  0
  187.1630  178.2460  139.8330 C   0  0  0  0  0  0  0  0  0  0  0  0
  185.9330  178.9080  139.7060 C   0  0  0  0  0  3  0  0  0  0  0  0
  185.6340  178.9780  142.0640 C   0  0  0  0  0  0  0  0  0  0  0  0
  187.6110  177.9150  141.1310 C   0  0  0  0  0  0  0  0  0  0  0  0
  190.3130  175.8460  142.8840 C   0  0  0  0  0  1  0  0  0  0  0  0
  186.8390  178.2780  142.2520 C   0  0  0  0  0  0  0  0  0  0  0  0
  188.9030  176.3260  142.5910 C   0  0  2  0  0  3  0  0  0  0  0  0
  190.3010  174.9230  137.1500 C   0  0  1  0  0  3  0  0  0  0  0  0
  189.7930  177.2460  136.5520 O   0  0  0  0  0  0  0  0  0  0  0  0
  187.2620  177.1560  137.5870 C   0  0  0  0  0  2  0  0  0  0  0  0
  187.9590  175.8180  137.4270 C   0  0  0  0  0  2  0  0  0  0  0  0
  190.1930  177.7340  137.7830 N   0  0  2  0  0  0  0  0  0  0  0  0
  187.9150  177.9170  138.6470 N   0  0  0  0  0  0  0  0  0  0  0  0
  190.6760  176.7480  138.7690 C   0  0  0  0  0  2  0  0  0  0  0  0
  191.3330  175.5720  138.0700 C   0  0  0  0  0  2  0  0  0  0  0  0
  189.2610  175.9270  136.6320 C   0  0  2  0  0  3  0  0  0  0  0  0
  189.1720  178.6170  138.3590 C   0  0  2  0  0  3  0  0  0  0  0  0
  188.9350  179.7000  137.5100 O   0  0  0  0  0  1  0  0  0  0  0  0
  190.8780  174.1300  136.1340 O   0  0  0  0  0  0  0  0  0  0  0  0
  192.1150  173.6350  136.5800 C   0  0  0  0  0  1  0  0  0  0  0  0
  184.7660  179.3610  143.2290 C   0  0  2  0  0  3  0  0  0  0  0  0
  184.3910  178.1650  144.0030 N   0  0  0  0  0  2  0  0  0  0  0  0
  182.4370  179.6040  143.8650 C   0  0  0  0  0  1  0  0  0  0  0  0
  183.4330  178.7810  143.0770 C   0  0  1  0  0  3  0  0  0  0  0  0
  188.7240  176.6500  145.0780 O   0  0  0  0  0  0  0  0  0  0  0  0
  189.2870  177.5000  146.0440 C   0  0  0  0  0  0  0  0  0  0  0  0
  190.4630  177.9410  145.9210 O   0  0  0  0  0  0  0  0  0  0  0  0
  189.0670  178.1130  148.3930 C   0  0  0  0  0  2  0  0  0  0  0  0
  188.4880  177.8650  147.2250 C   0  0  0  0  0  0  0  0  0  0  0  0
  187.0060  177.9640  147.1250 C   0  0  0  0  0  1  0  0  0  0  0  0
  1 11  1  0  0  0  0
  2  4  2  0  0  0  0
  3  7  1  0  0  0  0
  4 29  1  0  0  0  0
  5  8  2  0  0  0  0
  6  5  1  0  0  0  0
  6  3  2  0  0  0  0
  7 10  2  0  0  0  0
  8  1  1  0  0  0  0
  8 10  1  0  0  0  0
 10  2  1  0  0  0  0
 11  9  1  1  0  0  0
 11  4  1  0  0  0  0
 12 23  1  6  0  0  0
 12 19  1  0  0  0  0
 13 20  1  0  0  0  0
 13 16  1  0  0  0  0
 14 17  1  0  0  0  0
 15 14  1  0  0  0  0
 16 21  1  0  0  0  0
 16 18  1  1  0  0  0
 17  5  1  0  0  0  0
 19 18  1  0  0  0  0
 20 12  1  0  0  0  0
 20 15  1  1  0  0  0
 21 22  1  6  0  0  0
 21 17  1  0  0  0  0
 23 24  1  0  0  0  0
 25  7  1  6  0  0  0
 25 26  1  0  0  0  0
 28 25  1  0  0  0  0
 28 27  1  1  0  0  0
 28 26  1  0  0  0  0
 29 30  1  0  0  0  0
 30 33  1  0  0  0  0
 31 30  2  0  0  0  0
 33 32  2  0  0  0  0
 34 33  1  0  0  0  0
M  END
>  <MODEL>
1

>  <REMARK>
 VINA RESULT:      -8.9      0.000      0.000
  Name = 
  6 active torsions:
  status: ('A' for Active; 'I' for Inactive)
    1  A    between atoms: C_4  and  O_23
    2  A    between atoms: C_5  and  O_24
    3  A    between atoms: C_7  and  N_21
    4  A    between atoms: C_10  and  C_12
    5  A    between atoms: C_11  and  C_14
    6  A    between atoms: C_14  and  O_23
                            x       y       z     vdW  Elec       q    Type
                         _______ _______ _______ _____ _____    ______ ____

>  <TORSDO>
F 6

$$$$
=
 OpenBabel10232412343D

 34 38  0  0  1  0  0  0  0  0999 V2000
  187.2270  177.7670  140.4590 C   0  0  0  0  0  2  0  0  0  0  0  0
  187.5090  177.5440  143.2910 C   0  0  0  0  0  3  0  0  0  0  0  0
  191.0460  176.9620  142.1960 N   0  0  0  0  0  0  0  0  0  0  0  0
  186.3770  178.0800  142.8130 C   0  0  0  0  0  0  0  0  0  0  0  0
  189.7350  177.3790  140.2290 C   0  0  0  0  0  0  0  0  0  0  0  0
  190.9640  177.1150  140.8500 C   0  0  0  0  0  3  0  0  0  0  0  0
  189.9550  177.0520  143.0030 C   0  0  0  0  0  0  0  0  0  0  0  0
  188.5910  177.5170  141.0450 C   0  0  0  0  0  0  0  0  0  0  0  0
  184.9330  178.6310  140.8410 C   0  0  0  0  0  1  0  0  0  0  0  0
  188.7030  177.3580  142.4400 C   0  0  0  0  0  0  0  0  0  0  0  0
  186.3480  178.6000  141.3930 C   0  0  2  0  0  3  0  0  0  0  0  0
  186.9810  177.3330  135.7000 C   0  0  1  0  0  3  0  0  0  0  0  0
  189.4220  177.3440  135.9170 O   0  0  0  0  0  0  0  0  0  0  0  0
  189.3990  178.8240  138.2190 C   0  0  0  0  0  2  0  0  0  0  0  0
  188.0890  178.7650  137.4570 C   0  0  0  0  0  2  0  0  0  0  0  0
  189.4350  176.2260  136.7320 N   0  0  2  0  0  0  0  0  0  0  0  0
  189.6820  177.5130  138.7940 N   0  0  0  0  0  0  0  0  0  0  0  0
  188.1290  175.6200  137.0580 C   0  0  0  0  0  2  0  0  0  0  0  0
  187.1450  175.8310  135.9220 C   0  0  0  0  0  2  0  0  0  0  0  0
  188.2420  178.1240  136.0760 C   0  0  2  0  0  3  0  0  0  0  0  0
  190.2380  176.4580  137.9380 C   0  0  2  0  0  3  0  0  0  0  0  0
  191.5550  176.7660  137.5900 O   0  0  0  0  0  1  0  0  0  0  0  0
  186.4670  177.6570  134.4260 O   0  0  0  0  0  0  0  0  0  0  0  0
  185.1270  177.2410  134.3480 C   0  0  0  0  0  1  0  0  0  0  0  0
  190.1250  176.9020  144.4880 C   0  0  2  0  0  3  0  0  0  0  0  0
  190.5850  178.1690  145.0810 N   0  0  0  0  0  2  0  0  0  0  0  0
  191.7940  176.3590  146.1640 C   0  0  0  0  0  1  0  0  0  0  0  0
  191.5310  177.0690  144.8540 C   0  0  1  0  0  3  0  0  0  0  0  0
  185.2410  178.2550  143.6250 O   0  0  0  0  0  0  0  0  0  0  0  0
  185.1050  179.1640  144.6880 C   0  0  0  0  0  0  0  0  0  0  0  0
  184.7670  180.3620  144.4840 O   0  0  0  0  0  0  0  0  0  0  0  0
  184.4000  178.2740  146.8450 C   0  0  0  0  0  2  0  0  0  0  0  0
  185.3800  178.7030  146.0590 C   0  0  0  0  0  0  0  0  0  0  0  0
  186.7720  178.7070  146.5860 C   0  0  0  0  0  1  0  0  0  0  0  0
  1  8  1  0  0  0  0
  1 11  1  0  0  0  0
  3  7  1  0  0  0  0
  4  2  2  0  0  0  0
  4 29  1  0  0  0  0
  5  6  1  0  0  0  0
  5  8  2  0  0  0  0
  6  3  2  0  0  0  0
  8 10  1  0  0  0  0
 10  7  2  0  0  0  0
 10  2  1  0  0  0  0
 11  9  1  6  0  0  0
 11  4  1  0  0  0  0
 12 23  1  6  0  0  0
 12 19  1  0  0  0  0
 12 20  1  0  0  0  0
 13 20  1  0  0  0  0
 13 16  1  0  0  0  0
 14 17  1  0  0  0  0
 15 14  1  0  0  0  0
 16 18  1  1  0  0  0
 16 21  1  0  0  0  0
 17  5  1  0  0  0  0
 19 18  1  0  0  0  0
 20 15  1  1  0  0  0
 21 22  1  6  0  0  0
 21 17  1  0  0  0  0
 24 23  1  0  0  0  0
 25  7  1  6  0  0  0
 25 28  1  0  0  0  0
 25 26  1  0  0  0  0
 28 26  1  0  0  0  0
 28 27  1  1  0  0  0
 29 30  1  0  0  0  0
 30 33  1  0  0  0  0
 31 30  2  0  0  0  0
 33 34  1  0  0  0  0
 33 32  2  0  0  0  0
M  END
>  <MODEL>
2

>  <REMARK>
 VINA RESULT:      -8.2      2.475      4.677
  Name = 
  6 active torsions:
  status: ('A' for Active; 'I' for Inactive)
    1  A    between atoms: C_4  and  O_23
    2  A    between atoms: C_5  and  O_24
    3  A    between atoms: C_7  and  N_21
    4  A    between atoms: C_10  and  C_12
    5  A    between atoms: C_11  and  C_14
    6  A    between atoms: C_14  and  O_23
                            x       y       z     vdW  Elec       q    Type
                         _______ _______ _______ _____ _____    ______ ____

>  <TORSDO>
F 6

$$$$
=
 OpenBabel10232412343D

 34 38  0  0  1  0  0  0  0  0999 V2000
  187.4880  178.2790  142.1770 C   0  0  0  0  0  2  0  0  0  0  0  0
  185.7750  178.7740  139.9470 C   0  0  0  0  0  3  0  0  0  0  0  0
  188.8340  177.4950  138.1990 N   0  0  0  0  0  0  0  0  0  0  0  0
  185.2250  178.7520  141.1680 C   0  0  0  0  0  0  0  0  0  0  0  0
  189.2660  177.4330  140.5590 C   0  0  0  0  0  0  0  0  0  0  0  0
  189.6580  177.1950  139.2340 C   0  0  0  0  0  3  0  0  0  0  0  0
  187.6010  178.0380  138.3870 C   0  0  0  0  0  0  0  0  0  0  0  0
  187.9760  177.9610  140.7880 C   0  0  0  0  0  0  0  0  0  0  0  0
  185.5260  178.6330  143.6520 C   0  0  0  0  0  1  0  0  0  0  0  0
  187.1380  178.2600  139.6970 C   0  0  0  0  0  0  0  0  0  0  0  0
  185.9750  178.0950  142.3050 C   0  0  2  0  0  3  0  0  0  0  0  0
  190.4070  177.3040  145.7330 C   0  0  1  0  0  3  0  0  0  0  0  0
  191.9820  176.9530  143.8880 O   0  0  0  0  0  0  0  0  0  0  0  0
  190.1070  175.8060  142.2580 C   0  0  0  0  0  2  0  0  0  0  0  0
  189.7110  175.9620  143.7140 C   0  0  0  0  0  2  0  0  0  0  0  0
  191.6590  178.1530  143.2790 N   0  0  2  0  0  0  0  0  0  0  0  0
  190.1770  177.1220  141.6330 N   0  0  0  0  0  0  0  0  0  0  0  0
  190.6360  178.9850  143.9410 C   0  0  0  0  0  2  0  0  0  0  0  0
  190.6710  178.7790  145.4440 C   0  0  0  0  0  2  0  0  0  0  0  0
  190.8850  176.3870  144.5980 C   0  0  2  0  0  3  0  0  0  0  0  0
  191.3610  177.9610  141.8550 C   0  0  2  0  0  3  0  0  0  0  0  0
  192.4660  177.4150  141.1990 O   0  0  0  0  0  1  0  0  0  0  0  0
  190.8450  176.8970  147.0130 O   0  0  0  0  0  0  0  0  0  0  0  0
  191.9760  176.0750  146.8740 C   0  0  0  0  0  1  0  0  0  0  0  0
  186.7310  178.3170  137.1950 C   0  0  2  0  0  3  0  0  0  0  0  0
  185.8930  177.1450  136.8890 N   0  0  0  0  0  2  0  0  0  0  0  0
  186.6780  178.0700  134.7820 C   0  0  0  0  0  1  0  0  0  0  0  0
  187.0910  177.4310  136.0900 C   0  0  1  0  0  3  0  0  0  0  0  0
  183.9270  179.2420  141.4040 O   0  0  0  0  0  0  0  0  0  0  0  0
  182.7270  178.5180  141.2990 C   0  0  0  0  0  0  0  0  0  0  0  0
  182.5620  177.6560  140.3920 O   0  0  0  0  0  0  0  0  0  0  0  0
  180.4080  179.0320  141.8450 C   0  0  0  0  0  2  0  0  0  0  0  0
  181.6450  178.7880  142.2590 C   0  0  0  0  0  0  0  0  0  0  0  0
  181.9240  178.7890  143.7210 C   0  0  0  0  0  1  0  0  0  0  0  0
  1 11  1  0  0  0  0
  2  4  2  0  0  0  0
  3  7  2  0  0  0  0
  3  6  1  0  0  0  0
  4 29  1  0  0  0  0
  4 11  1  0  0  0  0
  5  8  1  0  0  0  0
  5 17  1  0  0  0  0
  6  5  2  0  0  0  0
  7 10  1  0  0  0  0
  8  1  1  0  0  0  0
 10  2  1  0  0  0  0
 10  8  2  0  0  0  0
 11  9  1  1  0  0  0
 12 23  1  1  0  0  0
 13 20  1  0  0  0  0
 14 15  1  0  0  0  0
 16 13  1  0  0  0  0
 16 18  1  1  0  0  0
 17 21  1  0  0  0  0
 17 14  1  0  0  0  0
 18 19  1  0  0  0  0
 19 12  1  0  0  0  0
 20 15  1  6  0  0  0
 20 12  1  0  0  0  0
 21 22  1  6  0  0  0
 21 16  1  0  0  0  0
 24 23  1  0  0  0  0
 25  7  1  1  0  0  0
 26 25  1  0  0  0  0
 28 27  1  6  0  0  0
 28 26  1  0  0  0  0
 28 25  1  0  0  0  0
 30 29  1  0  0  0  0
 30 33  1  0  0  0  0
 31 30  2  0  0  0  0
 32 33  2  0  0  0  0
 33 34  1  0  0  0  0
M  END
>  <MODEL>
3

>  <REMARK>
 VINA RESULT:      -7.8      2.871      6.767
  Name = 
  6 active torsions:
  status: ('A' for Active; 'I' for Inactive)
    1  A    between atoms: C_4  and  O_23
    2  A    between atoms: C_5  and  O_24
    3  A    between atoms: C_7  and  N_21
    4  A    between atoms: C_10  and  C_12
    5  A    between atoms: C_11  and  C_14
    6  A    between atoms: C_14  and  O_23
                            x       y       z     vdW  Elec       q    Type
                         _______ _______ _______ _____ _____    ______ ____

>  <TORSDO>
F 6

$$$$
=
 OpenBabel10232412343D

 34 38  0  0  1  0  0  0  0  0999 V2000
  187.2740  178.2730  140.5500 C   0  0  0  0  0  2  0  0  0  0  0  0
  188.3820  178.2270  143.1800 C   0  0  0  0  0  3  0  0  0  0  0  0
  184.7210  178.3440  143.9740 N   0  0  0  0  0  0  0  0  0  0  0  0
  189.1850  177.9110  142.1550 C   0  0  0  0  0  0  0  0  0  0  0  0
  184.9450  178.2880  141.5850 C   0  0  0  0  0  0  0  0  0  0  0  0
  184.1530  178.3110  142.7410 C   0  0  0  0  0  3  0  0  0  0  0  0
  186.0690  178.3580  144.1510 C   0  0  0  0  0  0  0  0  0  0  0  0
  186.3490  178.2640  141.7380 C   0  0  0  0  0  0  0  0  0  0  0  0
  189.5360  177.7440  139.6810 C   0  0  0  0  0  1  0  0  0  0  0  0
  186.9130  178.2940  143.0280 C   0  0  0  0  0  0  0  0  0  0  0  0
  188.5720  177.5140  140.8310 C   0  0  2  0  0  3  0  0  0  0  0  0
  183.7710  175.7980  137.0550 C   0  0  1  0  0  3  0  0  0  0  0  0
  183.4570  178.1830  137.5270 O   0  0  0  0  0  0  0  0  0  0  0  0
  182.9390  177.7810  140.1840 C   0  0  0  0  0  2  0  0  0  0  0  0
  182.9210  176.5400  139.3120 C   0  0  0  0  0  2  0  0  0  0  0  0
  184.7780  178.3660  137.8950 N   0  0  2  0  0  0  0  0  0  0  0  0
  184.3070  178.2760  140.2910 N   0  0  0  0  0  0  0  0  0  0  0  0
  185.6570  177.1820  137.8440 C   0  0  0  0  0  2  0  0  0  0  0  0
  185.2050  176.2280  136.7540 C   0  0  0  0  0  2  0  0  0  0  0  0
  182.9830  176.8720  137.8200 C   0  0  2  0  0  3  0  0  0  0  0  0
  184.8770  179.0560  139.1870 C   0  0  2  0  0  3  0  0  0  0  0  0
  184.2610  180.3070  139.1140 O   0  0  0  0  0  1  0  0  0  0  0  0
  183.0890  175.2910  135.9270 O   0  0  0  0  0  0  0  0  0  0  0  0
  182.2490  174.2400  136.3300 C   0  0  0  0  0  1  0  0  0  0  0  0
  186.6270  178.3640  145.5450 C   0  0  2  0  0  3  0  0  0  0  0  0
  186.0850  177.2330  146.3170 N   0  0  0  0  0  2  0  0  0  0  0  0
  186.1440  179.1720  147.7820 C   0  0  0  0  0  1  0  0  0  0  0  0
  185.5570  178.5880  146.5160 C   0  0  1  0  0  3  0  0  0  0  0  0
  190.5830  177.8480  142.3030 O   0  0  0  0  0  0  0  0  0  0  0  0
  191.3040  177.9760  143.5020 C   0  0  0  0  0  0  0  0  0  0  0  0
  191.7910  179.0850  143.8560 O   0  0  0  0  0  0  0  0  0  0  0  0
  191.6680  175.5840  143.8050 C   0  0  0  0  0  2  0  0  0  0  0  0
  191.5020  176.7850  144.3450 C   0  0  0  0  0  0  0  0  0  0  0  0
  191.5230  176.9130  145.8280 C   0  0  0  0  0  1  0  0  0  0  0  0
  1 11  1  0  0  0  0
  1  8  1  0  0  0  0
  3  7  1  0  0  0  0
  4 29  1  0  0  0  0
  4  2  2  0  0  0  0
  5  8  2  0  0  0  0
  5  6  1  0  0  0  0
  6  3  2  0  0  0  0
  8 10  1  0  0  0  0
 10  2  1  0  0  0  0
 10  7  2  0  0  0  0
 11  9  1  6  0  0  0
 11  4  1  0  0  0  0
 12 23  1  6  0  0  0
 12 20  1  0  0  0  0
 13 20  1  0  0  0  0
 13 16  1  0  0  0  0
 14 17  1  0  0  0  0
 15 14  1  0  0  0  0
 16 18  1  1  0  0  0
 16 21  1  0  0  0  0
 17  5  1  0  0  0  0
 19 12  1  0  0  0  0
 19 18  1  0  0  0  0
 20 15  1  1  0  0  0
 21 22  1  6  0  0  0
 21 17  1  0  0  0  0
 23 24  1  0  0  0  0
 25  7  1  6  0  0  0
 25 26  1  0  0  0  0
 25 28  1  0  0  0  0
 26 28  1  0  0  0  0
 28 27  1  1  0  0  0
 29 30  1  0  0  0  0
 30 31  2  0  0  0  0
 30 33  1  0  0  0  0
 32 33  2  0  0  0  0
 33 34  1  0  0  0  0
M  END
>  <MODEL>
4

>  <REMARK>
 VINA RESULT:      -7.7      3.000      4.659
  Name = 
  6 active torsions:
  status: ('A' for Active; 'I' for Inactive)
    1  A    between atoms: C_4  and  O_23
    2  A    between atoms: C_5  and  O_24
    3  A    between atoms: C_7  and  N_21
    4  A    between atoms: C_10  and  C_12
    5  A    between atoms: C_11  and  C_14
    6  A    between atoms: C_14  and  O_23
                            x       y       z     vdW  Elec       q    Type
                         _______ _______ _______ _____ _____    ______ ____

>  <TORSDO>
F 6

$$$$
=
 OpenBabel10232412343D

 34 38  0  0  1  0  0  0  0  0999 V2000
  189.7480  176.9990  139.5440 C   0  0  0  0  0  2  0  0  0  0  0  0
  187.6000  178.3530  140.8510 C   0  0  0  0  0  3  0  0  0  0  0  0
  186.0920  177.7660  137.4710 N   0  0  0  0  0  0  0  0  0  0  0  0
  188.5970  177.8780  141.6100 C   0  0  0  0  0  0  0  0  0  0  0  0
  188.2870  176.7940  137.4660 C   0  0  0  0  0  0  0  0  0  0  0  0
  187.0680  177.0710  136.8320 C   0  0  0  0  0  3  0  0  0  0  0  0
  186.2430  178.2250  138.7420 C   0  0  0  0  0  0  0  0  0  0  0  0
  188.4580  177.2250  138.8000 C   0  0  0  0  0  0  0  0  0  0  0  0
  190.8590  176.8090  141.7540 C   0  0  0  0  0  1  0  0  0  0  0  0
  187.4290  177.9400  139.4430 C   0  0  0  0  0  0  0  0  0  0  0  0
  189.5160  176.8170  141.0450 C   0  0  2  0  0  3  0  0  0  0  0  0
  192.8420  174.0840  137.4300 C   0  0  1  0  0  3  0  0  0  0  0  0
  191.6510  174.9530  135.4710 O   0  0  0  0  0  0  0  0  0  0  0  0
  189.1780  174.6280  136.5960 C   0  0  0  0  0  2  0  0  0  0  0  0
  190.3260  173.9410  137.3120 C   0  0  0  0  0  2  0  0  0  0  0  0
  191.6170  176.2450  135.9660 N   0  0  2  0  0  0  0  0  0  0  0  0
  189.3090  176.0730  136.7480 N   0  0  0  0  0  0  0  0  0  0  0  0
  192.2350  176.4720  137.2860 C   0  0  0  0  0  2  0  0  0  0  0  0
  193.3850  175.5080  137.5110 C   0  0  0  0  0  2  0  0  0  0  0  0
  191.6230  173.9710  136.5020 C   0  0  2  0  0  3  0  0  0  0  0  0
  190.2610  176.8010  135.9010 C   0  0  2  0  0  3  0  0  0  0  0  0
  189.8090  176.8220  134.5800 O   0  0  0  0  0  1  0  0  0  0  0  0
  193.8390  173.1170  137.1750 O   0  0  0  0  0  0  0  0  0  0  0  0
  194.9040  173.3060  138.0720 C   0  0  0  0  0  1  0  0  0  0  0  0
  185.1090  178.9600  139.3970 C   0  0  2  0  0  3  0  0  0  0  0  0
  184.0930  178.0090  139.8790 N   0  0  0  0  0  2  0  0  0  0  0  0
  182.9300  179.9130  138.9130 C   0  0  0  0  0  1  0  0  0  0  0  0
  183.8750  178.7630  138.6380 C   0  0  1  0  0  3  0  0  0  0  0  0
  188.7590  178.2720  142.9510 O   0  0  0  0  0  0  0  0  0  0  0  0
  188.2320  177.6250  144.0830 C   0  0  0  0  0  0  0  0  0  0  0  0
  187.1090  177.0520  144.0430 O   0  0  0  0  0  0  0  0  0  0  0  0
  190.3340  177.6320  145.3180 C   0  0  0  0  0  2  0  0  0  0  0  0
  189.0070  177.6360  145.3350 C   0  0  0  0  0  0  0  0  0  0  0  0
  188.3060  177.6550  146.6480 C   0  0  0  0  0  1  0  0  0  0  0  0
  1 11  1  0  0  0  0
  2  4  2  0  0  0  0
  3  7  1  0  0  0  0
  4 29  1  0  0  0  0
  5  8  2  0  0  0  0
  6  5  1  0  0  0  0
  6  3  2  0  0  0  0
  7 10  2  0  0  0  0
  8 10  1  0  0  0  0
  8  1  1  0  0  0  0
 10  2  1  0  0  0  0
 11  4  1  0  0  0  0
 11  9  1  1  0  0  0
 12 23  1  6  0  0  0
 12 19  1  0  0  0  0
 13 16  1  0  0  0  0
 13 20  1  0  0  0  0
 14 17  1  0  0  0  0
 14 15  1  0  0  0  0
 16 18  1  1  0  0  0
 17  5  1  0  0  0  0
 18 19  1  0  0  0  0
 20 15  1  1  0  0  0
 20 12  1  0  0  0  0
 21 22  1  6  0  0  0
 21 16  1  0  0  0  0
 21 17  1  0  0  0  0
 23 24  1  0  0  0  0
 25  7  1  6  0  0  0
 25 26  1  0  0  0  0
 28 27  1  1  0  0  0
 28 25  1  0  0  0  0
 28 26  1  0  0  0  0
 29 30  1  0  0  0  0
 30 33  1  0  0  0  0
 31 30  2  0  0  0  0
 32 33  2  0  0  0  0
 33 34  1  0  0  0  0
M  END
>  <MODEL>
5

>  <REMARK>
 VINA RESULT:      -7.7      2.173      3.112
  Name = 
  6 active torsions:
  status: ('A' for Active; 'I' for Inactive)
    1  A    between atoms: C_4  and  O_23
    2  A    between atoms: C_5  and  O_24
    3  A    between atoms: C_7  and  N_21
    4  A    between atoms: C_10  and  C_12
    5  A    between atoms: C_11  and  C_14
    6  A    between atoms: C_14  and  O_23
                            x       y       z     vdW  Elec       q    Type
                         _______ _______ _______ _____ _____    ______ ____

>  <TORSDO>
F 6

$$$$
=
 OpenBabel10232412343D

 34 38  0  0  1  0  0  0  0  0999 V2000
  187.8030  178.6250  142.6750 C   0  0  0  0  0  2  0  0  0  0  0  0
  186.5990  178.4100  140.0950 C   0  0  0  0  0  3  0  0  0  0  0  0
  190.0800  177.2520  139.3310 N   0  0  0  0  0  0  0  0  0  0  0  0
  185.7910  178.5570  141.1550 C   0  0  0  0  0  0  0  0  0  0  0  0
  189.9730  177.7320  141.6810 C   0  0  0  0  0  0  0  0  0  0  0  0
  190.6740  177.2880  140.5510 C   0  0  0  0  0  3  0  0  0  0  0  0
  188.7910  177.6410  139.1420 C   0  0  0  0  0  0  0  0  0  0  0  0
  188.6200  178.1060  141.5220 C   0  0  0  0  0  0  0  0  0  0  0  0
  185.5340  178.9880  143.6090 C   0  0  0  0  0  1  0  0  0  0  0  0
  188.0250  178.0550  140.2460 C   0  0  0  0  0  0  0  0  0  0  0  0
  186.3240  178.2570  142.5380 C   0  0  2  0  0  3  0  0  0  0  0  0
  190.6110  175.8970  146.6130 C   0  0  1  0  0  3  0  0  0  0  0  0
  191.5660  177.9590  145.6930 O   0  0  0  0  0  0  0  0  0  0  0  0
  191.8180  176.9380  143.1670 C   0  0  0  0  0  2  0  0  0  0  0  0
  191.5250  175.9290  144.2620 C   0  0  0  0  0  2  0  0  0  0  0  0
  190.3350  178.4430  145.2880 N   0  0  2  0  0  0  0  0  0  0  0  0
  190.6430  177.7780  142.9570 N   0  0  0  0  0  0  0  0  0  0  0  0
  189.1600  177.5940  145.5590 C   0  0  0  0  0  2  0  0  0  0  0  0
  189.3750  176.7700  146.8160 C   0  0  0  0  0  2  0  0  0  0  0  0
  191.6330  176.5370  145.6620 C   0  0  2  0  0  3  0  0  0  0  0  0
  190.3730  178.8800  143.8870 C   0  0  2  0  0  3  0  0  0  0  0  0
  191.3220  179.8910  143.7220 O   0  0  0  0  0  1  0  0  0  0  0  0
  191.1740  175.4340  147.8220 O   0  0  0  0  0  0  0  0  0  0  0  0
  192.5400  175.7630  147.8510 C   0  0  0  0  0  1  0  0  0  0  0  0
  188.1900  177.5460  137.7690 C   0  0  2  0  0  3  0  0  0  0  0  0
  187.7820  176.1600  137.4840 N   0  0  0  0  0  2  0  0  0  0  0  0
  188.7810  177.0710  135.4630 C   0  0  0  0  0  1  0  0  0  0  0  0
  189.0210  176.7020  136.9110 C   0  0  1  0  0  3  0  0  0  0  0  0
  184.4330  178.8950  141.0090 O   0  0  0  0  0  0  0  0  0  0  0  0
  183.7660  179.1780  139.8050 C   0  0  0  0  0  0  0  0  0  0  0  0
  183.9160  180.2860  139.2200 O   0  0  0  0  0  0  0  0  0  0  0  0
  182.6040  177.0360  139.8830 C   0  0  0  0  0  2  0  0  0  0  0  0
  182.8660  178.1630  139.2330 C   0  0  0  0  0  0  0  0  0  0  0  0
  182.2300  178.3890  137.9060 C   0  0  0  0  0  1  0  0  0  0  0  0
  2 10  1  0  0  0  0
  2  4  2  0  0  0  0
  3  6  1  0  0  0  0
  4 11  1  0  0  0  0
  5 17  1  0  0  0  0
  6  5  2  0  0  0  0
  7  3  2  0  0  0  0
  7 10  1  0  0  0  0
  8  5  1  0  0  0  0
  8  1  1  0  0  0  0
 10  8  2  0  0  0  0
 11  1  1  0  0  0  0
 11  9  1  1  0  0  0
 12 19  1  0  0  0  0
 12 23  1  1  0  0  0
 14 15  1  0  0  0  0
 16 18  1  6  0  0  0
 16 13  1  0  0  0  0
 17 14  1  0  0  0  0
 17 21  1  0  0  0  0
 18 19  1  0  0  0  0
 20 15  1  6  0  0  0
 20 13  1  0  0  0  0
 20 12  1  0  0  0  0
 21 22  1  1  0  0  0
 21 16  1  0  0  0  0
 23 24  1  0  0  0  0
 25  7  1  1  0  0  0
 26 25  1  0  0  0  0
 28 27  1  6  0  0  0
 28 26  1  0  0  0  0
 28 25  1  0  0  0  0
 29  4  1  0  0  0  0
 30 29  1  0  0  0  0
 31 30  2  0  0  0  0
 33 30  1  0  0  0  0
 33 32  2  0  0  0  0
 34 33  1  0  0  0  0
M  END
>  <MODEL>
6

>  <REMARK>
 VINA RESULT:      -7.5      3.155      7.527
  Name = 
  6 active torsions:
  status: ('A' for Active; 'I' for Inactive)
    1  A    between atoms: C_4  and  O_23
    2  A    between atoms: C_5  and  O_24
    3  A    between atoms: C_7  and  N_21
    4  A    between atoms: C_10  and  C_12
    5  A    between atoms: C_11  and  C_14
    6  A    between atoms: C_14  and  O_23
                            x       y       z     vdW  Elec       q    Type
                         _______ _______ _______ _____ _____    ______ ____

>  <TORSDO>
F 6

$$$$
=
 OpenBabel10232412343D

 34 38  0  0  1  0  0  0  0  0999 V2000
  184.2840  178.3710  143.0870 C   0  0  0  0  0  2  0  0  0  0  0  0
  186.7580  177.8880  144.4270 C   0  0  0  0  0  3  0  0  0  0  0  0
  187.9150  178.0160  140.8640 N   0  0  0  0  0  0  0  0  0  0  0  0
  185.7110  178.2810  145.1650 C   0  0  0  0  0  0  0  0  0  0  0  0
  185.5500  178.4270  140.8750 C   0  0  0  0  0  0  0  0  0  0  0  0
  186.7690  178.3010  140.1950 C   0  0  0  0  0  3  0  0  0  0  0  0
  187.9420  177.8390  142.2120 C   0  0  0  0  0  0  0  0  0  0  0  0
  185.5530  178.2850  142.2810 C   0  0  0  0  0  0  0  0  0  0  0  0
  183.2640  178.8010  145.3070 C   0  0  0  0  0  1  0  0  0  0  0  0
  186.7560  177.9950  142.9530 C   0  0  0  0  0  0  0  0  0  0  0  0
  184.5330  178.9420  144.4840 C   0  0  2  0  0  3  0  0  0  0  0  0
  181.3630  176.7470  138.0930 C   0  0  1  0  0  3  0  0  0  0  0  0
  182.1540  179.0600  138.2760 O   0  0  0  0  0  0  0  0  0  0  0  0
  183.0720  178.7420  140.8340 C   0  0  0  0  0  2  0  0  0  0  0  0
  182.1780  177.6340  140.3100 C   0  0  0  0  0  2  0  0  0  0  0  0
  183.4350  178.7390  137.8630 N   0  0  2  0  0  0  0  0  0  0  0  0
  184.3480  178.7070  140.1290 N   0  0  0  0  0  0  0  0  0  0  0  0
  183.7000  177.3220  137.5460 C   0  0  0  0  0  2  0  0  0  0  0  0
  182.4460  176.6480  137.0220 C   0  0  0  0  0  2  0  0  0  0  0  0
  181.5210  177.9940  138.9760 C   0  0  2  0  0  3  0  0  0  0  0  0
  184.4410  179.2840  138.7830 C   0  0  2  0  0  3  0  0  0  0  0  0
  184.3330  180.6740  138.8470 O   0  0  0  0  0  1  0  0  0  0  0  0
  180.0560  176.5740  137.5860 O   0  0  0  0  0  0  0  0  0  0  0  0
  179.9960  177.0880  136.2800 C   0  0  0  0  0  1  0  0  0  0  0  0
  189.2520  177.5560  142.8900 C   0  0  2  0  0  3  0  0  0  0  0  0
  190.0510  178.7890  142.9930 N   0  0  0  0  0  2  0  0  0  0  0  0
  191.5570  176.9740  142.4030 C   0  0  0  0  0  1  0  0  0  0  0  0
  190.3590  177.7880  141.9640 C   0  0  1  0  0  3  0  0  0  0  0  0
  185.7140  178.1780  146.5680 O   0  0  0  0  0  0  0  0  0  0  0  0
  186.5660  178.8590  147.4550 C   0  0  0  0  0  0  0  0  0  0  0  0
  186.3050  180.0310  147.8410 O   0  0  0  0  0  0  0  0  0  0  0  0
  187.8760  177.7020  149.1540 C   0  0  0  0  0  2  0  0  0  0  0  0
  187.7910  178.1880  147.9230 C   0  0  0  0  0  0  0  0  0  0  0  0
  188.9590  178.0420  147.0120 C   0  0  0  0  0  1  0  0  0  0  0  0
  1 11  1  0  0  0  0
  2  4  2  0  0  0  0
  3  7  1  0  0  0  0
  4 29  1  0  0  0  0
  5  8  2  0  0  0  0
  6  3  2  0  0  0  0
  6  5  1  0  0  0  0
  7 10  2  0  0  0  0
  8 10  1  0  0  0  0
  8  1  1  0  0  0  0
 10  2  1  0  0  0  0
 11  4  1  0  0  0  0
 11  9  1  1  0  0  0
 12 23  1  6  0  0  0
 12 20  1  0  0  0  0
 13 20  1  0  0  0  0
 15 14  1  0  0  0  0
 16 18  1  1  0  0  0
 16 13  1  0  0  0  0
 16 21  1  0  0  0  0
 17 14  1  0  0  0  0
 17  5  1  0  0  0  0
 19 18  1  0  0  0  0
 19 12  1  0  0  0  0
 20 15  1  1  0  0  0
 21 22  1  1  0  0  0
 21 17  1  0  0  0  0
 24 23  1  0  0  0  0
 25  7  1  6  0  0  0
 25 26  1  0  0  0  0
 28 27  1  1  0  0  0
 28 25  1  0  0  0  0
 28 26  1  0  0  0  0
 29 30  1  0  0  0  0
 30 31  2  0  0  0  0
 30 33  1  0  0  0  0
 33 32  2  0  0  0  0
 34 33  1  0  0  0  0
M  END
>  <MODEL>
7

>  <REMARK>
 VINA RESULT:      -7.5      3.543      6.023
  Name = 
  6 active torsions:
  status: ('A' for Active; 'I' for Inactive)
    1  A    between atoms: C_4  and  O_23
    2  A    between atoms: C_5  and  O_24
    3  A    between atoms: C_7  and  N_21
    4  A    between atoms: C_10  and  C_12
    5  A    between atoms: C_11  and  C_14
    6  A    between atoms: C_14  and  O_23
                            x       y       z     vdW  Elec       q    Type
                         _______ _______ _______ _____ _____    ______ ____

>  <TORSDO>
F 6

$$$$
=
 OpenBabel10232412343D

 34 38  0  0  1  0  0  0  0  0999 V2000
  184.9700  178.7230  139.5530 C   0  0  0  0  0  2  0  0  0  0  0  0
  187.1320  178.5690  141.4110 C   0  0  0  0  0  3  0  0  0  0  0  0
  184.2030  178.3820  143.7420 N   0  0  0  0  0  0  0  0  0  0  0  0
  187.4060  178.3800  140.1140 C   0  0  0  0  0  0  0  0  0  0  0  0
  183.3440  178.5090  141.5040 C   0  0  0  0  0  0  0  0  0  0  0  0
  183.1480  178.3970  142.8880 C   0  0  0  0  0  3  0  0  0  0  0  0
  185.4880  178.4760  143.3080 C   0  0  0  0  0  0  0  0  0  0  0  0
  184.6710  178.5690  141.0210 C   0  0  0  0  0  0  0  0  0  0  0  0
  186.6260  178.4100  137.7330 C   0  0  0  0  0  1  0  0  0  0  0  0
  185.7480  178.5470  141.9280 C   0  0  0  0  0  0  0  0  0  0  0  0
  186.2800  178.0360  139.1630 C   0  0  2  0  0  3  0  0  0  0  0  0
  181.1980  179.5740  136.7760 C   0  0  1  0  0  3  0  0  0  0  0  0
  179.9830  179.0730  138.8450 O   0  0  0  0  0  0  0  0  0  0  0  0
  181.9150  177.3830  139.7920 C   0  0  0  0  0  2  0  0  0  0  0  0
  182.0370  177.7740  138.3310 C   0  0  0  0  0  2  0  0  0  0  0  0
  180.6220  180.0720  139.5570 N   0  0  2  0  0  0  0  0  0  0  0  0
  182.1990  178.5440  140.6280 N   0  0  0  0  0  0  0  0  0  0  0  0
  181.6220  180.8770  138.8300 C   0  0  0  0  0  2  0  0  0  0  0  0
  181.2560  180.9840  137.3610 C   0  0  0  0  0  2  0  0  0  0  0  0
  180.8030  178.5200  137.8200 C   0  0  2  0  0  3  0  0  0  0  0  0
  181.1590  179.5600  140.8240 C   0  0  2  0  0  3  0  0  0  0  0  0
  180.1270  179.0460  141.6130 O   0  0  0  0  0  1  0  0  0  0  0  0
  180.4520  179.4950  135.5800 O   0  0  0  0  0  0  0  0  0  0  0  0
  180.6790  180.6520  134.8170 C   0  0  0  0  0  1  0  0  0  0  0  0
  186.6070  178.4220  144.3090 C   0  0  2  0  0  3  0  0  0  0  0  0
  187.0130  177.0270  144.5480 N   0  0  0  0  0  2  0  0  0  0  0  0
  187.0190  178.1790  146.6880 C   0  0  0  0  0  1  0  0  0  0  0  0
  186.1680  177.7310  145.5200 C   0  0  1  0  0  3  0  0  0  0  0  0
  188.7250  178.4020  139.6240 O   0  0  0  0  0  0  0  0  0  0  0  0
  189.6110  177.3130  139.5580 C   0  0  0  0  0  0  0  0  0  0  0  0
  189.5830  176.5070  138.5870 O   0  0  0  0  0  0  0  0  0  0  0  0
  190.2010  176.5540  141.7980 C   0  0  0  0  0  2  0  0  0  0  0  0
  190.5740  177.1100  140.6520 C   0  0  0  0  0  0  0  0  0  0  0  0
  191.9940  177.5260  140.4870 C   0  0  0  0  0  1  0  0  0  0  0  0
  1  8  1  0  0  0  0
  2 10  1  0  0  0  0
  4  2  2  0  0  0  0
  5  6  1  0  0  0  0
  6  3  2  0  0  0  0
  7  3  1  0  0  0  0
  8  5  2  0  0  0  0
  8 10  1  0  0  0  0
 10  7  2  0  0  0  0
 11  9  1  6  0  0  0
 11  1  1  0  0  0  0
 11  4  1  0  0  0  0
 12 23  1  6  0  0  0
 12 19  1  0  0  0  0
 12 20  1  0  0  0  0
 13 16  1  0  0  0  0
 14 17  1  0  0  0  0
 15 14  1  0  0  0  0
 16 18  1  6  0  0  0
 16 21  1  0  0  0  0
 17 21  1  0  0  0  0
 17  5  1  0  0  0  0
 19 18  1  0  0  0  0
 20 15  1  1  0  0  0
 20 13  1  0  0  0  0
 21 22  1  1  0  0  0
 24 23  1  0  0  0  0
 25  7  1  6  0  0  0
 25 26  1  0  0  0  0
 25 28  1  0  0  0  0
 26 28  1  0  0  0  0
 28 27  1  1  0  0  0
 29  4  1  0  0  0  0
 30 29  1  0  0  0  0
 30 33  1  0  0  0  0
 31 30  2  0  0  0  0
 33 32  2  0  0  0  0
 34 33  1  0  0  0  0
M  END
>  <MODEL>
8

>  <REMARK>
 VINA RESULT:      -7.4      4.007      7.157
  Name = 
  6 active torsions:
  status: ('A' for Active; 'I' for Inactive)
    1  A    between atoms: C_4  and  O_23
    2  A    between atoms: C_5  and  O_24
    3  A    between atoms: C_7  and  N_21
    4  A    between atoms: C_10  and  C_12
    5  A    between atoms: C_11  and  C_14
    6  A    between atoms: C_14  and  O_23
                            x       y       z     vdW  Elec       q    Type
                         _______ _______ _______ _____ _____    ______ ____

>  <TORSDO>
F 6

$$$$
=
 OpenBabel10232412343D

 34 38  0  0  1  0  0  0  0  0999 V2000
  188.2740  177.2360  139.4910 C   0  0  0  0  0  2  0  0  0  0  0  0
  191.0120  176.8570  140.2050 C   0  0  0  0  0  3  0  0  0  0  0  0
  191.1580  176.1730  136.5230 N   0  0  0  0  0  0  0  0  0  0  0  0
  190.2110  177.4670  141.0900 C   0  0  0  0  0  0  0  0  0  0  0  0
  188.8910  176.7480  137.0670 C   0  0  0  0  0  0  0  0  0  0  0  0
  189.8770  176.3980  136.1330 C   0  0  0  0  0  3  0  0  0  0  0  0
  191.5470  176.2720  137.8220 C   0  0  0  0  0  0  0  0  0  0  0  0
  189.2750  176.8960  138.4180 C   0  0  0  0  0  0  0  0  0  0  0  0
  187.9040  178.1810  141.7540 C   0  0  0  0  0  1  0  0  0  0  0  0
  190.6110  176.6620  138.7960 C   0  0  0  0  0  0  0  0  0  0  0  0
  188.9020  178.0590  140.6170 C   0  0  2  0  0  3  0  0  0  0  0  0
  183.6700  176.5710  137.9630 C   0  0  1  0  0  3  0  0  0  0  0  0
  184.7620  176.9210  135.7970 O   0  0  0  0  0  0  0  0  0  0  0  0
  186.9000  178.2450  136.8770 C   0  0  0  0  0  2  0  0  0  0  0  0
  185.7120  178.0430  137.7990 C   0  0  0  0  0  2  0  0  0  0  0  0
  185.5230  175.7700  135.9050 N   0  0  2  0  0  0  0  0  0  0  0  0
  187.5360  176.9570  136.6190 N   0  0  0  0  0  0  0  0  0  0  0  0
  185.3500  174.9660  137.1300 C   0  0  0  0  0  2  0  0  0  0  0  0
  183.9340  175.0980  137.6590 C   0  0  0  0  0  2  0  0  0  0  0  0
  184.4820  177.5120  137.0610 C   0  0  2  0  0  3  0  0  0  0  0  0
  186.9400  176.0450  135.6370 C   0  0  2  0  0  3  0  0  0  0  0  0
  187.0970  176.5590  134.3480 O   0  0  0  0  0  1  0  0  0  0  0  0
  182.2960  176.8930  138.0280 O   0  0  0  0  0  0  0  0  0  0  0  0
  182.1230  178.2460  137.6930 C   0  0  0  0  0  1  0  0  0  0  0  0
  192.9880  176.0390  138.1760 C   0  0  2  0  0  3  0  0  0  0  0  0
  193.8620  176.8850  137.3460 N   0  0  0  0  0  2  0  0  0  0  0  0
  194.9090  174.6990  137.5400 C   0  0  0  0  0  1  0  0  0  0  0  0
  193.7000  175.4580  137.0390 C   0  0  1  0  0  3  0  0  0  0  0  0
  190.5950  177.6520  142.4310 O   0  0  0  0  0  0  0  0  0  0  0  0
  190.6380  176.6670  143.4330 C   0  0  0  0  0  0  0  0  0  0  0  0
  190.6840  175.4410  143.1410 O   0  0  0  0  0  0  0  0  0  0  0  0
  191.5520  176.6850  145.6920 C   0  0  0  0  0  2  0  0  0  0  0  0
  190.6130  177.0850  144.8440 C   0  0  0  0  0  0  0  0  0  0  0  0
  189.5270  177.9720  145.3430 C   0  0  0  0  0  1  0  0  0  0  0  0
  1 11  1  0  0  0  0
  2  4  2  0  0  0  0
  3  7  1  0  0  0  0
  4 29  1  0  0  0  0
  5  8  2  0  0  0  0
  6  3  2  0  0  0  0
  6  5  1  0  0  0  0
  7 10  2  0  0  0  0
  8 10  1  0  0  0  0
  8  1  1  0  0  0  0
 10  2  1  0  0  0  0
 11  4  1  0  0  0  0
 11  9  1  1  0  0  0
 12 23  1  6  0  0  0
 13 16  1  0  0  0  0
 13 20  1  0  0  0  0
 14 15  1  0  0  0  0
 16 18  1  1  0  0  0
 17 14  1  0  0  0  0
 17  5  1  0  0  0  0
 18 19  1  0  0  0  0
 19 12  1  0  0  0  0
 20 15  1  1  0  0  0
 20 12  1  0  0  0  0
 21 22  1  6  0  0  0
 21 16  1  0  0  0  0
 21 17  1  0  0  0  0
 24 23  1  0  0  0  0
 25  7  1  6  0  0  0
 26 25  1  0  0  0  0
 28 26  1  0  0  0  0
 28 27  1  1  0  0  0
 28 25  1  0  0  0  0
 29 30  1  0  0  0  0
 30 33  1  0  0  0  0
 31 30  2  0  0  0  0
 33 34  1  0  0  0  0
 33 32  2  0  0  0  0
M  END
>  <MODEL>
9

>  <REMARK>
 VINA RESULT:      -7.2      3.107      6.506
  Name = 
  6 active torsions:
  status: ('A' for Active; 'I' for Inactive)
    1  A    between atoms: C_4  and  O_23
    2  A    between atoms: C_5  and  O_24
    3  A    between atoms: C_7  and  N_21
    4  A    between atoms: C_10  and  C_12
    5  A    between atoms: C_11  and  C_14
    6  A    between atoms: C_14  and  O_23
                            x       y       z     vdW  Elec       q    Type
                         _______ _______ _______ _____ _____    ______ ____

>  <TORSDO>
F 6

$$$$
