=
 OpenBabel10232408183D

 32 36  0  0  1  0  0  0  0  0999 V2000
  189.2790  177.3730  140.4470 C   0  0  0  0  0  2  0  0  0  0  0  0
  181.9870  178.5920  141.4250 N   0  0  0  0  0  0  0  0  0  0  0  0
  185.5150  178.8410  142.4170 C   0  0  0  0  0  0  0  0  0  0  0  0
  186.8850  178.0580  138.0170 C   0  0  0  0  0  0  0  0  0  0  0  0
  184.4560  178.6750  141.5430 C   0  0  0  0  0  0  0  0  0  0  0  0
  182.9420  178.9470  143.3710 C   0  0  0  0  0  0  0  0  0  0  0  0
  186.4560  177.8040  136.8100 C   0  0  0  0  0  3  0  0  0  0  0  0
  186.8050  178.7350  141.6930 C   0  0  1  0  0  3  0  0  0  0  0  0
  185.3080  179.0710  143.7960 C   0  0  0  0  0  3  0  0  0  0  0  0
  187.3120  178.3090  139.2260 C   0  0  0  0  0  0  0  0  0  0  0  0
  183.1650  178.7310  142.0480 C   0  0  0  0  0  0  0  0  0  0  0  0
  181.0710  178.7260  142.3840 N   0  0  0  0  0  2  0  0  0  0  0  0
  187.5410  177.5740  142.1740 N   0  0  0  0  0  2  0  0  0  0  0  0
  183.9840  179.1250  144.2920 C   0  0  0  0  0  3  0  0  0  0  0  0
  188.9570  177.7850  141.8820 C   0  0  1  0  0  3  0  0  0  0  0  0
  184.9250  178.4530  140.1590 C   0  0  0  0  0  2  0  0  0  0  0  0
  188.7880  178.4190  139.4540 C   0  0  0  0  0  2  0  0  0  0  0  0
  186.3840  178.5050  140.3060 N   0  0  0  0  0  0  0  0  0  0  0  0
  181.6190  178.9430  143.5800 N   0  0  0  0  0  0  0  0  0  0  0  0
  186.8440  176.7520  134.7150 O   0  0  0  0  0  0  0  0  0  0  0  0
  187.1150  176.8200  135.9440 C   0  0  0  0  0  0  0  0  0  0  0  0
  188.1170  175.8920  136.5270 C   0  0  0  0  0  1  0  0  0  0  0  0
  190.0430  175.7010  142.3920 O   0  0  0  0  0  1  0  0  0  0  0  0
  189.8190  176.9980  142.8630 C   0  0  2  0  0  3  0  0  0  0  0  0
  189.8260  177.2250  145.3890 C   0  0  0  0  0  0  0  0  0  0  0  0
  189.1540  176.9420  144.1580 N   0  0  0  0  0  2  0  0  0  0  0  0
  191.0270  177.6070  145.3900 O   0  0  0  0  0  0  0  0  0  0  0  0
  187.4120  178.0980  147.9410 C   0  0  0  0  0  2  0  0  0  0  0  0
  188.7580  178.0670  148.6410 C   0  0  0  0  0  2  0  0  0  0  0  0
  187.6960  177.5530  146.5740 C   0  0  0  0  0  2  0  0  0  0  0  0
  189.1120  177.0460  146.6850 C   0  0  2  0  0  3  0  0  0  0  0  0
  189.7580  177.7630  147.7020 O   0  0  0  0  0  0  0  0  0  0  0  0
  1 15  1  0  0  0  0
  2 11  2  0  0  0  0
  2 12  1  0  0  0  0
  3  9  1  0  0  0  0
  4 10  2  0  0  0  0
  5 11  1  0  0  0  0
  5  3  2  0  0  0  0
  6 19  2  0  0  0  0
  6 14  1  0  0  0  0
  7  4  2  0  0  0  0
  8 13  1  1  0  0  0
  8  3  1  0  0  0  0
  9 14  2  0  0  0  0
 10 17  1  0  0  0  0
 10 18  1  0  0  0  0
 11  6  1  0  0  0  0
 12 19  1  0  0  0  0
 15 13  1  0  0  0  0
 15 24  1  1  0  0  0
 16 18  1  0  0  0  0
 16  5  1  0  0  0  0
 17  1  1  0  0  0  0
 18  8  1  0  0  0  0
 20 21  2  0  0  0  0
 21 22  1  0  0  0  0
 21  7  1  0  0  0  0
 24 23  1  6  0  0  0
 24 26  1  0  0  0  0
 25 27  2  0  0  0  0
 26 25  1  0  0  0  0
 28 29  1  0  0  0  0
 30 31  1  0  0  0  0
 30 28  1  0  0  0  0
 31 25  1  6  0  0  0
 31 32  1  0  0  0  0
 32 29  1  0  0  0  0
M  END
>  <MODEL>
1

>  <REMARK>
 VINA RESULT:      -9.6      0.000      0.000
  Name = 
  4 active torsions:
  status: ('A' for Active; 'I' for Inactive)
    1  A    between atoms: C_3  and  C_13
    2  A    between atoms: N_7  and  C_23
    3  A    between atoms: C_15  and  C_22
    4  A    between atoms: C_23  and  C_27
                            x       y       z     vdW  Elec       q    Type
                         _______ _______ _______ _____ _____    ______ ____

>  <TORSDO>
F 4

$$$$
=
 OpenBabel10232408183D

 32 36  0  0  1  0  0  0  0  0999 V2000
  190.8100  176.6420  140.7770 C   0  0  0  0  0  2  0  0  0  0  0  0
  184.0790  178.3890  138.0830 N   0  0  0  0  0  0  0  0  0  0  0  0
  186.7530  178.5650  140.5970 C   0  0  0  0  0  0  0  0  0  0  0  0
  189.9040  177.1370  137.4540 C   0  0  0  0  0  0  0  0  0  0  0  0
  186.2060  178.3470  139.3450 C   0  0  0  0  0  0  0  0  0  0  0  0
  184.0600  178.9410  140.2090 C   0  0  0  0  0  0  0  0  0  0  0  0
  190.0560  176.7520  136.2160 C   0  0  0  0  0  3  0  0  0  0  0  0
  188.2100  178.2930  140.5800 C   0  0  1  0  0  3  0  0  0  0  0  0
  185.9580  178.9850  141.6880 C   0  0  0  0  0  3  0  0  0  0  0  0
  189.7480  177.5190  138.6940 C   0  0  0  0  0  0  0  0  0  0  0  0
  184.8430  178.5420  139.1740 C   0  0  2  0  0  3  0  0  0  0  0  0
  182.8450  178.6990  138.4800 N   0  0  0  0  0  0  0  0  0  0  0  0
  188.5060  177.1660  141.4540 N   0  0  0  0  0  2  0  0  0  0  0  0
  184.5700  179.1800  141.4930 C   0  0  0  0  0  3  0  0  0  0  0  0
  189.9100  177.2560  141.8460 C   0  0  1  0  0  3  0  0  0  0  0  0
  187.2330  177.9190  138.3730 C   0  0  0  0  0  2  0  0  0  0  0  0
  190.9540  177.5750  139.5810 C   0  0  0  0  0  2  0  0  0  0  0  0
  188.4550  177.9080  139.1860 N   0  0  0  0  0  0  0  0  0  0  0  0
  182.7990  179.0390  139.7680 N   0  0  0  0  0  0  0  0  0  0  0  0
  191.9300  175.7950  135.1120 O   0  0  0  0  0  0  0  0  0  0  0  0
  190.9270  175.6270  135.8550 C   0  0  0  0  0  0  0  0  0  0  0  0
  190.6180  174.2710  136.3760 C   0  0  0  0  0  1  0  0  0  0  0  0
  190.5010  175.2240  142.9890 O   0  0  0  0  0  1  0  0  0  0  0  0
  190.1260  176.5570  143.1840 C   0  0  2  0  0  3  0  0  0  0  0  0
  188.7610  177.4260  145.1370 C   0  0  0  0  0  0  0  0  0  0  0  0
  188.9000  176.6140  143.9680 N   0  0  0  0  0  2  0  0  0  0  0  0
  189.6950  178.1900  145.5000 O   0  0  0  0  0  0  0  0  0  0  0  0
  185.4010  178.4010  146.0610 C   0  0  0  0  0  2  0  0  0  0  0  0
  186.2410  178.5900  147.3090 C   0  0  0  0  0  2  0  0  0  0  0  0
  186.3180  177.7080  145.1010 C   0  0  0  0  0  2  0  0  0  0  0  0
  187.5140  177.3550  145.9500 C   0  0  2  0  0  3  0  0  0  0  0  0
  187.5760  178.2590  147.0200 O   0  0  0  0  0  0  0  0  0  0  0  0
  1 15  1  0  0  0  0
  2 12  2  0  0  0  0
  3  9  1  0  0  0  0
  4 10  2  0  0  0  0
  5  3  2  0  0  0  0
  6 14  1  0  0  0  0
  7  4  2  0  0  0  0
  8  3  1  6  0  0  0
  8 13  1  0  0  0  0
 10 18  1  0  0  0  0
 10 17  1  0  0  0  0
 11  2  1  1  0  0  0
 11  5  1  0  0  0  0
 11  6  1  0  0  0  0
 12 19  1  0  0  0  0
 13 15  1  0  0  0  0
 14  9  2  0  0  0  0
 15 24  1  1  0  0  0
 16 18  1  0  0  0  0
 16  5  1  0  0  0  0
 17  1  1  0  0  0  0
 18  8  1  0  0  0  0
 19  6  2  0  0  0  0
 20 21  2  0  0  0  0
 21  7  1  0  0  0  0
 21 22  1  0  0  0  0
 24 23  1  6  0  0  0
 24 26  1  0  0  0  0
 25 27  2  0  0  0  0
 26 25  1  0  0  0  0
 28 29  1  0  0  0  0
 30 31  1  0  0  0  0
 30 28  1  0  0  0  0
 31 25  1  6  0  0  0
 31 32  1  0  0  0  0
 32 29  1  0  0  0  0
M  END
>  <MODEL>
2

>  <REMARK>
 VINA RESULT:      -8.6      2.013      2.764
  Name = 
  4 active torsions:
  status: ('A' for Active; 'I' for Inactive)
    1  A    between atoms: C_3  and  C_13
    2  A    between atoms: N_7  and  C_23
    3  A    between atoms: C_15  and  C_22
    4  A    between atoms: C_23  and  C_27
                            x       y       z     vdW  Elec       q    Type
                         _______ _______ _______ _____ _____    ______ ____

>  <TORSDO>
F 4

$$$$
=
 OpenBabel10232408183D

 32 36  0  0  1  0  0  0  0  0999 V2000
  188.8520  177.4960  139.2430 C   0  0  0  0  0  2  0  0  0  0  0  0
  188.3890  177.1540  146.6780 N   0  0  0  0  0  0  0  0  0  0  0  0
  190.2330  177.4980  143.5190 C   0  0  0  0  0  0  0  0  0  0  0  0
  186.3190  178.7330  141.2830 C   0  0  0  0  0  0  0  0  0  0  0  0
  189.1280  177.5400  144.3490 C   0  0  0  0  0  0  0  0  0  0  0  0
  190.5050  176.8420  146.1720 C   0  0  0  0  0  0  0  0  0  0  0  0
  185.0350  178.9190  141.4320 C   0  0  0  0  0  3  0  0  0  0  0  0
  189.8570  177.8770  142.1360 C   0  0  1  0  0  3  0  0  0  0  0  0
  191.5090  177.1290  144.0040 C   0  0  0  0  0  3  0  0  0  0  0  0
  187.6030  178.5430  141.1360 C   0  0  0  0  0  0  0  0  0  0  0  0
  189.2890  177.2040  145.6860 C   0  0  0  0  0  0  0  0  0  0  0  0
  189.0790  176.7620  147.7490 N   0  0  0  0  0  2  0  0  0  0  0  0
  190.0580  176.7400  141.2470 N   0  0  0  0  0  2  0  0  0  0  0  0
  191.6530  176.7900  145.3710 C   0  0  0  0  0  3  0  0  0  0  0  0
  190.2140  177.2530  139.8890 C   0  0  1  0  0  3  0  0  0  0  0  0
  187.9140  177.9560  143.6150 C   0  0  0  0  0  2  0  0  0  0  0  0
  188.2080  178.7670  139.7840 C   0  0  0  0  0  2  0  0  0  0  0  0
  188.4220  178.1570  142.2520 N   0  0  0  0  0  0  0  0  0  0  0  0
  190.3690  176.5630  147.4760 N   0  0  0  0  0  0  0  0  0  0  0  0
  183.2460  177.5440  140.6870 O   0  0  0  0  0  0  0  0  0  0  0  0
  184.0640  178.4670  140.4300 C   0  0  0  0  0  0  0  0  0  0  0  0
  184.0470  179.1090  139.0900 C   0  0  0  0  0  1  0  0  0  0  0  0
  192.3580  176.7040  138.9470 O   0  0  0  0  0  1  0  0  0  0  0  0
  191.0300  176.2760  139.0490 C   0  0  2  0  0  3  0  0  0  0  0  0
  190.2450  174.9170  137.0570 C   0  0  0  0  0  0  0  0  0  0  0  0
  190.4450  176.1690  137.7200 N   0  0  0  0  0  2  0  0  0  0  0  0
  190.5130  173.8330  137.6420 O   0  0  0  0  0  0  0  0  0  0  0  0
  188.0690  175.9220  134.3460 C   0  0  0  0  0  2  0  0  0  0  0  0
  187.9030  174.4190  134.4710 C   0  0  0  0  0  2  0  0  0  0  0  0
  189.2050  176.2450  135.2670 C   0  0  0  0  0  2  0  0  0  0  0  0
  189.7380  174.8880  135.6560 C   0  0  2  0  0  3  0  0  0  0  0  0
  188.6990  173.9550  135.5310 O   0  0  0  0  0  0  0  0  0  0  0  0
  1 17  1  0  0  0  0
  1 15  1  0  0  0  0
  2 12  1  0  0  0  0
  3  9  1  0  0  0  0
  3  5  2  0  0  0  0
  4  7  2  0  0  0  0
  5 11  1  0  0  0  0
  6 19  2  0  0  0  0
  8 13  1  6  0  0  0
  8 18  1  0  0  0  0
  8  3  1  0  0  0  0
  9 14  2  0  0  0  0
 10  4  2  0  0  0  0
 10 18  1  0  0  0  0
 11  6  1  0  0  0  0
 11  2  2  0  0  0  0
 14  6  1  0  0  0  0
 15 24  1  6  0  0  0
 15 13  1  0  0  0  0
 16  5  1  0  0  0  0
 17 10  1  0  0  0  0
 18 16  1  0  0  0  0
 19 12  1  0  0  0  0
 21 20  2  0  0  0  0
 21  7  1  0  0  0  0
 22 21  1  0  0  0  0
 24 23  1  6  0  0  0
 25 27  2  0  0  0  0
 25 26  1  0  0  0  0
 26 24  1  0  0  0  0
 28 29  1  0  0  0  0
 28 30  1  0  0  0  0
 29 32  1  0  0  0  0
 30 31  1  0  0  0  0
 31 25  1  1  0  0  0
 32 31  1  0  0  0  0
M  END
>  <MODEL>
3

>  <REMARK>
 VINA RESULT:      -8.3      3.542      7.534
  Name = 
  4 active torsions:
  status: ('A' for Active; 'I' for Inactive)
    1  A    between atoms: C_3  and  C_13
    2  A    between atoms: N_7  and  C_23
    3  A    between atoms: C_15  and  C_22
    4  A    between atoms: C_23  and  C_27
                            x       y       z     vdW  Elec       q    Type
                         _______ _______ _______ _____ _____    ______ ____

>  <TORSDO>
F 4

$$$$
=
 OpenBabel10232408183D

 32 36  0  0  1  0  0  0  0  0999 V2000
  190.6860  177.0160  142.5450 C   0  0  0  0  0  2  0  0  0  0  0  0
  184.1390  179.0090  145.5070 N   0  0  0  0  0  0  0  0  0  0  0  0
  186.2650  177.7850  142.7720 C   0  0  0  0  0  0  0  0  0  0  0  0
  189.5900  176.5410  145.8130 C   0  0  0  0  0  0  0  0  0  0  0  0
  185.9210  178.0470  144.0850 C   0  0  0  0  0  0  0  0  0  0  0  0
  183.8490  178.9650  143.3300 C   0  0  0  0  0  0  0  0  0  0  0  0
  189.9100  176.5360  147.0780 C   0  0  0  0  0  3  0  0  0  0  0  0
  187.6080  177.1610  142.7030 C   0  0  1  0  0  3  0  0  0  0  0  0
  185.3990  178.1050  141.7020 C   0  0  0  0  0  3  0  0  0  0  0  0
  189.2680  176.5500  144.5470 C   0  0  0  0  0  0  0  0  0  0  0  0
  184.6950  178.6450  144.3430 C   0  0  0  0  0  0  0  0  0  0  0  0
  182.9640  179.5440  145.1760 N   0  0  0  0  0  2  0  0  0  0  0  0
  188.5230  178.0480  141.9990 N   0  0  0  0  0  2  0  0  0  0  0  0
  184.1530  178.7140  141.9850 C   0  0  0  0  0  3  0  0  0  0  0  0
  189.6210  177.2390  141.4750 C   0  0  1  0  0  3  0  0  0  0  0  0
  186.9830  177.6210  145.0200 C   0  0  0  0  0  2  0  0  0  0  0  0
  190.2350  175.9720  143.5590 C   0  0  0  0  0  2  0  0  0  0  0  0
  188.0010  177.0740  144.1140 N   0  0  0  0  0  0  0  0  0  0  0  0
  182.7570  179.5330  143.8590 N   0  0  0  0  0  0  0  0  0  0  0  0
  191.5000  177.9440  148.1450 O   0  0  0  0  0  0  0  0  0  0  0  0
  191.2640  176.8660  147.5360 C   0  0  0  0  0  0  0  0  0  0  0  0
  192.3740  175.9120  147.2780 C   0  0  0  0  0  1  0  0  0  0  0  0
  189.2820  178.7050  139.5990 O   0  0  0  0  0  1  0  0  0  0  0  0
  190.2330  177.9140  140.2520 C   0  0  2  0  0  3  0  0  0  0  0  0
  192.1350  176.6700  139.1260 C   0  0  0  0  0  0  0  0  0  0  0  0
  190.7390  176.8990  139.3380 N   0  0  0  0  0  2  0  0  0  0  0  0
  192.9960  177.3080  139.7890 O   0  0  0  0  0  0  0  0  0  0  0  0
  192.2810  175.2600  135.7960 C   0  0  0  0  0  2  0  0  0  0  0  0
  191.7830  174.1440  136.6930 C   0  0  0  0  0  2  0  0  0  0  0  0
  192.6690  176.3510  136.7470 C   0  0  0  0  0  2  0  0  0  0  0  0
  192.5810  175.6870  138.0980 C   0  0  2  0  0  3  0  0  0  0  0  0
  191.6690  174.6270  138.0080 O   0  0  0  0  0  0  0  0  0  0  0  0
  1 17  1  0  0  0  0
  3  5  2  0  0  0  0
  4  7  2  0  0  0  0
  5 11  1  0  0  0  0
  5 16  1  0  0  0  0
  6 19  2  0  0  0  0
  6 11  1  0  0  0  0
  7 21  1  0  0  0  0
  8 13  1  6  0  0  0
  8  3  1  0  0  0  0
  8 18  1  0  0  0  0
  9 14  2  0  0  0  0
  9  3  1  0  0  0  0
 10  4  2  0  0  0  0
 11  2  2  0  0  0  0
 12  2  1  0  0  0  0
 14  6  1  0  0  0  0
 15 24  1  6  0  0  0
 15 13  1  0  0  0  0
 15  1  1  0  0  0  0
 17 10  1  0  0  0  0
 18 10  1  0  0  0  0
 18 16  1  0  0  0  0
 19 12  1  0  0  0  0
 21 20  2  0  0  0  0
 22 21  1  0  0  0  0
 24 23  1  6  0  0  0
 25 26  1  0  0  0  0
 25 27  2  0  0  0  0
 26 24  1  0  0  0  0
 28 29  1  0  0  0  0
 28 30  1  0  0  0  0
 29 32  1  0  0  0  0
 30 31  1  0  0  0  0
 31 25  1  1  0  0  0
 32 31  1  0  0  0  0
M  END
>  <MODEL>
4

>  <REMARK>
 VINA RESULT:      -8.1      2.635      7.202
  Name = 
  4 active torsions:
  status: ('A' for Active; 'I' for Inactive)
    1  A    between atoms: C_3  and  C_13
    2  A    between atoms: N_7  and  C_23
    3  A    between atoms: C_15  and  C_22
    4  A    between atoms: C_23  and  C_27
                            x       y       z     vdW  Elec       q    Type
                         _______ _______ _______ _____ _____    ______ ____

>  <TORSDO>
F 4

$$$$
=
 OpenBabel10232408183D

 32 36  0  0  1  0  0  0  0  0999 V2000
  189.3510  177.5750  142.7110 C   0  0  0  0  0  2  0  0  0  0  0  0
  182.2820  179.3710  144.2680 N   0  0  0  0  0  0  0  0  0  0  0  0
  184.9280  178.0660  142.0800 C   0  0  0  0  0  0  0  0  0  0  0  0
  187.7030  177.3050  145.7640 C   0  0  0  0  0  0  0  0  0  0  0  0
  184.3380  178.4140  143.2810 C   0  0  0  0  0  0  0  0  0  0  0  0
  182.3950  179.1250  142.0880 C   0  0  0  0  0  0  0  0  0  0  0  0
  187.7880  177.4280  147.0610 C   0  0  0  0  0  3  0  0  0  0  0  0
  186.2910  177.5280  142.3090 C   0  0  1  0  0  3  0  0  0  0  0  0
  184.2560  178.2360  140.8480 C   0  0  0  0  0  3  0  0  0  0  0  0
  187.6170  177.1860  144.4660 C   0  0  0  0  0  0  0  0  0  0  0  0
  183.0580  178.9480  143.2610 C   0  0  0  0  0  0  0  0  0  0  0  0
  181.1620  179.7970  143.6860 N   0  0  0  0  0  2  0  0  0  0  0  0
  187.2740  178.4120  141.6960 N   0  0  0  0  0  2  0  0  0  0  0  0
  182.9510  178.7830  140.8480 C   0  0  0  0  0  3  0  0  0  0  0  0
  188.4870  177.6370  141.4530 C   0  0  1  0  0  3  0  0  0  0  0  0
  185.2340  178.1390  144.4250 C   0  0  0  0  0  2  0  0  0  0  0  0
  188.7750  176.5930  143.7240 C   0  0  0  0  0  2  0  0  0  0  0  0
  186.4250  177.5870  143.7690 N   0  0  0  0  0  0  0  0  0  0  0  0
  181.1980  179.6610  142.3600 N   0  0  0  0  0  0  0  0  0  0  0  0
  188.9890  178.7860  148.5970 O   0  0  0  0  0  0  0  0  0  0  0  0
  189.0180  177.8840  147.7170 C   0  0  0  0  0  0  0  0  0  0  0  0
  190.3170  177.2720  147.3380 C   0  0  0  0  0  1  0  0  0  0  0  0
  188.4390  179.0030  139.4750 O   0  0  0  0  0  1  0  0  0  0  0  0
  189.2770  178.2450  140.2990 C   0  0  2  0  0  3  0  0  0  0  0  0
  191.3040  176.9130  139.5600 C   0  0  0  0  0  0  0  0  0  0  0  0
  189.9000  177.1830  139.5220 N   0  0  0  0  0  2  0  0  0  0  0  0
  192.0590  177.5570  140.3380 O   0  0  0  0  0  0  0  0  0  0  0  0
  192.3470  175.5740  136.3640 C   0  0  0  0  0  2  0  0  0  0  0  0
  191.3610  174.5690  136.9290 C   0  0  0  0  0  2  0  0  0  0  0  0
  192.5740  176.5380  137.4880 C   0  0  0  0  0  2  0  0  0  0  0  0
  191.8890  175.8800  138.6590 C   0  0  2  0  0  3  0  0  0  0  0  0
  190.8840  175.0380  138.1640 O   0  0  0  0  0  0  0  0  0  0  0  0
  1 17  1  0  0  0  0
  3  8  1  0  0  0  0
  3  5  2  0  0  0  0
  4  7  2  0  0  0  0
  5 16  1  0  0  0  0
  6 19  2  0  0  0  0
  6 11  1  0  0  0  0
  7 21  1  0  0  0  0
  8 13  1  6  0  0  0
  8 18  1  0  0  0  0
  9 14  2  0  0  0  0
  9  3  1  0  0  0  0
 10  4  2  0  0  0  0
 11  5  1  0  0  0  0
 11  2  2  0  0  0  0
 12  2  1  0  0  0  0
 14  6  1  0  0  0  0
 15 24  1  6  0  0  0
 15 13  1  0  0  0  0
 15  1  1  0  0  0  0
 17 10  1  0  0  0  0
 18 16  1  0  0  0  0
 18 10  1  0  0  0  0
 19 12  1  0  0  0  0
 21 20  2  0  0  0  0
 22 21  1  0  0  0  0
 24 23  1  6  0  0  0
 25 27  2  0  0  0  0
 26 25  1  0  0  0  0
 26 24  1  0  0  0  0
 28 29  1  0  0  0  0
 28 30  1  0  0  0  0
 29 32  1  0  0  0  0
 30 31  1  0  0  0  0
 31 25  1  1  0  0  0
 32 31  1  0  0  0  0
M  END
>  <MODEL>
5

>  <REMARK>
 VINA RESULT:      -8.0      2.298      6.821
  Name = 
  4 active torsions:
  status: ('A' for Active; 'I' for Inactive)
    1  A    between atoms: C_3  and  C_13
    2  A    between atoms: N_7  and  C_23
    3  A    between atoms: C_15  and  C_22
    4  A    between atoms: C_23  and  C_27
                            x       y       z     vdW  Elec       q    Type
                         _______ _______ _______ _____ _____    ______ ____

>  <TORSDO>
F 4

$$$$
=
 OpenBabel10232408183D

 32 36  0  0  1  0  0  0  0  0999 V2000
  188.9590  177.2630  136.6060 C   0  0  0  0  0  2  0  0  0  0  0  0
  191.8960  177.7120  143.4450 N   0  0  0  0  0  0  0  0  0  0  0  0
  189.1040  177.2800  141.0970 C   0  0  0  0  0  0  0  0  0  0  0  0
  192.0670  176.1180  137.6730 C   0  0  0  0  0  0  0  0  0  0  0  0
  190.4260  177.2770  141.5050 C   0  0  0  0  0  0  0  0  0  0  0  0
  189.7260  177.9620  143.6830 C   0  0  0  0  0  0  0  0  0  0  0  0
  193.3300  175.9670  137.3800 C   0  0  0  0  0  3  0  0  0  0  0  0
  189.0020  176.8930  139.6690 C   0  0  1  0  0  3  0  0  0  0  0  0
  188.0570  177.6220  141.9830 C   0  0  0  0  0  3  0  0  0  0  0  0
  190.8040  176.2740  137.9680 C   0  0  0  0  0  0  0  0  0  0  0  0
  190.7160  177.6260  142.8150 C   0  0  0  0  0  0  0  0  0  0  0  0
  191.5970  178.1000  144.6850 N   0  0  0  0  0  2  0  0  0  0  0  0
  188.4800  178.0130  138.8970 N   0  0  0  0  0  2  0  0  0  0  0  0
  188.3740  177.9750  143.3170 C   0  0  0  0  0  3  0  0  0  0  0  0
  187.8890  177.4790  137.6730 C   0  0  1  0  0  3  0  0  0  0  0  0
  191.3310  176.8830  140.4050 C   0  0  0  0  0  2  0  0  0  0  0  0
  189.7840  176.0160  136.9010 C   0  0  0  0  0  2  0  0  0  0  0  0
  190.3990  176.6520  139.2940 N   0  0  0  0  0  0  0  0  0  0  0  0
  190.2860  178.2610  144.8630 N   0  0  0  0  0  0  0  0  0  0  0  0
  194.9210  177.1590  136.0770 O   0  0  0  0  0  0  0  0  0  0  0  0
  193.8920  176.4320  136.1070 C   0  0  0  0  0  0  0  0  0  0  0  0
  193.2360  176.0370  134.8340 C   0  0  0  0  0  1  0  0  0  0  0  0
  187.3820  179.5910  136.6390 O   0  0  0  0  0  1  0  0  0  0  0  0
  186.8100  178.4240  137.1550 C   0  0  2  0  0  3  0  0  0  0  0  0
  184.6620  178.0750  138.4580 C   0  0  0  0  0  0  0  0  0  0  0  0
  185.8980  178.7620  138.2400 N   0  0  0  0  0  2  0  0  0  0  0  0
  184.3430  177.0870  137.7430 O   0  0  0  0  0  0  0  0  0  0  0  0
  181.6730  177.9050  140.4910 C   0  0  0  0  0  2  0  0  0  0  0  0
  181.6330  179.2620  139.8160 C   0  0  0  0  0  2  0  0  0  0  0  0
  183.0290  177.3650  140.1550 C   0  0  0  0  0  2  0  0  0  0  0  0
  183.7280  178.5430  139.5220 C   0  0  2  0  0  3  0  0  0  0  0  0
  182.7540  179.3920  138.9780 O   0  0  0  0  0  0  0  0  0  0  0  0
  1 17  1  0  0  0  0
  1 15  1  0  0  0  0
  2 12  1  0  0  0  0
  3  5  2  0  0  0  0
  3  9  1  0  0  0  0
  4 10  2  0  0  0  0
  5 11  1  0  0  0  0
  6 19  2  0  0  0  0
  7  4  2  0  0  0  0
  8 13  1  6  0  0  0
  8  3  1  0  0  0  0
  9 14  2  0  0  0  0
 10 18  1  0  0  0  0
 11  2  2  0  0  0  0
 11  6  1  0  0  0  0
 12 19  1  0  0  0  0
 14  6  1  0  0  0  0
 15 24  1  6  0  0  0
 15 13  1  0  0  0  0
 16  5  1  0  0  0  0
 17 10  1  0  0  0  0
 18  8  1  0  0  0  0
 18 16  1  0  0  0  0
 20 21  2  0  0  0  0
 21  7  1  0  0  0  0
 22 21  1  0  0  0  0
 24 23  1  1  0  0  0
 24 26  1  0  0  0  0
 26 25  1  0  0  0  0
 27 25  2  0  0  0  0
 29 28  1  0  0  0  0
 30 28  1  0  0  0  0
 31 25  1  6  0  0  0
 31 30  1  0  0  0  0
 32 31  1  0  0  0  0
 32 29  1  0  0  0  0
M  END
>  <MODEL>
6

>  <REMARK>
 VINA RESULT:      -7.7      4.245      7.263
  Name = 
  4 active torsions:
  status: ('A' for Active; 'I' for Inactive)
    1  A    between atoms: C_3  and  C_13
    2  A    between atoms: N_7  and  C_23
    3  A    between atoms: C_15  and  C_22
    4  A    between atoms: C_23  and  C_27
                            x       y       z     vdW  Elec       q    Type
                         _______ _______ _______ _____ _____    ______ ____

>  <TORSDO>
F 4

$$$$
=
 OpenBabel10232408183D

 32 36  0  0  1  0  0  0  0  0999 V2000
  188.9800  176.5730  137.2040 C   0  0  0  0  0  2  0  0  0  0  0  0
  188.3570  177.7770  144.5370 N   0  0  0  0  0  0  0  0  0  0  0  0
  190.2770  177.3710  141.4320 C   0  0  0  0  0  0  0  0  0  0  0  0
  186.4860  178.3340  138.8730 C   0  0  0  0  0  0  0  0  0  0  0  0
  189.1610  177.6420  142.2020 C   0  0  0  0  0  0  0  0  0  0  0  0
  190.4590  177.2560  144.1700 C   0  0  0  0  0  0  0  0  0  0  0  0
  185.2130  178.6160  138.9430 C   0  0  0  0  0  3  0  0  0  0  0  0
  189.9510  177.4810  139.9900 C   0  0  1  0  0  3  0  0  0  0  0  0
  191.5200  177.0410  142.0200 C   0  0  0  0  0  3  0  0  0  0  0  0
  187.7590  178.0490  138.8070 C   0  0  0  0  0  0  0  0  0  0  0  0
  189.2760  177.5760  143.5830 C   0  0  0  0  0  0  0  0  0  0  0  0
  189.0020  177.5750  145.6860 N   0  0  0  0  0  2  0  0  0  0  0  0
  190.1010  176.1780  139.3560 N   0  0  0  0  0  2  0  0  0  0  0  0
  191.6170  176.9800  143.4310 C   0  0  0  0  0  3  0  0  0  0  0  0
  190.3130  176.3940  137.9270 C   0  0  1  0  0  3  0  0  0  0  0  0
  187.9880  177.9640  141.3620 C   0  0  0  0  0  2  0  0  0  0  0  0
  188.4020  177.9610  137.4570 C   0  0  0  0  0  2  0  0  0  0  0  0
  188.5320  177.8560  140.0030 N   0  0  0  0  0  0  0  0  0  0  0  0
  190.2830  177.2560  145.4980 N   0  0  0  0  0  0  0  0  0  0  0  0
  184.6020  177.2500  137.0960 O   0  0  0  0  0  0  0  0  0  0  0  0
  184.2360  178.0220  138.0230 C   0  0  0  0  0  0  0  0  0  0  0  0
  182.7940  178.3360  138.1900 C   0  0  0  0  0  1  0  0  0  0  0  0
  190.5130  174.0070  137.7120 O   0  0  0  0  0  1  0  0  0  0  0  0
  191.0850  175.2240  137.3280 C   0  0  2  0  0  3  0  0  0  0  0  0
  193.5790  175.0660  136.8910 C   0  0  0  0  0  0  0  0  0  0  0  0
  192.4720  175.2770  137.7720 N   0  0  0  0  0  2  0  0  0  0  0  0
  193.3910  174.8890  135.6580 O   0  0  0  0  0  0  0  0  0  0  0  0
  196.5700  173.4390  138.1170 C   0  0  0  0  0  2  0  0  0  0  0  0
  196.1250  174.3720  139.2270 C   0  0  0  0  0  2  0  0  0  0  0  0
  195.6770  173.7860  136.9650 C   0  0  0  0  0  2  0  0  0  0  0  0
  194.9660  175.0310  137.4340 C   0  0  2  0  0  3  0  0  0  0  0  0
  194.9420  175.0220  138.8350 O   0  0  0  0  0  0  0  0  0  0  0  0
  1 17  1  0  0  0  0
  1 15  1  0  0  0  0
  2 12  1  0  0  0  0
  3  9  1  0  0  0  0
  3  5  2  0  0  0  0
  4  7  2  0  0  0  0
  5 11  1  0  0  0  0
  6 19  2  0  0  0  0
  8 13  1  6  0  0  0
  8 18  1  0  0  0  0
  8  3  1  0  0  0  0
  9 14  2  0  0  0  0
 10  4  2  0  0  0  0
 10 18  1  0  0  0  0
 11  6  1  0  0  0  0
 11  2  2  0  0  0  0
 14  6  1  0  0  0  0
 15 24  1  6  0  0  0
 15 13  1  0  0  0  0
 16  5  1  0  0  0  0
 17 10  1  0  0  0  0
 18 16  1  0  0  0  0
 19 12  1  0  0  0  0
 20 21  2  0  0  0  0
 21 22  1  0  0  0  0
 21  7  1  0  0  0  0
 24 23  1  1  0  0  0
 24 26  1  0  0  0  0
 25 26  1  0  0  0  0
 27 25  2  0  0  0  0
 28 29  1  0  0  0  0
 30 31  1  0  0  0  0
 30 28  1  0  0  0  0
 31 25  1  6  0  0  0
 31 32  1  0  0  0  0
 32 29  1  0  0  0  0
M  END
>  <MODEL>
7

>  <REMARK>
 VINA RESULT:      -7.7      4.183      7.287
  Name = 
  4 active torsions:
  status: ('A' for Active; 'I' for Inactive)
    1  A    between atoms: C_3  and  C_13
    2  A    between atoms: N_7  and  C_23
    3  A    between atoms: C_15  and  C_22
    4  A    between atoms: C_23  and  C_27
                            x       y       z     vdW  Elec       q    Type
                         _______ _______ _______ _____ _____    ______ ____

>  <TORSDO>
F 4

$$$$
=
 OpenBabel10232408183D

 32 36  0  0  1  0  0  0  0  0999 V2000
  190.1920  177.1380  141.7710 C   0  0  0  0  0  2  0  0  0  0  0  0
  183.9520  178.9960  145.4070 N   0  0  0  0  0  0  0  0  0  0  0  0
  185.8030  177.8070  142.4650 C   0  0  0  0  0  0  0  0  0  0  0  0
  189.4600  176.6550  145.1390 C   0  0  0  0  0  0  0  0  0  0  0  0
  185.5940  178.0680  143.8070 C   0  0  0  0  0  0  0  0  0  0  0  0
  183.4330  178.9340  143.2730 C   0  0  0  0  0  0  0  0  0  0  0  0
  189.9130  176.6630  146.3630 C   0  0  0  0  0  3  0  0  0  0  0  0
  187.1450  177.2130  142.2560 C   0  0  1  0  0  3  0  0  0  0  0  0
  184.8210  178.1020  141.4920 C   0  0  0  0  0  3  0  0  0  0  0  0
  189.0060  176.6500  143.9140 C   0  0  0  0  0  0  0  0  0  0  0  0
  184.3900  178.6390  144.1920 C   0  0  0  0  0  0  0  0  0  0  0  0
  182.7370  179.5020  145.2010 N   0  0  0  0  0  2  0  0  0  0  0  0
  187.9600  178.1170  141.4560 N   0  0  0  0  0  2  0  0  0  0  0  0
  183.5980  178.6830  141.9050 C   0  0  0  0  0  3  0  0  0  0  0  0
  189.0140  177.3310  140.8200 C   0  0  1  0  0  3  0  0  0  0  0  0
  186.7600  177.6710  144.6240 C   0  0  0  0  0  2  0  0  0  0  0  0
  189.8750  176.0890  142.8310 C   0  0  0  0  0  2  0  0  0  0  0  0
  187.6880  177.1420  143.6170 N   0  0  0  0  0  0  0  0  0  0  0  0
  182.3910  179.4800  143.9140 N   0  0  0  0  0  0  0  0  0  0  0  0
  192.0730  177.4650  145.7800 O   0  0  0  0  0  0  0  0  0  0  0  0
  191.3000  177.0270  146.6740 C   0  0  0  0  0  0  0  0  0  0  0  0
  191.7990  176.8760  148.0650 C   0  0  0  0  0  1  0  0  0  0  0  0
  188.7330  179.1730  139.3000 O   0  0  0  0  0  1  0  0  0  0  0  0
  189.4770  178.0130  139.5370 C   0  0  2  0  0  3  0  0  0  0  0  0
  190.2060  175.9890  138.1940 C   0  0  0  0  0  0  0  0  0  0  0  0
  189.3270  177.0950  138.4160 N   0  0  0  0  0  2  0  0  0  0  0  0
  191.1230  175.7250  139.0170 O   0  0  0  0  0  0  0  0  0  0  0  0
  188.3500  174.0720  135.7500 C   0  0  0  0  0  2  0  0  0  0  0  0
  189.3950  173.1240  136.3080 C   0  0  0  0  0  2  0  0  0  0  0  0
  188.7160  175.4050  136.3270 C   0  0  0  0  0  2  0  0  0  0  0  0
  190.0570  175.1530  136.9690 C   0  0  2  0  0  3  0  0  0  0  0  0
  190.1420  173.7920  137.2930 O   0  0  0  0  0  0  0  0  0  0  0  0
  1 17  1  0  0  0  0
  3  5  2  0  0  0  0
  4  7  2  0  0  0  0
  5 11  1  0  0  0  0
  5 16  1  0  0  0  0
  6 19  2  0  0  0  0
  6 11  1  0  0  0  0
  7 21  1  0  0  0  0
  8 13  1  6  0  0  0
  8  3  1  0  0  0  0
  8 18  1  0  0  0  0
  9 14  2  0  0  0  0
  9  3  1  0  0  0  0
 10  4  2  0  0  0  0
 11  2  2  0  0  0  0
 12  2  1  0  0  0  0
 14  6  1  0  0  0  0
 15 24  1  6  0  0  0
 15 13  1  0  0  0  0
 15  1  1  0  0  0  0
 17 10  1  0  0  0  0
 18 10  1  0  0  0  0
 18 16  1  0  0  0  0
 19 12  1  0  0  0  0
 20 21  2  0  0  0  0
 21 22  1  0  0  0  0
 24 23  1  6  0  0  0
 25 26  1  0  0  0  0
 25 27  2  0  0  0  0
 26 24  1  0  0  0  0
 28 29  1  0  0  0  0
 28 30  1  0  0  0  0
 29 32  1  0  0  0  0
 30 31  1  0  0  0  0
 31 32  1  0  0  0  0
 31 25  1  1  0  0  0
M  END
>  <MODEL>
8

>  <REMARK>
 VINA RESULT:      -7.6      2.171      7.044
  Name = 
  4 active torsions:
  status: ('A' for Active; 'I' for Inactive)
    1  A    between atoms: C_3  and  C_13
    2  A    between atoms: N_7  and  C_23
    3  A    between atoms: C_15  and  C_22
    4  A    between atoms: C_23  and  C_27
                            x       y       z     vdW  Elec       q    Type
                         _______ _______ _______ _____ _____    ______ ____

>  <TORSDO>
F 4

$$$$
=
 OpenBabel10232408183D

 32 36  0  0  1  0  0  0  0  0999 V2000
  187.6470  177.9170  146.1170 C   0  0  0  0  0  2  0  0  0  0  0  0
  190.9020  176.0890  139.6620 N   0  0  0  0  0  0  0  0  0  0  0  0
  188.5510  178.0250  141.7170 C   0  0  0  0  0  0  0  0  0  0  0  0
  190.9540  176.9750  145.5870 C   0  0  0  0  0  0  0  0  0  0  0  0
  189.6620  177.2400  141.4670 C   0  0  0  0  0  0  0  0  0  0  0  0
  189.0950  177.2270  139.1460 C   0  0  0  0  0  0  0  0  0  0  0  0
  191.9820  176.3100  146.0390 C   0  0  0  0  0  3  0  0  0  0  0  0
  188.4460  178.3260  143.1650 C   0  0  1  0  0  3  0  0  0  0  0  0
  187.6850  178.4350  140.6780 C   0  0  0  0  0  3  0  0  0  0  0  0
  189.9240  177.6370  145.1310 C   0  0  0  0  0  0  0  0  0  0  0  0
  189.9160  176.8480  140.1600 C   0  0  0  0  0  0  0  0  0  0  0  0
  190.6590  176.0230  138.3530 N   0  0  0  0  0  0  0  0  0  0  0  0
  187.2340  177.7240  143.7020 N   0  0  0  0  0  2  0  0  0  0  0  0
  187.9610  178.0250  139.3520 C   0  0  0  0  0  2  0  0  0  0  0  0
  186.8700  178.4490  144.9160 C   0  0  1  0  0  3  0  0  0  0  0  0
  190.4100  176.9470  142.7070 C   0  0  0  0  0  2  0  0  0  0  0  0
  189.0880  178.4130  146.1020 C   0  0  0  0  0  2  0  0  0  0  0  0
  189.6190  177.6470  143.7270 N   0  0  0  0  0  0  0  0  0  0  0  0
  189.5660  176.7040  138.0070 N   0  0  0  0  0  0  0  0  0  0  0  0
  191.0230  174.6730  147.4710 O   0  0  0  0  0  0  0  0  0  0  0  0
  191.9190  175.5400  147.2870 C   0  0  0  0  0  0  0  0  0  0  0  0
  192.9290  175.7880  148.3480 C   0  0  0  0  0  1  0  0  0  0  0  0
  185.0990  177.3310  146.0980 O   0  0  0  0  0  1  0  0  0  0  0  0
  185.3690  178.3370  145.1650 C   0  0  2  0  0  3  0  0  0  0  0  0
  183.6120  178.8350  143.4060 C   0  0  0  0  0  0  0  0  0  0  0  0
  184.6890  178.0400  143.9120 N   0  0  0  0  0  2  0  0  0  0  0  0
  183.2520  179.8820  144.0070 O   0  0  0  0  0  0  0  0  0  0  0  0
  182.7300  179.0450  139.9020 C   0  0  0  0  0  2  0  0  0  0  0  0
  181.4230  179.1620  140.6630 C   0  0  0  0  0  2  0  0  0  0  0  0
  183.7380  178.6940  140.9530 C   0  0  0  0  0  2  0  0  0  0  0  0
  182.8920  178.4130  142.1700 C   0  0  2  0  0  3  0  0  0  0  0  0
  181.6890  179.1200  142.0420 O   0  0  0  0  0  0  0  0  0  0  0  0
  2 11  1  0  0  0  0
  4  7  2  0  0  0  0
  5  3  1  0  0  0  0
  5 16  1  0  0  0  0
  6 14  1  0  0  0  0
  6 11  1  0  0  0  0
  7 21  1  0  0  0  0
  8  3  1  6  0  0  0
  8 13  1  0  0  0  0
  8 18  1  0  0  0  0
  9  3  2  0  0  0  0
 10  4  2  0  0  0  0
 10 17  1  0  0  0  0
 11  5  2  0  0  0  0
 12  2  2  0  0  0  0
 13 15  1  0  0  0  0
 14  9  1  0  0  0  0
 15 24  1  1  0  0  0
 15  1  1  0  0  0  0
 16 18  1  0  0  0  0
 17  1  1  0  0  0  0
 18 10  1  0  0  0  0
 19 12  1  0  0  0  0
 19  6  2  0  0  0  0
 21 20  2  0  0  0  0
 21 22  1  0  0  0  0
 24 23  1  1  0  0  0
 25 26  1  0  0  0  0
 25 27  2  0  0  0  0
 26 24  1  0  0  0  0
 28 29  1  0  0  0  0
 28 30  1  0  0  0  0
 29 32  1  0  0  0  0
 30 31  1  0  0  0  0
 31 25  1  1  0  0  0
 32 31  1  0  0  0  0
M  END
>  <MODEL>
9

>  <REMARK>
 VINA RESULT:      -7.6      3.176      7.958
  Name = 
  4 active torsions:
  status: ('A' for Active; 'I' for Inactive)
    1  A    between atoms: C_3  and  C_13
    2  A    between atoms: N_7  and  C_23
    3  A    between atoms: C_15  and  C_22
    4  A    between atoms: C_23  and  C_27
                            x       y       z     vdW  Elec       q    Type
                         _______ _______ _______ _____ _____    ______ ____

>  <TORSDO>
F 4

$$$$
