=
 OpenBabel10232409063D

 28 28  0  0  1  0  0  0  0  0999 V2000
  189.5780  177.2510  142.7040 C   0  0  1  0  0  3  0  0  0  0  0  0
  189.3230  178.0930  138.5080 C   0  0  0  0  0  3  0  0  0  0  0  0
  191.5420  176.6300  137.8650 Cl  0  0  0  0  0  0  0  0  0  0  0  0
  189.4960  177.5380  141.2290 C   0  0  2  0  0  3  0  0  0  0  0  0
  190.3600  177.2860  138.9780 C   0  0  0  0  0  0  0  0  0  0  0  0
  188.4100  178.6040  139.3780 N   0  0  0  0  0  0  0  0  0  0  0  0
  187.6000  178.8450  141.4770 O   0  0  0  0  0  0  0  0  0  0  0  0
  190.4480  177.0130  140.3420 C   0  0  0  0  0  3  0  0  0  0  0  0
  188.4700  178.3470  140.7130 C   0  0  0  0  0  0  0  0  0  0  0  0
  190.9550  177.6310  143.2830 C   0  0  1  0  0  3  0  0  0  0  0  0
  191.0000  179.0690  143.7920 C   0  0  0  0  0  1  0  0  0  0  0  0
  191.3660  176.6500  144.3750 C   0  0  0  0  0  2  0  0  0  0  0  0
  191.4360  177.3280  145.7370 C   0  0  0  0  0  2  0  0  0  0  0  0
  191.2340  176.3260  146.8640 C   0  0  1  0  0  3  0  0  0  0  0  0
  192.1720  176.5970  147.9410 N   0  0  0  0  0  1  0  0  0  0  0  0
  189.9270  176.4280  147.3460 O   0  0  0  0  0  0  0  0  0  0  0  0
  188.5480  177.9260  148.5850 C   0  0  0  0  0  1  0  0  0  0  0  0
  189.7880  177.7650  147.7240 C   0  0  0  0  0  2  0  0  0  0  0  0
  188.3830  177.8560  143.4450 C   0  0  0  0  0  2  0  0  0  0  0  0
  187.8320  176.8860  144.4770 C   0  0  0  0  0  2  0  0  0  0  0  0
  186.4270  177.1640  144.7450 N   0  0  0  0  0  2  0  0  0  0  0  0
  186.3430  177.6480  146.0090 O   0  0  0  0  0  0  0  0  0  0  0  0
  185.6540  178.8560  145.8870 C   0  0  2  0  0  3  0  0  0  0  0  0
  185.6400  179.5300  147.1750 N   0  0  0  0  0  1  0  0  0  0  0  0
  184.2280  178.5850  145.4280 C   0  0  0  0  0  2  0  0  0  0  0  0
  182.5950  179.4670  143.7620 O   0  0  0  0  0  1  0  0  0  0  0  0
  183.9110  179.3520  144.1900 C   0  0  0  0  0  0  0  0  0  0  0  0
  184.8380  179.8840  143.5220 O   0  0  0  0  0  0  0  0  0  0  0  0
  1 10  1  0  0  0  0
  1 19  1  1  0  0  0
  2  5  1  0  0  0  0
  2  6  2  0  0  0  0
  3  5  1  0  0  0  0
  4  1  1  1  0  0  0
  5  8  2  0  0  0  0
  6  9  1  0  0  0  0
  8  4  1  0  0  0  0
  9  4  1  0  0  0  0
  9  7  2  0  0  0  0
 10 11  1  1  0  0  0
 10 12  1  0  0  0  0
 12 13  1  0  0  0  0
 13 14  1  0  0  0  0
 14 16  1  0  0  0  0
 14 15  1  1  0  0  0
 16 18  1  0  0  0  0
 18 17  1  0  0  0  0
 19 20  1  0  0  0  0
 20 21  1  0  0  0  0
 21 22  1  0  0  0  0
 23 22  1  0  0  0  0
 23 24  1  1  0  0  0
 25 23  1  0  0  0  0
 26 27  1  0  0  0  0
 27 25  1  0  0  0  0
 28 27  2  0  0  0  0
M  END
>  <MODEL>
1

>  <REMARK>
 VINA RESULT:      -7.2      0.000      0.000
  Name = 
  14 active torsions:
  status: ('A' for Active; 'I' for Inactive)
    1  A    between atoms: C_4  and  C_20
    2  A    between atoms: C_4  and  C_21
    3  A    between atoms: C_6  and  C_14
    4  A    between atoms: C_6  and  C_24
    5  A    between atoms: C_7  and  C_21
    6  A    between atoms: C_9  and  C_16
    7  A    between atoms: C_9  and  C_20
    8  A    between atoms: N_10  and  O_13
    9  A    between atoms: N_10  and  C_27
   10  A    between atoms: C_11  and  O_19
   11  A    between atoms: O_13  and  C_24
   12  A    between atoms: C_16  and  O_19
   13  A    between atoms: C_21  and  C_23
   14  A    between atoms: C_23  and  C_27
                            x       y       z     vdW  Elec       q    Type
                         _______ _______ _______ _____ _____    ______ ____

>  <TORSDO>
F 14

$$$$
=
 OpenBabel10232409063D

 28 28  0  0  1  0  0  0  0  0999 V2000
  186.6910  178.4370  143.3170 C   0  0  1  0  0  3  0  0  0  0  0  0
  182.5350  179.0120  144.1940 C   0  0  0  0  0  3  0  0  0  0  0  0
  181.7040  178.4630  141.6470 Cl  0  0  0  0  0  0  0  0  0  0  0  0
  185.2290  178.6330  143.6150 C   0  0  2  0  0  3  0  0  0  0  0  0
  182.9130  178.6620  142.8980 C   0  0  0  0  0  0  0  0  0  0  0  0
  183.4780  179.1690  145.1610 N   0  0  0  0  0  0  0  0  0  0  0  0
  185.6380  179.1470  145.8360 O   0  0  0  0  0  0  0  0  0  0  0  0
  184.2650  178.4770  142.6090 C   0  0  0  0  0  3  0  0  0  0  0  0
  184.8030  178.9880  144.9060 C   0  0  0  0  0  0  0  0  0  0  0  0
  187.3320  177.3990  144.2590 C   0  0  1  0  0  3  0  0  0  0  0  0
  187.8230  176.1590  143.5170 C   0  0  0  0  0  1  0  0  0  0  0  0
  188.4540  178.0320  145.0720 C   0  0  0  0  0  2  0  0  0  0  0  0
  189.1070  177.0220  146.0060 C   0  0  0  0  0  2  0  0  0  0  0  0
  189.4940  177.6620  147.3300 C   0  0  1  0  0  3  0  0  0  0  0  0
  188.4060  177.5220  148.2840 N   0  0  0  0  0  1  0  0  0  0  0  0
  190.6370  177.0360  147.8310 O   0  0  0  0  0  0  0  0  0  0  0  0
  192.3290  175.5580  147.0330 C   0  0  0  0  0  1  0  0  0  0  0  0
  191.3880  176.7020  146.7010 C   0  0  0  0  0  2  0  0  0  0  0  0
  186.9130  178.1700  141.8270 C   0  0  0  0  0  2  0  0  0  0  0  0
  188.1040  178.9560  141.3020 C   0  0  0  0  0  2  0  0  0  0  0  0
  188.7630  178.2310  140.2240 N   0  0  0  0  0  2  0  0  0  0  0  0
  189.5380  177.2740  140.7930 O   0  0  0  0  0  0  0  0  0  0  0  0
  190.7160  177.2730  140.0440 C   0  0  2  0  0  3  0  0  0  0  0  0
  190.8160  176.0190  139.3140 N   0  0  0  0  0  1  0  0  0  0  0  0
  191.9110  177.4270  140.9740 C   0  0  0  0  0  2  0  0  0  0  0  0
  191.2910  176.1460  143.0230 O   0  0  0  0  0  0  0  0  0  0  0  0
  191.4850  177.3730  142.4020 C   0  0  0  0  0  0  0  0  0  0  0  0
  191.2830  178.4390  143.0420 O   0  0  0  0  0  1  0  0  0  0  0  0
  1 19  1  6  0  0  0
  1 10  1  0  0  0  0
  2  6  2  0  0  0  0
  3  5  1  0  0  0  0
  4  1  1  6  0  0  0
  4  9  1  0  0  0  0
  5  2  1  0  0  0  0
  8  5  2  0  0  0  0
  8  4  1  0  0  0  0
  9  6  1  0  0  0  0
  9  7  2  0  0  0  0
 10 11  1  6  0  0  0
 10 12  1  0  0  0  0
 12 13  1  0  0  0  0
 13 14  1  0  0  0  0
 14 16  1  0  0  0  0
 14 15  1  1  0  0  0
 18 17  1  0  0  0  0
 18 16  1  0  0  0  0
 20 19  1  0  0  0  0
 21 22  1  0  0  0  0
 21 20  1  0  0  0  0
 23 24  1  1  0  0  0
 23 22  1  0  0  0  0
 23 25  1  0  0  0  0
 25 27  1  0  0  0  0
 27 26  2  0  0  0  0
 27 28  1  0  0  0  0
M  END
>  <MODEL>
2

>  <REMARK>
 VINA RESULT:      -7.1      2.873      6.211
  Name = 
  14 active torsions:
  status: ('A' for Active; 'I' for Inactive)
    1  A    between atoms: C_4  and  C_20
    2  A    between atoms: C_4  and  C_21
    3  A    between atoms: C_6  and  C_14
    4  A    between atoms: C_6  and  C_24
    5  A    between atoms: C_7  and  C_21
    6  A    between atoms: C_9  and  C_16
    7  A    between atoms: C_9  and  C_20
    8  A    between atoms: N_10  and  O_13
    9  A    between atoms: N_10  and  C_27
   10  A    between atoms: C_11  and  O_19
   11  A    between atoms: O_13  and  C_24
   12  A    between atoms: C_16  and  O_19
   13  A    between atoms: C_21  and  C_23
   14  A    between atoms: C_23  and  C_27
                            x       y       z     vdW  Elec       q    Type
                         _______ _______ _______ _____ _____    ______ ____

>  <TORSDO>
F 14

$$$$
=
 OpenBabel10232409063D

 28 28  0  0  1  0  0  0  0  0999 V2000
  187.2280  177.7480  143.2440 C   0  0  1  0  0  3  0  0  0  0  0  0
  191.4340  177.0690  143.7220 C   0  0  0  0  0  3  0  0  0  0  0  0
  192.0040  179.6780  144.3060 Cl  0  0  0  0  0  0  0  0  0  0  0  0
  188.7060  177.5190  143.4170 C   0  0  2  0  0  3  0  0  0  0  0  0
  190.9300  178.3570  143.8980 C   0  0  0  0  0  0  0  0  0  0  0  0
  190.5960  176.0460  143.4010 N   0  0  0  0  0  0  0  0  0  0  0  0
  188.5230  175.2590  142.9480 O   0  0  0  0  0  0  0  0  0  0  0  0
  189.5620  178.5820  143.7400 C   0  0  0  0  0  3  0  0  0  0  0  0
  189.2570  176.2380  143.2470 C   0  0  0  0  0  0  0  0  0  0  0  0
  186.5630  178.2030  144.5570 C   0  0  1  0  0  3  0  0  0  0  0  0
  185.0800  178.5200  144.3830 C   0  0  0  0  0  1  0  0  0  0  0  0
  186.7780  177.1680  145.6550 C   0  0  0  0  0  2  0  0  0  0  0  0
  186.8830  177.8220  147.0260 C   0  0  0  0  0  2  0  0  0  0  0  0
  188.3340  178.0240  147.4320 C   0  0  1  0  0  3  0  0  0  0  0  0
  188.4410  178.0710  148.8820 N   0  0  0  0  0  1  0  0  0  0  0  0
  189.1040  176.9670  146.9420 O   0  0  0  0  0  0  0  0  0  0  0  0
  191.2610  175.9800  147.1770 C   0  0  0  0  0  1  0  0  0  0  0  0
  190.3860  177.1910  147.4470 C   0  0  0  0  0  2  0  0  0  0  0  0
  186.9540  178.6530  142.0410 C   0  0  0  0  0  2  0  0  0  0  0  0
  187.3410  177.9650  140.7400 C   0  0  0  0  0  2  0  0  0  0  0  0
  188.3280  178.7550  140.0160 N   0  0  0  0  0  2  0  0  0  0  0  0
  189.4520  178.0030  139.9140 O   0  0  0  0  0  0  0  0  0  0  0  0
  189.7990  178.0560  138.5630 C   0  0  2  0  0  3  0  0  0  0  0  0
  188.9650  179.0410  137.8940 N   0  0  0  0  0  1  0  0  0  0  0  0
  189.5930  176.6870  137.9310 C   0  0  0  0  0  2  0  0  0  0  0  0
  190.7750  174.4900  137.9230 O   0  0  0  0  0  0  0  0  0  0  0  0
  190.8410  175.8750  137.9970 C   0  0  0  0  0  0  0  0  0  0  0  0
  191.9570  176.4430  138.1380 O   0  0  0  0  0  1  0  0  0  0  0  0
  1 19  1  6  0  0  0
  1 10  1  0  0  0  0
  2  5  1  0  0  0  0
  4  1  1  6  0  0  0
  4  8  1  0  0  0  0
  5  3  1  0  0  0  0
  6  2  2  0  0  0  0
  7  9  2  0  0  0  0
  8  5  2  0  0  0  0
  9  6  1  0  0  0  0
  9  4  1  0  0  0  0
 10 11  1  6  0  0  0
 10 12  1  0  0  0  0
 12 13  1  0  0  0  0
 13 14  1  0  0  0  0
 14 15  1  1  0  0  0
 16 14  1  0  0  0  0
 16 18  1  0  0  0  0
 17 18  1  0  0  0  0
 20 19  1  0  0  0  0
 21 20  1  0  0  0  0
 22 21  1  0  0  0  0
 23 24  1  6  0  0  0
 23 22  1  0  0  0  0
 25 27  1  0  0  0  0
 25 23  1  0  0  0  0
 26 27  2  0  0  0  0
 27 28  1  0  0  0  0
M  END
>  <MODEL>
3

>  <REMARK>
 VINA RESULT:      -7.1      2.917      5.992
  Name = 
  14 active torsions:
  status: ('A' for Active; 'I' for Inactive)
    1  A    between atoms: C_4  and  C_20
    2  A    between atoms: C_4  and  C_21
    3  A    between atoms: C_6  and  C_14
    4  A    between atoms: C_6  and  C_24
    5  A    between atoms: C_7  and  C_21
    6  A    between atoms: C_9  and  C_16
    7  A    between atoms: C_9  and  C_20
    8  A    between atoms: N_10  and  O_13
    9  A    between atoms: N_10  and  C_27
   10  A    between atoms: C_11  and  O_19
   11  A    between atoms: O_13  and  C_24
   12  A    between atoms: C_16  and  O_19
   13  A    between atoms: C_21  and  C_23
   14  A    between atoms: C_23  and  C_27
                            x       y       z     vdW  Elec       q    Type
                         _______ _______ _______ _____ _____    ______ ____

>  <TORSDO>
F 14

$$$$
=
 OpenBabel10232409063D

 28 28  0  0  1  0  0  0  0  0999 V2000
  186.7480  178.3490  143.4270 C   0  0  1  0  0  3  0  0  0  0  0  0
  182.5810  179.0400  144.1600 C   0  0  0  0  0  3  0  0  0  0  0  0
  181.8100  178.3920  141.6180 Cl  0  0  0  0  0  0  0  0  0  0  0  0
  185.2820  178.5850  143.6750 C   0  0  2  0  0  3  0  0  0  0  0  0
  182.9880  178.6250  142.8920 C   0  0  0  0  0  0  0  0  0  0  0  0
  183.5010  179.2240  145.1450 N   0  0  0  0  0  0  0  0  0  0  0  0
  185.6410  179.1920  145.8810 O   0  0  0  0  0  0  0  0  0  0  0  0
  184.3430  178.4020  142.6490 C   0  0  0  0  0  3  0  0  0  0  0  0
  184.8280  179.0070  144.9360 C   0  0  0  0  0  0  0  0  0  0  0  0
  187.2930  177.1950  144.2900 C   0  0  1  0  0  3  0  0  0  0  0  0
  187.9220  176.0830  143.4540 C   0  0  0  0  0  1  0  0  0  0  0  0
  188.2760  177.7200  145.3300 C   0  0  0  0  0  2  0  0  0  0  0  0
  189.5050  176.8280  145.4390 C   0  0  0  0  0  2  0  0  0  0  0  0
  190.7730  177.6510  145.6060 C   0  0  1  0  0  3  0  0  0  0  0  0
  191.8210  176.8320  146.1930 N   0  0  0  0  0  1  0  0  0  0  0  0
  191.1900  178.1180  144.3570 O   0  0  0  0  0  0  0  0  0  0  0  0
  191.7810  177.2840  142.2040 C   0  0  0  0  0  1  0  0  0  0  0  0
  191.6530  176.9840  143.6870 C   0  0  0  0  0  2  0  0  0  0  0  0
  187.0330  178.2170  141.9290 C   0  0  0  0  0  2  0  0  0  0  0  0
  188.4400  178.6890  141.5970 C   0  0  0  0  0  2  0  0  0  0  0  0
  188.8870  178.1210  140.3320 N   0  0  0  0  0  2  0  0  0  0  0  0
  188.7900  179.0950  139.3930 O   0  0  0  0  0  0  0  0  0  0  0  0
  188.8780  178.4260  138.1710 C   0  0  2  0  0  3  0  0  0  0  0  0
  188.7140  179.3840  137.0900 N   0  0  0  0  0  1  0  0  0  0  0  0
  187.7880  177.3650  138.0920 C   0  0  0  0  0  2  0  0  0  0  0  0
  185.7980  178.7710  138.6250 O   0  0  0  0  0  1  0  0  0  0  0  0
  186.4790  177.9730  137.7170 C   0  0  0  0  0  0  0  0  0  0  0  0
  185.9820  177.7470  136.5820 O   0  0  0  0  0  0  0  0  0  0  0  0
  1 19  1  6  0  0  0
  1 10  1  0  0  0  0
  2  6  2  0  0  0  0
  3  5  1  0  0  0  0
  4  1  1  6  0  0  0
  4  9  1  0  0  0  0
  5  2  1  0  0  0  0
  8  5  2  0  0  0  0
  8  4  1  0  0  0  0
  9  6  1  0  0  0  0
  9  7  2  0  0  0  0
 10 11  1  6  0  0  0
 10 12  1  0  0  0  0
 12 13  1  0  0  0  0
 13 14  1  0  0  0  0
 14 15  1  6  0  0  0
 16 14  1  0  0  0  0
 17 18  1  0  0  0  0
 18 16  1  0  0  0  0
 20 19  1  0  0  0  0
 21 20  1  0  0  0  0
 22 21  1  0  0  0  0
 23 24  1  6  0  0  0
 23 22  1  0  0  0  0
 25 23  1  0  0  0  0
 27 25  1  0  0  0  0
 27 26  1  0  0  0  0
 28 27  2  0  0  0  0
M  END
>  <MODEL>
4

>  <REMARK>
 VINA RESULT:      -7.0      2.895      6.209
  Name = 
  14 active torsions:
  status: ('A' for Active; 'I' for Inactive)
    1  A    between atoms: C_4  and  C_20
    2  A    between atoms: C_4  and  C_21
    3  A    between atoms: C_6  and  C_14
    4  A    between atoms: C_6  and  C_24
    5  A    between atoms: C_7  and  C_21
    6  A    between atoms: C_9  and  C_16
    7  A    between atoms: C_9  and  C_20
    8  A    between atoms: N_10  and  O_13
    9  A    between atoms: N_10  and  C_27
   10  A    between atoms: C_11  and  O_19
   11  A    between atoms: O_13  and  C_24
   12  A    between atoms: C_16  and  O_19
   13  A    between atoms: C_21  and  C_23
   14  A    between atoms: C_23  and  C_27
                            x       y       z     vdW  Elec       q    Type
                         _______ _______ _______ _____ _____    ______ ____

>  <TORSDO>
F 14

$$$$
=
 OpenBabel10232409063D

 28 28  0  0  1  0  0  0  0  0999 V2000
  187.0130  178.1590  143.5490 C   0  0  1  0  0  3  0  0  0  0  0  0
  182.9280  179.0670  144.4790 C   0  0  0  0  0  3  0  0  0  0  0  0
  182.0220  178.5830  141.9450 Cl  0  0  0  0  0  0  0  0  0  0  0  0
  185.5750  178.4730  143.8660 C   0  0  2  0  0  3  0  0  0  0  0  0
  183.2600  178.6860  143.1790 C   0  0  0  0  0  0  0  0  0  0  0  0
  183.8940  179.1500  145.4330 N   0  0  0  0  0  0  0  0  0  0  0  0
  186.0540  178.9550  146.0800 O   0  0  0  0  0  0  0  0  0  0  0  0
  184.5890  178.3930  142.8720 C   0  0  0  0  0  3  0  0  0  0  0  0
  185.1960  178.8630  145.1610 C   0  0  0  0  0  0  0  0  0  0  0  0
  187.4990  176.8990  144.2910 C   0  0  1  0  0  3  0  0  0  0  0  0
  188.1110  175.8650  143.3500 C   0  0  0  0  0  1  0  0  0  0  0  0
  188.4730  177.2730  145.4020 C   0  0  0  0  0  2  0  0  0  0  0  0
  189.6300  178.1100  144.8730 C   0  0  0  0  0  2  0  0  0  0  0  0
  190.9050  177.2870  144.7690 C   0  0  1  0  0  3  0  0  0  0  0  0
  191.7500  177.8150  143.7100 N   0  0  0  0  0  1  0  0  0  0  0  0
  191.5910  177.3390  145.9840 O   0  0  0  0  0  0  0  0  0  0  0  0
  192.2560  175.8700  147.7390 C   0  0  0  0  0  1  0  0  0  0  0  0
  191.9270  176.0140  146.2640 C   0  0  0  0  0  2  0  0  0  0  0  0
  187.2460  178.1410  142.0360 C   0  0  0  0  0  2  0  0  0  0  0  0
  188.5950  178.7480  141.6840 C   0  0  0  0  0  2  0  0  0  0  0  0
  189.3280  177.8780  140.7750 N   0  0  0  0  0  2  0  0  0  0  0  0
  188.5090  177.6000  139.7300 O   0  0  0  0  0  0  0  0  0  0  0  0
  189.2880  176.8440  138.8530 C   0  0  2  0  0  3  0  0  0  0  0  0
  190.3920  176.2480  139.5880 N   0  0  0  0  0  1  0  0  0  0  0  0
  189.8270  177.7410  137.7480 C   0  0  0  0  0  2  0  0  0  0  0  0
  188.1010  179.4390  137.1450 O   0  0  0  0  0  1  0  0  0  0  0  0
  188.7230  178.2280  136.8710 C   0  0  0  0  0  0  0  0  0  0  0  0
  188.3420  177.5340  135.8920 O   0  0  0  0  0  0  0  0  0  0  0  0
  1 19  1  6  0  0  0
  1 10  1  0  0  0  0
  2  6  2  0  0  0  0
  3  5  1  0  0  0  0
  4  1  1  6  0  0  0
  4  9  1  0  0  0  0
  5  2  1  0  0  0  0
  8  5  2  0  0  0  0
  8  4  1  0  0  0  0
  9  6  1  0  0  0  0
  9  7  2  0  0  0  0
 10 11  1  6  0  0  0
 10 12  1  0  0  0  0
 13 12  1  0  0  0  0
 14 15  1  6  0  0  0
 14 13  1  0  0  0  0
 14 16  1  0  0  0  0
 16 18  1  0  0  0  0
 18 17  1  0  0  0  0
 20 19  1  0  0  0  0
 21 20  1  0  0  0  0
 22 21  1  0  0  0  0
 23 24  1  1  0  0  0
 23 22  1  0  0  0  0
 25 23  1  0  0  0  0
 27 26  1  0  0  0  0
 27 25  1  0  0  0  0
 28 27  2  0  0  0  0
M  END
>  <MODEL>
5

>  <REMARK>
 VINA RESULT:      -7.0      2.981      6.298
  Name = 
  14 active torsions:
  status: ('A' for Active; 'I' for Inactive)
    1  A    between atoms: C_4  and  C_20
    2  A    between atoms: C_4  and  C_21
    3  A    between atoms: C_6  and  C_14
    4  A    between atoms: C_6  and  C_24
    5  A    between atoms: C_7  and  C_21
    6  A    between atoms: C_9  and  C_16
    7  A    between atoms: C_9  and  C_20
    8  A    between atoms: N_10  and  O_13
    9  A    between atoms: N_10  and  C_27
   10  A    between atoms: C_11  and  O_19
   11  A    between atoms: O_13  and  C_24
   12  A    between atoms: C_16  and  O_19
   13  A    between atoms: C_21  and  C_23
   14  A    between atoms: C_23  and  C_27
                            x       y       z     vdW  Elec       q    Type
                         _______ _______ _______ _____ _____    ______ ____

>  <TORSDO>
F 14

$$$$
=
 OpenBabel10232409063D

 28 28  0  0  1  0  0  0  0  0999 V2000
  186.9210  178.4520  143.3780 C   0  0  1  0  0  3  0  0  0  0  0  0
  182.7890  178.9900  144.3860 C   0  0  0  0  0  3  0  0  0  0  0  0
  181.8920  178.5510  141.8410 Cl  0  0  0  0  0  0  0  0  0  0  0  0
  185.4670  178.6360  143.7220 C   0  0  2  0  0  3  0  0  0  0  0  0
  183.1340  178.6960  143.0670 C   0  0  0  0  0  0  0  0  0  0  0  0
  183.7580  179.1050  145.3350 N   0  0  0  0  0  0  0  0  0  0  0  0
  185.9350  179.0540  145.9510 O   0  0  0  0  0  0  0  0  0  0  0  0
  184.4770  178.5230  142.7350 C   0  0  0  0  0  3  0  0  0  0  0  0
  185.0750  178.9360  145.0380 C   0  0  0  0  0  0  0  0  0  0  0  0
  187.5860  177.3790  144.2610 C   0  0  1  0  0  3  0  0  0  0  0  0
  187.9250  176.1090  143.4850 C   0  0  0  0  0  1  0  0  0  0  0  0
  188.8190  177.9440  144.9550 C   0  0  0  0  0  2  0  0  0  0  0  0
  189.6790  176.8390  145.5540 C   0  0  0  0  0  2  0  0  0  0  0  0
  191.1430  177.0130  145.1810 C   0  0  1  0  0  3  0  0  0  0  0  0
  191.3130  178.2290  144.4010 N   0  0  0  0  0  1  0  0  0  0  0  0
  191.9110  177.0940  146.3440 O   0  0  0  0  0  0  0  0  0  0  0  0
  192.7400  175.7500  148.1300 C   0  0  0  0  0  1  0  0  0  0  0  0
  192.0230  175.7760  146.7920 C   0  0  0  0  0  2  0  0  0  0  0  0
  187.1020  178.2440  141.8720 C   0  0  0  0  0  2  0  0  0  0  0  0
  188.4300  178.8140  141.3980 C   0  0  0  0  0  2  0  0  0  0  0  0
  189.1090  177.8710  140.5190 N   0  0  0  0  0  2  0  0  0  0  0  0
  188.4740  177.9040  139.3210 O   0  0  0  0  0  0  0  0  0  0  0  0
  189.4970  177.8610  138.3710 C   0  0  2  0  0  3  0  0  0  0  0  0
  189.1620  178.7490  137.2700 N   0  0  0  0  0  1  0  0  0  0  0  0
  189.6550  176.4370  137.8580 C   0  0  0  0  0  2  0  0  0  0  0  0
  191.9620  176.7010  138.7690 O   0  0  0  0  0  1  0  0  0  0  0  0
  190.9750  175.8700  138.2550 C   0  0  0  0  0  0  0  0  0  0  0  0
  191.2040  174.6400  138.1090 O   0  0  0  0  0  0  0  0  0  0  0  0
  1 19  1  6  0  0  0
  1 10  1  0  0  0  0
  2  6  2  0  0  0  0
  3  5  1  0  0  0  0
  4  1  1  6  0  0  0
  4  9  1  0  0  0  0
  5  2  1  0  0  0  0
  8  5  2  0  0  0  0
  8  4  1  0  0  0  0
  9  6  1  0  0  0  0
  9  7  2  0  0  0  0
 10 11  1  6  0  0  0
 10 12  1  0  0  0  0
 12 13  1  0  0  0  0
 14 15  1  1  0  0  0
 14 13  1  0  0  0  0
 14 16  1  0  0  0  0
 16 18  1  0  0  0  0
 18 17  1  0  0  0  0
 20 19  1  0  0  0  0
 21 20  1  0  0  0  0
 22 21  1  0  0  0  0
 23 24  1  6  0  0  0
 23 22  1  0  0  0  0
 25 27  1  0  0  0  0
 25 23  1  0  0  0  0
 27 26  1  0  0  0  0
 28 27  2  0  0  0  0
M  END
>  <MODEL>
6

>  <REMARK>
 VINA RESULT:      -7.0      3.082      6.629
  Name = 
  14 active torsions:
  status: ('A' for Active; 'I' for Inactive)
    1  A    between atoms: C_4  and  C_20
    2  A    between atoms: C_4  and  C_21
    3  A    between atoms: C_6  and  C_14
    4  A    between atoms: C_6  and  C_24
    5  A    between atoms: C_7  and  C_21
    6  A    between atoms: C_9  and  C_16
    7  A    between atoms: C_9  and  C_20
    8  A    between atoms: N_10  and  O_13
    9  A    between atoms: N_10  and  C_27
   10  A    between atoms: C_11  and  O_19
   11  A    between atoms: O_13  and  C_24
   12  A    between atoms: C_16  and  O_19
   13  A    between atoms: C_21  and  C_23
   14  A    between atoms: C_23  and  C_27
                            x       y       z     vdW  Elec       q    Type
                         _______ _______ _______ _____ _____    ______ ____

>  <TORSDO>
F 14

$$$$
=
 OpenBabel10232409063D

 28 28  0  0  1  0  0  0  0  0999 V2000
  186.8250  177.8090  143.9250 C   0  0  1  0  0  3  0  0  0  0  0  0
  190.9950  177.0460  143.2910 C   0  0  0  0  0  3  0  0  0  0  0  0
  191.7890  179.5350  144.0980 Cl  0  0  0  0  0  0  0  0  0  0  0  0
  188.2920  177.5500  143.7090 C   0  0  2  0  0  3  0  0  0  0  0  0
  190.5980  178.2960  143.7670 C   0  0  0  0  0  0  0  0  0  0  0  0
  190.0650  176.0880  143.0310 N   0  0  0  0  0  0  0  0  0  0  0  0
  187.9140  175.3870  142.9720 O   0  0  0  0  0  0  0  0  0  0  0  0
  189.2410  178.5480  143.9710 C   0  0  0  0  0  3  0  0  0  0  0  0
  188.7360  176.3070  143.2280 C   0  0  0  0  0  0  0  0  0  0  0  0
  186.5410  178.3380  145.3430 C   0  0  1  0  0  3  0  0  0  0  0  0
  185.1020  178.8190  145.5130 C   0  0  0  0  0  1  0  0  0  0  0  0
  186.8940  177.2870  146.3900 C   0  0  0  0  0  2  0  0  0  0  0  0
  187.4810  177.9220  147.6430 C   0  0  0  0  0  2  0  0  0  0  0  0
  188.9920  178.0560  147.5390 C   0  0  1  0  0  3  0  0  0  0  0  0
  189.5510  178.3800  148.8420 N   0  0  0  0  0  1  0  0  0  0  0  0
  189.5340  176.8520  147.0850 O   0  0  0  0  0  0  0  0  0  0  0  0
  191.7560  176.1690  146.5570 C   0  0  0  0  0  1  0  0  0  0  0  0
  190.8440  176.8430  147.5670 C   0  0  0  0  0  2  0  0  0  0  0  0
  186.2500  178.6670  142.7950 C   0  0  0  0  0  2  0  0  0  0  0  0
  184.9920  178.0390  142.2170 C   0  0  0  0  0  2  0  0  0  0  0  0
  184.3560  178.9420  141.2680 N   0  0  0  0  0  2  0  0  0  0  0  0
  185.3400  179.5070  140.5240 O   0  0  0  0  0  0  0  0  0  0  0  0
  184.8540  179.4910  139.2150 C   0  0  2  0  0  3  0  0  0  0  0  0
  183.4640  179.9160  139.2160 N   0  0  0  0  0  1  0  0  0  0  0  0
  184.9650  178.0830  138.6480 C   0  0  0  0  0  2  0  0  0  0  0  0
  186.8640  179.0660  137.3650 O   0  0  0  0  0  1  0  0  0  0  0  0
  185.9530  178.0330  137.5320 C   0  0  0  0  0  0  0  0  0  0  0  0
  185.9500  177.0610  136.7300 O   0  0  0  0  0  0  0  0  0  0  0  0
  1 19  1  6  0  0  0
  1 10  1  0  0  0  0
  2  5  1  0  0  0  0
  4  1  1  6  0  0  0
  4  8  1  0  0  0  0
  5  8  2  0  0  0  0
  5  3  1  0  0  0  0
  6  9  1  0  0  0  0
  6  2  2  0  0  0  0
  7  9  2  0  0  0  0
  9  4  1  0  0  0  0
 10 11  1  6  0  0  0
 10 12  1  0  0  0  0
 12 13  1  0  0  0  0
 14 13  1  0  0  0  0
 14 15  1  1  0  0  0
 16 14  1  0  0  0  0
 16 18  1  0  0  0  0
 17 18  1  0  0  0  0
 20 19  1  0  0  0  0
 21 20  1  0  0  0  0
 22 21  1  0  0  0  0
 23 24  1  1  0  0  0
 23 22  1  0  0  0  0
 25 23  1  0  0  0  0
 26 27  1  0  0  0  0
 27 25  1  0  0  0  0
 28 27  2  0  0  0  0
M  END
>  <MODEL>
7

>  <REMARK>
 VINA RESULT:      -6.8      3.067      5.086
  Name = 
  14 active torsions:
  status: ('A' for Active; 'I' for Inactive)
    1  A    between atoms: C_4  and  C_20
    2  A    between atoms: C_4  and  C_21
    3  A    between atoms: C_6  and  C_14
    4  A    between atoms: C_6  and  C_24
    5  A    between atoms: C_7  and  C_21
    6  A    between atoms: C_9  and  C_16
    7  A    between atoms: C_9  and  C_20
    8  A    between atoms: N_10  and  O_13
    9  A    between atoms: N_10  and  C_27
   10  A    between atoms: C_11  and  O_19
   11  A    between atoms: O_13  and  C_24
   12  A    between atoms: C_16  and  O_19
   13  A    between atoms: C_21  and  C_23
   14  A    between atoms: C_23  and  C_27
                            x       y       z     vdW  Elec       q    Type
                         _______ _______ _______ _____ _____    ______ ____

>  <TORSDO>
F 14

$$$$
=
 OpenBabel10232409063D

 28 28  0  0  1  0  0  0  0  0999 V2000
  187.9020  177.9810  142.4500 C   0  0  1  0  0  3  0  0  0  0  0  0
  183.7850  179.1520  142.2160 C   0  0  0  0  0  3  0  0  0  0  0  0
  183.3050  178.7670  144.8810 Cl  0  0  0  0  0  0  0  0  0  0  0  0
  186.4560  178.3940  142.3800 C   0  0  2  0  0  3  0  0  0  0  0  0
  184.3130  178.7700  143.4490 C   0  0  0  0  0  0  0  0  0  0  0  0
  184.5710  179.1480  141.1070 N   0  0  0  0  0  0  0  0  0  0  0  0
  186.5680  178.7960  140.1010 O   0  0  0  0  0  0  0  0  0  0  0  0
  185.6520  178.3850  143.5280 C   0  0  0  0  0  3  0  0  0  0  0  0
  185.8810  178.7830  141.1580 C   0  0  0  0  0  0  0  0  0  0  0  0
  188.1920  177.1270  143.6990 C   0  0  1  0  0  3  0  0  0  0  0  0
  188.9560  175.8470  143.3700 C   0  0  0  0  0  1  0  0  0  0  0  0
  188.9260  177.9480  144.7520 C   0  0  0  0  0  2  0  0  0  0  0  0
  188.2460  177.8500  146.1120 C   0  0  0  0  0  2  0  0  0  0  0  0
  189.2660  177.7000  147.2300 C   0  0  1  0  0  3  0  0  0  0  0  0
  188.6410  177.9880  148.5110 N   0  0  0  0  0  1  0  0  0  0  0  0
  189.7590  176.3930  147.2340 O   0  0  0  0  0  0  0  0  0  0  0  0
  191.8830  176.3030  146.1570 C   0  0  0  0  0  1  0  0  0  0  0  0
  191.1300  176.5280  147.4560 C   0  0  0  0  0  2  0  0  0  0  0  0
  188.3560  177.3560  141.1290 C   0  0  0  0  0  2  0  0  0  0  0  0
  189.6720  177.9580  140.6630 C   0  0  0  0  0  2  0  0  0  0  0  0
  190.6470  176.9110  140.3870 N   0  0  0  0  0  2  0  0  0  0  0  0
  191.0690  177.0770  139.1090 O   0  0  0  0  0  0  0  0  0  0  0  0
  190.0750  176.4920  138.3220 C   0  0  2  0  0  3  0  0  0  0  0  0
  190.4270  175.1070  138.0600 N   0  0  0  0  0  1  0  0  0  0  0  0
  189.9520  177.2540  137.0100 C   0  0  0  0  0  2  0  0  0  0  0  0
  188.9800  179.5320  137.3090 O   0  0  0  0  0  1  0  0  0  0  0  0
  188.7870  178.1840  137.0400 C   0  0  0  0  0  0  0  0  0  0  0  0
  187.6230  177.7440  136.8370 O   0  0  0  0  0  0  0  0  0  0  0  0
  1 19  1  6  0  0  0
  1 10  1  0  0  0  0
  2  5  1  0  0  0  0
  4  1  1  6  0  0  0
  4  8  1  0  0  0  0
  5  8  2  0  0  0  0
  5  3  1  0  0  0  0
  6  9  1  0  0  0  0
  6  2  2  0  0  0  0
  7  9  2  0  0  0  0
  9  4  1  0  0  0  0
 10 11  1  6  0  0  0
 10 12  1  0  0  0  0
 12 13  1  0  0  0  0
 13 14  1  0  0  0  0
 14 16  1  0  0  0  0
 14 15  1  1  0  0  0
 16 18  1  0  0  0  0
 17 18  1  0  0  0  0
 20 19  1  0  0  0  0
 21 20  1  0  0  0  0
 22 21  1  0  0  0  0
 23 24  1  6  0  0  0
 23 22  1  0  0  0  0
 25 27  1  0  0  0  0
 25 23  1  0  0  0  0
 27 26  1  0  0  0  0
 28 27  2  0  0  0  0
M  END
>  <MODEL>
8

>  <REMARK>
 VINA RESULT:      -6.6      3.210      6.122
  Name = 
  14 active torsions:
  status: ('A' for Active; 'I' for Inactive)
    1  A    between atoms: C_4  and  C_20
    2  A    between atoms: C_4  and  C_21
    3  A    between atoms: C_6  and  C_14
    4  A    between atoms: C_6  and  C_24
    5  A    between atoms: C_7  and  C_21
    6  A    between atoms: C_9  and  C_16
    7  A    between atoms: C_9  and  C_20
    8  A    between atoms: N_10  and  O_13
    9  A    between atoms: N_10  and  C_27
   10  A    between atoms: C_11  and  O_19
   11  A    between atoms: O_13  and  C_24
   12  A    between atoms: C_16  and  O_19
   13  A    between atoms: C_21  and  C_23
   14  A    between atoms: C_23  and  C_27
                            x       y       z     vdW  Elec       q    Type
                         _______ _______ _______ _____ _____    ______ ____

>  <TORSDO>
F 14

$$$$
=
 OpenBabel10232409063D

 28 28  0  0  1  0  0  0  0  0999 V2000
  189.6340  176.9860  143.5230 C   0  0  1  0  0  3  0  0  0  0  0  0
  191.0120  176.8910  147.5810 C   0  0  0  0  0  3  0  0  0  0  0  0
  188.9250  178.3710  148.5460 Cl  0  0  0  0  0  0  0  0  0  0  0  0
  190.1070  176.9560  144.9510 C   0  0  2  0  0  3  0  0  0  0  0  0
  189.8300  177.5690  147.2800 C   0  0  0  0  0  0  0  0  0  0  0  0
  191.7130  176.2730  146.5930 N   0  0  0  0  0  0  0  0  0  0  0  0
  191.9790  175.6990  144.4200 O   0  0  0  0  0  0  0  0  0  0  0  0
  189.3810  177.6040  145.9600 C   0  0  0  0  0  3  0  0  0  0  0  0
  191.2930  176.2870  145.2980 C   0  0  0  0  0  0  0  0  0  0  0  0
  188.0980  176.9070  143.4280 C   0  0  1  0  0  3  0  0  0  0  0  0
  187.4250  176.9270  144.7980 C   0  0  0  0  0  1  0  0  0  0  0  0
  187.5580  178.0180  142.5350 C   0  0  0  0  0  2  0  0  0  0  0  0
  186.0360  177.9960  142.4750 C   0  0  0  0  0  2  0  0  0  0  0  0
  185.4750  179.3790  142.1860 C   0  0  1  0  0  3  0  0  0  0  0  0
  185.2590  179.5380  140.7570 N   0  0  0  0  0  1  0  0  0  0  0  0
  184.2620  179.5370  142.8620 O   0  0  0  0  0  0  0  0  0  0  0  0
  183.3750  178.7890  144.9440 C   0  0  0  0  0  1  0  0  0  0  0  0
  184.5770  179.3560  144.2100 C   0  0  0  0  0  2  0  0  0  0  0  0
  190.2620  178.1580  142.7650 C   0  0  0  0  0  2  0  0  0  0  0  0
  191.2770  177.6670  141.7440 C   0  0  0  0  0  2  0  0  0  0  0  0
  190.6340  176.8290  140.7410 N   0  0  0  0  0  2  0  0  0  0  0  0
  190.8460  177.4080  139.5330 O   0  0  0  0  0  0  0  0  0  0  0  0
  189.9840  176.7420  138.6590 C   0  0  2  0  0  3  0  0  0  0  0  0
  190.4860  175.3980  138.4260 N   0  0  0  0  0  1  0  0  0  0  0  0
  189.9090  177.5020  137.3420 C   0  0  0  0  0  2  0  0  0  0  0  0
  187.5190  178.0850  136.9330 O   0  0  0  0  0  0  0  0  0  0  0  0
  188.7820  178.4780  137.3530 C   0  0  0  0  0  0  0  0  0  0  0  0
  188.9790  179.6650  137.7260 O   0  0  0  0  0  1  0  0  0  0  0  0
  1 19  1  1  0  0  0
  4  1  1  6  0  0  0
  4  9  1  0  0  0  0
  4  8  1  0  0  0  0
  5  2  1  0  0  0  0
  5  3  1  0  0  0  0
  6  2  2  0  0  0  0
  7  9  2  0  0  0  0
  8  5  2  0  0  0  0
  9  6  1  0  0  0  0
 10  1  1  0  0  0  0
 10 11  1  1  0  0  0
 12 10  1  0  0  0  0
 13 12  1  0  0  0  0
 14 15  1  6  0  0  0
 14 13  1  0  0  0  0
 14 16  1  0  0  0  0
 16 18  1  0  0  0  0
 18 17  1  0  0  0  0
 20 19  1  0  0  0  0
 21 20  1  0  0  0  0
 22 21  1  0  0  0  0
 23 24  1  6  0  0  0
 23 22  1  0  0  0  0
 25 27  1  0  0  0  0
 25 23  1  0  0  0  0
 26 27  2  0  0  0  0
 27 28  1  0  0  0  0
M  END
>  <MODEL>
9

>  <REMARK>
 VINA RESULT:      -6.6      3.165      7.266
  Name = 
  14 active torsions:
  status: ('A' for Active; 'I' for Inactive)
    1  A    between atoms: C_4  and  C_20
    2  A    between atoms: C_4  and  C_21
    3  A    between atoms: C_6  and  C_14
    4  A    between atoms: C_6  and  C_24
    5  A    between atoms: C_7  and  C_21
    6  A    between atoms: C_9  and  C_16
    7  A    between atoms: C_9  and  C_20
    8  A    between atoms: N_10  and  O_13
    9  A    between atoms: N_10  and  C_27
   10  A    between atoms: C_11  and  O_19
   11  A    between atoms: O_13  and  C_24
   12  A    between atoms: C_16  and  O_19
   13  A    between atoms: C_21  and  C_23
   14  A    between atoms: C_23  and  C_27
                            x       y       z     vdW  Elec       q    Type
                         _______ _______ _______ _____ _____    ______ ____

>  <TORSDO>
F 14

$$$$
