=
 OpenBabel10222421373D

 43 48  0  0  1  0  0  0  0  0999 V2000
  190.8070  177.5280  140.8100 C   0  0  0  0  0  0  0  0  0  0  0  0
  189.7660  177.3890  145.1140 C   0  0  0  0  0  0  0  0  0  0  0  0
  191.4810  176.3230  146.4060 N   0  0  0  0  0  0  0  0  0  0  0  0
  190.9590  176.8030  147.5650 C   0  0  0  0  0  3  0  0  0  0  0  0
  190.8170  177.4290  142.1090 C   0  0  0  0  0  0  0  0  0  0  0  0
  189.2430  178.1340  148.7950 C   0  0  0  0  0  1  0  0  0  0  0  0
  189.2260  177.8870  146.3100 C   0  0  0  0  0  3  0  0  0  0  0  0
  190.7870  177.6250  139.5080 C   0  0  0  0  0  3  0  0  0  0  0  0
  189.8220  177.6020  147.5350 C   0  0  0  0  0  0  0  0  0  0  0  0
  190.0410  178.4180  142.9020 C   0  0  0  0  0  2  0  0  0  0  0  0
  191.6190  175.9880  144.0190 C   0  0  0  0  0  3  0  0  0  0  0  0
  190.9390  176.5950  145.1860 C   0  0  0  0  0  0  0  0  0  0  0  0
  189.0800  177.6780  143.8050 C   0  0  2  0  0  3  0  0  0  0  0  0
  191.5610  176.3190  142.7230 C   0  0  0  0  0  3  0  0  0  0  0  0
  190.0310  175.8950  137.8120 C   0  0  0  0  0  3  0  0  0  0  0  0
  187.7470  176.2890  137.7910 C   0  0  1  0  0  3  0  0  0  0  0  0
  189.7970  176.9540  138.7240 N   0  0  0  0  0  0  0  0  0  0  0  0
  188.9040  175.4920  137.2590 C   0  0  0  0  0  3  0  0  0  0  0  0
  188.3870  177.2810  138.7650 C   0  0  0  0  0  2  0  0  0  0  0  0
  186.9800  177.0250  136.6890 C   0  0  1  0  0  3  0  0  0  0  0  0
  185.9290  176.2480  134.4870 N   0  0  0  0  0  2  0  0  0  0  0  0
  187.8060  177.2540  135.5150 N   0  0  0  0  0  2  0  0  0  0  0  0
  185.5010  176.0960  136.1930 S   0  0  0  0  0  0  0  0  0  0  0  0
  186.8820  177.3410  134.4000 C   0  0  0  0  0  2  0  0  0  0  0  0
  187.8640  178.4660  143.9890 N   0  0  0  0  0  2  0  0  0  0  0  0
  185.7200  177.9670  143.0390 C   0  0  0  0  0  3  0  0  0  0  0  0
  186.5520  177.8940  144.0780 C   0  0  0  0  0  0  0  0  0  0  0  0
  186.1100  178.5980  141.7430 C   0  0  0  0  0  2  0  0  0  0  0  0
  183.6430  178.3100  141.5450 C   0  0  0  0  0  2  0  0  0  0  0  0
  182.5480  179.2770  139.4690 C   0  0  2  0  0  3  0  0  0  0  0  0
  184.8760  179.0260  140.9700 C   0  0  2  0  0  3  0  0  0  0  0  0
  183.8630  179.2740  138.6660 C   0  0  0  0  0  2  0  0  0  0  0  0
  185.0420  178.7280  139.4790 C   0  0  0  0  0  2  0  0  0  0  0  0
  182.4110  176.7910  140.0040 C   0  0  0  0  0  1  0  0  0  0  0  0
  182.4620  178.2030  140.5680 C   0  0  1  0  0  3  0  0  0  0  0  0
  181.3420  179.3830  138.6400 N   0  0  0  0  0  2  0  0  0  0  0  0
  181.6360  179.0920  137.2420 C   0  0  1  0  0  3  0  0  0  0  0  0
  180.8260  178.0620  136.8170 C   0  0  0  0  0  0  0  0  0  0  0  0
  180.5900  179.4960  136.4580 O   0  0  0  0  0  0  0  0  0  0  0  0
  180.5080  176.8450  136.7720 O   0  0  0  0  0  0  0  0  0  0  0  0
  186.0740  177.2760  145.3590 C   0  0  0  0  0  2  0  0  0  0  0  0
  185.9280  179.1480  147.0190 C   0  0  0  0  0  1  0  0  0  0  0  0
  185.1410  178.2020  146.1320 C   0  0  0  0  0  2  0  0  0  0  0  0
  1  5  2  0  0  0  0
  2 12  2  0  0  0  0
  2  7  1  0  0  0  0
  3  4  2  0  0  0  0
  5 14  1  0  0  0  0
  5 10  1  0  0  0  0
  7  9  2  0  0  0  0
  8  1  2  0  0  0  0
  9  4  1  0  0  0  0
  9  6  1  0  0  0  0
 10 13  1  0  0  0  0
 11 12  1  0  0  0  0
 12  3  1  0  0  0  0
 13 25  1  1  0  0  0
 13  2  1  0  0  0  0
 14 11  2  0  0  0  0
 15 17  1  0  0  0  0
 16 18  1  6  0  0  0
 16 19  1  0  0  0  0
 17 19  1  0  0  0  0
 17  8  1  0  0  0  0
 18 15  2  0  0  0  0
 20 22  1  6  0  0  0
 20 16  1  0  0  0  0
 21 23  1  0  0  0  0
 23 20  1  0  0  0  0
 24 21  1  0  0  0  0
 24 22  1  0  0  0  0
 25 27  1  0  0  0  0
 26 27  2  0  0  0  0
 27 41  1  0  0  0  0
 28 26  1  0  0  0  0
 30 36  1  6  0  0  0
 30 35  1  0  0  0  0
 31 29  1  0  0  0  0
 31 28  1  1  0  0  0
 32 30  1  0  0  0  0
 32 33  1  0  0  0  0
 33 31  1  0  0  0  0
 35 34  1  6  0  0  0
 35 29  1  0  0  0  0
 37 36  1  1  0  0  0
 38 37  1  0  0  0  0
 39 38  1  0  0  0  0
 39 37  1  0  0  0  0
 40 38  2  0  0  0  0
 41 43  1  0  0  0  0
 43 42  1  0  0  0  0
M  END
>  <MODEL>
1

>  <REMARK>
 VINA RESULT:      -8.5      0.000      0.000
  Name = 
  10 active torsions:
  status: ('A' for Active; 'I' for Inactive)
    1  A    between atoms: C_3  and  N_7
    2  A    between atoms: C_4  and  C_24
    3  A    between atoms: C_6  and  N_28
    4  A    between atoms: C_6  and  C_35
    5  A    between atoms: N_7  and  C_9
    6  A    between atoms: C_11  and  C_12
    7  A    between atoms: C_18  and  N_27
    8  A    between atoms: C_19  and  C_24
    9  A    between atoms: N_28  and  C_41
   10  A    between atoms: C_35  and  C_40
                            x       y       z     vdW  Elec       q    Type
                         _______ _______ _______ _____ _____    ______ ____

>  <TORSDO>
F 10

$$$$
=
 OpenBabel10222421373D

 43 48  0  0  1  0  0  0  0  0999 V2000
  185.4470  179.4810  145.8060 C   0  0  0  0  0  0  0  0  0  0  0  0
  183.9540  178.7550  141.6990 C   0  0  0  0  0  0  0  0  0  0  0  0
  181.5630  178.5900  141.6410 N   0  0  0  0  0  0  0  0  0  0  0  0
  181.5480  178.7360  140.2910 C   0  0  0  0  0  3  0  0  0  0  0  0
  184.7280  179.3640  144.7260 C   0  0  0  0  0  0  0  0  0  0  0  0
  182.7360  179.0680  138.1210 C   0  0  0  0  0  1  0  0  0  0  0  0
  183.9400  178.9080  140.3030 C   0  0  0  0  0  3  0  0  0  0  0  0
  186.1750  179.5910  146.8850 C   0  0  0  0  0  3  0  0  0  0  0  0
  182.7410  178.9050  139.5980 C   0  0  0  0  0  0  0  0  0  0  0  0
  185.2940  179.8500  143.4400 C   0  0  0  0  0  2  0  0  0  0  0  0
  182.5640  178.4220  143.8330 C   0  0  0  0  0  3  0  0  0  0  0  0
  182.7140  178.6060  142.3710 C   0  0  0  0  0  0  0  0  0  0  0  0
  185.2680  178.7200  142.4350 C   0  0  2  0  0  3  0  0  0  0  0  0
  183.4090  178.7210  144.8270 C   0  0  0  0  0  3  0  0  0  0  0  0
  187.2280  178.0540  148.6070 C   0  0  0  0  0  3  0  0  0  0  0  0
  188.6810  176.8440  147.2660 C   0  0  1  0  0  3  0  0  0  0  0  0
  187.0720  178.5540  147.2900 N   0  0  0  0  0  0  0  0  0  0  0  0
  188.1290  177.0900  148.6410 C   0  0  0  0  0  3  0  0  0  0  0  0
  187.9580  177.8600  146.3790 C   0  0  0  0  0  2  0  0  0  0  0  0
  190.1980  177.0370  147.1940 C   0  0  1  0  0  3  0  0  0  0  0  0
  191.9590  176.3470  145.4680 N   0  0  0  0  0  2  0  0  0  0  0  0
  190.9150  175.8160  147.5230 N   0  0  0  0  0  2  0  0  0  0  0  0
  190.7060  177.5900  145.5410 S   0  0  0  0  0  0  0  0  0  0  0  0
  192.1890  175.9170  146.8370 C   0  0  0  0  0  2  0  0  0  0  0  0
  186.4050  178.8370  141.5260 N   0  0  0  0  0  2  0  0  0  0  0  0
  188.5240  178.0360  140.7420 C   0  0  0  0  0  3  0  0  0  0  0  0
  187.6710  178.2030  141.7530 C   0  0  0  0  0  0  0  0  0  0  0  0
  188.2340  178.5230  139.3590 C   0  0  0  0  0  2  0  0  0  0  0  0
  188.5580  176.6580  137.7390 C   0  0  0  0  0  2  0  0  0  0  0  0
  186.4630  175.7090  136.6620 C   0  0  2  0  0  3  0  0  0  0  0  0
  187.5240  177.4470  138.5580 C   0  0  2  0  0  3  0  0  0  0  0  0
  185.6410  176.9820  136.9360 C   0  0  0  0  0  2  0  0  0  0  0  0
  186.4570  178.0640  137.6530 C   0  0  0  0  0  2  0  0  0  0  0  0
  188.3230  176.7410  135.2620 C   0  0  0  0  0  1  0  0  0  0  0  0
  187.9780  175.9420  136.5090 C   0  0  1  0  0  3  0  0  0  0  0  0
  185.8870  174.8330  135.6380 N   0  0  0  0  0  2  0  0  0  0  0  0
  186.2560  173.4400  135.8660 C   0  0  1  0  0  3  0  0  0  0  0  0
  185.4410  172.9140  136.8430 C   0  0  0  0  0  0  0  0  0  0  0  0
  185.2730  172.6190  135.3860 O   0  0  0  0  0  0  0  0  0  0  0  0
  185.0880  172.7840  138.0440 O   0  0  0  0  0  0  0  0  0  0  0  0
  188.0200  177.6550  143.1050 C   0  0  0  0  0  2  0  0  0  0  0  0
  189.6180  175.7380  142.8720 C   0  0  0  0  0  1  0  0  0  0  0  0
  188.1710  176.1380  143.0900 C   0  0  0  0  0  2  0  0  0  0  0  0
  1  8  2  0  0  0  0
  2 12  1  0  0  0  0
  2 13  1  0  0  0  0
  3 12  2  0  0  0  0
  4  3  1  0  0  0  0
  5 14  1  0  0  0  0
  5  1  2  0  0  0  0
  6  9  1  0  0  0  0
  7  2  2  0  0  0  0
  8 17  1  0  0  0  0
  9  4  2  0  0  0  0
  9  7  1  0  0  0  0
 10  5  1  0  0  0  0
 11 14  2  0  0  0  0
 12 11  1  0  0  0  0
 13 25  1  6  0  0  0
 13 10  1  0  0  0  0
 15 18  2  0  0  0  0
 16 19  1  6  0  0  0
 16 18  1  0  0  0  0
 17 15  1  0  0  0  0
 19 17  1  0  0  0  0
 20 23  1  6  0  0  0
 20 16  1  0  0  0  0
 20 22  1  0  0  0  0
 21 23  1  0  0  0  0
 21 24  1  0  0  0  0
 24 22  1  0  0  0  0
 25 27  1  0  0  0  0
 26 27  2  0  0  0  0
 27 41  1  0  0  0  0
 28 26  1  0  0  0  0
 29 31  1  0  0  0  0
 30 36  1  6  0  0  0
 30 32  1  0  0  0  0
 31 28  1  6  0  0  0
 32 33  1  0  0  0  0
 33 31  1  0  0  0  0
 35 34  1  6  0  0  0
 35 30  1  0  0  0  0
 35 29  1  0  0  0  0
 37 36  1  6  0  0  0
 37 38  1  0  0  0  0
 38 40  2  0  0  0  0
 39 37  1  0  0  0  0
 39 38  1  0  0  0  0
 42 43  1  0  0  0  0
 43 41  1  0  0  0  0
M  END
>  <MODEL>
2

>  <REMARK>
 VINA RESULT:      -8.1      2.931      8.285
  Name = 
  10 active torsions:
  status: ('A' for Active; 'I' for Inactive)
    1  A    between atoms: C_3  and  N_7
    2  A    between atoms: C_4  and  C_24
    3  A    between atoms: C_6  and  N_28
    4  A    between atoms: C_6  and  C_35
    5  A    between atoms: N_7  and  C_9
    6  A    between atoms: C_11  and  C_12
    7  A    between atoms: C_18  and  N_27
    8  A    between atoms: C_19  and  C_24
    9  A    between atoms: N_28  and  C_41
   10  A    between atoms: C_35  and  C_40
                            x       y       z     vdW  Elec       q    Type
                         _______ _______ _______ _____ _____    ______ ____

>  <TORSDO>
F 10

$$$$
=
 OpenBabel10222421373D

 43 48  0  0  1  0  0  0  0  0999 V2000
  188.9670  178.1770  139.5870 C   0  0  0  0  0  0  0  0  0  0  0  0
  188.5980  177.2240  143.8980 C   0  0  0  0  0  0  0  0  0  0  0  0
  190.7430  176.9330  144.9280 N   0  0  0  0  0  0  0  0  0  0  0  0
  190.2020  177.0290  146.1700 C   0  0  0  0  0  3  0  0  0  0  0  0
  189.1690  177.9840  140.8590 C   0  0  0  0  0  0  0  0  0  0  0  0
  188.2320  177.3410  147.6700 C   0  0  0  0  0  1  0  0  0  0  0  0
  188.0370  177.3250  145.1810 C   0  0  0  0  0  3  0  0  0  0  0  0
  188.7560  178.3640  138.3120 C   0  0  0  0  0  3  0  0  0  0  0  0
  188.8350  177.2340  146.3170 C   0  0  0  0  0  0  0  0  0  0  0  0
  188.1370  178.4500  141.8220 C   0  0  0  0  0  2  0  0  0  0  0  0
  190.7370  176.8980  142.5130 C   0  0  0  0  0  3  0  0  0  0  0  0
  190.0000  177.0360  143.7900 C   0  0  0  0  0  0  0  0  0  0  0  0
  187.7070  177.2850  142.6850 C   0  0  2  0  0  3  0  0  0  0  0  0
  190.3900  177.2770  141.2770 C   0  0  0  0  0  3  0  0  0  0  0  0
  186.8880  177.6030  136.7720 C   0  0  0  0  0  3  0  0  0  0  0  0
  187.5020  175.3960  136.4170 C   0  0  1  0  0  3  0  0  0  0  0  0
  188.0750  177.3900  137.5160 N   0  0  0  0  0  0  0  0  0  0  0  0
  186.5260  176.5040  136.1390 C   0  0  0  0  0  3  0  0  0  0  0  0
  188.5270  176.0230  137.3640 C   0  0  0  0  0  2  0  0  0  0  0  0
  186.8420  174.1740  137.0580 C   0  0  1  0  0  3  0  0  0  0  0  0
  185.2360  172.3930  136.1590 N   0  0  0  0  0  2  0  0  0  0  0  0
  185.4420  174.4150  137.3690 N   0  0  0  0  0  2  0  0  0  0  0  0
  186.9600  172.7240  135.9720 S   0  0  0  0  0  0  0  0  0  0  0  0
  184.8090  173.1100  137.3490 C   0  0  0  0  0  2  0  0  0  0  0  0
  186.3000  177.4260  143.0480 N   0  0  0  0  0  2  0  0  0  0  0  0
  185.1950  179.2780  141.9990 C   0  0  0  0  0  3  0  0  0  0  0  0
  185.6200  178.6860  143.1160 C   0  0  0  0  0  0  0  0  0  0  0  0
  185.3640  178.6580  140.6510 C   0  0  0  0  0  2  0  0  0  0  0  0
  183.9060  178.2530  138.6710 C   0  0  0  0  0  2  0  0  0  0  0  0
  181.5590  177.4030  139.1410 C   0  0  2  0  0  3  0  0  0  0  0  0
  184.0580  178.0390  140.1860 C   0  0  2  0  0  3  0  0  0  0  0  0
  181.5640  177.9320  140.5880 C   0  0  0  0  0  2  0  0  0  0  0  0
  182.8750  178.6380  140.9490 C   0  0  0  0  0  2  0  0  0  0  0  0
  181.9530  179.6040  137.9220 C   0  0  0  0  0  1  0  0  0  0  0  0
  182.4560  178.1890  138.1660 C   0  0  1  0  0  3  0  0  0  0  0  0
  180.2220  177.1060  138.6160 N   0  0  0  0  0  2  0  0  0  0  0  0
  179.9860  175.6680  138.5620 C   0  0  1  0  0  3  0  0  0  0  0  0
  180.9810  175.0770  137.8150 C   0  0  0  0  0  0  0  0  0  0  0  0
  180.9290  175.0180  139.3100 O   0  0  0  0  0  0  0  0  0  0  0  0
  181.5330  174.8030  136.7180 O   0  0  0  0  0  0  0  0  0  0  0  0
  185.4440  179.3890  144.4300 C   0  0  0  0  0  2  0  0  0  0  0  0
  184.8200  178.4580  146.6710 C   0  0  0  0  0  1  0  0  0  0  0  0
  184.3320  178.7720  145.2700 C   0  0  0  0  0  2  0  0  0  0  0  0
  1  5  2  0  0  0  0
  2  7  1  0  0  0  0
  3  4  2  0  0  0  0
  4  9  1  0  0  0  0
  5 14  1  0  0  0  0
  5 10  1  0  0  0  0
  7  9  2  0  0  0  0
  8  1  2  0  0  0  0
  9  6  1  0  0  0  0
 10 13  1  0  0  0  0
 11 12  1  0  0  0  0
 12  2  2  0  0  0  0
 12  3  1  0  0  0  0
 13 25  1  1  0  0  0
 13  2  1  0  0  0  0
 14 11  2  0  0  0  0
 15 17  1  0  0  0  0
 16 18  1  1  0  0  0
 16 20  1  0  0  0  0
 16 19  1  0  0  0  0
 17  8  1  0  0  0  0
 18 15  2  0  0  0  0
 19 17  1  0  0  0  0
 20 23  1  6  0  0  0
 20 22  1  0  0  0  0
 21 24  1  0  0  0  0
 23 21  1  0  0  0  0
 24 22  1  0  0  0  0
 25 27  1  0  0  0  0
 26 27  2  0  0  0  0
 27 41  1  0  0  0  0
 28 26  1  0  0  0  0
 29 31  1  0  0  0  0
 30 36  1  6  0  0  0
 30 32  1  0  0  0  0
 31 28  1  1  0  0  0
 31 33  1  0  0  0  0
 32 33  1  0  0  0  0
 35 34  1  1  0  0  0
 35 29  1  0  0  0  0
 35 30  1  0  0  0  0
 37 36  1  1  0  0  0
 37 39  1  0  0  0  0
 38 37  1  0  0  0  0
 38 39  1  0  0  0  0
 40 38  2  0  0  0  0
 41 43  1  0  0  0  0
 43 42  1  0  0  0  0
M  END
>  <MODEL>
3

>  <REMARK>
 VINA RESULT:      -8.1      1.966      2.690
  Name = 
  10 active torsions:
  status: ('A' for Active; 'I' for Inactive)
    1  A    between atoms: C_3  and  N_7
    2  A    between atoms: C_4  and  C_24
    3  A    between atoms: C_6  and  N_28
    4  A    between atoms: C_6  and  C_35
    5  A    between atoms: N_7  and  C_9
    6  A    between atoms: C_11  and  C_12
    7  A    between atoms: C_18  and  N_27
    8  A    between atoms: C_19  and  C_24
    9  A    between atoms: N_28  and  C_41
   10  A    between atoms: C_35  and  C_40
                            x       y       z     vdW  Elec       q    Type
                         _______ _______ _______ _____ _____    ______ ____

>  <TORSDO>
F 10

$$$$
=
 OpenBabel10222421373D

 43 48  0  0  1  0  0  0  0  0999 V2000
  188.9280  178.2880  139.5670 C   0  0  0  0  0  0  0  0  0  0  0  0
  188.7080  177.1960  143.8550 C   0  0  0  0  0  0  0  0  0  0  0  0
  190.8870  176.8740  144.8010 N   0  0  0  0  0  0  0  0  0  0  0  0
  190.3890  176.9290  146.0630 C   0  0  0  0  0  3  0  0  0  0  0  0
  189.1740  178.0540  140.8250 C   0  0  0  0  0  0  0  0  0  0  0  0
  188.4720  177.1910  147.6400 C   0  0  0  0  0  1  0  0  0  0  0  0
  188.1910  177.2540  145.1590 C   0  0  0  0  0  3  0  0  0  0  0  0
  188.6730  178.5150  138.3070 C   0  0  0  0  0  3  0  0  0  0  0  0
  189.0280  177.1280  146.2630 C   0  0  0  0  0  0  0  0  0  0  0  0
  188.1760  178.4880  141.8370 C   0  0  0  0  0  2  0  0  0  0  0  0
  190.7980  176.9170  142.3880 C   0  0  0  0  0  3  0  0  0  0  0  0
  190.1050  177.0130  143.6930 C   0  0  0  0  0  0  0  0  0  0  0  0
  187.7760  177.2950  142.6760 C   0  0  2  0  0  3  0  0  0  0  0  0
  190.4080  177.3350  141.1770 C   0  0  0  0  0  3  0  0  0  0  0  0
  187.1380  177.8670  136.3930 C   0  0  0  0  0  3  0  0  0  0  0  0
  187.1300  175.5600  136.6180 C   0  0  1  0  0  3  0  0  0  0  0  0
  187.9660  177.5670  137.5040 N   0  0  0  0  0  0  0  0  0  0  0  0
  186.6420  176.7650  135.8650 C   0  0  0  0  0  3  0  0  0  0  0  0
  188.0090  176.1380  137.7290 C   0  0  0  0  0  2  0  0  0  0  0  0
  185.9880  174.7250  137.2030 C   0  0  1  0  0  3  0  0  0  0  0  0
  184.8690  172.5450  136.4590 N   0  0  0  0  0  2  0  0  0  0  0  0
  184.7500  174.9070  136.4620 N   0  0  0  0  0  2  0  0  0  0  0  0
  186.4100  172.9600  137.2150 S   0  0  0  0  0  0  0  0  0  0  0  0
  183.9930  173.6860  136.6640 C   0  0  0  0  0  2  0  0  0  0  0  0
  186.3830  177.4230  143.0910 N   0  0  0  0  0  2  0  0  0  0  0  0
  185.2050  179.1940  141.9850 C   0  0  0  0  0  3  0  0  0  0  0  0
  185.6720  178.6680  143.1180 C   0  0  0  0  0  0  0  0  0  0  0  0
  185.3550  178.5140  140.6640 C   0  0  0  0  0  2  0  0  0  0  0  0
  182.8740  178.7480  140.6340 C   0  0  0  0  0  2  0  0  0  0  0  0
  181.7690  178.8480  138.3500 C   0  0  2  0  0  3  0  0  0  0  0  0
  184.1530  178.8010  139.7820 C   0  0  2  0  0  3  0  0  0  0  0  0
  182.9560  178.1610  137.6480 C   0  0  0  0  0  2  0  0  0  0  0  0
  184.0850  177.8060  138.6220 C   0  0  0  0  0  2  0  0  0  0  0  0
  181.1930  177.0160  140.0230 C   0  0  0  0  0  1  0  0  0  0  0  0
  181.5920  178.4720  139.8330 C   0  0  1  0  0  3  0  0  0  0  0  0
  180.5230  178.8280  137.5760 N   0  0  0  0  0  2  0  0  0  0  0  0
  180.1080  180.1770  137.2090 C   0  0  1  0  0  3  0  0  0  0  0  0
  181.1200  181.0580  137.5210 C   0  0  0  0  0  0  0  0  0  0  0  0
  180.8290  180.6010  136.1260 O   0  0  0  0  0  0  0  0  0  0  0  0
  181.7940  181.7290  138.3450 O   0  0  0  0  0  0  0  0  0  0  0  0
  185.5120  179.4290  144.4010 C   0  0  0  0  0  2  0  0  0  0  0  0
  185.0700  178.4370  146.6590 C   0  0  0  0  0  1  0  0  0  0  0  0
  184.4670  178.8020  145.3160 C   0  0  0  0  0  2  0  0  0  0  0  0
  1  5  2  0  0  0  0
  2  7  1  0  0  0  0
  3  4  2  0  0  0  0
  4  9  1  0  0  0  0
  5 14  1  0  0  0  0
  5 10  1  0  0  0  0
  7  9  2  0  0  0  0
  8  1  2  0  0  0  0
  9  6  1  0  0  0  0
 10 13  1  0  0  0  0
 11 12  1  0  0  0  0
 12  2  2  0  0  0  0
 12  3  1  0  0  0  0
 13 25  1  1  0  0  0
 13  2  1  0  0  0  0
 14 11  2  0  0  0  0
 15 17  1  0  0  0  0
 16 18  1  1  0  0  0
 16 20  1  0  0  0  0
 16 19  1  0  0  0  0
 17 19  1  0  0  0  0
 17  8  1  0  0  0  0
 18 15  2  0  0  0  0
 20 22  1  6  0  0  0
 20 23  1  0  0  0  0
 21 24  1  0  0  0  0
 21 23  1  0  0  0  0
 22 24  1  0  0  0  0
 25 27  1  0  0  0  0
 26 27  2  0  0  0  0
 27 41  1  0  0  0  0
 28 26  1  0  0  0  0
 30 36  1  6  0  0  0
 30 35  1  0  0  0  0
 31 29  1  0  0  0  0
 31 28  1  1  0  0  0
 32 30  1  0  0  0  0
 32 33  1  0  0  0  0
 33 31  1  0  0  0  0
 35 34  1  6  0  0  0
 35 29  1  0  0  0  0
 37 38  1  0  0  0  0
 37 36  1  1  0  0  0
 38 40  2  0  0  0  0
 39 37  1  0  0  0  0
 39 38  1  0  0  0  0
 41 43  1  0  0  0  0
 43 42  1  0  0  0  0
M  END
>  <MODEL>
4

>  <REMARK>
 VINA RESULT:      -8.0      1.812      2.385
  Name = 
  10 active torsions:
  status: ('A' for Active; 'I' for Inactive)
    1  A    between atoms: C_3  and  N_7
    2  A    between atoms: C_4  and  C_24
    3  A    between atoms: C_6  and  N_28
    4  A    between atoms: C_6  and  C_35
    5  A    between atoms: N_7  and  C_9
    6  A    between atoms: C_11  and  C_12
    7  A    between atoms: C_18  and  N_27
    8  A    between atoms: C_19  and  C_24
    9  A    between atoms: N_28  and  C_41
   10  A    between atoms: C_35  and  C_40
                            x       y       z     vdW  Elec       q    Type
                         _______ _______ _______ _____ _____    ______ ____

>  <TORSDO>
F 10

$$$$
=
 OpenBabel10222421373D

 43 48  0  0  1  0  0  0  0  0999 V2000
  183.9480  179.0800  142.4510 C   0  0  0  0  0  0  0  0  0  0  0  0
  185.3750  177.8250  138.4490 C   0  0  0  0  0  0  0  0  0  0  0  0
  183.6250  176.8100  137.1620 N   0  0  0  0  0  0  0  0  0  0  0  0
  184.3470  176.9290  136.0170 C   0  0  0  0  0  3  0  0  0  0  0  0
  184.0520  178.7020  141.2080 C   0  0  0  0  0  0  0  0  0  0  0  0
  186.4080  177.6440  134.8040 C   0  0  0  0  0  1  0  0  0  0  0  0
  186.1220  177.9490  137.2670 C   0  0  0  0  0  3  0  0  0  0  0  0
  183.8540  179.4550  143.6980 C   0  0  0  0  0  3  0  0  0  0  0  0
  185.6100  177.5080  136.0500 C   0  0  0  0  0  0  0  0  0  0  0  0
  185.0840  179.3450  140.3540 C   0  0  0  0  0  2  0  0  0  0  0  0
  183.1800  177.0360  139.5250 C   0  0  0  0  0  3  0  0  0  0  0  0
  184.0820  177.2470  138.3690 C   0  0  0  0  0  0  0  0  0  0  0  0
  185.9680  178.2720  139.7590 C   0  0  2  0  0  3  0  0  0  0  0  0
  183.1700  177.6290  140.7250 C   0  0  0  0  0  3  0  0  0  0  0  0
  184.1920  178.6250  146.0720 C   0  0  0  0  0  3  0  0  0  0  0  0
  186.2970  177.6700  145.8930 C   0  0  1  0  0  3  0  0  0  0  0  0
  184.6080  178.8130  144.7300 N   0  0  0  0  0  0  0  0  0  0  0  0
  185.1160  177.9880  146.7660 C   0  0  0  0  0  3  0  0  0  0  0  0
  185.9290  178.2560  144.5290 C   0  0  0  0  0  2  0  0  0  0  0  0
  187.6000  178.2800  146.4170 C   0  0  1  0  0  3  0  0  0  0  0  0
  189.6440  177.2750  147.5860 N   0  0  0  0  0  2  0  0  0  0  0  0
  187.5910  178.4150  147.8640 N   0  0  0  0  0  2  0  0  0  0  0  0
  189.0310  177.2750  145.9300 S   0  0  0  0  0  0  0  0  0  0  0  0
  188.9840  178.3760  148.2670 C   0  0  0  0  0  2  0  0  0  0  0  0
  187.3270  178.7810  139.5970 N   0  0  0  0  0  2  0  0  0  0  0  0
  189.5510  177.8840  139.5890 C   0  0  0  0  0  3  0  0  0  0  0  0
  188.4650  178.2370  140.2780 C   0  0  0  0  0  0  0  0  0  0  0  0
  189.6550  178.0670  138.1100 C   0  0  0  0  0  2  0  0  0  0  0  0
  190.2750  175.6530  138.0980 C   0  0  0  0  0  2  0  0  0  0  0  0
  189.6090  174.3170  136.0450 C   0  0  2  0  0  3  0  0  0  0  0  0
  189.4470  176.7430  137.3980 C   0  0  2  0  0  3  0  0  0  0  0  0
  189.4980  175.5710  135.1570 C   0  0  0  0  0  2  0  0  0  0  0  0
  189.8270  176.8590  135.9200 C   0  0  0  0  0  2  0  0  0  0  0  0
  192.0470  174.5480  136.7420 C   0  0  0  0  0  1  0  0  0  0  0  0
  190.6040  174.4410  137.2130 C   0  0  1  0  0  3  0  0  0  0  0  0
  189.7200  173.0610  135.2950 N   0  0  0  0  0  2  0  0  0  0  0  0
  188.4310  172.6620  134.7410 C   0  0  1  0  0  3  0  0  0  0  0  0
  187.9200  171.6270  135.4930 C   0  0  0  0  0  0  0  0  0  0  0  0
  187.4280  173.0370  135.5940 O   0  0  0  0  0  0  0  0  0  0  0  0
  187.8910  170.4200  135.8460 O   0  0  0  0  0  0  0  0  0  0  0  0
  188.4240  177.9890  141.7570 C   0  0  0  0  0  2  0  0  0  0  0  0
  189.8610  176.1190  142.6070 C   0  0  0  0  0  1  0  0  0  0  0  0
  189.7900  177.6060  142.3160 C   0  0  0  0  0  2  0  0  0  0  0  0
  1  8  2  0  0  0  0
  2 13  1  0  0  0  0
  3 12  2  0  0  0  0
  4  9  2  0  0  0  0
  4  3  1  0  0  0  0
  5  1  2  0  0  0  0
  6  9  1  0  0  0  0
  7  2  2  0  0  0  0
  8 17  1  0  0  0  0
  9  7  1  0  0  0  0
 10  5  1  0  0  0  0
 11 14  2  0  0  0  0
 12  2  1  0  0  0  0
 12 11  1  0  0  0  0
 13 25  1  6  0  0  0
 13 10  1  0  0  0  0
 14  5  1  0  0  0  0
 15 18  2  0  0  0  0
 16 19  1  6  0  0  0
 16 20  1  0  0  0  0
 16 18  1  0  0  0  0
 17 15  1  0  0  0  0
 19 17  1  0  0  0  0
 20 23  1  1  0  0  0
 20 22  1  0  0  0  0
 21 24  1  0  0  0  0
 22 24  1  0  0  0  0
 23 21  1  0  0  0  0
 25 27  1  0  0  0  0
 26 27  2  0  0  0  0
 27 41  1  0  0  0  0
 28 26  1  0  0  0  0
 30 36  1  6  0  0  0
 30 35  1  0  0  0  0
 31 29  1  0  0  0  0
 31 28  1  1  0  0  0
 32 33  1  0  0  0  0
 32 30  1  0  0  0  0
 33 31  1  0  0  0  0
 35 34  1  6  0  0  0
 35 29  1  0  0  0  0
 37 36  1  1  0  0  0
 37 38  1  0  0  0  0
 37 39  1  0  0  0  0
 38 39  1  0  0  0  0
 38 40  2  0  0  0  0
 41 43  1  0  0  0  0
 43 42  1  0  0  0  0
M  END
>  <MODEL>
5

>  <REMARK>
 VINA RESULT:      -7.8      3.250      9.193
  Name = 
  10 active torsions:
  status: ('A' for Active; 'I' for Inactive)
    1  A    between atoms: C_3  and  N_7
    2  A    between atoms: C_4  and  C_24
    3  A    between atoms: C_6  and  N_28
    4  A    between atoms: C_6  and  C_35
    5  A    between atoms: N_7  and  C_9
    6  A    between atoms: C_11  and  C_12
    7  A    between atoms: C_18  and  N_27
    8  A    between atoms: C_19  and  C_24
    9  A    between atoms: N_28  and  C_41
   10  A    between atoms: C_35  and  C_40
                            x       y       z     vdW  Elec       q    Type
                         _______ _______ _______ _____ _____    ______ ____

>  <TORSDO>
F 10

$$$$
=
 OpenBabel10222421373D

 43 48  0  0  1  0  0  0  0  0999 V2000
  184.1090  179.1470  142.4080 C   0  0  0  0  0  0  0  0  0  0  0  0
  185.4240  177.7100  138.4280 C   0  0  0  0  0  0  0  0  0  0  0  0
  183.5990  176.8020  137.1670 N   0  0  0  0  0  0  0  0  0  0  0  0
  184.3220  176.8430  136.0180 C   0  0  0  0  0  3  0  0  0  0  0  0
  184.1800  178.7370  141.1730 C   0  0  0  0  0  0  0  0  0  0  0  0
  186.4260  177.3800  134.7860 C   0  0  0  0  0  1  0  0  0  0  0  0
  186.1730  177.7550  137.2420 C   0  0  0  0  0  3  0  0  0  0  0  0
  184.0480  179.5530  143.6470 C   0  0  0  0  0  3  0  0  0  0  0  0
  185.6250  177.3280  136.0360 C   0  0  0  0  0  0  0  0  0  0  0  0
  185.2530  179.2860  140.3030 C   0  0  0  0  0  2  0  0  0  0  0  0
  183.1810  177.1070  139.5260 C   0  0  0  0  0  3  0  0  0  0  0  0
  184.0920  177.2270  138.3640 C   0  0  0  0  0  0  0  0  0  0  0  0
  186.0530  178.1390  139.7280 C   0  0  2  0  0  3  0  0  0  0  0  0
  183.2200  177.7220  140.7140 C   0  0  0  0  0  3  0  0  0  0  0  0
  184.3440  178.7660  146.0410 C   0  0  0  0  0  3  0  0  0  0  0  0
  186.3550  177.6260  145.8700 C   0  0  1  0  0  3  0  0  0  0  0  0
  184.7570  178.8780  144.6900 N   0  0  0  0  0  0  0  0  0  0  0  0
  185.2170  178.0710  146.7440 C   0  0  0  0  0  3  0  0  0  0  0  0
  186.0210  178.2020  144.4920 C   0  0  0  0  0  2  0  0  0  0  0  0
  187.7120  178.1350  146.3610 C   0  0  1  0  0  3  0  0  0  0  0  0
  189.8250  176.9410  147.1780 N   0  0  0  0  0  2  0  0  0  0  0  0
  187.8320  178.0480  147.8070 N   0  0  0  0  0  2  0  0  0  0  0  0
  189.0720  177.2000  145.6030 S   0  0  0  0  0  0  0  0  0  0  0  0
  189.2530  177.9330  148.0730 C   0  0  0  0  0  2  0  0  0  0  0  0
  187.4460  178.5420  139.5520 N   0  0  0  0  0  2  0  0  0  0  0  0
  189.4980  177.3140  139.3810 C   0  0  0  0  0  3  0  0  0  0  0  0
  188.5530  177.8560  140.1510 C   0  0  0  0  0  0  0  0  0  0  0  0
  189.4780  177.4220  137.8910 C   0  0  0  0  0  2  0  0  0  0  0  0
  190.4720  176.1190  136.0150 C   0  0  0  0  0  2  0  0  0  0  0  0
  192.9100  175.4500  136.2610 C   0  0  2  0  0  3  0  0  0  0  0  0
  190.7760  176.8970  137.3060 C   0  0  2  0  0  3  0  0  0  0  0  0
  192.8840  175.5890  137.7950 C   0  0  0  0  0  2  0  0  0  0  0  0
  191.5100  176.0190  138.3210 C   0  0  0  0  0  2  0  0  0  0  0  0
  191.0770  173.7030  135.9970 C   0  0  0  0  0  1  0  0  0  0  0  0
  191.5530  175.0990  135.6230 C   0  0  1  0  0  3  0  0  0  0  0  0
  194.0340  174.6580  135.7500 N   0  0  0  0  0  2  0  0  0  0  0  0
  195.1820  175.5060  135.4490 C   0  0  1  0  0  3  0  0  0  0  0  0
  196.2510  175.1040  136.2200 C   0  0  0  0  0  0  0  0  0  0  0  0
  196.1200  174.7830  134.7640 O   0  0  0  0  0  0  0  0  0  0  0  0
  196.8690  175.0380  137.3140 O   0  0  0  0  0  0  0  0  0  0  0  0
  188.6260  177.6740  141.6380 C   0  0  0  0  0  2  0  0  0  0  0  0
  191.0410  177.5490  142.2950 C   0  0  0  0  0  1  0  0  0  0  0  0
  189.7710  176.7560  142.0510 C   0  0  0  0  0  2  0  0  0  0  0  0
  1  8  2  0  0  0  0
  2 13  1  0  0  0  0
  3 12  2  0  0  0  0
  4  9  2  0  0  0  0
  4  3  1  0  0  0  0
  5  1  2  0  0  0  0
  6  9  1  0  0  0  0
  7  2  2  0  0  0  0
  8 17  1  0  0  0  0
  9  7  1  0  0  0  0
 10  5  1  0  0  0  0
 11 14  2  0  0  0  0
 12  2  1  0  0  0  0
 12 11  1  0  0  0  0
 13 25  1  6  0  0  0
 13 10  1  0  0  0  0
 14  5  1  0  0  0  0
 15 18  2  0  0  0  0
 16 19  1  6  0  0  0
 16 20  1  0  0  0  0
 16 18  1  0  0  0  0
 17 15  1  0  0  0  0
 19 17  1  0  0  0  0
 20 23  1  6  0  0  0
 20 22  1  0  0  0  0
 21 24  1  0  0  0  0
 22 24  1  0  0  0  0
 23 21  1  0  0  0  0
 25 27  1  0  0  0  0
 26 27  2  0  0  0  0
 27 41  1  0  0  0  0
 28 26  1  0  0  0  0
 29 31  1  0  0  0  0
 30 36  1  1  0  0  0
 30 32  1  0  0  0  0
 31 28  1  1  0  0  0
 31 33  1  0  0  0  0
 32 33  1  0  0  0  0
 35 34  1  1  0  0  0
 35 29  1  0  0  0  0
 35 30  1  0  0  0  0
 37 36  1  1  0  0  0
 37 38  1  0  0  0  0
 38 40  2  0  0  0  0
 39 37  1  0  0  0  0
 39 38  1  0  0  0  0
 41 43  1  0  0  0  0
 43 42  1  0  0  0  0
M  END
>  <MODEL>
6

>  <REMARK>
 VINA RESULT:      -7.8      4.507     10.162
  Name = 
  10 active torsions:
  status: ('A' for Active; 'I' for Inactive)
    1  A    between atoms: C_3  and  N_7
    2  A    between atoms: C_4  and  C_24
    3  A    between atoms: C_6  and  N_28
    4  A    between atoms: C_6  and  C_35
    5  A    between atoms: N_7  and  C_9
    6  A    between atoms: C_11  and  C_12
    7  A    between atoms: C_18  and  N_27
    8  A    between atoms: C_19  and  C_24
    9  A    between atoms: N_28  and  C_41
   10  A    between atoms: C_35  and  C_40
                            x       y       z     vdW  Elec       q    Type
                         _______ _______ _______ _____ _____    ______ ____

>  <TORSDO>
F 10

$$$$
=
 OpenBabel10222421373D

 43 48  0  0  1  0  0  0  0  0999 V2000
  184.7220  177.0150  136.0040 C   0  0  0  0  0  0  0  0  0  0  0  0
  188.7570  176.5310  137.7690 C   0  0  0  0  0  0  0  0  0  0  0  0
  189.9570  174.7220  136.7540 N   0  0  0  0  0  0  0  0  0  0  0  0
  191.1310  175.1540  137.2830 C   0  0  0  0  0  3  0  0  0  0  0  0
  185.9610  176.7010  136.2550 C   0  0  0  0  0  0  0  0  0  0  0  0
  192.4350  176.7810  138.6560 C   0  0  0  0  0  1  0  0  0  0  0  0
  189.9690  176.9800  138.3170 C   0  0  0  0  0  3  0  0  0  0  0  0
  183.4780  177.3300  135.7630 C   0  0  0  0  0  3  0  0  0  0  0  0
  191.1570  176.2980  138.0720 C   0  0  0  0  0  0  0  0  0  0  0  0
  186.8660  177.7520  136.7890 C   0  0  0  0  0  2  0  0  0  0  0  0
  187.5830  174.7680  136.3170 C   0  0  0  0  0  3  0  0  0  0  0  0
  188.7760  175.3710  136.9540 C   0  0  0  0  0  0  0  0  0  0  0  0
  187.4780  177.2630  138.0830 C   0  0  2  0  0  3  0  0  0  0  0  0
  186.3930  175.3120  136.0350 C   0  0  0  0  0  3  0  0  0  0  0  0
  181.3290  176.3570  136.6960 C   0  0  0  0  0  3  0  0  0  0  0  0
  181.2260  177.4380  138.7440 C   0  0  1  0  0  3  0  0  0  0  0  0
  182.4660  177.2000  136.7650 N   0  0  0  0  0  0  0  0  0  0  0  0
  180.5980  176.4630  137.7890 C   0  0  0  0  0  3  0  0  0  0  0  0
  182.4770  177.9310  138.0140 C   0  0  0  0  0  2  0  0  0  0  0  0
  180.2990  178.6070  139.0890 C   0  0  1  0  0  3  0  0  0  0  0  0
  180.6740  181.1350  139.2480 N   0  0  0  0  0  2  0  0  0  0  0  0
  180.5250  179.0970  140.4390 N   0  0  0  0  0  2  0  0  0  0  0  0
  180.5200  179.9800  137.9220 S   0  0  0  0  0  0  0  0  0  0  0  0
  180.1130  180.4880  140.4220 C   0  0  0  0  0  2  0  0  0  0  0  0
  187.7010  178.3890  138.9850 N   0  0  0  0  0  2  0  0  0  0  0  0
  187.9220  178.1870  141.3640 C   0  0  0  0  0  3  0  0  0  0  0  0
  187.1560  178.4670  140.3090 C   0  0  0  0  0  0  0  0  0  0  0  0
  189.3650  177.8250  141.2330 C   0  0  0  0  0  2  0  0  0  0  0  0
  188.8290  176.8310  143.4540 C   0  0  0  0  0  2  0  0  0  0  0  0
  190.5980  177.0630  145.2610 C   0  0  2  0  0  3  0  0  0  0  0  0
  189.9400  177.4440  142.5850 C   0  0  2  0  0  3  0  0  0  0  0  0
  191.2690  178.2670  144.5730 C   0  0  0  0  0  2  0  0  0  0  0  0
  190.5670  178.6600  143.2680 C   0  0  0  0  0  2  0  0  0  0  0  0
  188.2630  178.0340  145.5590 C   0  0  0  0  0  1  0  0  0  0  0  0
  189.0950  176.9070  144.9650 C   0  0  1  0  0  3  0  0  0  0  0  0
  190.9480  176.9120  146.6770 N   0  0  0  0  0  2  0  0  0  0  0  0
  191.9980  175.9150  146.8570 C   0  0  1  0  0  3  0  0  0  0  0  0
  192.5140  176.0310  148.1290 C   0  0  0  0  0  0  0  0  0  0  0  0
  191.5680  174.9460  147.7210 O   0  0  0  0  0  0  0  0  0  0  0  0
  193.2250  176.6110  148.9900 O   0  0  0  0  0  0  0  0  0  0  0  0
  185.7060  178.7880  140.5210 C   0  0  0  0  0  2  0  0  0  0  0  0
  184.0880  178.5420  142.4190 C   0  0  0  0  0  1  0  0  0  0  0  0
  185.4020  179.1520  141.9700 C   0  0  0  0  0  2  0  0  0  0  0  0
  1  5  2  0  0  0  0
  2 13  1  0  0  0  0
  2  7  1  0  0  0  0
  3 12  1  0  0  0  0
  3  4  2  0  0  0  0
  4  9  1  0  0  0  0
  5 10  1  0  0  0  0
  8  1  2  0  0  0  0
  8 17  1  0  0  0  0
  9  7  2  0  0  0  0
  9  6  1  0  0  0  0
 10 13  1  0  0  0  0
 11 12  1  0  0  0  0
 12  2  2  0  0  0  0
 13 25  1  1  0  0  0
 14  5  1  0  0  0  0
 14 11  2  0  0  0  0
 15 17  1  0  0  0  0
 15 18  2  0  0  0  0
 16 18  1  6  0  0  0
 16 20  1  0  0  0  0
 17 19  1  0  0  0  0
 19 16  1  0  0  0  0
 20 23  1  6  0  0  0
 20 22  1  0  0  0  0
 21 24  1  0  0  0  0
 23 21  1  0  0  0  0
 24 22  1  0  0  0  0
 25 27  1  0  0  0  0
 27 41  1  0  0  0  0
 27 26  2  0  0  0  0
 28 26  1  0  0  0  0
 29 35  1  0  0  0  0
 30 36  1  1  0  0  0
 31 28  1  6  0  0  0
 31 33  1  0  0  0  0
 31 29  1  0  0  0  0
 32 30  1  0  0  0  0
 33 32  1  0  0  0  0
 35 30  1  0  0  0  0
 35 34  1  6  0  0  0
 37 36  1  1  0  0  0
 37 39  1  0  0  0  0
 37 38  1  0  0  0  0
 38 40  2  0  0  0  0
 39 38  1  0  0  0  0
 41 43  1  0  0  0  0
 43 42  1  0  0  0  0
M  END
>  <MODEL>
7

>  <REMARK>
 VINA RESULT:      -7.8      4.102      8.944
  Name = 
  10 active torsions:
  status: ('A' for Active; 'I' for Inactive)
    1  A    between atoms: C_3  and  N_7
    2  A    between atoms: C_4  and  C_24
    3  A    between atoms: C_6  and  N_28
    4  A    between atoms: C_6  and  C_35
    5  A    between atoms: N_7  and  C_9
    6  A    between atoms: C_11  and  C_12
    7  A    between atoms: C_18  and  N_27
    8  A    between atoms: C_19  and  C_24
    9  A    between atoms: N_28  and  C_41
   10  A    between atoms: C_35  and  C_40
                            x       y       z     vdW  Elec       q    Type
                         _______ _______ _______ _____ _____    ______ ____

>  <TORSDO>
F 10

$$$$
=
 OpenBabel10222421373D

 43 48  0  0  1  0  0  0  0  0999 V2000
  185.8090  177.2180  137.7210 C   0  0  0  0  0  0  0  0  0  0  0  0
  189.1040  174.5750  136.3810 C   0  0  0  0  0  0  0  0  0  0  0  0
  188.2930  172.4250  135.6970 N   0  0  0  0  0  0  0  0  0  0  0  0
  189.4680  172.1360  135.0820 C   0  0  0  0  0  3  0  0  0  0  0  0
  186.5360  176.2740  137.1930 C   0  0  0  0  0  0  0  0  0  0  0  0
  191.7930  172.7590  134.4190 C   0  0  0  0  0  1  0  0  0  0  0  0
  190.3190  174.2780  135.7450 C   0  0  0  0  0  3  0  0  0  0  0  0
  185.0890  178.1660  138.2560 C   0  0  0  0  0  3  0  0  0  0  0  0
  190.5030  173.0640  135.0900 C   0  0  0  0  0  0  0  0  0  0  0  0
  187.7980  176.6500  136.5030 C   0  0  0  0  0  2  0  0  0  0  0  0
  186.7360  173.7680  136.9640 C   0  0  0  0  0  3  0  0  0  0  0  0
  188.0660  173.6100  136.3320 C   0  0  0  0  0  0  0  0  0  0  0  0
  188.9440  175.8790  137.1180 C   0  0  2  0  0  3  0  0  0  0  0  0
  186.0930  174.8790  137.3440 C   0  0  0  0  0  3  0  0  0  0  0  0
  186.5470  178.7780  140.2410 C   0  0  0  0  0  3  0  0  0  0  0  0
  184.9260  179.3080  141.8120 C   0  0  1  0  0  3  0  0  0  0  0  0
  185.2930  178.5870  139.6070 N   0  0  0  0  0  0  0  0  0  0  0  0
  186.3870  179.1810  141.4870 C   0  0  0  0  0  3  0  0  0  0  0  0
  184.2140  178.8830  140.5260 C   0  0  0  0  0  2  0  0  0  0  0  0
  184.5030  178.4240  142.9880 C   0  0  1  0  0  3  0  0  0  0  0  0
  183.8540  178.9460  145.4090 N   0  0  0  0  0  2  0  0  0  0  0  0
  185.5790  178.2500  143.9490 N   0  0  0  0  0  2  0  0  0  0  0  0
  183.0610  179.1230  143.8410 S   0  0  0  0  0  0  0  0  0  0  0  0
  184.9280  177.9860  145.2180 C   0  0  0  0  0  2  0  0  0  0  0  0
  190.1630  176.6820  137.0760 N   0  0  0  0  0  2  0  0  0  0  0  0
  191.0310  176.6440  139.3110 C   0  0  0  0  0  3  0  0  0  0  0  0
  191.2480  176.5280  138.0000 C   0  0  0  0  0  0  0  0  0  0  0  0
  189.6720  176.8960  139.8790 C   0  0  0  0  0  2  0  0  0  0  0  0
  191.2500  177.3770  141.7460 C   0  0  0  0  0  2  0  0  0  0  0  0
  190.2130  177.9430  143.9940 C   0  0  2  0  0  3  0  0  0  0  0  0
  189.7820  177.4350  141.2930 C   0  0  2  0  0  3  0  0  0  0  0  0
  188.8760  177.2610  143.6480 C   0  0  0  0  0  2  0  0  0  0  0  0
  188.8790  176.6460  142.2430 C   0  0  0  0  0  2  0  0  0  0  0  0
  191.7570  175.9370  143.7140 C   0  0  0  0  0  1  0  0  0  0  0  0
  191.4400  177.3580  143.2710 C   0  0  1  0  0  3  0  0  0  0  0  0
  190.4160  178.1680  145.4290 N   0  0  0  0  0  2  0  0  0  0  0  0
  189.6350  177.2280  146.2260 C   0  0  1  0  0  3  0  0  0  0  0  0
  190.4600  176.6310  147.1530 C   0  0  0  0  0  0  0  0  0  0  0  0
  189.4860  177.7140  147.4960 O   0  0  0  0  0  0  0  0  0  0  0  0
  191.3590  175.8110  147.4740 O   0  0  0  0  0  0  0  0  0  0  0  0
  192.6470  176.3100  137.5060 C   0  0  0  0  0  2  0  0  0  0  0  0
  194.3360  174.5790  136.8460 C   0  0  0  0  0  1  0  0  0  0  0  0
  193.1010  174.8640  137.6790 C   0  0  0  0  0  2  0  0  0  0  0  0
  1  8  2  0  0  0  0
  2 13  1  0  0  0  0
  3 12  2  0  0  0  0
  4  9  2  0  0  0  0
  4  3  1  0  0  0  0
  5 14  1  0  0  0  0
  5  1  2  0  0  0  0
  6  9  1  0  0  0  0
  7  2  2  0  0  0  0
  8 17  1  0  0  0  0
  9  7  1  0  0  0  0
 10 13  1  0  0  0  0
 10  5  1  0  0  0  0
 11 14  2  0  0  0  0
 12  2  1  0  0  0  0
 12 11  1  0  0  0  0
 13 25  1  6  0  0  0
 15 18  2  0  0  0  0
 16 19  1  6  0  0  0
 16 20  1  0  0  0  0
 17 15  1  0  0  0  0
 17 19  1  0  0  0  0
 18 16  1  0  0  0  0
 20 23  1  1  0  0  0
 20 22  1  0  0  0  0
 22 24  1  0  0  0  0
 23 21  1  0  0  0  0
 24 21  1  0  0  0  0
 25 27  1  0  0  0  0
 26 28  1  0  0  0  0
 27 26  2  0  0  0  0
 29 35  1  0  0  0  0
 30 36  1  1  0  0  0
 31 28  1  6  0  0  0
 31 29  1  0  0  0  0
 31 33  1  0  0  0  0
 32 30  1  0  0  0  0
 33 32  1  0  0  0  0
 35 34  1  1  0  0  0
 35 30  1  0  0  0  0
 37 36  1  6  0  0  0
 37 38  1  0  0  0  0
 37 39  1  0  0  0  0
 38 40  2  0  0  0  0
 38 39  1  0  0  0  0
 41 43  1  0  0  0  0
 41 27  1  0  0  0  0
 42 43  1  0  0  0  0
M  END
>  <MODEL>
8

>  <REMARK>
 VINA RESULT:      -7.7      4.090      9.608
  Name = 
  10 active torsions:
  status: ('A' for Active; 'I' for Inactive)
    1  A    between atoms: C_3  and  N_7
    2  A    between atoms: C_4  and  C_24
    3  A    between atoms: C_6  and  N_28
    4  A    between atoms: C_6  and  C_35
    5  A    between atoms: N_7  and  C_9
    6  A    between atoms: C_11  and  C_12
    7  A    between atoms: C_18  and  N_27
    8  A    between atoms: C_19  and  C_24
    9  A    between atoms: N_28  and  C_41
   10  A    between atoms: C_35  and  C_40
                            x       y       z     vdW  Elec       q    Type
                         _______ _______ _______ _____ _____    ______ ____

>  <TORSDO>
F 10

$$$$
=
 OpenBabel10222421373D

 43 48  0  0  1  0  0  0  0  0999 V2000
  183.9540  179.1470  142.0230 C   0  0  0  0  0  0  0  0  0  0  0  0
  185.8160  177.8260  138.2260 C   0  0  0  0  0  0  0  0  0  0  0  0
  184.1950  176.9110  136.7160 N   0  0  0  0  0  0  0  0  0  0  0  0
  185.0630  176.9930  135.6750 C   0  0  0  0  0  3  0  0  0  0  0  0
  184.1970  178.7660  140.8010 C   0  0  0  0  0  0  0  0  0  0  0  0
  187.2990  177.5980  134.7430 C   0  0  0  0  0  1  0  0  0  0  0  0
  186.7150  177.9120  137.1510 C   0  0  0  0  0  3  0  0  0  0  0  0
  183.7210  179.5230  143.2520 C   0  0  0  0  0  3  0  0  0  0  0  0
  186.3400  177.5030  135.8750 C   0  0  0  0  0  0  0  0  0  0  0  0
  185.3630  179.3550  140.0920 C   0  0  0  0  0  2  0  0  0  0  0  0
  183.4620  177.1540  139.0040 C   0  0  0  0  0  3  0  0  0  0  0  0
  184.5150  177.3190  137.9760 C   0  0  0  0  0  0  0  0  0  0  0  0
  186.2580  178.2380  139.6060 C   0  0  2  0  0  3  0  0  0  0  0  0
  183.3290  177.7430  140.1980 C   0  0  0  0  0  3  0  0  0  0  0  0
  183.7470  178.7480  145.6680 C   0  0  0  0  0  3  0  0  0  0  0  0
  185.7350  177.5560  145.7110 C   0  0  1  0  0  3  0  0  0  0  0  0
  184.3000  178.8390  144.3660 N   0  0  0  0  0  0  0  0  0  0  0  0
  184.5250  178.0370  146.4610 C   0  0  0  0  0  3  0  0  0  0  0  0
  185.5600  178.1300  144.3030 C   0  0  0  0  0  2  0  0  0  0  0  0
  187.0470  178.0340  146.3370 C   0  0  1  0  0  3  0  0  0  0  0  0
  188.2830  177.3940  148.4860 N   0  0  0  0  0  2  0  0  0  0  0  0
  186.8170  178.9360  147.4540 N   0  0  0  0  0  2  0  0  0  0  0  0
  188.0440  176.6310  146.9120 S   0  0  0  0  0  0  0  0  0  0  0  0
  187.9840  178.8050  148.3060 C   0  0  0  0  0  2  0  0  0  0  0  0
  187.6520  178.6720  139.6250 N   0  0  0  0  0  2  0  0  0  0  0  0
  189.0430  177.0680  140.7390 C   0  0  0  0  0  3  0  0  0  0  0  0
  188.7660  177.7690  139.6390 C   0  0  0  0  0  0  0  0  0  0  0  0
  188.2070  177.1510  141.9740 C   0  0  0  0  0  2  0  0  0  0  0  0
  189.2690  178.3350  143.8910 C   0  0  0  0  0  2  0  0  0  0  0  0
  190.9700  177.0190  145.2410 C   0  0  2  0  0  3  0  0  0  0  0  0
  189.0700  176.9720  143.2090 C   0  0  2  0  0  3  0  0  0  0  0  0
  191.2430  176.0280  144.0940 C   0  0  0  0  0  2  0  0  0  0  0  0
  190.4130  176.3370  142.8430 C   0  0  0  0  0  2  0  0  0  0  0  0
  191.6070  179.1770  144.0490 C   0  0  0  0  0  1  0  0  0  0  0  0
  190.5150  178.4180  144.7870 C   0  0  1  0  0  3  0  0  0  0  0  0
  192.0070  177.0350  146.2780 N   0  0  0  0  0  2  0  0  0  0  0  0
  192.2500  175.6950  146.8010 C   0  0  1  0  0  3  0  0  0  0  0  0
  192.6350  175.7910  148.1200 C   0  0  0  0  0  0  0  0  0  0  0  0
  191.2660  175.3640  147.6910 O   0  0  0  0  0  0  0  0  0  0  0  0
  193.4810  176.0510  149.0130 O   0  0  0  0  0  0  0  0  0  0  0  0
  189.6740  177.6580  138.4500 C   0  0  0  0  0  2  0  0  0  0  0  0
  190.5660  175.4630  137.6310 C   0  0  0  0  0  1  0  0  0  0  0  0
  190.7400  176.5840  138.6380 C   0  0  0  0  0  2  0  0  0  0  0  0
  1  8  2  0  0  0  0
  2 13  1  0  0  0  0
  3 12  2  0  0  0  0
  4  9  2  0  0  0  0
  4  3  1  0  0  0  0
  5  1  2  0  0  0  0
  6  9  1  0  0  0  0
  7  2  2  0  0  0  0
  8 17  1  0  0  0  0
  9  7  1  0  0  0  0
 10  5  1  0  0  0  0
 11 14  2  0  0  0  0
 12  2  1  0  0  0  0
 12 11  1  0  0  0  0
 13 25  1  6  0  0  0
 13 10  1  0  0  0  0
 14  5  1  0  0  0  0
 15 18  2  0  0  0  0
 16 19  1  6  0  0  0
 16 20  1  0  0  0  0
 16 18  1  0  0  0  0
 17 15  1  0  0  0  0
 19 17  1  0  0  0  0
 20 23  1  1  0  0  0
 20 22  1  0  0  0  0
 22 24  1  0  0  0  0
 23 21  1  0  0  0  0
 24 21  1  0  0  0  0
 25 27  1  0  0  0  0
 26 28  1  0  0  0  0
 27 26  2  0  0  0  0
 29 35  1  0  0  0  0
 30 36  1  6  0  0  0
 31 28  1  6  0  0  0
 31 29  1  0  0  0  0
 32 30  1  0  0  0  0
 33 31  1  0  0  0  0
 33 32  1  0  0  0  0
 35 34  1  6  0  0  0
 35 30  1  0  0  0  0
 37 36  1  1  0  0  0
 37 39  1  0  0  0  0
 37 38  1  0  0  0  0
 38 40  2  0  0  0  0
 39 38  1  0  0  0  0
 41 43  1  0  0  0  0
 41 27  1  0  0  0  0
 42 43  1  0  0  0  0
M  END
>  <MODEL>
9

>  <REMARK>
 VINA RESULT:      -7.6      4.321     10.290
  Name = 
  10 active torsions:
  status: ('A' for Active; 'I' for Inactive)
    1  A    between atoms: C_3  and  N_7
    2  A    between atoms: C_4  and  C_24
    3  A    between atoms: C_6  and  N_28
    4  A    between atoms: C_6  and  C_35
    5  A    between atoms: N_7  and  C_9
    6  A    between atoms: C_11  and  C_12
    7  A    between atoms: C_18  and  N_27
    8  A    between atoms: C_19  and  C_24
    9  A    between atoms: N_28  and  C_41
   10  A    between atoms: C_35  and  C_40
                            x       y       z     vdW  Elec       q    Type
                         _______ _______ _______ _____ _____    ______ ____

>  <TORSDO>
F 10

$$$$
