=
 OpenBabel10232408283D

 45 50  0  0  1  0  0  0  0  0999 V2000
  187.0910  174.9490  134.8030 C   0  0  0  0  0  2  0  0  0  0  0  0
  188.6200  174.8170  135.0400 C   0  0  0  0  0  2  0  0  0  0  0  0
  191.4050  177.1680  140.2740 C   0  0  0  0  0  2  0  0  0  0  0  0
  189.1460  176.8700  139.0600 C   0  0  1  0  0  3  0  0  0  0  0  0
  189.2670  175.7750  136.0970 C   0  0  1  0  0  3  0  0  0  0  0  0
  188.1640  177.9970  135.4130 C   0  0  1  0  0  3  0  0  0  0  0  0
  191.1980  175.9250  138.2740 C   0  0  0  0  0  0  0  0  0  0  0  0
  189.3220  178.2410  134.6700 O   0  0  0  0  0  1  0  0  0  0  0  0
  191.6030  175.6040  136.8770 C   0  0  2  0  0  3  0  0  0  0  0  0
  187.0540  177.4200  134.5380 C   0  0  0  0  0  2  0  0  0  0  0  0
  186.9280  176.4780  136.7850 C   0  0  1  0  0  0  0  0  0  0  0  0
  186.9060  175.2900  137.5390 O   0  0  0  0  0  1  0  0  0  0  0  0
  188.9300  177.7360  137.8010 C   0  0  0  0  0  2  0  0  0  0  0  0
  190.7000  176.1450  135.8470 N   0  0  1  0  0  0  0  0  0  0  0  0
  191.8510  174.1520  136.5530 C   0  0  1  0  0  3  0  0  0  0  0  0
  189.8870  175.7120  138.6910 O   0  0  0  0  0  0  0  0  0  0  0  0
  188.3690  176.9870  136.5610 C   0  0  1  0  0  0  0  0  0  0  0  0
  191.9560  176.6650  139.0170 N   0  0  0  0  0  0  0  0  0  0  0  0
  189.9660  177.7080  140.0690 C   0  0  1  0  0  3  0  0  0  0  0  0
  191.8120  174.1450  135.0370 C   0  0  0  0  0  2  0  0  0  0  0  0
  191.2280  175.5120  134.6320 C   0  0  0  0  0  2  0  0  0  0  0  0
  186.4750  176.2450  135.3350 C   0  0  2  0  0  3  0  0  0  0  0  0
  188.6800  178.9580  141.6670 O   0  0  0  0  0  0  0  0  0  0  0  0
  189.1990  176.7730  142.2750 N   0  0  0  0  0  1  0  0  0  0  0  0
  189.2640  177.8760  141.3770 C   0  0  0  0  0  0  0  0  0  0  0  0
  193.2250  173.7280  137.0380 C   0  0  0  0  0  2  0  0  0  0  0  0
  194.3110  174.6280  136.4580 C   0  0  1  0  0  3  0  0  0  0  0  0
  194.8420  175.4660  137.4430 O   0  0  0  0  0  1  0  0  0  0  0  0
  196.6880  173.7740  136.4710 N   0  0  0  0  0  1  0  0  0  0  0  0
  195.2750  173.3310  134.6470 N   0  0  0  0  0  2  0  0  0  0  0  0
  195.4050  173.7920  135.8520 C   0  0  0  0  0  0  0  0  0  0  0  0
  186.0190  177.5160  137.4700 C   0  0  0  0  0  2  0  0  0  0  0  0
  184.6030  176.9750  137.6850 C   0  0  0  0  0  2  0  0  0  0  0  0
  183.7480  177.9930  138.2820 N   0  0  0  0  0  2  0  0  0  0  0  0
  184.2740  178.4030  139.5910 C   0  0  1  0  0  3  0  0  0  0  0  0
  184.5220  179.7840  139.6040 O   0  0  0  0  0  1  0  0  0  0  0  0
  183.3370  177.9820  140.7500 C   0  0  1  0  0  3  0  0  0  0  0  0
  184.9740  178.9640  144.6080 C   0  0  0  0  0  3  0  0  0  0  0  0
  183.0980  178.8700  143.0730 C   0  0  0  0  0  3  0  0  0  0  0  0
  185.7980  178.3940  143.6320 C   0  0  0  0  0  3  0  0  0  0  0  0
  183.6240  179.2020  144.3280 C   0  0  0  0  0  3  0  0  0  0  0  0
  185.2730  178.0610  142.3780 C   0  0  0  0  0  3  0  0  0  0  0  0
  183.9160  178.2910  142.0960 C   0  0  0  0  0  0  0  0  0  0  0  0
  180.9910  177.5510  140.3840 O   0  0  0  0  0  1  0  0  0  0  0  0
  181.9280  178.5650  140.6070 C   0  0  0  0  0  2  0  0  0  0  0  0
  1  2  1  0  0  0  0
  1 22  1  0  0  0  0
  4 13  1  6  0  0  0
  4 19  1  0  0  0  0
  5  2  1  6  0  0  0
  5 17  1  0  0  0  0
  6  8  1  6  0  0  0
  6 17  1  0  0  0  0
  7 16  1  0  0  0  0
  7 18  2  0  0  0  0
  9  7  1  1  0  0  0
 10  6  1  0  0  0  0
 11 32  1  0  0  0  0
 11 12  1  1  0  0  0
 14 21  1  6  0  0  0
 14  5  1  0  0  0  0
 14  9  1  0  0  0  0
 15  9  1  0  0  0  0
 15 26  1  6  0  0  0
 16  4  1  0  0  0  0
 17 11  1  0  0  0  0
 17 13  1  1  0  0  0
 18  3  1  0  0  0  0
 19  3  1  0  0  0  0
 19 25  1  1  0  0  0
 20 15  1  0  0  0  0
 21 20  1  0  0  0  0
 22 10  1  6  0  0  0
 22 11  1  0  0  0  0
 25 23  2  0  0  0  0
 25 24  1  0  0  0  0
 27 26  1  0  0  0  0
 27 28  1  1  0  0  0
 30 31  2  0  0  0  0
 31 27  1  0  0  0  0
 31 29  1  0  0  0  0
 32 33  1  0  0  0  0
 33 34  1  0  0  0  0
 34 35  1  0  0  0  0
 35 36  1  6  0  0  0
 35 37  1  0  0  0  0
 37 45  1  6  0  0  0
 37 43  1  0  0  0  0
 39 41  2  0  0  0  0
 40 38  2  0  0  0  0
 41 38  1  0  0  0  0
 42 40  1  0  0  0  0
 43 42  2  0  0  0  0
 43 39  1  0  0  0  0
 44 45  1  0  0  0  0
M  END
>  <MODEL>
1

>  <REMARK>
 VINA RESULT:      -7.3      0.000      0.000
  Name = 
  11 active torsions:
  status: ('A' for Active; 'I' for Inactive)
    1  A    between atoms: C_4  and  C_5
    2  A    between atoms: C_4  and  N_40
    3  A    between atoms: C_5  and  C_31
    4  A    between atoms: C_5  and  C_45
    5  A    between atoms: C_7  and  C_15
    6  A    between atoms: C_7  and  C_29
    7  A    between atoms: C_15  and  C_44
    8  A    between atoms: C_19  and  C_24
    9  A    between atoms: C_19  and  C_34
   10  A    between atoms: C_34  and  N_40
   11  A    between atoms: C_37  and  C_38
                            x       y       z     vdW  Elec       q    Type
                         _______ _______ _______ _____ _____    ______ ____

>  <TORSDO>
F 11

$$$$
=
 OpenBabel10232408283D

 45 50  0  0  1  0  0  0  0  0999 V2000
  180.4640  177.2920  140.1260 C   0  0  0  0  0  2  0  0  0  0  0  0
  180.7540  176.9410  138.6420 C   0  0  0  0  0  2  0  0  0  0  0  0
  186.6170  177.4370  136.1780 C   0  0  0  0  0  2  0  0  0  0  0  0
  185.2200  177.7260  138.3300 C   0  0  1  0  0  3  0  0  0  0  0  0
  182.0820  177.4940  138.0210 C   0  0  1  0  0  3  0  0  0  0  0  0
  181.9910  179.9200  138.8720 C   0  0  1  0  0  3  0  0  0  0  0  0
  184.3360  176.8300  136.2970 C   0  0  0  0  0  0  0  0  0  0  0  0
  181.4280  180.2400  137.6340 O   0  0  0  0  0  1  0  0  0  0  0  0
  182.9350  176.8700  135.7900 C   0  0  2  0  0  3  0  0  0  0  0  0
  180.9160  179.7290  139.9380 C   0  0  0  0  0  2  0  0  0  0  0  0
  182.7850  178.2160  140.3500 C   0  0  1  0  0  0  0  0  0  0  0  0
  183.1640  176.8740  140.5390 O   0  0  0  0  0  1  0  0  0  0  0  0
  184.2500  178.9260  138.3570 C   0  0  0  0  0  2  0  0  0  0  0  0
  182.0460  177.7680  136.5460 N   0  0  1  0  0  0  0  0  0  0  0  0
  182.2270  175.5480  135.6310 C   0  0  1  0  0  3  0  0  0  0  0  0
  184.5850  176.6460  137.6540 O   0  0  0  0  0  0  0  0  0  0  0  0
  182.8130  178.6150  138.8580 C   0  0  1  0  0  0  0  0  0  0  0  0
  185.3080  177.2500  135.5550 N   0  0  0  0  0  0  0  0  0  0  0  0
  186.4790  178.1600  137.5430 C   0  0  1  0  0  3  0  0  0  0  0  0
  180.7730  175.9680  135.5280 C   0  0  0  0  0  2  0  0  0  0  0  0
  180.7380  177.4470  135.9600 C   0  0  0  0  0  2  0  0  0  0  0  0
  181.3020  178.4460  140.6830 C   0  0  2  0  0  3  0  0  0  0  0  0
  188.8030  177.6160  137.8210 O   0  0  0  0  0  0  0  0  0  0  0  0
  187.7240  178.4390  139.7120 N   0  0  0  0  0  1  0  0  0  0  0  0
  187.7310  178.0280  138.3490 C   0  0  0  0  0  0  0  0  0  0  0  0
  182.6610  174.8660  134.3470 C   0  0  0  0  0  2  0  0  0  0  0  0
  183.2120  173.4720  134.6280 C   0  0  1  0  0  3  0  0  0  0  0  0
  184.3150  173.5370  135.4850 O   0  0  0  0  0  1  0  0  0  0  0  0
  182.4140  171.9160  136.4500 N   0  0  0  0  0  1  0  0  0  0  0  0
  181.1060  172.2680  134.5310 N   0  0  0  0  0  2  0  0  0  0  0  0
  182.1410  172.6070  135.2350 C   0  0  0  0  0  0  0  0  0  0  0  0
  183.6770  179.1110  141.2320 C   0  0  0  0  0  2  0  0  0  0  0  0
  183.1860  179.1460  142.6820 C   0  0  0  0  0  2  0  0  0  0  0  0
  183.9320  178.1990  143.5010 N   0  0  0  0  0  2  0  0  0  0  0  0
  185.2220  178.7740  143.9050 C   0  0  1  0  0  3  0  0  0  0  0  0
  185.0770  180.1420  144.1870 O   0  0  0  0  0  1  0  0  0  0  0  0
  185.8480  178.0100  145.0980 C   0  0  1  0  0  3  0  0  0  0  0  0
  189.8390  176.6430  144.2400 C   0  0  0  0  0  3  0  0  0  0  0  0
  188.2400  177.6800  145.7410 C   0  0  0  0  0  3  0  0  0  0  0  0
  188.8300  176.4730  143.2870 C   0  0  0  0  0  3  0  0  0  0  0  0
  189.5440  177.2470  145.4680 C   0  0  0  0  0  3  0  0  0  0  0  0
  187.5270  176.9040  143.5600 C   0  0  0  0  0  3  0  0  0  0  0  0
  187.2250  177.5030  144.7950 C   0  0  0  0  0  0  0  0  0  0  0  0
  184.6050  178.7040  147.0460 O   0  0  0  0  0  1  0  0  0  0  0  0
  185.8340  178.8290  146.3920 C   0  0  0  0  0  2  0  0  0  0  0  0
  1 22  1  0  0  0  0
  2  1  1  0  0  0  0
  3 19  1  0  0  0  0
  4 13  1  6  0  0  0
  5  2  1  1  0  0  0
  5 17  1  0  0  0  0
  6  8  1  6  0  0  0
  6 10  1  0  0  0  0
  7 16  1  0  0  0  0
  9  7  1  1  0  0  0
  9 14  1  0  0  0  0
 11 12  1  1  0  0  0
 11 22  1  0  0  0  0
 11 32  1  0  0  0  0
 14 21  1  6  0  0  0
 14  5  1  0  0  0  0
 15 26  1  6  0  0  0
 15  9  1  0  0  0  0
 16  4  1  0  0  0  0
 17 13  1  6  0  0  0
 17  6  1  0  0  0  0
 17 11  1  0  0  0  0
 18  3  1  0  0  0  0
 18  7  2  0  0  0  0
 19  4  1  0  0  0  0
 19 25  1  1  0  0  0
 20 15  1  0  0  0  0
 20 21  1  0  0  0  0
 22 10  1  6  0  0  0
 23 25  2  0  0  0  0
 25 24  1  0  0  0  0
 26 27  1  0  0  0  0
 27 31  1  0  0  0  0
 27 28  1  1  0  0  0
 30 31  2  0  0  0  0
 31 29  1  0  0  0  0
 32 33  1  0  0  0  0
 33 34  1  0  0  0  0
 34 35  1  0  0  0  0
 35 36  1  1  0  0  0
 35 37  1  0  0  0  0
 37 45  1  1  0  0  0
 38 41  1  0  0  0  0
 40 42  1  0  0  0  0
 40 38  2  0  0  0  0
 41 39  2  0  0  0  0
 42 43  2  0  0  0  0
 43 37  1  0  0  0  0
 43 39  1  0  0  0  0
 45 44  1  0  0  0  0
M  END
>  <MODEL>
2

>  <REMARK>
 VINA RESULT:      -7.2      4.249      7.739
  Name = 
  11 active torsions:
  status: ('A' for Active; 'I' for Inactive)
    1  A    between atoms: C_4  and  C_5
    2  A    between atoms: C_4  and  N_40
    3  A    between atoms: C_5  and  C_31
    4  A    between atoms: C_5  and  C_45
    5  A    between atoms: C_7  and  C_15
    6  A    between atoms: C_7  and  C_29
    7  A    between atoms: C_15  and  C_44
    8  A    between atoms: C_19  and  C_24
    9  A    between atoms: C_19  and  C_34
   10  A    between atoms: C_34  and  N_40
   11  A    between atoms: C_37  and  C_38
                            x       y       z     vdW  Elec       q    Type
                         _______ _______ _______ _____ _____    ______ ____

>  <TORSDO>
F 11

$$$$
=
 OpenBabel10232408283D

 45 50  0  0  1  0  0  0  0  0999 V2000
  187.4070  177.2060  139.1050 C   0  0  0  0  0  2  0  0  0  0  0  0
  187.4130  176.2990  137.8450 C   0  0  0  0  0  2  0  0  0  0  0  0
  192.7290  173.3960  135.8460 C   0  0  0  0  0  2  0  0  0  0  0  0
  191.7480  174.9440  137.6650 C   0  0  1  0  0  3  0  0  0  0  0  0
  188.8030  175.9920  137.1900 C   0  0  1  0  0  3  0  0  0  0  0  0
  189.8250  178.3530  137.1950 C   0  0  1  0  0  3  0  0  0  0  0  0
  190.4240  173.9010  135.9680 C   0  0  0  0  0  0  0  0  0  0  0  0
  189.3690  178.4570  135.8780 O   0  0  0  0  0  1  0  0  0  0  0  0
  189.1450  174.3690  135.3620 C   0  0  2  0  0  3  0  0  0  0  0  0
  188.8500  179.0030  138.1720 C   0  0  0  0  0  2  0  0  0  0  0  0
  189.9090  177.0640  139.2070 C   0  0  1  0  0  0  0  0  0  0  0  0
  189.6860  175.8330  139.8530 O   0  0  0  0  0  1  0  0  0  0  0  0
  191.3930  176.3790  137.2190 C   0  0  0  0  0  2  0  0  0  0  0  0
  188.7850  175.7540  135.7080 N   0  0  1  0  0  0  0  0  0  0  0  0
  187.9280  173.5070  135.5840 C   0  0  1  0  0  3  0  0  0  0  0  0
  190.6640  174.0850  137.3260 O   0  0  0  0  0  0  0  0  0  0  0  0
  190.0020  176.8970  137.6740 C   0  0  1  0  0  0  0  0  0  0  0  0
  191.4280  173.5950  135.2120 N   0  0  0  0  0  0  0  0  0  0  0  0
  193.0120  174.5120  136.8860 C   0  0  1  0  0  3  0  0  0  0  0  0
  186.7940  174.4500  135.2310 C   0  0  0  0  0  2  0  0  0  0  0  0
  187.4290  175.8510  135.1530 C   0  0  0  0  0  2  0  0  0  0  0  0
  188.6970  178.0010  139.3230 C   0  0  2  0  0  3  0  0  0  0  0  0
  194.5360  172.9320  137.8630 O   0  0  0  0  0  0  0  0  0  0  0  0
  194.8120  175.1440  138.5260 N   0  0  0  0  0  1  0  0  0  0  0  0
  194.1380  174.1290  137.7910 C   0  0  0  0  0  0  0  0  0  0  0  0
  187.9350  172.3250  134.6320 C   0  0  0  0  0  2  0  0  0  0  0  0
  187.7690  171.0120  135.3900 C   0  0  1  0  0  3  0  0  0  0  0  0
  187.8000  171.2280  136.7710 O   0  0  0  0  0  1  0  0  0  0  0  0
  185.2440  170.9980  135.3230 N   0  0  0  0  0  1  0  0  0  0  0  0
  186.4620  169.1050  134.6510 N   0  0  0  0  0  2  0  0  0  0  0  0
  186.4730  170.3530  135.0030 C   0  0  0  0  0  0  0  0  0  0  0  0
  191.1590  177.7250  139.8200 C   0  0  0  0  0  2  0  0  0  0  0  0
  191.5150  177.1120  141.1770 C   0  0  0  0  0  2  0  0  0  0  0  0
  190.9080  177.8730  142.2610 N   0  0  0  0  0  2  0  0  0  0  0  0
  190.0490  177.0070  143.0810 C   0  0  1  0  0  3  0  0  0  0  0  0
  190.5310  175.6890  143.0630 O   0  0  0  0  0  1  0  0  0  0  0  0
  189.9020  177.5400  144.5270 C   0  0  1  0  0  3  0  0  0  0  0  0
  185.7780  177.9650  145.6870 C   0  0  0  0  0  3  0  0  0  0  0  0
  187.4700  177.6870  143.9710 C   0  0  0  0  0  3  0  0  0  0  0  0
  186.7740  177.9480  146.6680 C   0  0  0  0  0  3  0  0  0  0  0  0
  186.1260  177.8350  144.3380 C   0  0  0  0  0  3  0  0  0  0  0  0
  188.1170  177.7990  146.3030 C   0  0  0  0  0  3  0  0  0  0  0  0
  188.4690  177.6600  144.9500 C   0  0  0  0  0  0  0  0  0  0  0  0
  191.9410  177.3300  145.7990 O   0  0  0  0  0  1  0  0  0  0  0  0
  190.7090  176.7220  145.5390 C   0  0  0  0  0  2  0  0  0  0  0  0
  1 22  1  0  0  0  0
  2  1  1  0  0  0  0
  3 19  1  0  0  0  0
  4 13  1  6  0  0  0
  5 17  1  0  0  0  0
  5  2  1  6  0  0  0
  6  8  1  6  0  0  0
  6 17  1  0  0  0  0
  6 10  1  0  0  0  0
  7 16  1  0  0  0  0
  9 15  1  0  0  0  0
  9 14  1  0  0  0  0
  9  7  1  1  0  0  0
 11 22  1  0  0  0  0
 11 32  1  0  0  0  0
 11 12  1  1  0  0  0
 14 21  1  1  0  0  0
 14  5  1  0  0  0  0
 15 26  1  6  0  0  0
 16  4  1  0  0  0  0
 17 13  1  6  0  0  0
 17 11  1  0  0  0  0
 18  3  1  0  0  0  0
 18  7  2  0  0  0  0
 19  4  1  0  0  0  0
 19 25  1  1  0  0  0
 20 15  1  0  0  0  0
 21 20  1  0  0  0  0
 22 10  1  6  0  0  0
 25 23  2  0  0  0  0
 25 24  1  0  0  0  0
 26 27  1  0  0  0  0
 27 28  1  1  0  0  0
 30 31  2  0  0  0  0
 31 29  1  0  0  0  0
 31 27  1  0  0  0  0
 32 33  1  0  0  0  0
 33 34  1  0  0  0  0
 34 35  1  0  0  0  0
 35 36  1  1  0  0  0
 35 37  1  0  0  0  0
 37 43  1  0  0  0  0
 37 45  1  1  0  0  0
 38 40  1  0  0  0  0
 39 41  1  0  0  0  0
 39 43  2  0  0  0  0
 41 38  2  0  0  0  0
 42 40  2  0  0  0  0
 43 42  1  0  0  0  0
 45 44  1  0  0  0  0
M  END
>  <MODEL>
3

>  <REMARK>
 VINA RESULT:      -6.7      2.948      6.085
  Name = 
  11 active torsions:
  status: ('A' for Active; 'I' for Inactive)
    1  A    between atoms: C_4  and  C_5
    2  A    between atoms: C_4  and  N_40
    3  A    between atoms: C_5  and  C_31
    4  A    between atoms: C_5  and  C_45
    5  A    between atoms: C_7  and  C_15
    6  A    between atoms: C_7  and  C_29
    7  A    between atoms: C_15  and  C_44
    8  A    between atoms: C_19  and  C_24
    9  A    between atoms: C_19  and  C_34
   10  A    between atoms: C_34  and  N_40
   11  A    between atoms: C_37  and  C_38
                            x       y       z     vdW  Elec       q    Type
                         _______ _______ _______ _____ _____    ______ ____

>  <TORSDO>
F 11

$$$$
=
 OpenBabel10232408283D

 45 50  0  0  1  0  0  0  0  0999 V2000
  187.4560  178.0360  139.2270 C   0  0  0  0  0  2  0  0  0  0  0  0
  186.8560  177.1230  138.1230 C   0  0  0  0  0  2  0  0  0  0  0  0
  190.4020  172.7680  135.0990 C   0  0  0  0  0  2  0  0  0  0  0  0
  190.4360  174.5900  136.9290 C   0  0  1  0  0  3  0  0  0  0  0  0
  187.8630  176.4140  137.1560 C   0  0  1  0  0  3  0  0  0  0  0  0
  189.4230  178.3870  136.6160 C   0  0  1  0  0  3  0  0  0  0  0  0
  188.4490  173.9100  135.7840 C   0  0  0  0  0  0  0  0  0  0  0  0
  188.6470  178.5720  135.4690 O   0  0  0  0  0  1  0  0  0  0  0  0
  187.2190  174.7010  135.4990 C   0  0  2  0  0  3  0  0  0  0  0  0
  188.9820  179.3180  137.7410 C   0  0  0  0  0  2  0  0  0  0  0  0
  189.7500  177.1940  138.6620 C   0  0  1  0  0  0  0  0  0  0  0  0
  189.4100  176.0990  139.4790 O   0  0  0  0  0  1  0  0  0  0  0  0
  190.3550  176.0510  136.4370 C   0  0  0  0  0  2  0  0  0  0  0  0
  187.3510  176.1420  135.7710 N   0  0  1  0  0  0  0  0  0  0  0  0
  185.9380  174.2280  136.1380 C   0  0  1  0  0  3  0  0  0  0  0  0
  189.1150  174.0630  136.9960 O   0  0  0  0  0  0  0  0  0  0  0  0
  189.3440  176.9570  137.1900 C   0  0  1  0  0  0  0  0  0  0  0  0
  189.0720  173.3070  134.8240 N   0  0  0  0  0  0  0  0  0  0  0  0
  191.2580  173.7910  135.8900 C   0  0  1  0  0  3  0  0  0  0  0  0
  185.0380  175.4410  136.0020 C   0  0  0  0  0  2  0  0  0  0  0  0
  185.9670  176.6010  135.5970 C   0  0  0  0  0  2  0  0  0  0  0  0
  188.9150  178.4390  138.9960 C   0  0  2  0  0  3  0  0  0  0  0  0
  192.7710  171.9490  136.1910 O   0  0  0  0  0  0  0  0  0  0  0  0
  193.2930  173.8870  137.3670 N   0  0  0  0  0  1  0  0  0  0  0  0
  192.4580  173.1350  136.4930 C   0  0  0  0  0  0  0  0  0  0  0  0
  185.3560  173.0610  135.3600 C   0  0  0  0  0  2  0  0  0  0  0  0
  184.5930  172.1160  136.2820 C   0  0  1  0  0  3  0  0  0  0  0  0
  184.8690  172.3990  137.6230 O   0  0  0  0  0  1  0  0  0  0  0  0
  182.2100  171.5190  136.8670 N   0  0  0  0  0  1  0  0  0  0  0  0
  182.6860  172.7220  134.9060 N   0  0  0  0  0  2  0  0  0  0  0  0
  183.1150  172.2290  136.0270 C   0  0  0  0  0  0  0  0  0  0  0  0
  191.2520  177.4930  138.8350 C   0  0  0  0  0  2  0  0  0  0  0  0
  191.8270  176.8030  140.0740 C   0  0  0  0  0  2  0  0  0  0  0  0
  191.7810  177.6930  141.2270 N   0  0  0  0  0  2  0  0  0  0  0  0
  190.9740  177.1010  142.3020 C   0  0  1  0  0  3  0  0  0  0  0  0
  191.6830  176.0620  142.9250 O   0  0  0  0  0  1  0  0  0  0  0  0
  190.5040  178.1630  143.3260 C   0  0  1  0  0  3  0  0  0  0  0  0
  186.5700  177.3020  144.8470 C   0  0  0  0  0  3  0  0  0  0  0  0
  188.9240  177.7550  145.2190 C   0  0  0  0  0  3  0  0  0  0  0  0
  186.7660  177.4280  143.4680 C   0  0  0  0  0  3  0  0  0  0  0  0
  187.6490  177.4660  145.7230 C   0  0  0  0  0  3  0  0  0  0  0  0
  188.0380  177.7180  142.9640 C   0  0  0  0  0  3  0  0  0  0  0  0
  189.1230  177.8910  143.8400 C   0  0  0  0  0  0  0  0  0  0  0  0
  192.1710  179.5660  144.3610 O   0  0  0  0  0  1  0  0  0  0  0  0
  191.4950  178.3480  144.4780 C   0  0  0  0  0  2  0  0  0  0  0  0
  2  1  1  0  0  0  0
  3 19  1  0  0  0  0
  4 13  1  6  0  0  0
  4 16  1  0  0  0  0
  5 17  1  0  0  0  0
  5  2  1  6  0  0  0
  6  8  1  6  0  0  0
  6 17  1  0  0  0  0
  6 10  1  0  0  0  0
  7 16  1  0  0  0  0
  9 14  1  0  0  0  0
  9  7  1  1  0  0  0
  9 15  1  0  0  0  0
 11 32  1  0  0  0  0
 11 22  1  0  0  0  0
 11 12  1  1  0  0  0
 14 21  1  1  0  0  0
 14  5  1  0  0  0  0
 15 26  1  6  0  0  0
 17 13  1  6  0  0  0
 17 11  1  0  0  0  0
 18  3  1  0  0  0  0
 18  7  2  0  0  0  0
 19 25  1  1  0  0  0
 19  4  1  0  0  0  0
 20 15  1  0  0  0  0
 21 20  1  0  0  0  0
 22 10  1  6  0  0  0
 22  1  1  0  0  0  0
 23 25  2  0  0  0  0
 25 24  1  0  0  0  0
 26 27  1  0  0  0  0
 27 28  1  1  0  0  0
 30 31  2  0  0  0  0
 31 27  1  0  0  0  0
 31 29  1  0  0  0  0
 32 33  1  0  0  0  0
 33 34  1  0  0  0  0
 34 35  1  0  0  0  0
 35 36  1  1  0  0  0
 35 37  1  0  0  0  0
 37 43  1  0  0  0  0
 37 45  1  1  0  0  0
 38 41  1  0  0  0  0
 39 41  2  0  0  0  0
 40 38  2  0  0  0  0
 42 40  1  0  0  0  0
 42 43  2  0  0  0  0
 43 39  1  0  0  0  0
 44 45  1  0  0  0  0
M  END
>  <MODEL>
4

>  <REMARK>
 VINA RESULT:      -6.4      2.847      6.894
  Name = 
  11 active torsions:
  status: ('A' for Active; 'I' for Inactive)
    1  A    between atoms: C_4  and  C_5
    2  A    between atoms: C_4  and  N_40
    3  A    between atoms: C_5  and  C_31
    4  A    between atoms: C_5  and  C_45
    5  A    between atoms: C_7  and  C_15
    6  A    between atoms: C_7  and  C_29
    7  A    between atoms: C_15  and  C_44
    8  A    between atoms: C_19  and  C_24
    9  A    between atoms: C_19  and  C_34
   10  A    between atoms: C_34  and  N_40
   11  A    between atoms: C_37  and  C_38
                            x       y       z     vdW  Elec       q    Type
                         _______ _______ _______ _____ _____    ______ ____

>  <TORSDO>
F 11

$$$$
=
 OpenBabel10232408283D

 45 50  0  0  1  0  0  0  0  0999 V2000
  180.6040  177.3240  140.4130 C   0  0  0  0  0  2  0  0  0  0  0  0
  180.5890  176.4430  139.1350 C   0  0  0  0  0  2  0  0  0  0  0  0
  185.7700  175.7740  135.4760 C   0  0  0  0  0  2  0  0  0  0  0  0
  184.8500  176.8850  137.6180 C   0  0  1  0  0  3  0  0  0  0  0  0
  181.7300  176.6780  138.0880 C   0  0  1  0  0  3  0  0  0  0  0  0
  181.7180  179.2490  137.9920 C   0  0  1  0  0  3  0  0  0  0  0  0
  183.5950  175.3420  136.2900 C   0  0  0  0  0  0  0  0  0  0  0  0
  180.8930  179.1150  136.8720 O   0  0  0  0  0  1  0  0  0  0  0  0
  182.1180  175.2490  136.1140 C   0  0  2  0  0  3  0  0  0  0  0  0
  180.9020  179.5030  139.2560 C   0  0  0  0  0  2  0  0  0  0  0  0
  182.8780  178.1750  139.7860 C   0  0  1  0  0  0  0  0  0  0  0  0
  183.3460  176.9810  140.3670 O   0  0  0  0  0  1  0  0  0  0  0  0
  183.8570  178.0480  137.4090 C   0  0  0  0  0  2  0  0  0  0  0  0
  181.3710  176.3940  136.6590 N   0  0  1  0  0  0  0  0  0  0  0  0
  181.4490  173.9880  136.6030 C   0  0  1  0  0  3  0  0  0  0  0  0
  184.1320  175.6580  137.5340 O   0  0  0  0  0  0  0  0  0  0  0  0
  182.5740  177.9980  138.2810 C   0  0  1  0  0  0  0  0  0  0  0  0
  184.3690  175.4230  135.2580 N   0  0  0  0  0  0  0  0  0  0  0  0
  185.8940  176.9510  136.4780 C   0  0  1  0  0  3  0  0  0  0  0  0
  179.9900  174.3980  136.6650 C   0  0  0  0  0  2  0  0  0  0  0  0
  179.9840  175.9320  136.5230 C   0  0  0  0  0  2  0  0  0  0  0  0
  181.4920  178.5680  140.3180 C   0  0  2  0  0  3  0  0  0  0  0  0
  187.8000  176.1750  137.7180 O   0  0  0  0  0  0  0  0  0  0  0  0
  188.0800  178.1920  136.5930 N   0  0  0  0  0  1  0  0  0  0  0  0
  187.2920  177.0750  136.9910 C   0  0  0  0  0  0  0  0  0  0  0  0
  181.6300  172.8670  135.5960 C   0  0  0  0  0  2  0  0  0  0  0  0
  182.0720  171.5800  136.2860 C   0  0  1  0  0  3  0  0  0  0  0  0
  181.3280  170.4890  135.8260 O   0  0  0  0  0  1  0  0  0  0  0  0
  183.9360  170.2170  135.2640 N   0  0  0  0  0  2  0  0  0  0  0  0
  184.4230  171.9670  136.7540 N   0  0  0  0  0  1  0  0  0  0  0  0
  183.5370  171.3410  136.0420 C   0  0  0  0  0  0  0  0  0  0  0  0
  183.8980  179.2950  140.0680 C   0  0  0  0  0  2  0  0  0  0  0  0
  185.1880  178.7450  140.6800 C   0  0  0  0  0  2  0  0  0  0  0  0
  185.3290  179.1810  142.0630 N   0  0  0  0  0  2  0  0  0  0  0  0
  186.1510  178.2280  142.8220 C   0  0  1  0  0  3  0  0  0  0  0  0
  187.5020  178.6040  142.7710 O   0  0  0  0  0  1  0  0  0  0  0  0
  185.6580  178.0710  144.2810 C   0  0  1  0  0  3  0  0  0  0  0  0
  188.8940  177.4650  147.0550 C   0  0  0  0  0  3  0  0  0  0  0  0
  187.9440  177.2280  144.8350 C   0  0  0  0  0  3  0  0  0  0  0  0
  187.7340  178.1220  147.4780 C   0  0  0  0  0  3  0  0  0  0  0  0
  188.9990  177.0180  145.7330 C   0  0  0  0  0  3  0  0  0  0  0  0
  186.6810  178.3340  146.5820 C   0  0  0  0  0  3  0  0  0  0  0  0
  186.7860  177.8930  145.2520 C   0  0  0  0  0  0  0  0  0  0  0  0
  183.3920  178.8620  144.5260 O   0  0  0  0  0  1  0  0  0  0  0  0
  184.7320  179.2120  144.7140 C   0  0  0  0  0  2  0  0  0  0  0  0
  2  1  1  0  0  0  0
  3 19  1  0  0  0  0
  4 13  1  6  0  0  0
  5 17  1  0  0  0  0
  5  2  1  1  0  0  0
  6  8  1  6  0  0  0
  6 17  1  0  0  0  0
  6 10  1  0  0  0  0
  7 16  1  0  0  0  0
  9  7  1  1  0  0  0
  9 15  1  0  0  0  0
  9 14  1  0  0  0  0
 11 32  1  0  0  0  0
 11 22  1  0  0  0  0
 11 12  1  1  0  0  0
 14 21  1  1  0  0  0
 14  5  1  0  0  0  0
 15 26  1  6  0  0  0
 15 20  1  0  0  0  0
 16  4  1  0  0  0  0
 17 13  1  6  0  0  0
 17 11  1  0  0  0  0
 18  3  1  0  0  0  0
 18  7  2  0  0  0  0
 19 25  1  1  0  0  0
 19  4  1  0  0  0  0
 21 20  1  0  0  0  0
 22 10  1  6  0  0  0
 22  1  1  0  0  0  0
 24 25  1  0  0  0  0
 25 23  2  0  0  0  0
 26 27  1  0  0  0  0
 27 28  1  6  0  0  0
 29 31  2  0  0  0  0
 31 27  1  0  0  0  0
 31 30  1  0  0  0  0
 32 33  1  0  0  0  0
 33 34  1  0  0  0  0
 34 35  1  0  0  0  0
 35 36  1  1  0  0  0
 35 37  1  0  0  0  0
 37 45  1  1  0  0  0
 37 43  1  0  0  0  0
 38 40  1  0  0  0  0
 39 43  2  0  0  0  0
 39 41  1  0  0  0  0
 41 38  2  0  0  0  0
 42 40  2  0  0  0  0
 43 42  1  0  0  0  0
 44 45  1  0  0  0  0
M  END
>  <MODEL>
5

>  <REMARK>
 VINA RESULT:      -6.2      4.084      7.820
  Name = 
  11 active torsions:
  status: ('A' for Active; 'I' for Inactive)
    1  A    between atoms: C_4  and  C_5
    2  A    between atoms: C_4  and  N_40
    3  A    between atoms: C_5  and  C_31
    4  A    between atoms: C_5  and  C_45
    5  A    between atoms: C_7  and  C_15
    6  A    between atoms: C_7  and  C_29
    7  A    between atoms: C_15  and  C_44
    8  A    between atoms: C_19  and  C_24
    9  A    between atoms: C_19  and  C_34
   10  A    between atoms: C_34  and  N_40
   11  A    between atoms: C_37  and  C_38
                            x       y       z     vdW  Elec       q    Type
                         _______ _______ _______ _____ _____    ______ ____

>  <TORSDO>
F 11

$$$$
=
 OpenBabel10232408283D

 45 50  0  0  1  0  0  0  0  0999 V2000
  188.5520  173.8480  134.5920 C   0  0  0  0  0  2  0  0  0  0  0  0
  190.0470  174.1910  134.8280 C   0  0  0  0  0  2  0  0  0  0  0  0
  191.9820  177.2450  140.0830 C   0  0  0  0  0  2  0  0  0  0  0  0
  189.9220  176.2740  138.8650 C   0  0  1  0  0  3  0  0  0  0  0  0
  190.3700  175.2930  135.8930 C   0  0  1  0  0  3  0  0  0  0  0  0
  188.6340  177.0720  135.2260 C   0  0  1  0  0  3  0  0  0  0  0  0
  192.1640  176.0150  138.0730 C   0  0  0  0  0  0  0  0  0  0  0  0
  189.6590  177.6670  134.4860 O   0  0  0  0  0  1  0  0  0  0  0  0
  192.6450  175.8440  136.6730 C   0  0  2  0  0  3  0  0  0  0  0  0
  187.7550  176.1890  134.3460 C   0  0  0  0  0  2  0  0  0  0  0  0
  187.9290  175.2360  136.5850 C   0  0  1  0  0  0  0  0  0  0  0  0
  188.2750  174.0930  137.3300 O   0  0  0  0  0  1  0  0  0  0  0  0
  189.4480  177.0410  137.6120 C   0  0  0  0  0  2  0  0  0  0  0  0
  191.6180  176.0890  135.6480 N   0  0  1  0  0  0  0  0  0  0  0  0
  193.3290  174.5420  136.3390 C   0  0  1  0  0  3  0  0  0  0  0  0
  190.9830  175.4040  138.4870 O   0  0  0  0  0  0  0  0  0  0  0  0
  189.1420  176.1660  136.3670 C   0  0  1  0  0  0  0  0  0  0  0  0
  192.6580  176.9460  138.8220 N   0  0  0  0  0  0  0  0  0  0  0  0
  190.4460  177.3170  139.8810 C   0  0  1  0  0  3  0  0  0  0  0  0
  193.2910  174.5350  134.8230 C   0  0  0  0  0  2  0  0  0  0  0  0
  192.3130  175.6580  134.4280 C   0  0  0  0  0  2  0  0  0  0  0  0
  187.5670  174.8860  135.1330 C   0  0  2  0  0  3  0  0  0  0  0  0
  188.8410  178.0970  141.4890 O   0  0  0  0  0  0  0  0  0  0  0  0
  190.0070  176.1730  142.0780 N   0  0  0  0  0  1  0  0  0  0  0  0
  189.7290  177.2500  141.1900 C   0  0  0  0  0  0  0  0  0  0  0  0
  194.7680  174.5590  136.8210 C   0  0  0  0  0  2  0  0  0  0  0  0
  194.9090  173.8130  138.1440 C   0  0  1  0  0  3  0  0  0  0  0  0
  195.2080  172.4640  137.9250 O   0  0  0  0  0  1  0  0  0  0  0  0
  197.3050  173.9120  138.9360 N   0  0  0  0  0  2  0  0  0  0  0  0
  195.6660  175.2680  139.9330 N   0  0  0  0  0  1  0  0  0  0  0  0
  195.9860  174.4470  138.9820 C   0  0  0  0  0  0  0  0  0  0  0  0
  186.7450  175.9380  137.2780 C   0  0  0  0  0  2  0  0  0  0  0  0
  185.4160  175.2450  136.9700 C   0  0  0  0  0  2  0  0  0  0  0  0
  184.3740  175.7000  137.8810 N   0  0  0  0  0  2  0  0  0  0  0  0
  184.2090  177.1570  137.7870 C   0  0  1  0  0  3  0  0  0  0  0  0
  183.8110  177.5180  136.4900 O   0  0  0  0  0  1  0  0  0  0  0  0
  183.2270  177.6980  138.8550 C   0  0  1  0  0  3  0  0  0  0  0  0
  185.1700  179.0950  142.4330 C   0  0  0  0  0  3  0  0  0  0  0  0
  183.2550  178.1060  141.3200 C   0  0  0  0  0  3  0  0  0  0  0  0
  185.8430  179.1620  141.2100 C   0  0  0  0  0  3  0  0  0  0  0  0
  183.8750  178.5670  142.4880 C   0  0  0  0  0  3  0  0  0  0  0  0
  185.2250  178.7010  140.0420 C   0  0  0  0  0  3  0  0  0  0  0  0
  183.9280  178.1630  140.0950 C   0  0  0  0  0  0  0  0  0  0  0  0
  181.2560  178.2240  137.5660 O   0  0  0  0  0  1  0  0  0  0  0  0
  182.3020  178.7870  138.3030 C   0  0  0  0  0  2  0  0  0  0  0  0
  1  2  1  0  0  0  0
  1 22  1  0  0  0  0
  4 13  1  6  0  0  0
  4 19  1  0  0  0  0
  5  2  1  6  0  0  0
  5 17  1  0  0  0  0
  6  8  1  6  0  0  0
  6 17  1  0  0  0  0
  7 16  1  0  0  0  0
  7 18  2  0  0  0  0
  9  7  1  1  0  0  0
 10  6  1  0  0  0  0
 11 32  1  0  0  0  0
 11 12  1  1  0  0  0
 14 21  1  6  0  0  0
 14  5  1  0  0  0  0
 14  9  1  0  0  0  0
 15  9  1  0  0  0  0
 15 26  1  6  0  0  0
 16  4  1  0  0  0  0
 17 11  1  0  0  0  0
 17 13  1  1  0  0  0
 18  3  1  0  0  0  0
 19  3  1  0  0  0  0
 19 25  1  1  0  0  0
 20 15  1  0  0  0  0
 21 20  1  0  0  0  0
 22 10  1  6  0  0  0
 22 11  1  0  0  0  0
 25 23  2  0  0  0  0
 25 24  1  0  0  0  0
 26 27  1  0  0  0  0
 27 28  1  6  0  0  0
 27 31  1  0  0  0  0
 29 31  2  0  0  0  0
 31 30  1  0  0  0  0
 33 32  1  0  0  0  0
 33 34  1  0  0  0  0
 35 36  1  6  0  0  0
 35 34  1  0  0  0  0
 35 37  1  0  0  0  0
 37 45  1  6  0  0  0
 37 43  1  0  0  0  0
 38 41  1  0  0  0  0
 39 41  2  0  0  0  0
 40 38  2  0  0  0  0
 42 43  2  0  0  0  0
 42 40  1  0  0  0  0
 43 39  1  0  0  0  0
 44 45  1  0  0  0  0
M  END
>  <MODEL>
6

>  <REMARK>
 VINA RESULT:      -6.1      1.648      2.012
  Name = 
  11 active torsions:
  status: ('A' for Active; 'I' for Inactive)
    1  A    between atoms: C_4  and  C_5
    2  A    between atoms: C_4  and  N_40
    3  A    between atoms: C_5  and  C_31
    4  A    between atoms: C_5  and  C_45
    5  A    between atoms: C_7  and  C_15
    6  A    between atoms: C_7  and  C_29
    7  A    between atoms: C_15  and  C_44
    8  A    between atoms: C_19  and  C_24
    9  A    between atoms: C_19  and  C_34
   10  A    between atoms: C_34  and  N_40
   11  A    between atoms: C_37  and  C_38
                            x       y       z     vdW  Elec       q    Type
                         _______ _______ _______ _____ _____    ______ ____

>  <TORSDO>
F 11

$$$$
=
 OpenBabel10232408283D

 45 50  0  0  1  0  0  0  0  0999 V2000
  189.1610  173.7820  134.6520 C   0  0  0  0  0  2  0  0  0  0  0  0
  190.6540  174.1150  134.9150 C   0  0  0  0  0  2  0  0  0  0  0  0
  192.5030  177.2470  140.1550 C   0  0  0  0  0  2  0  0  0  0  0  0
  190.4610  176.2740  138.9100 C   0  0  1  0  0  3  0  0  0  0  0  0
  190.9640  175.2340  135.9670 C   0  0  1  0  0  3  0  0  0  0  0  0
  189.2610  177.0170  135.2300 C   0  0  1  0  0  3  0  0  0  0  0  0
  192.7170  175.9780  138.1730 C   0  0  0  0  0  0  0  0  0  0  0  0
  190.3080  177.5880  134.5010 O   0  0  0  0  0  1  0  0  0  0  0  0
  193.2270  175.7770  136.7870 C   0  0  2  0  0  3  0  0  0  0  0  0
  188.3920  176.1260  134.3460 C   0  0  0  0  0  2  0  0  0  0  0  0
  188.5080  175.2130  136.6060 C   0  0  1  0  0  0  0  0  0  0  0  0
  188.8260  174.0800  137.3790 O   0  0  0  0  0  1  0  0  0  0  0  0
  190.0220  177.0220  137.6330 C   0  0  0  0  0  2  0  0  0  0  0  0
  192.2250  176.0130  135.7350 N   0  0  1  0  0  0  0  0  0  0  0  0
  193.9050  174.4630  136.4920 C   0  0  1  0  0  3  0  0  0  0  0  0
  191.5220  175.3870  138.5710 O   0  0  0  0  0  0  0  0  0  0  0  0
  189.7350  176.1270  136.3970 C   0  0  1  0  0  0  0  0  0  0  0  0
  193.2040  176.9180  138.9150 N   0  0  0  0  0  0  0  0  0  0  0  0
  190.9730  177.3300  139.9180 C   0  0  1  0  0  3  0  0  0  0  0  0
  193.9000  174.4280  134.9760 C   0  0  0  0  0  2  0  0  0  0  0  0
  192.9430  175.5530  134.5390 C   0  0  0  0  0  2  0  0  0  0  0  0
  188.1740  174.8400  135.1530 C   0  0  2  0  0  3  0  0  0  0  0  0
  188.9760  177.1160  141.2370 O   0  0  0  0  0  0  0  0  0  0  0  0
  190.9520  177.3930  142.4330 N   0  0  0  0  0  1  0  0  0  0  0  0
  190.2270  177.2940  141.2120 C   0  0  0  0  0  0  0  0  0  0  0  0
  195.3330  174.4740  137.0060 C   0  0  0  0  0  2  0  0  0  0  0  0
  195.4100  173.9000  138.4160 C   0  0  1  0  0  3  0  0  0  0  0  0
  195.6720  172.5270  138.3800 O   0  0  0  0  0  1  0  0  0  0  0  0
  196.1120  175.3690  140.3470 N   0  0  0  0  0  1  0  0  0  0  0  0
  197.6650  174.7560  138.6940 N   0  0  0  0  0  2  0  0  0  0  0  0
  196.4810  174.6060  139.2030 C   0  0  0  0  0  0  0  0  0  0  0  0
  187.3170  175.9390  137.2600 C   0  0  0  0  0  2  0  0  0  0  0  0
  185.9770  175.3930  136.7600 C   0  0  0  0  0  2  0  0  0  0  0  0
  184.8690  176.0180  137.4700 N   0  0  0  0  0  2  0  0  0  0  0  0
  183.7680  175.0620  137.6500 C   0  0  1  0  0  3  0  0  0  0  0  0
  184.2750  173.7950  137.9810 O   0  0  0  0  0  1  0  0  0  0  0  0
  182.7390  175.5540  138.6970 C   0  0  1  0  0  3  0  0  0  0  0  0
  182.9120  179.8300  139.1660 C   0  0  0  0  0  3  0  0  0  0  0  0
  182.2220  177.8700  137.9140 C   0  0  0  0  0  3  0  0  0  0  0  0
  183.4820  179.0040  140.1400 C   0  0  0  0  0  3  0  0  0  0  0  0
  182.2810  179.2620  138.0530 C   0  0  0  0  0  3  0  0  0  0  0  0
  183.4220  177.6130  140.0030 C   0  0  0  0  0  3  0  0  0  0  0  0
  182.7830  177.0390  138.8900 C   0  0  0  0  0  0  0  0  0  0  0  0
  181.3280  174.0630  137.4300 O   0  0  0  0  0  1  0  0  0  0  0  0
  181.3160  175.0790  138.3890 C   0  0  0  0  0  2  0  0  0  0  0  0
  1  2  1  0  0  0  0
  1 22  1  0  0  0  0
  4 13  1  6  0  0  0
  4 19  1  0  0  0  0
  5  2  1  6  0  0  0
  5 17  1  0  0  0  0
  6  8  1  6  0  0  0
  6 17  1  0  0  0  0
  7 16  1  0  0  0  0
  7 18  2  0  0  0  0
  9  7  1  1  0  0  0
 10  6  1  0  0  0  0
 11 32  1  0  0  0  0
 11 12  1  1  0  0  0
 14 21  1  6  0  0  0
 14  5  1  0  0  0  0
 14  9  1  0  0  0  0
 15  9  1  0  0  0  0
 15 26  1  6  0  0  0
 16  4  1  0  0  0  0
 17 11  1  0  0  0  0
 17 13  1  1  0  0  0
 18  3  1  0  0  0  0
 19  3  1  0  0  0  0
 19 25  1  1  0  0  0
 20 15  1  0  0  0  0
 21 20  1  0  0  0  0
 22 10  1  6  0  0  0
 22 11  1  0  0  0  0
 25 23  2  0  0  0  0
 25 24  1  0  0  0  0
 26 27  1  0  0  0  0
 27 28  1  6  0  0  0
 27 31  1  0  0  0  0
 30 31  2  0  0  0  0
 31 29  1  0  0  0  0
 33 32  1  0  0  0  0
 33 34  1  0  0  0  0
 34 35  1  0  0  0  0
 35 36  1  1  0  0  0
 35 37  1  0  0  0  0
 37 45  1  6  0  0  0
 37 43  1  0  0  0  0
 38 40  1  0  0  0  0
 39 41  1  0  0  0  0
 39 43  2  0  0  0  0
 41 38  2  0  0  0  0
 42 40  2  0  0  0  0
 43 42  1  0  0  0  0
 44 45  1  0  0  0  0
M  END
>  <MODEL>
7

>  <REMARK>
 VINA RESULT:      -6.0      2.296      3.033
  Name = 
  11 active torsions:
  status: ('A' for Active; 'I' for Inactive)
    1  A    between atoms: C_4  and  C_5
    2  A    between atoms: C_4  and  N_40
    3  A    between atoms: C_5  and  C_31
    4  A    between atoms: C_5  and  C_45
    5  A    between atoms: C_7  and  C_15
    6  A    between atoms: C_7  and  C_29
    7  A    between atoms: C_15  and  C_44
    8  A    between atoms: C_19  and  C_24
    9  A    between atoms: C_19  and  C_34
   10  A    between atoms: C_34  and  N_40
   11  A    between atoms: C_37  and  C_38
                            x       y       z     vdW  Elec       q    Type
                         _______ _______ _______ _____ _____    ______ ____

>  <TORSDO>
F 11

$$$$
=
 OpenBabel10232408283D

 45 50  0  0  1  0  0  0  0  0999 V2000
  186.1910  177.6580  134.8670 C   0  0  0  0  0  2  0  0  0  0  0  0
  184.6730  177.9380  135.0300 C   0  0  0  0  0  2  0  0  0  0  0  0
  182.0080  178.6700  140.7780 C   0  0  0  0  0  2  0  0  0  0  0  0
  184.2350  178.2400  139.5430 C   0  0  1  0  0  3  0  0  0  0  0  0
  184.0420  177.6730  136.4390 C   0  0  1  0  0  3  0  0  0  0  0  0
  185.0870  175.3820  136.9670 C   0  0  1  0  0  3  0  0  0  0  0  0
  182.1760  178.7120  138.4220 C   0  0  0  0  0  0  0  0  0  0  0  0
  183.9030  174.8270  136.4730 O   0  0  0  0  0  1  0  0  0  0  0  0
  181.7350  178.2870  137.0630 C   0  0  2  0  0  3  0  0  0  0  0  0
  186.1790  175.3980  135.9010 C   0  0  0  0  0  2  0  0  0  0  0  0
  186.3890  177.3500  137.3480 C   0  0  1  0  0  0  0  0  0  0  0  0
  186.4540  178.7550  137.3890 O   0  0  0  0  0  1  0  0  0  0  0  0
  184.3980  176.8470  138.8990 C   0  0  0  0  0  2  0  0  0  0  0  0
  182.5960  177.2700  136.4390 N   0  0  1  0  0  0  0  0  0  0  0  0
  181.5010  179.3780  136.0480 C   0  0  1  0  0  3  0  0  0  0  0  0
  183.5020  179.0690  138.6470 O   0  0  0  0  0  0  0  0  0  0  0  0
  184.9340  176.8410  137.4420 C   0  0  1  0  0  0  0  0  0  0  0  0
  181.4290  178.4780  139.4510 N   0  0  0  0  0  0  0  0  0  0  0  0
  183.4310  178.0590  140.8530 C   0  0  1  0  0  3  0  0  0  0  0  0
  181.4940  178.6100  134.7400 C   0  0  0  0  0  2  0  0  0  0  0  0
  182.0430  177.2110  135.0800 C   0  0  0  0  0  2  0  0  0  0  0  0
  186.8020  176.7970  135.9760 C   0  0  2  0  0  3  0  0  0  0  0  0
  183.9190  178.1120  143.2050 O   0  0  0  0  0  0  0  0  0  0  0  0
  185.2160  179.5100  141.8720 N   0  0  0  0  0  1  0  0  0  0  0  0
  184.1700  178.5610  142.0510 C   0  0  0  0  0  0  0  0  0  0  0  0
  180.1490  180.0310  136.2720 C   0  0  0  0  0  2  0  0  0  0  0  0
  180.3090  181.4450  136.8190 C   0  0  1  0  0  3  0  0  0  0  0  0
  181.4130  181.5260  137.6740 O   0  0  0  0  0  1  0  0  0  0  0  0
  180.3360  181.9570  134.3460 N   0  0  0  0  0  2  0  0  0  0  0  0
  180.9880  183.5890  135.9050 N   0  0  0  0  0  1  0  0  0  0  0  0
  180.4660  182.4220  135.6860 C   0  0  0  0  0  0  0  0  0  0  0  0
  187.3010  176.7800  138.4520 C   0  0  0  0  0  2  0  0  0  0  0  0
  188.0780  177.8860  139.1710 C   0  0  0  0  0  2  0  0  0  0  0  0
  189.0340  177.3160  140.1110 N   0  0  0  0  0  2  0  0  0  0  0  0
  189.2920  178.2520  141.2140 C   0  0  1  0  0  3  0  0  0  0  0  0
  188.1140  178.9310  141.5600 O   0  0  0  0  0  1  0  0  0  0  0  0
  189.9220  177.5440  142.4390 C   0  0  1  0  0  3  0  0  0  0  0  0
  187.2070  177.5040  145.7790 C   0  0  0  0  0  3  0  0  0  0  0  0
  187.7040  177.0090  143.4570 C   0  0  0  0  0  3  0  0  0  0  0  0
  188.4980  178.0160  145.9440 C   0  0  0  0  0  3  0  0  0  0  0  0
  186.8100  177.0000  144.5350 C   0  0  0  0  0  3  0  0  0  0  0  0
  189.3920  178.0240  144.8670 C   0  0  0  0  0  3  0  0  0  0  0  0
  189.0000  177.5120  143.6190 C   0  0  0  0  0  0  0  0  0  0  0  0
  190.8300  175.4670  143.2650 O   0  0  0  0  0  1  0  0  0  0  0  0
  190.4400  176.1420  142.1050 C   0  0  0  0  0  2  0  0  0  0  0  0
  1  2  1  0  0  0  0
  3 19  1  0  0  0  0
  4 13  1  6  0  0  0
  4 19  1  0  0  0  0
  5  2  1  6  0  0  0
  5 14  1  0  0  0  0
  5 17  1  0  0  0  0
  6  8  1  6  0  0  0
  6 17  1  0  0  0  0
  7 16  1  0  0  0  0
  7 18  2  0  0  0  0
  9  7  1  1  0  0  0
 10 22  1  0  0  0  0
 10  6  1  0  0  0  0
 11 12  1  1  0  0  0
 11 17  1  0  0  0  0
 11 32  1  0  0  0  0
 14 21  1  6  0  0  0
 14  9  1  0  0  0  0
 15 26  1  1  0  0  0
 15  9  1  0  0  0  0
 16  4  1  0  0  0  0
 17 13  1  1  0  0  0
 18  3  1  0  0  0  0
 19 25  1  1  0  0  0
 20 21  1  0  0  0  0
 20 15  1  0  0  0  0
 22  1  1  6  0  0  0
 22 11  1  0  0  0  0
 24 25  1  0  0  0  0
 25 23  2  0  0  0  0
 26 27  1  0  0  0  0
 27 28  1  1  0  0  0
 29 31  2  0  0  0  0
 31 30  1  0  0  0  0
 31 27  1  0  0  0  0
 32 33  1  0  0  0  0
 33 34  1  0  0  0  0
 34 35  1  0  0  0  0
 35 36  1  1  0  0  0
 35 37  1  0  0  0  0
 37 45  1  6  0  0  0
 37 43  1  0  0  0  0
 38 40  1  0  0  0  0
 39 43  2  0  0  0  0
 39 41  1  0  0  0  0
 41 38  2  0  0  0  0
 42 40  2  0  0  0  0
 43 42  1  0  0  0  0
 45 44  1  0  0  0  0
M  END
>  <MODEL>
8

>  <REMARK>
 VINA RESULT:      -5.7      3.844      8.511
  Name = 
  11 active torsions:
  status: ('A' for Active; 'I' for Inactive)
    1  A    between atoms: C_4  and  C_5
    2  A    between atoms: C_4  and  N_40
    3  A    between atoms: C_5  and  C_31
    4  A    between atoms: C_5  and  C_45
    5  A    between atoms: C_7  and  C_15
    6  A    between atoms: C_7  and  C_29
    7  A    between atoms: C_15  and  C_44
    8  A    between atoms: C_19  and  C_24
    9  A    between atoms: C_19  and  C_34
   10  A    between atoms: C_34  and  N_40
   11  A    between atoms: C_37  and  C_38
                            x       y       z     vdW  Elec       q    Type
                         _______ _______ _______ _____ _____    ______ ____

>  <TORSDO>
F 11

$$$$
=
 OpenBabel10232408283D

 45 50  0  0  1  0  0  0  0  0999 V2000
  188.9810  179.0500  136.8780 C   0  0  0  0  0  2  0  0  0  0  0  0
  190.0770  177.9830  136.6100 C   0  0  0  0  0  2  0  0  0  0  0  0
  188.5880  171.9140  135.3330 C   0  0  0  0  0  2  0  0  0  0  0  0
  187.6060  174.2450  135.8490 C   0  0  1  0  0  3  0  0  0  0  0  0
  189.6600  176.4790  136.7380 C   0  0  1  0  0  3  0  0  0  0  0  0
  188.3380  176.5740  138.9440 C   0  0  1  0  0  3  0  0  0  0  0  0
  189.9420  173.8410  135.5320 C   0  0  0  0  0  0  0  0  0  0  0  0
  189.5210  176.1680  139.5670 O   0  0  0  0  0  1  0  0  0  0  0  0
  191.1030  174.5800  136.1030 C   0  0  2  0  0  3  0  0  0  0  0  0
  188.1630  178.0890  139.0190 C   0  0  0  0  0  2  0  0  0  0  0  0
  187.2460  177.2400  136.9240 C   0  0  1  0  0  0  0  0  0  0  0  0
  187.2810  177.3460  135.5210 O   0  0  0  0  0  1  0  0  0  0  0  0
  187.7740  174.7490  137.2990 C   0  0  0  0  0  2  0  0  0  0  0  0
  190.7470  175.5360  137.1640 N   0  0  1  0  0  0  0  0  0  0  0  0
  192.0080  175.2910  135.1280 C   0  0  1  0  0  3  0  0  0  0  0  0
  188.8010  174.5300  135.1310 O   0  0  0  0  0  0  0  0  0  0  0  0
  188.2740  176.2120  137.4460 C   0  0  1  0  0  0  0  0  0  0  0  0
  189.8550  172.5580  135.6720 N   0  0  0  0  0  0  0  0  0  0  0  0
  187.3910  172.7140  135.9080 C   0  0  1  0  0  3  0  0  0  0  0  0
  192.7730  176.2420  136.0280 C   0  0  0  0  0  2  0  0  0  0  0  0
  192.0240  176.2310  137.3740 C   0  0  0  0  0  2  0  0  0  0  0  0
  187.7440  178.5210  137.6090 C   0  0  2  0  0  3  0  0  0  0  0  0
  185.8660  171.0740  135.0400 O   0  0  0  0  0  0  0  0  0  0  0  0
  185.1180  173.2760  134.9880 N   0  0  0  0  0  1  0  0  0  0  0  0
  186.1070  172.2920  135.2720 C   0  0  0  0  0  0  0  0  0  0  0  0
  192.9650  174.3080  134.4790 C   0  0  0  0  0  2  0  0  0  0  0  0
  193.5970  173.3920  135.5220 C   0  0  1  0  0  3  0  0  0  0  0  0
  193.1670  172.0720  135.3510 O   0  0  0  0  0  1  0  0  0  0  0  0
  195.8510  172.2520  135.4900 N   0  0  0  0  0  2  0  0  0  0  0  0
  195.7050  174.5950  135.5730 N   0  0  0  0  0  1  0  0  0  0  0  0
  195.0970  173.4590  135.4270 C   0  0  0  0  0  0  0  0  0  0  0  0
  185.8010  176.9260  137.3610 C   0  0  0  0  0  2  0  0  0  0  0  0
  185.0360  178.1960  137.7410 C   0  0  0  0  0  2  0  0  0  0  0  0
  184.0460  177.9110  138.7710 N   0  0  0  0  0  2  0  0  0  0  0  0
  184.4410  178.5200  140.0480 C   0  0  1  0  0  3  0  0  0  0  0  0
  184.5410  179.9130  139.9120 O   0  0  0  0  0  1  0  0  0  0  0  0
  183.4820  178.1270  141.1990 C   0  0  1  0  0  3  0  0  0  0  0  0
  185.2240  178.7990  145.0780 C   0  0  0  0  0  3  0  0  0  0  0  0
  183.3150  178.8610  143.5820 C   0  0  0  0  0  3  0  0  0  0  0  0
  186.0110  178.2750  144.0480 C   0  0  0  0  0  3  0  0  0  0  0  0
  183.8750  179.0920  144.8450 C   0  0  0  0  0  3  0  0  0  0  0  0
  185.4530  178.0430  142.7860 C   0  0  0  0  0  3  0  0  0  0  0  0
  184.0970  178.3280  142.5500 C   0  0  0  0  0  0  0  0  0  0  0  0
  181.1760  177.9950  140.5050 O   0  0  0  0  0  1  0  0  0  0  0  0
  182.1260  178.8310  141.0990 C   0  0  0  0  0  2  0  0  0  0  0  0
  2  1  1  0  0  0  0
  3 18  1  0  0  0  0
  3 19  1  0  0  0  0
  4 19  1  0  0  0  0
  4 13  1  1  0  0  0
  5  2  1  1  0  0  0
  5 14  1  0  0  0  0
  5 17  1  0  0  0  0
  6 10  1  0  0  0  0
  6  8  1  6  0  0  0
  7 18  2  0  0  0  0
  9  7  1  6  0  0  0
  9 14  1  0  0  0  0
 11 12  1  6  0  0  0
 11 32  1  0  0  0  0
 11 17  1  0  0  0  0
 11 22  1  0  0  0  0
 14 21  1  6  0  0  0
 15 26  1  1  0  0  0
 15 20  1  0  0  0  0
 15  9  1  0  0  0  0
 16  7  1  0  0  0  0
 16  4  1  0  0  0  0
 17 13  1  6  0  0  0
 17  6  1  0  0  0  0
 19 25  1  6  0  0  0
 20 21  1  0  0  0  0
 22  1  1  6  0  0  0
 22 10  1  0  0  0  0
 23 25  2  0  0  0  0
 24 25  1  0  0  0  0
 26 27  1  0  0  0  0
 27 28  1  6  0  0  0
 31 29  2  0  0  0  0
 31 27  1  0  0  0  0
 31 30  1  0  0  0  0
 32 33  1  0  0  0  0
 33 34  1  0  0  0  0
 34 35  1  0  0  0  0
 35 36  1  6  0  0  0
 35 37  1  0  0  0  0
 37 45  1  1  0  0  0
 37 43  1  0  0  0  0
 39 41  2  0  0  0  0
 40 38  2  0  0  0  0
 41 38  1  0  0  0  0
 42 40  1  0  0  0  0
 43 42  2  0  0  0  0
 43 39  1  0  0  0  0
 44 45  1  0  0  0  0
M  END
>  <MODEL>
9

>  <REMARK>
 VINA RESULT:      -5.7      1.978      3.844
  Name = 
  11 active torsions:
  status: ('A' for Active; 'I' for Inactive)
    1  A    between atoms: C_4  and  C_5
    2  A    between atoms: C_4  and  N_40
    3  A    between atoms: C_5  and  C_31
    4  A    between atoms: C_5  and  C_45
    5  A    between atoms: C_7  and  C_15
    6  A    between atoms: C_7  and  C_29
    7  A    between atoms: C_15  and  C_44
    8  A    between atoms: C_19  and  C_24
    9  A    between atoms: C_19  and  C_34
   10  A    between atoms: C_34  and  N_40
   11  A    between atoms: C_37  and  C_38
                            x       y       z     vdW  Elec       q    Type
                         _______ _______ _______ _____ _____    ______ ____

>  <TORSDO>
F 11

$$$$
