=
 OpenBabel10232411053D

 39 43  0  0  1  0  0  0  0  0999 V2000
  186.1530  178.1370  138.3670 C   0  0  0  0  0  0  0  0  0  0  0  0
  187.3840  178.4210  139.0420 N   0  0  0  0  0  2  0  0  0  0  0  0
  188.6180  178.1490  138.7420 C   0  0  0  0  0  3  0  0  0  0  0  0
  189.1200  175.7540  135.8650 C   0  0  2  0  0  3  0  0  0  0  0  0
  183.6790  178.3010  138.7020 C   0  0  0  0  0  0  0  0  0  0  0  0
  186.8110  174.9380  136.6300 C   0  0  2  0  0  3  0  0  0  0  0  0
  189.0420  176.3770  134.4840 C   0  0  0  0  0  1  0  0  0  0  0  0
  189.0620  177.4220  137.5940 N   0  0  0  0  0  0  0  0  0  0  0  0
  184.6050  177.0090  136.8350 C   0  0  0  0  0  2  0  0  0  0  0  0
  184.9930  179.0350  138.7180 C   0  0  0  0  0  2  0  0  0  0  0  0
  188.2490  174.1570  135.8700 S   0  0  0  0  0  0  0  0  0  0  0  0
  188.3970  176.6020  136.8450 C   0  0  0  0  0  0  0  0  0  0  0  0
  185.9590  177.1180  137.5010 C   0  0  0  0  0  0  0  0  0  0  0  0
  183.4800  177.3240  137.7890 C   0  0  0  0  0  0  0  0  0  0  0  0
  187.0270  176.1790  137.0830 C   0  0  0  0  0  0  0  0  0  0  0  0
  180.2130  175.8880  136.9940 C   0  0  0  0  0  3  0  0  0  0  0  0
  182.2500  176.5800  137.6810 N   0  0  0  0  0  0  0  0  0  0  0  0
  181.1330  177.0200  136.9690 N   0  0  0  0  0  0  0  0  0  0  0  0
  180.7740  174.8060  137.8070 N   0  0  0  0  0  0  0  0  0  0  0  0
  182.1080  175.2380  138.1820 C   0  0  0  0  0  3  0  0  0  0  0  0
  185.4860  174.2330  136.7450 C   0  0  0  0  0  2  0  0  0  0  0  0
  185.4950  173.0870  137.7410 C   0  0  0  0  0  1  0  0  0  0  0  0
  182.6540  178.7050  139.7140 C   0  0  0  0  0  2  0  0  0  0  0  0
  182.9060  178.0260  141.0510 C   0  0  0  0  0  2  0  0  0  0  0  0
  182.9960  178.9810  142.0660 O   0  0  0  0  0  0  0  0  0  0  0  0
  183.9630  179.3380  144.2150 C   0  0  0  0  0  2  0  0  0  0  0  0
  184.8610  178.6980  145.2700 C   0  0  0  0  0  2  0  0  0  0  0  0
  185.2570  178.2980  142.4030 C   0  0  0  0  0  2  0  0  0  0  0  0
  187.1690  177.6680  145.5520 N   0  0  0  0  0  2  0  0  0  0  0  0
  183.8640  178.4240  143.0060 C   0  0  2  0  0  3  0  0  0  0  0  0
  186.1240  178.1080  144.6860 C   0  0  0  0  0  0  0  0  0  0  0  0
  186.2360  177.8790  143.4080 N   0  0  0  0  0  0  0  0  0  0  0  0
  187.1300  177.8970  147.3050 S   0  0  0  0  0  0  0  0  0  0  0  0
  189.4980  178.3940  148.3800 O   0  0  0  0  0  0  0  0  0  0  0  0
  189.6530  177.0970  146.4410 N   0  0  0  0  0  2  0  0  0  0  0  0
  188.9100  177.8140  147.4270 C   0  0  0  0  0  0  0  0  0  0  0  0
  191.4950  175.8230  147.3900 C   0  0  0  0  0  1  0  0  0  0  0  0
  191.6250  176.7090  145.0880 C   0  0  0  0  0  1  0  0  0  0  0  0
  191.1020  176.9740  146.4840 C   0  0  0  0  0  3  0  0  0  0  0  0
  1 10  1  0  0  0  0
  1  2  1  0  0  0  0
  3  2  1  0  0  0  0
  4  7  1  6  0  0  0
  4 11  1  0  0  0  0
  4 12  1  0  0  0  0
  5 10  1  0  0  0  0
  5 23  1  0  0  0  0
  6 21  1  1  0  0  0
  6 15  1  0  0  0  0
  8  3  2  0  0  0  0
  9 13  1  0  0  0  0
  9 14  1  0  0  0  0
 11  6  1  0  0  0  0
 12 15  2  0  0  0  0
 12  8  1  0  0  0  0
 13  1  2  0  0  0  0
 14  5  2  0  0  0  0
 15 13  1  0  0  0  0
 16 19  1  0  0  0  0
 17 14  1  0  0  0  0
 17 20  1  0  0  0  0
 18 16  2  0  0  0  0
 18 17  1  0  0  0  0
 19 20  2  0  0  0  0
 21 22  1  0  0  0  0
 23 24  1  0  0  0  0
 24 25  1  0  0  0  0
 26 27  1  0  0  0  0
 28 30  1  0  0  0  0
 28 32  1  0  0  0  0
 29 33  1  0  0  0  0
 30 25  1  6  0  0  0
 30 26  1  0  0  0  0
 31 27  1  0  0  0  0
 31 29  1  0  0  0  0
 32 31  2  0  0  0  0
 33 36  1  0  0  0  0
 35 39  1  0  0  0  0
 35 36  1  0  0  0  0
 36 34  2  0  0  0  0
 38 39  1  0  0  0  0
 39 37  1  0  0  0  0
M  END
>  <MODEL>
1

>  <REMARK>
 VINA RESULT:      -7.9      0.000      0.000
  Name = 
  9 active torsions:
  status: ('A' for Active; 'I' for Inactive)
    1  A    between atoms: C_2  and  C_15
    2  A    between atoms: C_2  and  O_35
    3  A    between atoms: C_9  and  C_20
    4  A    between atoms: N_11  and  C_34
    5  A    between atoms: C_15  and  C_17
    6  A    between atoms: C_19  and  N_32
    7  A    between atoms: N_29  and  S_38
    8  A    between atoms: C_30  and  O_35
    9  A    between atoms: S_38  and  C_39
                            x       y       z     vdW  Elec       q    Type
                         _______ _______ _______ _____ _____    ______ ____

>  <TORSDO>
F 9

$$$$
=
 OpenBabel10232411053D

 39 43  0  0  1  0  0  0  0  0999 V2000
  189.1540  177.7190  142.4710 C   0  0  0  0  0  0  0  0  0  0  0  0
  190.4440  178.0060  141.9190 N   0  0  0  0  0  0  0  0  0  0  0  0
  191.6410  177.6690  142.2950 C   0  0  0  0  0  3  0  0  0  0  0  0
  191.9040  176.0870  145.7150 C   0  0  2  0  0  3  0  0  0  0  0  0
  186.7450  178.3230  142.1750 C   0  0  0  0  0  0  0  0  0  0  0  0
  189.7820  177.4740  146.1090 C   0  0  2  0  0  3  0  0  0  0  0  0
  191.5950  174.6020  145.7650 C   0  0  0  0  0  1  0  0  0  0  0  0
  191.9710  176.9010  143.4550 N   0  0  0  0  0  0  0  0  0  0  0  0
  187.4900  177.0890  144.1590 C   0  0  0  0  0  2  0  0  0  0  0  0
  187.9960  177.8160  141.5100 C   0  0  0  0  0  2  0  0  0  0  0  0
  191.1510  176.9210  147.1460 S   0  0  0  0  0  0  0  0  0  0  0  0
  191.2670  176.6970  144.5220 C   0  0  0  0  0  0  0  0  0  0  0  0
  188.9120  177.4260  143.7680 C   0  0  1  0  0  3  0  0  0  0  0  0
  186.4890  177.9700  143.4550 C   0  0  0  0  0  0  0  0  0  0  0  0
  189.9740  177.3020  144.7960 C   0  0  0  0  0  0  0  0  0  0  0  0
  183.1490  178.7450  144.7250 C   0  0  0  0  0  3  0  0  0  0  0  0
  185.3080  178.3870  144.1710 N   0  0  0  0  0  0  0  0  0  0  0  0
  184.0330  178.4440  143.6050 N   0  0  0  0  0  0  0  0  0  0  0  0
  183.9370  178.9500  145.9430 N   0  0  0  0  0  0  0  0  0  0  0  0
  185.3100  178.6490  145.5860 C   0  0  0  0  0  3  0  0  0  0  0  0
  188.5350  178.0870  146.6900 C   0  0  0  0  0  2  0  0  0  0  0  0
  188.4270  177.9220  148.1970 C   0  0  0  0  0  1  0  0  0  0  0  0
  185.8430  179.2000  141.3660 C   0  0  0  0  0  2  0  0  0  0  0  0
  185.2250  178.4300  140.2090 C   0  0  0  0  0  2  0  0  0  0  0  0
  185.5890  179.0140  138.9930 O   0  0  0  0  0  0  0  0  0  0  0  0
  187.2080  178.6750  137.2780 C   0  0  0  0  0  2  0  0  0  0  0  0
  188.0560  177.6060  136.5950 C   0  0  0  0  0  2  0  0  0  0  0  0
  185.3680  177.0810  137.6130 C   0  0  0  0  0  2  0  0  0  0  0  0
  187.8470  175.3710  135.3990 N   0  0  0  0  0  2  0  0  0  0  0  0
  186.3210  178.0300  138.3280 C   0  0  2  0  0  3  0  0  0  0  0  0
  187.2630  176.3710  136.2330 C   0  0  0  0  0  0  0  0  0  0  0  0
  186.0960  176.1370  136.7630 N   0  0  0  0  0  0  0  0  0  0  0  0
  189.4320  175.5550  134.6370 S   0  0  0  0  0  0  0  0  0  0  0  0
  189.8550  173.9420  136.6940 O   0  0  0  0  0  0  0  0  0  0  0  0
  191.4310  175.6650  136.5720 N   0  0  0  0  0  2  0  0  0  0  0  0
  190.2810  174.9660  136.0940 C   0  0  0  0  0  0  0  0  0  0  0  0
  193.2890  174.2860  137.3250 C   0  0  0  0  0  1  0  0  0  0  0  0
  192.7920  176.4440  138.4190 C   0  0  0  0  0  1  0  0  0  0  0  0
  192.1810  175.2350  137.7420 C   0  0  0  0  0  3  0  0  0  0  0  0
  1 13  1  0  0  0  0
  2  3  1  0  0  0  0
  2  1  2  0  0  0  0
  3  8  2  0  0  0  0
  4  7  1  1  0  0  0
  4 11  1  0  0  0  0
  5 14  2  0  0  0  0
  6 21  1  6  0  0  0
  6 11  1  0  0  0  0
  8 12  1  0  0  0  0
 10  5  1  0  0  0  0
 10  1  1  0  0  0  0
 12 15  2  0  0  0  0
 12  4  1  0  0  0  0
 13  9  1  6  0  0  0
 13 15  1  0  0  0  0
 14  9  1  0  0  0  0
 14 17  1  0  0  0  0
 15  6  1  0  0  0  0
 16 19  1  0  0  0  0
 17 20  1  0  0  0  0
 18 17  1  0  0  0  0
 18 16  2  0  0  0  0
 20 19  2  0  0  0  0
 21 22  1  0  0  0  0
 23  5  1  0  0  0  0
 24 23  1  0  0  0  0
 25 24  1  0  0  0  0
 26 30  1  0  0  0  0
 27 26  1  0  0  0  0
 28 30  1  0  0  0  0
 29 31  1  0  0  0  0
 30 25  1  6  0  0  0
 31 27  1  0  0  0  0
 31 32  2  0  0  0  0
 32 28  1  0  0  0  0
 33 29  1  0  0  0  0
 33 36  1  0  0  0  0
 35 39  1  0  0  0  0
 36 35  1  0  0  0  0
 36 34  2  0  0  0  0
 37 39  1  0  0  0  0
 39 38  1  0  0  0  0
M  END
>  <MODEL>
2

>  <REMARK>
 VINA RESULT:      -7.8      3.133      8.496
  Name = 
  9 active torsions:
  status: ('A' for Active; 'I' for Inactive)
    1  A    between atoms: C_2  and  C_15
    2  A    between atoms: C_2  and  O_35
    3  A    between atoms: C_9  and  C_20
    4  A    between atoms: N_11  and  C_34
    5  A    between atoms: C_15  and  C_17
    6  A    between atoms: C_19  and  N_32
    7  A    between atoms: N_29  and  S_38
    8  A    between atoms: C_30  and  O_35
    9  A    between atoms: S_38  and  C_39
                            x       y       z     vdW  Elec       q    Type
                         _______ _______ _______ _____ _____    ______ ____

>  <TORSDO>
F 9

$$$$
=
 OpenBabel10232411053D

 39 43  0  0  1  0  0  0  0  0999 V2000
  188.1890  177.3690  138.9080 C   0  0  0  0  0  0  0  0  0  0  0  0
  187.2440  178.4090  139.1860 N   0  0  0  0  0  2  0  0  0  0  0  0
  186.0170  178.5890  138.7990 C   0  0  0  0  0  3  0  0  0  0  0  0
  184.8050  176.2930  136.0550 C   0  0  2  0  0  3  0  0  0  0  0  0
  190.5950  176.7920  139.2760 C   0  0  0  0  0  0  0  0  0  0  0  0
  187.3080  176.2600  135.4900 C   0  0  2  0  0  3  0  0  0  0  0  0
  184.3370  174.9260  136.5160 C   0  0  0  0  0  1  0  0  0  0  0  0
  185.2820  177.7390  137.9140 N   0  0  0  0  0  0  0  0  0  0  0  0
  189.2220  175.4920  137.7150 C   0  0  0  0  0  2  0  0  0  0  0  0
  189.2990  177.2080  139.9170 C   0  0  0  0  0  2  0  0  0  0  0  0
  185.7850  176.1280  134.5310 S   0  0  0  0  0  0  0  0  0  0  0  0
  185.7290  176.8780  137.0580 C   0  0  0  0  0  0  0  0  0  0  0  0
  188.1770  176.5820  137.8100 C   0  0  0  0  0  0  0  0  0  0  0  0
  190.5670  175.9560  138.2140 C   0  0  0  0  0  0  0  0  0  0  0  0
  187.1340  176.6510  136.7580 C   0  0  0  0  0  0  0  0  0  0  0  0
  193.4090  174.1370  136.8040 C   0  0  0  0  0  3  0  0  0  0  0  0
  191.7550  175.4840  137.5460 N   0  0  0  0  0  0  0  0  0  0  0  0
  192.3690  174.2600  137.8200 N   0  0  0  0  0  0  0  0  0  0  0  0
  193.4510  175.3500  135.9830 N   0  0  0  0  0  0  0  0  0  0  0  0
  192.3420  176.1720  136.4260 C   0  0  0  0  0  3  0  0  0  0  0  0
  188.6570  175.9590  134.8940 C   0  0  0  0  0  2  0  0  0  0  0  0
  189.3670  177.1880  134.3540 C   0  0  0  0  0  1  0  0  0  0  0  0
  191.8580  177.3370  139.8630 C   0  0  0  0  0  2  0  0  0  0  0  0
  191.6600  177.7300  141.3190 C   0  0  0  0  0  2  0  0  0  0  0  0
  191.9910  176.6610  142.1560 O   0  0  0  0  0  0  0  0  0  0  0  0
  189.9250  176.3650  143.3050 C   0  0  0  0  0  2  0  0  0  0  0  0
  189.2270  176.6010  144.6410 C   0  0  0  0  0  2  0  0  0  0  0  0
  191.2230  178.4370  143.5520 C   0  0  0  0  0  2  0  0  0  0  0  0
  188.6860  178.4540  146.2970 N   0  0  0  0  0  2  0  0  0  0  0  0
  191.3340  176.9300  143.3570 C   0  0  2  0  0  3  0  0  0  0  0  0
  189.4420  177.9990  145.1760 C   0  0  0  0  0  0  0  0  0  0  0  0
  190.3890  178.7620  144.7110 N   0  0  0  0  0  0  0  0  0  0  0  0
  187.3890  177.5060  147.0360 S   0  0  0  0  0  0  0  0  0  0  0  0
  185.5560  179.4140  147.1340 O   0  0  0  0  0  0  0  0  0  0  0  0
  185.7720  178.4940  144.9950 N   0  0  0  0  0  2  0  0  0  0  0  0
  186.1270  178.5840  146.3760 C   0  0  0  0  0  0  0  0  0  0  0  0
  184.9190  179.3300  142.8760 C   0  0  0  0  0  1  0  0  0  0  0  0
  183.3870  178.8440  144.7510 C   0  0  0  0  0  1  0  0  0  0  0  0
  184.7670  179.3490  144.3850 C   0  0  0  0  0  3  0  0  0  0  0  0
  1  2  1  0  0  0  0
  1 10  1  0  0  0  0
  3  2  1  0  0  0  0
  4  7  1  1  0  0  0
  4 12  1  0  0  0  0
  5 23  1  0  0  0  0
  5 10  1  0  0  0  0
  6 21  1  6  0  0  0
  6 15  1  0  0  0  0
  8  3  2  0  0  0  0
  9 13  1  0  0  0  0
  9 14  1  0  0  0  0
 11  6  1  0  0  0  0
 11  4  1  0  0  0  0
 12  8  1  0  0  0  0
 13  1  2  0  0  0  0
 14  5  2  0  0  0  0
 15 12  2  0  0  0  0
 15 13  1  0  0  0  0
 16 18  2  0  0  0  0
 17 18  1  0  0  0  0
 17 14  1  0  0  0  0
 19 20  2  0  0  0  0
 19 16  1  0  0  0  0
 20 17  1  0  0  0  0
 22 21  1  0  0  0  0
 23 24  1  0  0  0  0
 24 25  1  0  0  0  0
 26 30  1  0  0  0  0
 26 27  1  0  0  0  0
 27 31  1  0  0  0  0
 28 32  1  0  0  0  0
 29 33  1  0  0  0  0
 30 25  1  6  0  0  0
 30 28  1  0  0  0  0
 31 29  1  0  0  0  0
 32 31  2  0  0  0  0
 35 36  1  0  0  0  0
 36 33  1  0  0  0  0
 36 34  2  0  0  0  0
 37 39  1  0  0  0  0
 39 38  1  0  0  0  0
 39 35  1  0  0  0  0
M  END
>  <MODEL>
3

>  <REMARK>
 VINA RESULT:      -7.7      2.656      6.568
  Name = 
  9 active torsions:
  status: ('A' for Active; 'I' for Inactive)
    1  A    between atoms: C_2  and  C_15
    2  A    between atoms: C_2  and  O_35
    3  A    between atoms: C_9  and  C_20
    4  A    between atoms: N_11  and  C_34
    5  A    between atoms: C_15  and  C_17
    6  A    between atoms: C_19  and  N_32
    7  A    between atoms: N_29  and  S_38
    8  A    between atoms: C_30  and  O_35
    9  A    between atoms: S_38  and  C_39
                            x       y       z     vdW  Elec       q    Type
                         _______ _______ _______ _____ _____    ______ ____

>  <TORSDO>
F 9

$$$$
=
 OpenBabel10232411053D

 39 43  0  0  1  0  0  0  0  0999 V2000
  189.2210  177.7030  142.5650 C   0  0  0  0  0  0  0  0  0  0  0  0
  190.4950  177.9940  141.9760 N   0  0  0  0  0  0  0  0  0  0  0  0
  191.6980  177.6150  142.2860 C   0  0  0  0  0  3  0  0  0  0  0  0
  192.0600  175.8510  145.6070 C   0  0  2  0  0  3  0  0  0  0  0  0
  186.8160  178.3680  142.3970 C   0  0  0  0  0  0  0  0  0  0  0  0
  189.9850  177.2560  146.1570 C   0  0  2  0  0  3  0  0  0  0  0  0
  191.7230  174.3710  145.5920 C   0  0  0  0  0  1  0  0  0  0  0  0
  192.0570  176.7810  143.3910 N   0  0  0  0  0  0  0  0  0  0  0  0
  187.6120  177.0180  144.2830 C   0  0  0  0  0  2  0  0  0  0  0  0
  188.0290  177.8720  141.6570 C   0  0  0  0  0  2  0  0  0  0  0  0
  191.3820  176.6230  147.1070 S   0  0  0  0  0  0  0  0  0  0  0  0
  191.3910  176.5340  144.4730 C   0  0  0  0  0  0  0  0  0  0  0  0
  189.0250  177.3470  143.8530 C   0  0  1  0  0  3  0  0  0  0  0  0
  186.6020  177.9530  143.6660 C   0  0  0  0  0  0  0  0  0  0  0  0
  190.1230  177.1490  144.8290 C   0  0  0  0  0  0  0  0  0  0  0  0
  183.3310  178.6950  145.1220 C   0  0  0  0  0  3  0  0  0  0  0  0
  185.4600  178.3540  144.4490 N   0  0  0  0  0  0  0  0  0  0  0  0
  184.1570  178.4140  143.9520 N   0  0  0  0  0  0  0  0  0  0  0  0
  184.1820  178.8860  146.2990 N   0  0  0  0  0  0  0  0  0  0  0  0
  185.5360  178.5960  145.8660 C   0  0  0  0  0  3  0  0  0  0  0  0
  188.7760  177.8600  146.8180 C   0  0  0  0  0  2  0  0  0  0  0  0
  188.9740  178.1420  148.2980 C   0  0  0  0  0  1  0  0  0  0  0  0
  185.9020  179.3030  141.6710 C   0  0  0  0  0  2  0  0  0  0  0  0
  185.3030  178.6390  140.4410 C   0  0  0  0  0  2  0  0  0  0  0  0
  184.7820  179.6050  139.5770 O   0  0  0  0  0  0  0  0  0  0  0  0
  182.9200  178.1190  139.5680 C   0  0  0  0  0  2  0  0  0  0  0  0
  181.9330  177.4050  138.6480 C   0  0  0  0  0  2  0  0  0  0  0  0
  184.7130  177.9080  137.9020 C   0  0  0  0  0  2  0  0  0  0  0  0
  181.8650  175.8390  136.6450 N   0  0  0  0  0  2  0  0  0  0  0  0
  183.9180  178.9040  138.7350 C   0  0  2  0  0  3  0  0  0  0  0  0
  182.6080  176.7300  137.4760 C   0  0  0  0  0  0  0  0  0  0  0  0
  183.8270  177.0330  137.1310 N   0  0  0  0  0  0  0  0  0  0  0  0
  180.1960  175.3640  136.9890 S   0  0  0  0  0  0  0  0  0  0  0  0
  179.9890  172.9930  138.1490 O   0  0  0  0  0  0  0  0  0  0  0  0
  181.8310  173.1270  136.7160 N   0  0  0  0  0  2  0  0  0  0  0  0
  180.6740  173.6800  137.3430 C   0  0  0  0  0  0  0  0  0  0  0  0
  181.7390  170.8560  135.8470 C   0  0  0  0  0  1  0  0  0  0  0  0
  183.7850  171.7110  136.9360 C   0  0  0  0  0  1  0  0  0  0  0  0
  182.2710  171.7590  136.9440 C   0  0  0  0  0  3  0  0  0  0  0  0
  1 13  1  0  0  0  0
  2  3  1  0  0  0  0
  2  1  2  0  0  0  0
  3  8  2  0  0  0  0
  4  7  1  1  0  0  0
  4 11  1  0  0  0  0
  5 14  2  0  0  0  0
  6 21  1  6  0  0  0
  6 11  1  0  0  0  0
  8 12  1  0  0  0  0
 10  5  1  0  0  0  0
 10  1  1  0  0  0  0
 12 15  2  0  0  0  0
 12  4  1  0  0  0  0
 13  9  1  6  0  0  0
 13 15  1  0  0  0  0
 14  9  1  0  0  0  0
 14 17  1  0  0  0  0
 15  6  1  0  0  0  0
 16 19  1  0  0  0  0
 17 20  1  0  0  0  0
 18 17  1  0  0  0  0
 18 16  2  0  0  0  0
 20 19  2  0  0  0  0
 21 22  1  0  0  0  0
 23  5  1  0  0  0  0
 24 23  1  0  0  0  0
 25 24  1  0  0  0  0
 27 26  1  0  0  0  0
 28 30  1  0  0  0  0
 29 33  1  0  0  0  0
 29 31  1  0  0  0  0
 30 26  1  0  0  0  0
 30 25  1  1  0  0  0
 31 27  1  0  0  0  0
 32 31  2  0  0  0  0
 32 28  1  0  0  0  0
 33 36  1  0  0  0  0
 35 39  1  0  0  0  0
 35 36  1  0  0  0  0
 36 34  2  0  0  0  0
 37 39  1  0  0  0  0
 38 39  1  0  0  0  0
M  END
>  <MODEL>
4

>  <REMARK>
 VINA RESULT:      -7.5      3.316      9.218
  Name = 
  9 active torsions:
  status: ('A' for Active; 'I' for Inactive)
    1  A    between atoms: C_2  and  C_15
    2  A    between atoms: C_2  and  O_35
    3  A    between atoms: C_9  and  C_20
    4  A    between atoms: N_11  and  C_34
    5  A    between atoms: C_15  and  C_17
    6  A    between atoms: C_19  and  N_32
    7  A    between atoms: N_29  and  S_38
    8  A    between atoms: C_30  and  O_35
    9  A    between atoms: S_38  and  C_39
                            x       y       z     vdW  Elec       q    Type
                         _______ _______ _______ _____ _____    ______ ____

>  <TORSDO>
F 9

$$$$
=
 OpenBabel10232411053D

 39 43  0  0  1  0  0  0  0  0999 V2000
  189.1470  177.7360  142.5630 C   0  0  0  0  0  0  0  0  0  0  0  0
  190.4200  178.0370  141.9770 N   0  0  0  0  0  0  0  0  0  0  0  0
  191.6230  177.6460  142.2740 C   0  0  0  0  0  3  0  0  0  0  0  0
  191.9910  175.7980  145.5470 C   0  0  2  0  0  3  0  0  0  0  0  0
  186.7440  178.4130  142.4220 C   0  0  0  0  0  0  0  0  0  0  0  0
  189.9230  177.1960  146.1400 C   0  0  2  0  0  3  0  0  0  0  0  0
  191.6480  174.3210  145.4980 C   0  0  0  0  0  1  0  0  0  0  0  0
  191.9820  176.7830  143.3560 N   0  0  0  0  0  0  0  0  0  0  0  0
  187.5420  177.0130  144.2700 C   0  0  0  0  0  2  0  0  0  0  0  0
  187.9520  177.9320  141.6650 C   0  0  0  0  0  2  0  0  0  0  0  0
  191.3210  176.5350  147.0690 S   0  0  0  0  0  0  0  0  0  0  0  0
  191.3190  176.5120  144.4330 C   0  0  0  0  0  0  0  0  0  0  0  0
  188.9540  177.3480  143.8430 C   0  0  1  0  0  3  0  0  0  0  0  0
  186.5330  177.9670  143.6810 C   0  0  0  0  0  0  0  0  0  0  0  0
  190.0550  177.1220  144.8100 C   0  0  0  0  0  0  0  0  0  0  0  0
  183.2710  178.7290  145.1470 C   0  0  0  0  0  3  0  0  0  0  0  0
  185.3950  178.3530  144.4780 N   0  0  0  0  0  0  0  0  0  0  0  0
  184.1040  178.5070  143.9700 N   0  0  0  0  0  0  0  0  0  0  0  0
  184.1090  178.7890  146.3470 N   0  0  0  0  0  0  0  0  0  0  0  0
  185.4570  178.4780  145.9110 C   0  0  0  0  0  3  0  0  0  0  0  0
  188.7180  177.7880  146.8210 C   0  0  0  0  0  2  0  0  0  0  0  0
  188.9690  178.1690  148.2700 C   0  0  0  0  0  1  0  0  0  0  0  0
  185.8300  179.3690  141.7230 C   0  0  0  0  0  2  0  0  0  0  0  0
  185.0900  178.6860  140.5830 C   0  0  0  0  0  2  0  0  0  0  0  0
  184.8650  179.5920  139.5440 O   0  0  0  0  0  0  0  0  0  0  0  0
  183.9140  177.5380  138.8000 C   0  0  0  0  0  2  0  0  0  0  0  0
  183.6410  176.7000  137.5540 C   0  0  0  0  0  2  0  0  0  0  0  0
  186.0170  178.3770  137.8440 C   0  0  0  0  0  2  0  0  0  0  0  0
  184.8310  175.6700  135.5550 N   0  0  0  0  0  2  0  0  0  0  0  0
  184.6680  178.7980  138.4130 C   0  0  2  0  0  3  0  0  0  0  0  0
  184.8450  176.5900  136.6460 C   0  0  0  0  0  0  0  0  0  0  0  0
  185.8560  177.4030  136.7620 N   0  0  0  0  0  0  0  0  0  0  0  0
  183.5090  174.5290  135.2730 S   0  0  0  0  0  0  0  0  0  0  0  0
  183.8200  172.2840  136.6420 O   0  0  0  0  0  0  0  0  0  0  0  0
  185.8470  173.1220  135.8310 N   0  0  0  0  0  2  0  0  0  0  0  0
  184.4290  173.1770  135.9920 C   0  0  0  0  0  0  0  0  0  0  0  0
  186.9390  171.0150  135.2960 C   0  0  0  0  0  1  0  0  0  0  0  0
  187.9710  172.6070  136.8760 C   0  0  0  0  0  1  0  0  0  0  0  0
  186.6580  172.0440  136.3740 C   0  0  0  0  0  3  0  0  0  0  0  0
  1 13  1  0  0  0  0
  2  3  1  0  0  0  0
  2  1  2  0  0  0  0
  3  8  2  0  0  0  0
  4  7  1  1  0  0  0
  4 11  1  0  0  0  0
  5 14  2  0  0  0  0
  6 21  1  6  0  0  0
  6 11  1  0  0  0  0
  8 12  1  0  0  0  0
 10  5  1  0  0  0  0
 10  1  1  0  0  0  0
 12 15  2  0  0  0  0
 12  4  1  0  0  0  0
 13  9  1  6  0  0  0
 13 15  1  0  0  0  0
 14  9  1  0  0  0  0
 14 17  1  0  0  0  0
 15  6  1  0  0  0  0
 16 19  1  0  0  0  0
 17 20  1  0  0  0  0
 18 17  1  0  0  0  0
 18 16  2  0  0  0  0
 20 19  2  0  0  0  0
 21 22  1  0  0  0  0
 23  5  1  0  0  0  0
 24 23  1  0  0  0  0
 25 24  1  0  0  0  0
 27 26  1  0  0  0  0
 28 30  1  0  0  0  0
 29 31  1  0  0  0  0
 30 26  1  0  0  0  0
 30 25  1  1  0  0  0
 31 32  2  0  0  0  0
 31 27  1  0  0  0  0
 32 28  1  0  0  0  0
 33 29  1  0  0  0  0
 33 36  1  0  0  0  0
 35 36  1  0  0  0  0
 35 39  1  0  0  0  0
 36 34  2  0  0  0  0
 37 39  1  0  0  0  0
 39 38  1  0  0  0  0
M  END
>  <MODEL>
5

>  <REMARK>
 VINA RESULT:      -7.3      3.054      8.918
  Name = 
  9 active torsions:
  status: ('A' for Active; 'I' for Inactive)
    1  A    between atoms: C_2  and  C_15
    2  A    between atoms: C_2  and  O_35
    3  A    between atoms: C_9  and  C_20
    4  A    between atoms: N_11  and  C_34
    5  A    between atoms: C_15  and  C_17
    6  A    between atoms: C_19  and  N_32
    7  A    between atoms: N_29  and  S_38
    8  A    between atoms: C_30  and  O_35
    9  A    between atoms: S_38  and  C_39
                            x       y       z     vdW  Elec       q    Type
                         _______ _______ _______ _____ _____    ______ ____

>  <TORSDO>
F 9

$$$$
=
 OpenBabel10232411053D

 39 43  0  0  1  0  0  0  0  0999 V2000
  184.6360  178.8480  142.5990 C   0  0  0  0  0  0  0  0  0  0  0  0
  183.3600  178.6210  143.2090 N   0  0  0  0  0  2  0  0  0  0  0  0
  182.9870  178.6040  144.4530 C   0  0  0  0  0  3  0  0  0  0  0  0
  185.7710  178.6400  147.0050 C   0  0  2  0  0  3  0  0  0  0  0  0
  185.7530  178.7670  140.3630 C   0  0  0  0  0  0  0  0  0  0  0  0
  187.0490  177.5320  145.0760 C   0  0  2  0  0  3  0  0  0  0  0  0
  186.3440  180.0100  147.3170 C   0  0  0  0  0  1  0  0  0  0  0  0
  183.8370  178.7910  145.5880 N   0  0  0  0  0  0  0  0  0  0  0  0
  187.0780  178.9880  142.4140 C   0  0  0  0  0  2  0  0  0  0  0  0
  184.6010  179.3100  141.1640 C   0  0  0  0  0  2  0  0  0  0  0  0
  187.1170  177.4240  146.8760 S   0  0  0  0  0  0  0  0  0  0  0  0
  185.1210  178.6540  145.6720 C   0  0  0  0  0  0  0  0  0  0  0  0
  185.8300  178.6330  143.1940 C   0  0  0  0  0  0  0  0  0  0  0  0
  186.9580  178.6140  140.9580 C   0  0  0  0  0  0  0  0  0  0  0  0
  185.9810  178.1840  144.5990 C   0  0  0  0  0  0  0  0  0  0  0  0
  189.8920  177.9820  138.8700 C   0  0  0  0  0  3  0  0  0  0  0  0
  188.1260  178.1230  140.2700 N   0  0  0  0  0  0  0  0  0  0  0  0
  188.6350  178.6860  139.0990 N   0  0  0  0  0  0  0  0  0  0  0  0
  190.0690  176.9360  139.8800 N   0  0  0  0  0  0  0  0  0  0  0  0
  188.9640  177.0850  140.8090 C   0  0  0  0  0  3  0  0  0  0  0  0
  188.1110  176.9270  144.1970 C   0  0  0  0  0  2  0  0  0  0  0  0
  189.5250  177.2660  144.6360 C   0  0  0  0  0  1  0  0  0  0  0  0
  185.4930  178.4240  138.9300 C   0  0  0  0  0  2  0  0  0  0  0  0
  184.0040  178.2710  138.6650 C   0  0  0  0  0  2  0  0  0  0  0  0
  183.7950  177.4890  137.5260 O   0  0  0  0  0  0  0  0  0  0  0  0
  185.6220  177.1280  136.0400 C   0  0  0  0  0  2  0  0  0  0  0  0
  186.9490  176.3870  135.8940 C   0  0  0  0  0  2  0  0  0  0  0  0
  184.6660  175.2760  137.3410 C   0  0  0  0  0  2  0  0  0  0  0  0
  187.9390  174.0480  136.0170 N   0  0  0  0  0  2  0  0  0  0  0  0
  184.9780  176.7660  137.3670 C   0  0  2  0  0  3  0  0  0  0  0  0
  186.8550  174.9330  136.2970 C   0  0  0  0  0  0  0  0  0  0  0  0
  185.8550  174.4900  137.0030 N   0  0  0  0  0  0  0  0  0  0  0  0
  189.3650  174.5310  135.0890 S   0  0  0  0  0  0  0  0  0  0  0  0
  189.9960  173.9480  137.5930 O   0  0  0  0  0  0  0  0  0  0  0  0
  191.6940  175.1210  136.4940 N   0  0  0  0  0  2  0  0  0  0  0  0
  190.4070  174.5050  136.5390 C   0  0  0  0  0  0  0  0  0  0  0  0
  193.7830  174.2140  137.3510 C   0  0  0  0  0  1  0  0  0  0  0  0
  193.1070  176.5340  137.8650 C   0  0  0  0  0  1  0  0  0  0  0  0
  192.6030  175.1250  137.6300 C   0  0  0  0  0  3  0  0  0  0  0  0
  1 13  2  0  0  0  0
  1  2  1  0  0  0  0
  2  3  1  0  0  0  0
  3  8  2  0  0  0  0
  4  7  1  6  0  0  0
  5 14  2  0  0  0  0
  5 10  1  0  0  0  0
  6 21  1  6  0  0  0
  6 11  1  0  0  0  0
  8 12  1  0  0  0  0
  9 13  1  0  0  0  0
 10  1  1  0  0  0  0
 11  4  1  0  0  0  0
 12  4  1  0  0  0  0
 13 15  1  0  0  0  0
 14  9  1  0  0  0  0
 15  6  1  0  0  0  0
 15 12  2  0  0  0  0
 16 18  2  0  0  0  0
 16 19  1  0  0  0  0
 17 20  1  0  0  0  0
 17 14  1  0  0  0  0
 18 17  1  0  0  0  0
 19 20  2  0  0  0  0
 21 22  1  0  0  0  0
 23  5  1  0  0  0  0
 24 23  1  0  0  0  0
 25 24  1  0  0  0  0
 26 30  1  0  0  0  0
 27 26  1  0  0  0  0
 27 31  1  0  0  0  0
 28 30  1  0  0  0  0
 29 31  1  0  0  0  0
 30 25  1  6  0  0  0
 31 32  2  0  0  0  0
 32 28  1  0  0  0  0
 33 29  1  0  0  0  0
 33 36  1  0  0  0  0
 35 36  1  0  0  0  0
 35 39  1  0  0  0  0
 36 34  2  0  0  0  0
 37 39  1  0  0  0  0
 39 38  1  0  0  0  0
M  END
>  <MODEL>
6

>  <REMARK>
 VINA RESULT:      -7.3      3.205      8.533
  Name = 
  9 active torsions:
  status: ('A' for Active; 'I' for Inactive)
    1  A    between atoms: C_2  and  C_15
    2  A    between atoms: C_2  and  O_35
    3  A    between atoms: C_9  and  C_20
    4  A    between atoms: N_11  and  C_34
    5  A    between atoms: C_15  and  C_17
    6  A    between atoms: C_19  and  N_32
    7  A    between atoms: N_29  and  S_38
    8  A    between atoms: C_30  and  O_35
    9  A    between atoms: S_38  and  C_39
                            x       y       z     vdW  Elec       q    Type
                         _______ _______ _______ _____ _____    ______ ____

>  <TORSDO>
F 9

$$$$
=
 OpenBabel10232411053D

 39 43  0  0  1  0  0  0  0  0999 V2000
  189.6160  177.7730  143.0940 C   0  0  0  0  0  0  0  0  0  0  0  0
  190.9960  178.1400  143.1960 N   0  0  0  0  0  0  0  0  0  0  0  0
  191.8590  178.0040  144.1580 C   0  0  0  0  0  3  0  0  0  0  0  0
  190.4470  176.9230  147.4910 C   0  0  2  0  0  3  0  0  0  0  0  0
  187.6520  178.0350  141.5670 C   0  0  0  0  0  0  0  0  0  0  0  0
  188.3560  178.0800  146.5590 C   0  0  2  0  0  3  0  0  0  0  0  0
  190.2160  175.4300  147.6410 C   0  0  0  0  0  1  0  0  0  0  0  0
  191.5980  177.4380  145.4460 N   0  0  0  0  0  0  0  0  0  0  0  0
  187.3590  177.1690  143.8420 C   0  0  0  0  0  2  0  0  0  0  0  0
  189.0880  177.6020  141.6910 C   0  0  0  0  0  2  0  0  0  0  0  0
  189.0480  177.8380  148.2070 S   0  0  0  0  0  0  0  0  0  0  0  0
  190.4650  177.2900  146.0530 C   0  0  0  0  0  0  0  0  0  0  0  0
  188.7720  177.6230  144.1390 C   0  0  1  0  0  3  0  0  0  0  0  0
  186.8070  177.8230  142.6000 C   0  0  0  0  0  0  0  0  0  0  0  0
  189.1840  177.7630  145.5560 C   0  0  0  0  0  0  0  0  0  0  0  0
  183.2490  178.3410  141.9350 C   0  0  0  0  0  3  0  0  0  0  0  0
  185.4110  178.1820  142.5680 N   0  0  0  0  0  0  0  0  0  0  0  0
  184.5850  178.0050  141.4560 N   0  0  0  0  0  0  0  0  0  0  0  0
  183.3170  178.8020  143.3240 N   0  0  0  0  0  0  0  0  0  0  0  0
  184.6970  178.6280  143.7360 C   0  0  0  0  0  3  0  0  0  0  0  0
  186.9610  178.6060  146.3460 C   0  0  0  0  0  2  0  0  0  0  0  0
  186.3060  179.1150  147.6190 C   0  0  0  0  0  1  0  0  0  0  0  0
  187.2380  178.6830  140.2830 C   0  0  0  0  0  2  0  0  0  0  0  0
  188.2510  178.4120  139.1810 C   0  0  0  0  0  2  0  0  0  0  0  0
  187.5950  178.0550  138.0010 O   0  0  0  0  0  0  0  0  0  0  0  0
  189.5100  176.6860  138.3710 C   0  0  0  0  0  2  0  0  0  0  0  0
  190.3930  175.6230  137.7240 C   0  0  0  0  0  2  0  0  0  0  0  0
  189.1350  177.7760  136.2010 C   0  0  0  0  0  2  0  0  0  0  0  0
  191.7840  175.2000  135.6370 N   0  0  0  0  0  2  0  0  0  0  0  0
  188.4380  177.1260  137.3890 C   0  0  2  0  0  3  0  0  0  0  0  0
  190.7890  175.9720  136.3080 C   0  0  0  0  0  0  0  0  0  0  0  0
  190.1570  176.8920  135.6360 N   0  0  0  0  0  0  0  0  0  0  0  0
  192.6990  173.9100  136.4280 S   0  0  0  0  0  0  0  0  0  0  0  0
  194.0280  175.9650  137.4370 O   0  0  0  0  0  0  0  0  0  0  0  0
  195.3400  174.6770  135.9930 N   0  0  0  0  0  2  0  0  0  0  0  0
  194.1180  174.9670  136.6720 C   0  0  0  0  0  0  0  0  0  0  0  0
  197.7360  174.5850  136.4020 C   0  0  0  0  0  1  0  0  0  0  0  0
  196.7760  176.2910  134.8950 C   0  0  0  0  0  1  0  0  0  0  0  0
  196.5400  175.4840  136.1550 C   0  0  0  0  0  3  0  0  0  0  0  0
  1  2  2  0  0  0  0
  1 13  1  0  0  0  0
  2  3  1  0  0  0  0
  3  8  2  0  0  0  0
  4  7  1  6  0  0  0
  4 11  1  0  0  0  0
  5 10  1  0  0  0  0
  5 14  2  0  0  0  0
  6 21  1  6  0  0  0
  6 11  1  0  0  0  0
  8 12  1  0  0  0  0
 10  1  1  0  0  0  0
 12  4  1  0  0  0  0
 13  9  1  1  0  0  0
 13 15  1  0  0  0  0
 14  9  1  0  0  0  0
 15 12  2  0  0  0  0
 15  6  1  0  0  0  0
 16 19  1  0  0  0  0
 17 14  1  0  0  0  0
 17 20  1  0  0  0  0
 18 16  2  0  0  0  0
 18 17  1  0  0  0  0
 19 20  2  0  0  0  0
 21 22  1  0  0  0  0
 23  5  1  0  0  0  0
 24 23  1  0  0  0  0
 25 24  1  0  0  0  0
 27 26  1  0  0  0  0
 28 30  1  0  0  0  0
 29 31  1  0  0  0  0
 29 33  1  0  0  0  0
 30 25  1  1  0  0  0
 30 26  1  0  0  0  0
 31 27  1  0  0  0  0
 32 28  1  0  0  0  0
 32 31  2  0  0  0  0
 33 36  1  0  0  0  0
 35 39  1  0  0  0  0
 35 36  1  0  0  0  0
 36 34  2  0  0  0  0
 38 39  1  0  0  0  0
 39 37  1  0  0  0  0
M  END
>  <MODEL>
7

>  <REMARK>
 VINA RESULT:      -6.9      3.973      9.191
  Name = 
  9 active torsions:
  status: ('A' for Active; 'I' for Inactive)
    1  A    between atoms: C_2  and  C_15
    2  A    between atoms: C_2  and  O_35
    3  A    between atoms: C_9  and  C_20
    4  A    between atoms: N_11  and  C_34
    5  A    between atoms: C_15  and  C_17
    6  A    between atoms: C_19  and  N_32
    7  A    between atoms: N_29  and  S_38
    8  A    between atoms: C_30  and  O_35
    9  A    between atoms: S_38  and  C_39
                            x       y       z     vdW  Elec       q    Type
                         _______ _______ _______ _____ _____    ______ ____

>  <TORSDO>
F 9

$$$$
=
 OpenBabel10232411053D

 39 43  0  0  1  0  0  0  0  0999 V2000
  185.0780  178.7690  142.0240 C   0  0  0  0  0  0  0  0  0  0  0  0
  184.7710  179.4890  143.2240 N   0  0  0  0  0  2  0  0  0  0  0  0
  183.6430  179.7320  143.8210 C   0  0  0  0  0  3  0  0  0  0  0  0
  180.5280  178.8710  141.8680 C   0  0  2  0  0  3  0  0  0  0  0  0
  187.0020  178.2730  140.5050 C   0  0  0  0  0  0  0  0  0  0  0  0
  182.1040  179.2920  139.8880 C   0  0  2  0  0  3  0  0  0  0  0  0
  180.1110  177.4140  141.9260 C   0  0  0  0  0  1  0  0  0  0  0  0
  182.3480  179.3320  143.3670 N   0  0  0  0  0  0  0  0  0  0  0  0
  184.7070  177.7350  139.8310 C   0  0  0  0  0  2  0  0  0  0  0  0
  186.4900  178.2470  141.9190 C   0  0  0  0  0  2  0  0  0  0  0  0
  180.3340  179.5000  140.1720 S   0  0  0  0  0  0  0  0  0  0  0  0
  181.9740  178.9970  142.1740 C   0  0  0  0  0  0  0  0  0  0  0  0
  184.2260  178.5770  140.9930 C   0  0  0  0  0  0  0  0  0  0  0  0
  186.1480  178.0190  139.4880 C   0  0  0  0  0  0  0  0  0  0  0  0
  182.8180  179.0420  140.9920 C   0  0  0  0  0  0  0  0  0  0  0  0
  187.3190  178.6460  136.0820 C   0  0  0  0  0  3  0  0  0  0  0  0
  186.5480  177.9990  138.1030 N   0  0  0  0  0  0  0  0  0  0  0  0
  186.7820  179.1460  137.3430 N   0  0  0  0  0  0  0  0  0  0  0  0
  187.3140  177.1810  136.0830 N   0  0  0  0  0  0  0  0  0  0  0  0
  186.8820  176.7830  137.4090 C   0  0  0  0  0  3  0  0  0  0  0  0
  182.7120  179.4020  138.5150 C   0  0  0  0  0  2  0  0  0  0  0  0
  181.7830  178.9440  137.4040 C   0  0  0  0  0  1  0  0  0  0  0  0
  188.4530  178.5800  140.3050 C   0  0  0  0  0  2  0  0  0  0  0  0
  189.3110  177.3470  140.5360 C   0  0  0  0  0  2  0  0  0  0  0  0
  190.5290  177.7100  141.1160 O   0  0  0  0  0  0  0  0  0  0  0  0
  190.5660  178.6120  143.3220 C   0  0  0  0  0  2  0  0  0  0  0  0
  190.3590  178.2530  144.7900 C   0  0  0  0  0  2  0  0  0  0  0  0
  191.4960  176.3870  142.8500 C   0  0  0  0  0  2  0  0  0  0  0  0
  191.1620  176.6190  146.5660 N   0  0  0  0  0  2  0  0  0  0  0  0
  190.3990  177.3700  142.4640 C   0  0  2  0  0  3  0  0  0  0  0  0
  191.0710  176.9800  145.1890 C   0  0  0  0  0  0  0  0  0  0  0  0
  191.5010  176.1370  144.2940 N   0  0  0  0  0  0  0  0  0  0  0  0
  190.5950  177.6620  147.8770 S   0  0  0  0  0  0  0  0  0  0  0  0
  188.5050  176.0380  147.8820 O   0  0  0  0  0  0  0  0  0  0  0  0
  187.9830  178.1620  147.0560 N   0  0  0  0  0  2  0  0  0  0  0  0
  188.8910  177.2040  147.6000 C   0  0  0  0  0  0  0  0  0  0  0  0
  185.7510  179.1280  146.9710 C   0  0  0  0  0  1  0  0  0  0  0  0
  186.4090  177.3290  145.4120 C   0  0  0  0  0  1  0  0  0  0  0  0
  186.5780  177.8660  146.8180 C   0  0  0  0  0  3  0  0  0  0  0  0
  1  2  1  0  0  0  0
  2  3  1  0  0  0  0
  4  7  1  6  0  0  0
  4 12  1  0  0  0  0
  5 10  1  0  0  0  0
  6 21  1  1  0  0  0
  6 11  1  0  0  0  0
  6 15  1  0  0  0  0
  8  3  2  0  0  0  0
  9 13  1  0  0  0  0
 10  1  1  0  0  0  0
 11  4  1  0  0  0  0
 12  8  1  0  0  0  0
 13  1  2  0  0  0  0
 14  9  1  0  0  0  0
 14  5  2  0  0  0  0
 15 13  1  0  0  0  0
 15 12  2  0  0  0  0
 16 19  1  0  0  0  0
 16 18  2  0  0  0  0
 17 14  1  0  0  0  0
 18 17  1  0  0  0  0
 19 20  2  0  0  0  0
 20 17  1  0  0  0  0
 22 21  1  0  0  0  0
 23  5  1  0  0  0  0
 23 24  1  0  0  0  0
 24 25  1  0  0  0  0
 26 27  1  0  0  0  0
 27 31  1  0  0  0  0
 28 32  1  0  0  0  0
 29 33  1  0  0  0  0
 30 25  1  6  0  0  0
 30 28  1  0  0  0  0
 30 26  1  0  0  0  0
 31 29  1  0  0  0  0
 32 31  2  0  0  0  0
 35 36  1  0  0  0  0
 36 33  1  0  0  0  0
 36 34  2  0  0  0  0
 38 39  1  0  0  0  0
 39 37  1  0  0  0  0
 39 35  1  0  0  0  0
M  END
>  <MODEL>
8

>  <REMARK>
 VINA RESULT:      -6.9      3.277      6.291
  Name = 
  9 active torsions:
  status: ('A' for Active; 'I' for Inactive)
    1  A    between atoms: C_2  and  C_15
    2  A    between atoms: C_2  and  O_35
    3  A    between atoms: C_9  and  C_20
    4  A    between atoms: N_11  and  C_34
    5  A    between atoms: C_15  and  C_17
    6  A    between atoms: C_19  and  N_32
    7  A    between atoms: N_29  and  S_38
    8  A    between atoms: C_30  and  O_35
    9  A    between atoms: S_38  and  C_39
                            x       y       z     vdW  Elec       q    Type
                         _______ _______ _______ _____ _____    ______ ____

>  <TORSDO>
F 9

$$$$
=
 OpenBabel10232411053D

 39 43  0  0  1  0  0  0  0  0999 V2000
  186.6950  177.4250  137.5470 C   0  0  0  0  0  0  0  0  0  0  0  0
  187.2550  176.5580  136.5520 N   0  0  0  0  0  0  0  0  0  0  0  0
  186.7720  176.0930  135.4400 C   0  0  0  0  0  3  0  0  0  0  0  0
  183.0770  176.6530  134.8900 C   0  0  2  0  0  3  0  0  0  0  0  0
  187.2010  178.3430  139.8170 C   0  0  0  0  0  0  0  0  0  0  0  0
  183.0770  176.6610  137.4560 C   0  0  2  0  0  3  0  0  0  0  0  0
  182.7050  178.0190  134.3460 C   0  0  0  0  0  1  0  0  0  0  0  0
  185.4580  176.3340  134.9290 N   0  0  0  0  0  0  0  0  0  0  0  0
  184.9660  178.5900  138.8380 C   0  0  0  0  0  2  0  0  0  0  0  0
  187.6920  178.1600  138.4070 C   0  0  0  0  0  2  0  0  0  0  0  0
  181.8970  176.1630  136.1850 S   0  0  0  0  0  0  0  0  0  0  0  0
  184.3980  176.7180  135.5630 C   0  0  0  0  0  0  0  0  0  0  0  0
  185.3750  177.5810  137.7860 C   0  0  1  0  0  3  0  0  0  0  0  0
  185.8840  178.5590  140.0340 C   0  0  0  0  0  0  0  0  0  0  0  0
  184.3100  176.9120  137.0010 C   0  0  0  0  0  0  0  0  0  0  0  0
  184.7600  179.7210  143.3140 C   0  0  0  0  0  3  0  0  0  0  0  0
  185.3200  178.7680  141.3450 N   0  0  0  0  0  0  0  0  0  0  0  0
  185.6980  179.8050  142.2000 N   0  0  0  0  0  0  0  0  0  0  0  0
  183.8800  178.5630  143.1400 N   0  0  0  0  0  0  0  0  0  0  0  0
  184.2060  178.0040  141.8420 C   0  0  0  0  0  3  0  0  0  0  0  0
  182.6900  176.7710  138.9070 C   0  0  0  0  0  2  0  0  0  0  0  0
  181.5770  177.7730  139.1610 C   0  0  0  0  0  1  0  0  0  0  0  0
  188.2160  178.2780  140.9140 C   0  0  0  0  0  2  0  0  0  0  0  0
  189.3220  177.2890  140.5770 C   0  0  0  0  0  2  0  0  0  0  0  0
  190.5260  177.6970  141.1560 O   0  0  0  0  0  0  0  0  0  0  0  0
  190.5170  178.5960  143.3630 C   0  0  0  0  0  2  0  0  0  0  0  0
  190.3270  178.2240  144.8310 C   0  0  0  0  0  2  0  0  0  0  0  0
  191.5560  176.4210  142.8880 C   0  0  0  0  0  2  0  0  0  0  0  0
  191.2090  176.6280  146.6050 N   0  0  0  0  0  2  0  0  0  0  0  0
  190.4120  177.3490  142.5030 C   0  0  2  0  0  3  0  0  0  0  0  0
  191.1000  176.9870  145.2270 C   0  0  0  0  0  0  0  0  0  0  0  0
  191.5730  176.1690  144.3310 N   0  0  0  0  0  0  0  0  0  0  0  0
  190.5900  177.6390  147.9170 S   0  0  0  0  0  0  0  0  0  0  0  0
  188.5020  176.0120  147.9070 O   0  0  0  0  0  0  0  0  0  0  0  0
  188.0190  178.0890  146.9470 N   0  0  0  0  0  2  0  0  0  0  0  0
  188.9010  177.1630  147.5830 C   0  0  0  0  0  0  0  0  0  0  0  0
  185.7770  179.0220  146.8130 C   0  0  0  0  0  1  0  0  0  0  0  0
  186.5120  177.2690  145.2360 C   0  0  0  0  0  1  0  0  0  0  0  0
  186.6280  177.7770  146.6580 C   0  0  0  0  0  3  0  0  0  0  0  0
  1 13  1  0  0  0  0
  1 10  1  0  0  0  0
  2  1  2  0  0  0  0
  3  2  1  0  0  0  0
  4  7  1  1  0  0  0
  4 12  1  0  0  0  0
  4 11  1  0  0  0  0
  5 14  2  0  0  0  0
  5 23  1  0  0  0  0
  6 21  1  1  0  0  0
  8  3  2  0  0  0  0
  8 12  1  0  0  0  0
  9 14  1  0  0  0  0
 10  5  1  0  0  0  0
 11  6  1  0  0  0  0
 12 15  2  0  0  0  0
 13  9  1  6  0  0  0
 14 17  1  0  0  0  0
 15  6  1  0  0  0  0
 15 13  1  0  0  0  0
 17 20  1  0  0  0  0
 17 18  1  0  0  0  0
 18 16  2  0  0  0  0
 19 16  1  0  0  0  0
 20 19  2  0  0  0  0
 21 22  1  0  0  0  0
 24 23  1  0  0  0  0
 24 25  1  0  0  0  0
 26 27  1  0  0  0  0
 27 31  1  0  0  0  0
 28 32  1  0  0  0  0
 29 33  1  0  0  0  0
 30 25  1  6  0  0  0
 30 28  1  0  0  0  0
 30 26  1  0  0  0  0
 31 29  1  0  0  0  0
 32 31  2  0  0  0  0
 35 36  1  0  0  0  0
 36 34  2  0  0  0  0
 36 33  1  0  0  0  0
 38 39  1  0  0  0  0
 39 37  1  0  0  0  0
 39 35  1  0  0  0  0
M  END
>  <MODEL>
9

>  <REMARK>
 VINA RESULT:      -6.9      2.803      5.172
  Name = 
  9 active torsions:
  status: ('A' for Active; 'I' for Inactive)
    1  A    between atoms: C_2  and  C_15
    2  A    between atoms: C_2  and  O_35
    3  A    between atoms: C_9  and  C_20
    4  A    between atoms: N_11  and  C_34
    5  A    between atoms: C_15  and  C_17
    6  A    between atoms: C_19  and  N_32
    7  A    between atoms: N_29  and  S_38
    8  A    between atoms: C_30  and  O_35
    9  A    between atoms: S_38  and  C_39
                            x       y       z     vdW  Elec       q    Type
                         _______ _______ _______ _____ _____    ______ ____

>  <TORSDO>
F 9

$$$$
