=
 OpenBabel10232412213D

 51 56  0  0  1  0  0  0  0  0999 V2000
  187.8100  177.7910  141.5230 C   0  0  1  0  0  3  0  0  0  0  0  0
  184.3490  178.7870  141.8010 C   0  0  0  0  0  3  0  0  0  0  0  0
  184.5120  176.5170  137.7480 C   0  0  2  0  0  3  0  0  0  0  0  0
  188.6470  176.2680  137.2880 C   0  0  0  0  0  2  0  0  0  0  0  0
  188.6260  176.5800  139.7180 N   0  0  1  0  0  0  0  0  0  0  0  0
  183.5710  176.0380  138.7070 O   0  0  0  0  0  0  0  0  0  0  0  0
  187.5960  177.4660  140.1130 N   0  0  0  0  0  2  0  0  0  0  0  0
  183.9940  179.1940  140.4050 C   0  0  0  0  0  2  0  0  0  0  0  0
  186.5770  177.5270  142.3190 C   0  0  0  0  0  3  0  0  0  0  0  0
  189.1060  178.4920  138.1220 C   0  0  0  0  0  2  0  0  0  0  0  0
  186.4310  178.4680  136.6930 O   0  0  0  0  0  0  0  0  0  0  0  0
  185.4680  178.1600  142.0640 C   0  0  0  0  0  0  0  0  0  0  0  0
  185.6880  178.7480  137.8320 C   0  0  0  0  0  3  0  0  0  0  0  0
  187.5360  179.2760  136.3120 C   0  0  0  0  0  2  0  0  0  0  0  0
  183.3010  176.9530  139.6950 N   0  0  0  0  0  0  0  0  0  0  0  0
  188.9270  176.9130  142.0070 C   0  0  1  0  0  3  0  0  0  0  0  0
  183.9850  178.0200  139.4820 C   0  0  0  0  0  0  0  0  0  0  0  0
  188.8600  178.5800  136.6240 C   0  0  2  0  0  3  0  0  0  0  0  0
  184.7950  177.8770  138.2860 C   0  0  0  0  0  0  0  0  0  0  0  0
  189.2300  177.0110  138.4490 C   0  0  2  0  0  3  0  0  0  0  0  0
  188.8770  177.1650  136.0920 C   0  0  0  0  0  2  0  0  0  0  0  0
  189.6560  176.6230  140.7390 C   0  0  0  0  0  2  0  0  0  0  0  0
  182.7050  176.0340  136.2340 C   0  0  0  0  0  0  0  0  0  0  0  0
  180.4000  175.8560  136.9150 C   0  0  0  0  0  1  0  0  0  0  0  0
  183.8580  176.5960  136.4200 C   0  0  0  0  0  3  0  0  0  0  0  0
  181.5480  175.4470  136.0630 C   0  0  0  0  0  0  0  0  0  0  0  0
  180.4910  174.1820  134.3580 O   0  0  0  0  0  0  0  0  0  0  0  0
  181.4380  174.2690  135.1920 C   0  0  0  0  0  0  0  0  0  0  0  0
  182.3800  173.2320  135.2930 O   0  0  0  0  0  0  0  0  0  0  0  0
  182.5750  172.4980  136.4980 C   0  0  1  0  0  3  0  0  0  0  0  0
  181.2400  170.8050  135.2370 C   0  0  0  0  0  1  0  0  0  0  0  0
  180.2690  171.8400  137.2740 C   0  0  0  0  0  1  0  0  0  0  0  0
  181.5420  171.3800  136.6010 C   0  0  0  0  0  3  0  0  0  0  0  0
  184.7840  172.8320  137.5780 C   0  0  0  0  0  2  0  0  0  0  0  0
  184.9620  173.0530  136.0940 C   0  0  0  0  0  2  0  0  0  0  0  0
  184.0090  171.9880  136.5750 C   0  0  0  0  0  3  0  0  0  0  0  0
  190.4370  176.9910  144.0050 C   0  0  0  0  0  0  0  0  0  0  0  0
  189.7770  177.6440  142.9260 N   0  0  0  0  0  2  0  0  0  0  0  0
  190.3720  175.7330  144.1220 O   0  0  0  0  0  0  0  0  0  0  0  0
  191.1010  177.8030  145.0780 C   0  0  2  0  0  3  0  0  0  0  0  0
  190.5790  176.5570  147.1740 C   0  0  0  0  0  0  0  0  0  0  0  0
  190.3480  177.6920  146.3280 N   0  0  0  0  0  0  0  0  0  0  0  0
  189.6160  176.0300  147.8060 O   0  0  0  0  0  0  0  0  0  0  0  0
  192.2500  175.8890  147.3810 S   0  0  0  0  0  1  0  0  0  0  0  0
  189.1800  178.5350  146.5400 C   0  0  0  0  0  2  0  0  0  0  0  0
  187.9330  177.8710  145.9800 C   0  0  0  0  0  2  0  0  0  0  0  0
  185.5000  178.2920  146.1240 C   0  0  0  0  0  1  0  0  0  0  0  0
  186.7610  178.0680  146.9320 C   0  0  0  0  0  2  0  0  0  0  0  0
  192.6180  179.5740  144.5950 O   0  0  0  0  0  0  0  0  0  0  0  0
  191.2760  179.2630  144.6510 C   0  0  0  0  0  3  0  0  0  0  0  0
  191.9590  179.3110  143.4600 O   0  0  0  0  0  0  0  0  0  0  0  0
  1 16  1  0  0  0  0
  1  9  1  1  0  0  0
  2 12  2  0  0  0  0
  3 25  1  6  0  0  0
  3 19  1  0  0  0  0
  3  6  1  0  0  0  0
  5  7  1  0  0  0  0
  5 22  1  1  0  0  0
  6 15  1  0  0  0  0
  7  1  1  0  0  0  0
  8  2  1  0  0  0  0
 10 20  1  0  0  0  0
 11 13  1  0  0  0  0
 12  9  2  0  0  0  0
 13 19  2  0  0  0  0
 14 18  1  0  0  0  0
 14 11  1  0  0  0  0
 16 38  1  1  0  0  0
 17 15  2  0  0  0  0
 17  8  1  0  0  0  0
 18 21  1  1  0  0  0
 18 10  1  0  0  0  0
 19 17  1  0  0  0  0
 20  4  1  6  0  0  0
 20  5  1  0  0  0  0
 21  4  1  0  0  0  0
 22 16  1  0  0  0  0
 23 25  2  0  0  0  0
 26 23  2  0  0  0  0
 26 24  1  0  0  0  0
 27 28  2  0  0  0  0
 28 29  1  0  0  0  0
 28 26  1  0  0  0  0
 30 29  1  6  0  0  0
 30 36  1  0  0  0  0
 30 33  1  0  0  0  0
 31 33  1  0  0  0  0
 33 32  1  0  0  0  0
 35 36  1  0  0  0  0
 35 34  1  0  0  0  0
 36 34  1  0  0  0  0
 37 39  2  0  0  0  0
 38 37  1  0  0  0  0
 40 37  1  6  0  0  0
 40 42  1  0  0  0  0
 41 44  1  0  0  0  0
 41 43  2  0  0  0  0
 42 45  1  0  0  0  0
 42 41  1  0  0  0  0
 46 45  1  0  0  0  0
 46 48  1  0  0  0  0
 47 48  1  0  0  0  0
 49 50  1  0  0  0  0
 50 40  1  0  0  0  0
 51 49  1  0  0  0  0
 51 50  1  0  0  0  0
M  END
>  <MODEL>
1

>  <REMARK>
 VINA RESULT:      -5.3      0.000      0.000
  Name = 
  13 active torsions:
  status: ('A' for Active; 'I' for Inactive)
    1  A    between atoms: O_2  and  C_40
    2  A    between atoms: O_2  and  C_48
    3  A    between atoms: C_3  and  N_16
    4  A    between atoms: C_3  and  C_38
    5  A    between atoms: C_7  and  C_33
    6  A    between atoms: C_11  and  C_37
    7  A    between atoms: N_16  and  C_37
    8  A    between atoms: N_22  and  C_34
    9  A    between atoms: C_31  and  C_37
   10  A    between atoms: C_35  and  C_40
   11  A    between atoms: C_38  and  C_47
   12  A    between atoms: C_40  and  C_41
   13  A    between atoms: C_44  and  C_48
                            x       y       z     vdW  Elec       q    Type
                         _______ _______ _______ _____ _____    ______ ____

>  <TORSDO>
F 13

$$$$
=
 OpenBabel10232412213D

 51 56  0  0  1  0  0  0  0  0999 V2000
  186.4940  176.9820  138.2390 C   0  0  1  0  0  3  0  0  0  0  0  0
  189.9530  177.3550  139.2150 C   0  0  0  0  0  3  0  0  0  0  0  0
  190.2040  175.2530  135.0770 C   0  0  2  0  0  3  0  0  0  0  0  0
  186.1990  174.1910  134.6220 C   0  0  0  0  0  2  0  0  0  0  0  0
  185.8550  176.0060  136.2310 N   0  0  1  0  0  0  0  0  0  0  0  0
  190.9150  176.4810  135.2090 O   0  0  0  0  0  0  0  0  0  0  0  0
  186.8990  176.0520  137.1850 N   0  0  0  0  0  2  0  0  0  0  0  0
  190.5750  176.0650  138.7780 C   0  0  0  0  0  2  0  0  0  0  0  0
  187.5420  178.0190  138.4590 C   0  0  0  0  0  3  0  0  0  0  0  0
  185.8610  173.5700  136.9350 C   0  0  0  0  0  2  0  0  0  0  0  0
  188.7160  172.9500  136.1170 O   0  0  0  0  0  0  0  0  0  0  0  0
  188.7420  177.6880  138.8410 C   0  0  0  0  0  0  0  0  0  0  0  0
  189.2870  173.8730  136.9810 C   0  0  0  0  0  3  0  0  0  0  0  0
  187.7850  171.9800  136.5790 C   0  0  0  0  0  2  0  0  0  0  0  0
  191.1200  176.8440  136.5170 N   0  0  0  0  0  0  0  0  0  0  0  0
  185.2220  177.6320  137.7790 C   0  0  1  0  0  3  0  0  0  0  0  0
  190.6040  175.9530  137.2880 C   0  0  0  0  0  0  0  0  0  0  0  0
  186.3580  172.3500  136.1760 C   0  0  2  0  0  3  0  0  0  0  0  0
  189.9910  174.8950  136.5070 C   0  0  0  0  0  0  0  0  0  0  0  0
  185.5200  174.6170  135.8860 C   0  0  2  0  0  3  0  0  0  0  0  0
  186.2710  172.6820  134.7050 C   0  0  0  0  0  2  0  0  0  0  0  0
  184.6840  176.6120  136.8350 C   0  0  0  0  0  2  0  0  0  0  0  0
  192.2210  173.9480  134.9190 C   0  0  0  0  0  0  0  0  0  0  0  0
  193.4320  173.1200  136.8310 C   0  0  0  0  0  1  0  0  0  0  0  0
  191.0720  174.2560  134.4040 C   0  0  0  0  0  3  0  0  0  0  0  0
  193.3830  173.6630  135.4470 C   0  0  0  0  0  0  0  0  0  0  0  0
  194.7640  175.2460  134.3470 O   0  0  0  0  0  0  0  0  0  0  0  0
  194.6230  174.0620  134.7670 C   0  0  0  0  0  0  0  0  0  0  0  0
  195.6500  173.1230  134.5750 O   0  0  0  0  0  0  0  0  0  0  0  0
  196.7660  173.0260  135.4550 C   0  0  1  0  0  3  0  0  0  0  0  0
  198.0910  175.1230  135.7490 C   0  0  0  0  0  1  0  0  0  0  0  0
  197.0490  174.0590  137.7360 C   0  0  0  0  0  1  0  0  0  0  0  0
  196.9150  174.3180  136.2520 C   0  0  0  0  0  3  0  0  0  0  0  0
  197.7090  170.7900  135.9720 C   0  0  0  0  0  2  0  0  0  0  0  0
  196.2860  170.5900  135.5040 C   0  0  0  0  0  2  0  0  0  0  0  0
  196.6270  171.7950  136.3430 C   0  0  0  0  0  3  0  0  0  0  0  0
  184.2050  179.0690  139.5620 C   0  0  0  0  0  0  0  0  0  0  0  0
  184.3200  177.8140  138.8990 N   0  0  0  0  0  2  0  0  0  0  0  0
  184.8200  180.0820  139.1180 O   0  0  0  0  0  0  0  0  0  0  0  0
  183.4610  179.1640  140.8620 C   0  0  2  0  0  3  0  0  0  0  0  0
  183.9610  179.3940  143.2940 C   0  0  0  0  0  0  0  0  0  0  0  0
  184.3870  178.9990  141.9830 N   0  0  0  0  0  0  0  0  0  0  0  0
  184.7840  179.9260  144.0950 O   0  0  0  0  0  0  0  0  0  0  0  0
  182.2570  179.1010  143.8340 S   0  0  0  0  0  1  0  0  0  0  0  0
  185.7960  178.7480  141.7180 C   0  0  0  0  0  2  0  0  0  0  0  0
  186.3010  177.5890  142.5620 C   0  0  0  0  0  2  0  0  0  0  0  0
  187.8830  177.2030  144.4240 C   0  0  0  0  0  1  0  0  0  0  0  0
  187.6980  177.8940  143.0900 C   0  0  0  0  0  2  0  0  0  0  0  0
  181.1050  178.8240  140.9340 O   0  0  0  0  0  0  0  0  0  0  0  0
  182.3110  178.1560  140.9250 C   0  0  0  0  0  3  0  0  0  0  0  0
  181.5380  178.2720  139.7950 O   0  0  0  0  0  0  0  0  0  0  0  0
  1  9  1  6  0  0  0
  3 25  1  1  0  0  0
  3  6  1  0  0  0  0
  3 19  1  0  0  0  0
  4 21  1  0  0  0  0
  5 22  1  1  0  0  0
  5  7  1  0  0  0  0
  6 15  1  0  0  0  0
  7  1  1  0  0  0  0
  8  2  1  0  0  0  0
  9 12  2  0  0  0  0
 11 14  1  0  0  0  0
 11 13  1  0  0  0  0
 12  2  2  0  0  0  0
 15 17  2  0  0  0  0
 16  1  1  0  0  0  0
 16 38  1  1  0  0  0
 17  8  1  0  0  0  0
 18 21  1  6  0  0  0
 18 14  1  0  0  0  0
 18 10  1  0  0  0  0
 19 13  2  0  0  0  0
 19 17  1  0  0  0  0
 20  4  1  6  0  0  0
 20  5  1  0  0  0  0
 20 10  1  0  0  0  0
 22 16  1  0  0  0  0
 23 26  2  0  0  0  0
 25 23  2  0  0  0  0
 26 24  1  0  0  0  0
 27 28  2  0  0  0  0
 28 26  1  0  0  0  0
 29 28  1  0  0  0  0
 30 29  1  1  0  0  0
 30 33  1  0  0  0  0
 30 36  1  0  0  0  0
 31 33  1  0  0  0  0
 33 32  1  0  0  0  0
 34 36  1  0  0  0  0
 35 34  1  0  0  0  0
 35 36  1  0  0  0  0
 38 37  1  0  0  0  0
 39 37  2  0  0  0  0
 40 37  1  6  0  0  0
 40 50  1  0  0  0  0
 40 42  1  0  0  0  0
 41 44  1  0  0  0  0
 41 43  2  0  0  0  0
 42 41  1  0  0  0  0
 45 42  1  0  0  0  0
 45 46  1  0  0  0  0
 46 48  1  0  0  0  0
 48 47  1  0  0  0  0
 50 49  1  0  0  0  0
 51 50  1  0  0  0  0
 51 49  1  0  0  0  0
M  END
>  <MODEL>
2

>  <REMARK>
 VINA RESULT:      -5.1      5.158      9.225
  Name = 
  13 active torsions:
  status: ('A' for Active; 'I' for Inactive)
    1  A    between atoms: O_2  and  C_40
    2  A    between atoms: O_2  and  C_48
    3  A    between atoms: C_3  and  N_16
    4  A    between atoms: C_3  and  C_38
    5  A    between atoms: C_7  and  C_33
    6  A    between atoms: C_11  and  C_37
    7  A    between atoms: N_16  and  C_37
    8  A    between atoms: N_22  and  C_34
    9  A    between atoms: C_31  and  C_37
   10  A    between atoms: C_35  and  C_40
   11  A    between atoms: C_38  and  C_47
   12  A    between atoms: C_40  and  C_41
   13  A    between atoms: C_44  and  C_48
                            x       y       z     vdW  Elec       q    Type
                         _______ _______ _______ _____ _____    ______ ____

>  <TORSDO>
F 13

$$$$
=
 OpenBabel10232412213D

 51 56  0  0  1  0  0  0  0  0999 V2000
  186.9480  178.1370  140.5530 C   0  0  1  0  0  3  0  0  0  0  0  0
  189.0620  176.4270  138.1740 C   0  0  0  0  0  3  0  0  0  0  0  0
  185.3590  177.6700  135.6530 C   0  0  2  0  0  3  0  0  0  0  0  0
  182.7960  178.7970  138.7420 C   0  0  0  0  0  2  0  0  0  0  0  0
  184.8970  179.0580  139.9740 N   0  0  1  0  0  0  0  0  0  0  0  0
  186.6280  178.1170  135.1800 O   0  0  0  0  0  0  0  0  0  0  0  0
  185.8360  178.0660  139.6050 N   0  0  0  0  0  2  0  0  0  0  0  0
  188.0900  175.6360  137.3560 C   0  0  0  0  0  2  0  0  0  0  0  0
  188.2470  178.2720  139.8340 C   0  0  0  0  0  3  0  0  0  0  0  0
  183.4330  177.0030  140.2350 C   0  0  0  0  0  2  0  0  0  0  0  0
  183.6090  176.0510  137.3600 O   0  0  0  0  0  0  0  0  0  0  0  0
  188.6560  177.3490  139.0110 C   0  0  0  0  0  0  0  0  0  0  0  0
  184.9860  175.8700  137.3820 C   0  0  0  0  0  3  0  0  0  0  0  0
  182.7700  175.4680  138.3490 C   0  0  0  0  0  2  0  0  0  0  0  0
  187.6780  177.4180  135.7230 N   0  0  0  0  0  0  0  0  0  0  0  0
  186.7120  179.3450  141.4110 C   0  0  1  0  0  3  0  0  0  0  0  0
  187.2210  176.5270  136.5300 C   0  0  0  0  0  0  0  0  0  0  0  0
  182.2940  176.5150  139.3540 C   0  0  2  0  0  3  0  0  0  0  0  0
  185.7720  176.5810  136.5820 C   0  0  0  0  0  0  0  0  0  0  0  0
  183.5360  178.5040  140.0090 C   0  0  2  0  0  3  0  0  0  0  0  0
  181.7270  177.7290  138.6560 C   0  0  0  0  0  2  0  0  0  0  0  0
  185.2330  179.5020  141.3140 C   0  0  0  0  0  2  0  0  0  0  0  0
  183.2830  177.2150  134.5250 C   0  0  0  0  0  0  0  0  0  0  0  0
  181.3410  178.6360  134.6720 C   0  0  0  0  0  1  0  0  0  0  0  0
  184.5760  177.1320  134.5150 C   0  0  0  0  0  3  0  0  0  0  0  0
  181.9770  177.2960  134.5620 C   0  0  0  0  0  0  0  0  0  0  0  0
  179.9820  176.1530  135.1420 O   0  0  0  0  0  0  0  0  0  0  0  0
  181.1640  176.0800  134.6980 C   0  0  0  0  0  0  0  0  0  0  0  0
  181.7050  174.8320  134.3460 O   0  0  0  0  0  0  0  0  0  0  0  0
  181.8950  173.7910  135.2990 C   0  0  1  0  0  3  0  0  0  0  0  0
  180.4290  172.8190  137.0710 C   0  0  0  0  0  1  0  0  0  0  0  0
  180.3920  171.8320  134.7940 C   0  0  0  0  0  1  0  0  0  0  0  0
  180.5660  173.1030  135.5940 C   0  0  0  0  0  3  0  0  0  0  0  0
  184.0590  172.7140  135.8660 C   0  0  0  0  0  2  0  0  0  0  0  0
  184.2740  173.5510  134.6250 C   0  0  0  0  0  2  0  0  0  0  0  0
  182.9670  172.8220  134.8100 C   0  0  0  0  0  3  0  0  0  0  0  0
  186.2650  178.3360  143.6600 C   0  0  0  0  0  0  0  0  0  0  0  0
  187.1060  179.0730  142.7790 N   0  0  0  0  0  2  0  0  0  0  0  0
  185.1940  177.8160  143.2310 O   0  0  0  0  0  0  0  0  0  0  0  0
  186.5790  178.2860  145.1270 C   0  0  2  0  0  3  0  0  0  0  0  0
  188.5410  177.6170  146.5130 C   0  0  0  0  0  0  0  0  0  0  0  0
  187.7080  177.3870  145.3680 N   0  0  0  0  0  0  0  0  0  0  0  0
  189.7880  177.4160  146.4410 O   0  0  0  0  0  0  0  0  0  0  0  0
  187.8160  178.1550  148.0830 S   0  0  0  0  0  1  0  0  0  0  0  0
  188.1560  176.4980  144.3060 C   0  0  0  0  0  2  0  0  0  0  0  0
  189.4150  177.0390  143.6500 C   0  0  0  0  0  2  0  0  0  0  0  0
  191.5350  175.7680  143.7360 C   0  0  0  0  0  1  0  0  0  0  0  0
  190.2080  175.9020  143.0190 C   0  0  0  0  0  2  0  0  0  0  0  0
  185.1230  178.8260  146.9330 O   0  0  0  0  0  0  0  0  0  0  0  0
  185.3520  177.8860  145.9510 C   0  0  0  0  0  3  0  0  0  0  0  0
  184.3800  178.8480  145.8200 O   0  0  0  0  0  0  0  0  0  0  0  0
  1  9  1  6  0  0  0
  1 16  1  0  0  0  0
  2 12  2  0  0  0  0
  3 25  1  6  0  0  0
  3 19  1  0  0  0  0
  5 20  1  0  0  0  0
  5 22  1  1  0  0  0
  6  3  1  0  0  0  0
  6 15  1  0  0  0  0
  7  5  1  0  0  0  0
  7  1  1  0  0  0  0
  8  2  1  0  0  0  0
 11 13  1  0  0  0  0
 11 14  1  0  0  0  0
 12  9  2  0  0  0  0
 15 17  2  0  0  0  0
 16 38  1  1  0  0  0
 17 19  1  0  0  0  0
 17  8  1  0  0  0  0
 18 14  1  6  0  0  0
 18 10  1  0  0  0  0
 19 13  2  0  0  0  0
 20  4  1  6  0  0  0
 20 10  1  0  0  0  0
 21  4  1  0  0  0  0
 21 18  1  0  0  0  0
 22 16  1  0  0  0  0
 23 26  2  0  0  0  0
 25 23  2  0  0  0  0
 26 24  1  0  0  0  0
 26 28  1  0  0  0  0
 28 27  2  0  0  0  0
 29 28  1  0  0  0  0
 30 29  1  6  0  0  0
 30 33  1  0  0  0  0
 32 33  1  0  0  0  0
 33 31  1  0  0  0  0
 35 36  1  0  0  0  0
 35 34  1  0  0  0  0
 36 30  1  0  0  0  0
 36 34  1  0  0  0  0
 38 37  1  0  0  0  0
 39 37  2  0  0  0  0
 40 37  1  6  0  0  0
 40 42  1  0  0  0  0
 40 50  1  0  0  0  0
 41 44  1  0  0  0  0
 42 41  1  0  0  0  0
 43 41  2  0  0  0  0
 45 42  1  0  0  0  0
 46 45  1  0  0  0  0
 48 46  1  0  0  0  0
 48 47  1  0  0  0  0
 50 49  1  0  0  0  0
 51 50  1  0  0  0  0
 51 49  1  0  0  0  0
M  END
>  <MODEL>
3

>  <REMARK>
 VINA RESULT:      -4.8      2.340      4.487
  Name = 
  13 active torsions:
  status: ('A' for Active; 'I' for Inactive)
    1  A    between atoms: O_2  and  C_40
    2  A    between atoms: O_2  and  C_48
    3  A    between atoms: C_3  and  N_16
    4  A    between atoms: C_3  and  C_38
    5  A    between atoms: C_7  and  C_33
    6  A    between atoms: C_11  and  C_37
    7  A    between atoms: N_16  and  C_37
    8  A    between atoms: N_22  and  C_34
    9  A    between atoms: C_31  and  C_37
   10  A    between atoms: C_35  and  C_40
   11  A    between atoms: C_38  and  C_47
   12  A    between atoms: C_40  and  C_41
   13  A    between atoms: C_44  and  C_48
                            x       y       z     vdW  Elec       q    Type
                         _______ _______ _______ _____ _____    ______ ____

>  <TORSDO>
F 13

$$$$
=
 OpenBabel10232412213D

 51 56  0  0  1  0  0  0  0  0999 V2000
  186.0510  176.8270  137.6590 C   0  0  1  0  0  3  0  0  0  0  0  0
  189.1390  177.7200  139.3070 C   0  0  0  0  0  3  0  0  0  0  0  0
  190.5440  175.3900  135.5380 C   0  0  2  0  0  3  0  0  0  0  0  0
  186.8890  173.7800  134.3460 C   0  0  0  0  0  2  0  0  0  0  0  0
  185.9910  175.6390  135.6640 N   0  0  1  0  0  0  0  0  0  0  0  0
  191.0630  176.7090  135.6990 O   0  0  0  0  0  0  0  0  0  0  0  0
  186.7840  175.8880  136.8090 N   0  0  0  0  0  2  0  0  0  0  0  0
  189.9860  176.4970  139.1380 C   0  0  0  0  0  2  0  0  0  0  0  0
  186.8980  178.0060  137.9960 C   0  0  0  0  0  3  0  0  0  0  0  0
  186.1170  173.2800  136.5840 C   0  0  0  0  0  2  0  0  0  0  0  0
  189.1340  172.9870  136.4540 O   0  0  0  0  0  0  0  0  0  0  0  0
  188.0130  177.8640  138.6550 C   0  0  0  0  0  0  0  0  0  0  0  0
  189.3900  174.0360  137.3270 C   0  0  0  0  0  3  0  0  0  0  0  0
  188.2410  171.9370  136.7990 C   0  0  0  0  0  2  0  0  0  0  0  0
  190.9280  177.1840  136.9810 N   0  0  0  0  0  0  0  0  0  0  0  0
  184.8480  177.2690  136.8790 C   0  0  1  0  0  3  0  0  0  0  0  0
  190.3590  176.2880  137.7060 C   0  0  0  0  0  0  0  0  0  0  0  0
  186.9070  172.0870  136.0680 C   0  0  2  0  0  3  0  0  0  0  0  0
  190.0600  175.1070  136.9180 C   0  0  0  0  0  0  0  0  0  0  0  0
  185.9020  174.1980  135.3910 C   0  0  2  0  0  3  0  0  0  0  0  0
  187.1120  172.3030  134.5870 C   0  0  0  0  0  2  0  0  0  0  0  0
  184.6530  176.1240  135.9450 C   0  0  0  0  0  2  0  0  0  0  0  0
  192.7770  174.5310  135.7970 C   0  0  0  0  0  0  0  0  0  0  0  0
  193.9280  174.4100  137.9110 C   0  0  0  0  0  1  0  0  0  0  0  0
  191.6480  174.4740  135.1630 C   0  0  0  0  0  3  0  0  0  0  0  0
  193.9150  174.6160  136.4380 C   0  0  0  0  0  0  0  0  0  0  0  0
  195.3000  176.3480  135.5990 O   0  0  0  0  0  0  0  0  0  0  0  0
  195.1180  175.1060  135.7510 C   0  0  0  0  0  0  0  0  0  0  0  0
  196.0610  174.1920  135.2510 O   0  0  0  0  0  0  0  0  0  0  0  0
  196.3360  172.9550  135.9000 C   0  0  1  0  0  3  0  0  0  0  0  0
  194.6430  171.1470  135.5790 C   0  0  0  0  0  1  0  0  0  0  0  0
  196.9810  170.7620  134.8400 C   0  0  0  0  0  1  0  0  0  0  0  0
  195.8900  171.7920  135.0200 C   0  0  0  0  0  3  0  0  0  0  0  0
  198.0200  173.5830  137.6120 C   0  0  0  0  0  2  0  0  0  0  0  0
  198.4050  174.2640  136.3190 C   0  0  0  0  0  2  0  0  0  0  0  0
  197.8110  172.8780  136.2780 C   0  0  0  0  0  3  0  0  0  0  0  0
  182.4460  177.8670  137.2740 C   0  0  0  0  0  0  0  0  0  0  0  0
  183.7040  177.4070  137.7590 N   0  0  0  0  0  2  0  0  0  0  0  0
  182.2770  178.0690  136.0370 O   0  0  0  0  0  0  0  0  0  0  0  0
  181.3610  178.2370  138.2420 C   0  0  2  0  0  3  0  0  0  0  0  0
  181.9520  180.6520  138.4380 C   0  0  0  0  0  0  0  0  0  0  0  0
  181.7870  179.3720  139.0630 N   0  0  0  0  0  0  0  0  0  0  0  0
  182.8870  181.4210  138.8050 O   0  0  0  0  0  0  0  0  0  0  0  0
  180.8030  181.2000  137.1490 S   0  0  0  0  0  1  0  0  0  0  0  0
  182.3330  179.1320  140.3900 C   0  0  0  0  0  2  0  0  0  0  0  0
  183.8510  179.1860  140.3620 C   0  0  0  0  0  2  0  0  0  0  0  0
  185.9030  178.7480  141.6730 C   0  0  0  0  0  1  0  0  0  0  0  0
  184.4260  178.4350  141.5560 C   0  0  0  0  0  2  0  0  0  0  0  0
  179.9980  176.2930  138.4340 O   0  0  0  0  0  0  0  0  0  0  0  0
  180.9430  177.0420  139.1030 C   0  0  0  0  0  3  0  0  0  0  0  0
  181.2700  175.8750  138.4540 O   0  0  0  0  0  0  0  0  0  0  0  0
  1  9  1  6  0  0  0
  3 25  1  1  0  0  0
  3  6  1  0  0  0  0
  3 19  1  0  0  0  0
  4 21  1  0  0  0  0
  5 22  1  1  0  0  0
  5  7  1  0  0  0  0
  6 15  1  0  0  0  0
  7  1  1  0  0  0  0
  8  2  1  0  0  0  0
  9 12  2  0  0  0  0
 11 14  1  0  0  0  0
 11 13  1  0  0  0  0
 12  2  2  0  0  0  0
 15 17  2  0  0  0  0
 16  1  1  0  0  0  0
 16 38  1  1  0  0  0
 17  8  1  0  0  0  0
 18 21  1  6  0  0  0
 18 10  1  0  0  0  0
 18 14  1  0  0  0  0
 19 13  2  0  0  0  0
 19 17  1  0  0  0  0
 20  4  1  6  0  0  0
 20  5  1  0  0  0  0
 20 10  1  0  0  0  0
 22 16  1  0  0  0  0
 23 26  2  0  0  0  0
 25 23  2  0  0  0  0
 26 24  1  0  0  0  0
 27 28  2  0  0  0  0
 28 26  1  0  0  0  0
 29 28  1  0  0  0  0
 29 30  1  0  0  0  0
 30 33  1  6  0  0  0
 30 36  1  0  0  0  0
 32 33  1  0  0  0  0
 33 31  1  0  0  0  0
 35 34  1  0  0  0  0
 36 35  1  0  0  0  0
 36 34  1  0  0  0  0
 37 38  1  0  0  0  0
 39 37  2  0  0  0  0
 40 37  1  6  0  0  0
 40 42  1  0  0  0  0
 40 50  1  0  0  0  0
 41 43  2  0  0  0  0
 41 42  1  0  0  0  0
 42 45  1  0  0  0  0
 44 41  1  0  0  0  0
 46 45  1  0  0  0  0
 46 48  1  0  0  0  0
 48 47  1  0  0  0  0
 49 51  1  0  0  0  0
 49 50  1  0  0  0  0
 51 50  1  0  0  0  0
M  END
>  <MODEL>
4

>  <REMARK>
 VINA RESULT:      -4.5      5.386     10.090
  Name = 
  13 active torsions:
  status: ('A' for Active; 'I' for Inactive)
    1  A    between atoms: O_2  and  C_40
    2  A    between atoms: O_2  and  C_48
    3  A    between atoms: C_3  and  N_16
    4  A    between atoms: C_3  and  C_38
    5  A    between atoms: C_7  and  C_33
    6  A    between atoms: C_11  and  C_37
    7  A    between atoms: N_16  and  C_37
    8  A    between atoms: N_22  and  C_34
    9  A    between atoms: C_31  and  C_37
   10  A    between atoms: C_35  and  C_40
   11  A    between atoms: C_38  and  C_47
   12  A    between atoms: C_40  and  C_41
   13  A    between atoms: C_44  and  C_48
                            x       y       z     vdW  Elec       q    Type
                         _______ _______ _______ _____ _____    ______ ____

>  <TORSDO>
F 13

$$$$
=
 OpenBabel10232412213D

 51 56  0  0  1  0  0  0  0  0999 V2000
  189.7760  173.5110  135.5760 C   0  0  1  0  0  3  0  0  0  0  0  0
  186.6340  171.8870  136.3060 C   0  0  0  0  0  3  0  0  0  0  0  0
  185.4370  176.3250  135.6170 C   0  0  2  0  0  3  0  0  0  0  0  0
  189.2280  178.0560  135.6700 C   0  0  0  0  0  2  0  0  0  0  0  0
  189.9370  175.7800  135.1040 N   0  0  1  0  0  0  0  0  0  0  0  0
  184.7790  175.3570  134.8030 O   0  0  0  0  0  0  0  0  0  0  0  0
  189.1380  174.8150  135.7620 N   0  0  0  0  0  2  0  0  0  0  0  0
  185.9230  172.8830  137.1680 C   0  0  0  0  0  2  0  0  0  0  0  0
  188.8100  172.5260  135.0110 C   0  0  0  0  0  3  0  0  0  0  0  0
  190.0830  176.6830  137.4690 C   0  0  0  0  0  2  0  0  0  0  0  0
  187.1150  177.1640  137.8710 O   0  0  0  0  0  0  0  0  0  0  0  0
  187.7280  172.2030  135.6600 C   0  0  0  0  0  0  0  0  0  0  0  0
  186.7590  175.8320  137.7090 C   0  0  0  0  0  3  0  0  0  0  0  0
  188.1230  177.5540  138.7940 C   0  0  0  0  0  2  0  0  0  0  0  0
  184.8800  174.0810  135.3020 N   0  0  0  0  0  0  0  0  0  0  0  0
  190.9120  173.7180  134.6170 C   0  0  1  0  0  3  0  0  0  0  0  0
  185.5540  174.1070  136.3960 C   0  0  0  0  0  0  0  0  0  0  0  0
  189.4210  177.9120  138.0720 C   0  0  2  0  0  3  0  0  0  0  0  0
  185.9700  175.4620  136.7080 C   0  0  0  0  0  0  0  0  0  0  0  0
  190.1790  176.9400  135.9730 C   0  0  2  0  0  3  0  0  0  0  0  0
  189.1720  178.8790  136.9380 C   0  0  0  0  0  2  0  0  0  0  0  0
  191.2180  175.1630  134.8140 C   0  0  0  0  0  2  0  0  0  0  0  0
  183.4700  176.8620  136.8970 C   0  0  0  0  0  0  0  0  0  0  0  0
  182.8270  175.7060  138.9110 C   0  0  0  0  0  1  0  0  0  0  0  0
  184.4340  177.2850  136.1400 C   0  0  0  0  0  3  0  0  0  0  0  0
  182.4960  176.4140  137.6450 C   0  0  0  0  0  0  0  0  0  0  0  0
  180.8000  175.7450  136.1290 O   0  0  0  0  0  0  0  0  0  0  0  0
  181.1130  176.4250  137.1470 C   0  0  0  0  0  0  0  0  0  0  0  0
  180.1410  177.2040  137.7970 O   0  0  0  0  0  0  0  0  0  0  0  0
  180.1050  178.6230  137.6860 C   0  0  1  0  0  3  0  0  0  0  0  0
  182.0510  179.7070  138.8160 C   0  0  0  0  0  1  0  0  0  0  0  0
  180.4780  178.3360  140.1610 C   0  0  0  0  0  1  0  0  0  0  0  0
  180.6160  179.2610  138.9740 C   0  0  0  0  0  3  0  0  0  0  0  0
  180.2700  180.3570  135.9180 C   0  0  0  0  0  2  0  0  0  0  0  0
  179.9910  179.0360  135.2390 C   0  0  0  0  0  2  0  0  0  0  0  0
  180.8840  179.0710  136.4540 C   0  0  0  0  0  3  0  0  0  0  0  0
  192.7440  173.1300  136.2220 C   0  0  0  0  0  0  0  0  0  0  0  0
  192.0470  172.9020  135.0020 N   0  0  0  0  0  2  0  0  0  0  0  0
  192.3210  173.9920  137.0450 O   0  0  0  0  0  0  0  0  0  0  0  0
  194.0550  172.4430  136.4740 C   0  0  2  0  0  3  0  0  0  0  0  0
  195.6370  174.2820  137.0540 C   0  0  0  0  0  0  0  0  0  0  0  0
  195.1630  173.3230  136.0990 N   0  0  0  0  0  0  0  0  0  0  0  0
  196.0170  175.4260  136.6690 O   0  0  0  0  0  0  0  0  0  0  0  0
  195.7370  173.8560  138.8120 S   0  0  0  0  0  1  0  0  0  0  0  0
  195.5460  173.4360  134.6990 C   0  0  0  0  0  2  0  0  0  0  0  0
  197.0540  173.3320  134.5470 C   0  0  0  0  0  2  0  0  0  0  0  0
  199.0060  171.8130  134.5840 C   0  0  0  0  0  1  0  0  0  0  0  0
  197.5000  171.8850  134.7190 C   0  0  0  0  0  2  0  0  0  0  0  0
  194.9700  170.2440  136.4400 O   0  0  0  0  0  0  0  0  0  0  0  0
  194.1320  171.0960  135.7510 C   0  0  0  0  0  3  0  0  0  0  0  0
  193.6450  170.1080  136.5730 O   0  0  0  0  0  0  0  0  0  0  0  0
  1  9  1  6  0  0  0
  1  7  1  0  0  0  0
  2  8  1  0  0  0  0
  3 25  1  1  0  0  0
  3 19  1  0  0  0  0
  4 21  1  0  0  0  0
  5 22  1  1  0  0  0
  5  7  1  0  0  0  0
  5 20  1  0  0  0  0
  6 15  1  0  0  0  0
  6  3  1  0  0  0  0
  9 12  2  0  0  0  0
 10 18  1  0  0  0  0
 11 14  1  0  0  0  0
 12  2  2  0  0  0  0
 13 11  1  0  0  0  0
 15 17  2  0  0  0  0
 16 22  1  0  0  0  0
 16 38  1  1  0  0  0
 16  1  1  0  0  0  0
 17 19  1  0  0  0  0
 17  8  1  0  0  0  0
 18 21  1  6  0  0  0
 18 14  1  0  0  0  0
 19 13  2  0  0  0  0
 20  4  1  6  0  0  0
 20 10  1  0  0  0  0
 23 26  2  0  0  0  0
 25 23  2  0  0  0  0
 26 24  1  0  0  0  0
 27 28  2  0  0  0  0
 28 26  1  0  0  0  0
 28 29  1  0  0  0  0
 30 29  1  1  0  0  0
 30 33  1  0  0  0  0
 31 33  1  0  0  0  0
 33 32  1  0  0  0  0
 34 36  1  0  0  0  0
 35 34  1  0  0  0  0
 35 36  1  0  0  0  0
 36 30  1  0  0  0  0
 37 39  2  0  0  0  0
 38 37  1  0  0  0  0
 40 37  1  6  0  0  0
 41 44  1  0  0  0  0
 42 40  1  0  0  0  0
 42 41  1  0  0  0  0
 43 41  2  0  0  0  0
 45 42  1  0  0  0  0
 46 45  1  0  0  0  0
 46 48  1  0  0  0  0
 47 48  1  0  0  0  0
 49 51  1  0  0  0  0
 50 49  1  0  0  0  0
 50 40  1  0  0  0  0
 50 51  1  0  0  0  0
M  END
>  <MODEL>
5

>  <REMARK>
 VINA RESULT:      -4.2      5.245      8.398
  Name = 
  13 active torsions:
  status: ('A' for Active; 'I' for Inactive)
    1  A    between atoms: O_2  and  C_40
    2  A    between atoms: O_2  and  C_48
    3  A    between atoms: C_3  and  N_16
    4  A    between atoms: C_3  and  C_38
    5  A    between atoms: C_7  and  C_33
    6  A    between atoms: C_11  and  C_37
    7  A    between atoms: N_16  and  C_37
    8  A    between atoms: N_22  and  C_34
    9  A    between atoms: C_31  and  C_37
   10  A    between atoms: C_35  and  C_40
   11  A    between atoms: C_38  and  C_47
   12  A    between atoms: C_40  and  C_41
   13  A    between atoms: C_44  and  C_48
                            x       y       z     vdW  Elec       q    Type
                         _______ _______ _______ _____ _____    ______ ____

>  <TORSDO>
F 13

$$$$
=
 OpenBabel10232412213D

 51 56  0  0  1  0  0  0  0  0999 V2000
  193.4680  174.2380  137.0240 C   0  0  1  0  0  3  0  0  0  0  0  0
  193.9350  176.8110  139.5160 C   0  0  0  0  0  3  0  0  0  0  0  0
  189.3160  176.3550  139.2660 C   0  0  2  0  0  3  0  0  0  0  0  0
  189.0590  174.0420  135.8080 C   0  0  0  0  0  2  0  0  0  0  0  0
  191.3700  173.4730  136.3880 N   0  0  1  0  0  0  0  0  0  0  0  0
  189.9010  176.1840  140.5550 O   0  0  0  0  0  0  0  0  0  0  0  0
  192.0490  174.5830  136.9440 N   0  0  0  0  0  2  0  0  0  0  0  0
  192.8430  177.7880  139.2110 C   0  0  0  0  0  2  0  0  0  0  0  0
  193.9850  174.4470  138.4070 C   0  0  0  0  0  3  0  0  0  0  0  0
  190.8170  175.2060  134.6210 C   0  0  0  0  0  2  0  0  0  0  0  0
  189.3560  177.1440  136.4410 O   0  0  0  0  0  0  0  0  0  0  0  0
  193.9650  175.6270  138.9580 C   0  0  0  0  0  0  0  0  0  0  0  0
  190.4510  177.3820  137.2600 C   0  0  0  0  0  3  0  0  0  0  0  0
  189.4430  177.2800  135.0290 C   0  0  0  0  0  2  0  0  0  0  0  0
  191.1720  176.6980  140.6370 N   0  0  0  0  0  0  0  0  0  0  0  0
  193.5850  172.7890  136.6500 C   0  0  1  0  0  3  0  0  0  0  0  0
  191.4970  177.2080  139.5030 C   0  0  0  0  0  0  0  0  0  0  0  0
  189.5000  175.9140  134.3470 C   0  0  2  0  0  3  0  0  0  0  0  0
  190.4160  177.0560  138.5470 C   0  0  0  0  0  0  0  0  0  0  0  0
  190.4640  173.8970  135.3120 C   0  0  2  0  0  3  0  0  0  0  0  0
  188.4000  175.0040  134.8440 C   0  0  0  0  0  2  0  0  0  0  0  0
  192.3690  172.5940  135.8100 C   0  0  0  0  0  2  0  0  0  0  0  0
  187.9110  177.8890  140.4770 C   0  0  0  0  0  0  0  0  0  0  0  0
  188.7450  179.4970  142.0670 C   0  0  0  0  0  1  0  0  0  0  0  0
  188.1200  177.2240  139.3850 C   0  0  0  0  0  3  0  0  0  0  0  0
  187.7100  178.5390  141.5950 C   0  0  0  0  0  0  0  0  0  0  0  0
  185.4210  178.5980  142.2100 O   0  0  0  0  0  0  0  0  0  0  0  0
  186.5850  178.1790  142.4690 C   0  0  0  0  0  0  0  0  0  0  0  0
  186.8060  177.3750  143.6010 O   0  0  0  0  0  0  0  0  0  0  0  0
  187.2510  177.9170  144.8400 C   0  0  1  0  0  3  0  0  0  0  0  0
  184.9600  178.7530  145.3800 C   0  0  0  0  0  1  0  0  0  0  0  0
  186.5670  178.3450  147.2280 C   0  0  0  0  0  1  0  0  0  0  0  0
  186.1130  177.9000  145.8560 C   0  0  0  0  0  3  0  0  0  0  0  0
  189.7260  177.9950  145.0060 C   0  0  0  0  0  2  0  0  0  0  0  0
  189.3610  176.8020  144.1520 C   0  0  0  0  0  2  0  0  0  0  0  0
  188.4880  177.1690  145.3250 C   0  0  0  0  0  3  0  0  0  0  0  0
  195.9650  172.0320  136.4540 C   0  0  0  0  0  0  0  0  0  0  0  0
  194.7850  172.5690  135.8670 N   0  0  0  0  0  2  0  0  0  0  0  0
  195.9570  171.6420  137.6570 O   0  0  0  0  0  0  0  0  0  0  0  0
  197.2570  172.0500  135.6890 C   0  0  2  0  0  3  0  0  0  0  0  0
  198.7930  173.9080  136.3250 C   0  0  0  0  0  0  0  0  0  0  0  0
  197.7150  173.4280  135.5100 N   0  0  0  0  0  0  0  0  0  0  0  0
  198.7910  175.1030  136.7410 O   0  0  0  0  0  0  0  0  0  0  0  0
  200.1880  172.8260  136.7320 S   0  0  0  0  0  1  0  0  0  0  0  0
  196.8900  174.3680  134.7650 C   0  0  0  0  0  2  0  0  0  0  0  0
  196.9450  175.7480  135.3980 C   0  0  0  0  0  2  0  0  0  0  0  0
  194.9220  177.1680  135.4730 C   0  0  0  0  0  1  0  0  0  0  0  0
  196.0810  176.7230  134.6070 C   0  0  0  0  0  2  0  0  0  0  0  0
  197.9370  170.2040  134.3460 O   0  0  0  0  0  0  0  0  0  0  0  0
  197.1260  171.3200  134.3500 C   0  0  0  0  0  3  0  0  0  0  0  0
  196.6250  170.0580  134.5640 O   0  0  0  0  0  0  0  0  0  0  0  0
  1  9  1  1  0  0  0
  3 25  1  1  0  0  0
  3  6  1  0  0  0  0
  5 22  1  6  0  0  0
  5  7  1  0  0  0  0
  6 15  1  0  0  0  0
  7  1  1  0  0  0  0
  8 17  1  0  0  0  0
  8  2  1  0  0  0  0
  9 12  2  0  0  0  0
 11 13  1  0  0  0  0
 12  2  2  0  0  0  0
 13 19  2  0  0  0  0
 14 11  1  0  0  0  0
 16 38  1  6  0  0  0
 16  1  1  0  0  0  0
 17 15  2  0  0  0  0
 18 10  1  1  0  0  0
 18 21  1  0  0  0  0
 18 14  1  0  0  0  0
 19  3  1  0  0  0  0
 19 17  1  0  0  0  0
 20 10  1  1  0  0  0
 20  4  1  0  0  0  0
 20  5  1  0  0  0  0
 21  4  1  0  0  0  0
 22 16  1  0  0  0  0
 23 26  2  0  0  0  0
 25 23  2  0  0  0  0
 26 24  1  0  0  0  0
 26 28  1  0  0  0  0
 27 28  2  0  0  0  0
 28 29  1  0  0  0  0
 30 29  1  6  0  0  0
 30 36  1  0  0  0  0
 30 33  1  0  0  0  0
 31 33  1  0  0  0  0
 33 32  1  0  0  0  0
 34 36  1  0  0  0  0
 35 34  1  0  0  0  0
 35 36  1  0  0  0  0
 37 39  2  0  0  0  0
 38 37  1  0  0  0  0
 40 37  1  6  0  0  0
 41 44  1  0  0  0  0
 41 43  2  0  0  0  0
 42 40  1  0  0  0  0
 42 41  1  0  0  0  0
 45 46  1  0  0  0  0
 45 42  1  0  0  0  0
 48 46  1  0  0  0  0
 48 47  1  0  0  0  0
 49 50  1  0  0  0  0
 49 51  1  0  0  0  0
 50 51  1  0  0  0  0
 50 40  1  0  0  0  0
M  END
>  <MODEL>
6

>  <REMARK>
 VINA RESULT:      -4.1      6.087     10.068
  Name = 
  13 active torsions:
  status: ('A' for Active; 'I' for Inactive)
    1  A    between atoms: O_2  and  C_40
    2  A    between atoms: O_2  and  C_48
    3  A    between atoms: C_3  and  N_16
    4  A    between atoms: C_3  and  C_38
    5  A    between atoms: C_7  and  C_33
    6  A    between atoms: C_11  and  C_37
    7  A    between atoms: N_16  and  C_37
    8  A    between atoms: N_22  and  C_34
    9  A    between atoms: C_31  and  C_37
   10  A    between atoms: C_35  and  C_40
   11  A    between atoms: C_38  and  C_47
   12  A    between atoms: C_40  and  C_41
   13  A    between atoms: C_44  and  C_48
                            x       y       z     vdW  Elec       q    Type
                         _______ _______ _______ _____ _____    ______ ____

>  <TORSDO>
F 13

$$$$
=
 OpenBabel10232412213D

 51 56  0  0  1  0  0  0  0  0999 V2000
  187.8640  177.7880  138.0920 C   0  0  1  0  0  3  0  0  0  0  0  0
  189.6490  177.4710  141.2170 C   0  0  0  0  0  3  0  0  0  0  0  0
  192.9000  176.6090  138.0080 C   0  0  2  0  0  3  0  0  0  0  0  0
  190.4450  176.1860  134.6660 C   0  0  0  0  0  2  0  0  0  0  0  0
  188.8880  177.4990  136.0270 N   0  0  1  0  0  0  0  0  0  0  0  0
  193.1800  177.6610  138.9290 O   0  0  0  0  0  0  0  0  0  0  0  0
  188.9840  177.1530  137.3960 N   0  0  0  0  0  2  0  0  0  0  0  0
  190.5450  176.2960  140.9840 C   0  0  0  0  0  2  0  0  0  0  0  0
  188.3500  178.5940  139.2480 C   0  0  0  0  0  3  0  0  0  0  0  0
  188.6930  174.9790  135.8190 C   0  0  0  0  0  2  0  0  0  0  0  0
  191.3830  174.2920  137.0430 O   0  0  0  0  0  0  0  0  0  0  0  0
  188.9920  178.0330  140.2320 C   0  0  0  0  0  0  0  0  0  0  0  0
  191.0980  174.8630  138.2760 C   0  0  0  0  0  3  0  0  0  0  0  0
  190.5080  173.3450  136.4450 C   0  0  0  0  0  2  0  0  0  0  0  0
  192.3920  177.6130  140.0530 N   0  0  0  0  0  0  0  0  0  0  0  0
  187.1860  178.6830  137.0960 C   0  0  1  0  0  3  0  0  0  0  0  0
  191.5970  176.6060  139.9690 C   0  0  0  0  0  0  0  0  0  0  0  0
  189.7110  173.9750  135.3030 C   0  0  2  0  0  3  0  0  0  0  0  0
  191.8100  175.8890  138.7250 C   0  0  0  0  0  0  0  0  0  0  0  0
  189.0430  176.3120  135.1750 C   0  0  2  0  0  3  0  0  0  0  0  0
  190.6150  174.7170  134.3460 C   0  0  0  0  0  2  0  0  0  0  0  0
  187.5600  178.0390  135.8050 C   0  0  0  0  0  2  0  0  0  0  0  0
  194.3460  175.1660  136.7370 C   0  0  0  0  0  0  0  0  0  0  0  0
  194.7260  175.4010  134.3680 C   0  0  0  0  0  1  0  0  0  0  0  0
  194.1010  175.7510  137.8670 C   0  0  0  0  0  3  0  0  0  0  0  0
  194.5680  174.5710  135.5930 C   0  0  0  0  0  0  0  0  0  0  0  0
  194.1420  172.5770  134.3820 O   0  0  0  0  0  0  0  0  0  0  0  0
  194.4580  173.1100  135.4840 C   0  0  0  0  0  0  0  0  0  0  0  0
  194.6920  172.3040  136.6110 O   0  0  0  0  0  0  0  0  0  0  0  0
  195.8630  171.5040  136.7410 C   0  0  1  0  0  3  0  0  0  0  0  0
  195.9350  169.0210  137.0070 C   0  0  0  0  0  1  0  0  0  0  0  0
  196.5000  170.0210  134.8060 C   0  0  0  0  0  1  0  0  0  0  0  0
  195.6550  170.1590  136.0530 C   0  0  0  0  0  3  0  0  0  0  0  0
  198.2700  171.9790  137.1140 C   0  0  0  0  0  2  0  0  0  0  0  0
  197.5220  173.2890  137.2180 C   0  0  0  0  0  2  0  0  0  0  0  0
  197.0760  172.2590  136.2110 C   0  0  0  0  0  3  0  0  0  0  0  0
  185.0210  177.4240  137.1870 C   0  0  0  0  0  0  0  0  0  0  0  0
  185.7490  178.6430  137.2860 N   0  0  0  0  0  2  0  0  0  0  0  0
  185.6340  176.3280  137.0300 O   0  0  0  0  0  0  0  0  0  0  0  0
  183.5210  177.4500  137.1380 C   0  0  2  0  0  3  0  0  0  0  0  0
  183.0610  177.8400  139.5570 C   0  0  0  0  0  0  0  0  0  0  0  0
  182.9690  176.9840  138.4110 N   0  0  0  0  0  0  0  0  0  0  0  0
  183.2720  177.3470  140.7030 O   0  0  0  0  0  0  0  0  0  0  0  0
  182.8340  179.6300  139.3880 S   0  0  0  0  0  1  0  0  0  0  0  0
  182.6360  175.5770  138.5760 C   0  0  0  0  0  2  0  0  0  0  0  0
  181.1590  175.4100  138.8910 C   0  0  0  0  0  2  0  0  0  0  0  0
  181.6000  173.5500  137.3220 C   0  0  0  0  0  1  0  0  0  0  0  0
  180.5210  174.4310  137.9140 C   0  0  0  0  0  2  0  0  0  0  0  0
  182.0610  177.3850  135.2570 O   0  0  0  0  0  0  0  0  0  0  0  0
  182.9840  176.6370  135.9570 C   0  0  0  0  0  3  0  0  0  0  0  0
  183.3060  177.2710  134.7810 O   0  0  0  0  0  0  0  0  0  0  0  0
  1  9  1  1  0  0  0
  3 25  1  1  0  0  0
  3 19  1  0  0  0  0
  3  6  1  0  0  0  0
  5 22  1  1  0  0  0
  5  7  1  0  0  0  0
  6 15  1  0  0  0  0
  7  1  1  0  0  0  0
  8  2  1  0  0  0  0
  9 12  2  0  0  0  0
 11 13  1  0  0  0  0
 12  2  2  0  0  0  0
 13 19  2  0  0  0  0
 14 11  1  0  0  0  0
 16 38  1  1  0  0  0
 16  1  1  0  0  0  0
 17 15  2  0  0  0  0
 17  8  1  0  0  0  0
 18 21  1  6  0  0  0
 18 10  1  0  0  0  0
 18 14  1  0  0  0  0
 19 17  1  0  0  0  0
 20  4  1  1  0  0  0
 20 10  1  0  0  0  0
 20  5  1  0  0  0  0
 21  4  1  0  0  0  0
 22 16  1  0  0  0  0
 23 25  2  0  0  0  0
 24 26  1  0  0  0  0
 26 23  2  0  0  0  0
 27 28  2  0  0  0  0
 28 26  1  0  0  0  0
 28 29  1  0  0  0  0
 29 30  1  0  0  0  0
 30 33  1  6  0  0  0
 32 33  1  0  0  0  0
 33 31  1  0  0  0  0
 34 35  1  0  0  0  0
 36 30  1  0  0  0  0
 36 34  1  0  0  0  0
 36 35  1  0  0  0  0
 37 38  1  0  0  0  0
 39 37  2  0  0  0  0
 40 37  1  1  0  0  0
 40 42  1  0  0  0  0
 41 43  2  0  0  0  0
 42 45  1  0  0  0  0
 42 41  1  0  0  0  0
 44 41  1  0  0  0  0
 45 46  1  0  0  0  0
 47 48  1  0  0  0  0
 48 46  1  0  0  0  0
 49 50  1  0  0  0  0
 50 40  1  0  0  0  0
 51 49  1  0  0  0  0
 51 50  1  0  0  0  0
M  END
>  <MODEL>
7

>  <REMARK>
 VINA RESULT:      -4.0      5.354      9.990
  Name = 
  13 active torsions:
  status: ('A' for Active; 'I' for Inactive)
    1  A    between atoms: O_2  and  C_40
    2  A    between atoms: O_2  and  C_48
    3  A    between atoms: C_3  and  N_16
    4  A    between atoms: C_3  and  C_38
    5  A    between atoms: C_7  and  C_33
    6  A    between atoms: C_11  and  C_37
    7  A    between atoms: N_16  and  C_37
    8  A    between atoms: N_22  and  C_34
    9  A    between atoms: C_31  and  C_37
   10  A    between atoms: C_35  and  C_40
   11  A    between atoms: C_38  and  C_47
   12  A    between atoms: C_40  and  C_41
   13  A    between atoms: C_44  and  C_48
                            x       y       z     vdW  Elec       q    Type
                         _______ _______ _______ _____ _____    ______ ____

>  <TORSDO>
F 13

$$$$
=
 OpenBabel10232412213D

 51 56  0  0  1  0  0  0  0  0999 V2000
  186.0040  177.1280  137.6360 C   0  0  1  0  0  3  0  0  0  0  0  0
  189.2080  177.8280  139.1510 C   0  0  0  0  0  3  0  0  0  0  0  0
  190.2900  175.2240  135.4560 C   0  0  2  0  0  3  0  0  0  0  0  0
  186.4770  173.8780  134.4460 C   0  0  0  0  0  2  0  0  0  0  0  0
  185.7800  175.8630  135.7010 N   0  0  1  0  0  0  0  0  0  0  0  0
  190.9220  176.4990  135.5400 O   0  0  0  0  0  0  0  0  0  0  0  0
  186.6280  176.0940  136.8100 N   0  0  0  0  0  2  0  0  0  0  0  0
  189.9440  176.5320  139.0140 C   0  0  0  0  0  2  0  0  0  0  0  0
  186.9570  178.2450  137.8930 C   0  0  0  0  0  3  0  0  0  0  0  0
  185.7400  173.5440  136.7260 C   0  0  0  0  0  2  0  0  0  0  0  0
  188.7160  172.9920  136.5230 O   0  0  0  0  0  0  0  0  0  0  0  0
  188.0770  178.0380  138.5250 C   0  0  0  0  0  0  0  0  0  0  0  0
  189.0860  174.0520  137.3380 C   0  0  0  0  0  3  0  0  0  0  0  0
  187.7500  172.0370  136.9420 C   0  0  0  0  0  2  0  0  0  0  0  0
  190.8700  177.0400  136.8010 N   0  0  0  0  0  0  0  0  0  0  0  0
  184.8170  177.6360  136.8710 C   0  0  1  0  0  3  0  0  0  0  0  0
  190.2510  176.2290  137.5840 C   0  0  0  0  0  0  0  0  0  0  0  0
  186.4100  172.2670  136.2440 C   0  0  2  0  0  3  0  0  0  0  0  0
  189.8290  175.0440  136.8600 C   0  0  0  0  0  0  0  0  0  0  0  0
  185.5620  174.4240  135.4980 C   0  0  2  0  0  3  0  0  0  0  0  0
  186.5840  172.3990  134.7490 C   0  0  0  0  0  2  0  0  0  0  0  0
  184.4970  176.4720  135.9980 C   0  0  0  0  0  2  0  0  0  0  0  0
  192.4680  174.2190  135.6560 C   0  0  0  0  0  0  0  0  0  0  0  0
  193.7340  174.1660  137.7060 C   0  0  0  0  0  1  0  0  0  0  0  0
  191.3010  174.2020  135.0920 C   0  0  0  0  0  3  0  0  0  0  0  0
  193.6460  174.2640  136.2250 C   0  0  0  0  0  0  0  0  0  0  0  0
  195.0090  175.7970  135.0340 O   0  0  0  0  0  0  0  0  0  0  0  0
  194.8360  174.6100  135.4360 C   0  0  0  0  0  0  0  0  0  0  0  0
  195.7790  173.6180  135.1180 O   0  0  0  0  0  0  0  0  0  0  0  0
  196.6350  173.0430  136.0990 C   0  0  1  0  0  3  0  0  0  0  0  0
  196.2130  171.2020  137.7340 C   0  0  0  0  0  1  0  0  0  0  0  0
  197.3240  170.6760  135.5770 C   0  0  0  0  0  1  0  0  0  0  0  0
  196.3130  171.5620  136.2700 C   0  0  0  0  0  3  0  0  0  0  0  0
  198.5740  174.5540  136.4390 C   0  0  0  0  0  2  0  0  0  0  0  0
  198.2190  174.5870  134.9700 C   0  0  0  0  0  2  0  0  0  0  0  0
  198.0940  173.2930  135.7340 C   0  0  0  0  0  3  0  0  0  0  0  0
  183.0940  176.8680  138.5200 C   0  0  0  0  0  0  0  0  0  0  0  0
  183.7180  177.9090  137.7770 N   0  0  0  0  0  2  0  0  0  0  0  0
  183.5560  175.6910  138.4790 O   0  0  0  0  0  0  0  0  0  0  0  0
  181.8090  177.1360  139.2500 C   0  0  2  0  0  3  0  0  0  0  0  0
  180.3610  176.1230  137.4900 C   0  0  0  0  0  0  0  0  0  0  0  0
  180.7070  177.2590  138.2960 N   0  0  0  0  0  0  0  0  0  0  0  0
  179.9920  176.2850  136.2900 O   0  0  0  0  0  0  0  0  0  0  0  0
  180.4090  174.4530  138.1890 S   0  0  0  0  0  1  0  0  0  0  0  0
  180.2000  178.5790  137.9510 C   0  0  0  0  0  2  0  0  0  0  0  0
  180.9360  179.1360  136.7440 C   0  0  0  0  0  2  0  0  0  0  0  0
  180.4650  181.0960  138.1790 C   0  0  0  0  0  1  0  0  0  0  0  0
  181.1050  180.6440  136.8830 C   0  0  0  0  0  2  0  0  0  0  0  0
  181.4980  178.0580  141.4230 O   0  0  0  0  0  0  0  0  0  0  0  0
  181.9200  178.3700  140.1480 C   0  0  0  0  0  3  0  0  0  0  0  0
  182.8100  178.1170  141.1650 O   0  0  0  0  0  0  0  0  0  0  0  0
  1  9  1  6  0  0  0
  3 25  1  1  0  0  0
  3  6  1  0  0  0  0
  3 19  1  0  0  0  0
  4 21  1  0  0  0  0
  5 22  1  1  0  0  0
  5  7  1  0  0  0  0
  6 15  1  0  0  0  0
  7  1  1  0  0  0  0
  8  2  1  0  0  0  0
  9 12  2  0  0  0  0
 11 14  1  0  0  0  0
 11 13  1  0  0  0  0
 12  2  2  0  0  0  0
 15 17  2  0  0  0  0
 16  1  1  0  0  0  0
 16 38  1  1  0  0  0
 17  8  1  0  0  0  0
 18 21  1  6  0  0  0
 18 10  1  0  0  0  0
 18 14  1  0  0  0  0
 19 13  2  0  0  0  0
 19 17  1  0  0  0  0
 20  4  1  6  0  0  0
 20  5  1  0  0  0  0
 20 10  1  0  0  0  0
 22 16  1  0  0  0  0
 23 26  2  0  0  0  0
 25 23  2  0  0  0  0
 26 24  1  0  0  0  0
 27 28  2  0  0  0  0
 28 26  1  0  0  0  0
 29 28  1  0  0  0  0
 30 29  1  6  0  0  0
 30 33  1  0  0  0  0
 32 33  1  0  0  0  0
 33 31  1  0  0  0  0
 35 36  1  0  0  0  0
 35 34  1  0  0  0  0
 36 30  1  0  0  0  0
 36 34  1  0  0  0  0
 38 37  1  0  0  0  0
 39 37  2  0  0  0  0
 40 37  1  6  0  0  0
 40 50  1  0  0  0  0
 41 44  1  0  0  0  0
 41 42  1  0  0  0  0
 42 40  1  0  0  0  0
 43 41  2  0  0  0  0
 45 42  1  0  0  0  0
 46 48  1  0  0  0  0
 46 45  1  0  0  0  0
 48 47  1  0  0  0  0
 50 51  1  0  0  0  0
 50 49  1  0  0  0  0
 51 49  1  0  0  0  0
M  END
>  <MODEL>
8

>  <REMARK>
 VINA RESULT:      -4.0      5.410     10.287
  Name = 
  13 active torsions:
  status: ('A' for Active; 'I' for Inactive)
    1  A    between atoms: O_2  and  C_40
    2  A    between atoms: O_2  and  C_48
    3  A    between atoms: C_3  and  N_16
    4  A    between atoms: C_3  and  C_38
    5  A    between atoms: C_7  and  C_33
    6  A    between atoms: C_11  and  C_37
    7  A    between atoms: N_16  and  C_37
    8  A    between atoms: N_22  and  C_34
    9  A    between atoms: C_31  and  C_37
   10  A    between atoms: C_35  and  C_40
   11  A    between atoms: C_38  and  C_47
   12  A    between atoms: C_40  and  C_41
   13  A    between atoms: C_44  and  C_48
                            x       y       z     vdW  Elec       q    Type
                         _______ _______ _______ _____ _____    ______ ____

>  <TORSDO>
F 13

$$$$
=
 OpenBabel10232412213D

 51 56  0  0  1  0  0  0  0  0999 V2000
  192.1270  176.1100  138.5200 C   0  0  1  0  0  3  0  0  0  0  0  0
  189.1240  175.5150  136.6020 C   0  0  0  0  0  3  0  0  0  0  0  0
  187.8190  178.7100  139.7160 C   0  0  2  0  0  3  0  0  0  0  0  0
  191.1180  178.5530  142.2580 C   0  0  0  0  0  2  0  0  0  0  0  0
  192.2170  177.6330  140.2710 N   0  0  1  0  0  0  0  0  0  0  0  0
  187.6150  179.0400  138.3440 O   0  0  0  0  0  0  0  0  0  0  0  0
  191.3350  176.8110  139.5310 N   0  0  0  0  0  2  0  0  0  0  0  0
  188.0450  175.5260  137.6400 C   0  0  0  0  0  2  0  0  0  0  0  0
  191.5480  176.3120  137.1610 C   0  0  0  0  0  3  0  0  0  0  0  0
  191.3780  176.1500  142.1500 C   0  0  0  0  0  2  0  0  0  0  0  0
  188.4410  176.8720  141.9150 O   0  0  0  0  0  0  0  0  0  0  0  0
  190.3410  175.9090  136.8810 C   0  0  0  0  0  0  0  0  0  0  0  0
  188.3100  176.4040  140.6150 C   0  0  0  0  0  3  0  0  0  0  0  0
  188.9870  176.0580  142.9440 C   0  0  0  0  0  2  0  0  0  0  0  0
  187.6540  177.9440  137.5180 N   0  0  0  0  0  0  0  0  0  0  0  0
  193.5110  176.6890  138.5750 C   0  0  1  0  0  3  0  0  0  0  0  0
  187.8660  176.8900  138.2230 C   0  0  0  0  0  0  0  0  0  0  0  0
  190.4160  176.4810  143.2800 C   0  0  2  0  0  3  0  0  0  0  0  0
  187.9930  177.2330  139.6270 C   0  0  0  0  0  0  0  0  0  0  0  0
  191.9970  177.4700  141.7150 C   0  0  2  0  0  3  0  0  0  0  0  0
  190.5090  177.9710  143.5150 C   0  0  0  0  0  2  0  0  0  0  0  0
  193.5700  177.2020  139.9740 C   0  0  0  0  0  2  0  0  0  0  0  0
  185.4300  178.8260  139.9810 C   0  0  0  0  0  0  0  0  0  0  0  0
  183.9000  177.2110  139.0540 C   0  0  0  0  0  1  0  0  0  0  0  0
  186.6010  179.0560  140.4870 C   0  0  0  0  0  3  0  0  0  0  0  0
  184.2570  178.6000  139.4470 C   0  0  0  0  0  0  0  0  0  0  0  0
  183.8850  180.8780  138.9020 O   0  0  0  0  0  0  0  0  0  0  0  0
  183.3940  179.7220  139.0530 C   0  0  0  0  0  0  0  0  0  0  0  0
  182.0190  179.5130  138.8550 O   0  0  0  0  0  0  0  0  0  0  0  0
  181.3760  179.8110  137.6200 C   0  0  1  0  0  3  0  0  0  0  0  0
  180.4720  177.5120  137.9880 C   0  0  0  0  0  1  0  0  0  0  0  0
  181.9610  177.9310  136.0460 C   0  0  0  0  0  1  0  0  0  0  0  0
  180.9050  178.5230  136.9520 C   0  0  0  0  0  3  0  0  0  0  0  0
  180.5160  182.0600  137.0190 C   0  0  0  0  0  2  0  0  0  0  0  0
  180.7810  182.0530  138.5080 C   0  0  0  0  0  2  0  0  0  0  0  0
  180.2460  180.8090  137.8440 C   0  0  0  0  0  3  0  0  0  0  0  0
  195.2250  175.5400  137.1550 C   0  0  0  0  0  0  0  0  0  0  0  0
  194.4980  175.6470  138.3740 N   0  0  0  0  0  2  0  0  0  0  0  0
  195.0930  176.4200  136.2560 O   0  0  0  0  0  0  0  0  0  0  0  0
  196.0490  174.3160  136.8800 C   0  0  2  0  0  3  0  0  0  0  0  0
  194.1040  172.9850  136.0670 C   0  0  0  0  0  0  0  0  0  0  0  0
  195.2130  173.1180  136.9660 N   0  0  0  0  0  0  0  0  0  0  0  0
  193.0250  172.4540  136.4630 O   0  0  0  0  0  0  0  0  0  0  0  0
  194.2450  173.5340  134.3460 S   0  0  0  0  0  1  0  0  0  0  0  0
  195.3120  172.2570  138.1350 C   0  0  0  0  0  2  0  0  0  0  0  0
  195.4550  170.8030  137.7180 C   0  0  0  0  0  2  0  0  0  0  0  0
  197.5830  169.5420  137.6780 C   0  0  0  0  0  1  0  0  0  0  0  0
  196.7660  170.5990  136.9670 C   0  0  0  0  0  2  0  0  0  0  0  0
  198.3910  174.6550  137.1550 O   0  0  0  0  0  0  0  0  0  0  0  0
  197.2580  174.2300  137.8160 C   0  0  0  0  0  3  0  0  0  0  0  0
  197.7790  175.4870  138.0060 O   0  0  0  0  0  0  0  0  0  0  0  0
  1  9  1  6  0  0  0
  1 16  1  0  0  0  0
  1  7  1  0  0  0  0
  2 12  2  0  0  0  0
  2  8  1  0  0  0  0
  3 25  1  1  0  0  0
  4 21  1  0  0  0  0
  5 22  1  1  0  0  0
  5 20  1  0  0  0  0
  6  3  1  0  0  0  0
  7  5  1  0  0  0  0
  8 17  1  0  0  0  0
 11 14  1  0  0  0  0
 12  9  2  0  0  0  0
 13 11  1  0  0  0  0
 14 18  1  0  0  0  0
 15 17  2  0  0  0  0
 15  6  1  0  0  0  0
 16 38  1  1  0  0  0
 16 22  1  0  0  0  0
 17 19  1  0  0  0  0
 18 10  1  6  0  0  0
 18 21  1  0  0  0  0
 19  3  1  0  0  0  0
 19 13  2  0  0  0  0
 20 10  1  6  0  0  0
 20  4  1  0  0  0  0
 23 25  2  0  0  0  0
 24 26  1  0  0  0  0
 26 23  2  0  0  0  0
 27 28  2  0  0  0  0
 28 26  1  0  0  0  0
 29 28  1  0  0  0  0
 30 33  1  1  0  0  0
 30 36  1  0  0  0  0
 30 29  1  0  0  0  0
 32 33  1  0  0  0  0
 33 31  1  0  0  0  0
 34 36  1  0  0  0  0
 34 35  1  0  0  0  0
 36 35  1  0  0  0  0
 37 38  1  0  0  0  0
 39 37  2  0  0  0  0
 40 42  1  0  0  0  0
 40 37  1  1  0  0  0
 40 50  1  0  0  0  0
 41 43  2  0  0  0  0
 41 42  1  0  0  0  0
 42 45  1  0  0  0  0
 44 41  1  0  0  0  0
 46 45  1  0  0  0  0
 48 47  1  0  0  0  0
 48 46  1  0  0  0  0
 49 50  1  0  0  0  0
 49 51  1  0  0  0  0
 50 51  1  0  0  0  0
M  END
>  <MODEL>
9

>  <REMARK>
 VINA RESULT:      -3.9      5.334      8.397
  Name = 
  13 active torsions:
  status: ('A' for Active; 'I' for Inactive)
    1  A    between atoms: O_2  and  C_40
    2  A    between atoms: O_2  and  C_48
    3  A    between atoms: C_3  and  N_16
    4  A    between atoms: C_3  and  C_38
    5  A    between atoms: C_7  and  C_33
    6  A    between atoms: C_11  and  C_37
    7  A    between atoms: N_16  and  C_37
    8  A    between atoms: N_22  and  C_34
    9  A    between atoms: C_31  and  C_37
   10  A    between atoms: C_35  and  C_40
   11  A    between atoms: C_38  and  C_47
   12  A    between atoms: C_40  and  C_41
   13  A    between atoms: C_44  and  C_48
                            x       y       z     vdW  Elec       q    Type
                         _______ _______ _______ _____ _____    ______ ____

>  <TORSDO>
F 13

$$$$
