=
 OpenBabel10232410203D

 29 33  0  0  1  0  0  0  0  0999 V2000
  189.1480  177.0740  147.5990 C   0  0  0  0  0  3  0  0  0  0  0  0
  184.7310  178.5710  142.9380 C   0  0  2  0  0  3  0  0  0  0  0  0
  181.7410  179.3690  140.7860 C   0  0  0  0  0  1  0  0  0  0  0  0
  182.8620  178.7200  144.3990 C   0  0  0  0  0  3  0  0  0  0  0  0
  184.8620  178.7950  140.7640 C   0  0  0  0  0  0  0  0  0  0  0  0
  190.1460  177.1650  145.3680 C   0  0  0  0  0  3  0  0  0  0  0  0
  186.1140  178.4930  141.2150 N   0  0  0  0  0  0  0  0  0  0  0  0
  185.1890  178.1630  145.3680 C   0  0  0  0  0  3  0  0  0  0  0  0
  187.8850  177.3960  147.0710 C   0  0  0  0  0  3  0  0  0  0  0  0
  188.4460  177.7490  143.5110 C   0  0  0  0  0  0  0  0  0  0  0  0
  189.1690  177.7440  142.4800 O   0  0  0  0  0  0  0  0  0  0  0  0
  186.6200  177.9360  144.8800 C   0  0  0  0  0  0  0  0  0  0  0  0
  183.9760  178.8410  141.8400 C   0  0  0  0  0  0  0  0  0  0  0  0
  188.8860  177.4830  144.8700 C   0  0  0  0  0  0  0  0  0  0  0  0
  187.7850  177.5950  145.6950 C   0  0  0  0  0  0  0  0  0  0  0  0
  190.2720  176.9600  146.7530 C   0  0  0  0  0  0  0  0  0  0  0  0
  186.0160  178.3630  142.5590 C   0  0  0  0  0  0  0  0  0  0  0  0
  180.6850  179.2320  143.4700 O   0  0  0  0  0  1  0  0  0  0  0  0
  187.0090  178.0260  143.5930 C   0  0  0  0  0  0  0  0  0  0  0  0
  182.0430  179.0100  143.2760 C   0  0  0  0  0  0  0  0  0  0  0  0
  184.2380  178.4940  144.2300 C   0  0  0  0  0  0  0  0  0  0  0  0
  182.5990  179.0710  141.9700 C   0  0  0  0  0  0  0  0  0  0  0  0
  191.5980  176.6190  147.3310 C   0  0  0  0  0  1  0  0  0  0  0  0
  187.3010  178.3240  140.3940 C   0  0  0  0  0  1  0  0  0  0  0  0
  184.5060  178.9620  139.3210 C   0  0  0  0  0  2  0  0  0  0  0  0
  183.6290  176.6410  138.3330 C   0  0  0  0  0  0  0  0  0  0  0  0
  184.0260  177.6900  138.7770 C   0  0  0  0  0  0  0  0  0  0  0  0
  183.9890  174.3700  137.6820 C   0  0  0  0  0  2  0  0  0  0  0  0
  183.1580  175.3930  137.8070 C   0  0  0  0  0  3  0  0  0  0  0  0
  2 13  1  6  0  0  0
  2 21  1  0  0  0  0
  3 22  1  0  0  0  0
  5  7  1  0  0  0  0
  5 13  2  0  0  0  0
  6 16  1  0  0  0  0
  7 17  1  0  0  0  0
  9  1  1  0  0  0  0
 10 19  1  0  0  0  0
 10 14  1  0  0  0  0
 11 10  2  0  0  0  0
 12  8  2  0  0  0  0
 12 15  1  0  0  0  0
 13 22  1  0  0  0  0
 14  6  2  0  0  0  0
 14 15  1  0  0  0  0
 15  9  2  0  0  0  0
 16 23  1  0  0  0  0
 16  1  2  0  0  0  0
 17  2  1  0  0  0  0
 17 19  2  0  0  0  0
 19 12  1  0  0  0  0
 20 18  1  0  0  0  0
 20  4  1  0  0  0  0
 21  4  2  0  0  0  0
 21  8  1  0  0  0  0
 22 20  2  0  0  0  0
 24  7  1  0  0  0  0
 25  5  1  0  0  0  0
 26 27  3  0  0  0  0
 27 25  1  0  0  0  0
 28 29  2  0  0  0  0
 29 26  1  0  0  0  0
M  END
>  <MODEL>
1

>  <REMARK>
 VINA RESULT:     -10.3      0.000      0.000
  Name = 
  3 active torsions:
  status: ('A' for Active; 'I' for Inactive)
    1  A    between atoms: C_5  and  C_8
    2  A    between atoms: C_8  and  C_20
    3  A    between atoms: C_12  and  C_28
                            x       y       z     vdW  Elec       q    Type
                         _______ _______ _______ _____ _____    ______ ____

>  <TORSDO>
F 3

$$$$
=
 OpenBabel10232410203D

 29 33  0  0  1  0  0  0  0  0999 V2000
  190.0720  176.6110  147.5050 C   0  0  0  0  0  3  0  0  0  0  0  0
  187.0840  178.0990  141.8190 C   0  0  2  0  0  3  0  0  0  0  0  0
  184.7960  178.9580  138.9500 C   0  0  0  0  0  1  0  0  0  0  0  0
  184.9320  178.4740  142.7550 C   0  0  0  0  0  3  0  0  0  0  0  0
  187.7670  178.1700  139.7400 C   0  0  0  0  0  0  0  0  0  0  0  0
  191.5950  176.4850  145.5950 C   0  0  0  0  0  3  0  0  0  0  0  0
  188.8380  177.8120  140.5040 N   0  0  0  0  0  0  0  0  0  0  0  0
  186.8930  177.8220  144.3030 C   0  0  0  0  0  3  0  0  0  0  0  0
  189.0110  176.9840  146.6620 C   0  0  0  0  0  3  0  0  0  0  0  0
  190.4610  177.0610  143.3450 C   0  0  0  0  0  0  0  0  0  0  0  0
  191.4130  176.9380  142.5310 O   0  0  0  0  0  0  0  0  0  0  0  0
  188.3760  177.4640  144.2010 C   0  0  0  0  0  0  0  0  0  0  0  0
  186.6490  178.3480  140.5550 C   0  0  0  0  0  0  0  0  0  0  0  0
  190.5270  176.8550  144.7820 C   0  0  0  0  0  0  0  0  0  0  0  0
  189.2700  177.0980  145.2970 C   0  0  0  0  0  0  0  0  0  0  0  0
  191.3570  176.3630  146.9750 C   0  0  0  0  0  0  0  0  0  0  0  0
  188.4010  177.7780  141.7860 C   0  0  0  0  0  0  0  0  0  0  0  0
  183.1020  179.0730  141.2860 O   0  0  0  0  0  1  0  0  0  0  0  0
  189.0760  177.4420  143.0500 C   0  0  0  0  0  0  0  0  0  0  0  0
  184.4430  178.7450  141.4500 C   0  0  0  0  0  0  0  0  0  0  0  0
  186.2830  178.1420  142.9470 C   0  0  0  0  0  0  0  0  0  0  0  0
  185.3080  178.6800  140.3240 C   0  0  0  0  0  0  0  0  0  0  0  0
  192.4660  175.9700  147.8830 C   0  0  0  0  0  1  0  0  0  0  0  0
  190.1730  177.5070  140.0170 C   0  0  0  0  0  1  0  0  0  0  0  0
  187.7930  178.2650  138.2470 C   0  0  0  0  0  2  0  0  0  0  0  0
  187.2580  175.8780  137.1770 C   0  0  0  0  0  0  0  0  0  0  0  0
  187.5020  176.9560  137.6600 C   0  0  0  0  0  0  0  0  0  0  0  0
  186.2410  173.7180  137.2780 C   0  0  0  0  0  2  0  0  0  0  0  0
  186.9650  174.5960  136.6030 C   0  0  0  0  0  3  0  0  0  0  0  0
  2 13  1  6  0  0  0
  2 21  1  0  0  0  0
  3 22  1  0  0  0  0
  4 21  2  0  0  0  0
  5  7  1  0  0  0  0
  5 13  2  0  0  0  0
  6 16  2  0  0  0  0
  7 17  1  0  0  0  0
  9  1  2  0  0  0  0
 10 14  1  0  0  0  0
 11 10  2  0  0  0  0
 12  8  2  0  0  0  0
 12 15  1  0  0  0  0
 14 15  2  0  0  0  0
 14  6  1  0  0  0  0
 15  9  1  0  0  0  0
 16  1  1  0  0  0  0
 16 23  1  0  0  0  0
 17  2  1  0  0  0  0
 17 19  2  0  0  0  0
 18 20  1  0  0  0  0
 19 10  1  0  0  0  0
 19 12  1  0  0  0  0
 20  4  1  0  0  0  0
 21  8  1  0  0  0  0
 22 13  1  0  0  0  0
 22 20  2  0  0  0  0
 24  7  1  0  0  0  0
 25  5  1  0  0  0  0
 26 27  3  0  0  0  0
 27 25  1  0  0  0  0
 29 26  1  0  0  0  0
 29 28  2  0  0  0  0
M  END
>  <MODEL>
2

>  <REMARK>
 VINA RESULT:     -10.1      1.833      2.669
  Name = 
  3 active torsions:
  status: ('A' for Active; 'I' for Inactive)
    1  A    between atoms: C_5  and  C_8
    2  A    between atoms: C_8  and  C_20
    3  A    between atoms: C_12  and  C_28
                            x       y       z     vdW  Elec       q    Type
                         _______ _______ _______ _____ _____    ______ ____

>  <TORSDO>
F 3

$$$$
=
 OpenBabel10232410203D

 29 33  0  0  1  0  0  0  0  0999 V2000
  181.4940  178.8810  143.8650 C   0  0  0  0  0  3  0  0  0  0  0  0
  187.9890  177.7650  144.0800 C   0  0  2  0  0  3  0  0  0  0  0  0
  191.6120  177.1200  144.8920 C   0  0  0  0  0  1  0  0  0  0  0  0
  188.1080  177.4170  146.4280 C   0  0  0  0  0  3  0  0  0  0  0  0
  189.5630  177.7720  142.5580 C   0  0  0  0  0  0  0  0  0  0  0  0
  182.5380  179.0480  141.6600 C   0  0  0  0  0  3  0  0  0  0  0  0
  188.3890  178.0570  141.9260 N   0  0  0  0  0  0  0  0  0  0  0  0
  185.8260  177.9290  145.3360 C   0  0  0  0  0  3  0  0  0  0  0  0
  182.7350  178.5840  144.4550 C   0  0  0  0  0  3  0  0  0  0  0  0
  185.0870  178.6180  141.7010 C   0  0  0  0  0  0  0  0  0  0  0  0
  185.3960  178.7480  140.4880 O   0  0  0  0  0  0  0  0  0  0  0  0
  185.2500  178.2430  143.9540 C   0  0  0  0  0  0  0  0  0  0  0  0
  189.3280  177.5920  143.9210 C   0  0  0  0  0  0  0  0  0  0  0  0
  183.7560  178.7520  142.2680 C   0  0  0  0  0  0  0  0  0  0  0  0
  183.8540  178.5260  143.6260 C   0  0  0  0  0  0  0  0  0  0  0  0
  181.3960  179.1120  142.4760 C   0  0  0  0  0  0  0  0  0  0  0  0
  187.4260  178.0440  142.8790 C   0  0  0  0  0  0  0  0  0  0  0  0
  190.2590  176.9500  147.4370 O   0  0  0  0  0  1  0  0  0  0  0  0
  185.9770  178.2970  142.8210 C   0  0  0  0  0  0  0  0  0  0  0  0
  189.5090  177.2250  146.3000 C   0  0  0  0  0  0  0  0  0  0  0  0
  187.3270  177.6950  145.2940 C   0  0  0  0  0  0  0  0  0  0  0  0
  190.1390  177.3150  145.0300 C   0  0  0  0  0  0  0  0  0  0  0  0
  180.0740  179.4230  141.8720 C   0  0  0  0  0  1  0  0  0  0  0  0
  188.2270  178.3410  140.5100 C   0  0  0  0  0  1  0  0  0  0  0  0
  190.8970  177.7470  141.8830 C   0  0  0  0  0  2  0  0  0  0  0  0
  190.7280  176.4120  139.5780 C   0  0  0  0  0  0  0  0  0  0  0  0
  190.8020  177.0150  140.6190 C   0  0  0  0  0  0  0  0  0  0  0  0
  191.7440  175.2590  137.7460 C   0  0  0  0  0  2  0  0  0  0  0  0
  190.6420  175.6960  138.3380 C   0  0  0  0  0  3  0  0  0  0  0  0
  1  9  1  0  0  0  0
  2 17  1  1  0  0  0
  2 21  1  0  0  0  0
  3 22  1  0  0  0  0
  5 13  2  0  0  0  0
  6 14  2  0  0  0  0
  6 16  1  0  0  0  0
  7  5  1  0  0  0  0
  7 17  1  0  0  0  0
 10 14  1  0  0  0  0
 10 19  1  0  0  0  0
 11 10  2  0  0  0  0
 12  8  2  0  0  0  0
 13  2  1  0  0  0  0
 13 22  1  0  0  0  0
 14 15  1  0  0  0  0
 15 12  1  0  0  0  0
 15  9  2  0  0  0  0
 16  1  2  0  0  0  0
 19 17  2  0  0  0  0
 19 12  1  0  0  0  0
 20  4  1  0  0  0  0
 20 18  1  0  0  0  0
 21  8  1  0  0  0  0
 21  4  2  0  0  0  0
 22 20  2  0  0  0  0
 23 16  1  0  0  0  0
 24  7  1  0  0  0  0
 25  5  1  0  0  0  0
 26 27  3  0  0  0  0
 27 25  1  0  0  0  0
 28 29  2  0  0  0  0
 29 26  1  0  0  0  0
M  END
>  <MODEL>
3

>  <REMARK>
 VINA RESULT:      -9.9      2.447      6.739
  Name = 
  3 active torsions:
  status: ('A' for Active; 'I' for Inactive)
    1  A    between atoms: C_5  and  C_8
    2  A    between atoms: C_8  and  C_20
    3  A    between atoms: C_12  and  C_28
                            x       y       z     vdW  Elec       q    Type
                         _______ _______ _______ _____ _____    ______ ____

>  <TORSDO>
F 3

$$$$
=
 OpenBabel10232410203D

 29 33  0  0  1  0  0  0  0  0999 V2000
  188.9050  177.4730  146.8960 C   0  0  0  0  0  3  0  0  0  0  0  0
  183.9480  178.5880  142.6940 C   0  0  2  0  0  3  0  0  0  0  0  0
  180.7140  179.2010  140.8590 C   0  0  0  0  0  1  0  0  0  0  0  0
  182.2610  178.8280  144.3510 C   0  0  0  0  0  3  0  0  0  0  0  0
  183.8200  178.6540  140.5090 C   0  0  0  0  0  0  0  0  0  0  0  0
  189.6340  177.4090  144.5620 C   0  0  0  0  0  3  0  0  0  0  0  0
  185.1210  178.3960  140.8300 N   0  0  0  0  0  0  0  0  0  0  0  0
  184.6950  178.3630  145.0760 C   0  0  0  0  0  3  0  0  0  0  0  0
  187.5840  177.7440  146.5000 C   0  0  0  0  0  3  0  0  0  0  0  0
  187.7180  177.8410  142.8820 C   0  0  0  0  0  0  0  0  0  0  0  0
  188.3160  177.7670  141.7760 O   0  0  0  0  0  0  0  0  0  0  0  0
  186.0620  178.1120  144.4400 C   0  0  0  0  0  0  0  0  0  0  0  0
  183.0660  178.7700  141.6770 C   0  0  0  0  0  0  0  0  0  0  0  0
  188.3180  177.6790  144.1950 C   0  0  0  0  0  0  0  0  0  0  0  0
  187.3200  177.8420  145.1340 C   0  0  0  0  0  0  0  0  0  0  0  0
  189.9250  177.3060  145.9340 C   0  0  0  0  0  0  0  0  0  0  0  0
  185.1830  178.3630  142.1820 C   0  0  0  0  0  0  0  0  0  0  0  0
  179.9820  179.2520  143.6520 O   0  0  0  0  0  1  0  0  0  0  0  0
  186.2960  178.1110  143.1130 C   0  0  0  0  0  0  0  0  0  0  0  0
  181.3120  179.0280  143.3150 C   0  0  0  0  0  0  0  0  0  0  0  0
  183.6120  178.6010  144.0370 C   0  0  0  0  0  0  0  0  0  0  0  0
  181.7100  178.9970  141.9510 C   0  0  0  0  0  0  0  0  0  0  0  0
  191.3150  177.0200  146.3750 C   0  0  0  0  0  1  0  0  0  0  0  0
  186.2060  178.1770  139.8890 C   0  0  0  0  0  1  0  0  0  0  0  0
  183.2940  178.7110  139.1100 C   0  0  0  0  0  2  0  0  0  0  0  0
  182.4060  181.1710  138.5750 C   0  0  0  0  0  0  0  0  0  0  0  0
  182.8090  180.0610  138.8160 C   0  0  0  0  0  0  0  0  0  0  0  0
  180.6870  182.6640  137.8460 C   0  0  0  0  0  2  0  0  0  0  0  0
  181.9230  182.4910  138.2860 C   0  0  0  0  0  3  0  0  0  0  0  0
  2 13  1  6  0  0  0
  2 21  1  0  0  0  0
  3 22  1  0  0  0  0
  5  7  1  0  0  0  0
  5 13  2  0  0  0  0
  6 16  1  0  0  0  0
  7 17  1  0  0  0  0
  9  1  1  0  0  0  0
 10 19  1  0  0  0  0
 10 14  1  0  0  0  0
 11 10  2  0  0  0  0
 12  8  2  0  0  0  0
 12 15  1  0  0  0  0
 13 22  1  0  0  0  0
 14  6  2  0  0  0  0
 14 15  1  0  0  0  0
 15  9  2  0  0  0  0
 16 23  1  0  0  0  0
 16  1  2  0  0  0  0
 17  2  1  0  0  0  0
 17 19  2  0  0  0  0
 19 12  1  0  0  0  0
 20 18  1  0  0  0  0
 20  4  1  0  0  0  0
 21  4  2  0  0  0  0
 21  8  1  0  0  0  0
 22 20  2  0  0  0  0
 24  7  1  0  0  0  0
 25  5  1  0  0  0  0
 26 27  3  0  0  0  0
 27 25  1  0  0  0  0
 28 29  2  0  0  0  0
 29 26  1  0  0  0  0
M  END
>  <MODEL>
4

>  <REMARK>
 VINA RESULT:      -9.3      1.538      2.506
  Name = 
  3 active torsions:
  status: ('A' for Active; 'I' for Inactive)
    1  A    between atoms: C_5  and  C_8
    2  A    between atoms: C_8  and  C_20
    3  A    between atoms: C_12  and  C_28
                            x       y       z     vdW  Elec       q    Type
                         _______ _______ _______ _____ _____    ______ ____

>  <TORSDO>
F 3

$$$$
=
 OpenBabel10232410203D

 29 33  0  0  1  0  0  0  0  0999 V2000
  189.8780  177.1030  146.8110 C   0  0  0  0  0  3  0  0  0  0  0  0
  189.1330  177.4190  140.2680 C   0  0  2  0  0  3  0  0  0  0  0  0
  189.3850  177.4510  136.5070 C   0  0  0  0  0  1  0  0  0  0  0  0
  191.3320  176.6980  139.7280 C   0  0  0  0  0  3  0  0  0  0  0  0
  187.4780  178.0380  138.9750 C   0  0  0  0  0  0  0  0  0  0  0  0
  187.6510  177.8810  146.1670 C   0  0  0  0  0  3  0  0  0  0  0  0
  187.0520  178.1660  140.2650 N   0  0  0  0  0  0  0  0  0  0  0  0
  190.6290  176.8810  142.2050 C   0  0  0  0  0  3  0  0  0  0  0  0
  190.2530  176.9860  145.4610 C   0  0  0  0  0  3  0  0  0  0  0  0
  187.3180  178.0200  143.6070 C   0  0  0  0  0  0  0  0  0  0  0  0
  186.1300  178.4260  143.5180 O   0  0  0  0  0  0  0  0  0  0  0  0
  189.4140  177.2990  143.0330 C   0  0  0  0  0  0  0  0  0  0  0  0
  188.7930  177.5740  138.9610 C   0  0  0  0  0  0  0  0  0  0  0  0
  188.0450  177.7570  144.8370 C   0  0  0  0  0  0  0  0  0  0  0  0
  189.3090  177.3230  144.4910 C   0  0  0  0  0  0  0  0  0  0  0  0
  188.5860  177.5470  147.1630 C   0  0  0  0  0  0  0  0  0  0  0  0
  188.0840  177.7750  141.0500 C   0  0  0  0  0  0  0  0  0  0  0  0
  191.9770  176.5430  137.3980 O   0  0  0  0  0  1  0  0  0  0  0  0
  188.2420  177.7100  142.5120 C   0  0  0  0  0  0  0  0  0  0  0  0
  191.0110  176.8430  138.3520 C   0  0  0  0  0  0  0  0  0  0  0  0
  190.3730  176.9930  140.7110 C   0  0  0  0  0  0  0  0  0  0  0  0
  189.7240  177.2910  137.9520 C   0  0  0  0  0  0  0  0  0  0  0  0
  188.2100  177.6630  148.5960 C   0  0  0  0  0  1  0  0  0  0  0  0
  185.7510  178.6520  140.6920 C   0  0  0  0  0  1  0  0  0  0  0  0
  186.6670  178.4260  137.7800 C   0  0  0  0  0  2  0  0  0  0  0  0
  185.1980  176.3490  136.9710 C   0  0  0  0  0  0  0  0  0  0  0  0
  185.8600  177.2890  137.3350 C   0  0  0  0  0  0  0  0  0  0  0  0
  184.2480  174.1860  137.3360 C   0  0  0  0  0  2  0  0  0  0  0  0
  184.4120  175.2290  136.5380 C   0  0  0  0  0  3  0  0  0  0  0  0
  1 16  1  0  0  0  0
  2 13  1  1  0  0  0
  2 21  1  0  0  0  0
  2 17  1  0  0  0  0
  3 22  1  0  0  0  0
  4 21  2  0  0  0  0
  5  7  1  0  0  0  0
  6 16  2  0  0  0  0
  7 24  1  0  0  0  0
  7 17  1  0  0  0  0
  8 12  2  0  0  0  0
  9  1  2  0  0  0  0
 10 14  1  0  0  0  0
 11 10  2  0  0  0  0
 12 15  1  0  0  0  0
 13  5  2  0  0  0  0
 14  6  1  0  0  0  0
 15 14  2  0  0  0  0
 15  9  1  0  0  0  0
 16 23  1  0  0  0  0
 17 19  2  0  0  0  0
 18 20  1  0  0  0  0
 19 12  1  0  0  0  0
 19 10  1  0  0  0  0
 20  4  1  0  0  0  0
 21  8  1  0  0  0  0
 22 20  2  0  0  0  0
 22 13  1  0  0  0  0
 25  5  1  0  0  0  0
 26 27  3  0  0  0  0
 27 25  1  0  0  0  0
 29 26  1  0  0  0  0
 29 28  2  0  0  0  0
M  END
>  <MODEL>
5

>  <REMARK>
 VINA RESULT:      -9.1      2.484      5.226
  Name = 
  3 active torsions:
  status: ('A' for Active; 'I' for Inactive)
    1  A    between atoms: C_5  and  C_8
    2  A    between atoms: C_8  and  C_20
    3  A    between atoms: C_12  and  C_28
                            x       y       z     vdW  Elec       q    Type
                         _______ _______ _______ _____ _____    ______ ____

>  <TORSDO>
F 3

$$$$
=
 OpenBabel10232410203D

 29 33  0  0  1  0  0  0  0  0999 V2000
  186.4010  178.1590  147.6600 C   0  0  0  0  0  3  0  0  0  0  0  0
  183.9740  178.6990  141.5540 C   0  0  2  0  0  3  0  0  0  0  0  0
  181.9680  179.0120  138.3780 C   0  0  0  0  0  1  0  0  0  0  0  0
  181.7080  178.9960  142.2080 C   0  0  0  0  0  3  0  0  0  0  0  0
  184.8800  178.5820  139.5640 C   0  0  0  0  0  0  0  0  0  0  0  0
  188.1350  177.9390  145.9490 C   0  0  0  0  0  3  0  0  0  0  0  0
  185.8810  178.4110  140.4740 N   0  0  0  0  0  0  0  0  0  0  0  0
  183.5240  178.7030  144.0190 C   0  0  0  0  0  3  0  0  0  0  0  0
  185.4170  178.3360  146.6720 C   0  0  0  0  0  3  0  0  0  0  0  0
  187.2230  178.1440  143.5390 C   0  0  0  0  0  0  0  0  0  0  0  0
  188.2670  178.0080  142.8500 O   0  0  0  0  0  0  0  0  0  0  0  0
  185.0310  178.4650  144.1170 C   0  0  0  0  0  0  0  0  0  0  0  0
  183.6680  178.7580  140.2300 C   0  0  0  0  0  0  0  0  0  0  0  0
  187.1420  178.1170  144.9890 C   0  0  0  0  0  0  0  0  0  0  0  0
  185.8200  178.3100  145.3370 C   0  0  0  0  0  0  0  0  0  0  0  0
  187.7520  177.9610  147.3010 C   0  0  0  0  0  0  0  0  0  0  0  0
  185.3060  178.4910  141.6970 C   0  0  0  0  0  0  0  0  0  0  0  0
  180.0170  179.2560  140.4930 O   0  0  0  0  0  1  0  0  0  0  0  0
  185.8570  178.3670  143.0570 C   0  0  0  0  0  0  0  0  0  0  0  0
  181.3510  179.0670  140.8350 C   0  0  0  0  0  0  0  0  0  0  0  0
  183.0500  178.8070  142.5790 C   0  0  0  0  0  0  0  0  0  0  0  0
  182.3400  178.9440  139.8220 C   0  0  0  0  0  0  0  0  0  0  0  0
  188.7770  177.7760  148.3620 C   0  0  0  0  0  1  0  0  0  0  0  0
  187.2810  178.1670  140.1690 C   0  0  0  0  0  1  0  0  0  0  0  0
  185.0670  178.5010  138.0820 C   0  0  0  0  0  2  0  0  0  0  0  0
  184.7410  175.9800  137.2650 C   0  0  0  0  0  0  0  0  0  0  0  0
  184.8880  177.1200  137.6320 C   0  0  0  0  0  0  0  0  0  0  0  0
  184.5100  173.6450  137.7210 C   0  0  0  0  0  2  0  0  0  0  0  0
  184.5670  174.6240  136.8310 C   0  0  0  0  0  3  0  0  0  0  0  0
  2 13  1  6  0  0  0
  2 17  1  0  0  0  0
  2 21  1  0  0  0  0
  3 22  1  0  0  0  0
  4 21  2  0  0  0  0
  5 13  2  0  0  0  0
  5  7  1  0  0  0  0
  6 16  2  0  0  0  0
  7 17  1  0  0  0  0
  8 12  2  0  0  0  0
  9  1  2  0  0  0  0
 10 14  1  0  0  0  0
 11 10  2  0  0  0  0
 12 15  1  0  0  0  0
 14 15  2  0  0  0  0
 14  6  1  0  0  0  0
 15  9  1  0  0  0  0
 16  1  1  0  0  0  0
 16 23  1  0  0  0  0
 17 19  2  0  0  0  0
 18 20  1  0  0  0  0
 19 10  1  0  0  0  0
 19 12  1  0  0  0  0
 20  4  1  0  0  0  0
 21  8  1  0  0  0  0
 22 13  1  0  0  0  0
 22 20  2  0  0  0  0
 24  7  1  0  0  0  0
 25  5  1  0  0  0  0
 26 27  3  0  0  0  0
 27 25  1  0  0  0  0
 29 26  1  0  0  0  0
 29 28  2  0  0  0  0
M  END
>  <MODEL>
6

>  <REMARK>
 VINA RESULT:      -9.0      1.353      2.005
  Name = 
  3 active torsions:
  status: ('A' for Active; 'I' for Inactive)
    1  A    between atoms: C_5  and  C_8
    2  A    between atoms: C_8  and  C_20
    3  A    between atoms: C_12  and  C_28
                            x       y       z     vdW  Elec       q    Type
                         _______ _______ _______ _____ _____    ______ ____

>  <TORSDO>
F 3

$$$$
=
 OpenBabel10232410203D

 29 33  0  0  0  0  0  0  0  0999 V2000
  190.4570  177.1030  137.8300 C   0  0  0  0  0  3  0  0  0  0  0  0
  188.0220  177.7820  143.9200 C   0  0  0  0  0  0  0  0  0  0  0  0
  187.2070  177.8370  147.5990 C   0  0  0  0  0  1  0  0  0  0  0  0
  189.9240  176.9130  145.0500 C   0  0  0  0  0  3  0  0  0  0  0  0
  186.1010  178.4900  144.6970 C   0  0  0  0  0  0  0  0  0  0  0  0
  188.1920  178.0260  137.8270 C   0  0  0  0  0  3  0  0  0  0  0  0
  186.0490  178.5900  143.3380 N   0  0  0  0  0  0  0  0  0  0  0  0
  189.9440  177.0760  142.4740 C   0  0  0  0  0  2  0  0  0  0  0  0
  190.4500  177.0330  139.2340 C   0  0  0  0  0  3  0  0  0  0  0  0
  187.2000  178.3070  140.1970 C   0  0  0  0  0  0  0  0  0  0  0  0
  186.0640  178.7890  139.9520 O   0  0  0  0  0  0  0  0  0  0  0  0
  189.0190  177.5070  141.3360 C   0  0  0  0  0  0  0  0  0  0  0  0
  187.3400  177.9740  145.0800 C   0  0  0  0  0  0  0  0  0  0  0  0
  188.2100  177.9460  139.2170 C   0  0  0  0  0  0  0  0  0  0  0  0
  189.3060  177.4640  139.9040 C   0  0  0  0  0  0  0  0  0  0  0  0
  189.3350  177.5970  137.1300 C   0  0  0  0  0  0  0  0  0  0  0  0
  187.2440  178.1540  142.8740 C   0  0  0  0  0  0  0  0  0  0  0  0
  189.8810  176.7570  147.4670 O   0  0  0  0  0  1  0  0  0  0  0  0
  187.7780  178.0040  141.5100 C   0  0  0  0  0  0  0  0  0  0  0  0
  189.2440  177.1050  146.2820 C   0  0  0  0  0  0  0  0  0  0  0  0
  189.3010  177.2580  143.8390 C   0  0  0  0  0  0  0  0  0  0  0  0
  187.9280  177.6400  146.3070 C   0  0  0  0  0  0  0  0  0  0  0  0
  189.3620  177.6630  135.6460 C   0  0  0  0  0  1  0  0  0  0  0  0
  184.9130  179.0520  142.5580 C   0  0  0  0  0  1  0  0  0  0  0  0
  184.9600  178.8090  145.6090 C   0  0  0  0  0  2  0  0  0  0  0  0
  182.6680  178.7970  144.2380 C   0  0  0  0  0  0  0  0  0  0  0  0
  183.7050  178.8030  144.8550 C   0  0  0  0  0  0  0  0  0  0  0  0
  180.3160  178.3980  144.0960 C   0  0  0  0  0  2  0  0  0  0  0  0
  181.4350  178.7880  143.5060 C   0  0  0  0  0  3  0  0  0  0  0  0
  1  9  1  0  0  0  0
  2 13  1  0  0  0  0
  4 20  1  0  0  0  0
  5 13  2  0  0  0  0
  5 25  1  0  0  0  0
  6 14  2  0  0  0  0
  7  5  1  0  0  0  0
  8 21  1  0  0  0  0
  9 15  2  0  0  0  0
 10 19  1  0  0  0  0
 11 10  2  0  0  0  0
 12 19  2  0  0  0  0
 12  8  1  0  0  0  0
 13 22  1  0  0  0  0
 14 15  1  0  0  0  0
 14 10  1  0  0  0  0
 15 12  1  0  0  0  0
 16  6  1  0  0  0  0
 16  1  2  0  0  0  0
 17  7  1  0  0  0  0
 17  2  2  0  0  0  0
 19 17  1  0  0  0  0
 20 22  2  0  0  0  0
 20 18  1  0  0  0  0
 21  2  1  0  0  0  0
 21  4  2  0  0  0  0
 22  3  1  0  0  0  0
 23 16  1  0  0  0  0
 24  7  1  0  0  0  0
 26 27  3  0  0  0  0
 27 25  1  0  0  0  0
 29 28  2  0  0  0  0
 29 26  1  0  0  0  0
M  END
>  <MODEL>
7

>  <REMARK>
 VINA RESULT:      -8.9      2.619      6.702
  Name = 
  3 active torsions:
  status: ('A' for Active; 'I' for Inactive)
    1  A    between atoms: C_5  and  C_8
    2  A    between atoms: C_8  and  C_20
    3  A    between atoms: C_12  and  C_28
                            x       y       z     vdW  Elec       q    Type
                         _______ _______ _______ _____ _____    ______ ____

>  <TORSDO>
F 3

$$$$
=
 OpenBabel10232410203D

 29 33  0  0  1  0  0  0  0  0999 V2000
  189.5390  177.4140  146.9090 C   0  0  0  0  0  3  0  0  0  0  0  0
  187.6940  178.0120  140.6070 C   0  0  2  0  0  3  0  0  0  0  0  0
  187.3160  178.2920  136.8670 C   0  0  0  0  0  1  0  0  0  0  0  0
  189.8410  177.6020  139.6750 C   0  0  0  0  0  3  0  0  0  0  0  0
  185.7890  178.4940  139.6420 C   0  0  0  0  0  0  0  0  0  0  0  0
  187.1630  177.9440  146.6840 C   0  0  0  0  0  3  0  0  0  0  0  0
  185.5700  178.4930  140.9880 N   0  0  0  0  0  0  0  0  0  0  0  0
  189.5410  177.5530  142.2380 C   0  0  0  0  0  3  0  0  0  0  0  0
  189.6970  177.4230  145.5120 C   0  0  0  0  0  3  0  0  0  0  0  0
  186.3990  178.1880  144.2260 C   0  0  0  0  0  0  0  0  0  0  0  0
  185.1740  178.4480  144.3560 O   0  0  0  0  0  0  0  0  0  0  0  0
  188.4400  177.7680  143.2770 C   0  0  0  0  0  0  0  0  0  0  0  0
  187.1280  178.1980  139.3860 C   0  0  0  0  0  0  0  0  0  0  0  0
  187.3440  177.9470  145.3030 C   0  0  0  0  0  0  0  0  0  0  0  0
  188.5740  177.6940  144.7310 C   0  0  0  0  0  0  0  0  0  0  0  0
  188.2810  177.6730  147.4920 C   0  0  0  0  0  0  0  0  0  0  0  0
  186.7550  178.1890  141.5690 C   0  0  0  0  0  0  0  0  0  0  0  0
  190.1060  177.6630  137.2680 O   0  0  0  0  0  1  0  0  0  0  0  0
  187.1580  178.0590  142.9790 C   0  0  0  0  0  0  0  0  0  0  0  0
  189.2840  177.7850  138.3820 C   0  0  0  0  0  0  0  0  0  0  0  0
  189.0310  177.7180  140.8160 C   0  0  0  0  0  0  0  0  0  0  0  0
  187.9050  178.0920  138.2240 C   0  0  0  0  0  0  0  0  0  0  0  0
  188.1360  177.6580  148.9710 C   0  0  0  0  0  1  0  0  0  0  0  0
  184.3110  178.7880  141.6500 C   0  0  0  0  0  1  0  0  0  0  0  0
  184.7530  178.8460  138.6220 C   0  0  0  0  0  2  0  0  0  0  0  0
  183.3020  176.6890  138.0130 C   0  0  0  0  0  0  0  0  0  0  0  0
  183.9580  177.6630  138.2900 C   0  0  0  0  0  0  0  0  0  0  0  0
  181.4910  175.1890  138.4410 C   0  0  0  0  0  2  0  0  0  0  0  0
  182.5200  175.5330  137.6820 C   0  0  0  0  0  3  0  0  0  0  0  0
  1 16  1  0  0  0  0
  2 13  1  1  0  0  0
  2 21  1  0  0  0  0
  2 17  1  0  0  0  0
  3 22  1  0  0  0  0
  4 21  2  0  0  0  0
  5  7  1  0  0  0  0
  6 16  2  0  0  0  0
  7 17  1  0  0  0  0
  7 24  1  0  0  0  0
  8 12  2  0  0  0  0
  9  1  2  0  0  0  0
 10 11  2  0  0  0  0
 10 14  1  0  0  0  0
 12 15  1  0  0  0  0
 13  5  2  0  0  0  0
 14  6  1  0  0  0  0
 15 14  2  0  0  0  0
 15  9  1  0  0  0  0
 16 23  1  0  0  0  0
 17 19  2  0  0  0  0
 18 20  1  0  0  0  0
 19 12  1  0  0  0  0
 19 10  1  0  0  0  0
 20  4  1  0  0  0  0
 21  8  1  0  0  0  0
 22 20  2  0  0  0  0
 22 13  1  0  0  0  0
 25  5  1  0  0  0  0
 26 27  3  0  0  0  0
 27 25  1  0  0  0  0
 29 26  1  0  0  0  0
 29 28  2  0  0  0  0
M  END
>  <MODEL>
8

>  <REMARK>
 VINA RESULT:      -8.9      1.904      4.408
  Name = 
  3 active torsions:
  status: ('A' for Active; 'I' for Inactive)
    1  A    between atoms: C_5  and  C_8
    2  A    between atoms: C_8  and  C_20
    3  A    between atoms: C_12  and  C_28
                            x       y       z     vdW  Elec       q    Type
                         _______ _______ _______ _____ _____    ______ ____

>  <TORSDO>
F 3

$$$$
=
 OpenBabel10232410203D

 29 33  0  0  0  0  0  0  0  0999 V2000
  188.6340  177.5280  137.4250 C   0  0  0  0  0  3  0  0  0  0  0  0
  187.1670  178.0490  143.8320 C   0  0  0  0  0  0  0  0  0  0  0  0
  185.7160  178.5860  147.2690 C   0  0  0  0  0  1  0  0  0  0  0  0
  184.8930  178.6680  143.5200 C   0  0  0  0  0  3  0  0  0  0  0  0
  188.3430  177.8170  145.6640 C   0  0  0  0  0  0  0  0  0  0  0  0
  190.5590  177.0590  138.8590 C   0  0  0  0  0  3  0  0  0  0  0  0
  189.1780  177.5690  144.6140 N   0  0  0  0  0  0  0  0  0  0  0  0
  186.3740  178.2010  141.4590 C   0  0  0  0  0  2  0  0  0  0  0  0
  187.8250  177.7640  138.5500 C   0  0  0  0  0  3  0  0  0  0  0  0
  190.0250  177.2540  141.3810 C   0  0  0  0  0  0  0  0  0  0  0  0
  191.1330  176.9720  141.9080 O   0  0  0  0  0  0  0  0  0  0  0  0
  187.8200  177.8220  141.1360 C   0  0  0  0  0  0  0  0  0  0  0  0
  187.0710  178.1290  145.1850 C   0  0  0  0  0  0  0  0  0  0  0  0
  189.7370  177.2980  139.9580 C   0  0  0  0  0  0  0  0  0  0  0  0
  188.4080  177.6410  139.8100 C   0  0  0  0  0  0  0  0  0  0  0  0
  189.9930  177.1780  137.5780 C   0  0  0  0  0  0  0  0  0  0  0  0
  188.4350  177.7120  143.4910 C   0  0  0  0  0  0  0  0  0  0  0  0
  183.5220  179.1140  145.4670 O   0  0  0  0  0  1  0  0  0  0  0  0
  188.7720  177.5950  142.0630 C   0  0  0  0  0  0  0  0  0  0  0  0
  184.7540  178.7560  144.9310 C   0  0  0  0  0  0  0  0  0  0  0  0
  186.1270  178.3070  142.9550 C   0  0  0  0  0  0  0  0  0  0  0  0
  185.8560  178.4880  145.7860 C   0  0  0  0  0  0  0  0  0  0  0  0
  190.8310  176.9320  136.3760 C   0  0  0  0  0  1  0  0  0  0  0  0
  190.5910  177.2420  144.7030 C   0  0  0  0  0  1  0  0  0  0  0  0
  188.7750  177.8300  147.0960 C   0  0  0  0  0  2  0  0  0  0  0  0
  190.9830  176.3600  147.3970 C   0  0  0  0  0  0  0  0  0  0  0  0
  189.9850  177.0240  147.2580 C   0  0  0  0  0  0  0  0  0  0  0  0
  192.9910  175.8160  148.5720 C   0  0  0  0  0  2  0  0  0  0  0  0
  192.1700  175.5720  147.5630 C   0  0  0  0  0  3  0  0  0  0  0  0
  1 16  2  0  0  0  0
  1  9  1  0  0  0  0
  2 13  1  0  0  0  0
  4 20  1  0  0  0  0
  5 25  1  0  0  0  0
  6 14  2  0  0  0  0
  7 24  1  0  0  0  0
  7  5  1  0  0  0  0
  8 21  1  0  0  0  0
  9 15  2  0  0  0  0
 10 11  2  0  0  0  0
 10 19  1  0  0  0  0
 12  8  1  0  0  0  0
 12 19  2  0  0  0  0
 13  5  2  0  0  0  0
 13 22  1  0  0  0  0
 14 10  1  0  0  0  0
 15 14  1  0  0  0  0
 15 12  1  0  0  0  0
 16  6  1  0  0  0  0
 17  2  2  0  0  0  0
 17  7  1  0  0  0  0
 19 17  1  0  0  0  0
 20 18  1  0  0  0  0
 20 22  2  0  0  0  0
 21  4  2  0  0  0  0
 21  2  1  0  0  0  0
 22  3  1  0  0  0  0
 23 16  1  0  0  0  0
 25 27  1  0  0  0  0
 26 29  1  0  0  0  0
 27 26  3  0  0  0  0
 29 28  2  0  0  0  0
M  END
>  <MODEL>
9

>  <REMARK>
 VINA RESULT:      -8.8      2.539      7.138
  Name = 
  3 active torsions:
  status: ('A' for Active; 'I' for Inactive)
    1  A    between atoms: C_5  and  C_8
    2  A    between atoms: C_8  and  C_20
    3  A    between atoms: C_12  and  C_28
                            x       y       z     vdW  Elec       q    Type
                         _______ _______ _______ _____ _____    ______ ____

>  <TORSDO>
F 3

$$$$
