=
 OpenBabel10222422063D

 31 34  0  0  1  0  0  0  0  0999 V2000
  187.6510  177.2980  148.8470 O   0  0  0  0  0  0  0  0  0  0  0  0
  190.8510  177.1620  144.3380 C   0  0  0  0  0  2  0  0  0  0  0  0
  190.7620  176.8350  145.7140 O   0  0  0  0  0  0  0  0  0  0  0  0
  189.4820  177.4430  143.8740 C   0  0  0  0  0  0  0  0  0  0  0  0
  189.0620  177.9190  142.5150 C   0  0  2  0  0  3  0  0  0  0  0  0
  189.2170  177.9720  147.1970 C   0  0  1  0  0  3  0  0  0  0  0  0
  188.6540  177.3400  144.8640 C   0  0  0  0  0  0  0  0  0  0  0  0
  186.7600  178.0310  143.5210 C   0  0  0  0  0  0  0  0  0  0  0  0
  189.3960  176.9360  146.0830 C   0  0  1  0  0  3  0  0  0  0  0  0
  187.8360  177.8770  147.7870 C   0  0  0  0  0  0  0  0  0  0  0  0
  186.6660  178.4130  147.0290 C   0  0  0  0  0  2  0  0  0  0  0  0
  186.2930  177.4660  145.8990 C   0  0  0  0  0  2  0  0  0  0  0  0
  190.1860  177.7920  148.1900 O   0  0  0  0  0  1  0  0  0  0  0  0
  187.2150  177.6310  144.7240 C   0  0  0  0  0  0  0  0  0  0  0  0
  187.6430  178.1620  142.4330 O   0  0  0  0  0  0  0  0  0  0  0  0
  189.5400  177.0240  141.4500 N   0  0  0  0  0  0  0  0  0  0  0  0
  190.5220  176.1590  142.0940 C   0  0  0  0  0  1  0  0  0  0  0  0
  188.2090  177.4570  138.7840 C   0  0  0  0  0  2  0  0  0  0  0  0
  189.2000  178.4440  139.3990 C   0  0  0  0  0  2  0  0  0  0  0  0
  191.1800  176.8650  139.5560 C   0  0  0  0  0  2  0  0  0  0  0  0
  188.7150  176.8340  137.4810 C   0  0  0  0  0  2  0  0  0  0  0  0
  190.4860  175.7890  138.8580 N   0  0  0  0  0  2  0  0  0  0  0  0
  190.2010  177.7530  140.3440 C   0  0  2  0  0  3  0  0  0  0  0  0
  190.1500  176.3010  137.5370 C   0  0  0  0  0  2  0  0  0  0  0  0
  185.3100  178.3080  143.2930 C   0  0  0  0  0  2  0  0  0  0  0  0
  185.1590  179.1430  142.1130 N   0  0  0  0  0  2  0  0  0  0  0  0
  184.3020  178.7820  141.0310 C   0  0  0  0  0  0  0  0  0  0  0  0
  184.1580  179.6780  139.9260 N   0  0  0  0  0  2  0  0  0  0  0  0
  183.6880  177.6810  141.0440 O   0  0  0  0  0  0  0  0  0  0  0  0
  183.3650  179.3540  138.7490 C   0  0  0  0  0  2  0  0  0  0  0  0
  182.1510  180.2600  138.6810 C   0  0  0  0  0  1  0  0  0  0  0  0
  2  3  1  0  0  0  0
  3  9  1  0  0  0  0
  4  2  1  0  0  0  0
  4  7  2  0  0  0  0
  5 16  1  6  0  0  0
  5  4  1  0  0  0  0
  6 10  1  0  0  0  0
  6 13  1  1  0  0  0
  8 14  2  0  0  0  0
  9  7  1  6  0  0  0
  9  6  1  0  0  0  0
 10  1  2  0  0  0  0
 11 10  1  0  0  0  0
 12 11  1  0  0  0  0
 14  7  1  0  0  0  0
 14 12  1  0  0  0  0
 15  5  1  0  0  0  0
 15  8  1  0  0  0  0
 16 17  1  0  0  0  0
 18 19  1  0  0  0  0
 19 23  1  0  0  0  0
 20 23  1  0  0  0  0
 21 24  1  0  0  0  0
 21 18  1  0  0  0  0
 22 20  1  0  0  0  0
 23 16  1  1  0  0  0
 24 22  1  0  0  0  0
 25  8  1  0  0  0  0
 26 25  1  0  0  0  0
 27 29  2  0  0  0  0
 27 26  1  0  0  0  0
 28 27  1  0  0  0  0
 30 28  1  0  0  0  0
 31 30  1  0  0  0  0
M  END
>  <MODEL>
1

>  <REMARK>
 VINA RESULT:      -9.3      0.000      0.000
  Name = 
  5 active torsions:
  status: ('A' for Active; 'I' for Inactive)
    1  A    between atoms: C_1  and  N_19
    2  A    between atoms: N_2  and  C_7
    3  A    between atoms: C_7  and  C_18
    4  A    between atoms: C_14  and  N_22
    5  A    between atoms: N_22  and  C_24
                            x       y       z     vdW  Elec       q    Type
                         _______ _______ _______ _____ _____    ______ ____

>  <TORSDO>
F 5

$$$$
=
 OpenBabel10222422063D

 31 34  0  0  1  0  0  0  0  0999 V2000
  184.5070  178.1230  146.7230 O   0  0  0  0  0  0  0  0  0  0  0  0
  189.2610  177.1960  144.0520 C   0  0  0  0  0  2  0  0  0  0  0  0
  188.5290  176.9660  145.2440 O   0  0  0  0  0  0  0  0  0  0  0  0
  188.3010  177.6790  143.0460 C   0  0  0  0  0  0  0  0  0  0  0  0
  188.6010  178.1440  141.6510 C   0  0  2  0  0  3  0  0  0  0  0  0
  186.7240  178.4280  145.9350 C   0  0  1  0  0  3  0  0  0  0  0  0
  187.1220  177.7730  143.5750 C   0  0  0  0  0  0  0  0  0  0  0  0
  186.1500  178.7020  141.5590 C   0  0  0  0  0  0  0  0  0  0  0  0
  187.1800  177.3170  144.9850 C   0  0  1  0  0  3  0  0  0  0  0  0
  185.2320  178.6030  145.8640 C   0  0  0  0  0  0  0  0  0  0  0  0
  184.6200  179.2870  144.6860 C   0  0  0  0  0  2  0  0  0  0  0  0
  184.6100  178.3560  143.4830 C   0  0  0  0  0  2  0  0  0  0  0  0
  187.1210  178.1420  147.2460 O   0  0  0  0  0  1  0  0  0  0  0  0
  185.9620  178.2960  142.8300 C   0  0  0  0  0  0  0  0  0  0  0  0
  187.4250  178.6200  140.9670 O   0  0  0  0  0  0  0  0  0  0  0  0
  189.3250  177.1230  140.8790 N   0  0  0  0  0  0  0  0  0  0  0  0
  190.3240  176.5900  141.7980 C   0  0  0  0  0  1  0  0  0  0  0  0
  188.2160  176.8660  138.0910 C   0  0  0  0  0  2  0  0  0  0  0  0
  189.0490  178.0580  138.5570 C   0  0  0  0  0  2  0  0  0  0  0  0
  191.1440  176.7700  139.1840 C   0  0  0  0  0  2  0  0  0  0  0  0
  188.8980  176.0540  136.9870 C   0  0  0  0  0  2  0  0  0  0  0  0
  190.6200  175.5070  138.6780 N   0  0  0  0  0  2  0  0  0  0  0  0
  190.0170  177.6840  139.6960 C   0  0  2  0  0  3  0  0  0  0  0  0
  190.3640  175.7040  137.2580 C   0  0  0  0  0  2  0  0  0  0  0  0
  185.0160  179.2070  140.7300 C   0  0  0  0  0  2  0  0  0  0  0  0
  185.2710  178.9080  139.3310 N   0  0  0  0  0  2  0  0  0  0  0  0
  184.4970  177.9550  138.6030 C   0  0  0  0  0  0  0  0  0  0  0  0
  184.7660  177.7520  137.2150 N   0  0  0  0  0  2  0  0  0  0  0  0
  183.5950  177.2920  139.1830 O   0  0  0  0  0  0  0  0  0  0  0  0
  184.0770  176.7470  136.4180 C   0  0  0  0  0  2  0  0  0  0  0  0
  184.8980  175.4730  136.3740 C   0  0  0  0  0  1  0  0  0  0  0  0
  2  3  1  0  0  0  0
  4  7  2  0  0  0  0
  4  2  1  0  0  0  0
  5 16  1  6  0  0  0
  5  4  1  0  0  0  0
  6 13  1  1  0  0  0
  8 14  2  0  0  0  0
  9  7  1  6  0  0  0
  9  3  1  0  0  0  0
  9  6  1  0  0  0  0
 10  6  1  0  0  0  0
 10  1  2  0  0  0  0
 11 10  1  0  0  0  0
 12 11  1  0  0  0  0
 14 12  1  0  0  0  0
 14  7  1  0  0  0  0
 15  8  1  0  0  0  0
 15  5  1  0  0  0  0
 16 17  1  0  0  0  0
 18 19  1  0  0  0  0
 19 23  1  0  0  0  0
 20 23  1  0  0  0  0
 21 24  1  0  0  0  0
 21 18  1  0  0  0  0
 22 20  1  0  0  0  0
 23 16  1  1  0  0  0
 24 22  1  0  0  0  0
 25  8  1  0  0  0  0
 26 25  1  0  0  0  0
 27 29  2  0  0  0  0
 27 26  1  0  0  0  0
 28 27  1  0  0  0  0
 30 28  1  0  0  0  0
 31 30  1  0  0  0  0
M  END
>  <MODEL>
2

>  <REMARK>
 VINA RESULT:      -9.2      1.764      2.466
  Name = 
  5 active torsions:
  status: ('A' for Active; 'I' for Inactive)
    1  A    between atoms: C_1  and  N_19
    2  A    between atoms: N_2  and  C_7
    3  A    between atoms: C_7  and  C_18
    4  A    between atoms: C_14  and  N_22
    5  A    between atoms: N_22  and  C_24
                            x       y       z     vdW  Elec       q    Type
                         _______ _______ _______ _____ _____    ______ ____

>  <TORSDO>
F 5

$$$$
=
 OpenBabel10222422063D

 31 34  0  0  1  0  0  0  0  0999 V2000
  187.8020  176.8530  147.0260 O   0  0  0  0  0  0  0  0  0  0  0  0
  190.3580  176.9840  142.1240 C   0  0  0  0  0  2  0  0  0  0  0  0
  190.3770  176.4440  143.4340 O   0  0  0  0  0  0  0  0  0  0  0  0
  189.0180  177.5550  141.9130 C   0  0  0  0  0  0  0  0  0  0  0  0
  188.5300  178.3170  140.7180 C   0  0  2  0  0  3  0  0  0  0  0  0
  189.2540  177.5410  145.2810 C   0  0  1  0  0  3  0  0  0  0  0  0
  188.3090  177.4160  142.9890 C   0  0  0  0  0  0  0  0  0  0  0  0
  186.4240  178.6200  142.0590 C   0  0  0  0  0  0  0  0  0  0  0  0
  189.1070  176.6960  144.0120 C   0  0  1  0  0  3  0  0  0  0  0  0
  187.9600  177.5680  146.0480 C   0  0  0  0  0  0  0  0  0  0  0  0
  186.8240  178.4050  145.5600 C   0  0  0  0  0  2  0  0  0  0  0  0
  186.1520  177.7380  144.3690 C   0  0  0  0  0  2  0  0  0  0  0  0
  190.2870  177.0420  146.0810 O   0  0  0  0  0  1  0  0  0  0  0  0
  186.9400  177.9520  143.1090 C   0  0  0  0  0  0  0  0  0  0  0  0
  187.1790  178.7940  140.8830 O   0  0  0  0  0  0  0  0  0  0  0  0
  188.7060  177.5530  139.4730 N   0  0  0  0  0  0  0  0  0  0  0  0
  190.1370  177.6040  139.1970 C   0  0  0  0  0  1  0  0  0  0  0  0
  187.3980  175.8710  137.3450 C   0  0  0  0  0  2  0  0  0  0  0  0
  186.8650  177.2330  137.7850 C   0  0  0  0  0  2  0  0  0  0  0  0
  188.9240  178.5960  137.2000 C   0  0  0  0  0  2  0  0  0  0  0  0
  187.8600  175.8520  135.8860 C   0  0  0  0  0  2  0  0  0  0  0  0
  189.6050  177.4610  136.5890 N   0  0  0  0  0  2  0  0  0  0  0  0
  187.9790  178.1480  138.3290 C   0  0  2  0  0  3  0  0  0  0  0  0
  188.7660  177.0200  135.4830 C   0  0  0  0  0  2  0  0  0  0  0  0
  185.0320  179.1590  142.0920 C   0  0  0  0  0  2  0  0  0  0  0  0
  184.1940  178.3840  141.1910 N   0  0  0  0  0  2  0  0  0  0  0  0
  183.9490  178.7860  139.8450 C   0  0  0  0  0  0  0  0  0  0  0  0
  183.1610  177.9470  138.9980 N   0  0  0  0  0  2  0  0  0  0  0  0
  184.4130  179.8750  139.4110 O   0  0  0  0  0  0  0  0  0  0  0  0
  182.8010  178.3180  137.6370 C   0  0  0  0  0  2  0  0  0  0  0  0
  183.2960  177.2630  136.6670 C   0  0  0  0  0  1  0  0  0  0  0  0
  2  3  1  0  0  0  0
  3  9  1  0  0  0  0
  4  2  1  0  0  0  0
  4  7  2  0  0  0  0
  5 16  1  6  0  0  0
  5 15  1  0  0  0  0
  5  4  1  0  0  0  0
  6 10  1  0  0  0  0
  6 13  1  1  0  0  0
  7 14  1  0  0  0  0
  8 25  1  0  0  0  0
  8 14  2  0  0  0  0
  9  7  1  6  0  0  0
  9  6  1  0  0  0  0
 10  1  2  0  0  0  0
 11 10  1  0  0  0  0
 12 11  1  0  0  0  0
 14 12  1  0  0  0  0
 15  8  1  0  0  0  0
 17 16  1  0  0  0  0
 18 19  1  0  0  0  0
 19 23  1  0  0  0  0
 20 23  1  0  0  0  0
 21 18  1  0  0  0  0
 22 20  1  0  0  0  0
 23 16  1  1  0  0  0
 24 21  1  0  0  0  0
 24 22  1  0  0  0  0
 26 25  1  0  0  0  0
 27 26  1  0  0  0  0
 28 27  1  0  0  0  0
 29 27  2  0  0  0  0
 30 28  1  0  0  0  0
 31 30  1  0  0  0  0
M  END
>  <MODEL>
3

>  <REMARK>
 VINA RESULT:      -8.9      1.685      2.298
  Name = 
  5 active torsions:
  status: ('A' for Active; 'I' for Inactive)
    1  A    between atoms: C_1  and  N_19
    2  A    between atoms: N_2  and  C_7
    3  A    between atoms: C_7  and  C_18
    4  A    between atoms: C_14  and  N_22
    5  A    between atoms: N_22  and  C_24
                            x       y       z     vdW  Elec       q    Type
                         _______ _______ _______ _____ _____    ______ ____

>  <TORSDO>
F 5

$$$$
=
 OpenBabel10222422063D

 31 34  0  0  1  0  0  0  0  0999 V2000
  189.2670  176.6410  147.3650 O   0  0  0  0  0  0  0  0  0  0  0  0
  191.4200  176.9140  142.2780 C   0  0  0  0  0  2  0  0  0  0  0  0
  191.6020  176.4260  143.5960 O   0  0  0  0  0  0  0  0  0  0  0  0
  190.0070  177.3110  142.1580 C   0  0  0  0  0  0  0  0  0  0  0  0
  189.3430  177.9680  140.9850 C   0  0  2  0  0  3  0  0  0  0  0  0
  190.4900  177.4400  145.4960 C   0  0  1  0  0  3  0  0  0  0  0  0
  189.4020  177.1240  143.2880 C   0  0  0  0  0  0  0  0  0  0  0  0
  187.3200  178.0590  142.4770 C   0  0  0  0  0  0  0  0  0  0  0  0
  190.3560  176.5420  144.2640 C   0  0  1  0  0  3  0  0  0  0  0  0
  189.2630  177.3360  146.3600 C   0  0  0  0  0  0  0  0  0  0  0  0
  188.0000  178.0130  145.9400 C   0  0  0  0  0  2  0  0  0  0  0  0
  187.3300  177.2280  144.8220 C   0  0  0  0  0  2  0  0  0  0  0  0
  191.6330  177.0980  146.2270 O   0  0  0  0  0  1  0  0  0  0  0  0
  187.9910  177.4940  143.4990 C   0  0  0  0  0  0  0  0  0  0  0  0
  187.9590  178.2830  141.2420 O   0  0  0  0  0  0  0  0  0  0  0  0
  189.5200  177.1890  139.7490 N   0  0  0  0  0  0  0  0  0  0  0  0
  190.8150  176.5350  139.8960 C   0  0  0  0  0  1  0  0  0  0  0  0
  187.0830  177.6460  138.0410 C   0  0  0  0  0  2  0  0  0  0  0  0
  188.1880  178.6850  138.2240 C   0  0  0  0  0  2  0  0  0  0  0  0
  190.1020  177.2930  137.3090 C   0  0  0  0  0  2  0  0  0  0  0  0
  186.9620  177.1480  136.5980 C   0  0  0  0  0  2  0  0  0  0  0  0
  189.2270  176.1980  136.9090 N   0  0  0  0  0  2  0  0  0  0  0  0
  189.5510  178.0390  138.5370 C   0  0  2  0  0  3  0  0  0  0  0  0
  188.2880  176.7500  135.9420 C   0  0  0  0  0  2  0  0  0  0  0  0
  185.8780  178.4250  142.6030 C   0  0  0  0  0  2  0  0  0  0  0  0
  185.5030  179.2940  141.4990 N   0  0  0  0  0  2  0  0  0  0  0  0
  184.4250  178.9830  140.6190 C   0  0  0  0  0  0  0  0  0  0  0  0
  184.0750  179.9100  139.5890 N   0  0  0  0  0  2  0  0  0  0  0  0
  183.7960  177.8970  140.7400 O   0  0  0  0  0  0  0  0  0  0  0  0
  183.0410  179.6360  138.6020 C   0  0  0  0  0  2  0  0  0  0  0  0
  181.8940  180.6130  138.7730 C   0  0  0  0  0  1  0  0  0  0  0  0
  2  3  1  0  0  0  0
  3  9  1  0  0  0  0
  4  2  1  0  0  0  0
  4  7  2  0  0  0  0
  5 16  1  6  0  0  0
  5 15  1  0  0  0  0
  5  4  1  0  0  0  0
  6 13  1  1  0  0  0
  6 10  1  0  0  0  0
  7 14  1  0  0  0  0
  8 25  1  0  0  0  0
  8 14  2  0  0  0  0
  9  7  1  6  0  0  0
  9  6  1  0  0  0  0
 10  1  2  0  0  0  0
 11 10  1  0  0  0  0
 12 11  1  0  0  0  0
 14 12  1  0  0  0  0
 15  8  1  0  0  0  0
 16 17  1  0  0  0  0
 18 19  1  0  0  0  0
 19 23  1  0  0  0  0
 20 23  1  0  0  0  0
 21 18  1  0  0  0  0
 22 20  1  0  0  0  0
 23 16  1  1  0  0  0
 24 21  1  0  0  0  0
 24 22  1  0  0  0  0
 26 25  1  0  0  0  0
 27 29  2  0  0  0  0
 27 26  1  0  0  0  0
 28 27  1  0  0  0  0
 30 31  1  0  0  0  0
 30 28  1  0  0  0  0
M  END
>  <MODEL>
4

>  <REMARK>
 VINA RESULT:      -8.7      1.225      1.750
  Name = 
  5 active torsions:
  status: ('A' for Active; 'I' for Inactive)
    1  A    between atoms: C_1  and  N_19
    2  A    between atoms: N_2  and  C_7
    3  A    between atoms: C_7  and  C_18
    4  A    between atoms: C_14  and  N_22
    5  A    between atoms: N_22  and  C_24
                            x       y       z     vdW  Elec       q    Type
                         _______ _______ _______ _____ _____    ______ ____

>  <TORSDO>
F 5

$$$$
=
 OpenBabel10222422063D

 31 34  0  0  1  0  0  0  0  0999 V2000
  180.4800  179.9010  141.3900 O   0  0  0  0  0  0  0  0  0  0  0  0
  185.6010  178.2470  140.1140 C   0  0  0  0  0  2  0  0  0  0  0  0
  184.4150  178.8500  139.6250 O   0  0  0  0  0  0  0  0  0  0  0  0
  185.5230  178.2740  141.5830 C   0  0  0  0  0  0  0  0  0  0  0  0
  186.4940  177.6770  142.5580 C   0  0  2  0  0  3  0  0  0  0  0  0
  182.2720  178.5050  140.7040 C   0  0  1  0  0  3  0  0  0  0  0  0
  184.3960  178.7980  141.9520 C   0  0  0  0  0  0  0  0  0  0  0  0
  184.8380  178.4130  144.3030 C   0  0  0  0  0  0  0  0  0  0  0  0
  183.6310  179.2100  140.7510 C   0  0  1  0  0  3  0  0  0  0  0  0
  181.3370  179.0960  141.7230 C   0  0  0  0  0  0  0  0  0  0  0  0
  181.5140  178.7710  143.1700 C   0  0  0  0  0  2  0  0  0  0  0  0
  182.6940  179.5430  143.7420 C   0  0  0  0  0  2  0  0  0  0  0  0
  181.7190  178.5980  139.4220 O   0  0  0  0  0  1  0  0  0  0  0  0
  183.9990  178.8990  143.3690 C   0  0  0  0  0  0  0  0  0  0  0  0
  186.0630  177.8290  143.9260 O   0  0  0  0  0  0  0  0  0  0  0  0
  187.8610  178.1750  142.3420 N   0  0  0  0  0  0  0  0  0  0  0  0
  187.7940  178.9390  141.1010 C   0  0  0  0  0  1  0  0  0  0  0  0
  189.2920  176.9310  144.6810 C   0  0  0  0  0  2  0  0  0  0  0  0
  188.9350  176.1630  143.4090 C   0  0  0  0  0  2  0  0  0  0  0  0
  190.2400  177.6050  141.7790 C   0  0  0  0  0  2  0  0  0  0  0  0
  190.8020  177.0510  144.9030 C   0  0  0  0  0  2  0  0  0  0  0  0
  190.8330  178.4130  142.8370 N   0  0  0  0  0  2  0  0  0  0  0  0
  188.8480  177.0840  142.1770 C   0  0  2  0  0  3  0  0  0  0  0  0
  191.5990  177.5020  143.6760 C   0  0  0  0  0  2  0  0  0  0  0  0
  184.5220  178.5140  145.7590 C   0  0  0  0  0  2  0  0  0  0  0  0
  185.5050  177.7600  146.5190 N   0  0  0  0  0  2  0  0  0  0  0  0
  186.4550  178.3950  147.3730 C   0  0  0  0  0  0  0  0  0  0  0  0
  187.3570  177.5890  148.1350 N   0  0  0  0  0  2  0  0  0  0  0  0
  186.5060  179.6530  147.4460 O   0  0  0  0  0  0  0  0  0  0  0  0
  188.4050  178.1570  148.9710 C   0  0  0  0  0  2  0  0  0  0  0  0
  189.7440  178.0400  148.2680 C   0  0  0  0  0  1  0  0  0  0  0  0
  1 10  2  0  0  0  0
  2  4  1  0  0  0  0
  3  2  1  0  0  0  0
  4  7  2  0  0  0  0
  4  5  1  0  0  0  0
  5 16  1  1  0  0  0
  5 15  1  0  0  0  0
  6 13  1  6  0  0  0
  6  9  1  0  0  0  0
  6 10  1  0  0  0  0
  7 14  1  0  0  0  0
  8 25  1  0  0  0  0
  9  3  1  6  0  0  0
  9  7  1  0  0  0  0
 10 11  1  0  0  0  0
 11 12  1  0  0  0  0
 14 12  1  0  0  0  0
 14  8  2  0  0  0  0
 15  8  1  0  0  0  0
 17 16  1  0  0  0  0
 18 21  1  0  0  0  0
 19 18  1  0  0  0  0
 20 23  1  0  0  0  0
 20 22  1  0  0  0  0
 22 24  1  0  0  0  0
 23 16  1  1  0  0  0
 23 19  1  0  0  0  0
 24 21  1  0  0  0  0
 25 26  1  0  0  0  0
 26 27  1  0  0  0  0
 27 29  2  0  0  0  0
 27 28  1  0  0  0  0
 28 30  1  0  0  0  0
 31 30  1  0  0  0  0
M  END
>  <MODEL>
5

>  <REMARK>
 VINA RESULT:      -7.7      2.611      6.911
  Name = 
  5 active torsions:
  status: ('A' for Active; 'I' for Inactive)
    1  A    between atoms: C_1  and  N_19
    2  A    between atoms: N_2  and  C_7
    3  A    between atoms: C_7  and  C_18
    4  A    between atoms: C_14  and  N_22
    5  A    between atoms: N_22  and  C_24
                            x       y       z     vdW  Elec       q    Type
                         _______ _______ _______ _____ _____    ______ ____

>  <TORSDO>
F 5

$$$$
=
 OpenBabel10222422063D

 31 34  0  0  1  0  0  0  0  0999 V2000
  191.6110  176.7760  143.1470 O   0  0  0  0  0  0  0  0  0  0  0  0
  190.6470  177.2610  137.7230 C   0  0  0  0  0  2  0  0  0  0  0  0
  191.5050  176.7160  138.7100 O   0  0  0  0  0  0  0  0  0  0  0  0
  189.4090  177.6690  138.4080 C   0  0  0  0  0  0  0  0  0  0  0  0
  188.2300  178.3800  137.8110 C   0  0  2  0  0  3  0  0  0  0  0  0
  191.6380  177.6510  140.9420 C   0  0  1  0  0  3  0  0  0  0  0  0
  189.5140  177.4360  139.6780 C   0  0  0  0  0  0  0  0  0  0  0  0
  187.3520  178.4140  140.1680 C   0  0  0  0  0  0  0  0  0  0  0  0
  190.8280  176.8070  139.9530 C   0  0  1  0  0  3  0  0  0  0  0  0
  191.0790  177.5140  142.3320 C   0  0  0  0  0  0  0  0  0  0  0  0
  189.8100  178.2140  142.6940 C   0  0  0  0  0  2  0  0  0  0  0  0
  188.6170  177.4820  142.0970 C   0  0  0  0  0  2  0  0  0  0  0  0
  192.9850  177.2720  140.9180 O   0  0  0  0  0  1  0  0  0  0  0  0
  188.4560  177.8020  140.6380 C   0  0  0  0  0  0  0  0  0  0  0  0
  187.2200  178.6880  138.7930 O   0  0  0  0  0  0  0  0  0  0  0  0
  187.6830  177.6540  136.6540 N   0  0  0  0  0  0  0  0  0  0  0  0
  187.0110  178.6700  135.8530 C   0  0  0  0  0  1  0  0  0  0  0  0
  188.1420  174.7190  136.1620 C   0  0  0  0  0  2  0  0  0  0  0  0
  187.3410  175.2570  137.3460 C   0  0  0  0  0  2  0  0  0  0  0  0
  185.5610  176.4770  136.0100 C   0  0  0  0  0  2  0  0  0  0  0  0
  187.2960  173.8860  135.1960 C   0  0  0  0  0  2  0  0  0  0  0  0
  186.0580  175.9790  134.7330 N   0  0  0  0  0  2  0  0  0  0  0  0
  186.6940  176.6220  137.0410 C   0  0  2  0  0  3  0  0  0  0  0  0
  185.9650  174.5270  134.7900 C   0  0  0  0  0  2  0  0  0  0  0  0
  186.2240  178.7810  141.0740 C   0  0  0  0  0  2  0  0  0  0  0  0
  185.2320  179.5380  140.3260 N   0  0  0  0  0  2  0  0  0  0  0  0
  183.9760  178.9780  139.9470 C   0  0  0  0  0  0  0  0  0  0  0  0
  183.0260  179.7970  139.2620 N   0  0  0  0  0  2  0  0  0  0  0  0
  183.7120  177.7720  140.2030 O   0  0  0  0  0  0  0  0  0  0  0  0
  181.7540  179.2850  138.7730 C   0  0  0  0  0  2  0  0  0  0  0  0
  181.3800  179.9840  137.4800 C   0  0  0  0  0  1  0  0  0  0  0  0
  2  4  1  0  0  0  0
  2  3  1  0  0  0  0
  4  7  2  0  0  0  0
  5 16  1  6  0  0  0
  5  4  1  0  0  0  0
  5 15  1  0  0  0  0
  6 13  1  1  0  0  0
  6 10  1  0  0  0  0
  7  9  1  0  0  0  0
  7 14  1  0  0  0  0
  8 14  2  0  0  0  0
  8 25  1  0  0  0  0
  9  3  1  6  0  0  0
  9  6  1  0  0  0  0
 10 11  1  0  0  0  0
 10  1  2  0  0  0  0
 12 11  1  0  0  0  0
 14 12  1  0  0  0  0
 15  8  1  0  0  0  0
 17 16  1  0  0  0  0
 18 19  1  0  0  0  0
 20 23  1  0  0  0  0
 21 18  1  0  0  0  0
 22 24  1  0  0  0  0
 22 20  1  0  0  0  0
 23 16  1  6  0  0  0
 23 19  1  0  0  0  0
 24 21  1  0  0  0  0
 26 25  1  0  0  0  0
 27 29  2  0  0  0  0
 27 26  1  0  0  0  0
 28 27  1  0  0  0  0
 30 28  1  0  0  0  0
 31 30  1  0  0  0  0
M  END
>  <MODEL>
6

>  <REMARK>
 VINA RESULT:      -7.7      3.144      5.032
  Name = 
  5 active torsions:
  status: ('A' for Active; 'I' for Inactive)
    1  A    between atoms: C_1  and  N_19
    2  A    between atoms: N_2  and  C_7
    3  A    between atoms: C_7  and  C_18
    4  A    between atoms: C_14  and  N_22
    5  A    between atoms: N_22  and  C_24
                            x       y       z     vdW  Elec       q    Type
                         _______ _______ _______ _____ _____    ______ ____

>  <TORSDO>
F 5

$$$$
=
 OpenBabel10222422063D

 31 34  0  0  1  0  0  0  0  0999 V2000
  189.6640  178.2260  148.0640 O   0  0  0  0  0  0  0  0  0  0  0  0
  184.6230  178.4230  145.7990 C   0  0  0  0  0  2  0  0  0  0  0  0
  185.3980  178.7270  146.9460 O   0  0  0  0  0  0  0  0  0  0  0  0
  185.5660  178.1560  144.7010 C   0  0  0  0  0  0  0  0  0  0  0  0
  185.2390  177.7050  143.3080 C   0  0  2  0  0  3  0  0  0  0  0  0
  187.4750  177.5730  147.4230 C   0  0  1  0  0  3  0  0  0  0  0  0
  186.7830  178.2470  145.1370 C   0  0  0  0  0  0  0  0  0  0  0  0
  187.7330  177.5880  143.0090 C   0  0  0  0  0  0  0  0  0  0  0  0
  186.7620  178.6270  146.5710 C   0  0  1  0  0  3  0  0  0  0  0  0
  188.9650  177.6640  147.2350 C   0  0  0  0  0  0  0  0  0  0  0  0
  189.5880  177.1470  145.9790 C   0  0  0  0  0  2  0  0  0  0  0  0
  189.3420  178.1150  144.8320 C   0  0  0  0  0  2  0  0  0  0  0  0
  187.1430  177.7310  148.7720 O   0  0  0  0  0  1  0  0  0  0  0  0
  187.9510  177.9660  144.2830 C   0  0  0  0  0  0  0  0  0  0  0  0
  186.4200  177.4710  142.5150 O   0  0  0  0  0  0  0  0  0  0  0  0
  184.2910  178.6170  142.6480 N   0  0  0  0  0  0  0  0  0  0  0  0
  183.4430  179.1240  143.7200 C   0  0  0  0  0  1  0  0  0  0  0  0
  184.4730  179.2000  139.6990 C   0  0  0  0  0  2  0  0  0  0  0  0
  184.1010  177.8300  140.2630 C   0  0  0  0  0  2  0  0  0  0  0  0
  182.0350  178.5530  141.5470 C   0  0  0  0  0  2  0  0  0  0  0  0
  183.3400  179.8450  138.8980 C   0  0  0  0  0  2  0  0  0  0  0  0
  182.0910  179.9170  141.0340 N   0  0  0  0  0  2  0  0  0  0  0  0
  183.4390  177.9300  141.6500 C   0  0  2  0  0  3  0  0  0  0  0  0
  181.9710  179.8210  139.5860 C   0  0  0  0  0  2  0  0  0  0  0  0
  188.8660  177.3220  142.0730 C   0  0  0  0  0  2  0  0  0  0  0  0
  188.9070  178.3620  141.0580 N   0  0  0  0  0  2  0  0  0  0  0  0
  188.9150  178.0630  139.6630 C   0  0  0  0  0  0  0  0  0  0  0  0
  188.8990  179.1360  138.7190 N   0  0  0  0  0  2  0  0  0  0  0  0
  188.9480  176.8660  139.2680 O   0  0  0  0  0  0  0  0  0  0  0  0
  188.9820  178.9210  137.2820 C   0  0  0  0  0  2  0  0  0  0  0  0
  187.5890  178.7800  136.7000 C   0  0  0  0  0  1  0  0  0  0  0  0
  2  3  1  0  0  0  0
  4  7  2  0  0  0  0
  4  2  1  0  0  0  0
  5 16  1  6  0  0  0
  5  4  1  0  0  0  0
  6 13  1  1  0  0  0
  8 14  2  0  0  0  0
  9  7  1  6  0  0  0
  9  3  1  0  0  0  0
  9  6  1  0  0  0  0
 10  6  1  0  0  0  0
 10  1  2  0  0  0  0
 11 10  1  0  0  0  0
 12 11  1  0  0  0  0
 14 12  1  0  0  0  0
 14  7  1  0  0  0  0
 15  8  1  0  0  0  0
 15  5  1  0  0  0  0
 16 17  1  0  0  0  0
 18 19  1  0  0  0  0
 19 23  1  0  0  0  0
 20 23  1  0  0  0  0
 21 24  1  0  0  0  0
 21 18  1  0  0  0  0
 22 20  1  0  0  0  0
 23 16  1  1  0  0  0
 24 22  1  0  0  0  0
 25  8  1  0  0  0  0
 26 25  1  0  0  0  0
 27 26  1  0  0  0  0
 28 27  1  0  0  0  0
 29 27  2  0  0  0  0
 30 28  1  0  0  0  0
 31 30  1  0  0  0  0
M  END
>  <MODEL>
7

>  <REMARK>
 VINA RESULT:      -7.7      1.677      5.207
  Name = 
  5 active torsions:
  status: ('A' for Active; 'I' for Inactive)
    1  A    between atoms: C_1  and  N_19
    2  A    between atoms: N_2  and  C_7
    3  A    between atoms: C_7  and  C_18
    4  A    between atoms: C_14  and  N_22
    5  A    between atoms: N_22  and  C_24
                            x       y       z     vdW  Elec       q    Type
                         _______ _______ _______ _____ _____    ______ ____

>  <TORSDO>
F 5

$$$$
=
 OpenBabel10222422063D

 31 34  0  0  1  0  0  0  0  0999 V2000
  187.5610  177.2140  135.1480 O   0  0  0  0  0  0  0  0  0  0  0  0
  188.0640  178.5180  140.4990 C   0  0  0  0  0  2  0  0  0  0  0  0
  187.1720  178.4180  139.4030 O   0  0  0  0  0  0  0  0  0  0  0  0
  189.2810  177.7750  140.1320 C   0  0  0  0  0  0  0  0  0  0  0  0
  190.5510  177.6580  140.9220 C   0  0  2  0  0  3  0  0  0  0  0  0
  187.9560  178.4880  137.1110 C   0  0  1  0  0  3  0  0  0  0  0  0
  189.1620  177.3070  138.9290 C   0  0  0  0  0  0  0  0  0  0  0  0
  191.4090  176.4020  138.9200 C   0  0  0  0  0  0  0  0  0  0  0  0
  187.8260  177.6640  138.3950 C   0  0  1  0  0  3  0  0  0  0  0  0
  188.3800  177.6110  135.9630 C   0  0  0  0  0  0  0  0  0  0  0  0
  189.7950  177.1440  135.8700 C   0  0  0  0  0  2  0  0  0  0  0  0
  190.0480  176.0270  136.8710 C   0  0  0  0  0  2  0  0  0  0  0  0
  186.7470  179.1270  136.8160 O   0  0  0  0  0  1  0  0  0  0  0  0
  190.2500  176.5730  138.2560 C   0  0  0  0  0  0  0  0  0  0  0  0
  191.5660  176.9110  140.2230 O   0  0  0  0  0  0  0  0  0  0  0  0
  190.3050  177.1410  142.2770 N   0  0  0  0  0  0  0  0  0  0  0  0
  189.0520  176.4010  142.1790 C   0  0  0  0  0  1  0  0  0  0  0  0
  191.6090  177.0240  144.9890 C   0  0  0  0  0  2  0  0  0  0  0  0
  191.3460  178.3280  144.2390 C   0  0  0  0  0  2  0  0  0  0  0  0
  188.8240  178.1020  144.0630 C   0  0  0  0  0  2  0  0  0  0  0  0
  190.8210  176.9160  146.2970 C   0  0  0  0  0  2  0  0  0  0  0  0
  188.7900  176.8970  144.8810 N   0  0  0  0  0  2  0  0  0  0  0  0
  190.1450  178.2180  143.2800 C   0  0  2  0  0  3  0  0  0  0  0  0
  189.3330  177.2630  146.1820 C   0  0  0  0  0  2  0  0  0  0  0  0
  192.5420  175.6370  138.3180 C   0  0  0  0  0  2  0  0  0  0  0  0
  193.4780  176.5660  137.7040 N   0  0  0  0  0  2  0  0  0  0  0  0
  194.0370  176.3380  136.4120 C   0  0  0  0  0  0  0  0  0  0  0  0
  194.9070  177.3200  135.8450 N   0  0  0  0  0  2  0  0  0  0  0  0
  193.7760  175.2770  135.7830 O   0  0  0  0  0  0  0  0  0  0  0  0
  195.5800  177.1330  134.5680 C   0  0  0  0  0  2  0  0  0  0  0  0
  196.8740  176.3700  134.7740 C   0  0  0  0  0  1  0  0  0  0  0  0
  1 10  2  0  0  0  0
  3  2  1  0  0  0  0
  4  2  1  0  0  0  0
  4  5  1  0  0  0  0
  5 16  1  1  0  0  0
  6 13  1  6  0  0  0
  6  9  1  0  0  0  0
  7  4  2  0  0  0  0
  8 15  1  0  0  0  0
  9  7  1  1  0  0  0
  9  3  1  0  0  0  0
 10  6  1  0  0  0  0
 11 10  1  0  0  0  0
 11 12  1  0  0  0  0
 12 14  1  0  0  0  0
 14  8  2  0  0  0  0
 14  7  1  0  0  0  0
 15  5  1  0  0  0  0
 17 16  1  0  0  0  0
 18 21  1  0  0  0  0
 19 18  1  0  0  0  0
 20 22  1  0  0  0  0
 22 24  1  0  0  0  0
 23 16  1  1  0  0  0
 23 20  1  0  0  0  0
 23 19  1  0  0  0  0
 24 21  1  0  0  0  0
 25  8  1  0  0  0  0
 26 25  1  0  0  0  0
 27 26  1  0  0  0  0
 28 27  1  0  0  0  0
 29 27  2  0  0  0  0
 30 31  1  0  0  0  0
 30 28  1  0  0  0  0
M  END
>  <MODEL>
8

>  <REMARK>
 VINA RESULT:      -7.7      3.744      8.861
  Name = 
  5 active torsions:
  status: ('A' for Active; 'I' for Inactive)
    1  A    between atoms: C_1  and  N_19
    2  A    between atoms: N_2  and  C_7
    3  A    between atoms: C_7  and  C_18
    4  A    between atoms: C_14  and  N_22
    5  A    between atoms: N_22  and  C_24
                            x       y       z     vdW  Elec       q    Type
                         _______ _______ _______ _____ _____    ______ ____

>  <TORSDO>
F 5

$$$$
=
 OpenBabel10222422063D

 31 34  0  0  1  0  0  0  0  0999 V2000
  190.8840  177.3340  138.9970 O   0  0  0  0  0  0  0  0  0  0  0  0
  187.3420  175.0870  135.3920 C   0  0  0  0  0  2  0  0  0  0  0  0
  188.6170  174.9710  135.9990 O   0  0  0  0  0  0  0  0  0  0  0  0
  186.5700  176.0520  136.1920 C   0  0  0  0  0  0  0  0  0  0  0  0
  185.1950  176.5780  135.9070 C   0  0  2  0  0  3  0  0  0  0  0  0
  189.7500  176.8850  136.9610 C   0  0  1  0  0  3  0  0  0  0  0  0
  187.3050  176.5060  137.1580 C   0  0  0  0  0  0  0  0  0  0  0  0
  185.5890  178.0390  137.9170 C   0  0  0  0  0  0  0  0  0  0  0  0
  188.6340  175.8480  137.1140 C   0  0  1  0  0  3  0  0  0  0  0  0
  189.9600  177.6270  138.2540 C   0  0  0  0  0  0  0  0  0  0  0  0
  188.9780  178.6690  138.6800 C   0  0  0  0  0  2  0  0  0  0  0  0
  187.7130  178.0130  139.2130 C   0  0  0  0  0  2  0  0  0  0  0  0
  190.9370  176.2680  136.5540 O   0  0  0  0  0  1  0  0  0  0  0  0
  186.8290  177.5430  138.0920 C   0  0  0  0  0  0  0  0  0  0  0  0
  184.7760  177.5690  136.8670 O   0  0  0  0  0  0  0  0  0  0  0  0
  184.2140  175.4920  135.7580 N   0  0  0  0  0  0  0  0  0  0  0  0
  183.1310  176.0650  134.9670 C   0  0  0  0  0  1  0  0  0  0  0  0
  184.6340  172.6930  136.7880 C   0  0  0  0  0  2  0  0  0  0  0  0
  184.5040  173.9130  137.6980 C   0  0  0  0  0  2  0  0  0  0  0  0
  182.1850  174.6290  136.9580 C   0  0  0  0  0  2  0  0  0  0  0  0
  183.4970  171.6860  136.9710 C   0  0  0  0  0  2  0  0  0  0  0  0
  182.0040  173.4600  136.1060 N   0  0  0  0  0  2  0  0  0  0  0  0
  183.6660  175.0350  137.0560 C   0  0  2  0  0  3  0  0  0  0  0  0
  182.0920  172.2950  136.9750 C   0  0  0  0  0  2  0  0  0  0  0  0
  185.0250  179.0630  138.8450 C   0  0  0  0  0  2  0  0  0  0  0  0
  184.4670  178.4000  140.0120 N   0  0  0  0  0  2  0  0  0  0  0  0
  184.8060  178.7890  141.3420 C   0  0  0  0  0  0  0  0  0  0  0  0
  184.1770  178.1310  142.4440 N   0  0  0  0  0  2  0  0  0  0  0  0
  185.6610  179.6940  141.5430 O   0  0  0  0  0  0  0  0  0  0  0  0
  184.5210  178.4130  143.8300 C   0  0  0  0  0  2  0  0  0  0  0  0
  183.3170  178.9820  144.5550 C   0  0  0  0  0  1  0  0  0  0  0  0
  2  3  1  0  0  0  0
  2  4  1  0  0  0  0
  4  7  2  0  0  0  0
  5 16  1  1  0  0  0
  5  4  1  0  0  0  0
  5 15  1  0  0  0  0
  6 13  1  1  0  0  0
  6  9  1  0  0  0  0
  6 10  1  0  0  0  0
  7 14  1  0  0  0  0
  8 14  2  0  0  0  0
  8 25  1  0  0  0  0
  9  3  1  6  0  0  0
  9  7  1  0  0  0  0
 10 11  1  0  0  0  0
 10  1  2  0  0  0  0
 11 12  1  0  0  0  0
 14 12  1  0  0  0  0
 15  8  1  0  0  0  0
 17 16  1  0  0  0  0
 18 21  1  0  0  0  0
 18 19  1  0  0  0  0
 20 23  1  0  0  0  0
 21 24  1  0  0  0  0
 22 20  1  0  0  0  0
 22 24  1  0  0  0  0
 23 16  1  6  0  0  0
 23 19  1  0  0  0  0
 25 26  1  0  0  0  0
 26 27  1  0  0  0  0
 27 29  2  0  0  0  0
 27 28  1  0  0  0  0
 28 30  1  0  0  0  0
 30 31  1  0  0  0  0
M  END
>  <MODEL>
9

>  <REMARK>
 VINA RESULT:      -7.4      4.207      7.819
  Name = 
  5 active torsions:
  status: ('A' for Active; 'I' for Inactive)
    1  A    between atoms: C_1  and  N_19
    2  A    between atoms: N_2  and  C_7
    3  A    between atoms: C_7  and  C_18
    4  A    between atoms: C_14  and  N_22
    5  A    between atoms: N_22  and  C_24
                            x       y       z     vdW  Elec       q    Type
                         _______ _______ _______ _____ _____    ______ ____

>  <TORSDO>
F 5

$$$$
