=
 OpenBabel10232410143D

 41 47  0  0  1  0  0  0  0  0999 V2000
  187.8470  177.4460  138.7260 C   0  0  0  0  0  2  0  0  0  0  0  0
  189.2860  177.3040  138.2450 C   0  0  0  0  0  2  0  0  0  0  0  0
  190.0630  177.7660  140.6630 C   0  0  2  0  0  3  0  0  0  0  0  0
  187.7700  178.4600  139.8670 C   0  0  2  0  0  3  0  0  0  0  0  0
  191.2170  176.1590  139.2230 N   0  0  0  0  0  0  0  0  0  0  0  0
  188.5940  177.9460  141.0470 C   0  0  0  0  0  2  0  0  0  0  0  0
  190.1960  176.9500  139.3920 C   0  0  0  0  0  0  0  0  0  0  0  0
  193.4710  176.5940  137.2520 N   0  0  0  0  0  0  0  0  0  0  0  0
  193.7740  175.3300  135.4390 O   0  0  0  0  0  0  0  0  0  0  0  0
  192.7360  174.8690  136.0820 C   0  0  0  0  0  0  0  0  0  0  0  0
  190.6340  174.3400  137.7330 N   0  0  0  0  0  0  0  0  0  0  0  0
  190.8190  173.5690  136.6140 C   0  0  0  0  0  3  0  0  0  0  0  0
  192.5490  175.6190  137.1960 C   0  0  0  0  0  0  0  0  0  0  0  0
  191.4860  175.3550  138.0660 C   0  0  0  0  0  0  0  0  0  0  0  0
  191.8960  173.8150  135.7430 C   0  0  0  0  0  3  0  0  0  0  0  0
  194.2160  176.3640  136.1380 C   0  0  0  0  0  3  0  0  0  0  0  0
  183.0460  178.0120  139.5620 C   0  0  0  0  0  2  0  0  0  0  0  0
  184.9640  178.0720  138.1870 C   0  0  0  0  0  3  0  0  0  0  0  0
  186.3480  178.6980  140.2880 C   0  0  0  0  0  0  0  0  0  0  0  0
  184.1540  178.6300  140.2530 N   0  0  0  0  0  0  0  0  0  0  0  0
  183.6700  177.7200  138.2130 C   0  0  0  0  0  3  0  0  0  0  0  0
  185.2250  178.6400  139.4940 C   0  0  0  0  0  0  0  0  0  0  0  0
  185.8350  178.6510  141.5900 C   0  0  0  0  0  3  0  0  0  0  0  0
  184.4810  178.5780  141.5310 N   0  0  0  0  0  0  0  0  0  0  0  0
  191.1600  176.6360  144.6680 C   0  0  0  0  0  0  0  0  0  0  0  0
  190.9050  178.0710  144.3000 C   0  0  0  0  0  2  0  0  0  0  0  0
  190.1190  176.0410  142.5300 C   0  0  0  0  0  2  0  0  0  0  0  0
  190.8030  175.6690  143.8140 C   0  0  0  0  0  3  0  0  0  0  0  0
  191.3100  178.3320  142.8440 C   0  0  0  0  0  2  0  0  0  0  0  0
  190.8450  177.2230  141.8670 C   0  0  2  0  0  3  0  0  0  0  0  0
  191.9030  176.2970  145.9160 C   0  0  0  0  0  2  0  0  0  0  0  0
  191.1450  176.8130  147.1240 C   0  0  0  0  0  2  0  0  0  0  0  0
  189.7710  176.3420  147.0720 N   0  0  0  0  0  2  0  0  0  0  0  0
  187.9300  176.6730  144.8610 F   0  0  0  0  0  0  0  0  0  0  0  0
  188.6150  177.1880  147.1200 C   0  0  0  0  0  0  0  0  0  0  0  0
  186.6140  178.1740  146.1430 C   0  0  0  0  0  0  0  0  0  0  0  0
  187.7300  177.3340  146.0290 C   0  0  0  0  0  0  0  0  0  0  0  0
  188.3590  177.8870  148.3050 C   0  0  0  0  0  3  0  0  0  0  0  0
  185.7610  178.3210  145.1000 F   0  0  0  0  0  0  0  0  0  0  0  0
  187.2450  178.7220  148.4140 C   0  0  0  0  0  3  0  0  0  0  0  0
  186.3730  178.8650  147.3330 C   0  0  0  0  0  3  0  0  0  0  0  0
  1  4  1  0  0  0  0
  2  1  1  0  0  0  0
  2  7  1  0  0  0  0
  3  6  1  1  0  0  0
  3 30  1  0  0  0  0
  4 19  1  1  0  0  0
  4  6  1  0  0  0  0
  5  7  2  0  0  0  0
  7  3  1  0  0  0  0
  9 10  1  0  0  0  0
  9 16  1  0  0  0  0
 10 13  2  0  0  0  0
 11 14  2  0  0  0  0
 12 11  1  0  0  0  0
 13  8  1  0  0  0  0
 13 14  1  0  0  0  0
 14  5  1  0  0  0  0
 15 10  1  0  0  0  0
 15 12  2  0  0  0  0
 16  8  2  0  0  0  0
 17 20  1  0  0  0  0
 18 21  2  0  0  0  0
 18 22  1  0  0  0  0
 19 23  1  0  0  0  0
 20 24  1  0  0  0  0
 21 17  1  0  0  0  0
 22 20  1  0  0  0  0
 22 19  2  0  0  0  0
 24 23  2  0  0  0  0
 25 31  1  0  0  0  0
 26 25  1  0  0  0  0
 27 28  1  0  0  0  0
 28 25  2  0  0  0  0
 29 26  1  0  0  0  0
 30 27  1  1  0  0  0
 30 29  1  0  0  0  0
 31 32  1  0  0  0  0
 33 35  1  0  0  0  0
 33 32  1  0  0  0  0
 34 37  1  0  0  0  0
 35 38  1  0  0  0  0
 36 41  2  0  0  0  0
 37 36  1  0  0  0  0
 37 35  2  0  0  0  0
 38 40  2  0  0  0  0
 39 36  1  0  0  0  0
 41 40  1  0  0  0  0
M  END
>  <MODEL>
1

>  <REMARK>
 VINA RESULT:     -10.0      0.000      0.000
  Name = 
  7 active torsions:
  status: ('A' for Active; 'I' for Inactive)
    1  A    between atoms: C_5  and  C_6
    2  A    between atoms: C_5  and  C_12
    3  A    between atoms: C_12  and  N_14
    4  A    between atoms: N_14  and  C_16
    5  A    between atoms: C_15  and  C_31
    6  A    between atoms: C_26  and  C_37
    7  A    between atoms: C_30  and  N_36
                            x       y       z     vdW  Elec       q    Type
                         _______ _______ _______ _____ _____    ______ ____

>  <TORSDO>
F 7

$$$$
=
 OpenBabel10232410143D

 41 47  0  0  1  0  0  0  0  0999 V2000
  185.6580  178.5160  143.4930 C   0  0  0  0  0  2  0  0  0  0  0  0
  185.3860  179.3090  142.2200 C   0  0  0  0  0  2  0  0  0  0  0  0
  187.6130  178.4120  141.2710 C   0  0  2  0  0  3  0  0  0  0  0  0
  187.1620  178.4380  143.7550 C   0  0  2  0  0  3  0  0  0  0  0  0
  185.6400  178.7220  139.8570 N   0  0  0  0  0  0  0  0  0  0  0  0
  187.8320  177.6910  142.6020 C   0  0  0  0  0  2  0  0  0  0  0  0
  186.1440  178.7240  141.0590 C   0  0  0  0  0  0  0  0  0  0  0  0
  183.3470  176.7490  139.7810 N   0  0  0  0  0  0  0  0  0  0  0  0
  181.2780  177.3000  139.1560 O   0  0  0  0  0  0  0  0  0  0  0  0
  182.0150  178.3750  139.0980 C   0  0  0  0  0  0  0  0  0  0  0  0
  183.9580  180.2850  139.0830 N   0  0  0  0  0  0  0  0  0  0  0  0
  182.6870  180.6180  138.6930 C   0  0  0  0  0  3  0  0  0  0  0  0
  183.2740  178.0580  139.4910 C   0  0  0  0  0  0  0  0  0  0  0  0
  184.2830  179.0260  139.5060 C   0  0  0  0  0  0  0  0  0  0  0  0
  181.6600  179.6560  138.6930 C   0  0  0  0  0  3  0  0  0  0  0  0
  182.0740  176.3230  139.5650 C   0  0  0  0  0  3  0  0  0  0  0  0
  189.9340  176.9090  147.3030 C   0  0  0  0  0  2  0  0  0  0  0  0
  190.0080  177.3210  144.9800 C   0  0  0  0  0  3  0  0  0  0  0  0
  187.4530  177.7530  145.0590 C   0  0  0  0  0  0  0  0  0  0  0  0
  188.6020  176.9400  146.7450 N   0  0  0  0  0  0  0  0  0  0  0  0
  190.7760  177.1310  146.0630 C   0  0  0  0  0  3  0  0  0  0  0  0
  188.6460  177.1940  145.4580 C   0  0  0  0  0  0  0  0  0  0  0  0
  186.7280  177.8690  146.2520 C   0  0  0  0  0  3  0  0  0  0  0  0
  187.4790  177.3880  147.2750 N   0  0  0  0  0  0  0  0  0  0  0  0
  190.3880  177.1200  138.2470 C   0  0  0  0  0  0  0  0  0  0  0  0
  189.6930  178.4500  138.1570 C   0  0  0  0  0  2  0  0  0  0  0  0
  189.6320  177.0310  140.5760 C   0  0  0  0  0  2  0  0  0  0  0  0
  190.3420  176.4350  139.3960 C   0  0  0  0  0  3  0  0  0  0  0  0
  188.2980  178.3700  138.7890 C   0  0  0  0  0  2  0  0  0  0  0  0
  188.2770  177.6140  140.1410 C   0  0  2  0  0  3  0  0  0  0  0  0
  191.0260  176.5180  137.0400 C   0  0  0  0  0  2  0  0  0  0  0  0
  190.5920  175.0730  136.8930 C   0  0  0  0  0  2  0  0  0  0  0  0
  189.5040  174.9870  135.9340 N   0  0  0  0  0  2  0  0  0  0  0  0
  188.9800  177.3520  134.3470 F   0  0  0  0  0  0  0  0  0  0  0  0
  188.2870  175.7410  136.0080 C   0  0  0  0  0  0  0  0  0  0  0  0
  186.8390  177.5810  135.3420 C   0  0  0  0  0  0  0  0  0  0  0  0
  188.0530  176.8920  135.2240 C   0  0  0  0  0  0  0  0  0  0  0  0
  187.2950  175.3040  136.8940 C   0  0  0  0  0  3  0  0  0  0  0  0
  186.6070  178.6870  134.5940 F   0  0  0  0  0  0  0  0  0  0  0  0
  186.0870  175.9940  137.0060 C   0  0  0  0  0  3  0  0  0  0  0  0
  185.8590  177.1320  136.2310 C   0  0  0  0  0  3  0  0  0  0  0  0
  1  4  1  0  0  0  0
  2  1  1  0  0  0  0
  3  6  1  1  0  0  0
  4 19  1  1  0  0  0
  5  7  2  0  0  0  0
  6  4  1  0  0  0  0
  7  3  1  0  0  0  0
  7  2  1  0  0  0  0
  9 16  1  0  0  0  0
 10  9  1  0  0  0  0
 10 13  2  0  0  0  0
 11 14  2  0  0  0  0
 12 15  2  0  0  0  0
 12 11  1  0  0  0  0
 13 14  1  0  0  0  0
 13  8  1  0  0  0  0
 14  5  1  0  0  0  0
 15 10  1  0  0  0  0
 16  8  2  0  0  0  0
 18 22  1  0  0  0  0
 18 21  2  0  0  0  0
 19 22  2  0  0  0  0
 19 23  1  0  0  0  0
 20 24  1  0  0  0  0
 20 17  1  0  0  0  0
 21 17  1  0  0  0  0
 22 20  1  0  0  0  0
 23 24  2  0  0  0  0
 25 28  2  0  0  0  0
 26 25  1  0  0  0  0
 26 29  1  0  0  0  0
 28 27  1  0  0  0  0
 30 29  1  6  0  0  0
 30 27  1  0  0  0  0
 30  3  1  0  0  0  0
 31 25  1  0  0  0  0
 32 31  1  0  0  0  0
 33 35  1  0  0  0  0
 33 32  1  0  0  0  0
 34 37  1  0  0  0  0
 35 38  1  0  0  0  0
 36 41  2  0  0  0  0
 37 36  1  0  0  0  0
 37 35  2  0  0  0  0
 38 40  2  0  0  0  0
 39 36  1  0  0  0  0
 41 40  1  0  0  0  0
M  END
>  <MODEL>
2

>  <REMARK>
 VINA RESULT:      -9.5      3.592      8.811
  Name = 
  7 active torsions:
  status: ('A' for Active; 'I' for Inactive)
    1  A    between atoms: C_5  and  C_6
    2  A    between atoms: C_5  and  C_12
    3  A    between atoms: C_12  and  N_14
    4  A    between atoms: N_14  and  C_16
    5  A    between atoms: C_15  and  C_31
    6  A    between atoms: C_26  and  C_37
    7  A    between atoms: C_30  and  N_36
                            x       y       z     vdW  Elec       q    Type
                         _______ _______ _______ _____ _____    ______ ____

>  <TORSDO>
F 7

$$$$
=
 OpenBabel10232410143D

 41 47  0  0  1  0  0  0  0  0999 V2000
  185.6660  178.5110  143.4730 C   0  0  0  0  0  2  0  0  0  0  0  0
  185.3890  179.3140  142.2080 C   0  0  0  0  0  2  0  0  0  0  0  0
  187.5960  178.3990  141.2300 C   0  0  2  0  0  3  0  0  0  0  0  0
  187.1720  178.4170  143.7190 C   0  0  2  0  0  3  0  0  0  0  0  0
  185.6110  178.7360  139.8390 N   0  0  0  0  0  0  0  0  0  0  0  0
  187.8220  177.6690  142.5550 C   0  0  0  0  0  2  0  0  0  0  0  0
  186.1280  178.7270  141.0350 C   0  0  0  0  0  0  0  0  0  0  0  0
  183.2840  176.8020  139.8480 N   0  0  0  0  0  0  0  0  0  0  0  0
  181.2140  177.3740  139.2460 O   0  0  0  0  0  0  0  0  0  0  0  0
  181.9680  178.4340  139.1500 C   0  0  0  0  0  0  0  0  0  0  0  0
  183.9430  180.3090  139.0560 N   0  0  0  0  0  0  0  0  0  0  0  0
  182.6710  180.6550  138.6810 C   0  0  0  0  0  3  0  0  0  0  0  0
  183.2280  178.1050  139.5290 C   0  0  0  0  0  0  0  0  0  0  0  0
  184.2540  179.0550  139.5030 C   0  0  0  0  0  0  0  0  0  0  0  0
  181.6290  179.7120  138.7200 C   0  0  0  0  0  3  0  0  0  0  0  0
  182.0010  176.3940  139.6640 C   0  0  0  0  0  3  0  0  0  0  0  0
  189.9600  176.8770  147.2490 C   0  0  0  0  0  2  0  0  0  0  0  0
  190.0270  177.3100  144.9300 C   0  0  0  0  0  3  0  0  0  0  0  0
  187.4690  177.7230  145.0170 C   0  0  0  0  0  0  0  0  0  0  0  0
  188.6270  176.9040  146.6930 N   0  0  0  0  0  0  0  0  0  0  0  0
  190.7980  177.1160  146.0100 C   0  0  0  0  0  3  0  0  0  0  0  0
  188.6670  177.1690  145.4080 C   0  0  0  0  0  0  0  0  0  0  0  0
  186.7460  177.8230  146.2120 C   0  0  0  0  0  3  0  0  0  0  0  0
  187.5020  177.3380  147.2290 N   0  0  0  0  0  0  0  0  0  0  0  0
  190.2780  177.1460  138.1070 C   0  0  0  0  0  0  0  0  0  0  0  0
  189.5210  178.4420  138.0180 C   0  0  0  0  0  2  0  0  0  0  0  0
  189.6390  177.0890  140.4720 C   0  0  0  0  0  2  0  0  0  0  0  0
  190.3170  176.4920  139.2740 C   0  0  0  0  0  3  0  0  0  0  0  0
  188.1630  178.3190  138.7190 C   0  0  0  0  0  2  0  0  0  0  0  0
  188.2400  177.6000  140.0890 C   0  0  2  0  0  3  0  0  0  0  0  0
  190.8830  176.5400  136.8860 C   0  0  0  0  0  2  0  0  0  0  0  0
  190.2260  175.2060  136.5910 C   0  0  0  0  0  2  0  0  0  0  0  0
  189.1920  175.3850  135.5850 N   0  0  0  0  0  2  0  0  0  0  0  0
  187.2630  174.0490  137.2800 F   0  0  0  0  0  0  0  0  0  0  0  0
  187.8770  175.8910  135.8440 C   0  0  0  0  0  0  0  0  0  0  0  0
  185.6820  175.7750  136.8920 C   0  0  0  0  0  0  0  0  0  0  0  0
  186.9510  175.2230  136.6750 C   0  0  0  0  0  0  0  0  0  0  0  0
  187.5090  177.1030  135.2490 C   0  0  0  0  0  3  0  0  0  0  0  0
  184.7870  175.1380  137.6870 F   0  0  0  0  0  0  0  0  0  0  0  0
  186.2420  177.6490  135.4690 C   0  0  0  0  0  3  0  0  0  0  0  0
  185.3300  176.9850  136.2900 C   0  0  0  0  0  3  0  0  0  0  0  0
  1  4  1  0  0  0  0
  2  1  1  0  0  0  0
  3  6  1  1  0  0  0
  4 19  1  1  0  0  0
  5  7  2  0  0  0  0
  6  4  1  0  0  0  0
  7  3  1  0  0  0  0
  7  2  1  0  0  0  0
  9 16  1  0  0  0  0
 10  9  1  0  0  0  0
 10 13  2  0  0  0  0
 11 14  2  0  0  0  0
 12 15  2  0  0  0  0
 12 11  1  0  0  0  0
 13  8  1  0  0  0  0
 14 13  1  0  0  0  0
 14  5  1  0  0  0  0
 15 10  1  0  0  0  0
 16  8  2  0  0  0  0
 18 22  1  0  0  0  0
 18 21  2  0  0  0  0
 19 22  2  0  0  0  0
 19 23  1  0  0  0  0
 20 24  1  0  0  0  0
 20 17  1  0  0  0  0
 21 17  1  0  0  0  0
 22 20  1  0  0  0  0
 23 24  2  0  0  0  0
 25 28  2  0  0  0  0
 26 25  1  0  0  0  0
 26 29  1  0  0  0  0
 28 27  1  0  0  0  0
 30 29  1  6  0  0  0
 30 27  1  0  0  0  0
 30  3  1  0  0  0  0
 31 25  1  0  0  0  0
 32 31  1  0  0  0  0
 33 35  1  0  0  0  0
 33 32  1  0  0  0  0
 35 37  1  0  0  0  0
 36 39  1  0  0  0  0
 37 36  2  0  0  0  0
 37 34  1  0  0  0  0
 38 40  1  0  0  0  0
 38 35  2  0  0  0  0
 40 41  2  0  0  0  0
 41 36  1  0  0  0  0
M  END
>  <MODEL>
3

>  <REMARK>
 VINA RESULT:      -9.4      3.323      8.756
  Name = 
  7 active torsions:
  status: ('A' for Active; 'I' for Inactive)
    1  A    between atoms: C_5  and  C_6
    2  A    between atoms: C_5  and  C_12
    3  A    between atoms: C_12  and  N_14
    4  A    between atoms: N_14  and  C_16
    5  A    between atoms: C_15  and  C_31
    6  A    between atoms: C_26  and  C_37
    7  A    between atoms: C_30  and  N_36
                            x       y       z     vdW  Elec       q    Type
                         _______ _______ _______ _____ _____    ______ ____

>  <TORSDO>
F 7

$$$$
=
 OpenBabel10232410143D

 41 47  0  0  1  0  0  0  0  0999 V2000
  183.7710  176.7260  138.1460 C   0  0  0  0  0  2  0  0  0  0  0  0
  184.8820  177.7660  138.0780 C   0  0  0  0  0  2  0  0  0  0  0  0
  183.9930  178.7550  140.2910 C   0  0  2  0  0  3  0  0  0  0  0  0
  182.5310  177.3200  138.8140 C   0  0  2  0  0  3  0  0  0  0  0  0
  186.3870  178.6460  139.7970 N   0  0  0  0  0  0  0  0  0  0  0  0
  182.8780  177.7090  140.2510 C   0  0  0  0  0  2  0  0  0  0  0  0
  185.1750  178.3180  139.4470 C   0  0  0  0  0  0  0  0  0  0  0  0
  188.8390  177.3140  140.9670 N   0  0  0  0  0  0  0  0  0  0  0  0
  190.6960  176.9210  139.7960 O   0  0  0  0  0  0  0  0  0  0  0  0
  189.8290  177.4820  138.9990 C   0  0  0  0  0  0  0  0  0  0  0  0
  187.7260  178.7140  137.7790 N   0  0  0  0  0  0  0  0  0  0  0  0
  188.8720  178.4760  137.0640 C   0  0  0  0  0  3  0  0  0  0  0  0
  188.6880  177.7130  139.6940 C   0  0  0  0  0  0  0  0  0  0  0  0
  187.5910  178.3300  139.0840 C   0  0  0  0  0  0  0  0  0  0  0  0
  189.9740  177.8400  137.6630 C   0  0  0  0  0  3  0  0  0  0  0  0
  190.1060  176.8190  140.9770 C   0  0  0  0  0  3  0  0  0  0  0  0
  179.9860  173.6760  137.1270 C   0  0  0  0  0  2  0  0  0  0  0  0
  181.3940  175.4170  136.3790 C   0  0  0  0  0  3  0  0  0  0  0  0
  181.3850  176.3500  138.7980 C   0  0  0  0  0  0  0  0  0  0  0  0
  180.0770  174.7240  138.1170 N   0  0  0  0  0  0  0  0  0  0  0  0
  180.8510  174.2430  136.0200 C   0  0  0  0  0  3  0  0  0  0  0  0
  180.8800  175.6780  137.7080 C   0  0  0  0  0  0  0  0  0  0  0  0
  180.8560  175.6520  139.8910 C   0  0  0  0  0  3  0  0  0  0  0  0
  180.0800  174.6370  139.4340 N   0  0  0  0  0  0  0  0  0  0  0  0
  184.3840  178.5150  144.5690 C   0  0  0  0  0  0  0  0  0  0  0  0
  183.0360  178.5130  143.9040 C   0  0  0  0  0  2  0  0  0  0  0  0
  185.3340  178.0980  142.3490 C   0  0  0  0  0  2  0  0  0  0  0  0
  185.4810  178.3360  143.8240 C   0  0  0  0  0  3  0  0  0  0  0  0
  183.0710  179.3510  142.6200 C   0  0  0  0  0  2  0  0  0  0  0  0
  184.3260  179.0940  141.7500 C   0  0  2  0  0  3  0  0  0  0  0  0
  184.5070  178.8220  146.0240 C   0  0  0  0  0  2  0  0  0  0  0  0
  185.9580  179.0890  146.3740 C   0  0  0  0  0  2  0  0  0  0  0  0
  186.6160  177.8360  146.7080 N   0  0  0  0  0  2  0  0  0  0  0  0
  188.6450  177.6900  148.7690 F   0  0  0  0  0  0  0  0  0  0  0  0
  187.9940  177.5420  146.4470 C   0  0  0  0  0  0  0  0  0  0  0  0
  190.2980  177.1780  147.1470 C   0  0  0  0  0  0  0  0  0  0  0  0
  188.9670  177.4750  147.4680 C   0  0  0  0  0  0  0  0  0  0  0  0
  188.3780  177.3060  145.1220 C   0  0  0  0  0  3  0  0  0  0  0  0
  191.2380  177.1140  148.1210 F   0  0  0  0  0  0  0  0  0  0  0  0
  189.7050  177.0080  144.8070 C   0  0  0  0  0  3  0  0  0  0  0  0
  190.6650  176.9450  145.8190 C   0  0  0  0  0  3  0  0  0  0  0  0
  1  4  1  0  0  0  0
  2  1  1  0  0  0  0
  2  7  1  0  0  0  0
  3  6  1  1  0  0  0
  3 30  1  0  0  0  0
  4 19  1  1  0  0  0
  4  6  1  0  0  0  0
  7  5  2  0  0  0  0
  7  3  1  0  0  0  0
  8 16  2  0  0  0  0
  9 16  1  0  0  0  0
 10 13  2  0  0  0  0
 10  9  1  0  0  0  0
 11 14  2  0  0  0  0
 12 15  2  0  0  0  0
 12 11  1  0  0  0  0
 13  8  1  0  0  0  0
 14 13  1  0  0  0  0
 14  5  1  0  0  0  0
 15 10  1  0  0  0  0
 17 20  1  0  0  0  0
 18 22  1  0  0  0  0
 19 23  1  0  0  0  0
 20 24  1  0  0  0  0
 21 18  2  0  0  0  0
 21 17  1  0  0  0  0
 22 20  1  0  0  0  0
 22 19  2  0  0  0  0
 24 23  2  0  0  0  0
 25 31  1  0  0  0  0
 26 25  1  0  0  0  0
 27 28  1  0  0  0  0
 28 25  2  0  0  0  0
 29 26  1  0  0  0  0
 30 27  1  1  0  0  0
 30 29  1  0  0  0  0
 31 32  1  0  0  0  0
 32 33  1  0  0  0  0
 35 33  1  0  0  0  0
 35 37  1  0  0  0  0
 36 37  2  0  0  0  0
 36 39  1  0  0  0  0
 37 34  1  0  0  0  0
 38 35  2  0  0  0  0
 40 38  1  0  0  0  0
 40 41  2  0  0  0  0
 41 36  1  0  0  0  0
M  END
>  <MODEL>
4

>  <REMARK>
 VINA RESULT:      -9.2      2.915      5.507
  Name = 
  7 active torsions:
  status: ('A' for Active; 'I' for Inactive)
    1  A    between atoms: C_5  and  C_6
    2  A    between atoms: C_5  and  C_12
    3  A    between atoms: C_12  and  N_14
    4  A    between atoms: N_14  and  C_16
    5  A    between atoms: C_15  and  C_31
    6  A    between atoms: C_26  and  C_37
    7  A    between atoms: C_30  and  N_36
                            x       y       z     vdW  Elec       q    Type
                         _______ _______ _______ _____ _____    ______ ____

>  <TORSDO>
F 7

$$$$
=
 OpenBabel10232410143D

 41 47  0  0  1  0  0  0  0  0999 V2000
  185.7840  178.4820  143.4810 C   0  0  0  0  0  2  0  0  0  0  0  0
  185.4680  179.2870  142.2270 C   0  0  0  0  0  2  0  0  0  0  0  0
  187.6510  178.3860  141.1850 C   0  0  2  0  0  3  0  0  0  0  0  0
  187.2970  178.3950  143.6850 C   0  0  2  0  0  3  0  0  0  0  0  0
  185.6280  178.7180  139.8510 N   0  0  0  0  0  0  0  0  0  0  0  0
  187.9180  177.6540  142.5010 C   0  0  0  0  0  2  0  0  0  0  0  0
  186.1780  178.7080  141.0320 C   0  0  0  0  0  0  0  0  0  0  0  0
  183.3340  176.7450  139.7860 N   0  0  0  0  0  0  0  0  0  0  0  0
  181.2450  177.3130  139.2480 O   0  0  0  0  0  0  0  0  0  0  0  0
  181.9800  178.3900  139.2000 C   0  0  0  0  0  0  0  0  0  0  0  0
  183.9210  180.3020  139.1830 N   0  0  0  0  0  0  0  0  0  0  0  0
  182.6370  180.6460  138.8460 C   0  0  0  0  0  3  0  0  0  0  0  0
  183.2510  178.0630  139.5410 C   0  0  0  0  0  0  0  0  0  0  0  0
  184.2600  179.0310  139.5540 C   0  0  0  0  0  0  0  0  0  0  0  0
  181.6120  179.6830  138.8480 C   0  0  0  0  0  3  0  0  0  0  0  0
  182.0550  176.3250  139.5980 C   0  0  0  0  0  3  0  0  0  0  0  0
  190.1750  176.9320  147.1750 C   0  0  0  0  0  2  0  0  0  0  0  0
  190.2060  177.3950  144.8610 C   0  0  0  0  0  3  0  0  0  0  0  0
  187.6330  177.6980  144.9720 C   0  0  0  0  0  0  0  0  0  0  0  0
  188.8380  176.9080  146.6290 N   0  0  0  0  0  0  0  0  0  0  0  0
  190.9930  177.2210  145.9340 C   0  0  0  0  0  3  0  0  0  0  0  0
  188.8570  177.1900  145.3480 C   0  0  0  0  0  0  0  0  0  0  0  0
  186.9160  177.7520  146.1730 C   0  0  0  0  0  3  0  0  0  0  0  0
  187.7000  177.2870  147.1790 N   0  0  0  0  0  0  0  0  0  0  0  0
  190.2270  177.1810  137.9560 C   0  0  0  0  0  0  0  0  0  0  0  0
  189.4280  178.4520  137.8880 C   0  0  0  0  0  2  0  0  0  0  0  0
  189.6980  177.1310  140.3480 C   0  0  0  0  0  2  0  0  0  0  0  0
  190.3390  176.5410  139.1260 C   0  0  0  0  0  3  0  0  0  0  0  0
  188.1070  178.2960  138.6520 C   0  0  0  0  0  2  0  0  0  0  0  0
  188.2680  177.5950  140.0240 C   0  0  2  0  0  3  0  0  0  0  0  0
  190.7960  176.5800  136.7150 C   0  0  0  0  0  2  0  0  0  0  0  0
  191.2330  175.1540  136.9860 C   0  0  0  0  0  2  0  0  0  0  0  0
  192.5430  174.9270  136.3970 N   0  0  0  0  0  2  0  0  0  0  0  0
  193.7960  176.1620  138.6970 F   0  0  0  0  0  0  0  0  0  0  0  0
  193.6650  174.3640  137.0890 C   0  0  0  0  0  0  0  0  0  0  0  0
  195.3530  174.3780  138.8440 C   0  0  0  0  0  0  0  0  0  0  0  0
  194.2600  174.9840  138.2090 C   0  0  0  0  0  0  0  0  0  0  0  0
  194.1770  173.1460  136.6300 C   0  0  0  0  0  3  0  0  0  0  0  0
  195.9310  174.9670  139.9190 F   0  0  0  0  0  0  0  0  0  0  0  0
  195.2660  172.5450  137.2670 C   0  0  0  0  0  3  0  0  0  0  0  0
  195.8530  173.1620  138.3730 C   0  0  0  0  0  3  0  0  0  0  0  0
  1  4  1  0  0  0  0
  2  1  1  0  0  0  0
  3  6  1  1  0  0  0
  4 19  1  1  0  0  0
  5  7  2  0  0  0  0
  6  4  1  0  0  0  0
  7  3  1  0  0  0  0
  7  2  1  0  0  0  0
  9 16  1  0  0  0  0
 10  9  1  0  0  0  0
 10 13  2  0  0  0  0
 11 14  2  0  0  0  0
 12 15  2  0  0  0  0
 12 11  1  0  0  0  0
 13 14  1  0  0  0  0
 13  8  1  0  0  0  0
 14  5  1  0  0  0  0
 15 10  1  0  0  0  0
 16  8  2  0  0  0  0
 18 22  1  0  0  0  0
 18 21  2  0  0  0  0
 19 22  2  0  0  0  0
 19 23  1  0  0  0  0
 20 17  1  0  0  0  0
 20 24  1  0  0  0  0
 21 17  1  0  0  0  0
 22 20  1  0  0  0  0
 23 24  2  0  0  0  0
 25 28  2  0  0  0  0
 26 25  1  0  0  0  0
 26 29  1  0  0  0  0
 28 27  1  0  0  0  0
 30 29  1  6  0  0  0
 30 27  1  0  0  0  0
 30  3  1  0  0  0  0
 31 32  1  0  0  0  0
 31 25  1  0  0  0  0
 33 32  1  0  0  0  0
 33 35  1  0  0  0  0
 35 37  1  0  0  0  0
 36 39  1  0  0  0  0
 37 34  1  0  0  0  0
 37 36  2  0  0  0  0
 38 35  2  0  0  0  0
 38 40  1  0  0  0  0
 40 41  2  0  0  0  0
 41 36  1  0  0  0  0
M  END
>  <MODEL>
5

>  <REMARK>
 VINA RESULT:      -8.9      3.379      9.169
  Name = 
  7 active torsions:
  status: ('A' for Active; 'I' for Inactive)
    1  A    between atoms: C_5  and  C_6
    2  A    between atoms: C_5  and  C_12
    3  A    between atoms: C_12  and  N_14
    4  A    between atoms: N_14  and  C_16
    5  A    between atoms: C_15  and  C_31
    6  A    between atoms: C_26  and  C_37
    7  A    between atoms: C_30  and  N_36
                            x       y       z     vdW  Elec       q    Type
                         _______ _______ _______ _____ _____    ______ ____

>  <TORSDO>
F 7

$$$$
=
 OpenBabel10232410143D

 41 47  0  0  1  0  0  0  0  0999 V2000
  191.7350  175.8810  136.3180 C   0  0  0  0  0  2  0  0  0  0  0  0
  190.2690  175.6300  136.6500 C   0  0  0  0  0  2  0  0  0  0  0  0
  190.8260  176.0940  139.1280 C   0  0  2  0  0  3  0  0  0  0  0  0
  192.6230  175.4380  137.4810 C   0  0  2  0  0  3  0  0  0  0  0  0
  188.7140  176.8150  138.1240 N   0  0  0  0  0  0  0  0  0  0  0  0
  192.2870  176.2760  138.7140 C   0  0  0  0  0  2  0  0  0  0  0  0
  189.8970  176.2990  137.9470 C   0  0  0  0  0  0  0  0  0  0  0  0
  186.5120  174.8910  137.3470 N   0  0  0  0  0  0  0  0  0  0  0  0
  185.0550  175.2950  135.7070 O   0  0  0  0  0  0  0  0  0  0  0  0
  185.8530  176.3230  135.7990 C   0  0  0  0  0  0  0  0  0  0  0  0
  187.7840  178.1670  136.3420 N   0  0  0  0  0  0  0  0  0  0  0  0
  186.8910  178.4090  135.3300 C   0  0  0  0  0  3  0  0  0  0  0  0
  186.7350  176.0990  136.8040 C   0  0  0  0  0  0  0  0  0  0  0  0
  187.7250  177.0380  137.1100 C   0  0  0  0  0  0  0  0  0  0  0  0
  185.8800  177.4790  135.0270 C   0  0  0  0  0  3  0  0  0  0  0  0
  185.4490  174.4340  136.6340 C   0  0  0  0  0  3  0  0  0  0  0  0
  197.1190  173.9470  137.0700 C   0  0  0  0  0  2  0  0  0  0  0  0
  195.2060  173.6200  138.4130 C   0  0  0  0  0  3  0  0  0  0  0  0
  194.0780  175.5750  137.1380 C   0  0  0  0  0  0  0  0  0  0  0  0
  196.2020  175.0540  136.9350 N   0  0  0  0  0  0  0  0  0  0  0  0
  196.3920  173.0860  138.0830 C   0  0  0  0  0  3  0  0  0  0  0  0
  195.1290  174.8570  137.6650 C   0  0  0  0  0  0  0  0  0  0  0  0
  194.6220  176.1580  135.9860 C   0  0  0  0  0  3  0  0  0  0  0  0
  195.9240  175.7900  135.8750 N   0  0  0  0  0  0  0  0  0  0  0  0
  190.4650  177.4980  143.1800 C   0  0  0  0  0  0  0  0  0  0  0  0
  189.7050  176.2950  142.6960 C   0  0  0  0  0  2  0  0  0  0  0  0
  191.8040  177.3080  141.1360 C   0  0  0  0  0  2  0  0  0  0  0  0
  191.4540  177.9920  142.4250 C   0  0  0  0  0  3  0  0  0  0  0  0
  189.3520  176.4440  141.2110 C   0  0  0  0  0  2  0  0  0  0  0  0
  190.5260  176.9730  140.3490 C   0  0  2  0  0  3  0  0  0  0  0  0
  190.0520  178.2000  144.4290 C   0  0  0  0  0  2  0  0  0  0  0  0
  189.1730  177.2910  145.2660 C   0  0  0  0  0  2  0  0  0  0  0  0
  188.0270  178.0390  145.7560 N   0  0  0  0  0  2  0  0  0  0  0  0
  185.5660  178.9110  147.0090 F   0  0  0  0  0  0  0  0  0  0  0  0
  186.7860  178.1850  145.0540 C   0  0  0  0  0  0  0  0  0  0  0  0
  184.4170  178.7390  144.9400 C   0  0  0  0  0  0  0  0  0  0  0  0
  185.5970  178.6130  145.6850 C   0  0  0  0  0  0  0  0  0  0  0  0
  186.7660  177.8960  143.6850 C   0  0  0  0  0  3  0  0  0  0  0  0
  183.2720  179.1470  145.5390 F   0  0  0  0  0  0  0  0  0  0  0  0
  185.5880  178.0250  142.9470 C   0  0  0  0  0  3  0  0  0  0  0  0
  184.4140  178.4470  143.5740 C   0  0  0  0  0  3  0  0  0  0  0  0
  1  2  1  0  0  0  0
  1  4  1  0  0  0  0
  2  7  1  0  0  0  0
  3  6  1  6  0  0  0
  3 30  1  0  0  0  0
  4 19  1  6  0  0  0
  4  6  1  0  0  0  0
  7  5  2  0  0  0  0
  7  3  1  0  0  0  0
  9 10  1  0  0  0  0
  9 16  1  0  0  0  0
 10 13  2  0  0  0  0
 11 14  2  0  0  0  0
 12 11  1  0  0  0  0
 13 14  1  0  0  0  0
 13  8  1  0  0  0  0
 14  5  1  0  0  0  0
 15 12  2  0  0  0  0
 15 10  1  0  0  0  0
 16  8  2  0  0  0  0
 17 21  1  0  0  0  0
 19 22  2  0  0  0  0
 20 17  1  0  0  0  0
 20 22  1  0  0  0  0
 21 18  2  0  0  0  0
 22 18  1  0  0  0  0
 23 19  1  0  0  0  0
 24 23  2  0  0  0  0
 24 20  1  0  0  0  0
 25 31  1  0  0  0  0
 26 25  1  0  0  0  0
 27 28  1  0  0  0  0
 28 25  2  0  0  0  0
 29 26  1  0  0  0  0
 30 27  1  1  0  0  0
 30 29  1  0  0  0  0
 31 32  1  0  0  0  0
 32 33  1  0  0  0  0
 35 37  1  0  0  0  0
 35 33  1  0  0  0  0
 36 39  1  0  0  0  0
 36 37  2  0  0  0  0
 37 34  1  0  0  0  0
 38 35  2  0  0  0  0
 40 41  2  0  0  0  0
 40 38  1  0  0  0  0
 41 36  1  0  0  0  0
M  END
>  <MODEL>
6

>  <REMARK>
 VINA RESULT:      -8.7      2.870      6.791
  Name = 
  7 active torsions:
  status: ('A' for Active; 'I' for Inactive)
    1  A    between atoms: C_5  and  C_6
    2  A    between atoms: C_5  and  C_12
    3  A    between atoms: C_12  and  N_14
    4  A    between atoms: N_14  and  C_16
    5  A    between atoms: C_15  and  C_31
    6  A    between atoms: C_26  and  C_37
    7  A    between atoms: C_30  and  N_36
                            x       y       z     vdW  Elec       q    Type
                         _______ _______ _______ _____ _____    ______ ____

>  <TORSDO>
F 7

$$$$
=
 OpenBabel10232410143D

 41 47  0  0  1  0  0  0  0  0999 V2000
  189.8760  177.4790  142.3040 C   0  0  0  0  0  2  0  0  0  0  0  0
  188.9820  177.1550  141.1120 C   0  0  0  0  0  2  0  0  0  0  0  0
  186.9350  177.6580  142.6030 C   0  0  2  0  0  3  0  0  0  0  0  0
  189.1800  177.0860  143.6070 C   0  0  2  0  0  3  0  0  0  0  0  0
  186.9850  178.2660  140.2330 N   0  0  0  0  0  0  0  0  0  0  0  0
  187.9030  177.9120  143.7590 C   0  0  0  0  0  2  0  0  0  0  0  0
  187.6350  177.8100  141.2660 C   0  0  0  0  0  0  0  0  0  0  0  0
  185.5950  177.4640  137.6680 N   0  0  0  0  0  0  0  0  0  0  0  0
  186.5150  177.7030  135.6500 O   0  0  0  0  0  0  0  0  0  0  0  0
  187.3590  178.1600  136.5340 C   0  0  0  0  0  0  0  0  0  0  0  0
  188.7740  178.9200  138.7350 N   0  0  0  0  0  0  0  0  0  0  0  0
  189.3390  179.0590  137.4940 C   0  0  0  0  0  3  0  0  0  0  0  0
  186.8060  178.0360  137.7660 C   0  0  0  0  0  0  0  0  0  0  0  0
  187.5080  178.4340  138.9080 C   0  0  0  0  0  0  0  0  0  0  0  0
  188.6340  178.6790  136.3370 C   0  0  0  0  0  3  0  0  0  0  0  0
  185.4570  177.2840  136.3280 C   0  0  0  0  0  3  0  0  0  0  0  0
  190.2490  177.2880  148.2350 C   0  0  0  0  0  2  0  0  0  0  0  0
  188.4420  177.6630  146.7640 C   0  0  0  0  0  3  0  0  0  0  0  0
  190.0810  177.2960  144.7900 C   0  0  0  0  0  0  0  0  0  0  0  0
  190.7190  177.4780  146.8830 N   0  0  0  0  0  0  0  0  0  0  0  0
  188.7560  177.4650  148.0540 C   0  0  0  0  0  3  0  0  0  0  0  0
  189.7100  177.6610  146.0650 C   0  0  0  0  0  0  0  0  0  0  0  0
  191.3860  176.8130  144.9520 C   0  0  0  0  0  3  0  0  0  0  0  0
  191.7350  176.9100  146.2600 N   0  0  0  0  0  0  0  0  0  0  0  0
  182.8810  178.9080  143.3230 C   0  0  0  0  0  0  0  0  0  0  0  0
  183.2330  178.0190  142.1630 C   0  0  0  0  0  2  0  0  0  0  0  0
  185.1140  178.4160  144.2060 C   0  0  0  0  0  2  0  0  0  0  0  0
  183.7860  179.1110  144.2880 C   0  0  0  0  0  3  0  0  0  0  0  0
  184.6430  178.3410  141.6490 C   0  0  0  0  0  2  0  0  0  0  0  0
  185.6830  178.5270  142.7820 C   0  0  2  0  0  3  0  0  0  0  0  0
  181.5820  179.6420  143.3450 C   0  0  0  0  0  2  0  0  0  0  0  0
  180.5990  178.9780  142.4010 C   0  0  0  0  0  2  0  0  0  0  0  0
  180.2170  179.9170  141.3590 N   0  0  0  0  0  2  0  0  0  0  0  0
  180.1980  182.1620  139.5300 F   0  0  0  0  0  0  0  0  0  0  0  0
  180.6320  179.8310  139.9900 C   0  0  0  0  0  0  0  0  0  0  0  0
  181.0380  180.7890  137.7880 C   0  0  0  0  0  0  0  0  0  0  0  0
  180.6150  180.9390  139.1150 C   0  0  0  0  0  0  0  0  0  0  0  0
  181.0780  178.5930  139.5140 C   0  0  0  0  0  3  0  0  0  0  0  0
  181.0230  181.8470  136.9420 F   0  0  0  0  0  0  0  0  0  0  0  0
  181.5000  178.4480  138.1910 C   0  0  0  0  0  3  0  0  0  0  0  0
  181.4800  179.5460  137.3290 C   0  0  0  0  0  3  0  0  0  0  0  0
  1  4  1  0  0  0  0
  2  7  1  0  0  0  0
  2  1  1  0  0  0  0
  3 30  1  0  0  0  0
  3  6  1  1  0  0  0
  4  6  1  0  0  0  0
  4 19  1  1  0  0  0
  5  7  2  0  0  0  0
  7  3  1  0  0  0  0
  8 13  1  0  0  0  0
  9 16  1  0  0  0  0
  9 10  1  0  0  0  0
 10 13  2  0  0  0  0
 11 14  2  0  0  0  0
 12 11  1  0  0  0  0
 13 14  1  0  0  0  0
 14  5  1  0  0  0  0
 15 10  1  0  0  0  0
 15 12  2  0  0  0  0
 16  8  2  0  0  0  0
 18 21  2  0  0  0  0
 19 23  1  0  0  0  0
 19 22  2  0  0  0  0
 20 17  1  0  0  0  0
 21 17  1  0  0  0  0
 22 18  1  0  0  0  0
 22 20  1  0  0  0  0
 23 24  2  0  0  0  0
 24 20  1  0  0  0  0
 25 31  1  0  0  0  0
 25 28  2  0  0  0  0
 26 25  1  0  0  0  0
 27 28  1  0  0  0  0
 29 26  1  0  0  0  0
 30 29  1  6  0  0  0
 30 27  1  0  0  0  0
 32 31  1  0  0  0  0
 33 32  1  0  0  0  0
 35 33  1  0  0  0  0
 36 37  1  0  0  0  0
 37 34  1  0  0  0  0
 37 35  2  0  0  0  0
 38 35  1  0  0  0  0
 39 36  1  0  0  0  0
 40 38  2  0  0  0  0
 41 36  2  0  0  0  0
 41 40  1  0  0  0  0
M  END
>  <MODEL>
7

>  <REMARK>
 VINA RESULT:      -8.4      3.754      8.272
  Name = 
  7 active torsions:
  status: ('A' for Active; 'I' for Inactive)
    1  A    between atoms: C_5  and  C_6
    2  A    between atoms: C_5  and  C_12
    3  A    between atoms: C_12  and  N_14
    4  A    between atoms: N_14  and  C_16
    5  A    between atoms: C_15  and  C_31
    6  A    between atoms: C_26  and  C_37
    7  A    between atoms: C_30  and  N_36
                            x       y       z     vdW  Elec       q    Type
                         _______ _______ _______ _____ _____    ______ ____

>  <TORSDO>
F 7

$$$$
=
 OpenBabel10232410143D

 41 47  0  0  1  0  0  0  0  0999 V2000
  184.5150  177.8160  138.4430 C   0  0  0  0  0  2  0  0  0  0  0  0
  185.9340  178.3640  138.5290 C   0  0  0  0  0  2  0  0  0  0  0  0
  185.3930  179.1890  140.9150 C   0  0  2  0  0  3  0  0  0  0  0  0
  183.5590  178.6940  139.2520 C   0  0  2  0  0  3  0  0  0  0  0  0
  187.5930  178.2940  140.3280 N   0  0  0  0  0  0  0  0  0  0  0  0
  183.9720  178.6570  140.7230 C   0  0  0  0  0  2  0  0  0  0  0  0
  186.3600  178.5080  139.9660 C   0  0  0  0  0  0  0  0  0  0  0  0
  190.4290  177.7280  141.2210 N   0  0  0  0  0  0  0  0  0  0  0  0
  191.9810  176.8460  139.8840 O   0  0  0  0  0  0  0  0  0  0  0  0
  190.8710  176.9410  139.2040 C   0  0  0  0  0  0  0  0  0  0  0  0
  188.3730  177.4000  138.2160 N   0  0  0  0  0  0  0  0  0  0  0  0
  189.3320  176.8640  137.3950 C   0  0  0  0  0  3  0  0  0  0  0  0
  189.9130  177.4610  140.0100 C   0  0  0  0  0  0  0  0  0  0  0  0
  188.6200  177.6910  139.5280 C   0  0  0  0  0  0  0  0  0  0  0  0
  190.6300  176.6120  137.8750 C   0  0  0  0  0  3  0  0  0  0  0  0
  191.7190  177.3180  141.0930 C   0  0  0  0  0  3  0  0  0  0  0  0
  180.0710  175.4820  138.9100 C   0  0  0  0  0  2  0  0  0  0  0  0
  182.3550  175.7560  138.3780 C   0  0  0  0  0  3  0  0  0  0  0  0
  182.1370  178.2380  139.0970 C   0  0  0  0  0  0  0  0  0  0  0  0
  180.4250  176.8810  138.8750 N   0  0  0  0  0  0  0  0  0  0  0  0
  181.3900  174.8370  138.5360 C   0  0  0  0  0  3  0  0  0  0  0  0
  181.7000  177.0290  138.6030 C   0  0  0  0  0  0  0  0  0  0  0  0
  181.0100  178.7550  139.7480 C   0  0  0  0  0  3  0  0  0  0  0  0
  179.9820  177.8780  139.6180 N   0  0  0  0  0  0  0  0  0  0  0  0
  185.3090  178.3130  145.1280 C   0  0  0  0  0  0  0  0  0  0  0  0
  184.2640  179.1830  144.4870 C   0  0  0  0  0  2  0  0  0  0  0  0
  185.9600  177.6510  142.8600 C   0  0  0  0  0  2  0  0  0  0  0  0
  186.1310  177.5980  144.3500 C   0  0  0  0  0  3  0  0  0  0  0  0
  184.8650  179.9660  143.3130 C   0  0  0  0  0  2  0  0  0  0  0  0
  185.7740  179.1070  142.3990 C   0  0  2  0  0  3  0  0  0  0  0  0
  185.5040  178.3320  146.6070 C   0  0  0  0  0  2  0  0  0  0  0  0
  186.9700  178.5390  146.9320 C   0  0  0  0  0  2  0  0  0  0  0  0
  187.6870  177.2870  146.7630 N   0  0  0  0  0  2  0  0  0  0  0  0
  189.0220  178.4110  144.4520 F   0  0  0  0  0  0  0  0  0  0  0  0
  189.0970  177.1770  146.5280 C   0  0  0  0  0  0  0  0  0  0  0  0
  191.1110  177.5940  145.2250 C   0  0  0  0  0  0  0  0  0  0  0  0
  189.7270  177.7340  145.3930 C   0  0  0  0  0  0  0  0  0  0  0  0
  189.8710  176.4940  147.4720 C   0  0  0  0  0  3  0  0  0  0  0  0
  191.7230  178.1240  144.1380 F   0  0  0  0  0  0  0  0  0  0  0  0
  191.2500  176.3590  147.3000 C   0  0  0  0  0  3  0  0  0  0  0  0
  191.8690  176.9090  146.1770 C   0  0  0  0  0  3  0  0  0  0  0  0
  1  2  1  0  0  0  0
  1  4  1  0  0  0  0
  2  7  1  0  0  0  0
  3  6  1  1  0  0  0
  3 30  1  0  0  0  0
  4 19  1  1  0  0  0
  4  6  1  0  0  0  0
  7  5  2  0  0  0  0
  7  3  1  0  0  0  0
  9 16  1  0  0  0  0
 10  9  1  0  0  0  0
 10 13  2  0  0  0  0
 11 14  2  0  0  0  0
 12 15  2  0  0  0  0
 12 11  1  0  0  0  0
 13  8  1  0  0  0  0
 14 13  1  0  0  0  0
 14  5  1  0  0  0  0
 15 10  1  0  0  0  0
 16  8  2  0  0  0  0
 18 21  2  0  0  0  0
 18 22  1  0  0  0  0
 19 23  1  0  0  0  0
 20 17  1  0  0  0  0
 20 24  1  0  0  0  0
 21 17  1  0  0  0  0
 22 20  1  0  0  0  0
 22 19  2  0  0  0  0
 24 23  2  0  0  0  0
 25 31  1  0  0  0  0
 26 25  1  0  0  0  0
 27 28  1  0  0  0  0
 28 25  2  0  0  0  0
 29 26  1  0  0  0  0
 30 27  1  1  0  0  0
 30 29  1  0  0  0  0
 31 32  1  0  0  0  0
 33 32  1  0  0  0  0
 34 37  1  0  0  0  0
 35 33  1  0  0  0  0
 35 38  1  0  0  0  0
 36 37  1  0  0  0  0
 36 41  2  0  0  0  0
 37 35  2  0  0  0  0
 39 36  1  0  0  0  0
 40 38  2  0  0  0  0
 41 40  1  0  0  0  0
M  END
>  <MODEL>
8

>  <REMARK>
 VINA RESULT:      -8.2      2.312      4.560
  Name = 
  7 active torsions:
  status: ('A' for Active; 'I' for Inactive)
    1  A    between atoms: C_5  and  C_6
    2  A    between atoms: C_5  and  C_12
    3  A    between atoms: C_12  and  N_14
    4  A    between atoms: N_14  and  C_16
    5  A    between atoms: C_15  and  C_31
    6  A    between atoms: C_26  and  C_37
    7  A    between atoms: C_30  and  N_36
                            x       y       z     vdW  Elec       q    Type
                         _______ _______ _______ _____ _____    ______ ____

>  <TORSDO>
F 7

$$$$
=
 OpenBabel10232410143D

 41 47  0  0  1  0  0  0  0  0999 V2000
  192.5340  176.1730  138.9180 C   0  0  0  0  0  2  0  0  0  0  0  0
  191.9560  177.2420  139.8370 C   0  0  0  0  0  2  0  0  0  0  0  0
  189.9720  177.4730  138.2010 C   0  0  2  0  0  3  0  0  0  0  0  0
  192.1710  176.4740  137.4640 C   0  0  2  0  0  3  0  0  0  0  0  0
  189.6710  177.6420  140.6230 N   0  0  0  0  0  0  0  0  0  0  0  0
  190.6510  176.4310  137.3100 C   0  0  0  0  0  2  0  0  0  0  0  0
  190.4700  177.3720  139.6290 C   0  0  0  0  0  0  0  0  0  0  0  0
  187.7970  176.9330  142.8900 N   0  0  0  0  0  0  0  0  0  0  0  0
  188.3980  176.9870  145.0380 O   0  0  0  0  0  0  0  0  0  0  0  0
  189.4350  177.3250  144.3210 C   0  0  0  0  0  0  0  0  0  0  0  0
  191.2550  178.0190  142.4170 N   0  0  0  0  0  0  0  0  0  0  0  0
  191.6190  178.0580  143.7380 C   0  0  0  0  0  3  0  0  0  0  0  0
  189.0890  177.2810  143.0110 C   0  0  0  0  0  0  0  0  0  0  0  0
  190.0120  177.6180  142.0160 C   0  0  0  0  0  0  0  0  0  0  0  0
  190.7030  177.7030  144.7450 C   0  0  0  0  0  3  0  0  0  0  0  0
  187.4140  176.7520  144.1820 C   0  0  0  0  0  3  0  0  0  0  0  0
  195.6660  174.8040  134.7070 C   0  0  0  0  0  2  0  0  0  0  0  0
  194.7490  176.8490  135.4490 C   0  0  0  0  0  3  0  0  0  0  0  0
  192.8180  175.4950  136.5270 C   0  0  0  0  0  0  0  0  0  0  0  0
  194.3150  174.6180  135.1800 N   0  0  0  0  0  0  0  0  0  0  0  0
  195.8380  176.2980  134.8910 C   0  0  0  0  0  3  0  0  0  0  0  0
  193.8170  175.7520  135.6140 C   0  0  0  0  0  0  0  0  0  0  0  0
  192.8260  174.0990  136.6400 C   0  0  0  0  0  3  0  0  0  0  0  0
  193.7820  173.5940  135.8190 N   0  0  0  0  0  0  0  0  0  0  0  0
  186.0580  176.9920  136.4790 C   0  0  0  0  0  0  0  0  0  0  0  0
  186.9640  178.1180  136.0640 C   0  0  0  0  0  2  0  0  0  0  0  0
  188.0200  175.9820  137.5450 C   0  0  0  0  0  2  0  0  0  0  0  0
  186.5590  175.9830  137.2020 C   0  0  0  0  0  3  0  0  0  0  0  0
  187.8440  178.5590  137.2410 C   0  0  0  0  0  2  0  0  0  0  0  0
  188.4500  177.3750  138.0350 C   0  0  2  0  0  3  0  0  0  0  0  0
  184.5970  177.0510  136.1850 C   0  0  0  0  0  2  0  0  0  0  0  0
  183.8040  176.8190  137.4560 C   0  0  0  0  0  2  0  0  0  0  0  0
  183.5750  178.0900  138.1250 N   0  0  0  0  0  2  0  0  0  0  0  0
  181.6980  178.0130  140.3290 F   0  0  0  0  0  0  0  0  0  0  0  0
  183.9310  178.3750  139.4830 C   0  0  0  0  0  0  0  0  0  0  0  0
  183.4150  178.6180  141.8500 C   0  0  0  0  0  0  0  0  0  0  0  0
  183.0000  178.3320  140.5430 C   0  0  0  0  0  0  0  0  0  0  0  0
  185.2640  178.7030  139.7590 C   0  0  0  0  0  3  0  0  0  0  0  0
  182.5260  178.5800  142.8730 F   0  0  0  0  0  0  0  0  0  0  0  0
  185.6730  178.9860  141.0640 C   0  0  0  0  0  3  0  0  0  0  0  0
  184.7490  178.9430  142.1080 C   0  0  0  0  0  3  0  0  0  0  0  0
  1  2  1  0  0  0  0
  3  6  1  6  0  0  0
  3  7  1  0  0  0  0
  4 19  1  6  0  0  0
  4  1  1  0  0  0  0
  5 14  1  0  0  0  0
  6  4  1  0  0  0  0
  7  2  1  0  0  0  0
  7  5  2  0  0  0  0
  8 13  1  0  0  0  0
  8 16  2  0  0  0  0
 10 15  1  0  0  0  0
 10  9  1  0  0  0  0
 11 12  1  0  0  0  0
 12 15  2  0  0  0  0
 13 10  2  0  0  0  0
 14 11  2  0  0  0  0
 14 13  1  0  0  0  0
 16  9  1  0  0  0  0
 17 21  1  0  0  0  0
 17 20  1  0  0  0  0
 18 22  1  0  0  0  0
 19 23  1  0  0  0  0
 20 22  1  0  0  0  0
 20 24  1  0  0  0  0
 21 18  2  0  0  0  0
 22 19  2  0  0  0  0
 24 23  2  0  0  0  0
 25 28  2  0  0  0  0
 26 25  1  0  0  0  0
 26 29  1  0  0  0  0
 27 30  1  0  0  0  0
 28 27  1  0  0  0  0
 30 29  1  6  0  0  0
 30  3  1  0  0  0  0
 31 25  1  0  0  0  0
 31 32  1  0  0  0  0
 32 33  1  0  0  0  0
 33 35  1  0  0  0  0
 34 37  1  0  0  0  0
 35 38  2  0  0  0  0
 35 37  1  0  0  0  0
 36 41  1  0  0  0  0
 36 39  1  0  0  0  0
 37 36  2  0  0  0  0
 38 40  1  0  0  0  0
 40 41  2  0  0  0  0
M  END
>  <MODEL>
9

>  <REMARK>
 VINA RESULT:      -8.2      3.001      8.441
  Name = 
  7 active torsions:
  status: ('A' for Active; 'I' for Inactive)
    1  A    between atoms: C_5  and  C_6
    2  A    between atoms: C_5  and  C_12
    3  A    between atoms: C_12  and  N_14
    4  A    between atoms: N_14  and  C_16
    5  A    between atoms: C_15  and  C_31
    6  A    between atoms: C_26  and  C_37
    7  A    between atoms: C_30  and  N_36
                            x       y       z     vdW  Elec       q    Type
                         _______ _______ _______ _____ _____    ______ ____

>  <TORSDO>
F 7

$$$$
