=
 OpenBabel10222422003D

 44 47  0  0  1  0  0  0  0  0999 V2000
  190.0210  177.1110  141.4180 C   0  0  0  0  0  3  0  0  0  0  0  0
  189.2330  177.4030  138.7280 C   0  0  0  0  0  0  0  0  0  0  0  0
  190.8980  176.3910  140.4080 C   0  0  0  0  0  3  0  0  0  0  0  0
  188.5170  177.9930  139.6780 C   0  0  0  0  0  3  0  0  0  0  0  0
  190.4060  176.6210  139.0120 C   0  0  2  0  0  3  0  0  0  0  0  0
  188.9370  177.8480  141.0950 C   0  0  0  0  0  0  0  0  0  0  0  0
  190.9140  176.2020  137.8630 C   0  0  0  0  0  0  0  0  0  0  0  0
  190.0460  176.6750  136.7570 C   0  0  0  0  0  0  0  0  0  0  0  0
  189.0500  177.4010  137.2860 C   0  0  0  0  0  0  0  0  0  0  0  0
  192.0670  175.3570  137.7670 N   0  0  0  0  0  2  0  0  0  0  0  0
  193.4190  175.8120  137.6650 C   0  0  0  0  0  0  0  0  0  0  0  0
  193.7240  177.0000  137.9640 O   0  0  0  0  0  0  0  0  0  0  0  0
  195.2040  174.2860  138.5010 C   0  0  0  0  0  2  0  0  0  0  0  0
  195.3390  172.7890  138.2850 C   0  0  0  0  0  2  0  0  0  0  0  0
  193.8960  173.6450  136.5580 C   0  0  0  0  0  2  0  0  0  0  0  0
  194.4830  174.8360  137.2810 C   0  0  0  0  0  3  0  0  0  0  0  0
  194.8160  172.4980  136.8930 C   0  0  0  0  0  2  0  0  0  0  0  0
  191.2830  175.8200  134.8980 O   0  0  0  0  0  0  0  0  0  0  0  0
  190.2120  176.3100  135.3410 C   0  0  0  0  0  3  0  0  0  0  0  0
  187.6800  178.1760  136.4260 S   0  0  0  0  0  0  0  0  0  0  0  0
  186.6720  176.6670  136.5220 C   0  0  0  0  0  2  0  0  0  0  0  0
  185.1980  177.0220  136.4650 C   0  0  0  0  0  2  0  0  0  0  0  0
  184.3660  175.9300  137.1130 C   0  0  0  0  0  2  0  0  0  0  0  0
  182.0440  175.9290  137.5960 O   0  0  0  0  0  1  0  0  0  0  0  0
  183.2500  176.5460  137.9390 C   0  0  2  0  0  3  0  0  0  0  0  0
  183.1630  177.9180  137.6680 O   0  0  0  0  0  0  0  0  0  0  0  0
  183.0280  178.5530  138.9130 C   0  0  1  0  0  3  0  0  0  0  0  0
  184.3800  179.1240  139.3530 C   0  0  1  0  0  3  0  0  0  0  0  0
  184.4780  180.4750  139.0050 O   0  0  0  0  0  1  0  0  0  0  0  0
  183.8400  177.9350  141.5810 C   0  0  0  0  0  1  0  0  0  0  0  0
  184.5930  178.9760  140.8290 C   0  0  0  0  0  0  0  0  0  0  0  0
  185.3950  179.6870  141.4160 O   0  0  0  0  0  0  0  0  0  0  0  0
  182.0180  179.6930  138.7930 C   0  0  0  0  0  2  0  0  0  0  0  0
  180.9310  179.5540  139.8410 C   0  0  0  0  0  1  0  0  0  0  0  0
  188.1960  178.4640  142.1600 N   0  0  0  0  0  2  0  0  0  0  0  0
  189.2170  177.8510  144.2880 C   0  0  0  0  0  3  0  0  0  0  0  0
  188.0600  178.0160  143.5190 C   0  0  0  0  0  0  0  0  0  0  0  0
  189.1390  177.4230  145.6220 C   0  0  0  0  0  0  0  0  0  0  0  0
  186.7200  177.3350  145.4290 C   0  0  0  0  0  3  0  0  0  0  0  0
  187.8820  177.1640  146.1870 C   0  0  0  0  0  3  0  0  0  0  0  0
  186.8100  177.7610  144.1020 C   0  0  0  0  0  3  0  0  0  0  0  0
  190.2980  177.1410  147.6740 O   0  0  0  0  0  0  0  0  0  0  0  0
  190.3650  177.2440  146.4210 C   0  0  0  0  0  0  0  0  0  0  0  0
  191.6390  177.1820  145.7840 N   0  0  0  0  0  1  0  0  0  0  0  0
  2  5  1  0  0  0  0
  2  4  1  0  0  0  0
  3  1  2  0  0  0  0
  4  6  2  0  0  0  0
  5  3  1  6  0  0  0
  6  1  1  0  0  0  0
  6 35  1  0  0  0  0
  7  5  1  0  0  0  0
  8  9  1  0  0  0  0
  8  7  2  0  0  0  0
  9  2  2  0  0  0  0
 10  7  1  0  0  0  0
 11 10  1  0  0  0  0
 11 12  2  0  0  0  0
 14 13  1  0  0  0  0
 15 17  1  0  0  0  0
 15 16  1  0  0  0  0
 16 11  1  0  0  0  0
 16 13  1  0  0  0  0
 17 14  1  0  0  0  0
 18 19  2  0  0  0  0
 19  8  1  0  0  0  0
 20 21  1  0  0  0  0
 20  9  1  0  0  0  0
 22 21  1  0  0  0  0
 22 23  1  0  0  0  0
 23 25  1  0  0  0  0
 25 24  1  6  0  0  0
 26 25  1  0  0  0  0
 26 27  1  0  0  0  0
 27 33  1  6  0  0  0
 27 28  1  0  0  0  0
 28 29  1  1  0  0  0
 28 31  1  0  0  0  0
 31 32  2  0  0  0  0
 31 30  1  0  0  0  0
 33 34  1  0  0  0  0
 35 37  1  0  0  0  0
 36 38  1  0  0  0  0
 37 41  1  0  0  0  0
 37 36  2  0  0  0  0
 38 40  2  0  0  0  0
 38 43  1  0  0  0  0
 39 40  1  0  0  0  0
 41 39  2  0  0  0  0
 43 42  2  0  0  0  0
 44 43  1  0  0  0  0
M  END
>  <MODEL>
1

>  <REMARK>
 VINA RESULT:      -7.6      0.000      0.000
  Name = 
  16 active torsions:
  status: ('A' for Active; 'I' for Inactive)
    1  A    between atoms: N_4  and  C_36
    2  A    between atoms: C_5  and  C_14
    3  A    between atoms: C_5  and  C_23
    4  A    between atoms: C_6  and  N_7
    5  A    between atoms: N_7  and  C_35
    6  A    between atoms: C_8  and  C_29
    7  A    between atoms: C_9  and  C_38
    8  A    between atoms: C_14  and  C_16
    9  A    between atoms: C_14  and  O_31
   10  A    between atoms: C_15  and  C_22
   11  A    between atoms: C_15  and  C_40
   12  A    between atoms: C_17  and  S_18
   13  A    between atoms: C_17  and  C_22
   14  A    between atoms: S_18  and  C_39
   15  A    between atoms: C_21  and  C_37
   16  A    between atoms: O_31  and  C_40
                            x       y       z     vdW  Elec       q    Type
                         _______ _______ _______ _____ _____    ______ ____

>  <TORSDO>
F 16

$$$$
=
 OpenBabel10222422003D

 44 47  0  0  1  0  0  0  0  0999 V2000
  187.1710  178.5070  142.1610 C   0  0  0  0  0  3  0  0  0  0  0  0
  187.9150  178.0510  139.4810 C   0  0  0  0  0  0  0  0  0  0  0  0
  186.0220  178.4940  141.1680 C   0  0  0  0  0  3  0  0  0  0  0  0
  188.8570  178.0870  140.4150 C   0  0  0  0  0  3  0  0  0  0  0  0
  186.5190  178.2290  139.7800 C   0  0  2  0  0  3  0  0  0  0  0  0
  188.4660  178.3180  141.8290 C   0  0  0  0  0  0  0  0  0  0  0  0
  185.8340  178.1010  138.6530 C   0  0  0  0  0  0  0  0  0  0  0  0
  186.7860  177.8670  137.5400 C   0  0  0  0  0  0  0  0  0  0  0  0
  188.0260  177.8290  138.0500 C   0  0  0  0  0  0  0  0  0  0  0  0
  184.4130  178.2600  138.5660 N   0  0  0  0  0  2  0  0  0  0  0  0
  183.6960  179.4620  138.8580 C   0  0  0  0  0  0  0  0  0  0  0  0
  184.2950  180.5720  138.9190 O   0  0  0  0  0  0  0  0  0  0  0  0
  181.8060  178.9410  140.3960 C   0  0  0  0  0  2  0  0  0  0  0  0
  180.6770  179.8520  140.8430 C   0  0  0  0  0  2  0  0  0  0  0  0
  181.5870  180.7630  138.8070 C   0  0  0  0  0  2  0  0  0  0  0  0
  182.2110  179.4000  139.0060 C   0  0  0  0  0  3  0  0  0  0  0  0
  180.3460  180.7480  139.6660 C   0  0  0  0  0  2  0  0  0  0  0  0
  187.0440  177.0730  135.2990 O   0  0  0  0  0  0  0  0  0  0  0  0
  186.4180  177.7980  136.1160 C   0  0  0  0  0  3  0  0  0  0  0  0
  189.5720  177.6260  137.1620 S   0  0  0  0  0  0  0  0  0  0  0  0
  189.5480  175.8220  137.3890 C   0  0  0  0  0  2  0  0  0  0  0  0
  190.9340  175.3260  137.7520 C   0  0  0  0  0  2  0  0  0  0  0  0
  191.8250  176.4900  138.1470 C   0  0  0  0  0  2  0  0  0  0  0  0
  193.8570  176.7160  136.9430 O   0  0  0  0  0  1  0  0  0  0  0  0
  193.2870  176.0840  138.0510 C   0  0  2  0  0  3  0  0  0  0  0  0
  193.3820  174.6950  137.8930 O   0  0  0  0  0  0  0  0  0  0  0  0
  194.6250  174.4580  137.2850 C   0  0  1  0  0  3  0  0  0  0  0  0
  195.6810  174.1700  138.3570 C   0  0  1  0  0  3  0  0  0  0  0  0
  195.4940  172.8930  138.8970 O   0  0  0  0  0  1  0  0  0  0  0  0
  197.8260  173.0390  137.4680 C   0  0  0  0  0  1  0  0  0  0  0  0
  197.0730  174.2770  137.8120 C   0  0  0  0  0  0  0  0  0  0  0  0
  197.5850  175.3700  137.6270 O   0  0  0  0  0  0  0  0  0  0  0  0
  194.5110  173.2510  136.3560 C   0  0  0  0  0  2  0  0  0  0  0  0
  193.0610  172.8430  136.1870 C   0  0  0  0  0  1  0  0  0  0  0  0
  189.4470  178.3690  142.8770 N   0  0  0  0  0  2  0  0  0  0  0  0
  190.4800  177.3710  144.8480 C   0  0  0  0  0  3  0  0  0  0  0  0
  189.3340  177.8720  144.2210 C   0  0  0  0  0  0  0  0  0  0  0  0
  190.4250  176.8810  146.1610 C   0  0  0  0  0  0  0  0  0  0  0  0
  188.0560  177.4080  146.2360 C   0  0  0  0  0  3  0  0  0  0  0  0
  189.2040  176.9010  146.8510 C   0  0  0  0  0  3  0  0  0  0  0  0
  188.1220  177.8930  144.9280 C   0  0  0  0  0  3  0  0  0  0  0  0
  192.2940  175.4220  146.2640 O   0  0  0  0  0  0  0  0  0  0  0  0
  191.6370  176.3480  146.8090 C   0  0  0  0  0  0  0  0  0  0  0  0
  192.0810  176.8780  148.0560 N   0  0  0  0  0  1  0  0  0  0  0  0
  2  5  1  0  0  0  0
  2  4  1  0  0  0  0
  3  1  2  0  0  0  0
  4  6  2  0  0  0  0
  5  3  1  1  0  0  0
  6  1  1  0  0  0  0
  6 35  1  0  0  0  0
  7  5  1  0  0  0  0
  8  9  1  0  0  0  0
  8  7  2  0  0  0  0
  9  2  2  0  0  0  0
 10  7  1  0  0  0  0
 10 11  1  0  0  0  0
 11 12  2  0  0  0  0
 11 16  1  0  0  0  0
 13 14  1  0  0  0  0
 15 16  1  0  0  0  0
 15 17  1  0  0  0  0
 16 13  1  0  0  0  0
 17 14  1  0  0  0  0
 18 19  2  0  0  0  0
 19  8  1  0  0  0  0
 20 21  1  0  0  0  0
 20  9  1  0  0  0  0
 21 22  1  0  0  0  0
 22 23  1  0  0  0  0
 25 24  1  6  0  0  0
 25 23  1  0  0  0  0
 26 25  1  0  0  0  0
 27 33  1  6  0  0  0
 27 26  1  0  0  0  0
 27 28  1  0  0  0  0
 28 29  1  6  0  0  0
 30 31  1  0  0  0  0
 31 28  1  0  0  0  0
 32 31  2  0  0  0  0
 34 33  1  0  0  0  0
 35 37  1  0  0  0  0
 36 38  1  0  0  0  0
 37 36  2  0  0  0  0
 37 41  1  0  0  0  0
 38 43  1  0  0  0  0
 38 40  2  0  0  0  0
 39 40  1  0  0  0  0
 41 39  2  0  0  0  0
 42 43  2  0  0  0  0
 43 44  1  0  0  0  0
M  END
>  <MODEL>
2

>  <REMARK>
 VINA RESULT:      -7.5      2.090      9.000
  Name = 
  16 active torsions:
  status: ('A' for Active; 'I' for Inactive)
    1  A    between atoms: N_4  and  C_36
    2  A    between atoms: C_5  and  C_14
    3  A    between atoms: C_5  and  C_23
    4  A    between atoms: C_6  and  N_7
    5  A    between atoms: N_7  and  C_35
    6  A    between atoms: C_8  and  C_29
    7  A    between atoms: C_9  and  C_38
    8  A    between atoms: C_14  and  C_16
    9  A    between atoms: C_14  and  O_31
   10  A    between atoms: C_15  and  C_22
   11  A    between atoms: C_15  and  C_40
   12  A    between atoms: C_17  and  S_18
   13  A    between atoms: C_17  and  C_22
   14  A    between atoms: S_18  and  C_39
   15  A    between atoms: C_21  and  C_37
   16  A    between atoms: O_31  and  C_40
                            x       y       z     vdW  Elec       q    Type
                         _______ _______ _______ _____ _____    ______ ____

>  <TORSDO>
F 16

$$$$
=
 OpenBabel10222422003D

 44 47  0  0  1  0  0  0  0  0999 V2000
  187.5260  176.6890  136.3530 C   0  0  0  0  0  3  0  0  0  0  0  0
  188.6870  177.4780  138.7970 C   0  0  0  0  0  0  0  0  0  0  0  0
  189.0050  176.3750  136.4940 C   0  0  0  0  0  3  0  0  0  0  0  0
  187.4000  177.7220  138.5860 C   0  0  0  0  0  3  0  0  0  0  0  0
  189.5210  176.8180  137.8290 C   0  0  0  0  0  0  0  0  0  0  0  0
  186.7840  177.2980  137.3030 C   0  0  0  0  0  0  0  0  0  0  0  0
  190.7340  176.6890  138.3450 C   0  0  0  0  0  0  0  0  0  0  0  0
  190.7490  177.3120  139.6910 C   0  0  0  0  0  0  0  0  0  0  0  0
  189.5160  177.7710  139.9540 C   0  0  1  0  0  3  0  0  0  0  0  0
  191.8400  176.1120  137.6390 N   0  0  0  0  0  2  0  0  0  0  0  0
  192.0570  174.7120  137.4450 C   0  0  0  0  0  0  0  0  0  0  0  0
  191.1190  173.8830  137.6190 O   0  0  0  0  0  0  0  0  0  0  0  0
  194.4160  174.2050  138.0660 C   0  0  0  0  0  2  0  0  0  0  0  0
  195.1700  172.8970  137.9110 C   0  0  0  0  0  2  0  0  0  0  0  0
  193.3020  172.8450  136.3910 C   0  0  0  0  0  2  0  0  0  0  0  0
  193.3870  174.2480  136.9490 C   0  0  0  0  0  3  0  0  0  0  0  0
  194.6660  172.2490  136.6360 C   0  0  0  0  0  2  0  0  0  0  0  0
  193.1100  177.3670  140.0630 O   0  0  0  0  0  0  0  0  0  0  0  0
  191.9470  177.4780  140.5300 C   0  0  0  0  0  3  0  0  0  0  0  0
  188.9640  178.6580  141.4120 S   0  0  0  0  0  0  0  0  0  0  0  0
  188.2520  177.1540  142.1450 C   0  0  0  0  0  2  0  0  0  0  0  0
  187.0450  177.5100  142.9910 C   0  0  0  0  0  2  0  0  0  0  0  0
  187.0170  176.6650  144.2530 C   0  0  0  0  0  2  0  0  0  0  0  0
  186.3710  178.6350  145.4040 O   0  0  0  0  0  1  0  0  0  0  0  0
  187.2380  177.5420  145.4730 C   0  0  2  0  0  3  0  0  0  0  0  0
  188.5620  178.0010  145.4910 O   0  0  0  0  0  0  0  0  0  0  0  0
  189.3100  177.0050  146.1410 C   0  0  1  0  0  3  0  0  0  0  0  0
  190.8040  177.3250  146.0340 C   0  0  1  0  0  3  0  0  0  0  0  0
  191.5640  176.3300  146.6580 O   0  0  0  0  0  1  0  0  0  0  0  0
  191.6350  178.8000  144.0840 C   0  0  0  0  0  1  0  0  0  0  0  0
  191.2430  177.4620  144.6080 C   0  0  0  0  0  0  0  0  0  0  0  0
  191.3040  176.4830  143.8790 O   0  0  0  0  0  0  0  0  0  0  0  0
  188.9120  176.9550  147.6150 C   0  0  0  0  0  2  0  0  0  0  0  0
  189.1630  178.2940  148.2800 C   0  0  0  0  0  1  0  0  0  0  0  0
  185.3960  177.5390  137.0240 N   0  0  0  0  0  2  0  0  0  0  0  0
  183.6180  178.1850  138.5630 C   0  0  0  0  0  3  0  0  0  0  0  0
  184.2570  177.1830  137.8240 C   0  0  0  0  0  0  0  0  0  0  0  0
  182.4980  177.8920  139.3550 C   0  0  0  0  0  0  0  0  0  0  0  0
  182.6400  175.5710  138.6570 C   0  0  0  0  0  3  0  0  0  0  0  0
  182.0140  176.5760  139.3980 C   0  0  0  0  0  3  0  0  0  0  0  0
  183.7550  175.8740  137.8720 C   0  0  0  0  0  3  0  0  0  0  0  0
  181.8340  178.9090  141.3940 O   0  0  0  0  0  0  0  0  0  0  0  0
  181.8370  178.9540  140.1350 C   0  0  0  0  0  0  0  0  0  0  0  0
  181.2010  180.0450  139.4750 N   0  0  0  0  0  1  0  0  0  0  0  0
  1  3  2  0  0  0  0
  1  6  1  0  0  0  0
  2  9  1  0  0  0  0
  3  5  1  0  0  0  0
  4  2  1  0  0  0  0
  5  7  1  0  0  0  0
  5  2  2  0  0  0  0
  6  4  2  0  0  0  0
  7  8  2  0  0  0  0
  8  9  1  0  0  0  0
  8 19  1  0  0  0  0
  9 20  1  6  0  0  0
 10  7  1  0  0  0  0
 11 12  2  0  0  0  0
 11 10  1  0  0  0  0
 14 13  1  0  0  0  0
 15 17  1  0  0  0  0
 15 16  1  0  0  0  0
 16 11  1  0  0  0  0
 16 13  1  0  0  0  0
 17 14  1  0  0  0  0
 18 19  2  0  0  0  0
 20 21  1  0  0  0  0
 21 22  1  0  0  0  0
 22 23  1  0  0  0  0
 23 25  1  0  0  0  0
 25 24  1  6  0  0  0
 25 26  1  0  0  0  0
 26 27  1  0  0  0  0
 27 33  1  1  0  0  0
 28 27  1  0  0  0  0
 28 29  1  6  0  0  0
 30 31  1  0  0  0  0
 31 28  1  0  0  0  0
 32 31  2  0  0  0  0
 33 34  1  0  0  0  0
 35  6  1  0  0  0  0
 35 37  1  0  0  0  0
 36 38  1  0  0  0  0
 37 41  1  0  0  0  0
 37 36  2  0  0  0  0
 38 40  2  0  0  0  0
 38 43  1  0  0  0  0
 39 40  1  0  0  0  0
 41 39  2  0  0  0  0
 43 42  2  0  0  0  0
 44 43  1  0  0  0  0
M  END
>  <MODEL>
3

>  <REMARK>
 VINA RESULT:      -7.5      2.482      7.031
  Name = 
  16 active torsions:
  status: ('A' for Active; 'I' for Inactive)
    1  A    between atoms: N_4  and  C_36
    2  A    between atoms: C_5  and  C_14
    3  A    between atoms: C_5  and  C_23
    4  A    between atoms: C_6  and  N_7
    5  A    between atoms: N_7  and  C_35
    6  A    between atoms: C_8  and  C_29
    7  A    between atoms: C_9  and  C_38
    8  A    between atoms: C_14  and  C_16
    9  A    between atoms: C_14  and  O_31
   10  A    between atoms: C_15  and  C_22
   11  A    between atoms: C_15  and  C_40
   12  A    between atoms: C_17  and  S_18
   13  A    between atoms: C_17  and  C_22
   14  A    between atoms: S_18  and  C_39
   15  A    between atoms: C_21  and  C_37
   16  A    between atoms: O_31  and  C_40
                            x       y       z     vdW  Elec       q    Type
                         _______ _______ _______ _____ _____    ______ ____

>  <TORSDO>
F 16

$$$$
=
 OpenBabel10222422003D

 44 47  0  0  1  0  0  0  0  0999 V2000
  183.7870  178.7880  145.2580 C   0  0  0  0  0  3  0  0  0  0  0  0
  185.5160  178.7720  143.0320 C   0  0  0  0  0  0  0  0  0  0  0  0
  183.0960  178.7800  143.9060 C   0  0  0  0  0  3  0  0  0  0  0  0
  186.0370  178.7880  144.2530 C   0  0  0  0  0  3  0  0  0  0  0  0
  184.0980  178.7550  142.7930 C   0  0  2  0  0  3  0  0  0  0  0  0
  185.1270  178.7870  145.4270 C   0  0  0  0  0  0  0  0  0  0  0  0
  183.8980  178.7030  141.4850 C   0  0  0  0  0  0  0  0  0  0  0  0
  185.2140  178.7230  140.8000 C   0  0  0  0  0  0  0  0  0  0  0  0
  186.1740  178.7540  141.7360 C   0  0  0  0  0  0  0  0  0  0  0  0
  182.5990  178.7160  140.8790 N   0  0  0  0  0  2  0  0  0  0  0  0
  182.0400  177.6560  140.0990 C   0  0  0  0  0  0  0  0  0  0  0  0
  182.5330  176.4940  140.1410 O   0  0  0  0  0  0  0  0  0  0  0  0
  180.7970  179.3370  138.7420 C   0  0  0  0  0  2  0  0  0  0  0  0
  180.3490  179.2340  137.2950 C   0  0  0  0  0  2  0  0  0  0  0  0
  180.7280  176.9960  138.1020 C   0  0  0  0  0  2  0  0  0  0  0  0
  180.8100  177.9220  139.2950 C   0  0  0  0  0  3  0  0  0  0  0  0
  179.9820  177.7830  137.0530 C   0  0  0  0  0  2  0  0  0  0  0  0
  184.7180  179.5680  138.6180 O   0  0  0  0  0  0  0  0  0  0  0  0
  185.4040  178.8010  139.3420 C   0  0  0  0  0  3  0  0  0  0  0  0
  187.9480  178.8390  141.4870 S   0  0  0  0  0  0  0  0  0  0  0  0
  188.1470  177.0570  141.7870 C   0  0  0  0  0  2  0  0  0  0  0  0
  189.5750  176.6370  141.4910 C   0  0  0  0  0  2  0  0  0  0  0  0
  190.1350  177.4490  140.3370 C   0  0  0  0  0  2  0  0  0  0  0  0
  191.1090  175.8290  138.9040 O   0  0  0  0  0  1  0  0  0  0  0  0
  190.0020  176.6710  139.0390 C   0  0  2  0  0  3  0  0  0  0  0  0
  189.9600  177.5600  137.9570 O   0  0  0  0  0  0  0  0  0  0  0  0
  188.9760  177.0660  137.0850 C   0  0  1  0  0  3  0  0  0  0  0  0
  187.7940  178.0390  137.0330 C   0  0  1  0  0  3  0  0  0  0  0  0
  188.2500  179.3580  136.9400 O   0  0  0  0  0  1  0  0  0  0  0  0
  185.9190  176.6180  135.9680 C   0  0  0  0  0  1  0  0  0  0  0  0
  186.8840  177.7480  135.8780 C   0  0  0  0  0  0  0  0  0  0  0  0
  186.9120  178.4440  134.8740 O   0  0  0  0  0  0  0  0  0  0  0  0
  189.5680  176.9200  135.6850 C   0  0  0  0  0  2  0  0  0  0  0  0
  190.1240  175.5240  135.4840 C   0  0  0  0  0  1  0  0  0  0  0  0
  185.6390  178.8060  146.7690 N   0  0  0  0  0  2  0  0  0  0  0  0
  187.9330  178.1490  146.2660 C   0  0  0  0  0  3  0  0  0  0  0  0
  186.9520  178.4360  147.2210 C   0  0  0  0  0  0  0  0  0  0  0  0
  189.2320  177.7900  146.6550 C   0  0  0  0  0  0  0  0  0  0  0  0
  188.5750  178.0180  148.9810 C   0  0  0  0  0  3  0  0  0  0  0  0
  189.5460  177.7250  148.0200 C   0  0  0  0  0  3  0  0  0  0  0  0
  187.2850  178.3740  148.5830 C   0  0  0  0  0  3  0  0  0  0  0  0
  191.0730  176.5420  145.8260 O   0  0  0  0  0  0  0  0  0  0  0  0
  190.2560  177.4820  145.6400 C   0  0  0  0  0  0  0  0  0  0  0  0
  190.3300  178.2420  144.4360 N   0  0  0  0  0  1  0  0  0  0  0  0
  1  6  1  0  0  0  0
  2  4  1  0  0  0  0
  3  1  2  0  0  0  0
  4  6  2  0  0  0  0
  5  2  1  0  0  0  0
  5  3  1  1  0  0  0
  6 35  1  0  0  0  0
  7  5  1  0  0  0  0
  8  7  2  0  0  0  0
  8  9  1  0  0  0  0
  9  2  2  0  0  0  0
 10  7  1  0  0  0  0
 11 12  2  0  0  0  0
 11 10  1  0  0  0  0
 13 16  1  0  0  0  0
 14 13  1  0  0  0  0
 15 16  1  0  0  0  0
 16 11  1  0  0  0  0
 17 14  1  0  0  0  0
 17 15  1  0  0  0  0
 18 19  2  0  0  0  0
 19  8  1  0  0  0  0
 20  9  1  0  0  0  0
 20 21  1  0  0  0  0
 22 21  1  0  0  0  0
 23 22  1  0  0  0  0
 25 24  1  6  0  0  0
 25 23  1  0  0  0  0
 26 25  1  0  0  0  0
 27 33  1  6  0  0  0
 27 26  1  0  0  0  0
 28 29  1  6  0  0  0
 28 27  1  0  0  0  0
 31 30  1  0  0  0  0
 31 28  1  0  0  0  0
 32 31  2  0  0  0  0
 34 33  1  0  0  0  0
 35 37  1  0  0  0  0
 36 38  2  0  0  0  0
 36 37  1  0  0  0  0
 37 41  2  0  0  0  0
 38 40  1  0  0  0  0
 40 39  2  0  0  0  0
 41 39  1  0  0  0  0
 43 42  2  0  0  0  0
 43 38  1  0  0  0  0
 44 43  1  0  0  0  0
M  END
>  <MODEL>
4

>  <REMARK>
 VINA RESULT:      -7.2      2.858      8.090
  Name = 
  16 active torsions:
  status: ('A' for Active; 'I' for Inactive)
    1  A    between atoms: N_4  and  C_36
    2  A    between atoms: C_5  and  C_14
    3  A    between atoms: C_5  and  C_23
    4  A    between atoms: C_6  and  N_7
    5  A    between atoms: N_7  and  C_35
    6  A    between atoms: C_8  and  C_29
    7  A    between atoms: C_9  and  C_38
    8  A    between atoms: C_14  and  C_16
    9  A    between atoms: C_14  and  O_31
   10  A    between atoms: C_15  and  C_22
   11  A    between atoms: C_15  and  C_40
   12  A    between atoms: C_17  and  S_18
   13  A    between atoms: C_17  and  C_22
   14  A    between atoms: S_18  and  C_39
   15  A    between atoms: C_21  and  C_37
   16  A    between atoms: O_31  and  C_40
                            x       y       z     vdW  Elec       q    Type
                         _______ _______ _______ _____ _____    ______ ____

>  <TORSDO>
F 16

$$$$
=
 OpenBabel10222422003D

 44 47  0  0  1  0  0  0  0  0999 V2000
  189.7060  177.2620  140.8920 C   0  0  0  0  0  3  0  0  0  0  0  0
  189.0300  176.8520  138.1870 C   0  0  0  0  0  0  0  0  0  0  0  0
  190.7330  176.4920  140.0820 C   0  0  0  0  0  3  0  0  0  0  0  0
  188.1840  177.5090  138.9710 C   0  0  0  0  0  3  0  0  0  0  0  0
  190.2890  176.3420  138.6590 C   0  0  2  0  0  3  0  0  0  0  0  0
  188.5430  177.7340  140.3940 C   0  0  0  0  0  0  0  0  0  0  0  0
  190.9160  175.7750  137.6390 C   0  0  0  0  0  0  0  0  0  0  0  0
  190.0490  175.8610  136.4390 C   0  0  0  0  0  0  0  0  0  0  0  0
  188.9280  176.5160  136.7770 C   0  0  0  0  0  0  0  0  0  0  0  0
  192.1860  175.1210  137.7530 N   0  0  0  0  0  2  0  0  0  0  0  0
  193.4530  175.7210  137.4730 C   0  0  0  0  0  0  0  0  0  0  0  0
  193.5700  176.9760  137.3980 O   0  0  0  0  0  0  0  0  0  0  0  0
  195.2040  174.4570  138.7170 C   0  0  0  0  0  2  0  0  0  0  0  0
  195.5200  172.9730  138.6510 C   0  0  0  0  0  2  0  0  0  0  0  0
  194.3230  173.5530  136.6430 C   0  0  0  0  0  2  0  0  0  0  0  0
  194.6570  174.8460  137.3530 C   0  0  0  0  0  3  0  0  0  0  0  0
  195.2780  172.5380  137.2200 C   0  0  0  0  0  2  0  0  0  0  0  0
  189.8630  174.1200  134.8100 O   0  0  0  0  0  0  0  0  0  0  0  0
  190.3440  175.2360  135.1390 C   0  0  0  0  0  3  0  0  0  0  0  0
  187.5070  176.8670  135.7400 S   0  0  0  0  0  0  0  0  0  0  0  0
  186.7740  175.2370  136.0700 C   0  0  0  0  0  2  0  0  0  0  0  0
  185.2600  175.3380  136.0670 C   0  0  0  0  0  2  0  0  0  0  0  0
  184.6710  174.4830  137.1740 C   0  0  0  0  0  2  0  0  0  0  0  0
  182.3620  174.3420  137.6970 O   0  0  0  0  0  1  0  0  0  0  0  0
  183.4730  175.1840  137.7930 C   0  0  2  0  0  3  0  0  0  0  0  0
  183.2140  176.3750  137.1020 O   0  0  0  0  0  0  0  0  0  0  0  0
  183.0000  177.3550  138.0860 C   0  0  1  0  0  3  0  0  0  0  0  0
  184.3420  177.7940  138.6800 C   0  0  1  0  0  3  0  0  0  0  0  0
  185.0930  178.4940  137.7300 O   0  0  0  0  0  1  0  0  0  0  0  0
  183.2440  178.2050  140.9810 C   0  0  0  0  0  1  0  0  0  0  0  0
  184.1590  178.6530  139.8950 C   0  0  0  0  0  0  0  0  0  0  0  0
  184.7700  179.7040  140.0110 O   0  0  0  0  0  0  0  0  0  0  0  0
  182.3120  178.5640  137.4540 C   0  0  0  0  0  2  0  0  0  0  0  0
  180.9360  178.7690  138.0560 C   0  0  0  0  0  1  0  0  0  0  0  0
  187.6620  178.4370  141.2850 N   0  0  0  0  0  2  0  0  0  0  0  0
  186.1260  178.6260  143.1690 C   0  0  0  0  0  3  0  0  0  0  0  0
  187.3000  178.0890  142.6310 C   0  0  0  0  0  0  0  0  0  0  0  0
  185.7240  178.3130  144.4760 C   0  0  0  0  0  0  0  0  0  0  0  0
  187.6820  176.8970  144.7150 C   0  0  0  0  0  3  0  0  0  0  0  0
  186.5110  177.4450  145.2460 C   0  0  0  0  0  3  0  0  0  0  0  0
  188.0720  177.2160  143.4120 C   0  0  0  0  0  3  0  0  0  0  0  0
  184.2180  178.7520  146.2570 O   0  0  0  0  0  0  0  0  0  0  0  0
  184.4880  178.8910  145.0350 C   0  0  0  0  0  0  0  0  0  0  0  0
  183.5890  179.6170  144.2010 N   0  0  0  0  0  1  0  0  0  0  0  0
  2  5  1  0  0  0  0
  2  4  1  0  0  0  0
  3  1  2  0  0  0  0
  4  6  2  0  0  0  0
  5  3  1  6  0  0  0
  6  1  1  0  0  0  0
  6 35  1  0  0  0  0
  7 10  1  0  0  0  0
  7  5  1  0  0  0  0
  8  9  1  0  0  0  0
  8  7  2  0  0  0  0
  9  2  2  0  0  0  0
 11 10  1  0  0  0  0
 12 11  2  0  0  0  0
 14 13  1  0  0  0  0
 15 17  1  0  0  0  0
 15 16  1  0  0  0  0
 16 11  1  0  0  0  0
 16 13  1  0  0  0  0
 17 14  1  0  0  0  0
 18 19  2  0  0  0  0
 19  8  1  0  0  0  0
 20 21  1  0  0  0  0
 20  9  1  0  0  0  0
 22 21  1  0  0  0  0
 22 23  1  0  0  0  0
 23 25  1  0  0  0  0
 25 24  1  6  0  0  0
 26 25  1  0  0  0  0
 26 27  1  0  0  0  0
 27 33  1  6  0  0  0
 27 28  1  0  0  0  0
 28 29  1  6  0  0  0
 28 31  1  0  0  0  0
 31 32  2  0  0  0  0
 31 30  1  0  0  0  0
 33 34  1  0  0  0  0
 35 37  1  0  0  0  0
 36 38  1  0  0  0  0
 37 36  2  0  0  0  0
 37 41  1  0  0  0  0
 38 43  1  0  0  0  0
 38 40  2  0  0  0  0
 39 40  1  0  0  0  0
 41 39  2  0  0  0  0
 43 42  2  0  0  0  0
 44 43  1  0  0  0  0
M  END
>  <MODEL>
5

>  <REMARK>
 VINA RESULT:      -7.1      1.799      2.332
  Name = 
  16 active torsions:
  status: ('A' for Active; 'I' for Inactive)
    1  A    between atoms: N_4  and  C_36
    2  A    between atoms: C_5  and  C_14
    3  A    between atoms: C_5  and  C_23
    4  A    between atoms: C_6  and  N_7
    5  A    between atoms: N_7  and  C_35
    6  A    between atoms: C_8  and  C_29
    7  A    between atoms: C_9  and  C_38
    8  A    between atoms: C_14  and  C_16
    9  A    between atoms: C_14  and  O_31
   10  A    between atoms: C_15  and  C_22
   11  A    between atoms: C_15  and  C_40
   12  A    between atoms: C_17  and  S_18
   13  A    between atoms: C_17  and  C_22
   14  A    between atoms: S_18  and  C_39
   15  A    between atoms: C_21  and  C_37
   16  A    between atoms: O_31  and  C_40
                            x       y       z     vdW  Elec       q    Type
                         _______ _______ _______ _____ _____    ______ ____

>  <TORSDO>
F 16

$$$$
=
 OpenBabel10222422003D

 44 47  0  0  1  0  0  0  0  0999 V2000
  186.4470  178.2620  138.9090 C   0  0  0  0  0  3  0  0  0  0  0  0
  185.2350  178.6470  141.4250 C   0  0  0  0  0  0  0  0  0  0  0  0
  184.9280  178.2620  138.8990 C   0  0  0  0  0  3  0  0  0  0  0  0
  186.5590  178.6240  141.3440 C   0  0  0  0  0  3  0  0  0  0  0  0
  184.3840  178.4900  140.2760 C   0  0  0  0  0  0  0  0  0  0  0  0
  187.2000  178.4300  140.0180 C   0  0  0  0  0  0  0  0  0  0  0  0
  183.1250  178.5970  140.6740 C   0  0  0  0  0  0  0  0  0  0  0  0
  183.1050  178.7950  142.1440 C   0  0  0  0  0  0  0  0  0  0  0  0
  184.3720  178.8340  142.5790 C   0  0  1  0  0  3  0  0  0  0  0  0
  182.0010  178.4490  139.7980 N   0  0  0  0  0  2  0  0  0  0  0  0
  181.4620  177.2040  139.3460 C   0  0  0  0  0  0  0  0  0  0  0  0
  181.7500  176.1250  139.9360 O   0  0  0  0  0  0  0  0  0  0  0  0
  180.7220  178.3720  137.2730 C   0  0  0  0  0  2  0  0  0  0  0  0
  180.6230  177.8170  135.8640 C   0  0  0  0  0  2  0  0  0  0  0  0
  180.6100  175.9490  137.3850 C   0  0  0  0  0  2  0  0  0  0  0  0
  180.4840  177.2060  138.2170 C   0  0  0  0  0  3  0  0  0  0  0  0
  180.2030  176.3660  135.9930 C   0  0  0  0  0  2  0  0  0  0  0  0
  181.2940  179.9120  143.2370 O   0  0  0  0  0  0  0  0  0  0  0  0
  181.8880  178.8340  142.9720 C   0  0  0  0  0  3  0  0  0  0  0  0
  184.9470  179.0010  144.2710 S   0  0  0  0  0  0  0  0  0  0  0  0
  186.2680  177.7780  144.0190 C   0  0  0  0  0  2  0  0  0  0  0  0
  186.7080  177.2060  145.3530 C   0  0  0  0  0  2  0  0  0  0  0  0
  187.8290  178.0440  145.9420 C   0  0  0  0  0  2  0  0  0  0  0  0
  188.2310  177.4930  148.2140 O   0  0  0  0  0  1  0  0  0  0  0  0
  188.6500  177.2100  146.9110 C   0  0  2  0  0  3  0  0  0  0  0  0
  190.0070  177.5320  146.7790 O   0  0  0  0  0  0  0  0  0  0  0  0
  190.4640  176.8330  145.6500 C   0  0  1  0  0  3  0  0  0  0  0  0
  190.6500  177.8030  144.4790 C   0  0  1  0  0  3  0  0  0  0  0  0
  191.7940  178.5850  144.6680 O   0  0  0  0  0  1  0  0  0  0  0  0
  189.6320  176.2150  142.7160 C   0  0  0  0  0  1  0  0  0  0  0  0
  190.7540  177.0830  143.1690 C   0  0  0  0  0  0  0  0  0  0  0  0
  191.7400  177.2190  142.4610 O   0  0  0  0  0  0  0  0  0  0  0  0
  191.8030  176.1720  145.9720 C   0  0  0  0  0  2  0  0  0  0  0  0
  191.9640  175.9950  147.4690 C   0  0  0  0  0  1  0  0  0  0  0  0
  188.6280  178.3960  139.8760 N   0  0  0  0  0  2  0  0  0  0  0  0
  190.8140  177.5340  139.2230 C   0  0  0  0  0  3  0  0  0  0  0  0
  189.4210  177.4740  139.1090 C   0  0  0  0  0  0  0  0  0  0  0  0
  191.6330  176.6530  138.5010 C   0  0  0  0  0  0  0  0  0  0  0  0
  189.6500  175.6250  137.5480 C   0  0  0  0  0  3  0  0  0  0  0  0
  191.0410  175.6980  137.6620 C   0  0  0  0  0  3  0  0  0  0  0  0
  188.8440  176.5080  138.2710 C   0  0  0  0  0  3  0  0  0  0  0  0
  193.8370  176.3460  137.6760 O   0  0  0  0  0  0  0  0  0  0  0  0
  193.1000  176.7300  138.6230 C   0  0  0  0  0  0  0  0  0  0  0  0
  193.7000  177.2420  139.8090 N   0  0  0  0  0  1  0  0  0  0  0  0
  1  6  1  0  0  0  0
  2  9  1  0  0  0  0
  3  1  2  0  0  0  0
  3  5  1  0  0  0  0
  4  2  1  0  0  0  0
  5  7  1  0  0  0  0
  5  2  2  0  0  0  0
  6  4  2  0  0  0  0
  7  8  2  0  0  0  0
  8  9  1  0  0  0  0
  8 19  1  0  0  0  0
  9 20  1  1  0  0  0
 10  7  1  0  0  0  0
 11 10  1  0  0  0  0
 11 12  2  0  0  0  0
 13 16  1  0  0  0  0
 14 17  1  0  0  0  0
 14 13  1  0  0  0  0
 15 16  1  0  0  0  0
 16 11  1  0  0  0  0
 17 15  1  0  0  0  0
 19 18  2  0  0  0  0
 21 20  1  0  0  0  0
 21 22  1  0  0  0  0
 22 23  1  0  0  0  0
 23 25  1  0  0  0  0
 25 24  1  1  0  0  0
 26 25  1  0  0  0  0
 27 33  1  1  0  0  0
 27 26  1  0  0  0  0
 28 29  1  1  0  0  0
 28 27  1  0  0  0  0
 30 31  1  0  0  0  0
 31 28  1  0  0  0  0
 32 31  2  0  0  0  0
 33 34  1  0  0  0  0
 35  6  1  0  0  0  0
 37 36  1  0  0  0  0
 37 35  1  0  0  0  0
 38 43  1  0  0  0  0
 38 36  2  0  0  0  0
 39 40  2  0  0  0  0
 39 41  1  0  0  0  0
 40 38  1  0  0  0  0
 41 37  2  0  0  0  0
 42 43  2  0  0  0  0
 43 44  1  0  0  0  0
M  END
>  <MODEL>
6

>  <REMARK>
 VINA RESULT:      -7.0      2.869      9.702
  Name = 
  16 active torsions:
  status: ('A' for Active; 'I' for Inactive)
    1  A    between atoms: N_4  and  C_36
    2  A    between atoms: C_5  and  C_14
    3  A    between atoms: C_5  and  C_23
    4  A    between atoms: C_6  and  N_7
    5  A    between atoms: N_7  and  C_35
    6  A    between atoms: C_8  and  C_29
    7  A    between atoms: C_9  and  C_38
    8  A    between atoms: C_14  and  C_16
    9  A    between atoms: C_14  and  O_31
   10  A    between atoms: C_15  and  C_22
   11  A    between atoms: C_15  and  C_40
   12  A    between atoms: C_17  and  S_18
   13  A    between atoms: C_17  and  C_22
   14  A    between atoms: S_18  and  C_39
   15  A    between atoms: C_21  and  C_37
   16  A    between atoms: O_31  and  C_40
                            x       y       z     vdW  Elec       q    Type
                         _______ _______ _______ _____ _____    ______ ____

>  <TORSDO>
F 16

$$$$
=
 OpenBabel10222422003D

 44 47  0  0  1  0  0  0  0  0999 V2000
  189.2060  177.7310  142.1350 C   0  0  0  0  0  3  0  0  0  0  0  0
  190.6300  177.0720  139.7930 C   0  0  0  0  0  0  0  0  0  0  0  0
  188.3500  177.5200  140.8980 C   0  0  0  0  0  3  0  0  0  0  0  0
  191.3010  177.2820  140.9190 C   0  0  0  0  0  3  0  0  0  0  0  0
  189.1960  177.1600  139.7160 C   0  0  2  0  0  3  0  0  0  0  0  0
  190.5520  177.6200  142.1560 C   0  0  0  0  0  0  0  0  0  0  0  0
  188.8280  176.8630  138.4790 C   0  0  0  0  0  0  0  0  0  0  0  0
  190.0430  176.6000  137.6700 C   0  0  0  0  0  0  0  0  0  0  0  0
  191.1130  176.7180  138.4690 C   0  0  0  0  0  0  0  0  0  0  0  0
  187.4680  176.8910  138.0280 N   0  0  0  0  0  2  0  0  0  0  0  0
  186.7960  178.0380  137.5020 C   0  0  0  0  0  0  0  0  0  0  0  0
  187.4490  179.0450  137.1070 O   0  0  0  0  0  0  0  0  0  0  0  0
  184.8340  176.6320  136.8810 C   0  0  0  0  0  2  0  0  0  0  0  0
  183.6190  176.2860  137.7230 C   0  0  0  0  0  2  0  0  0  0  0  0
  184.6170  178.2670  138.6620 C   0  0  0  0  0  2  0  0  0  0  0  0
  185.3110  177.9970  137.3460 C   0  0  0  0  0  3  0  0  0  0  0  0
  183.3200  177.5010  138.5780 C   0  0  0  0  0  2  0  0  0  0  0  0
  189.9570  177.2930  135.3820 O   0  0  0  0  0  0  0  0  0  0  0  0
  190.0520  176.3570  136.2180 C   0  0  0  0  0  3  0  0  0  0  0  0
  192.8420  176.5580  138.0190 S   0  0  0  0  0  0  0  0  0  0  0  0
  192.7130  174.7500  137.8840 C   0  0  0  0  0  2  0  0  0  0  0  0
  194.0100  174.1750  137.3460 C   0  0  0  0  0  2  0  0  0  0  0  0
  194.9650  173.8680  138.4860 C   0  0  0  0  0  2  0  0  0  0  0  0
  196.7690  175.0350  137.4820 O   0  0  0  0  0  1  0  0  0  0  0  0
  196.3890  173.7800  137.9640 C   0  0  2  0  0  3  0  0  0  0  0  0
  196.4540  172.8440  136.9230 O   0  0  0  0  0  0  0  0  0  0  0  0
  197.3560  171.8540  137.3460 C   0  0  1  0  0  3  0  0  0  0  0  0
  196.8030  170.4670  137.0030 C   0  0  1  0  0  3  0  0  0  0  0  0
  197.6790  169.4680  137.4400 O   0  0  0  0  0  1  0  0  0  0  0  0
  194.2640  170.0870  136.7260 C   0  0  0  0  0  1  0  0  0  0  0  0
  195.4520  170.2410  137.6100 C   0  0  0  0  0  0  0  0  0  0  0  0
  195.3210  170.1590  138.8220 O   0  0  0  0  0  0  0  0  0  0  0  0
  198.6930  172.0510  136.6330 C   0  0  0  0  0  2  0  0  0  0  0  0
  199.8100  172.2430  137.6390 C   0  0  0  0  0  1  0  0  0  0  0  0
  191.2300  177.8570  143.3990 N   0  0  0  0  0  2  0  0  0  0  0  0
  189.5350  177.7620  145.1490 C   0  0  0  0  0  3  0  0  0  0  0  0
  190.8300  177.4530  144.7180 C   0  0  0  0  0  0  0  0  0  0  0  0
  189.0920  177.3840  146.4250 C   0  0  0  0  0  0  0  0  0  0  0  0
  191.2540  176.3640  146.8490 C   0  0  0  0  0  3  0  0  0  0  0  0
  189.9620  176.6840  147.2730 C   0  0  0  0  0  3  0  0  0  0  0  0
  191.6850  176.7450  145.5760 C   0  0  0  0  0  3  0  0  0  0  0  0
  187.5460  178.3090  147.9690 O   0  0  0  0  0  0  0  0  0  0  0  0
  187.7280  177.7210  146.8710 C   0  0  0  0  0  0  0  0  0  0  0  0
  186.6020  177.3890  146.0630 N   0  0  0  0  0  1  0  0  0  0  0  0
  1  6  1  0  0  0  0
  2  4  1  0  0  0  0
  3  1  2  0  0  0  0
  4  6  2  0  0  0  0
  5  2  1  0  0  0  0
  5  3  1  1  0  0  0
  6 35  1  0  0  0  0
  7  5  1  0  0  0  0
  8  9  1  0  0  0  0
  8  7  2  0  0  0  0
  9  2  2  0  0  0  0
 10  7  1  0  0  0  0
 11 10  1  0  0  0  0
 12 11  2  0  0  0  0
 13 16  1  0  0  0  0
 13 14  1  0  0  0  0
 14 17  1  0  0  0  0
 16 11  1  0  0  0  0
 16 15  1  0  0  0  0
 17 15  1  0  0  0  0
 18 19  2  0  0  0  0
 19  8  1  0  0  0  0
 20  9  1  0  0  0  0
 21 20  1  0  0  0  0
 22 21  1  0  0  0  0
 22 23  1  0  0  0  0
 25 24  1  6  0  0  0
 25 23  1  0  0  0  0
 26 27  1  0  0  0  0
 26 25  1  0  0  0  0
 27 33  1  6  0  0  0
 28 27  1  0  0  0  0
 28 29  1  1  0  0  0
 28 31  1  0  0  0  0
 30 31  1  0  0  0  0
 31 32  2  0  0  0  0
 33 34  1  0  0  0  0
 35 37  1  0  0  0  0
 36 38  1  0  0  0  0
 37 36  2  0  0  0  0
 37 41  1  0  0  0  0
 38 43  1  0  0  0  0
 38 40  2  0  0  0  0
 39 40  1  0  0  0  0
 41 39  2  0  0  0  0
 43 42  2  0  0  0  0
 44 43  1  0  0  0  0
M  END
>  <MODEL>
7

>  <REMARK>
 VINA RESULT:      -7.0      2.857      9.450
  Name = 
  16 active torsions:
  status: ('A' for Active; 'I' for Inactive)
    1  A    between atoms: N_4  and  C_36
    2  A    between atoms: C_5  and  C_14
    3  A    between atoms: C_5  and  C_23
    4  A    between atoms: C_6  and  N_7
    5  A    between atoms: N_7  and  C_35
    6  A    between atoms: C_8  and  C_29
    7  A    between atoms: C_9  and  C_38
    8  A    between atoms: C_14  and  C_16
    9  A    between atoms: C_14  and  O_31
   10  A    between atoms: C_15  and  C_22
   11  A    between atoms: C_15  and  C_40
   12  A    between atoms: C_17  and  S_18
   13  A    between atoms: C_17  and  C_22
   14  A    between atoms: S_18  and  C_39
   15  A    between atoms: C_21  and  C_37
   16  A    between atoms: O_31  and  C_40
                            x       y       z     vdW  Elec       q    Type
                         _______ _______ _______ _____ _____    ______ ____

>  <TORSDO>
F 16

$$$$
=
 OpenBabel10222422003D

 44 47  0  0  1  0  0  0  0  0999 V2000
  191.6590  177.6070  141.3990 C   0  0  0  0  0  3  0  0  0  0  0  0
  190.2940  176.6650  139.1190 C   0  0  0  0  0  0  0  0  0  0  0  0
  192.5500  177.1710  140.2490 C   0  0  0  0  0  3  0  0  0  0  0  0
  189.5920  177.0590  140.1750 C   0  0  0  0  0  3  0  0  0  0  0  0
  191.7320  176.7050  139.0850 C   0  0  2  0  0  3  0  0  0  0  0  0
  190.3100  177.5640  141.3740 C   0  0  0  0  0  0  0  0  0  0  0  0
  192.1290  176.2880  137.8920 C   0  0  0  0  0  0  0  0  0  0  0  0
  190.9360  175.9130  137.0960 C   0  0  0  0  0  0  0  0  0  0  0  0
  189.8450  176.1530  137.8370 C   0  0  0  0  0  0  0  0  0  0  0  0
  193.5060  176.1560  137.5160 N   0  0  0  0  0  2  0  0  0  0  0  0
  194.2400  174.9290  137.4820 C   0  0  0  0  0  0  0  0  0  0  0  0
  193.6400  173.8180  137.4860 O   0  0  0  0  0  0  0  0  0  0  0  0
  196.4060  174.0580  138.3560 C   0  0  0  0  0  2  0  0  0  0  0  0
  197.5000  173.3270  137.5990 C   0  0  0  0  0  2  0  0  0  0  0  0
  196.1740  174.5250  135.9840 C   0  0  0  0  0  2  0  0  0  0  0  0
  195.7270  174.9800  137.3560 C   0  0  0  0  0  3  0  0  0  0  0  0
  197.5370  173.9180  136.2040 C   0  0  0  0  0  2  0  0  0  0  0  0
  191.4300  175.8910  134.7550 O   0  0  0  0  0  0  0  0  0  0  0  0
  190.9750  175.2890  135.7630 C   0  0  0  0  0  3  0  0  0  0  0  0
  188.1320  175.8420  137.4010 S   0  0  0  0  0  0  0  0  0  0  0  0
  187.8870  177.5560  136.8490 C   0  0  0  0  0  2  0  0  0  0  0  0
  186.8720  178.2480  137.7400 C   0  0  0  0  0  2  0  0  0  0  0  0
  185.4700  178.0600  137.1880 C   0  0  0  0  0  2  0  0  0  0  0  0
  184.2370  176.0620  137.5220 O   0  0  0  0  0  1  0  0  0  0  0  0
  184.6340  177.2420  138.1570 C   0  0  2  0  0  3  0  0  0  0  0  0
  183.4980  177.9710  138.5340 O   0  0  0  0  0  0  0  0  0  0  0  0
  183.1890  177.5610  139.8410 C   0  0  1  0  0  3  0  0  0  0  0  0
  183.3950  178.7270  140.8130 C   0  0  1  0  0  3  0  0  0  0  0  0
  182.2490  178.9230  141.5920 O   0  0  0  0  0  1  0  0  0  0  0  0
  185.9380  178.8560  141.2390 C   0  0  0  0  0  1  0  0  0  0  0  0
  184.5720  178.5010  141.7130 C   0  0  0  0  0  0  0  0  0  0  0  0
  184.4170  178.0510  142.8380 O   0  0  0  0  0  0  0  0  0  0  0  0
  181.7300  177.1110  139.8980 C   0  0  0  0  0  2  0  0  0  0  0  0
  181.6170  175.6290  139.6030 C   0  0  0  0  0  1  0  0  0  0  0  0
  189.5970  178.0000  142.5420 N   0  0  0  0  0  2  0  0  0  0  0  0
  188.7950  177.7810  144.8340 C   0  0  0  0  0  3  0  0  0  0  0  0
  189.8380  177.6390  143.9120 C   0  0  0  0  0  0  0  0  0  0  0  0
  188.9750  177.4360  146.1820 C   0  0  0  0  0  0  0  0  0  0  0  0
  191.2620  176.7860  145.6880 C   0  0  0  0  0  3  0  0  0  0  0  0
  190.2170  176.9390  146.6030 C   0  0  0  0  0  3  0  0  0  0  0  0
  191.0710  177.1330  144.3480 C   0  0  0  0  0  3  0  0  0  0  0  0
  186.6800  177.6640  146.7440 O   0  0  0  0  0  0  0  0  0  0  0  0
  187.8720  177.5970  147.1470 C   0  0  0  0  0  0  0  0  0  0  0  0
  188.1400  177.6730  148.5440 N   0  0  0  0  0  1  0  0  0  0  0  0
  2  4  1  0  0  0  0
  3  1  2  0  0  0  0
  4  6  2  0  0  0  0
  5  2  1  0  0  0  0
  5  3  1  6  0  0  0
  6  1  1  0  0  0  0
  6 35  1  0  0  0  0
  7  5  1  0  0  0  0
  8  9  1  0  0  0  0
  8  7  2  0  0  0  0
  9  2  2  0  0  0  0
 10  7  1  0  0  0  0
 11 12  2  0  0  0  0
 11 10  1  0  0  0  0
 14 13  1  0  0  0  0
 15 17  1  0  0  0  0
 15 16  1  0  0  0  0
 16 11  1  0  0  0  0
 16 13  1  0  0  0  0
 17 14  1  0  0  0  0
 18 19  2  0  0  0  0
 19  8  1  0  0  0  0
 20  9  1  0  0  0  0
 21 20  1  0  0  0  0
 21 22  1  0  0  0  0
 23 22  1  0  0  0  0
 23 25  1  0  0  0  0
 25 24  1  6  0  0  0
 25 26  1  0  0  0  0
 26 27  1  0  0  0  0
 27 33  1  6  0  0  0
 27 28  1  0  0  0  0
 28 29  1  1  0  0  0
 28 31  1  0  0  0  0
 30 31  1  0  0  0  0
 31 32  2  0  0  0  0
 34 33  1  0  0  0  0
 35 37  1  0  0  0  0
 36 38  1  0  0  0  0
 37 41  1  0  0  0  0
 37 36  2  0  0  0  0
 38 40  2  0  0  0  0
 38 43  1  0  0  0  0
 39 40  1  0  0  0  0
 41 39  2  0  0  0  0
 42 43  2  0  0  0  0
 43 44  1  0  0  0  0
M  END
>  <MODEL>
8

>  <REMARK>
 VINA RESULT:      -6.9      1.856      2.325
  Name = 
  16 active torsions:
  status: ('A' for Active; 'I' for Inactive)
    1  A    between atoms: N_4  and  C_36
    2  A    between atoms: C_5  and  C_14
    3  A    between atoms: C_5  and  C_23
    4  A    between atoms: C_6  and  N_7
    5  A    between atoms: N_7  and  C_35
    6  A    between atoms: C_8  and  C_29
    7  A    between atoms: C_9  and  C_38
    8  A    between atoms: C_14  and  C_16
    9  A    between atoms: C_14  and  O_31
   10  A    between atoms: C_15  and  C_22
   11  A    between atoms: C_15  and  C_40
   12  A    between atoms: C_17  and  S_18
   13  A    between atoms: C_17  and  C_22
   14  A    between atoms: S_18  and  C_39
   15  A    between atoms: C_21  and  C_37
   16  A    between atoms: O_31  and  C_40
                            x       y       z     vdW  Elec       q    Type
                         _______ _______ _______ _____ _____    ______ ____

>  <TORSDO>
F 16

$$$$
=
 OpenBabel10222422003D

 44 47  0  0  1  0  0  0  0  0999 V2000
  191.7830  176.8020  139.1150 C   0  0  0  0  0  3  0  0  0  0  0  0
  189.0820  177.5640  138.8550 C   0  0  0  0  0  0  0  0  0  0  0  0
  191.1170  177.2580  140.4010 C   0  0  0  0  0  2  0  0  0  0  0  0
  189.7450  177.1600  137.7780 C   0  0  0  0  0  3  0  0  0  0  0  0
  189.6840  177.6240  140.1600 C   0  0  0  0  0  0  0  0  0  0  0  0
  191.1660  176.7490  137.9150 C   0  0  0  0  0  0  0  0  0  0  0  0
  188.7640  178.0260  141.0240 C   0  0  0  0  0  0  0  0  0  0  0  0
  187.5020  178.2880  140.2890 C   0  0  0  0  0  0  0  0  0  0  0  0
  187.7030  177.9980  138.9950 C   0  0  0  0  0  0  0  0  0  0  0  0
  189.0230  178.2410  142.4170 N   0  0  0  0  0  2  0  0  0  0  0  0
  188.6000  177.3820  143.4790 C   0  0  0  0  0  0  0  0  0  0  0  0
  188.2270  176.1990  143.2420 O   0  0  0  0  0  0  0  0  0  0  0  0
  187.3270  177.8720  145.5640 C   0  0  0  0  0  2  0  0  0  0  0  0
  187.5350  177.2950  146.9520 C   0  0  0  0  0  2  0  0  0  0  0  0
  189.5820  176.9880  145.7200 C   0  0  0  0  0  2  0  0  0  0  0  0
  188.6860  177.8750  144.8860 C   0  0  0  0  0  3  0  0  0  0  0  0
  189.0270  177.0860  147.1200 C   0  0  0  0  0  2  0  0  0  0  0  0
  185.6870  178.3180  141.8460 O   0  0  0  0  0  0  0  0  0  0  0  0
  186.2850  178.8650  140.8830 C   0  0  0  0  0  3  0  0  0  0  0  0
  186.5410  178.1720  137.6390 S   0  0  0  0  0  0  0  0  0  0  0  0
  186.4820  176.3760  137.3650 C   0  0  0  0  0  2  0  0  0  0  0  0
  185.0410  175.9160  137.2520 C   0  0  0  0  0  2  0  0  0  0  0  0
  184.1100  176.9330  137.8870 C   0  0  0  0  0  2  0  0  0  0  0  0
  183.3090  177.5590  135.7450 O   0  0  0  0  0  1  0  0  0  0  0  0
  182.8870  177.1410  137.0090 C   0  0  2  0  0  3  0  0  0  0  0  0
  182.0630  178.1240  137.5720 O   0  0  0  0  0  0  0  0  0  0  0  0
  181.9480  177.8020  138.9350 C   0  0  1  0  0  3  0  0  0  0  0  0
  181.8930  179.0860  139.7690 C   0  0  1  0  0  3  0  0  0  0  0  0
  182.4190  178.8620  141.0460 O   0  0  0  0  0  1  0  0  0  0  0  0
  181.8890  181.3140  138.4640 C   0  0  0  0  0  1  0  0  0  0  0  0
  182.6420  180.2070  139.1150 C   0  0  0  0  0  0  0  0  0  0  0  0
  183.8640  180.2320  139.1310 O   0  0  0  0  0  0  0  0  0  0  0  0
  180.6650  177.0030  139.1580 C   0  0  0  0  0  2  0  0  0  0  0  0
  180.9870  175.5900  139.6040 C   0  0  0  0  0  1  0  0  0  0  0  0
  191.9270  176.3060  136.7810 N   0  0  0  0  0  2  0  0  0  0  0  0
  194.1920  175.4090  136.6670 C   0  0  0  0  0  3  0  0  0  0  0  0
  192.8120  175.1770  136.6950 C   0  0  0  0  0  0  0  0  0  0  0  0
  195.0990  174.3410  136.5900 C   0  0  0  0  0  0  0  0  0  0  0  0
  193.2350  172.7860  136.5820 C   0  0  0  0  0  3  0  0  0  0  0  0
  194.6110  173.0280  136.5460 C   0  0  0  0  0  3  0  0  0  0  0  0
  192.3410  173.8560  136.6590 C   0  0  0  0  0  3  0  0  0  0  0  0
  197.0740  175.4040  137.3670 O   0  0  0  0  0  0  0  0  0  0  0  0
  196.5510  174.5970  136.5540 C   0  0  0  0  0  0  0  0  0  0  0  0
  197.3770  173.9320  135.6020 N   0  0  0  0  0  1  0  0  0  0  0  0
  1  3  1  0  0  0  0
  2  9  1  0  0  0  0
  2  5  1  0  0  0  0
  4  6  1  0  0  0  0
  4  2  2  0  0  0  0
  5  3  1  0  0  0  0
  5  7  2  0  0  0  0
  6  1  2  0  0  0  0
  7 10  1  0  0  0  0
  8 19  1  0  0  0  0
  8  7  1  0  0  0  0
  9  8  2  0  0  0  0
 10 11  1  0  0  0  0
 11 16  1  0  0  0  0
 12 11  2  0  0  0  0
 13 14  1  0  0  0  0
 14 17  1  0  0  0  0
 15 17  1  0  0  0  0
 16 13  1  0  0  0  0
 16 15  1  0  0  0  0
 19 18  2  0  0  0  0
 20  9  1  0  0  0  0
 21 20  1  0  0  0  0
 22 21  1  0  0  0  0
 22 23  1  0  0  0  0
 25 24  1  6  0  0  0
 25 26  1  0  0  0  0
 25 23  1  0  0  0  0
 26 27  1  0  0  0  0
 27 33  1  6  0  0  0
 27 28  1  0  0  0  0
 28 29  1  1  0  0  0
 30 31  1  0  0  0  0
 31 32  2  0  0  0  0
 31 28  1  0  0  0  0
 33 34  1  0  0  0  0
 35  6  1  0  0  0  0
 36 37  1  0  0  0  0
 37 35  1  0  0  0  0
 38 36  2  0  0  0  0
 39 41  1  0  0  0  0
 40 39  2  0  0  0  0
 40 38  1  0  0  0  0
 41 37  2  0  0  0  0
 43 38  1  0  0  0  0
 43 42  2  0  0  0  0
 44 43  1  0  0  0  0
M  END
>  <MODEL>
9

>  <REMARK>
 VINA RESULT:      -6.9      1.951      7.254
  Name = 
  16 active torsions:
  status: ('A' for Active; 'I' for Inactive)
    1  A    between atoms: N_4  and  C_36
    2  A    between atoms: C_5  and  C_14
    3  A    between atoms: C_5  and  C_23
    4  A    between atoms: C_6  and  N_7
    5  A    between atoms: N_7  and  C_35
    6  A    between atoms: C_8  and  C_29
    7  A    between atoms: C_9  and  C_38
    8  A    between atoms: C_14  and  C_16
    9  A    between atoms: C_14  and  O_31
   10  A    between atoms: C_15  and  C_22
   11  A    between atoms: C_15  and  C_40
   12  A    between atoms: C_17  and  S_18
   13  A    between atoms: C_17  and  C_22
   14  A    between atoms: S_18  and  C_39
   15  A    between atoms: C_21  and  C_37
   16  A    between atoms: O_31  and  C_40
                            x       y       z     vdW  Elec       q    Type
                         _______ _______ _______ _____ _____    ______ ____

>  <TORSDO>
F 16

$$$$
