=
 OpenBabel10232410193D

 52 57  0  0  1  0  0  0  0  0999 V2000
  189.1000  177.1860  140.6040 C   0  0  2  0  0  3  0  0  0  0  0  0
  191.6830  176.9690  141.7890 C   0  0  0  0  0  2  0  0  0  0  0  0
  190.3500  176.4440  142.3440 C   0  0  2  0  0  3  0  0  0  0  0  0
  189.3150  177.3260  141.9900 O   0  0  0  0  0  0  0  0  0  0  0  0
  191.5980  177.0270  140.2700 C   0  0  1  0  0  3  0  0  0  0  0  0
  190.3060  177.7120  139.8000 C   0  0  1  0  0  3  0  0  0  0  0  0
  192.7130  177.7040  139.7740 O   0  0  0  0  0  1  0  0  0  0  0  0
  190.9840  177.0880  146.4360 C   0  0  0  0  0  2  0  0  0  0  0  0
  191.7990  175.9820  145.7720 C   0  0  0  0  0  2  0  0  0  0  0  0
  189.6180  177.0860  145.9150 N   0  0  0  0  0  0  0  0  0  0  0  0
  190.3630  176.2450  143.7990 N   0  0  1  0  0  0  0  0  0  0  0  0
  191.7530  176.1790  144.2600 C   0  0  0  0  0  2  0  0  0  0  0  0
  189.6830  177.3540  144.4810 C   0  0  0  0  0  2  0  0  0  0  0  0
  188.9240  178.2120  146.5190 C   0  0  0  0  0  2  0  0  0  0  0  0
  187.6350  178.4320  148.5670 C   0  0  0  0  0  2  0  0  0  0  0  0
  188.0210  177.0170  148.4420 N   0  0  0  0  0  2  0  0  0  0  0  0
  188.9460  178.0840  148.0310 C   0  0  1  0  0  3  0  0  0  0  0  0
  187.8170  177.9180  140.2010 C   0  0  2  0  0  3  0  0  0  0  0  0
  188.0450  178.7610  139.1050 O   0  0  0  0  0  0  0  0  0  0  0  0
  187.0470  178.5280  138.2790 O   0  0  0  0  0  0  0  0  0  0  0  0
  187.2940  179.2910  137.2340 O   0  0  0  0  0  1  0  0  0  0  0  0
  187.2930  178.7280  141.3740 C   0  0  0  0  0  2  0  0  0  0  0  0
  185.7730  178.7270  141.3850 C   0  0  0  0  0  2  0  0  0  0  0  0
  185.2440  179.0700  142.7680 C   0  0  0  0  0  2  0  0  0  0  0  0
  185.8670  178.1570  143.8150 C   0  0  0  0  0  2  0  0  0  0  0  0
  185.7340  177.4440  146.0930 F   0  0  0  0  0  0  0  0  0  0  0  0
  185.7710  179.6610  145.6630 F   0  0  0  0  0  0  0  0  0  0  0  0
  183.9460  178.4440  145.1650 F   0  0  0  0  0  0  0  0  0  0  0  0
  185.3260  178.4310  145.2150 C   0  0  0  0  0  0  0  0  0  0  0  0
  190.0930  177.4210  138.3150 C   0  0  0  0  0  2  0  0  0  0  0  0
  190.5800  175.7170  137.9070 S   0  0  0  0  0  0  0  0  0  0  0  0
  190.0580  175.9000  136.1700 C   0  0  2  0  0  3  0  0  0  0  0  0
  188.6590  175.5280  136.0110 N   0  0  0  0  0  0  0  0  0  0  0  0
  186.6300  174.3570  136.0590 C   0  0  0  0  0  0  0  0  0  0  0  0
  188.6540  173.3310  136.8900 O   0  0  0  0  0  0  0  0  0  0  0  0
  187.6340  176.3960  135.4510 C   0  0  0  0  0  2  0  0  0  0  0  0
  185.0600  176.0690  135.0750 C   0  0  0  0  0  1  0  0  0  0  0  0
  188.0430  174.3040  136.3750 C   0  0  0  0  0  0  0  0  0  0  0  0
  186.3850  175.5600  135.5270 C   0  0  0  0  0  0  0  0  0  0  0  0
  182.5280  172.4600  136.9590 N   0  0  0  0  0  2  0  0  0  0  0  0
  184.7840  173.2330  137.4260 C   0  0  0  0  0  2  0  0  0  0  0  0
  182.0350  171.6390  135.8640 C   0  0  0  0  0  2  0  0  0  0  0  0
  184.4040  171.3240  135.9490 C   0  0  2  0  0  3  0  0  0  0  0  0
  183.8960  172.0230  137.2020 C   0  0  2  0  0  3  0  0  0  0  0  0
  185.6770  173.2990  136.2870 N   0  0  0  0  0  0  0  0  0  0  0  0
  185.4840  172.2090  135.3530 C   0  0  0  0  0  2  0  0  0  0  0  0
  183.0660  169.9620  134.5350 O   0  0  0  0  0  1  0  0  0  0  0  0
  183.2230  171.2620  135.0140 C   0  0  1  0  0  3  0  0  0  0  0  0
  190.9490  175.0930  135.2410 C   0  0  0  0  0  2  0  0  0  0  0  0
  192.3140  175.6250  135.2810 C   0  0  0  0  0  0  0  0  0  0  0  0
  194.7830  176.6310  135.3800 C   0  0  0  0  0  1  0  0  0  0  0  0
  193.4310  176.0760  135.3230 C   0  0  0  0  0  0  0  0  0  0  0  0
  1 18  1  6  0  0  0
  1  4  1  0  0  0  0
  3  2  1  1  0  0  0
  3 11  1  0  0  0  0
  4  3  1  0  0  0  0
  5  7  1  1  0  0  0
  5  2  1  0  0  0  0
  6 30  1  6  0  0  0
  6  5  1  0  0  0  0
  6  1  1  0  0  0  0
  9  8  1  0  0  0  0
 10  8  1  0  0  0  0
 10 14  1  0  0  0  0
 11 12  1  1  0  0  0
 11 13  1  0  0  0  0
 12  9  1  0  0  0  0
 13 10  1  0  0  0  0
 16 15  1  0  0  0  0
 17 14  1  6  0  0  0
 17 16  1  0  0  0  0
 17 15  1  0  0  0  0
 18 22  1  1  0  0  0
 19 18  1  0  0  0  0
 20 19  1  0  0  0  0
 21 20  1  0  0  0  0
 22 23  1  0  0  0  0
 23 24  1  0  0  0  0
 24 25  1  0  0  0  0
 25 29  1  0  0  0  0
 28 29  1  0  0  0  0
 29 27  1  0  0  0  0
 29 26  1  0  0  0  0
 31 30  1  0  0  0  0
 32 49  1  6  0  0  0
 32 31  1  0  0  0  0
 33 32  1  0  0  0  0
 33 38  1  0  0  0  0
 34 45  1  0  0  0  0
 34 38  1  0  0  0  0
 36 39  1  0  0  0  0
 36 33  1  0  0  0  0
 37 39  1  0  0  0  0
 38 35  2  0  0  0  0
 39 34  2  0  0  0  0
 40 44  1  0  0  0  0
 42 40  1  0  0  0  0
 43 46  1  6  0  0  0
 43 44  1  0  0  0  0
 44 41  1  6  0  0  0
 45 41  1  0  0  0  0
 46 45  1  0  0  0  0
 48 47  1  1  0  0  0
 48 42  1  0  0  0  0
 48 43  1  0  0  0  0
 49 50  1  0  0  0  0
 50 52  3  0  0  0  0
 52 51  1  0  0  0  0
M  END
>  <MODEL>
1

>  <REMARK>
 VINA RESULT:      -7.7      0.000      0.000
  Name = 
  18 active torsions:
  status: ('A' for Active; 'I' for Inactive)
    1  A    between atoms: C_5  and  C_16
    2  A    between atoms: C_8  and  C_27
    3  A    between atoms: N_9  and  C_41
    4  A    between atoms: C_11  and  C_32
    5  A    between atoms: C_11  and  C_42
    6  A    between atoms: C_12  and  S_15
    7  A    between atoms: C_12  and  C_40
    8  A    between atoms: O_13  and  O_18
    9  A    between atoms: C_14  and  C_16
   10  A    between atoms: C_14  and  C_43
   11  A    between atoms: S_15  and  C_49
   12  A    between atoms: C_16  and  O_18
   13  A    between atoms: N_19  and  C_49
   14  A    between atoms: N_21  and  C_30
   15  A    between atoms: N_24  and  C_26
   16  A    between atoms: C_27  and  C_49
   17  A    between atoms: C_41  and  C_52
   18  A    between atoms: C_42  and  C_43
                            x       y       z     vdW  Elec       q    Type
                         _______ _______ _______ _____ _____    ______ ____

>  <TORSDO>
F 18

$$$$
=
 OpenBabel10232410193D

 52 57  0  0  1  0  0  0  0  0999 V2000
  189.0610  177.0410  138.7860 C   0  0  2  0  0  3  0  0  0  0  0  0
  191.2590  177.1530  140.5960 C   0  0  0  0  0  2  0  0  0  0  0  0
  189.7660  177.0360  140.9400 C   0  0  2  0  0  3  0  0  0  0  0  0
  189.0100  177.7560  139.9990 O   0  0  0  0  0  0  0  0  0  0  0  0
  191.4980  176.5460  139.2200 C   0  0  1  0  0  3  0  0  0  0  0  0
  190.4820  177.0600  138.1890 C   0  0  1  0  0  3  0  0  0  0  0  0
  192.7980  176.8430  138.8090 O   0  0  0  0  0  1  0  0  0  0  0  0
  189.1390  177.0490  145.0840 C   0  0  0  0  0  2  0  0  0  0  0  0
  187.9110  177.2200  144.1940 C   0  0  0  0  0  2  0  0  0  0  0  0
  190.2670  177.7950  144.5280 N   0  0  0  0  0  0  0  0  0  0  0  0
  189.4440  177.4940  142.2980 N   0  0  1  0  0  0  0  0  0  0  0  0
  188.2630  176.7720  142.7790 C   0  0  0  0  0  2  0  0  0  0  0  0
  190.5680  177.2410  143.2110 C   0  0  0  0  0  2  0  0  0  0  0  0
  191.4220  177.5190  145.3680 C   0  0  0  0  0  2  0  0  0  0  0  0
  192.1110  175.7030  146.8270 C   0  0  0  0  0  2  0  0  0  0  0  0
  191.8950  176.8870  147.6740 N   0  0  0  0  0  2  0  0  0  0  0  0
  191.0190  176.6210  146.5230 C   0  0  1  0  0  3  0  0  0  0  0  0
  188.0480  177.6250  137.7960 C   0  0  2  0  0  3  0  0  0  0  0  0
  187.8140  178.9810  138.0600 O   0  0  0  0  0  0  0  0  0  0  0  0
  188.6510  179.6320  137.2810 O   0  0  0  0  0  0  0  0  0  0  0  0
  188.5660  179.0220  136.1160 O   0  0  0  0  0  1  0  0  0  0  0  0
  186.7440  176.8510  137.8740 C   0  0  0  0  0  2  0  0  0  0  0  0
  185.5930  177.6920  137.3480 C   0  0  0  0  0  2  0  0  0  0  0  0
  184.4340  177.6960  138.3330 C   0  0  0  0  0  2  0  0  0  0  0  0
  184.4950  178.9330  139.2180 C   0  0  0  0  0  2  0  0  0  0  0  0
  184.3410  179.6240  141.5010 F   0  0  0  0  0  0  0  0  0  0  0  0
  184.0440  177.4370  141.0190 F   0  0  0  0  0  0  0  0  0  0  0  0
  186.0900  178.3600  140.8670 F   0  0  0  0  0  0  0  0  0  0  0  0
  184.7400  178.5840  140.6820 C   0  0  0  0  0  0  0  0  0  0  0  0
  190.5260  176.1650  136.9500 C   0  0  0  0  0  2  0  0  0  0  0  0
  190.2330  174.4260  137.3890 S   0  0  0  0  0  0  0  0  0  0  0  0
  189.7760  173.9900  135.6790 C   0  0  2  0  0  3  0  0  0  0  0  0
  188.3320  173.8460  135.5530 N   0  0  0  0  0  0  0  0  0  0  0  0
  186.1320  173.0590  135.7290 C   0  0  0  0  0  0  0  0  0  0  0  0
  187.9570  171.8200  136.7160 O   0  0  0  0  0  0  0  0  0  0  0  0
  187.4670  174.7960  134.8690 C   0  0  0  0  0  2  0  0  0  0  0  0
  184.8710  174.8700  134.5060 C   0  0  0  0  0  1  0  0  0  0  0  0
  187.5180  172.8060  136.0680 C   0  0  0  0  0  0  0  0  0  0  0  0
  186.0930  174.2050  135.0390 C   0  0  0  0  0  0  0  0  0  0  0  0
  181.7690  172.0320  136.8020 N   0  0  0  0  0  2  0  0  0  0  0  0
  184.1270  172.4690  137.2020 C   0  0  0  0  0  2  0  0  0  0  0  0
  181.1400  171.1600  135.8220 C   0  0  0  0  0  2  0  0  0  0  0  0
  183.4210  170.4630  135.9990 C   0  0  2  0  0  3  0  0  0  0  0  0
  183.0440  171.4080  137.1320 C   0  0  2  0  0  3  0  0  0  0  0  0
  185.0140  172.2210  136.0830 N   0  0  0  0  0  0  0  0  0  0  0  0
  184.6330  171.0590  135.3070 C   0  0  0  0  0  2  0  0  0  0  0  0
  181.8640  169.1630  134.7620 O   0  0  0  0  0  1  0  0  0  0  0  0
  182.2430  170.4710  135.0580 C   0  0  1  0  0  3  0  0  0  0  0  0
  190.4940  172.7300  135.2230 C   0  0  0  0  0  2  0  0  0  0  0  0
  191.8920  172.7720  135.6620 C   0  0  0  0  0  0  0  0  0  0  0  0
  194.4450  172.8860  136.4280 C   0  0  0  0  0  1  0  0  0  0  0  0
  193.0440  172.8200  136.0110 C   0  0  0  0  0  0  0  0  0  0  0  0
  1 18  1  6  0  0  0
  1  4  1  0  0  0  0
  3  2  1  6  0  0  0
  3 11  1  0  0  0  0
  4  3  1  0  0  0  0
  5  7  1  6  0  0  0
  5  2  1  0  0  0  0
  6 30  1  6  0  0  0
  6  1  1  0  0  0  0
  6  5  1  0  0  0  0
  9  8  1  0  0  0  0
 10  8  1  0  0  0  0
 10 14  1  0  0  0  0
 11 12  1  1  0  0  0
 11 13  1  0  0  0  0
 12  9  1  0  0  0  0
 13 10  1  0  0  0  0
 15 16  1  0  0  0  0
 17 14  1  6  0  0  0
 17 15  1  0  0  0  0
 17 16  1  0  0  0  0
 18 22  1  1  0  0  0
 18 19  1  0  0  0  0
 20 19  1  0  0  0  0
 21 20  1  0  0  0  0
 23 22  1  0  0  0  0
 23 24  1  0  0  0  0
 24 25  1  0  0  0  0
 25 29  1  0  0  0  0
 29 28  1  0  0  0  0
 29 27  1  0  0  0  0
 29 26  1  0  0  0  0
 30 31  1  0  0  0  0
 32 49  1  1  0  0  0
 32 31  1  0  0  0  0
 33 32  1  0  0  0  0
 33 38  1  0  0  0  0
 34 38  1  0  0  0  0
 34 45  1  0  0  0  0
 36 39  1  0  0  0  0
 36 33  1  0  0  0  0
 37 39  1  0  0  0  0
 38 35  2  0  0  0  0
 39 34  2  0  0  0  0
 40 44  1  0  0  0  0
 42 40  1  0  0  0  0
 43 46  1  6  0  0  0
 43 44  1  0  0  0  0
 44 41  1  6  0  0  0
 45 41  1  0  0  0  0
 46 45  1  0  0  0  0
 48 47  1  1  0  0  0
 48 42  1  0  0  0  0
 48 43  1  0  0  0  0
 49 50  1  0  0  0  0
 50 52  3  0  0  0  0
 52 51  1  0  0  0  0
M  END
>  <MODEL>
2

>  <REMARK>
 VINA RESULT:      -7.5      2.102      2.795
  Name = 
  18 active torsions:
  status: ('A' for Active; 'I' for Inactive)
    1  A    between atoms: C_5  and  C_16
    2  A    between atoms: C_8  and  C_27
    3  A    between atoms: N_9  and  C_41
    4  A    between atoms: C_11  and  C_32
    5  A    between atoms: C_11  and  C_42
    6  A    between atoms: C_12  and  S_15
    7  A    between atoms: C_12  and  C_40
    8  A    between atoms: O_13  and  O_18
    9  A    between atoms: C_14  and  C_16
   10  A    between atoms: C_14  and  C_43
   11  A    between atoms: S_15  and  C_49
   12  A    between atoms: C_16  and  O_18
   13  A    between atoms: N_19  and  C_49
   14  A    between atoms: N_21  and  C_30
   15  A    between atoms: N_24  and  C_26
   16  A    between atoms: C_27  and  C_49
   17  A    between atoms: C_41  and  C_52
   18  A    between atoms: C_42  and  C_43
                            x       y       z     vdW  Elec       q    Type
                         _______ _______ _______ _____ _____    ______ ____

>  <TORSDO>
F 18

$$$$
=
 OpenBabel10232410193D

 52 57  0  0  1  0  0  0  0  0999 V2000
  189.4010  177.1710  140.9190 C   0  0  2  0  0  3  0  0  0  0  0  0
  191.8600  176.9880  142.3490 C   0  0  0  0  0  2  0  0  0  0  0  0
  190.4780  176.4820  142.7910 C   0  0  2  0  0  3  0  0  0  0  0  0
  189.4840  177.3530  142.3140 O   0  0  0  0  0  0  0  0  0  0  0  0
  191.9180  176.9990  140.8270 C   0  0  1  0  0  3  0  0  0  0  0  0
  190.6790  177.6710  140.2160 C   0  0  1  0  0  3  0  0  0  0  0  0
  193.0780  177.6600  140.4190 O   0  0  0  0  0  1  0  0  0  0  0  0
  190.6130  177.3010  146.8990 C   0  0  0  0  0  2  0  0  0  0  0  0
  191.5870  176.2540  146.3660 C   0  0  0  0  0  2  0  0  0  0  0  0
  189.3160  177.1600  146.2390 N   0  0  0  0  0  0  0  0  0  0  0  0
  190.3530  176.3280  144.2460 N   0  0  1  0  0  0  0  0  0  0  0  0
  191.6860  176.4010  144.8510 C   0  0  0  0  0  2  0  0  0  0  0  0
  189.5100  177.3910  144.8110 C   0  0  0  0  0  2  0  0  0  0  0  0
  188.4670  178.2370  146.7240 C   0  0  0  0  0  2  0  0  0  0  0  0
  186.0860  178.6680  146.9420 C   0  0  0  0  0  2  0  0  0  0  0  0
  186.2430  177.5370  146.0140 N   0  0  0  0  0  2  0  0  0  0  0  0
  187.1310  177.6780  147.1770 C   0  0  1  0  0  3  0  0  0  0  0  0
  188.1640  177.8910  140.3730 C   0  0  2  0  0  3  0  0  0  0  0  0
  188.5310  178.9410  139.5210 O   0  0  0  0  0  0  0  0  0  0  0  0
  187.7780  178.7940  138.4510 O   0  0  0  0  0  0  0  0  0  0  0  0
  188.3740  179.5130  137.5230 O   0  0  0  0  0  1  0  0  0  0  0  0
  187.3300  178.4280  141.5230 C   0  0  0  0  0  2  0  0  0  0  0  0
  185.9090  178.7110  141.0640 C   0  0  0  0  0  2  0  0  0  0  0  0
  185.1170  179.4090  142.1580 C   0  0  0  0  0  2  0  0  0  0  0  0
  184.5250  178.3870  143.1170 C   0  0  0  0  0  2  0  0  0  0  0  0
  183.2450  178.2890  145.1340 F   0  0  0  0  0  0  0  0  0  0  0  0
  183.5840  180.3060  144.1740 F   0  0  0  0  0  0  0  0  0  0  0  0
  182.2010  178.8140  143.2120 F   0  0  0  0  0  0  0  0  0  0  0  0
  183.3700  178.9610  143.9320 C   0  0  0  0  0  0  0  0  0  0  0  0
  190.6070  177.3340  138.7270 C   0  0  0  0  0  2  0  0  0  0  0  0
  191.0700  175.6020  138.4260 S   0  0  0  0  0  0  0  0  0  0  0  0
  191.0850  175.8380  136.6190 C   0  0  2  0  0  3  0  0  0  0  0  0
  189.7340  176.0500  136.1170 N   0  0  0  0  0  0  0  0  0  0  0  0
  187.4520  175.8030  135.6450 C   0  0  0  0  0  0  0  0  0  0  0  0
  188.6260  174.1190  136.9210 O   0  0  0  0  0  0  0  0  0  0  0  0
  189.3150  177.2090  135.3430 C   0  0  0  0  0  2  0  0  0  0  0  0
  186.9960  177.9180  134.3460 C   0  0  0  0  0  1  0  0  0  0  0  0
  188.6050  175.2110  136.2940 C   0  0  0  0  0  0  0  0  0  0  0  0
  187.8530  176.9570  135.0950 C   0  0  0  0  0  0  0  0  0  0  0  0
  184.2320  172.5110  135.8150 N   0  0  0  0  0  2  0  0  0  0  0  0
  185.7300  174.1210  134.7810 C   0  0  0  0  0  2  0  0  0  0  0  0
  183.3120  172.6810  136.9290 C   0  0  0  0  0  2  0  0  0  0  0  0
  183.8380  174.8730  136.1310 C   0  0  2  0  0  3  0  0  0  0  0  0
  184.2920  173.8050  135.1460 C   0  0  2  0  0  3  0  0  0  0  0  0
  186.1250  175.2410  135.6120 N   0  0  0  0  0  0  0  0  0  0  0  0
  185.0540  175.7190  136.4630 C   0  0  0  0  0  2  0  0  0  0  0  0
  182.1250  174.5670  137.7480 O   0  0  0  0  0  1  0  0  0  0  0  0
  183.3880  174.1250  137.3600 C   0  0  1  0  0  3  0  0  0  0  0  0
  191.7530  174.6670  135.9170 C   0  0  0  0  0  2  0  0  0  0  0  0
  192.9220  174.2320  136.6870 C   0  0  0  0  0  0  0  0  0  0  0  0
  195.0710  173.4830  138.0790 C   0  0  0  0  0  1  0  0  0  0  0  0
  193.8910  173.8900  137.3170 C   0  0  0  0  0  0  0  0  0  0  0  0
  1 18  1  6  0  0  0
  1  4  1  0  0  0  0
  3  2  1  1  0  0  0
  3 11  1  0  0  0  0
  4  3  1  0  0  0  0
  5  7  1  1  0  0  0
  5  2  1  0  0  0  0
  6 30  1  6  0  0  0
  6  5  1  0  0  0  0
  6  1  1  0  0  0  0
  9  8  1  0  0  0  0
 10 14  1  0  0  0  0
 10  8  1  0  0  0  0
 11 13  1  1  0  0  0
 11 12  1  0  0  0  0
 12  9  1  0  0  0  0
 13 10  1  0  0  0  0
 15 17  1  0  0  0  0
 16 15  1  0  0  0  0
 16 17  1  0  0  0  0
 17 14  1  6  0  0  0
 18 22  1  1  0  0  0
 19 18  1  0  0  0  0
 20 19  1  0  0  0  0
 21 20  1  0  0  0  0
 23 22  1  0  0  0  0
 23 24  1  0  0  0  0
 24 25  1  0  0  0  0
 25 29  1  0  0  0  0
 28 29  1  0  0  0  0
 29 27  1  0  0  0  0
 29 26  1  0  0  0  0
 31 30  1  0  0  0  0
 32 49  1  6  0  0  0
 32 31  1  0  0  0  0
 33 38  1  0  0  0  0
 33 32  1  0  0  0  0
 34 38  1  0  0  0  0
 36 33  1  0  0  0  0
 37 39  1  0  0  0  0
 38 35  2  0  0  0  0
 39 36  1  0  0  0  0
 39 34  2  0  0  0  0
 40 42  1  0  0  0  0
 41 45  1  0  0  0  0
 42 48  1  0  0  0  0
 43 46  1  1  0  0  0
 43 48  1  0  0  0  0
 44 41  1  1  0  0  0
 44 40  1  0  0  0  0
 44 43  1  0  0  0  0
 45 34  1  0  0  0  0
 45 46  1  0  0  0  0
 48 47  1  6  0  0  0
 49 50  1  0  0  0  0
 50 52  3  0  0  0  0
 52 51  1  0  0  0  0
M  END
>  <MODEL>
3

>  <REMARK>
 VINA RESULT:      -7.5      1.652      2.027
  Name = 
  18 active torsions:
  status: ('A' for Active; 'I' for Inactive)
    1  A    between atoms: C_5  and  C_16
    2  A    between atoms: C_8  and  C_27
    3  A    between atoms: N_9  and  C_41
    4  A    between atoms: C_11  and  C_32
    5  A    between atoms: C_11  and  C_42
    6  A    between atoms: C_12  and  S_15
    7  A    between atoms: C_12  and  C_40
    8  A    between atoms: O_13  and  O_18
    9  A    between atoms: C_14  and  C_16
   10  A    between atoms: C_14  and  C_43
   11  A    between atoms: S_15  and  C_49
   12  A    between atoms: C_16  and  O_18
   13  A    between atoms: N_19  and  C_49
   14  A    between atoms: N_21  and  C_30
   15  A    between atoms: N_24  and  C_26
   16  A    between atoms: C_27  and  C_49
   17  A    between atoms: C_41  and  C_52
   18  A    between atoms: C_42  and  C_43
                            x       y       z     vdW  Elec       q    Type
                         _______ _______ _______ _____ _____    ______ ____

>  <TORSDO>
F 18

$$$$
=
 OpenBabel10232410193D

 52 57  0  0  1  0  0  0  0  0999 V2000
  188.2840  178.3760  141.4460 C   0  0  2  0  0  3  0  0  0  0  0  0
  185.7800  178.4640  140.0900 C   0  0  0  0  0  2  0  0  0  0  0  0
  186.1370  179.1010  141.4410 C   0  0  2  0  0  3  0  0  0  0  0  0
  187.0510  178.2790  142.1210 O   0  0  0  0  0  0  0  0  0  0  0  0
  187.0430  178.3490  139.2480 C   0  0  1  0  0  3  0  0  0  0  0  0
  188.2040  177.7360  140.0460 C   0  0  1  0  0  3  0  0  0  0  0  0
  186.7710  177.5770  138.1170 O   0  0  0  0  0  1  0  0  0  0  0  0
  182.9190  178.5050  144.0590 C   0  0  0  0  0  2  0  0  0  0  0  0
  182.5830  178.8770  142.6170 C   0  0  0  0  0  2  0  0  0  0  0  0
  184.0810  179.2670  144.5140 N   0  0  0  0  0  0  0  0  0  0  0  0
  184.9670  179.3600  142.2900 N   0  0  1  0  0  0  0  0  0  0  0  0
  183.8140  178.6360  141.7480 C   0  0  0  0  0  2  0  0  0  0  0  0
  185.2140  178.9080  143.6670 C   0  0  0  0  0  2  0  0  0  0  0  0
  184.4010  178.8040  145.8550 C   0  0  0  0  0  2  0  0  0  0  0  0
  186.2040  179.3680  147.3820 C   0  0  0  0  0  2  0  0  0  0  0  0
  186.2510  177.9130  147.1680 N   0  0  0  0  0  2  0  0  0  0  0  0
  185.9040  178.8210  146.0640 C   0  0  1  0  0  3  0  0  0  0  0  0
  189.3870  177.7180  142.2810 C   0  0  2  0  0  3  0  0  0  0  0  0
  189.0400  176.4050  142.6240 O   0  0  0  0  0  0  0  0  0  0  0  0
  190.0060  175.6560  142.1360 O   0  0  0  0  0  0  0  0  0  0  0  0
  190.5070  175.0340  143.1840 O   0  0  0  0  0  1  0  0  0  0  0  0
  189.6360  178.5310  143.5400 C   0  0  0  0  0  2  0  0  0  0  0  0
  191.1230  178.5920  143.8480 C   0  0  0  0  0  2  0  0  0  0  0  0
  191.3800  178.3220  145.3220 C   0  0  0  0  0  2  0  0  0  0  0  0
  190.8720  176.9380  145.7040 C   0  0  0  0  0  2  0  0  0  0  0  0
  189.5160  178.2080  147.2080 F   0  0  0  0  0  0  0  0  0  0  0  0
  188.4900  176.8490  145.7230 F   0  0  0  0  0  0  0  0  0  0  0  0
  189.6180  175.9750  147.4620 F   0  0  0  0  0  0  0  0  0  0  0  0
  189.5970  177.0010  146.5380 C   0  0  0  0  0  0  0  0  0  0  0  0
  189.5130  177.9790  139.2980 C   0  0  0  0  0  2  0  0  0  0  0  0
  190.4670  176.4400  139.1330 S   0  0  0  0  0  0  0  0  0  0  0  0
  190.1340  176.3330  137.3440 C   0  0  2  0  0  3  0  0  0  0  0  0
  191.1690  175.5600  136.6730 N   0  0  0  0  0  0  0  0  0  0  0  0
  193.2390  174.6880  136.0030 C   0  0  0  0  0  0  0  0  0  0  0  0
  193.1310  176.4580  137.6450 O   0  0  0  0  0  0  0  0  0  0  0  0
  190.9130  174.5200  135.6870 C   0  0  0  0  0  2  0  0  0  0  0  0
  192.5100  172.9290  134.3480 C   0  0  0  0  0  1  0  0  0  0  0  0
  192.5720  175.6510  136.8560 C   0  0  0  0  0  0  0  0  0  0  0  0
  192.2890  174.0310  135.3260 C   0  0  0  0  0  0  0  0  0  0  0  0
  197.7040  175.5950  136.6960 N   0  0  0  0  0  2  0  0  0  0  0  0
  195.6070  175.4920  135.4700 C   0  0  0  0  0  2  0  0  0  0  0  0
  198.3700  174.5690  137.4830 C   0  0  0  0  0  2  0  0  0  0  0  0
  196.7900  173.4440  136.0840 C   0  0  2  0  0  3  0  0  0  0  0  0
  196.9890  174.8880  135.6410 C   0  0  2  0  0  3  0  0  0  0  0  0
  194.6640  174.4870  135.9160 N   0  0  0  0  0  0  0  0  0  0  0  0
  195.3040  173.2530  136.3240 C   0  0  0  0  0  2  0  0  0  0  0  0
  198.3700  172.1990  137.3470 O   0  0  0  0  0  1  0  0  0  0  0  0
  197.5370  173.3160  137.3870 C   0  0  1  0  0  3  0  0  0  0  0  0
  189.9950  177.7150  136.7270 C   0  0  0  0  0  2  0  0  0  0  0  0
  188.8050  177.7550  135.8710 C   0  0  0  0  0  0  0  0  0  0  0  0
  186.6160  177.8000  134.3460 C   0  0  0  0  0  1  0  0  0  0  0  0
  187.8180  177.7780  135.1790 C   0  0  0  0  0  0  0  0  0  0  0  0
  1  4  1  0  0  0  0
  1 18  1  1  0  0  0
  3  2  1  6  0  0  0
  3  4  1  0  0  0  0
  3 11  1  0  0  0  0
  5  7  1  6  0  0  0
  5  6  1  0  0  0  0
  5  2  1  0  0  0  0
  6 30  1  6  0  0  0
  6  1  1  0  0  0  0
  8 10  1  0  0  0  0
  9  8  1  0  0  0  0
 10 14  1  0  0  0  0
 11 12  1  6  0  0  0
 11 13  1  0  0  0  0
 12  9  1  0  0  0  0
 13 10  1  0  0  0  0
 16 15  1  0  0  0  0
 17 14  1  1  0  0  0
 17 16  1  0  0  0  0
 17 15  1  0  0  0  0
 18 19  1  0  0  0  0
 18 22  1  1  0  0  0
 20 19  1  0  0  0  0
 20 21  1  0  0  0  0
 22 23  1  0  0  0  0
 23 24  1  0  0  0  0
 24 25  1  0  0  0  0
 25 29  1  0  0  0  0
 27 29  1  0  0  0  0
 29 26  1  0  0  0  0
 29 28  1  0  0  0  0
 31 30  1  0  0  0  0
 32 49  1  6  0  0  0
 32 31  1  0  0  0  0
 33 38  1  0  0  0  0
 33 32  1  0  0  0  0
 34 38  1  0  0  0  0
 36 33  1  0  0  0  0
 37 39  1  0  0  0  0
 38 35  2  0  0  0  0
 39 36  1  0  0  0  0
 39 34  2  0  0  0  0
 40 42  1  0  0  0  0
 41 45  1  0  0  0  0
 43 46  1  1  0  0  0
 43 48  1  0  0  0  0
 44 41  1  1  0  0  0
 44 43  1  0  0  0  0
 44 40  1  0  0  0  0
 45 34  1  0  0  0  0
 45 46  1  0  0  0  0
 48 47  1  6  0  0  0
 48 42  1  0  0  0  0
 50 49  1  0  0  0  0
 51 52  1  0  0  0  0
 52 50  3  0  0  0  0
M  END
>  <MODEL>
4

>  <REMARK>
 VINA RESULT:      -7.3      3.712      7.417
  Name = 
  18 active torsions:
  status: ('A' for Active; 'I' for Inactive)
    1  A    between atoms: C_5  and  C_16
    2  A    between atoms: C_8  and  C_27
    3  A    between atoms: N_9  and  C_41
    4  A    between atoms: C_11  and  C_32
    5  A    between atoms: C_11  and  C_42
    6  A    between atoms: C_12  and  S_15
    7  A    between atoms: C_12  and  C_40
    8  A    between atoms: O_13  and  O_18
    9  A    between atoms: C_14  and  C_16
   10  A    between atoms: C_14  and  C_43
   11  A    between atoms: S_15  and  C_49
   12  A    between atoms: C_16  and  O_18
   13  A    between atoms: N_19  and  C_49
   14  A    between atoms: N_21  and  C_30
   15  A    between atoms: N_24  and  C_26
   16  A    between atoms: C_27  and  C_49
   17  A    between atoms: C_41  and  C_52
   18  A    between atoms: C_42  and  C_43
                            x       y       z     vdW  Elec       q    Type
                         _______ _______ _______ _____ _____    ______ ____

>  <TORSDO>
F 18

$$$$
=
 OpenBabel10232410193D

 52 57  0  0  1  0  0  0  0  0999 V2000
  187.9700  178.5160  141.3710 C   0  0  2  0  0  3  0  0  0  0  0  0
  185.2490  178.7740  140.5640 C   0  0  0  0  0  2  0  0  0  0  0  0
  185.9010  179.3050  141.8500 C   0  0  2  0  0  3  0  0  0  0  0  0
  186.8960  178.4100  142.2770 O   0  0  0  0  0  0  0  0  0  0  0  0
  186.3100  178.6790  139.4760 C   0  0  1  0  0  3  0  0  0  0  0  0
  187.5790  177.9760  139.9800 C   0  0  1  0  0  3  0  0  0  0  0  0
  185.7810  177.9960  138.3800 O   0  0  0  0  0  1  0  0  0  0  0  0
  183.2580  178.6290  145.0320 C   0  0  0  0  0  2  0  0  0  0  0  0
  182.6530  179.1060  143.7150 C   0  0  0  0  0  2  0  0  0  0  0  0
  184.5190  179.3250  145.2840 N   0  0  0  0  0  0  0  0  0  0  0  0
  184.9390  179.5400  142.9350 N   0  0  1  0  0  0  0  0  0  0  0  0
  183.6700  178.8880  142.5990 C   0  0  0  0  0  2  0  0  0  0  0  0
  185.4410  178.9910  144.2020 C   0  0  0  0  0  2  0  0  0  0  0  0
  185.0850  178.7640  146.5010 C   0  0  0  0  0  2  0  0  0  0  0  0
  187.1460  178.0400  147.5650 C   0  0  0  0  0  2  0  0  0  0  0  0
  186.8270  177.0590  146.5160 N   0  0  0  0  0  2  0  0  0  0  0  0
  186.5650  178.4910  146.3060 C   0  0  1  0  0  3  0  0  0  0  0  0
  189.1880  177.7680  141.9200 C   0  0  2  0  0  3  0  0  0  0  0  0
  188.8020  176.5870  142.5670 O   0  0  0  0  0  0  0  0  0  0  0  0
  189.5220  175.6370  142.0080 O   0  0  0  0  0  0  0  0  0  0  0  0
  190.2850  175.1820  142.9810 O   0  0  0  0  0  1  0  0  0  0  0  0
  189.9500  178.6600  142.8860 C   0  0  0  0  0  2  0  0  0  0  0  0
  189.5490  178.3560  144.3200 C   0  0  0  0  0  2  0  0  0  0  0  0
  190.7000  177.7130  145.0770 C   0  0  0  0  0  2  0  0  0  0  0  0
  190.2100  177.1390  146.3990 C   0  0  0  0  0  2  0  0  0  0  0  0
  192.4060  176.1950  146.3610 F   0  0  0  0  0  0  0  0  0  0  0  0
  191.7360  177.2790  148.2260 F   0  0  0  0  0  0  0  0  0  0  0  0
  190.8540  175.2750  147.7040 F   0  0  0  0  0  0  0  0  0  0  0  0
  191.3290  176.4640  147.1850 C   0  0  0  0  0  0  0  0  0  0  0  0
  188.7200  178.2310  138.9960 C   0  0  0  0  0  2  0  0  0  0  0  0
  189.2760  176.6800  138.2250 S   0  0  0  0  0  0  0  0  0  0  0  0
  188.9940  177.3240  136.5440 C   0  0  2  0  0  3  0  0  0  0  0  0
  187.7010  176.8850  136.0350 N   0  0  0  0  0  0  0  0  0  0  0  0
  185.8230  175.5890  135.5000 C   0  0  0  0  0  0  0  0  0  0  0  0
  187.7040  174.6000  136.6530 O   0  0  0  0  0  0  0  0  0  0  0  0
  186.7480  177.7480  135.3540 C   0  0  0  0  0  2  0  0  0  0  0  0
  184.3550  177.3050  134.3750 C   0  0  0  0  0  1  0  0  0  0  0  0
  187.1340  175.5890  136.1190 C   0  0  0  0  0  0  0  0  0  0  0  0
  185.5920  176.8310  135.0570 C   0  0  0  0  0  0  0  0  0  0  0  0
  184.6300  171.1390  135.4170 N   0  0  0  0  0  2  0  0  0  0  0  0
  185.1600  173.3290  134.5050 C   0  0  0  0  0  2  0  0  0  0  0  0
  183.7310  170.7770  136.5010 C   0  0  0  0  0  2  0  0  0  0  0  0
  183.1240  172.9850  135.8120 C   0  0  2  0  0  3  0  0  0  0  0  0
  184.0570  172.3300  134.8030 C   0  0  2  0  0  3  0  0  0  0  0  0
  184.9430  174.4520  135.3950 N   0  0  0  0  0  0  0  0  0  0  0  0
  183.7640  174.2990  136.2230 C   0  0  0  0  0  2  0  0  0  0  0  0
  181.7600  171.7940  137.3500 O   0  0  0  0  0  1  0  0  0  0  0  0
  183.0830  172.0480  136.9920 C   0  0  1  0  0  3  0  0  0  0  0  0
  190.1180  176.9190  135.6040 C   0  0  0  0  0  2  0  0  0  0  0  0
  191.1490  176.1940  136.3530 C   0  0  0  0  0  0  0  0  0  0  0  0
  192.9940  174.8380  137.7210 C   0  0  0  0  0  1  0  0  0  0  0  0
  191.9850  175.5850  136.9700 C   0  0  0  0  0  0  0  0  0  0  0  0
  1 18  1  1  0  0  0
  1  4  1  0  0  0  0
  3  2  1  6  0  0  0
  3  4  1  0  0  0  0
  3 11  1  0  0  0  0
  5  7  1  6  0  0  0
  5  6  1  0  0  0  0
  5  2  1  0  0  0  0
  6 30  1  6  0  0  0
  6  1  1  0  0  0  0
  8 10  1  0  0  0  0
  9  8  1  0  0  0  0
 10 14  1  0  0  0  0
 11 12  1  6  0  0  0
 11 13  1  0  0  0  0
 12  9  1  0  0  0  0
 13 10  1  0  0  0  0
 16 15  1  0  0  0  0
 17 14  1  1  0  0  0
 17 16  1  0  0  0  0
 17 15  1  0  0  0  0
 18 19  1  0  0  0  0
 18 22  1  1  0  0  0
 20 19  1  0  0  0  0
 20 21  1  0  0  0  0
 22 23  1  0  0  0  0
 23 24  1  0  0  0  0
 24 25  1  0  0  0  0
 25 29  1  0  0  0  0
 26 29  1  0  0  0  0
 29 28  1  0  0  0  0
 29 27  1  0  0  0  0
 31 30  1  0  0  0  0
 32 49  1  6  0  0  0
 32 31  1  0  0  0  0
 33 38  1  0  0  0  0
 33 32  1  0  0  0  0
 34 38  1  0  0  0  0
 36 33  1  0  0  0  0
 37 39  1  0  0  0  0
 38 35  2  0  0  0  0
 39 36  1  0  0  0  0
 39 34  2  0  0  0  0
 40 42  1  0  0  0  0
 41 45  1  0  0  0  0
 42 48  1  0  0  0  0
 43 46  1  1  0  0  0
 43 48  1  0  0  0  0
 44 41  1  1  0  0  0
 44 40  1  0  0  0  0
 44 43  1  0  0  0  0
 45 34  1  0  0  0  0
 45 46  1  0  0  0  0
 48 47  1  6  0  0  0
 49 50  1  0  0  0  0
 50 52  3  0  0  0  0
 52 51  1  0  0  0  0
M  END
>  <MODEL>
5

>  <REMARK>
 VINA RESULT:      -7.2      2.542      4.499
  Name = 
  18 active torsions:
  status: ('A' for Active; 'I' for Inactive)
    1  A    between atoms: C_5  and  C_16
    2  A    between atoms: C_8  and  C_27
    3  A    between atoms: N_9  and  C_41
    4  A    between atoms: C_11  and  C_32
    5  A    between atoms: C_11  and  C_42
    6  A    between atoms: C_12  and  S_15
    7  A    between atoms: C_12  and  C_40
    8  A    between atoms: O_13  and  O_18
    9  A    between atoms: C_14  and  C_16
   10  A    between atoms: C_14  and  C_43
   11  A    between atoms: S_15  and  C_49
   12  A    between atoms: C_16  and  O_18
   13  A    between atoms: N_19  and  C_49
   14  A    between atoms: N_21  and  C_30
   15  A    between atoms: N_24  and  C_26
   16  A    between atoms: C_27  and  C_49
   17  A    between atoms: C_41  and  C_52
   18  A    between atoms: C_42  and  C_43
                            x       y       z     vdW  Elec       q    Type
                         _______ _______ _______ _____ _____    ______ ____

>  <TORSDO>
F 18

$$$$
=
 OpenBabel10232410193D

 52 57  0  0  1  0  0  0  0  0999 V2000
  188.0160  178.3820  139.3620 C   0  0  2  0  0  3  0  0  0  0  0  0
  185.2080  178.2960  138.8860 C   0  0  0  0  0  2  0  0  0  0  0  0
  185.9430  179.0040  140.0350 C   0  0  2  0  0  3  0  0  0  0  0  0
  187.0730  178.2540  140.4010 O   0  0  0  0  0  0  0  0  0  0  0  0
  186.1380  178.2080  137.6840 C   0  0  1  0  0  3  0  0  0  0  0  0
  187.5270  177.6830  138.0780 C   0  0  1  0  0  3  0  0  0  0  0  0
  185.5620  177.3800  136.7190 O   0  0  0  0  0  1  0  0  0  0  0  0
  183.5000  178.3250  143.3720 C   0  0  0  0  0  2  0  0  0  0  0  0
  182.8440  178.9550  142.1470 C   0  0  0  0  0  2  0  0  0  0  0  0
  184.8380  178.8810  143.5660 N   0  0  0  0  0  0  0  0  0  0  0  0
  185.0950  179.2400  141.2110 N   0  0  1  0  0  0  0  0  0  0  0  0
  183.7470  178.7330  140.9370 C   0  0  0  0  0  2  0  0  0  0  0  0
  185.6380  178.5500  142.3890 C   0  0  0  0  0  2  0  0  0  0  0  0
  185.4390  178.1780  144.6880 C   0  0  0  0  0  2  0  0  0  0  0  0
  185.0910  178.4180  147.0810 C   0  0  0  0  0  2  0  0  0  0  0  0
  186.5330  178.5660  146.8320 N   0  0  0  0  0  2  0  0  0  0  0  0
  185.5510  179.1090  145.8820 C   0  0  1  0  0  3  0  0  0  0  0  0
  189.3650  177.8110  139.8110 C   0  0  2  0  0  3  0  0  0  0  0  0
  189.5370  176.5030  139.3390 O   0  0  0  0  0  0  0  0  0  0  0  0
  190.8130  176.2380  139.5200 O   0  0  0  0  0  0  0  0  0  0  0  0
  191.4400  177.0120  138.6570 O   0  0  0  0  0  1  0  0  0  0  0  0
  189.4550  177.8300  141.3270 C   0  0  0  0  0  2  0  0  0  0  0  0
  188.8810  176.5490  141.9100 C   0  0  0  0  0  2  0  0  0  0  0  0
  189.5660  176.2000  143.2220 C   0  0  0  0  0  2  0  0  0  0  0  0
  188.8250  176.8340  144.3910 C   0  0  0  0  0  2  0  0  0  0  0  0
  191.0790  176.9690  145.1760 F   0  0  0  0  0  0  0  0  0  0  0  0
  189.6620  178.6540  145.6840 F   0  0  0  0  0  0  0  0  0  0  0  0
  189.4290  176.6450  146.6700 F   0  0  0  0  0  0  0  0  0  0  0  0
  189.7720  177.2880  145.4970 C   0  0  0  0  0  0  0  0  0  0  0  0
  188.5100  177.9590  136.9410 C   0  0  0  0  0  2  0  0  0  0  0  0
  187.9900  177.1260  135.4110 S   0  0  0  0  0  0  0  0  0  0  0  0
  188.5260  175.4950  136.0240 C   0  0  2  0  0  3  0  0  0  0  0  0
  189.9670  175.3400  135.8820 N   0  0  0  0  0  0  0  0  0  0  0  0
  192.1830  174.6240  136.1450 C   0  0  0  0  0  0  0  0  0  0  0  0
  190.4300  173.7150  137.5390 O   0  0  0  0  0  0  0  0  0  0  0  0
  190.7810  176.0580  134.9130 C   0  0  0  0  0  2  0  0  0  0  0  0
  193.3440  175.9810  134.3630 C   0  0  0  0  0  1  0  0  0  0  0  0
  190.8200  174.4790  136.6170 C   0  0  0  0  0  0  0  0  0  0  0  0
  192.1690  175.5320  135.1610 C   0  0  0  0  0  0  0  0  0  0  0  0
  196.1580  172.3010  135.9600 N   0  0  0  0  0  2  0  0  0  0  0  0
  193.7570  172.6090  136.1790 C   0  0  0  0  0  2  0  0  0  0  0  0
  197.2480  172.9970  136.6240 C   0  0  0  0  0  2  0  0  0  0  0  0
  195.2780  173.4160  137.9130 C   0  0  2  0  0  3  0  0  0  0  0  0
  195.0510  172.2960  136.9070 C   0  0  2  0  0  3  0  0  0  0  0  0
  193.3280  173.9100  136.6510 N   0  0  0  0  0  0  0  0  0  0  0  0
  194.2060  174.4620  137.6640 C   0  0  0  0  0  2  0  0  0  0  0  0
  197.4080  174.0680  138.7380 O   0  0  0  0  0  1  0  0  0  0  0  0
  196.6330  173.9870  137.5820 C   0  0  1  0  0  3  0  0  0  0  0  0
  187.7820  174.3720  135.3200 C   0  0  0  0  0  2  0  0  0  0  0  0
  186.7220  173.8590  136.1940 C   0  0  0  0  0  0  0  0  0  0  0  0
  184.8010  172.8800  137.7650 C   0  0  0  0  0  1  0  0  0  0  0  0
  185.8540  173.4210  136.9060 C   0  0  0  0  0  0  0  0  0  0  0  0
  1 18  1  1  0  0  0
  1  4  1  0  0  0  0
  3  2  1  6  0  0  0
  3  4  1  0  0  0  0
  3 11  1  0  0  0  0
  5  7  1  6  0  0  0
  5  6  1  0  0  0  0
  5  2  1  0  0  0  0
  6 30  1  6  0  0  0
  6  1  1  0  0  0  0
  8 10  1  0  0  0  0
  9  8  1  0  0  0  0
 10 14  1  0  0  0  0
 11 12  1  6  0  0  0
 11 13  1  0  0  0  0
 12  9  1  0  0  0  0
 13 10  1  0  0  0  0
 16 15  1  0  0  0  0
 17 14  1  6  0  0  0
 17 16  1  0  0  0  0
 17 15  1  0  0  0  0
 18 22  1  1  0  0  0
 19 20  1  0  0  0  0
 19 18  1  0  0  0  0
 21 20  1  0  0  0  0
 22 23  1  0  0  0  0
 23 24  1  0  0  0  0
 24 25  1  0  0  0  0
 25 29  1  0  0  0  0
 26 29  1  0  0  0  0
 29 27  1  0  0  0  0
 29 28  1  0  0  0  0
 31 32  1  0  0  0  0
 31 30  1  0  0  0  0
 32 49  1  6  0  0  0
 33 32  1  0  0  0  0
 33 38  1  0  0  0  0
 34 38  1  0  0  0  0
 34 45  1  0  0  0  0
 36 39  1  0  0  0  0
 36 33  1  0  0  0  0
 37 39  1  0  0  0  0
 38 35  2  0  0  0  0
 39 34  2  0  0  0  0
 40 42  1  0  0  0  0
 40 44  1  0  0  0  0
 41 45  1  0  0  0  0
 42 48  1  0  0  0  0
 43 46  1  6  0  0  0
 44 41  1  6  0  0  0
 44 43  1  0  0  0  0
 45 46  1  0  0  0  0
 48 43  1  0  0  0  0
 48 47  1  1  0  0  0
 49 50  1  0  0  0  0
 50 52  3  0  0  0  0
 52 51  1  0  0  0  0
M  END
>  <MODEL>
6

>  <REMARK>
 VINA RESULT:      -7.2      3.026      7.020
  Name = 
  18 active torsions:
  status: ('A' for Active; 'I' for Inactive)
    1  A    between atoms: C_5  and  C_16
    2  A    between atoms: C_8  and  C_27
    3  A    between atoms: N_9  and  C_41
    4  A    between atoms: C_11  and  C_32
    5  A    between atoms: C_11  and  C_42
    6  A    between atoms: C_12  and  S_15
    7  A    between atoms: C_12  and  C_40
    8  A    between atoms: O_13  and  O_18
    9  A    between atoms: C_14  and  C_16
   10  A    between atoms: C_14  and  C_43
   11  A    between atoms: S_15  and  C_49
   12  A    between atoms: C_16  and  O_18
   13  A    between atoms: N_19  and  C_49
   14  A    between atoms: N_21  and  C_30
   15  A    between atoms: N_24  and  C_26
   16  A    between atoms: C_27  and  C_49
   17  A    between atoms: C_41  and  C_52
   18  A    between atoms: C_42  and  C_43
                            x       y       z     vdW  Elec       q    Type
                         _______ _______ _______ _____ _____    ______ ____

>  <TORSDO>
F 18

$$$$
=
 OpenBabel10232410193D

 52 57  0  0  1  0  0  0  0  0999 V2000
  188.0470  178.0200  142.1670 C   0  0  2  0  0  3  0  0  0  0  0  0
  185.6460  178.2310  140.6450 C   0  0  0  0  0  2  0  0  0  0  0  0
  185.8310  178.4960  142.1480 C   0  0  2  0  0  3  0  0  0  0  0  0
  186.7930  177.6130  142.6650 O   0  0  0  0  0  0  0  0  0  0  0  0
  186.9670  178.4870  139.9330 C   0  0  1  0  0  3  0  0  0  0  0  0
  188.1400  177.7950  140.6450 C   0  0  1  0  0  3  0  0  0  0  0  0
  186.8700  178.0410  138.6140 O   0  0  0  0  0  1  0  0  0  0  0  0
  182.2080  179.4880  144.0060 C   0  0  0  0  0  2  0  0  0  0  0  0
  183.3860  179.1530  144.9150 C   0  0  0  0  0  2  0  0  0  0  0  0
  182.1980  178.5950  142.8490 N   0  0  0  0  0  0  0  0  0  0  0  0
  184.5830  178.3850  142.9160 N   0  0  1  0  0  0  0  0  0  0  0  0
  184.6750  179.2390  144.1020 C   0  0  0  0  0  2  0  0  0  0  0  0
  183.4350  178.8100  142.1040 C   0  0  0  0  0  2  0  0  0  0  0  0
  181.1100  179.0230  141.9830 C   0  0  0  0  0  2  0  0  0  0  0  0
  180.6930  177.4660  140.1650 C   0  0  0  0  0  2  0  0  0  0  0  0
  180.2030  178.7850  139.7340 N   0  0  0  0  0  2  0  0  0  0  0  0
  181.4260  178.6690  140.5420 C   0  0  1  0  0  3  0  0  0  0  0  0
  189.1650  177.2690  142.8960 C   0  0  2  0  0  3  0  0  0  0  0  0
  188.7030  176.0450  143.3970 O   0  0  0  0  0  0  0  0  0  0  0  0
  189.2380  175.1310  142.6170 O   0  0  0  0  0  0  0  0  0  0  0  0
  190.5060  175.0890  142.9740 O   0  0  0  0  0  1  0  0  0  0  0  0
  189.7040  178.1210  144.0320 C   0  0  0  0  0  2  0  0  0  0  0  0
  189.2120  177.5970  145.3710 C   0  0  0  0  0  2  0  0  0  0  0  0
  187.9560  178.3320  145.8100 C   0  0  0  0  0  2  0  0  0  0  0  0
  187.3610  177.6730  147.0460 C   0  0  0  0  0  2  0  0  0  0  0  0
  189.1600  176.3340  147.8740 F   0  0  0  0  0  0  0  0  0  0  0  0
  189.2250  178.5630  148.2360 F   0  0  0  0  0  0  0  0  0  0  0  0
  187.7460  177.2810  149.3460 F   0  0  0  0  0  0  0  0  0  0  0  0
  188.3990  177.4580  148.1420 C   0  0  0  0  0  0  0  0  0  0  0  0
  189.4560  178.3710  140.1230 C   0  0  0  0  0  2  0  0  0  0  0  0
  190.7770  177.1230  140.1660 S   0  0  0  0  0  0  0  0  0  0  0  0
  190.3960  176.5470  138.4800 C   0  0  2  0  0  3  0  0  0  0  0  0
  191.4700  175.7080  137.9670 N   0  0  0  0  0  0  0  0  0  0  0  0
  193.5830  174.8420  137.4370 C   0  0  0  0  0  0  0  0  0  0  0  0
  193.3820  176.9380  138.6230 O   0  0  0  0  0  0  0  0  0  0  0  0
  191.2680  174.4500  137.2630 C   0  0  0  0  0  2  0  0  0  0  0  0
  192.9480  172.6970  136.2700 C   0  0  0  0  0  1  0  0  0  0  0  0
  192.8660  175.9330  138.0680 C   0  0  0  0  0  0  0  0  0  0  0  0
  192.6690  173.9820  136.9710 C   0  0  0  0  0  0  0  0  0  0  0  0
  197.6830  172.7430  137.5730 N   0  0  0  0  0  2  0  0  0  0  0  0
  195.8570  174.1370  138.3690 C   0  0  0  0  0  2  0  0  0  0  0  0
  198.3570  172.7420  136.2850 C   0  0  0  0  0  2  0  0  0  0  0  0
  197.2180  174.8370  136.4630 C   0  0  2  0  0  3  0  0  0  0  0  0
  197.2670  174.1200  137.8050 C   0  0  2  0  0  3  0  0  0  0  0  0
  195.0160  174.7210  137.3430 N   0  0  0  0  0  0  0  0  0  0  0  0
  195.7580  175.1320  136.1690 C   0  0  0  0  0  2  0  0  0  0  0  0
  198.7370  174.4490  134.6780 O   0  0  0  0  0  1  0  0  0  0  0  0
  197.7490  173.8470  135.4580 C   0  0  1  0  0  3  0  0  0  0  0  0
  190.1230  177.7160  137.5480 C   0  0  0  0  0  2  0  0  0  0  0  0
  189.3020  177.2670  136.4200 C   0  0  0  0  0  0  0  0  0  0  0  0
  187.7690  176.4710  134.3860 C   0  0  0  0  0  1  0  0  0  0  0  0
  188.6130  176.9050  135.4990 C   0  0  0  0  0  0  0  0  0  0  0  0
  1  4  1  0  0  0  0
  1 18  1  1  0  0  0
  3  2  1  6  0  0  0
  3  4  1  0  0  0  0
  3 11  1  0  0  0  0
  5  7  1  6  0  0  0
  5  2  1  0  0  0  0
  5  6  1  0  0  0  0
  6 30  1  6  0  0  0
  6  1  1  0  0  0  0
  8  9  1  0  0  0  0
 10  8  1  0  0  0  0
 11 13  1  6  0  0  0
 11 12  1  0  0  0  0
 12  9  1  0  0  0  0
 13 10  1  0  0  0  0
 14 10  1  0  0  0  0
 15 17  1  0  0  0  0
 16 15  1  0  0  0  0
 16 17  1  0  0  0  0
 17 14  1  1  0  0  0
 18 19  1  0  0  0  0
 18 22  1  1  0  0  0
 20 21  1  0  0  0  0
 20 19  1  0  0  0  0
 22 23  1  0  0  0  0
 23 24  1  0  0  0  0
 24 25  1  0  0  0  0
 25 29  1  0  0  0  0
 26 29  1  0  0  0  0
 29 27  1  0  0  0  0
 29 28  1  0  0  0  0
 30 31  1  0  0  0  0
 32 49  1  6  0  0  0
 32 31  1  0  0  0  0
 33 38  1  0  0  0  0
 33 32  1  0  0  0  0
 34 38  1  0  0  0  0
 36 33  1  0  0  0  0
 37 39  1  0  0  0  0
 38 35  2  0  0  0  0
 39 36  1  0  0  0  0
 39 34  2  0  0  0  0
 40 44  1  0  0  0  0
 42 40  1  0  0  0  0
 43 46  1  6  0  0  0
 43 44  1  0  0  0  0
 44 41  1  6  0  0  0
 45 34  1  0  0  0  0
 45 41  1  0  0  0  0
 46 45  1  0  0  0  0
 48 47  1  6  0  0  0
 48 42  1  0  0  0  0
 48 43  1  0  0  0  0
 50 49  1  0  0  0  0
 51 52  1  0  0  0  0
 52 50  3  0  0  0  0
M  END
>  <MODEL>
7

>  <REMARK>
 VINA RESULT:      -7.2      3.870      7.999
  Name = 
  18 active torsions:
  status: ('A' for Active; 'I' for Inactive)
    1  A    between atoms: C_5  and  C_16
    2  A    between atoms: C_8  and  C_27
    3  A    between atoms: N_9  and  C_41
    4  A    between atoms: C_11  and  C_32
    5  A    between atoms: C_11  and  C_42
    6  A    between atoms: C_12  and  S_15
    7  A    between atoms: C_12  and  C_40
    8  A    between atoms: O_13  and  O_18
    9  A    between atoms: C_14  and  C_16
   10  A    between atoms: C_14  and  C_43
   11  A    between atoms: S_15  and  C_49
   12  A    between atoms: C_16  and  O_18
   13  A    between atoms: N_19  and  C_49
   14  A    between atoms: N_21  and  C_30
   15  A    between atoms: N_24  and  C_26
   16  A    between atoms: C_27  and  C_49
   17  A    between atoms: C_41  and  C_52
   18  A    between atoms: C_42  and  C_43
                            x       y       z     vdW  Elec       q    Type
                         _______ _______ _______ _____ _____    ______ ____

>  <TORSDO>
F 18

$$$$
=
 OpenBabel10232410193D

 52 57  0  0  1  0  0  0  0  0999 V2000
  188.7080  177.3140  139.8560 C   0  0  2  0  0  3  0  0  0  0  0  0
  189.6710  177.7780  142.4980 C   0  0  0  0  0  2  0  0  0  0  0  0
  188.2090  177.6580  142.0400 C   0  0  2  0  0  3  0  0  0  0  0  0
  188.0750  178.2000  140.7510 O   0  0  0  0  0  0  0  0  0  0  0  0
  190.5540  176.9820  141.5470 C   0  0  1  0  0  3  0  0  0  0  0  0
  190.2340  177.2970  140.0780 C   0  0  1  0  0  3  0  0  0  0  0  0
  191.8930  177.2630  141.8220 O   0  0  0  0  0  1  0  0  0  0  0  0
  185.0890  178.2080  144.7840 C   0  0  0  0  0  2  0  0  0  0  0  0
  184.8850  178.7660  143.3780 C   0  0  0  0  0  2  0  0  0  0  0  0
  186.4690  178.4280  145.2150 N   0  0  0  0  0  0  0  0  0  0  0  0
  187.2570  178.3010  142.9560 N   0  0  1  0  0  0  0  0  0  0  0  0
  185.8980  178.1160  142.4400 C   0  0  0  0  0  2  0  0  0  0  0  0
  187.3470  177.7080  144.2970 C   0  0  0  0  0  2  0  0  0  0  0  0
  186.6200  177.7980  146.5170 C   0  0  0  0  0  2  0  0  0  0  0  0
  188.2810  178.3760  148.1930 C   0  0  0  0  0  2  0  0  0  0  0  0
  188.2450  176.9080  148.1000 N   0  0  0  0  0  2  0  0  0  0  0  0
  188.0880  177.7380  146.8960 C   0  0  1  0  0  3  0  0  0  0  0  0
  188.3730  177.7050  138.4140 C   0  0  2  0  0  3  0  0  0  0  0  0
  188.1750  179.0880  138.3020 O   0  0  0  0  0  0  0  0  0  0  0  0
  189.1960  179.5260  137.5970 O   0  0  0  0  0  0  0  0  0  0  0  0
  189.4500  178.5580  136.7410 O   0  0  0  0  0  1  0  0  0  0  0  0
  187.1290  176.9660  137.9530 C   0  0  0  0  0  2  0  0  0  0  0  0
  186.0750  177.9470  137.4690 C   0  0  0  0  0  2  0  0  0  0  0  0
  184.7760  177.7670  138.2370 C   0  0  0  0  0  2  0  0  0  0  0  0
  184.3880  179.0640  138.9340 C   0  0  0  0  0  2  0  0  0  0  0  0
  183.0340  178.6120  140.8520 F   0  0  0  0  0  0  0  0  0  0  0  0
  182.3760  180.2420  139.4330 F   0  0  0  0  0  0  0  0  0  0  0  0
  182.2390  178.0830  138.8150 F   0  0  0  0  0  0  0  0  0  0  0  0
  182.9840  179.0030  139.5260 C   0  0  0  0  0  0  0  0  0  0  0  0
  190.8670  176.2310  139.1850 C   0  0  0  0  0  2  0  0  0  0  0  0
  192.4930  176.7690  138.5760 S   0  0  0  0  0  0  0  0  0  0  0  0
  192.6200  175.3560  137.4320 C   0  0  2  0  0  3  0  0  0  0  0  0
  193.9210  175.3400  136.7770 N   0  0  0  0  0  0  0  0  0  0  0  0
  196.0940  174.7600  136.1180 C   0  0  0  0  0  0  0  0  0  0  0  0
  194.9510  173.4840  137.8220 O   0  0  0  0  0  0  0  0  0  0  0  0
  194.3360  176.2810  135.7470 C   0  0  0  0  0  2  0  0  0  0  0  0
  196.5430  176.5010  134.3480 C   0  0  0  0  0  1  0  0  0  0  0  0
  194.9860  174.4290  136.9910 C   0  0  0  0  0  0  0  0  0  0  0  0
  195.7270  175.8270  135.3960 C   0  0  0  0  0  0  0  0  0  0  0  0
  199.8690  172.6520  137.7120 N   0  0  0  0  0  2  0  0  0  0  0  0
  198.5520  174.4570  136.7550 C   0  0  0  0  0  2  0  0  0  0  0  0
  199.9280  171.2480  137.3390 C   0  0  0  0  0  2  0  0  0  0  0  0
  198.9650  172.4110  135.4850 C   0  0  2  0  0  3  0  0  0  0  0  0
  199.5860  173.3800  136.4820 C   0  0  2  0  0  3  0  0  0  0  0  0
  197.3500  174.0570  136.0500 N   0  0  0  0  0  0  0  0  0  0  0  0
  197.5180  172.8300  135.2980 C   0  0  0  0  0  2  0  0  0  0  0  0
  199.5780  170.1250  135.2760 O   0  0  0  0  0  1  0  0  0  0  0  0
  199.0210  171.0590  136.1490 C   0  0  1  0  0  3  0  0  0  0  0  0
  191.4930  175.3710  136.4130 C   0  0  0  0  0  2  0  0  0  0  0  0
  191.3780  174.0500  135.7860 C   0  0  0  0  0  0  0  0  0  0  0  0
  191.1750  171.6270  134.6890 C   0  0  0  0  0  1  0  0  0  0  0  0
  191.2860  172.9570  135.2860 C   0  0  0  0  0  0  0  0  0  0  0  0
  1 18  1  6  0  0  0
  1  6  1  0  0  0  0
  1  4  1  0  0  0  0
  3  2  1  1  0  0  0
  3 11  1  0  0  0  0
  4  3  1  0  0  0  0
  5  7  1  1  0  0  0
  5  2  1  0  0  0  0
  6 30  1  6  0  0  0
  6  5  1  0  0  0  0
  8 10  1  0  0  0  0
  9  8  1  0  0  0  0
 10 14  1  0  0  0  0
 11 12  1  6  0  0  0
 11 13  1  0  0  0  0
 12  9  1  0  0  0  0
 13 10  1  0  0  0  0
 16 15  1  0  0  0  0
 17 14  1  1  0  0  0
 17 16  1  0  0  0  0
 17 15  1  0  0  0  0
 18 22  1  1  0  0  0
 19 18  1  0  0  0  0
 20 19  1  0  0  0  0
 21 20  1  0  0  0  0
 23 22  1  0  0  0  0
 23 24  1  0  0  0  0
 24 25  1  0  0  0  0
 25 29  1  0  0  0  0
 27 29  1  0  0  0  0
 28 29  1  0  0  0  0
 29 26  1  0  0  0  0
 31 30  1  0  0  0  0
 32 49  1  6  0  0  0
 32 31  1  0  0  0  0
 33 38  1  0  0  0  0
 33 32  1  0  0  0  0
 34 38  1  0  0  0  0
 36 33  1  0  0  0  0
 37 39  1  0  0  0  0
 38 35  2  0  0  0  0
 39 36  1  0  0  0  0
 39 34  2  0  0  0  0
 42 40  1  0  0  0  0
 43 46  1  1  0  0  0
 43 48  1  0  0  0  0
 43 44  1  0  0  0  0
 44 41  1  1  0  0  0
 44 40  1  0  0  0  0
 45 34  1  0  0  0  0
 45 41  1  0  0  0  0
 46 45  1  0  0  0  0
 48 47  1  6  0  0  0
 48 42  1  0  0  0  0
 50 49  1  0  0  0  0
 51 52  1  0  0  0  0
 52 50  3  0  0  0  0
M  END
>  <MODEL>
8

>  <REMARK>
 VINA RESULT:      -7.0      4.117      7.722
  Name = 
  18 active torsions:
  status: ('A' for Active; 'I' for Inactive)
    1  A    between atoms: C_5  and  C_16
    2  A    between atoms: C_8  and  C_27
    3  A    between atoms: N_9  and  C_41
    4  A    between atoms: C_11  and  C_32
    5  A    between atoms: C_11  and  C_42
    6  A    between atoms: C_12  and  S_15
    7  A    between atoms: C_12  and  C_40
    8  A    between atoms: O_13  and  O_18
    9  A    between atoms: C_14  and  C_16
   10  A    between atoms: C_14  and  C_43
   11  A    between atoms: S_15  and  C_49
   12  A    between atoms: C_16  and  O_18
   13  A    between atoms: N_19  and  C_49
   14  A    between atoms: N_21  and  C_30
   15  A    between atoms: N_24  and  C_26
   16  A    between atoms: C_27  and  C_49
   17  A    between atoms: C_41  and  C_52
   18  A    between atoms: C_42  and  C_43
                            x       y       z     vdW  Elec       q    Type
                         _______ _______ _______ _____ _____    ______ ____

>  <TORSDO>
F 18

$$$$
=
 OpenBabel10232410193D

 52 57  0  0  1  0  0  0  0  0999 V2000
  188.6190  177.4980  140.9850 C   0  0  2  0  0  3  0  0  0  0  0  0
  190.9480  177.7160  142.6130 C   0  0  0  0  0  2  0  0  0  0  0  0
  189.5130  177.4040  143.0660 C   0  0  2  0  0  3  0  0  0  0  0  0
  188.6030  178.1050  142.2570 O   0  0  0  0  0  0  0  0  0  0  0  0
  191.1240  177.2500  141.1740 C   0  0  1  0  0  3  0  0  0  0  0  0
  189.9700  177.7250  140.2780 C   0  0  1  0  0  3  0  0  0  0  0  0
  192.3430  177.7240  140.6860 O   0  0  0  0  0  1  0  0  0  0  0  0
  189.0420  176.9590  147.2060 C   0  0  0  0  0  2  0  0  0  0  0  0
  187.7940  177.2990  146.3970 C   0  0  0  0  0  2  0  0  0  0  0  0
  190.1900  177.7050  146.6920 N   0  0  0  0  0  0  0  0  0  0  0  0
  189.2690  177.7140  144.4800 N   0  0  1  0  0  0  0  0  0  0  0  0
  188.0670  177.0040  144.9250 C   0  0  0  0  0  2  0  0  0  0  0  0
  190.4090  177.2960  145.3080 C   0  0  0  0  0  2  0  0  0  0  0  0
  191.3570  177.2720  147.4440 C   0  0  0  0  0  2  0  0  0  0  0  0
  192.3480  175.2880  146.4510 C   0  0  0  0  0  2  0  0  0  0  0  0
  192.7760  175.3330  147.8580 N   0  0  0  0  0  2  0  0  0  0  0  0
  191.4200  175.7560  147.4740 C   0  0  1  0  0  3  0  0  0  0  0  0
  187.4650  178.0390  140.1360 C   0  0  2  0  0  3  0  0  0  0  0  0
  187.9400  178.8860  139.1260 O   0  0  0  0  0  0  0  0  0  0  0  0
  187.1350  178.6880  138.1040 O   0  0  0  0  0  0  0  0  0  0  0  0
  187.7230  179.2940  137.0940 O   0  0  0  0  0  1  0  0  0  0  0  0
  186.4810  178.7880  141.0190 C   0  0  0  0  0  2  0  0  0  0  0  0
  185.0520  178.4600  140.6210 C   0  0  0  0  0  2  0  0  0  0  0  0
  184.1540  178.3930  141.8460 C   0  0  0  0  0  2  0  0  0  0  0  0
  184.9840  178.1680  143.1010 C   0  0  0  0  0  2  0  0  0  0  0  0
  183.5470  178.4110  144.9960 F   0  0  0  0  0  0  0  0  0  0  0  0
  185.6020  179.3450  145.0800 F   0  0  0  0  0  0  0  0  0  0  0  0
  184.0150  180.2250  143.7510 F   0  0  0  0  0  0  0  0  0  0  0  0
  184.5290  179.0490  144.2600 C   0  0  0  0  0  0  0  0  0  0  0  0
  189.9970  176.9410  138.9660 C   0  0  0  0  0  2  0  0  0  0  0  0
  191.2750  175.6490  139.0030 S   0  0  0  0  0  0  0  0  0  0  0  0
  191.4840  175.6940  137.1930 C   0  0  2  0  0  3  0  0  0  0  0  0
  190.1900  175.7490  136.5270 N   0  0  0  0  0  0  0  0  0  0  0  0
  188.0130  175.2570  135.8090 C   0  0  0  0  0  0  0  0  0  0  0  0
  189.1760  173.7580  137.3070 O   0  0  0  0  0  0  0  0  0  0  0  0
  189.7620  176.8240  135.6440 C   0  0  0  0  0  2  0  0  0  0  0  0
  187.5240  177.2540  134.3470 C   0  0  0  0  0  1  0  0  0  0  0  0
  189.1300  174.8120  136.6200 C   0  0  0  0  0  0  0  0  0  0  0  0
  188.3690  176.4180  135.2440 C   0  0  0  0  0  0  0  0  0  0  0  0
  185.1000  171.6880  135.8590 N   0  0  0  0  0  2  0  0  0  0  0  0
  186.5800  173.3520  134.8860 C   0  0  0  0  0  2  0  0  0  0  0  0
  184.0250  171.8520  136.8250 C   0  0  0  0  0  2  0  0  0  0  0  0
  184.4620  174.0170  135.9060 C   0  0  2  0  0  3  0  0  0  0  0  0
  185.1380  172.9240  135.0890 C   0  0  2  0  0  3  0  0  0  0  0  0
  186.7580  174.5660  135.6560 N   0  0  0  0  0  0  0  0  0  0  0  0
  185.5430  175.0010  136.3140 C   0  0  0  0  0  2  0  0  0  0  0  0
  182.5760  173.6710  137.3090 O   0  0  0  0  0  1  0  0  0  0  0  0
  183.9150  173.3260  137.1290 C   0  0  1  0  0  3  0  0  0  0  0  0
  192.3020  174.5110  136.7040 C   0  0  0  0  0  2  0  0  0  0  0  0
  193.5340  174.4030  137.4920 C   0  0  0  0  0  0  0  0  0  0  0  0
  195.8000  174.2010  138.8850 C   0  0  0  0  0  1  0  0  0  0  0  0
  194.5550  174.3120  138.1250 C   0  0  0  0  0  0  0  0  0  0  0  0
  1 18  1  6  0  0  0
  1  4  1  0  0  0  0
  3  2  1  6  0  0  0
  3 11  1  0  0  0  0
  4  3  1  0  0  0  0
  5  7  1  6  0  0  0
  5  2  1  0  0  0  0
  6 30  1  6  0  0  0
  6  1  1  0  0  0  0
  6  5  1  0  0  0  0
  9  8  1  0  0  0  0
 10  8  1  0  0  0  0
 10 14  1  0  0  0  0
 11 12  1  1  0  0  0
 11 13  1  0  0  0  0
 12  9  1  0  0  0  0
 13 10  1  0  0  0  0
 15 17  1  0  0  0  0
 15 16  1  0  0  0  0
 17 14  1  6  0  0  0
 17 16  1  0  0  0  0
 18 22  1  1  0  0  0
 19 18  1  0  0  0  0
 20 19  1  0  0  0  0
 21 20  1  0  0  0  0
 23 22  1  0  0  0  0
 23 24  1  0  0  0  0
 24 25  1  0  0  0  0
 25 29  1  0  0  0  0
 28 29  1  0  0  0  0
 29 26  1  0  0  0  0
 29 27  1  0  0  0  0
 30 31  1  0  0  0  0
 32 49  1  6  0  0  0
 32 31  1  0  0  0  0
 33 38  1  0  0  0  0
 33 32  1  0  0  0  0
 34 38  1  0  0  0  0
 36 33  1  0  0  0  0
 37 39  1  0  0  0  0
 38 35  2  0  0  0  0
 39 36  1  0  0  0  0
 39 34  2  0  0  0  0
 40 42  1  0  0  0  0
 41 45  1  0  0  0  0
 42 48  1  0  0  0  0
 43 46  1  1  0  0  0
 43 48  1  0  0  0  0
 44 41  1  1  0  0  0
 44 40  1  0  0  0  0
 44 43  1  0  0  0  0
 45 34  1  0  0  0  0
 45 46  1  0  0  0  0
 48 47  1  6  0  0  0
 49 50  1  0  0  0  0
 50 52  3  0  0  0  0
 52 51  1  0  0  0  0
M  END
>  <MODEL>
9

>  <REMARK>
 VINA RESULT:      -6.9      1.697      2.435
  Name = 
  18 active torsions:
  status: ('A' for Active; 'I' for Inactive)
    1  A    between atoms: C_5  and  C_16
    2  A    between atoms: C_8  and  C_27
    3  A    between atoms: N_9  and  C_41
    4  A    between atoms: C_11  and  C_32
    5  A    between atoms: C_11  and  C_42
    6  A    between atoms: C_12  and  S_15
    7  A    between atoms: C_12  and  C_40
    8  A    between atoms: O_13  and  O_18
    9  A    between atoms: C_14  and  C_16
   10  A    between atoms: C_14  and  C_43
   11  A    between atoms: S_15  and  C_49
   12  A    between atoms: C_16  and  O_18
   13  A    between atoms: N_19  and  C_49
   14  A    between atoms: N_21  and  C_30
   15  A    between atoms: N_24  and  C_26
   16  A    between atoms: C_27  and  C_49
   17  A    between atoms: C_41  and  C_52
   18  A    between atoms: C_42  and  C_43
                            x       y       z     vdW  Elec       q    Type
                         _______ _______ _______ _____ _____    ______ ____

>  <TORSDO>
F 18

$$$$
