=
 OpenBabel10232408503D

 25 27  0  0  1  0  0  0  0  0999 V2000
  186.4720  178.1500  143.3120 C   0  0  0  0  0  3  0  0  0  0  0  0
  184.0810  178.8880  143.7670 C   0  0  0  0  0  1  0  0  0  0  0  0
  187.2730  178.0300  145.3320 C   0  0  0  0  0  0  0  0  0  0  0  0
  188.4400  177.1880  140.9920 C   0  0  0  0  0  2  0  0  0  0  0  0
  190.2580  177.3210  147.3000 O   0  0  0  0  0  0  0  0  0  0  0  0
  188.6650  176.5670  142.2520 O   0  0  0  0  0  0  0  0  0  0  0  0
  190.2290  178.3490  145.1570 C   0  0  0  0  0  2  0  0  0  0  0  0
  190.8270  176.7880  140.4080 C   0  0  1  0  0  3  0  0  0  0  0  0
  185.4610  178.5140  144.1810 C   0  0  0  0  0  0  0  0  0  0  0  0
  191.1530  176.9490  143.2990 N   0  0  0  0  0  0  0  0  0  0  0  0
  187.5870  177.8680  144.0210 N   0  0  0  0  0  0  0  0  0  0  0  0
  189.7210  177.8310  140.4780 C   0  0  0  0  0  2  0  0  0  0  0  0
  185.9550  178.4260  145.4710 C   0  0  0  0  0  0  0  0  0  0  0  0
  188.1410  177.7250  146.4310 N   0  0  0  0  0  2  0  0  0  0  0  0
  191.9500  177.8340  142.4570 C   0  0  0  0  0  2  0  0  0  0  0  0
  191.0750  176.3930  138.9670 C   0  0  0  0  0  1  0  0  0  0  0  0
  188.7800  177.3110  143.4300 C   0  0  0  0  0  0  0  0  0  0  0  0
  190.0040  177.4810  143.9650 C   0  0  0  0  0  0  0  0  0  0  0  0
  192.1270  177.2800  141.0410 C   0  0  0  0  0  2  0  0  0  0  0  0
  189.5630  177.7620  146.3480 C   0  0  0  0  0  0  0  0  0  0  0  0
  185.7130  179.6370  147.6690 N   0  0  0  0  0  1  0  0  0  0  0  0
  184.1560  178.0690  146.9830 O   0  0  0  0  0  0  0  0  0  0  0  0
  185.2240  178.6860  146.7290 C   0  0  0  0  0  0  0  0  0  0  0  0
  191.6470  175.6880  143.6670 C   0  0  0  0  0  0  0  0  0  0  0  0
  192.0550  174.6490  143.9710 N   0  0  0  0  0  0  0  0  0  0  0  0
  1 11  1  0  0  0  0
  1  9  2  0  0  0  0
  2  9  1  0  0  0  0
  3 13  2  0  0  0  0
  3 14  1  0  0  0  0
  4  6  1  0  0  0  0
  6 17  1  0  0  0  0
  7 20  1  0  0  0  0
  8 16  1  6  0  0  0
  8 12  1  0  0  0  0
  8 19  1  0  0  0  0
  9 13  1  0  0  0  0
 10 24  1  0  0  0  0
 10 18  1  0  0  0  0
 11  3  1  0  0  0  0
 12  4  1  0  0  0  0
 13 23  1  0  0  0  0
 15 10  1  0  0  0  0
 17 18  2  0  0  0  0
 17 11  1  0  0  0  0
 18  7  1  0  0  0  0
 19 15  1  0  0  0  0
 20 14  1  0  0  0  0
 20  5  2  0  0  0  0
 23 22  2  0  0  0  0
 23 21  1  0  0  0  0
 24 25  3  0  0  0  0
M  END
>  <MODEL>
1

>  <REMARK>
 VINA RESULT:      -8.2      0.000      0.000
  Name = 
  2 active torsions:
  status: ('A' for Active; 'I' for Inactive)
    1  A    between atoms: N_12  and  C_18
    2  A    between atoms: C_15  and  C_21
                            x       y       z     vdW  Elec       q    Type
                         _______ _______ _______ _____ _____    ______ ____

>  <TORSDO>
F 2

$$$$
=
 OpenBabel10232408503D

 25 27  0  0  1  0  0  0  0  0999 V2000
  184.6490  178.4510  143.3270 C   0  0  0  0  0  3  0  0  0  0  0  0
  182.2960  178.7120  142.4010 C   0  0  0  0  0  1  0  0  0  0  0  0
  185.8350  178.5140  141.5040 C   0  0  0  0  0  0  0  0  0  0  0  0
  186.3140  178.3200  146.0470 C   0  0  0  0  0  2  0  0  0  0  0  0
  189.2150  178.3050  140.1570 O   0  0  0  0  0  0  0  0  0  0  0  0
  186.9880  178.9640  144.9720 O   0  0  0  0  0  0  0  0  0  0  0  0
  188.4030  177.1040  142.0400 C   0  0  0  0  0  2  0  0  0  0  0  0
  188.5230  177.7320  147.0340 C   0  0  1  0  0  3  0  0  0  0  0  0
  183.7740  178.5970  142.2690 C   0  0  0  0  0  0  0  0  0  0  0  0
  189.3530  177.8210  144.2420 N   0  0  0  0  0  0  0  0  0  0  0  0
  185.9130  178.3850  142.8520 N   0  0  0  0  0  0  0  0  0  0  0  0
  187.1660  177.1900  146.6090 C   0  0  0  0  0  2  0  0  0  0  0  0
  184.5190  178.6550  141.1040 C   0  0  0  0  0  0  0  0  0  0  0  0
  186.9590  178.6100  140.6190 N   0  0  0  0  0  2  0  0  0  0  0  0
  189.6110  176.6070  145.0080 C   0  0  0  0  0  2  0  0  0  0  0  0
  188.5930  177.8250  148.5440 C   0  0  0  0  0  1  0  0  0  0  0  0
  187.0780  178.3830  143.7050 C   0  0  0  0  0  0  0  0  0  0  0  0
  188.2520  177.8380  143.3290 C   0  0  0  0  0  0  0  0  0  0  0  0
  189.6760  176.8760  146.5140 C   0  0  0  0  0  2  0  0  0  0  0  0
  188.2340  178.0380  140.8970 C   0  0  0  0  0  0  0  0  0  0  0  0
  184.1650  180.0920  139.0630 N   0  0  0  0  0  1  0  0  0  0  0  0
  183.4450  177.8940  139.1240 O   0  0  0  0  0  0  0  0  0  0  0  0
  184.0140  178.8420  139.7270 C   0  0  0  0  0  0  0  0  0  0  0  0
  190.3120  178.8440  144.1940 C   0  0  0  0  0  0  0  0  0  0  0  0
  191.1020  179.6880  144.1540 N   0  0  0  0  0  0  0  0  0  0  0  0
  3 11  1  0  0  0  0
  4 12  1  0  0  0  0
  5 20  2  0  0  0  0
  6  4  1  0  0  0  0
  7 18  1  0  0  0  0
  8 16  1  1  0  0  0
  9  2  1  0  0  0  0
  9  1  2  0  0  0  0
 10 15  1  0  0  0  0
 11  1  1  0  0  0  0
 11 17  1  0  0  0  0
 12  8  1  0  0  0  0
 13  3  2  0  0  0  0
 13  9  1  0  0  0  0
 14 20  1  0  0  0  0
 14  3  1  0  0  0  0
 15 19  1  0  0  0  0
 17  6  1  0  0  0  0
 18 17  2  0  0  0  0
 18 10  1  0  0  0  0
 19  8  1  0  0  0  0
 20  7  1  0  0  0  0
 21 23  1  0  0  0  0
 22 23  2  0  0  0  0
 23 13  1  0  0  0  0
 24 10  1  0  0  0  0
 25 24  3  0  0  0  0
M  END
>  <MODEL>
2

>  <REMARK>
 VINA RESULT:      -8.1      2.697      5.384
  Name = 
  2 active torsions:
  status: ('A' for Active; 'I' for Inactive)
    1  A    between atoms: N_12  and  C_18
    2  A    between atoms: C_15  and  C_21
                            x       y       z     vdW  Elec       q    Type
                         _______ _______ _______ _____ _____    ______ ____

>  <TORSDO>
F 2

$$$$
=
 OpenBabel10232408503D

 25 27  0  0  1  0  0  0  0  0999 V2000
  187.0230  177.8300  139.2710 C   0  0  0  0  0  3  0  0  0  0  0  0
  186.0410  177.7100  136.9280 C   0  0  0  0  0  1  0  0  0  0  0  0
  189.1470  177.6060  138.8560 C   0  0  0  0  0  0  0  0  0  0  0  0
  186.2690  178.3970  142.3190 C   0  0  0  0  0  2  0  0  0  0  0  0
  192.4560  177.3850  140.3680 O   0  0  0  0  0  0  0  0  0  0  0  0
  187.5610  178.8550  141.9360 O   0  0  0  0  0  0  0  0  0  0  0  0
  190.4460  176.5420  141.3160 C   0  0  0  0  0  2  0  0  0  0  0  0
  187.0750  178.2000  144.6670 C   0  0  1  0  0  3  0  0  0  0  0  0
  187.1650  177.6850  137.9050 C   0  0  0  0  0  0  0  0  0  0  0  0
  189.6320  177.7720  143.3380 N   0  0  0  0  0  0  0  0  0  0  0  0
  188.2410  177.7660  139.8530 N   0  0  0  0  0  0  0  0  0  0  0  0
  186.3670  177.4780  143.5300 C   0  0  0  0  0  2  0  0  0  0  0  0
  188.5150  177.5580  137.6270 C   0  0  0  0  0  0  0  0  0  0  0  0
  190.5700  177.6030  139.0280 N   0  0  0  0  0  2  0  0  0  0  0  0
  189.1610  176.7670  144.2840 C   0  0  0  0  0  2  0  0  0  0  0  0
  186.0700  178.6110  145.7240 C   0  0  0  0  0  1  0  0  0  0  0  0
  188.4610  178.0310  141.2550 C   0  0  0  0  0  0  0  0  0  0  0  0
  189.5010  177.5140  141.9370 C   0  0  0  0  0  0  0  0  0  0  0  0
  188.1730  177.3480  145.3000 C   0  0  0  0  0  2  0  0  0  0  0  0
  191.2190  177.2030  140.2320 C   0  0  0  0  0  0  0  0  0  0  0  0
  189.7200  176.1760  135.8960 N   0  0  0  0  0  1  0  0  0  0  0  0
  189.1790  178.3900  135.5020 O   0  0  0  0  0  0  0  0  0  0  0  0
  189.1450  177.4150  136.2980 C   0  0  0  0  0  0  0  0  0  0  0  0
  190.4380  178.8350  143.7760 C   0  0  0  0  0  0  0  0  0  0  0  0
  191.1020  179.7100  144.1380 N   0  0  0  0  0  0  0  0  0  0  0  0
  1 11  1  0  0  0  0
  2  9  1  0  0  0  0
  3 14  1  0  0  0  0
  3 11  1  0  0  0  0
  4 12  1  0  0  0  0
  6  4  1  0  0  0  0
  7 18  1  0  0  0  0
  8 19  1  0  0  0  0
  8 16  1  1  0  0  0
  9  1  2  0  0  0  0
 10 24  1  0  0  0  0
 10 15  1  0  0  0  0
 11 17  1  0  0  0  0
 12  8  1  0  0  0  0
 13  9  1  0  0  0  0
 13  3  2  0  0  0  0
 14 20  1  0  0  0  0
 15 19  1  0  0  0  0
 17  6  1  0  0  0  0
 17 18  2  0  0  0  0
 18 10  1  0  0  0  0
 20  5  2  0  0  0  0
 20  7  1  0  0  0  0
 21 23  1  0  0  0  0
 22 23  2  0  0  0  0
 23 13  1  0  0  0  0
 24 25  3  0  0  0  0
M  END
>  <MODEL>
3

>  <REMARK>
 VINA RESULT:      -7.5      3.192      6.656
  Name = 
  2 active torsions:
  status: ('A' for Active; 'I' for Inactive)
    1  A    between atoms: N_12  and  C_18
    2  A    between atoms: C_15  and  C_21
                            x       y       z     vdW  Elec       q    Type
                         _______ _______ _______ _____ _____    ______ ____

>  <TORSDO>
F 2

$$$$
=
 OpenBabel10232408503D

 25 27  0  0  1  0  0  0  0  0999 V2000
  187.7050  177.8950  142.7530 C   0  0  0  0  0  3  0  0  0  0  0  0
  189.1270  177.4780  144.8190 C   0  0  0  0  0  1  0  0  0  0  0  0
  185.7720  178.3410  143.6470 C   0  0  0  0  0  0  0  0  0  0  0  0
  187.8550  178.1970  139.5790 C   0  0  0  0  0  2  0  0  0  0  0  0
  182.2920  179.1560  142.9330 O   0  0  0  0  0  0  0  0  0  0  0  0
  186.8900  179.0330  140.2070 O   0  0  0  0  0  0  0  0  0  0  0  0
  183.6720  177.7300  141.6260 C   0  0  0  0  0  2  0  0  0  0  0  0
  186.4990  178.2580  137.4920 C   0  0  1  0  0  3  0  0  0  0  0  0
  187.8520  177.8030  144.1230 C   0  0  0  0  0  0  0  0  0  0  0  0
  184.3190  178.6450  139.3870 N   0  0  0  0  0  0  0  0  0  0  0  0
  186.4240  178.2110  142.4640 N   0  0  0  0  0  0  0  0  0  0  0  0
  187.2030  177.3520  138.4930 C   0  0  0  0  0  2  0  0  0  0  0  0
  186.6310  178.1000  144.7040 C   0  0  0  0  0  0  0  0  0  0  0  0
  184.4160  178.7790  143.7980 N   0  0  0  0  0  2  0  0  0  0  0  0
  184.2290  177.5430  138.4360 C   0  0  0  0  0  2  0  0  0  0  0  0
  187.3020  178.3350  136.2100 C   0  0  0  0  0  1  0  0  0  0  0  0
  185.9690  178.5310  141.1310 C   0  0  0  0  0  0  0  0  0  0  0  0
  184.6920  178.3610  140.7380 C   0  0  0  0  0  0  0  0  0  0  0  0
  185.0780  177.7870  137.1860 C   0  0  0  0  0  2  0  0  0  0  0  0
  183.4120  178.5990  142.8020 C   0  0  0  0  0  0  0  0  0  0  0  0
  185.5510  179.2370  146.6780 N   0  0  0  0  0  1  0  0  0  0  0  0
  186.7270  177.2600  146.9250 O   0  0  0  0  0  0  0  0  0  0  0  0
  186.3180  178.1620  146.1470 C   0  0  0  0  0  0  0  0  0  0  0  0
  183.7920  179.9050  139.0620 C   0  0  0  0  0  0  0  0  0  0  0  0
  183.3580  180.9430  138.7940 N   0  0  0  0  0  0  0  0  0  0  0  0
  1  9  2  0  0  0  0
  3 14  1  0  0  0  0
  3 13  2  0  0  0  0
  4  6  1  0  0  0  0
  6 17  1  0  0  0  0
  7 20  1  0  0  0  0
  8 16  1  6  0  0  0
  8 12  1  0  0  0  0
  9 13  1  0  0  0  0
  9  2  1  0  0  0  0
 10 18  1  0  0  0  0
 11  1  1  0  0  0  0
 11  3  1  0  0  0  0
 12  4  1  0  0  0  0
 13 23  1  0  0  0  0
 15 10  1  0  0  0  0
 17 11  1  0  0  0  0
 18 17  2  0  0  0  0
 18  7  1  0  0  0  0
 19  8  1  0  0  0  0
 19 15  1  0  0  0  0
 20  5  2  0  0  0  0
 20 14  1  0  0  0  0
 23 21  1  0  0  0  0
 23 22  2  0  0  0  0
 24 10  1  0  0  0  0
 25 24  3  0  0  0  0
M  END
>  <MODEL>
4

>  <REMARK>
 VINA RESULT:      -7.0      3.470      5.853
  Name = 
  2 active torsions:
  status: ('A' for Active; 'I' for Inactive)
    1  A    between atoms: N_12  and  C_18
    2  A    between atoms: C_15  and  C_21
                            x       y       z     vdW  Elec       q    Type
                         _______ _______ _______ _____ _____    ______ ____

>  <TORSDO>
F 2

$$$$
=
 OpenBabel10232408503D

 25 27  0  0  1  0  0  0  0  0999 V2000
  186.1980  178.0910  145.6850 C   0  0  0  0  0  3  0  0  0  0  0  0
  183.7210  178.5770  145.9900 C   0  0  0  0  0  1  0  0  0  0  0  0
  186.3810  178.1520  143.5170 C   0  0  0  0  0  0  0  0  0  0  0  0
  188.9310  177.7020  147.2860 C   0  0  0  0  0  2  0  0  0  0  0  0
  188.6870  177.7490  140.7240 O   0  0  0  0  0  0  0  0  0  0  0  0
  189.0720  178.3440  146.0230 O   0  0  0  0  0  0  0  0  0  0  0  0
  188.7570  176.5240  142.7600 C   0  0  0  0  0  2  0  0  0  0  0  0
  191.2800  176.8990  147.1010 C   0  0  1  0  0  3  0  0  0  0  0  0
  184.9430  178.3560  145.1710 C   0  0  0  0  0  0  0  0  0  0  0  0
  190.6960  177.0590  144.2510 N   0  0  0  0  0  0  0  0  0  0  0  0
  187.0750  177.9520  144.6660 N   0  0  0  0  0  0  0  0  0  0  0  0
  189.8410  176.4840  147.3690 C   0  0  0  0  0  2  0  0  0  0  0  0
  185.0500  178.4120  143.7920 C   0  0  0  0  0  0  0  0  0  0  0  0
  186.9560  178.2040  142.2060 N   0  0  0  0  0  2  0  0  0  0  0  0
  191.1740  175.7930  144.7940 C   0  0  0  0  0  2  0  0  0  0  0  0
  192.0640  176.9130  148.3960 C   0  0  0  0  0  1  0  0  0  0  0  0
  188.4990  177.8190  144.8620 C   0  0  0  0  0  0  0  0  0  0  0  0
  189.3010  177.2050  143.9700 C   0  0  0  0  0  0  0  0  0  0  0  0
  191.9680  175.9830  146.0900 C   0  0  0  0  0  2  0  0  0  0  0  0
  188.1530  177.5230  141.8400 C   0  0  0  0  0  0  0  0  0  0  0  0
  183.9290  178.0360  141.5650 N   0  0  0  0  0  1  0  0  0  0  0  0
  183.0810  179.5470  143.0980 O   0  0  0  0  0  0  0  0  0  0  0  0
  183.9740  178.7040  142.8220 C   0  0  0  0  0  0  0  0  0  0  0  0
  191.6060  178.0070  143.7580 C   0  0  0  0  0  0  0  0  0  0  0  0
  192.3570  178.7880  143.3530 N   0  0  0  0  0  0  0  0  0  0  0  0
  3 13  2  0  0  0  0
  3 11  1  0  0  0  0
  4 12  1  0  0  0  0
  5 20  2  0  0  0  0
  6  4  1  0  0  0  0
  7 18  1  0  0  0  0
  8 12  1  0  0  0  0
  8 16  1  1  0  0  0
  9  1  2  0  0  0  0
  9  2  1  0  0  0  0
 10 15  1  0  0  0  0
 11 17  1  0  0  0  0
 11  1  1  0  0  0  0
 13  9  1  0  0  0  0
 14  3  1  0  0  0  0
 15 19  1  0  0  0  0
 17  6  1  0  0  0  0
 18 10  1  0  0  0  0
 18 17  2  0  0  0  0
 19  8  1  0  0  0  0
 20 14  1  0  0  0  0
 20  7  1  0  0  0  0
 21 23  1  0  0  0  0
 23 22  2  0  0  0  0
 23 13  1  0  0  0  0
 24 10  1  0  0  0  0
 25 24  3  0  0  0  0
M  END
>  <MODEL>
5

>  <REMARK>
 VINA RESULT:      -6.9      2.093      4.492
  Name = 
  2 active torsions:
  status: ('A' for Active; 'I' for Inactive)
    1  A    between atoms: N_12  and  C_18
    2  A    between atoms: C_15  and  C_21
                            x       y       z     vdW  Elec       q    Type
                         _______ _______ _______ _____ _____    ______ ____

>  <TORSDO>
F 2

$$$$
=
 OpenBabel10232408503D

 25 27  0  0  1  0  0  0  0  0999 V2000
  188.6560  177.9840  139.6860 C   0  0  0  0  0  3  0  0  0  0  0  0
  189.3570  178.0270  137.2420 C   0  0  0  0  0  1  0  0  0  0  0  0
  190.3340  176.9380  140.5940 C   0  0  0  0  0  0  0  0  0  0  0  0
  186.4510  179.0730  141.7200 C   0  0  0  0  0  2  0  0  0  0  0  0
  191.6690  175.6260  143.7210 O   0  0  0  0  0  0  0  0  0  0  0  0
  187.7610  178.9720  142.2670 O   0  0  0  0  0  0  0  0  0  0  0  0
  189.3700  175.6950  143.1220 C   0  0  0  0  0  2  0  0  0  0  0  0
  185.5110  178.8050  144.0100 C   0  0  1  0  0  3  0  0  0  0  0  0
  189.5440  177.6710  138.6750 C   0  0  0  0  0  0  0  0  0  0  0  0
  187.9850  177.3230  144.4260 N   0  0  0  0  0  0  0  0  0  0  0  0
  189.1370  177.5200  140.8600 N   0  0  0  0  0  0  0  0  0  0  0  0
  185.4550  178.3010  142.5750 C   0  0  0  0  0  2  0  0  0  0  0  0
  190.6240  177.0180  139.2440 C   0  0  0  0  0  0  0  0  0  0  0  0
  191.2330  176.4140  141.5790 N   0  0  0  0  0  2  0  0  0  0  0  0
  186.7190  176.6620  144.7190 C   0  0  0  0  0  2  0  0  0  0  0  0
  184.2960  179.6590  144.3060 C   0  0  0  0  0  1  0  0  0  0  0  0
  188.5260  177.8110  142.1350 C   0  0  0  0  0  0  0  0  0  0  0  0
  188.6620  177.0050  143.2060 C   0  0  0  0  0  0  0  0  0  0  0  0
  185.6000  177.6630  145.0210 C   0  0  0  0  0  2  0  0  0  0  0  0
  190.8130  175.9120  142.8450 C   0  0  0  0  0  0  0  0  0  0  0  0
  191.7800  175.3680  137.7280 N   0  0  0  0  0  1  0  0  0  0  0  0
  192.9330  177.1290  138.6890 O   0  0  0  0  0  0  0  0  0  0  0  0
  191.8360  176.5260  138.5550 C   0  0  0  0  0  0  0  0  0  0  0  0
  188.6590  178.0380  145.4280 C   0  0  0  0  0  0  0  0  0  0  0  0
  189.2140  178.6290  146.2530 N   0  0  0  0  0  0  0  0  0  0  0  0
  1 11  1  0  0  0  0
  2  9  1  0  0  0  0
  3 11  1  0  0  0  0
  3 14  1  0  0  0  0
  4  6  1  0  0  0  0
  4 12  1  0  0  0  0
  7 18  1  0  0  0  0
  8 16  1  1  0  0  0
  8 19  1  0  0  0  0
  9 13  1  0  0  0  0
  9  1  2  0  0  0  0
 10 15  1  0  0  0  0
 10 24  1  0  0  0  0
 11 17  1  0  0  0  0
 12  8  1  0  0  0  0
 13  3  2  0  0  0  0
 14 20  1  0  0  0  0
 15 19  1  0  0  0  0
 17  6  1  0  0  0  0
 17 18  2  0  0  0  0
 18 10  1  0  0  0  0
 20  7  1  0  0  0  0
 20  5  2  0  0  0  0
 21 23  1  0  0  0  0
 23 22  2  0  0  0  0
 23 13  1  0  0  0  0
 24 25  3  0  0  0  0
M  END
>  <MODEL>
6

>  <REMARK>
 VINA RESULT:      -6.8      2.307      6.528
  Name = 
  2 active torsions:
  status: ('A' for Active; 'I' for Inactive)
    1  A    between atoms: N_12  and  C_18
    2  A    between atoms: C_15  and  C_21
                            x       y       z     vdW  Elec       q    Type
                         _______ _______ _______ _____ _____    ______ ____

>  <TORSDO>
F 2

$$$$
=
 OpenBabel10232408503D

 25 27  0  0  1  0  0  0  0  0999 V2000
  191.0110  176.5250  140.2360 C   0  0  0  0  0  3  0  0  0  0  0  0
  191.9520  176.1170  137.9100 C   0  0  0  0  0  1  0  0  0  0  0  0
  189.1070  177.4700  139.7670 C   0  0  0  0  0  0  0  0  0  0  0  0
  191.5330  175.9440  143.3300 C   0  0  0  0  0  2  0  0  0  0  0  0
  186.1120  178.9750  141.1980 O   0  0  0  0  0  0  0  0  0  0  0  0
  190.1600  175.9560  142.9550 O   0  0  0  0  0  0  0  0  0  0  0  0
  188.2980  179.1030  142.1230 C   0  0  0  0  0  2  0  0  0  0  0  0
  190.8700  176.5850  145.6430 C   0  0  1  0  0  3  0  0  0  0  0  0
  190.9200  176.6140  138.8610 C   0  0  0  0  0  0  0  0  0  0  0  0
  188.6290  177.8100  144.2400 N   0  0  0  0  0  0  0  0  0  0  0  0
  189.9030  177.0650  140.7900 N   0  0  0  0  0  0  0  0  0  0  0  0
  191.7820  176.9210  144.4720 C   0  0  0  0  0  2  0  0  0  0  0  0
  189.7050  177.1990  138.5500 C   0  0  0  0  0  0  0  0  0  0  0  0
  187.7830  177.9970  139.9130 N   0  0  0  0  0  2  0  0  0  0  0  0
  189.4380  178.6430  145.1230 C   0  0  0  0  0  2  0  0  0  0  0  0
  191.6670  175.9170  146.7440 C   0  0  0  0  0  1  0  0  0  0  0  0
  189.6120  176.9980  142.2020 C   0  0  0  0  0  0  0  0  0  0  0  0
  188.8340  177.9030  142.8280 C   0  0  0  0  0  0  0  0  0  0  0  0
  190.1590  177.8190  146.1950 C   0  0  0  0  0  2  0  0  0  0  0  0
  187.3310  178.6890  141.0740 C   0  0  0  0  0  0  0  0  0  0  0  0
  188.5740  176.4140  136.4370 N   0  0  0  0  0  1  0  0  0  0  0  0
  189.2010  178.6240  136.7160 O   0  0  0  0  0  0  0  0  0  0  0  0
  189.1580  177.4640  137.2020 C   0  0  0  0  0  0  0  0  0  0  0  0
  187.4980  177.1430  144.7360 C   0  0  0  0  0  0  0  0  0  0  0  0
  186.5660  176.5940  145.1450 N   0  0  0  0  0  0  0  0  0  0  0  0
  1 11  1  0  0  0  0
  2  9  1  0  0  0  0
  3 14  1  0  0  0  0
  3 11  1  0  0  0  0
  4 12  1  0  0  0  0
  6  4  1  0  0  0  0
  7 18  1  0  0  0  0
  8 19  1  0  0  0  0
  8 16  1  1  0  0  0
  9  1  2  0  0  0  0
 10 24  1  0  0  0  0
 10 15  1  0  0  0  0
 11 17  1  0  0  0  0
 12  8  1  0  0  0  0
 13  9  1  0  0  0  0
 13  3  2  0  0  0  0
 14 20  1  0  0  0  0
 15 19  1  0  0  0  0
 17 18  2  0  0  0  0
 17  6  1  0  0  0  0
 18 10  1  0  0  0  0
 20  5  2  0  0  0  0
 20  7  1  0  0  0  0
 21 23  1  0  0  0  0
 22 23  2  0  0  0  0
 23 13  1  0  0  0  0
 24 25  3  0  0  0  0
M  END
>  <MODEL>
7

>  <REMARK>
 VINA RESULT:      -6.5      2.662      6.592
  Name = 
  2 active torsions:
  status: ('A' for Active; 'I' for Inactive)
    1  A    between atoms: N_12  and  C_18
    2  A    between atoms: C_15  and  C_21
                            x       y       z     vdW  Elec       q    Type
                         _______ _______ _______ _____ _____    ______ ____

>  <TORSDO>
F 2

$$$$
=
 OpenBabel10232408503D

 25 27  0  0  1  0  0  0  0  0999 V2000
  188.0160  177.4880  143.1860 C   0  0  0  0  0  3  0  0  0  0  0  0
  187.3110  177.2860  145.6210 C   0  0  0  0  0  1  0  0  0  0  0  0
  186.2760  178.4630  142.3170 C   0  0  0  0  0  0  0  0  0  0  0  0
  190.4810  177.0500  141.2070 C   0  0  0  0  0  2  0  0  0  0  0  0
  184.8190  179.7180  139.2210 O   0  0  0  0  0  0  0  0  0  0  0  0
  189.6560  178.1650  140.8860 O   0  0  0  0  0  0  0  0  0  0  0  0
  186.2270  177.8120  139.4110 C   0  0  0  0  0  2  0  0  0  0  0  0
  191.1410  176.8940  138.8110 C   0  0  1  0  0  3  0  0  0  0  0  0
  187.0970  177.6750  144.2000 C   0  0  0  0  0  0  0  0  0  0  0  0
  188.5080  178.0790  138.4150 N   0  0  0  0  0  0  0  0  0  0  0  0
  187.5030  177.9590  142.0290 N   0  0  0  0  0  0  0  0  0  0  0  0
  190.6080  176.1190  140.0080 C   0  0  0  0  0  2  0  0  0  0  0  0
  185.9910  178.3090  143.6620 C   0  0  0  0  0  0  0  0  0  0  0  0
  185.4340  179.1620  141.3920 N   0  0  0  0  0  2  0  0  0  0  0  0
  188.8200  176.8290  137.7310 C   0  0  0  0  0  2  0  0  0  0  0  0
  192.5930  176.5390  138.5700 C   0  0  0  0  0  1  0  0  0  0  0  0
  188.2650  178.0540  140.8070 C   0  0  0  0  0  0  0  0  0  0  0  0
  187.6910  178.0360  139.5880 C   0  0  0  0  0  0  0  0  0  0  0  0
  190.3270  176.6330  137.5440 C   0  0  0  0  0  2  0  0  0  0  0  0
  185.4630  178.9520  139.9830 C   0  0  0  0  0  0  0  0  0  0  0  0
  184.8660  179.5330  145.5580 N   0  0  0  0  0  1  0  0  0  0  0  0
  183.6340  178.4200  143.9460 O   0  0  0  0  0  0  0  0  0  0  0  0
  184.7720  178.7430  144.3760 C   0  0  0  0  0  0  0  0  0  0  0  0
  188.7670  179.3090  137.7930 C   0  0  0  0  0  0  0  0  0  0  0  0
  188.9810  180.3240  137.2800 N   0  0  0  0  0  0  0  0  0  0  0  0
  1  9  2  0  0  0  0
  3 13  2  0  0  0  0
  5 20  2  0  0  0  0
  6  4  1  0  0  0  0
  7 18  1  0  0  0  0
  7 20  1  0  0  0  0
  8 16  1  6  0  0  0
  8 12  1  0  0  0  0
  9  2  1  0  0  0  0
 10 18  1  0  0  0  0
 11  3  1  0  0  0  0
 11  1  1  0  0  0  0
 12  4  1  0  0  0  0
 13  9  1  0  0  0  0
 13 23  1  0  0  0  0
 14  3  1  0  0  0  0
 15 10  1  0  0  0  0
 17  6  1  0  0  0  0
 17 11  1  0  0  0  0
 18 17  2  0  0  0  0
 19 15  1  0  0  0  0
 19  8  1  0  0  0  0
 20 14  1  0  0  0  0
 22 23  2  0  0  0  0
 23 21  1  0  0  0  0
 24 10  1  0  0  0  0
 25 24  3  0  0  0  0
M  END
>  <MODEL>
8

>  <REMARK>
 VINA RESULT:      -6.3      2.892      4.812
  Name = 
  2 active torsions:
  status: ('A' for Active; 'I' for Inactive)
    1  A    between atoms: N_12  and  C_18
    2  A    between atoms: C_15  and  C_21
                            x       y       z     vdW  Elec       q    Type
                         _______ _______ _______ _____ _____    ______ ____

>  <TORSDO>
F 2

$$$$
=
 OpenBabel10232408503D

 25 27  0  0  1  0  0  0  0  0999 V2000
  185.2040  178.0430  142.0490 C   0  0  0  0  0  3  0  0  0  0  0  0
  187.0760  177.6490  143.7250 C   0  0  0  0  0  1  0  0  0  0  0  0
  183.6850  178.9550  143.3120 C   0  0  0  0  0  0  0  0  0  0  0  0
  184.4970  177.8860  138.9410 C   0  0  0  0  0  2  0  0  0  0  0  0
  180.2980  180.2990  143.3750 O   0  0  0  0  0  0  0  0  0  0  0  0
  183.8760  178.9630  139.6340 O   0  0  0  0  0  0  0  0  0  0  0  0
  181.0370  178.4800  142.0350 C   0  0  0  0  0  2  0  0  0  0  0  0
  182.6310  177.9180  137.2920 C   0  0  1  0  0  3  0  0  0  0  0  0
  185.7160  178.1090  143.3300 C   0  0  0  0  0  0  0  0  0  0  0  0
  181.1510  178.9530  139.5790 N   0  0  0  0  0  0  0  0  0  0  0  0
  183.9520  178.5500  142.0440 N   0  0  0  0  0  0  0  0  0  0  0  0
  183.4520  177.0400  138.2260 C   0  0  0  0  0  2  0  0  0  0  0  0
  184.7630  178.7020  144.1400 C   0  0  0  0  0  0  0  0  0  0  0  0
  182.5030  179.6530  143.7220 N   0  0  0  0  0  2  0  0  0  0  0  0
  180.6410  177.7690  138.8960 C   0  0  0  0  0  2  0  0  0  0  0  0
  183.0430  177.6730  135.8560 C   0  0  0  0  0  1  0  0  0  0  0  0
  183.1910  178.7670  140.8360 C   0  0  0  0  0  0  0  0  0  0  0  0
  181.8440  178.7870  140.8190 C   0  0  0  0  0  0  0  0  0  0  0  0
  181.1300  177.6820  137.4480 C   0  0  0  0  0  2  0  0  0  0  0  0
  181.2450  179.5310  143.0640 C   0  0  0  0  0  0  0  0  0  0  0  0
  184.1080  178.3010  146.5420 N   0  0  0  0  0  1  0  0  0  0  0  0
  185.6710  179.9110  145.9750 O   0  0  0  0  0  0  0  0  0  0  0  0
  184.8810  179.0130  145.5800 C   0  0  0  0  0  0  0  0  0  0  0  0
  180.7380  180.2330  139.1800 C   0  0  0  0  0  0  0  0  0  0  0  0
  180.3980  181.2880  138.8500 N   0  0  0  0  0  0  0  0  0  0  0  0
  1  9  2  0  0  0  0
  3 14  1  0  0  0  0
  3 13  2  0  0  0  0
  4  6  1  0  0  0  0
  6 17  1  0  0  0  0
  7 20  1  0  0  0  0
  8 16  1  6  0  0  0
  8 19  1  0  0  0  0
  8 12  1  0  0  0  0
  9  2  1  0  0  0  0
  9 13  1  0  0  0  0
 10 18  1  0  0  0  0
 11  1  1  0  0  0  0
 11  3  1  0  0  0  0
 12  4  1  0  0  0  0
 13 23  1  0  0  0  0
 15 10  1  0  0  0  0
 17 11  1  0  0  0  0
 18 17  2  0  0  0  0
 18  7  1  0  0  0  0
 19 15  1  0  0  0  0
 20  5  2  0  0  0  0
 20 14  1  0  0  0  0
 23 22  2  0  0  0  0
 23 21  1  0  0  0  0
 24 10  1  0  0  0  0
 25 24  3  0  0  0  0
M  END
>  <MODEL>
9

>  <REMARK>
 VINA RESULT:      -5.9      4.909      7.855
  Name = 
  2 active torsions:
  status: ('A' for Active; 'I' for Inactive)
    1  A    between atoms: N_12  and  C_18
    2  A    between atoms: C_15  and  C_21
                            x       y       z     vdW  Elec       q    Type
                         _______ _______ _______ _____ _____    ______ ____

>  <TORSDO>
F 2

$$$$
