=
 OpenBabel10232408073D

 38 40  0  0  1  0  0  0  0  0999 V2000
  189.9450  177.3000  140.7750 C   0  0  0  0  0  0  0  0  0  0  0  0
  190.5200  176.3570  140.0120 C   0  0  0  0  0  3  0  0  0  0  0  0
  190.1100  177.2880  142.2510 C   0  0  0  0  0  0  0  0  0  0  0  0
  189.2470  177.5460  144.5260 C   0  0  0  0  0  0  0  0  0  0  0  0
  191.5130  177.1580  142.8290 C   0  0  0  0  0  3  0  0  0  0  0  0
  191.5920  177.0560  144.3480 C   0  0  0  0  0  3  0  0  0  0  0  0
  189.0850  177.4880  143.0970 C   0  0  0  0  0  0  0  0  0  0  0  0
  187.7310  177.7570  142.7680 N   0  0  0  0  0  0  0  0  0  0  0  0
  190.5490  177.2680  145.1610 C   0  0  0  0  0  0  0  0  0  0  0  0
  188.0660  177.8190  145.0610 C   0  0  0  0  0  2  0  0  0  0  0  0
  187.1440  177.9420  143.9120 C   0  0  0  0  0  0  0  0  0  0  0  0
  184.9170  178.3740  142.8760 C   0  0  0  0  0  3  0  0  0  0  0  0
  182.9910  178.9050  144.2450 C   0  0  0  0  0  3  0  0  0  0  0  0
  183.5560  178.6690  142.9880 C   0  0  0  0  0  3  0  0  0  0  0  0
  183.7900  178.8610  145.3900 C   0  0  0  0  0  3  0  0  0  0  0  0
  185.7210  178.3040  144.0230 C   0  0  0  0  0  0  0  0  0  0  0  0
  185.1520  178.5570  145.2800 C   0  0  0  0  0  3  0  0  0  0  0  0
  191.3650  176.0850  147.1960 C   0  0  0  0  0  1  0  0  0  0  0  0
  190.7450  177.1880  146.5470 O   0  0  0  0  0  0  0  0  0  0  0  0
  189.1760  178.4190  140.1390 C   0  0  0  0  0  2  0  0  0  0  0  0
  187.9880  177.9390  139.5920 O   0  0  0  0  0  0  0  0  0  0  0  0
  187.7600  178.7420  138.5230 N   0  0  0  0  0  2  0  0  0  0  0  0
  186.4820  178.4210  138.0420 N   0  0  0  0  0  2  0  0  0  0  0  0
  186.6070  177.1420  137.3580 C   0  0  0  0  0  2  0  0  0  0  0  0
  186.1060  177.2640  135.9590 C   0  0  0  0  0  3  0  0  0  0  0  0
  185.3910  176.3960  135.4850 O   0  0  0  0  0  0  0  0  0  0  0  0
  190.4010  176.3010  138.5230 C   0  0  0  0  0  2  0  0  0  0  0  0
  191.5470  175.4850  137.9480 C   0  0  0  0  0  2  0  0  0  0  0  0
  191.9810  176.0790  136.6990 N   0  0  0  0  0  2  0  0  0  0  0  0
  193.4310  176.1690  136.7580 C   0  0  0  0  0  2  0  0  0  0  0  0
  193.9870  174.9360  137.4520 C   0  0  0  0  0  2  0  0  0  0  0  0
  195.9860  174.2970  138.8590 C   0  0  0  0  0  0  0  0  0  0  0  0
  195.2750  175.2430  138.0540 N   0  0  0  0  0  2  0  0  0  0  0  0
  195.4720  173.1820  139.1390 O   0  0  0  0  0  0  0  0  0  0  0  0
  198.0490  175.4180  138.4860 O   0  0  0  0  0  1  0  0  0  0  0  0
  197.3400  174.6330  139.3960 C   0  0  1  0  0  3  0  0  0  0  0  0
  198.4080  175.0820  141.5080 O   0  0  0  0  0  1  0  0  0  0  0  0
  197.2560  175.3230  140.7540 C   0  0  0  0  0  2  0  0  0  0  0  0
  1  3  1  0  0  0  0
  2  1  2  0  0  0  0
  3  5  2  0  0  0  0
  3  7  1  0  0  0  0
  4 10  1  0  0  0  0
  4  9  1  0  0  0  0
  5  6  1  0  0  0  0
  6  9  2  0  0  0  0
  7  4  2  0  0  0  0
  8  7  1  0  0  0  0
  8 11  2  0  0  0  0
  9 19  1  0  0  0  0
 11 16  1  0  0  0  0
 11 10  1  0  0  0  0
 12 14  2  0  0  0  0
 12 16  1  0  0  0  0
 13 15  2  0  0  0  0
 14 13  1  0  0  0  0
 16 17  2  0  0  0  0
 17 15  1  0  0  0  0
 19 18  1  0  0  0  0
 20  1  1  0  0  0  0
 21 20  1  0  0  0  0
 22 21  1  0  0  0  0
 23 22  1  0  0  0  0
 24 23  1  0  0  0  0
 25 24  1  0  0  0  0
 26 25  2  0  0  0  0
 27  2  1  0  0  0  0
 28 27  1  0  0  0  0
 29 30  1  0  0  0  0
 29 28  1  0  0  0  0
 30 31  1  0  0  0  0
 31 33  1  0  0  0  0
 32 34  2  0  0  0  0
 32 36  1  0  0  0  0
 33 32  1  0  0  0  0
 36 35  1  6  0  0  0
 36 38  1  0  0  0  0
 38 37  1  0  0  0  0
M  END
>  <MODEL>
1

>  <REMARK>
 VINA RESULT:      -8.0      0.000      0.000
  Name = 
  17 active torsions:
  status: ('A' for Active; 'I' for Inactive)
    1  A    between atoms: C_1  and  C_11
    2  A    between atoms: C_3  and  C_38
    3  A    between atoms: N_4  and  C_23
    4  A    between atoms: C_5  and  C_6
    5  A    between atoms: C_5  and  N_7
    6  A    between atoms: C_6  and  C_21
    7  A    between atoms: N_7  and  C_31
    8  A    between atoms: C_11  and  C_27
    9  A    between atoms: N_18  and  N_20
   10  A    between atoms: N_18  and  O_36
   11  A    between atoms: C_19  and  C_32
   12  A    between atoms: N_20  and  C_32
   13  A    between atoms: C_23  and  C_31
   14  A    between atoms: C_24  and  C_38
   15  A    between atoms: O_26  and  C_28
   16  A    between atoms: C_27  and  O_36
   17  A    between atoms: C_30  and  C_35
                            x       y       z     vdW  Elec       q    Type
                         _______ _______ _______ _____ _____    ______ ____

>  <TORSDO>
F 17

$$$$
=
 OpenBabel10232408073D

 38 40  0  0  1  0  0  0  0  0999 V2000
  189.8350  177.5620  141.9770 C   0  0  0  0  0  0  0  0  0  0  0  0
  190.9460  176.9840  141.4940 C   0  0  0  0  0  3  0  0  0  0  0  0
  189.4780  177.4420  143.4140 C   0  0  0  0  0  0  0  0  0  0  0  0
  187.8720  177.5270  145.2580 C   0  0  0  0  0  0  0  0  0  0  0  0
  190.5970  177.2790  144.4340 C   0  0  0  0  0  2  0  0  0  0  0  0
  190.1480  177.0660  145.8750 C   0  0  0  0  0  3  0  0  0  0  0  0
  188.2170  177.5730  143.8610 C   0  0  0  0  0  0  0  0  0  0  0  0
  187.0530  177.8570  143.1010 N   0  0  0  0  0  0  0  0  0  0  0  0
  188.8810  177.2110  146.2860 C   0  0  0  0  0  0  0  0  0  0  0  0
  186.5710  177.7520  145.3650 C   0  0  0  0  0  3  0  0  0  0  0  0
  186.1010  177.9530  143.9790 C   0  0  0  0  0  0  0  0  0  0  0  0
  183.7910  178.6580  144.6010 C   0  0  0  0  0  3  0  0  0  0  0  0
  182.1070  179.0370  142.9020 C   0  0  0  0  0  3  0  0  0  0  0  0
  182.4920  179.0310  144.2460 C   0  0  0  0  0  3  0  0  0  0  0  0
  183.0150  178.6530  141.9130 C   0  0  0  0  0  3  0  0  0  0  0  0
  184.7170  178.2960  143.6110 C   0  0  0  0  0  0  0  0  0  0  0  0
  184.3190  178.2880  142.2660 C   0  0  0  0  0  3  0  0  0  0  0  0
  188.3070  178.0970  148.5420 C   0  0  0  0  0  1  0  0  0  0  0  0
  188.5870  177.0300  147.6450 O   0  0  0  0  0  0  0  0  0  0  0  0
  188.9660  178.3920  141.0800 C   0  0  0  0  0  2  0  0  0  0  0  0
  188.5290  177.6340  139.9950 O   0  0  0  0  0  0  0  0  0  0  0  0
  187.9370  178.5340  139.1700 N   0  0  0  0  0  2  0  0  0  0  0  0
  188.9210  178.9650  138.2700 N   0  0  0  0  0  2  0  0  0  0  0  0
  188.4740  178.5640  136.9440 C   0  0  0  0  0  2  0  0  0  0  0  0
  189.3610  177.4910  136.4110 C   0  0  0  0  0  3  0  0  0  0  0  0
  189.2370  176.3420  136.8020 O   0  0  0  0  0  0  0  0  0  0  0  0
  191.3730  177.0590  140.0640 C   0  0  0  0  0  2  0  0  0  0  0  0
  192.8780  177.2430  139.9880 C   0  0  0  0  0  2  0  0  0  0  0  0
  193.3220  177.0190  138.6260 N   0  0  0  0  0  2  0  0  0  0  0  0
  192.5720  175.8790  138.1220 C   0  0  0  0  0  2  0  0  0  0  0  0
  193.5360  174.7730  137.7260 C   0  0  0  0  0  2  0  0  0  0  0  0
  195.8640  174.3350  138.6050 C   0  0  0  0  0  0  0  0  0  0  0  0
  194.9050  175.1930  137.9780 N   0  0  0  0  0  2  0  0  0  0  0  0
  195.5220  173.2010  139.0350 O   0  0  0  0  0  0  0  0  0  0  0  0
  197.6370  174.7780  140.1260 O   0  0  0  0  0  1  0  0  0  0  0  0
  197.2780  174.7850  138.7770 C   0  0  1  0  0  3  0  0  0  0  0  0
  199.2300  174.7330  137.3660 O   0  0  0  0  0  1  0  0  0  0  0  0
  198.2460  173.9370  137.9580 C   0  0  0  0  0  2  0  0  0  0  0  0
  1  3  1  0  0  0  0
  2  1  2  0  0  0  0
  3  7  2  0  0  0  0
  3  5  1  0  0  0  0
  4 10  2  0  0  0  0
  4  9  1  0  0  0  0
  5  6  1  0  0  0  0
  6  9  2  0  0  0  0
  7  4  1  0  0  0  0
  8  7  1  0  0  0  0
  8 11  2  0  0  0  0
  9 19  1  0  0  0  0
 11 10  1  0  0  0  0
 13 14  2  0  0  0  0
 14 12  1  0  0  0  0
 15 17  2  0  0  0  0
 15 13  1  0  0  0  0
 16 11  1  0  0  0  0
 16 12  2  0  0  0  0
 17 16  1  0  0  0  0
 19 18  1  0  0  0  0
 20  1  1  0  0  0  0
 21 20  1  0  0  0  0
 22 21  1  0  0  0  0
 23 22  1  0  0  0  0
 24 23  1  0  0  0  0
 25 26  2  0  0  0  0
 25 24  1  0  0  0  0
 27  2  1  0  0  0  0
 28 27  1  0  0  0  0
 29 28  1  0  0  0  0
 30 29  1  0  0  0  0
 31 33  1  0  0  0  0
 31 30  1  0  0  0  0
 32 36  1  0  0  0  0
 32 34  2  0  0  0  0
 33 32  1  0  0  0  0
 36 35  1  1  0  0  0
 37 38  1  0  0  0  0
 38 36  1  0  0  0  0
M  END
>  <MODEL>
2

>  <REMARK>
 VINA RESULT:      -7.8      1.518      2.156
  Name = 
  17 active torsions:
  status: ('A' for Active; 'I' for Inactive)
    1  A    between atoms: C_1  and  C_11
    2  A    between atoms: C_3  and  C_38
    3  A    between atoms: N_4  and  C_23
    4  A    between atoms: C_5  and  C_6
    5  A    between atoms: C_5  and  N_7
    6  A    between atoms: C_6  and  C_21
    7  A    between atoms: N_7  and  C_31
    8  A    between atoms: C_11  and  C_27
    9  A    between atoms: N_18  and  N_20
   10  A    between atoms: N_18  and  O_36
   11  A    between atoms: C_19  and  C_32
   12  A    between atoms: N_20  and  C_32
   13  A    between atoms: C_23  and  C_31
   14  A    between atoms: C_24  and  C_38
   15  A    between atoms: O_26  and  C_28
   16  A    between atoms: C_27  and  O_36
   17  A    between atoms: C_30  and  C_35
                            x       y       z     vdW  Elec       q    Type
                         _______ _______ _______ _____ _____    ______ ____

>  <TORSDO>
F 17

$$$$
=
 OpenBabel10232408073D

 38 40  0  0  1  0  0  0  0  0999 V2000
  189.9310  177.4420  140.3160 C   0  0  0  0  0  0  0  0  0  0  0  0
  190.5200  176.5740  139.4780 C   0  0  0  0  0  3  0  0  0  0  0  0
  190.1490  177.3500  141.7830 C   0  0  0  0  0  0  0  0  0  0  0  0
  189.3640  177.4670  144.0970 C   0  0  0  0  0  0  0  0  0  0  0  0
  191.5730  177.2100  142.3030 C   0  0  0  0  0  3  0  0  0  0  0  0
  191.7070  177.0240  143.8100 C   0  0  0  0  0  3  0  0  0  0  0  0
  189.1510  177.4860  142.6730 C   0  0  0  0  0  0  0  0  0  0  0  0
  187.7830  177.7520  142.4080 N   0  0  0  0  0  0  0  0  0  0  0  0
  190.6910  177.1740  144.6690 C   0  0  0  0  0  0  0  0  0  0  0  0
  188.1990  177.6900  144.6870 C   0  0  0  0  0  2  0  0  0  0  0  0
  187.2350  177.8630  143.5800 C   0  0  0  0  0  0  0  0  0  0  0  0
  185.3100  178.4900  145.0370 C   0  0  0  0  0  3  0  0  0  0  0  0
  183.1220  178.9160  144.0900 C   0  0  0  0  0  3  0  0  0  0  0  0
  183.9710  178.8540  145.1990 C   0  0  0  0  0  3  0  0  0  0  0  0
  183.6070  178.5990  142.8190 C   0  0  0  0  0  3  0  0  0  0  0  0
  185.8120  178.1960  143.7600 C   0  0  0  0  0  0  0  0  0  0  0  0
  184.9510  178.2440  142.6530 C   0  0  0  0  0  3  0  0  0  0  0  0
  191.8660  176.0870  146.5780 C   0  0  0  0  0  1  0  0  0  0  0  0
  190.9370  177.0190  146.0410 O   0  0  0  0  0  0  0  0  0  0  0  0
  189.0910  178.5610  139.7760 C   0  0  0  0  0  2  0  0  0  0  0  0
  187.8550  178.0760  139.3550 O   0  0  0  0  0  0  0  0  0  0  0  0
  187.6500  178.6700  138.1530 N   0  0  0  0  0  2  0  0  0  0  0  0
  186.3260  178.3920  137.7860 N   0  0  0  0  0  2  0  0  0  0  0  0
  185.5580  178.3260  139.0210 C   0  0  0  0  0  2  0  0  0  0  0  0
  184.3000  179.1140  138.8800 C   0  0  0  0  0  3  0  0  0  0  0  0
  184.2720  180.2880  139.2090 O   0  0  0  0  0  0  0  0  0  0  0  0
  190.3520  176.6010  137.9930 C   0  0  0  0  0  2  0  0  0  0  0  0
  189.7130  175.3050  137.5270 C   0  0  0  0  0  2  0  0  0  0  0  0
  189.3810  175.4120  136.1190 N   0  0  0  0  0  2  0  0  0  0  0  0
  187.9520  175.6710  136.0420 C   0  0  0  0  0  2  0  0  0  0  0  0
  187.2200  174.7650  137.0180 C   0  0  0  0  0  2  0  0  0  0  0  0
  184.9430  173.6980  137.2650 C   0  0  0  0  0  0  0  0  0  0  0  0
  185.8420  174.5830  136.5900 N   0  0  0  0  0  2  0  0  0  0  0  0
  185.3480  172.9800  138.2180 O   0  0  0  0  0  0  0  0  0  0  0  0
  183.0280  172.3080  137.0340 O   0  0  0  0  0  1  0  0  0  0  0  0
  183.5160  173.6000  136.8330 C   0  0  1  0  0  3  0  0  0  0  0  0
  183.3970  175.4310  138.3940 O   0  0  0  0  0  1  0  0  0  0  0  0
  182.6360  174.6250  137.5430 C   0  0  0  0  0  2  0  0  0  0  0  0
  1  3  1  0  0  0  0
  2  1  2  0  0  0  0
  3  5  2  0  0  0  0
  3  7  1  0  0  0  0
  4  9  1  0  0  0  0
  4 10  1  0  0  0  0
  5  6  1  0  0  0  0
  6  9  2  0  0  0  0
  7  4  2  0  0  0  0
  8  7  1  0  0  0  0
  8 11  2  0  0  0  0
  9 19  1  0  0  0  0
 11 16  1  0  0  0  0
 11 10  1  0  0  0  0
 12 14  1  0  0  0  0
 13 14  2  0  0  0  0
 15 13  1  0  0  0  0
 16 12  2  0  0  0  0
 17 15  2  0  0  0  0
 17 16  1  0  0  0  0
 19 18  1  0  0  0  0
 20  1  1  0  0  0  0
 21 20  1  0  0  0  0
 22 21  1  0  0  0  0
 23 22  1  0  0  0  0
 23 24  1  0  0  0  0
 25 24  1  0  0  0  0
 25 26  2  0  0  0  0
 27  2  1  0  0  0  0
 28 27  1  0  0  0  0
 29 28  1  0  0  0  0
 30 29  1  0  0  0  0
 30 31  1  0  0  0  0
 32 34  2  0  0  0  0
 33 31  1  0  0  0  0
 33 32  1  0  0  0  0
 36 35  1  1  0  0  0
 36 32  1  0  0  0  0
 36 38  1  0  0  0  0
 38 37  1  0  0  0  0
M  END
>  <MODEL>
3

>  <REMARK>
 VINA RESULT:      -7.7      3.627      6.031
  Name = 
  17 active torsions:
  status: ('A' for Active; 'I' for Inactive)
    1  A    between atoms: C_1  and  C_11
    2  A    between atoms: C_3  and  C_38
    3  A    between atoms: N_4  and  C_23
    4  A    between atoms: C_5  and  C_6
    5  A    between atoms: C_5  and  N_7
    6  A    between atoms: C_6  and  C_21
    7  A    between atoms: N_7  and  C_31
    8  A    between atoms: C_11  and  C_27
    9  A    between atoms: N_18  and  N_20
   10  A    between atoms: N_18  and  O_36
   11  A    between atoms: C_19  and  C_32
   12  A    between atoms: N_20  and  C_32
   13  A    between atoms: C_23  and  C_31
   14  A    between atoms: C_24  and  C_38
   15  A    between atoms: O_26  and  C_28
   16  A    between atoms: C_27  and  O_36
   17  A    between atoms: C_30  and  C_35
                            x       y       z     vdW  Elec       q    Type
                         _______ _______ _______ _____ _____    ______ ____

>  <TORSDO>
F 17

$$$$
=
 OpenBabel10232408073D

 38 40  0  0  1  0  0  0  0  0999 V2000
  189.9330  177.6220  140.4890 C   0  0  0  0  0  0  0  0  0  0  0  0
  188.8450  178.1940  139.9480 C   0  0  0  0  0  3  0  0  0  0  0  0
  190.0720  177.4960  141.9630 C   0  0  0  0  0  0  0  0  0  0  0  0
  189.1640  177.5520  144.2340 C   0  0  0  0  0  0  0  0  0  0  0  0
  191.4680  177.3540  142.5560 C   0  0  0  0  0  3  0  0  0  0  0  0
  191.5230  177.1330  144.0620 C   0  0  0  0  0  3  0  0  0  0  0  0
  189.0270  177.6040  142.8020 C   0  0  0  0  0  0  0  0  0  0  0  0
  187.6730  177.8660  142.4690 N   0  0  0  0  0  0  0  0  0  0  0  0
  190.4610  177.2550  144.8690 C   0  0  0  0  0  0  0  0  0  0  0  0
  187.9670  177.7530  144.7660 C   0  0  0  0  0  2  0  0  0  0  0  0
  187.0630  177.9450  143.6130 C   0  0  0  0  0  0  0  0  0  0  0  0
  185.0660  178.5620  144.9740 C   0  0  0  0  0  3  0  0  0  0  0  0
  182.9190  178.9560  143.9240 C   0  0  0  0  0  3  0  0  0  0  0  0
  183.7170  178.9110  145.0720 C   0  0  0  0  0  3  0  0  0  0  0  0
  183.4660  178.6350  142.6790 C   0  0  0  0  0  3  0  0  0  0  0  0
  185.6290  178.2630  143.7250 C   0  0  0  0  0  0  0  0  0  0  0  0
  184.8200  178.2940  142.5790 C   0  0  0  0  0  3  0  0  0  0  0  0
  191.6190  176.2120  146.8130 C   0  0  0  0  0  1  0  0  0  0  0  0
  190.6350  177.0690  146.2490 O   0  0  0  0  0  0  0  0  0  0  0  0
  190.9980  177.0440  139.6070 C   0  0  0  0  0  2  0  0  0  0  0  0
  190.8250  175.6670  139.4790 O   0  0  0  0  0  0  0  0  0  0  0  0
  190.6170  175.4740  138.1520 N   0  0  0  0  0  2  0  0  0  0  0  0
  191.3580  174.3420  137.7870 N   0  0  0  0  0  2  0  0  0  0  0  0
  192.4220  174.8090  136.9100 C   0  0  0  0  0  2  0  0  0  0  0  0
  193.7250  174.7820  137.6330 C   0  0  0  0  0  3  0  0  0  0  0  0
  194.1540  175.7940  138.1630 O   0  0  0  0  0  0  0  0  0  0  0  0
  188.6310  178.3560  138.4780 C   0  0  0  0  0  2  0  0  0  0  0  0
  187.3780  177.6080  138.0580 C   0  0  0  0  0  2  0  0  0  0  0  0
  186.3370  178.5610  137.7250 N   0  0  0  0  0  2  0  0  0  0  0  0
  185.3080  178.4320  138.7450 C   0  0  0  0  0  2  0  0  0  0  0  0
  184.0110  177.9750  138.0990 C   0  0  0  0  0  2  0  0  0  0  0  0
  183.9510  175.5800  137.2940 C   0  0  0  0  0  0  0  0  0  0  0  0
  183.8120  176.5530  138.3350 N   0  0  0  0  0  2  0  0  0  0  0  0
  184.1750  175.9400  136.1080 O   0  0  0  0  0  0  0  0  0  0  0  0
  182.8810  173.5290  136.7440 O   0  0  0  0  0  1  0  0  0  0  0  0
  183.8090  174.1240  137.6010 C   0  0  1  0  0  3  0  0  0  0  0  0
  186.2020  174.3050  137.3900 O   0  0  0  0  0  1  0  0  0  0  0  0
  185.1490  173.3980  137.5330 C   0  0  0  0  0  2  0  0  0  0  0  0
  1  3  1  0  0  0  0
  2  1  2  0  0  0  0
  3  5  2  0  0  0  0
  3  7  1  0  0  0  0
  4 10  1  0  0  0  0
  4  9  1  0  0  0  0
  5  6  1  0  0  0  0
  6  9  2  0  0  0  0
  7  4  2  0  0  0  0
  8  7  1  0  0  0  0
  8 11  2  0  0  0  0
  9 19  1  0  0  0  0
 11 16  1  0  0  0  0
 11 10  1  0  0  0  0
 12 14  1  0  0  0  0
 13 14  2  0  0  0  0
 15 13  1  0  0  0  0
 16 12  2  0  0  0  0
 17 15  2  0  0  0  0
 17 16  1  0  0  0  0
 19 18  1  0  0  0  0
 20  1  1  0  0  0  0
 21 20  1  0  0  0  0
 22 21  1  0  0  0  0
 23 22  1  0  0  0  0
 24 25  1  0  0  0  0
 24 23  1  0  0  0  0
 25 26  2  0  0  0  0
 27  2  1  0  0  0  0
 28 27  1  0  0  0  0
 29 28  1  0  0  0  0
 29 30  1  0  0  0  0
 31 33  1  0  0  0  0
 31 30  1  0  0  0  0
 32 36  1  0  0  0  0
 32 33  1  0  0  0  0
 34 32  2  0  0  0  0
 36 35  1  6  0  0  0
 37 38  1  0  0  0  0
 38 36  1  0  0  0  0
M  END
>  <MODEL>
4

>  <REMARK>
 VINA RESULT:      -7.6      2.032      6.748
  Name = 
  17 active torsions:
  status: ('A' for Active; 'I' for Inactive)
    1  A    between atoms: C_1  and  C_11
    2  A    between atoms: C_3  and  C_38
    3  A    between atoms: N_4  and  C_23
    4  A    between atoms: C_5  and  C_6
    5  A    between atoms: C_5  and  N_7
    6  A    between atoms: C_6  and  C_21
    7  A    between atoms: N_7  and  C_31
    8  A    between atoms: C_11  and  C_27
    9  A    between atoms: N_18  and  N_20
   10  A    between atoms: N_18  and  O_36
   11  A    between atoms: C_19  and  C_32
   12  A    between atoms: N_20  and  C_32
   13  A    between atoms: C_23  and  C_31
   14  A    between atoms: C_24  and  C_38
   15  A    between atoms: O_26  and  C_28
   16  A    between atoms: C_27  and  O_36
   17  A    between atoms: C_30  and  C_35
                            x       y       z     vdW  Elec       q    Type
                         _______ _______ _______ _____ _____    ______ ____

>  <TORSDO>
F 17

$$$$
=
 OpenBabel10232408073D

 38 40  0  0  1  0  0  0  0  0999 V2000
  190.0770  177.5980  140.8150 C   0  0  0  0  0  0  0  0  0  0  0  0
  189.1160  178.3650  140.2780 C   0  0  0  0  0  3  0  0  0  0  0  0
  190.1470  177.3840  142.2840 C   0  0  0  0  0  0  0  0  0  0  0  0
  189.1460  177.3640  144.5160 C   0  0  0  0  0  0  0  0  0  0  0  0
  191.5060  177.1340  142.9230 C   0  0  0  0  0  3  0  0  0  0  0  0
  191.4850  176.8280  144.4150 C   0  0  0  0  0  3  0  0  0  0  0  0
  189.0740  177.5020  143.0850 C   0  0  0  0  0  0  0  0  0  0  0  0
  187.7500  177.8550  142.7150 N   0  0  0  0  0  0  0  0  0  0  0  0
  190.3970  176.9620  145.1850 C   0  0  0  0  0  0  0  0  0  0  0  0
  187.9390  177.5990  145.0110 C   0  0  0  0  0  2  0  0  0  0  0  0
  187.0960  177.9040  143.8360 C   0  0  0  0  0  0  0  0  0  0  0  0
  184.9040  178.3700  142.7410 C   0  0  0  0  0  3  0  0  0  0  0  0
  182.9540  178.9440  144.0570 C   0  0  0  0  0  3  0  0  0  0  0  0
  183.5470  178.6910  142.8160 C   0  0  0  0  0  3  0  0  0  0  0  0
  183.7230  178.8930  145.2220 C   0  0  0  0  0  3  0  0  0  0  0  0
  185.6770  178.2920  143.9090 C   0  0  0  0  0  0  0  0  0  0  0  0
  185.0810  178.5630  145.1490 C   0  0  0  0  0  3  0  0  0  0  0  0
  191.6790  176.1890  147.1760 C   0  0  0  0  0  1  0  0  0  0  0  0
  190.5020  176.6920  146.5570 O   0  0  0  0  0  0  0  0  0  0  0  0
  191.0610  176.8930  139.9320 C   0  0  0  0  0  2  0  0  0  0  0  0
  190.4980  175.7280  139.4140 O   0  0  0  0  0  0  0  0  0  0  0  0
  191.2880  175.4090  138.3590 N   0  0  0  0  0  2  0  0  0  0  0  0
  190.6960  174.3050  137.7300 N   0  0  0  0  0  2  0  0  0  0  0  0
  190.6890  174.5940  136.3040 C   0  0  0  0  0  2  0  0  0  0  0  0
  189.5720  175.5270  135.9800 C   0  0  0  0  0  3  0  0  0  0  0  0
  189.8100  176.6680  135.6180 O   0  0  0  0  0  0  0  0  0  0  0  0
  188.9780  178.6280  138.8130 C   0  0  0  0  0  2  0  0  0  0  0  0
  187.7840  177.8650  138.2660 C   0  0  0  0  0  2  0  0  0  0  0  0
  187.1280  178.6640  137.2500 N   0  0  0  0  0  2  0  0  0  0  0  0
  186.4470  177.7350  136.3610 C   0  0  0  0  0  2  0  0  0  0  0  0
  185.7300  176.6780  137.1840 C   0  0  0  0  0  2  0  0  0  0  0  0
  183.7260  177.7420  138.2970 C   0  0  0  0  0  0  0  0  0  0  0  0
  184.3070  176.9720  137.2390 N   0  0  0  0  0  2  0  0  0  0  0  0
  184.4300  178.1270  139.2680 O   0  0  0  0  0  0  0  0  0  0  0  0
  181.9890  179.1130  139.1660 O   0  0  0  0  0  1  0  0  0  0  0  0
  182.2700  178.0790  138.2710 C   0  0  1  0  0  3  0  0  0  0  0  0
  181.0570  177.3940  136.3070 O   0  0  0  0  0  1  0  0  0  0  0  0
  181.7960  178.4380  136.8660 C   0  0  0  0  0  2  0  0  0  0  0  0
  1  3  1  0  0  0  0
  2  1  2  0  0  0  0
  3  5  2  0  0  0  0
  3  7  1  0  0  0  0
  4 10  1  0  0  0  0
  4  9  1  0  0  0  0
  5  6  1  0  0  0  0
  6  9  2  0  0  0  0
  7  4  2  0  0  0  0
  8  7  1  0  0  0  0
  8 11  2  0  0  0  0
  9 19  1  0  0  0  0
 11 16  1  0  0  0  0
 11 10  1  0  0  0  0
 12 14  2  0  0  0  0
 12 16  1  0  0  0  0
 13 15  2  0  0  0  0
 14 13  1  0  0  0  0
 16 17  2  0  0  0  0
 17 15  1  0  0  0  0
 19 18  1  0  0  0  0
 20  1  1  0  0  0  0
 21 20  1  0  0  0  0
 22 21  1  0  0  0  0
 23 22  1  0  0  0  0
 24 23  1  0  0  0  0
 25 24  1  0  0  0  0
 26 25  2  0  0  0  0
 27  2  1  0  0  0  0
 28 27  1  0  0  0  0
 29 28  1  0  0  0  0
 30 31  1  0  0  0  0
 30 29  1  0  0  0  0
 31 33  1  0  0  0  0
 32 34  2  0  0  0  0
 33 32  1  0  0  0  0
 36 32  1  0  0  0  0
 36 35  1  1  0  0  0
 37 38  1  0  0  0  0
 38 36  1  0  0  0  0
M  END
>  <MODEL>
5

>  <REMARK>
 VINA RESULT:      -7.5      3.076      7.005
  Name = 
  17 active torsions:
  status: ('A' for Active; 'I' for Inactive)
    1  A    between atoms: C_1  and  C_11
    2  A    between atoms: C_3  and  C_38
    3  A    between atoms: N_4  and  C_23
    4  A    between atoms: C_5  and  C_6
    5  A    between atoms: C_5  and  N_7
    6  A    between atoms: C_6  and  C_21
    7  A    between atoms: N_7  and  C_31
    8  A    between atoms: C_11  and  C_27
    9  A    between atoms: N_18  and  N_20
   10  A    between atoms: N_18  and  O_36
   11  A    between atoms: C_19  and  C_32
   12  A    between atoms: N_20  and  C_32
   13  A    between atoms: C_23  and  C_31
   14  A    between atoms: C_24  and  C_38
   15  A    between atoms: O_26  and  C_28
   16  A    between atoms: C_27  and  O_36
   17  A    between atoms: C_30  and  C_35
                            x       y       z     vdW  Elec       q    Type
                         _______ _______ _______ _____ _____    ______ ____

>  <TORSDO>
F 17

$$$$
=
 OpenBabel10232408073D

 38 40  0  0  1  0  0  0  0  0999 V2000
  189.8790  177.6550  140.5840 C   0  0  0  0  0  0  0  0  0  0  0  0
  188.7230  178.1410  140.1050 C   0  0  0  0  0  3  0  0  0  0  0  0
  190.0580  177.4130  142.0390 C   0  0  0  0  0  0  0  0  0  0  0  0
  189.2240  177.3430  144.3380 C   0  0  0  0  0  0  0  0  0  0  0  0
  191.4620  177.1610  142.5710 C   0  0  0  0  0  3  0  0  0  0  0  0
  191.5530  176.8250  144.0540 C   0  0  0  0  0  3  0  0  0  0  0  0
  189.0460  177.5080  142.9190 C   0  0  0  0  0  0  0  0  0  0  0  0
  187.6970  177.8590  142.6540 N   0  0  0  0  0  0  0  0  0  0  0  0
  190.5240  176.9370  144.9050 C   0  0  0  0  0  0  0  0  0  0  0  0
  188.0560  177.5610  144.9240 C   0  0  0  0  0  2  0  0  0  0  0  0
  187.1270  177.8820  143.8210 C   0  0  0  0  0  0  0  0  0  0  0  0
  184.8730  178.4120  142.8940 C   0  0  0  0  0  3  0  0  0  0  0  0
  183.0060  178.8890  144.3620 C   0  0  0  0  0  3  0  0  0  0  0  0
  183.5230  178.7210  143.0730 C   0  0  0  0  0  3  0  0  0  0  0  0
  183.8450  178.7630  145.4730 C   0  0  0  0  0  3  0  0  0  0  0  0
  185.7150  178.2590  144.0050 C   0  0  0  0  0  0  0  0  0  0  0  0
  185.1960  178.4440  145.2950 C   0  0  0  0  0  3  0  0  0  0  0  0
  191.9480  176.1210  146.7780 C   0  0  0  0  0  1  0  0  0  0  0  0
  190.7310  176.6410  146.2600 O   0  0  0  0  0  0  0  0  0  0  0  0
  190.9890  177.2880  139.6450 C   0  0  0  0  0  2  0  0  0  0  0  0
  190.8990  175.9440  139.2920 O   0  0  0  0  0  0  0  0  0  0  0  0
  191.4720  175.8770  138.0640 N   0  0  0  0  0  2  0  0  0  0  0  0
  192.7520  176.4340  138.1860 N   0  0  0  0  0  2  0  0  0  0  0  0
  193.5790  175.7990  137.1690 C   0  0  0  0  0  2  0  0  0  0  0  0
  194.1610  174.5350  137.7060 C   0  0  0  0  0  3  0  0  0  0  0  0
  193.7570  173.4550  137.3070 O   0  0  0  0  0  0  0  0  0  0  0  0
  188.4650  178.4110  138.6580 C   0  0  0  0  0  2  0  0  0  0  0  0
  187.5670  177.3270  138.0870 C   0  0  0  0  0  2  0  0  0  0  0  0
  186.9870  177.7890  136.8420 N   0  0  0  0  0  2  0  0  0  0  0  0
  185.9860  176.8070  136.4540 C   0  0  0  0  0  2  0  0  0  0  0  0
  184.9140  176.7270  137.5280 C   0  0  0  0  0  2  0  0  0  0  0  0
  183.6250  178.3530  138.9700 C   0  0  0  0  0  0  0  0  0  0  0  0
  184.3670  178.0500  137.7840 N   0  0  0  0  0  2  0  0  0  0  0  0
  183.3530  177.4470  139.8030 O   0  0  0  0  0  0  0  0  0  0  0  0
  184.1150  180.6760  138.8450 O   0  0  0  0  0  1  0  0  0  0  0  0
  183.1450  179.7450  139.2240 C   0  0  1  0  0  3  0  0  0  0  0  0
  181.3320  181.2890  138.8610 O   0  0  0  0  0  1  0  0  0  0  0  0
  181.8230  180.0270  138.5170 C   0  0  0  0  0  2  0  0  0  0  0  0
  1  3  1  0  0  0  0
  2  1  2  0  0  0  0
  3  5  2  0  0  0  0
  3  7  1  0  0  0  0
  4  9  1  0  0  0  0
  4 10  1  0  0  0  0
  5  6  1  0  0  0  0
  6  9  2  0  0  0  0
  7  4  2  0  0  0  0
  8  7  1  0  0  0  0
  8 11  2  0  0  0  0
  9 19  1  0  0  0  0
 11 16  1  0  0  0  0
 11 10  1  0  0  0  0
 12 14  2  0  0  0  0
 12 16  1  0  0  0  0
 13 15  2  0  0  0  0
 14 13  1  0  0  0  0
 16 17  2  0  0  0  0
 17 15  1  0  0  0  0
 19 18  1  0  0  0  0
 20  1  1  0  0  0  0
 21 20  1  0  0  0  0
 22 23  1  0  0  0  0
 22 21  1  0  0  0  0
 24 25  1  0  0  0  0
 24 23  1  0  0  0  0
 26 25  2  0  0  0  0
 27  2  1  0  0  0  0
 28 27  1  0  0  0  0
 29 28  1  0  0  0  0
 30 29  1  0  0  0  0
 30 31  1  0  0  0  0
 31 33  1  0  0  0  0
 32 36  1  0  0  0  0
 32 34  2  0  0  0  0
 33 32  1  0  0  0  0
 36 35  1  6  0  0  0
 38 37  1  0  0  0  0
 38 36  1  0  0  0  0
M  END
>  <MODEL>
6

>  <REMARK>
 VINA RESULT:      -7.5      2.250      7.272
  Name = 
  17 active torsions:
  status: ('A' for Active; 'I' for Inactive)
    1  A    between atoms: C_1  and  C_11
    2  A    between atoms: C_3  and  C_38
    3  A    between atoms: N_4  and  C_23
    4  A    between atoms: C_5  and  C_6
    5  A    between atoms: C_5  and  N_7
    6  A    between atoms: C_6  and  C_21
    7  A    between atoms: N_7  and  C_31
    8  A    between atoms: C_11  and  C_27
    9  A    between atoms: N_18  and  N_20
   10  A    between atoms: N_18  and  O_36
   11  A    between atoms: C_19  and  C_32
   12  A    between atoms: N_20  and  C_32
   13  A    between atoms: C_23  and  C_31
   14  A    between atoms: C_24  and  C_38
   15  A    between atoms: O_26  and  C_28
   16  A    between atoms: C_27  and  O_36
   17  A    between atoms: C_30  and  C_35
                            x       y       z     vdW  Elec       q    Type
                         _______ _______ _______ _____ _____    ______ ____

>  <TORSDO>
F 17

$$$$
=
 OpenBabel10232408073D

 38 40  0  0  1  0  0  0  0  0999 V2000
  189.9620  177.4020  140.8730 C   0  0  0  0  0  0  0  0  0  0  0  0
  190.7300  176.6380  140.0800 C   0  0  0  0  0  3  0  0  0  0  0  0
  190.1290  177.3730  142.3500 C   0  0  0  0  0  0  0  0  0  0  0  0
  189.2600  177.5710  144.6280 C   0  0  0  0  0  0  0  0  0  0  0  0
  191.5350  177.2780  142.9250 C   0  0  0  0  0  3  0  0  0  0  0  0
  191.6190  177.1560  144.4420 C   0  0  0  0  0  3  0  0  0  0  0  0
  189.0980  177.5290  143.1980 C   0  0  0  0  0  0  0  0  0  0  0  0
  187.7360  177.7610  142.8740 N   0  0  0  0  0  0  0  0  0  0  0  0
  190.5700  177.3230  145.2580 C   0  0  0  0  0  0  0  0  0  0  0  0
  188.0710  177.7990  145.1670 C   0  0  0  0  0  2  0  0  0  0  0  0
  187.1450  177.9100  144.0210 C   0  0  0  0  0  0  0  0  0  0  0  0
  185.1380  178.4580  145.3960 C   0  0  0  0  0  3  0  0  0  0  0  0
  183.0020  178.9160  144.3510 C   0  0  0  0  0  3  0  0  0  0  0  0
  183.7890  178.8060  145.5020 C   0  0  0  0  0  3  0  0  0  0  0  0
  183.5590  178.6620  143.0960 C   0  0  0  0  0  3  0  0  0  0  0  0
  185.7120  178.2260  144.1380 C   0  0  0  0  0  0  0  0  0  0  0  0
  184.9120  178.3220  142.9880 C   0  0  0  0  0  3  0  0  0  0  0  0
  191.2910  176.0750  147.2900 C   0  0  0  0  0  1  0  0  0  0  0  0
  190.7700  177.2290  146.6430 O   0  0  0  0  0  0  0  0  0  0  0  0
  188.9630  178.3460  140.2740 C   0  0  0  0  0  2  0  0  0  0  0  0
  187.8220  177.6530  139.8760 O   0  0  0  0  0  0  0  0  0  0  0  0
  186.8600  178.6040  139.7930 N   0  0  0  0  0  2  0  0  0  0  0  0
  186.4870  178.6860  138.4440 N   0  0  0  0  0  2  0  0  0  0  0  0
  185.1130  178.2140  138.3640 C   0  0  0  0  0  2  0  0  0  0  0  0
  184.2240  179.0960  139.1740 C   0  0  0  0  0  3  0  0  0  0  0  0
  184.3550  180.3080  139.1260 O   0  0  0  0  0  0  0  0  0  0  0  0
  190.6240  176.6110  138.5900 C   0  0  0  0  0  2  0  0  0  0  0  0
  191.9980  176.3850  137.9830 C   0  0  0  0  0  2  0  0  0  0  0  0
  191.8500  175.9430  136.6100 N   0  0  0  0  0  2  0  0  0  0  0  0
  190.5110  176.3210  136.1890 C   0  0  0  0  0  2  0  0  0  0  0  0
  190.0360  175.3740  135.1000 C   0  0  0  0  0  2  0  0  0  0  0  0
  188.0830  174.1030  136.0790 C   0  0  0  0  0  0  0  0  0  0  0  0
  188.6080  175.1350  135.2360 N   0  0  0  0  0  2  0  0  0  0  0  0
  188.8580  173.3090  136.6750 O   0  0  0  0  0  0  0  0  0  0  0  0
  185.9650  173.9910  135.0040 O   0  0  0  0  0  1  0  0  0  0  0  0
  186.6060  173.9440  136.2430 C   0  0  1  0  0  3  0  0  0  0  0  0
  185.5220  172.9330  138.1420 O   0  0  0  0  0  1  0  0  0  0  0  0
  186.2540  172.6580  136.9840 C   0  0  0  0  0  2  0  0  0  0  0  0
  1  3  1  0  0  0  0
  2  1  2  0  0  0  0
  3  5  2  0  0  0  0
  3  7  1  0  0  0  0
  4 10  1  0  0  0  0
  4  9  1  0  0  0  0
  5  6  1  0  0  0  0
  6  9  2  0  0  0  0
  7  4  2  0  0  0  0
  8  7  1  0  0  0  0
  8 11  2  0  0  0  0
  9 19  1  0  0  0  0
 11 16  1  0  0  0  0
 11 10  1  0  0  0  0
 12 14  1  0  0  0  0
 13 14  2  0  0  0  0
 15 13  1  0  0  0  0
 16 12  2  0  0  0  0
 17 15  2  0  0  0  0
 17 16  1  0  0  0  0
 19 18  1  0  0  0  0
 20  1  1  0  0  0  0
 21 20  1  0  0  0  0
 22 21  1  0  0  0  0
 23 22  1  0  0  0  0
 24 23  1  0  0  0  0
 24 25  1  0  0  0  0
 26 25  2  0  0  0  0
 27  2  1  0  0  0  0
 28 27  1  0  0  0  0
 29 28  1  0  0  0  0
 30 29  1  0  0  0  0
 31 33  1  0  0  0  0
 31 30  1  0  0  0  0
 32 36  1  0  0  0  0
 32 34  2  0  0  0  0
 33 32  1  0  0  0  0
 36 35  1  6  0  0  0
 36 38  1  0  0  0  0
 38 37  1  0  0  0  0
M  END
>  <MODEL>
7

>  <REMARK>
 VINA RESULT:      -7.4      3.115      4.845
  Name = 
  17 active torsions:
  status: ('A' for Active; 'I' for Inactive)
    1  A    between atoms: C_1  and  C_11
    2  A    between atoms: C_3  and  C_38
    3  A    between atoms: N_4  and  C_23
    4  A    between atoms: C_5  and  C_6
    5  A    between atoms: C_5  and  N_7
    6  A    between atoms: C_6  and  C_21
    7  A    between atoms: N_7  and  C_31
    8  A    between atoms: C_11  and  C_27
    9  A    between atoms: N_18  and  N_20
   10  A    between atoms: N_18  and  O_36
   11  A    between atoms: C_19  and  C_32
   12  A    between atoms: N_20  and  C_32
   13  A    between atoms: C_23  and  C_31
   14  A    between atoms: C_24  and  C_38
   15  A    between atoms: O_26  and  C_28
   16  A    between atoms: C_27  and  O_36
   17  A    between atoms: C_30  and  C_35
                            x       y       z     vdW  Elec       q    Type
                         _______ _______ _______ _____ _____    ______ ____

>  <TORSDO>
F 17

$$$$
=
 OpenBabel10232408073D

 38 40  0  0  1  0  0  0  0  0999 V2000
  187.5490  178.3430  140.5270 C   0  0  0  0  0  0  0  0  0  0  0  0
  187.5950  178.4100  139.1880 C   0  0  0  0  0  3  0  0  0  0  0  0
  186.2600  178.4810  141.2530 C   0  0  0  0  0  0  0  0  0  0  0  0
  184.9210  178.4960  143.3000 C   0  0  0  0  0  0  0  0  0  0  0  0
  184.9720  178.5670  140.4440 C   0  0  0  0  0  3  0  0  0  0  0  0
  183.7030  178.8040  141.2530 C   0  0  0  0  0  3  0  0  0  0  0  0
  186.1740  178.4320  142.5930 C   0  0  0  0  0  0  0  0  0  0  0  0
  187.2260  178.2270  143.5220 N   0  0  0  0  0  0  0  0  0  0  0  0
  183.6520  178.7420  142.5900 C   0  0  0  0  0  0  0  0  0  0  0  0
  185.1750  178.3560  144.5930 C   0  0  0  0  0  2  0  0  0  0  0  0
  186.6410  178.1900  144.6810 C   0  0  0  0  0  0  0  0  0  0  0  0
  186.8310  178.3320  147.1640 C   0  0  0  0  0  3  0  0  0  0  0  0
  188.7350  177.3810  148.3210 C   0  0  0  0  0  3  0  0  0  0  0  0
  187.5070  178.0490  148.3530 C   0  0  0  0  0  3  0  0  0  0  0  0
  189.2970  177.0100  147.0960 C   0  0  0  0  0  3  0  0  0  0  0  0
  187.3760  177.9400  145.9320 C   0  0  0  0  0  0  0  0  0  0  0  0
  188.6170  177.2840  145.9040 C   0  0  0  0  0  3  0  0  0  0  0  0
  181.1970  179.1620  142.5410 C   0  0  0  0  0  1  0  0  0  0  0  0
  182.4200  178.9370  143.2300 O   0  0  0  0  0  0  0  0  0  0  0  0
  188.7970  178.0640  141.3110 C   0  0  0  0  0  2  0  0  0  0  0  0
  189.0780  176.6990  141.3020 O   0  0  0  0  0  0  0  0  0  0  0  0
  190.3520  176.6130  141.7570 N   0  0  0  0  0  2  0  0  0  0  0  0
  190.3170  175.8110  142.9070 N   0  0  0  0  0  2  0  0  0  0  0  0
  191.4970  176.1550  143.6880 C   0  0  0  0  0  2  0  0  0  0  0  0
  191.7850  177.6120  143.5590 C   0  0  0  0  0  3  0  0  0  0  0  0
  191.6870  178.3450  144.5300 O   0  0  0  0  0  0  0  0  0  0  0  0
  188.8510  178.2810  138.3870 C   0  0  0  0  0  2  0  0  0  0  0  0
  188.6110  178.7840  136.9740 C   0  0  0  0  0  2  0  0  0  0  0  0
  189.3520  177.9620  136.0380 N   0  0  0  0  0  2  0  0  0  0  0  0
  188.5310  176.7920  135.7660 C   0  0  0  0  0  2  0  0  0  0  0  0
  189.4230  175.6320  135.3550 C   0  0  0  0  0  2  0  0  0  0  0  0
  191.0800  174.9950  137.1530 C   0  0  0  0  0  0  0  0  0  0  0  0
  190.7240  175.7550  135.9940 N   0  0  0  0  0  2  0  0  0  0  0  0
  190.2350  174.2440  137.7090 O   0  0  0  0  0  0  0  0  0  0  0  0
  193.3350  174.2460  137.0650 O   0  0  0  0  0  1  0  0  0  0  0  0
  192.4540  175.1010  137.7300 C   0  0  1  0  0  3  0  0  0  0  0  0
  194.1530  176.6250  136.9600 O   0  0  0  0  0  1  0  0  0  0  0  0
  192.9720  176.5360  137.7020 C   0  0  0  0  0  2  0  0  0  0  0  0
  1  3  1  0  0  0  0
  1 20  1  0  0  0  0
  2  1  2  0  0  0  0
  3  7  1  0  0  0  0
  4 10  1  0  0  0  0
  5  3  2  0  0  0  0
  5  6  1  0  0  0  0
  6  9  2  0  0  0  0
  7  4  2  0  0  0  0
  7  8  1  0  0  0  0
  8 11  2  0  0  0  0
  9 19  1  0  0  0  0
  9  4  1  0  0  0  0
 10 11  1  0  0  0  0
 11 16  1  0  0  0  0
 12 14  1  0  0  0  0
 13 14  2  0  0  0  0
 15 13  1  0  0  0  0
 16 12  2  0  0  0  0
 17 16  1  0  0  0  0
 17 15  2  0  0  0  0
 18 19  1  0  0  0  0
 21 20  1  0  0  0  0
 21 22  1  0  0  0  0
 22 23  1  0  0  0  0
 23 24  1  0  0  0  0
 25 24  1  0  0  0  0
 25 26  2  0  0  0  0
 27  2  1  0  0  0  0
 28 27  1  0  0  0  0
 29 28  1  0  0  0  0
 30 29  1  0  0  0  0
 31 30  1  0  0  0  0
 31 33  1  0  0  0  0
 32 34  2  0  0  0  0
 32 36  1  0  0  0  0
 33 32  1  0  0  0  0
 36 35  1  6  0  0  0
 37 38  1  0  0  0  0
 38 36  1  0  0  0  0
M  END
>  <MODEL>
8

>  <REMARK>
 VINA RESULT:      -7.4      2.794      5.858
  Name = 
  17 active torsions:
  status: ('A' for Active; 'I' for Inactive)
    1  A    between atoms: C_1  and  C_11
    2  A    between atoms: C_3  and  C_38
    3  A    between atoms: N_4  and  C_23
    4  A    between atoms: C_5  and  C_6
    5  A    between atoms: C_5  and  N_7
    6  A    between atoms: C_6  and  C_21
    7  A    between atoms: N_7  and  C_31
    8  A    between atoms: C_11  and  C_27
    9  A    between atoms: N_18  and  N_20
   10  A    between atoms: N_18  and  O_36
   11  A    between atoms: C_19  and  C_32
   12  A    between atoms: N_20  and  C_32
   13  A    between atoms: C_23  and  C_31
   14  A    between atoms: C_24  and  C_38
   15  A    between atoms: O_26  and  C_28
   16  A    between atoms: C_27  and  O_36
   17  A    between atoms: C_30  and  C_35
                            x       y       z     vdW  Elec       q    Type
                         _______ _______ _______ _____ _____    ______ ____

>  <TORSDO>
F 17

$$$$
=
 OpenBabel10232408073D

 38 40  0  0  1  0  0  0  0  0999 V2000
  189.5800  177.3680  140.5730 C   0  0  0  0  0  0  0  0  0  0  0  0
  190.2720  176.7900  139.5790 C   0  0  0  0  0  3  0  0  0  0  0  0
  190.0630  177.3000  141.9760 C   0  0  0  0  0  0  0  0  0  0  0  0
  189.7110  177.4370  144.3930 C   0  0  0  0  0  0  0  0  0  0  0  0
  191.5600  177.1900  142.2290 C   0  0  0  0  0  3  0  0  0  0  0  0
  191.9700  177.0280  143.6880 C   0  0  0  0  0  3  0  0  0  0  0  0
  189.2420  177.4330  143.0320 C   0  0  0  0  0  0  0  0  0  0  0  0
  187.8440  177.6730  143.0180 N   0  0  0  0  0  0  0  0  0  0  0  0
  191.1250  177.1730  144.7170 C   0  0  0  0  0  0  0  0  0  0  0  0
  188.6690  177.6500  145.1840 C   0  0  0  0  0  2  0  0  0  0  0  0
  187.5170  177.7920  144.2690 C   0  0  0  0  0  0  0  0  0  0  0  0
  185.8110  178.0860  146.0650 C   0  0  0  0  0  3  0  0  0  0  0  0
  183.5540  178.7860  145.5340 C   0  0  0  0  0  3  0  0  0  0  0  0
  184.5220  178.4300  146.4790 C   0  0  0  0  0  3  0  0  0  0  0  0
  183.8710  178.7830  144.1740 C   0  0  0  0  0  3  0  0  0  0  0  0
  186.1440  178.1040  144.7030 C   0  0  0  0  0  0  0  0  0  0  0  0
  185.1650  178.4470  143.7590 C   0  0  0  0  0  3  0  0  0  0  0  0
  191.9770  175.7980  146.6120 C   0  0  0  0  0  1  0  0  0  0  0  0
  191.6200  177.0420  146.0230 O   0  0  0  0  0  0  0  0  0  0  0  0
  188.3350  178.1470  140.2710 C   0  0  0  0  0  2  0  0  0  0  0  0
  187.6830  177.6070  139.1640 O   0  0  0  0  0  0  0  0  0  0  0  0
  186.7430  178.5290  138.8410 N   0  0  0  0  0  2  0  0  0  0  0  0
  186.0020  178.7770  140.0050 N   0  0  0  0  0  2  0  0  0  0  0  0
  184.6670  179.1630  139.5720 C   0  0  0  0  0  2  0  0  0  0  0  0
  183.6450  178.5370  140.4590 C   0  0  0  0  0  3  0  0  0  0  0  0
  182.4600  178.6130  140.1780 O   0  0  0  0  0  0  0  0  0  0  0  0
  189.8530  176.8150  138.1440 C   0  0  0  0  0  2  0  0  0  0  0  0
  189.9890  175.4250  137.5470 C   0  0  0  0  0  2  0  0  0  0  0  0
  191.3300  174.9280  137.7860 N   0  0  0  0  0  2  0  0  0  0  0  0
  192.1040  175.2140  136.5880 C   0  0  0  0  0  2  0  0  0  0  0  0
  193.3670  175.9690  136.9690 C   0  0  0  0  0  2  0  0  0  0  0  0
  195.0580  174.9770  138.5640 C   0  0  0  0  0  0  0  0  0  0  0  0
  194.4340  175.0290  137.2760 N   0  0  0  0  0  2  0  0  0  0  0  0
  194.7490  175.8100  139.4570 O   0  0  0  0  0  0  0  0  0  0  0  0
  195.5520  172.6630  138.7900 O   0  0  0  0  0  1  0  0  0  0  0  0
  196.0990  173.9460  138.8550 C   0  0  1  0  0  3  0  0  0  0  0  0
  197.5950  175.4110  137.6640 O   0  0  0  0  0  1  0  0  0  0  0  0
  197.2970  174.0690  137.9180 C   0  0  0  0  0  2  0  0  0  0  0  0
  1  3  1  0  0  0  0
  2  1  2  0  0  0  0
  3  5  2  0  0  0  0
  3  7  1  0  0  0  0
  4  9  1  0  0  0  0
  4 10  1  0  0  0  0
  5  6  1  0  0  0  0
  6  9  2  0  0  0  0
  7  4  2  0  0  0  0
  8  7  1  0  0  0  0
  8 11  2  0  0  0  0
  9 19  1  0  0  0  0
 11 16  1  0  0  0  0
 11 10  1  0  0  0  0
 12 14  1  0  0  0  0
 13 14  2  0  0  0  0
 15 13  1  0  0  0  0
 16 12  2  0  0  0  0
 17 15  2  0  0  0  0
 17 16  1  0  0  0  0
 19 18  1  0  0  0  0
 20  1  1  0  0  0  0
 21 20  1  0  0  0  0
 22 21  1  0  0  0  0
 22 23  1  0  0  0  0
 24 23  1  0  0  0  0
 24 25  1  0  0  0  0
 26 25  2  0  0  0  0
 27  2  1  0  0  0  0
 28 29  1  0  0  0  0
 28 27  1  0  0  0  0
 30 31  1  0  0  0  0
 30 29  1  0  0  0  0
 31 33  1  0  0  0  0
 32 36  1  0  0  0  0
 32 34  2  0  0  0  0
 33 32  1  0  0  0  0
 36 35  1  6  0  0  0
 37 38  1  0  0  0  0
 38 36  1  0  0  0  0
M  END
>  <MODEL>
9

>  <REMARK>
 VINA RESULT:      -7.4      1.608      2.182
  Name = 
  17 active torsions:
  status: ('A' for Active; 'I' for Inactive)
    1  A    between atoms: C_1  and  C_11
    2  A    between atoms: C_3  and  C_38
    3  A    between atoms: N_4  and  C_23
    4  A    between atoms: C_5  and  C_6
    5  A    between atoms: C_5  and  N_7
    6  A    between atoms: C_6  and  C_21
    7  A    between atoms: N_7  and  C_31
    8  A    between atoms: C_11  and  C_27
    9  A    between atoms: N_18  and  N_20
   10  A    between atoms: N_18  and  O_36
   11  A    between atoms: C_19  and  C_32
   12  A    between atoms: N_20  and  C_32
   13  A    between atoms: C_23  and  C_31
   14  A    between atoms: C_24  and  C_38
   15  A    between atoms: O_26  and  C_28
   16  A    between atoms: C_27  and  O_36
   17  A    between atoms: C_30  and  C_35
                            x       y       z     vdW  Elec       q    Type
                         _______ _______ _______ _____ _____    ______ ____

>  <TORSDO>
F 17

$$$$
