=
 OpenBabel10222421303D

 34 38  0  0  1  0  0  0  0  0999 V2000
  189.9840  177.6380  143.1620 N   0  0  0  0  0  0  0  0  0  0  0  0
  191.4510  177.6470  143.2550 C   0  0  2  0  0  3  0  0  0  0  0  0
  190.6700  176.6040  143.9560 C   0  0  1  0  0  3  0  0  0  0  0  0
  190.4240  176.8250  145.4300 C   0  0  0  0  0  0  0  0  0  0  0  0
  191.3450  176.5820  146.2540 O   0  0  0  0  0  0  0  0  0  0  0  0
  185.6940  178.2660  145.0230 N   0  0  0  0  0  0  0  0  0  0  0  0
  184.8880  178.7150  146.0120 C   0  0  0  0  0  0  0  0  0  0  0  0
  186.8680  178.0620  145.6410 C   0  0  0  0  0  0  0  0  0  0  0  0
  188.1100  177.5380  145.0880 C   0  0  0  0  0  3  0  0  0  0  0  0
  185.5080  178.8010  147.1750 O   0  0  0  0  0  0  0  0  0  0  0  0
  189.0300  177.7000  147.2980 O   0  0  0  0  0  0  0  0  0  0  0  0
  186.7370  178.3930  146.9540 C   0  0  0  0  0  0  0  0  0  0  0  0
  187.8660  178.2820  147.9220 C   0  0  1  0  0  3  0  0  0  0  0  0
  183.6750  179.0130  145.8460 O   0  0  0  0  0  0  0  0  0  0  0  0
  189.1460  177.3710  145.9240 C   0  0  0  0  0  0  0  0  0  0  0  0
  187.4840  177.5060  148.9980 F   0  0  0  0  0  0  0  0  0  0  0  0
  185.3470  177.9820  143.6360 C   0  0  0  0  0  2  0  0  0  0  0  0
  185.0480  178.9160  141.0960 S   0  0  0  0  0  1  0  0  0  0  0  0
  185.2000  179.2790  142.8660 C   0  0  0  0  0  2  0  0  0  0  0  0
  191.8910  178.8400  144.0970 C   0  0  0  0  0  2  0  0  0  0  0  0
  190.9710  179.8770  143.9540 O   0  0  0  0  0  1  0  0  0  0  0  0
  189.6450  177.0240  141.8900 C   0  0  0  0  0  2  0  0  0  0  0  0
  188.7210  177.9400  141.1080 C   0  0  0  0  0  2  0  0  0  0  0  0
  189.1800  178.0490  139.7350 N   0  0  0  0  0  2  0  0  0  0  0  0
  190.3390  177.1830  139.6090 C   0  0  0  0  0  2  0  0  0  0  0  0
  190.6570  176.9590  138.1420 C   0  0  1  0  0  3  0  0  0  0  0  0
  192.9200  173.2430  136.6250 C   0  0  0  0  0  1  0  0  0  0  0  0
  189.8400  173.3890  136.7960 N   0  0  0  0  0  1  0  0  0  0  0  0
  192.0630  176.6980  137.9830 N   0  0  0  0  0  0  0  0  0  0  0  0
  189.9660  175.6470  137.6580 C   0  0  0  0  0  3  0  0  0  0  0  0
  190.6230  174.5060  137.2010 C   0  0  0  0  0  0  0  0  0  0  0  0
  192.1360  174.4100  137.1120 C   0  0  0  0  0  0  0  0  0  0  0  0
  193.4580  176.6160  137.8930 N   0  0  0  0  0  2  0  0  0  0  0  0
  192.6520  175.5270  137.5140 C   0  0  0  0  0  0  0  0  0  0  0  0
  1  2  1  0  0  0  0
  1  3  1  0  0  0  0
  2  3  1  0  0  0  0
  2 20  1  1  0  0  0
  3  4  1  1  0  0  0
  4 15  1  0  0  0  0
  4  5  2  0  0  0  0
  6  8  1  0  0  0  0
  6  7  1  0  0  0  0
  7 10  1  0  0  0  0
  8 12  2  0  0  0  0
  9  8  1  0  0  0  0
  9 15  2  0  0  0  0
 11 13  1  0  0  0  0
 12 10  1  0  0  0  0
 12 13  1  0  0  0  0
 13 16  1  1  0  0  0
 14  7  2  0  0  0  0
 15 11  1  0  0  0  0
 17  6  1  0  0  0  0
 18 19  1  0  0  0  0
 19 17  1  0  0  0  0
 21 20  1  0  0  0  0
 22  1  1  0  0  0  0
 23 22  1  0  0  0  0
 24 23  1  0  0  0  0
 25 24  1  0  0  0  0
 26 25  1  1  0  0  0
 27 32  1  0  0  0  0
 28 31  1  0  0  0  0
 29 26  1  0  0  0  0
 30 26  1  0  0  0  0
 31 30  2  0  0  0  0
 32 31  1  0  0  0  0
 32 34  2  0  0  0  0
 33 29  1  0  0  0  0
 34 33  1  0  0  0  0
 34 29  1  0  0  0  0
M  END
>  <MODEL>
1

>  <REMARK>
 VINA RESULT:      -8.5      0.000      0.000
  Name = 
  10 active torsions:
  status: ('A' for Active; 'I' for Inactive)
    1  A    between atoms: C_1  and  C_30
    2  A    between atoms: C_2  and  C_13
    3  A    between atoms: C_2  and  C_28
    4  A    between atoms: N_3  and  C_25
    5  A    between atoms: N_4  and  C_19
    6  A    between atoms: C_9  and  C_12
    7  A    between atoms: N_16  and  C_30
    8  A    between atoms: N_16  and  C_34
    9  A    between atoms: C_19  and  C_34
   10  A    between atoms: C_25  and  C_32
                            x       y       z     vdW  Elec       q    Type
                         _______ _______ _______ _____ _____    ______ ____

>  <TORSDO>
F 10

$$$$
=
 OpenBabel10222421303D

 34 38  0  0  1  0  0  0  0  0999 V2000
  184.3730  179.4370  142.3420 N   0  0  0  0  0  0  0  0  0  0  0  0
  184.3480  177.9740  142.2060 C   0  0  2  0  0  3  0  0  0  0  0  0
  185.5540  178.7340  141.8110 C   0  0  1  0  0  3  0  0  0  0  0  0
  185.7150  179.0210  140.3360 C   0  0  0  0  0  0  0  0  0  0  0  0
  184.8630  179.7390  139.7500 O   0  0  0  0  0  0  0  0  0  0  0  0
  190.1660  176.8940  139.8110 N   0  0  0  0  0  0  0  0  0  0  0  0
  190.8070  176.6140  138.6530 C   0  0  0  0  0  0  0  0  0  0  0  0
  189.0390  177.5020  139.4080 C   0  0  0  0  0  0  0  0  0  0  0  0
  187.9320  177.9950  140.2160 C   0  0  0  0  0  3  0  0  0  0  0  0
  190.1400  177.0240  137.5890 O   0  0  0  0  0  0  0  0  0  0  0  0
  186.8500  178.5990  138.1610 O   0  0  0  0  0  0  0  0  0  0  0  0
  189.0390  177.5730  138.0500 C   0  0  0  0  0  0  0  0  0  0  0  0
  187.9220  178.1960  137.2830 C   0  0  1  0  0  3  0  0  0  0  0  0
  191.9160  176.0200  138.5930 O   0  0  0  0  0  0  0  0  0  0  0  0
  186.8770  178.5230  139.5770 C   0  0  0  0  0  0  0  0  0  0  0  0
  187.4400  177.3010  136.3490 F   0  0  0  0  0  0  0  0  0  0  0  0
  190.5600  176.5380  141.1680 C   0  0  0  0  0  2  0  0  0  0  0  0
  191.0300  178.5030  142.9930 S   0  0  0  0  0  1  0  0  0  0  0  0
  191.6590  177.4660  141.6460 C   0  0  0  0  0  2  0  0  0  0  0  0
  183.3920  177.5930  141.0790 C   0  0  0  0  0  2  0  0  0  0  0  0
  182.1820  178.2640  141.2480 O   0  0  0  0  0  1  0  0  0  0  0  0
  184.6580  179.7260  143.7370 C   0  0  0  0  0  2  0  0  0  0  0  0
  183.5760  179.1270  144.6160 C   0  0  0  0  0  2  0  0  0  0  0  0
  184.0780  178.9560  145.9680 N   0  0  0  0  0  2  0  0  0  0  0  0
  185.5230  179.0780  145.8990 C   0  0  0  0  0  2  0  0  0  0  0  0
  186.1700  177.7740  146.3290 C   0  0  1  0  0  3  0  0  0  0  0  0
  190.7240  177.0890  146.1830 C   0  0  0  0  0  1  0  0  0  0  0  0
  189.2590  178.1550  148.6830 N   0  0  0  0  0  1  0  0  0  0  0  0
  187.0270  177.2880  145.2820 N   0  0  0  0  0  0  0  0  0  0  0  0
  187.1380  178.0470  147.5230 C   0  0  0  0  0  3  0  0  0  0  0  0
  188.5180  177.8560  147.5060 C   0  0  0  0  0  0  0  0  0  0  0  0
  189.2610  177.3360  146.2870 C   0  0  0  0  0  0  0  0  0  0  0  0
  187.7080  176.8000  144.1590 N   0  0  0  0  0  2  0  0  0  0  0  0
  188.4080  177.1190  145.3370 C   0  0  0  0  0  0  0  0  0  0  0  0
  1 22  1  0  0  0  0
  2 20  1  6  0  0  0
  2  1  1  0  0  0  0
  3  4  1  6  0  0  0
  3  2  1  0  0  0  0
  3  1  1  0  0  0  0
  5  4  2  0  0  0  0
  6 17  1  0  0  0  0
  7  6  1  0  0  0  0
  8  6  1  0  0  0  0
  8  9  1  0  0  0  0
 10 12  1  0  0  0  0
 10  7  1  0  0  0  0
 11 15  1  0  0  0  0
 12  8  2  0  0  0  0
 13 16  1  6  0  0  0
 13 12  1  0  0  0  0
 13 11  1  0  0  0  0
 14  7  2  0  0  0  0
 15  9  2  0  0  0  0
 15  4  1  0  0  0  0
 17 19  1  0  0  0  0
 19 18  1  0  0  0  0
 20 21  1  0  0  0  0
 22 23  1  0  0  0  0
 23 24  1  0  0  0  0
 25 24  1  0  0  0  0
 26 25  1  6  0  0  0
 26 30  1  0  0  0  0
 27 32  1  0  0  0  0
 29 34  1  0  0  0  0
 29 26  1  0  0  0  0
 31 30  2  0  0  0  0
 31 28  1  0  0  0  0
 32 31  1  0  0  0  0
 33 29  1  0  0  0  0
 33 34  1  0  0  0  0
 34 32  2  0  0  0  0
M  END
>  <MODEL>
2

>  <REMARK>
 VINA RESULT:      -8.5      4.132      8.828
  Name = 
  10 active torsions:
  status: ('A' for Active; 'I' for Inactive)
    1  A    between atoms: C_1  and  C_30
    2  A    between atoms: C_2  and  C_13
    3  A    between atoms: C_2  and  C_28
    4  A    between atoms: N_3  and  C_25
    5  A    between atoms: N_4  and  C_19
    6  A    between atoms: C_9  and  C_12
    7  A    between atoms: N_16  and  C_30
    8  A    between atoms: N_16  and  C_34
    9  A    between atoms: C_19  and  C_34
   10  A    between atoms: C_25  and  C_32
                            x       y       z     vdW  Elec       q    Type
                         _______ _______ _______ _____ _____    ______ ____

>  <TORSDO>
F 10

$$$$
=
 OpenBabel10222421303D

 34 38  0  0  1  0  0  0  0  0999 V2000
  189.3900  177.9970  142.7380 N   0  0  0  0  0  0  0  0  0  0  0  0
  190.6220  177.4040  143.2790 C   0  0  2  0  0  3  0  0  0  0  0  0
  189.3130  176.7720  143.5540 C   0  0  1  0  0  3  0  0  0  0  0  0
  188.6890  177.0750  144.8960 C   0  0  0  0  0  0  0  0  0  0  0  0
  189.3390  176.8350  145.9480 O   0  0  0  0  0  0  0  0  0  0  0  0
  184.2540  178.5200  143.2060 N   0  0  0  0  0  0  0  0  0  0  0  0
  183.2590  179.0990  143.9150 C   0  0  0  0  0  0  0  0  0  0  0  0
  185.2400  178.3780  144.1060 C   0  0  0  0  0  0  0  0  0  0  0  0
  186.5540  177.7720  143.9300 C   0  0  0  0  0  3  0  0  0  0  0  0
  183.5900  179.3180  145.1740 O   0  0  0  0  0  0  0  0  0  0  0  0
  186.9340  178.1910  146.2630 O   0  0  0  0  0  0  0  0  0  0  0  0
  184.8180  178.8690  145.3020 C   0  0  0  0  0  0  0  0  0  0  0  0
  185.6810  178.8620  146.5180 C   0  0  1  0  0  3  0  0  0  0  0  0
  182.1330  179.3910  143.4310 O   0  0  0  0  0  0  0  0  0  0  0  0
  187.3560  177.6950  145.0030 C   0  0  0  0  0  0  0  0  0  0  0  0
  185.0230  178.2280  147.5550 F   0  0  0  0  0  0  0  0  0  0  0  0
  184.2320  178.0740  141.8190 C   0  0  0  0  0  2  0  0  0  0  0  0
  184.1660  179.1610  139.3240 S   0  0  0  0  0  1  0  0  0  0  0  0
  184.9710  179.0680  140.9450 C   0  0  0  0  0  2  0  0  0  0  0  0
  191.1760  178.3120  144.3730 C   0  0  0  0  0  2  0  0  0  0  0  0
  191.1240  179.6380  143.9470 O   0  0  0  0  0  1  0  0  0  0  0  0
  189.2920  177.5760  141.3510 C   0  0  0  0  0  2  0  0  0  0  0  0
  190.6390  177.0650  140.8740 C   0  0  0  0  0  2  0  0  0  0  0  0
  190.8300  177.4080  139.4760 N   0  0  0  0  0  2  0  0  0  0  0  0
  190.8170  176.1620  138.7310 C   0  0  0  0  0  2  0  0  0  0  0  0
  190.2470  176.3960  137.3440 C   0  0  1  0  0  3  0  0  0  0  0  0
  185.7320  176.8640  136.5530 C   0  0  0  0  0  1  0  0  0  0  0  0
  187.6050  179.2570  137.1000 N   0  0  0  0  0  1  0  0  0  0  0  0
  189.2230  175.4260  137.0680 N   0  0  0  0  0  0  0  0  0  0  0  0
  189.4980  177.7650  137.3180 C   0  0  0  0  0  3  0  0  0  0  0  0
  188.1340  177.9370  137.0880 C   0  0  0  0  0  0  0  0  0  0  0  0
  187.1930  176.7750  136.8210 C   0  0  0  0  0  0  0  0  0  0  0  0
  188.3590  174.3530  136.8120 N   0  0  0  0  0  2  0  0  0  0  0  0
  187.8710  175.6720  136.8440 C   0  0  0  0  0  0  0  0  0  0  0  0
  1  2  1  0  0  0  0
  1  3  1  0  0  0  0
  2  3  1  0  0  0  0
  2 20  1  1  0  0  0
  3  4  1  1  0  0  0
  4 15  1  0  0  0  0
  4  5  2  0  0  0  0
  6  7  1  0  0  0  0
  6  8  1  0  0  0  0
  7 10  1  0  0  0  0
  8 12  2  0  0  0  0
  9  8  1  0  0  0  0
  9 15  2  0  0  0  0
 10 12  1  0  0  0  0
 11 13  1  0  0  0  0
 12 13  1  0  0  0  0
 13 16  1  1  0  0  0
 14  7  2  0  0  0  0
 15 11  1  0  0  0  0
 17  6  1  0  0  0  0
 18 19  1  0  0  0  0
 19 17  1  0  0  0  0
 21 20  1  0  0  0  0
 22  1  1  0  0  0  0
 23 22  1  0  0  0  0
 24 23  1  0  0  0  0
 25 24  1  0  0  0  0
 26 25  1  1  0  0  0
 27 32  1  0  0  0  0
 29 26  1  0  0  0  0
 30 26  1  0  0  0  0
 31 28  1  0  0  0  0
 31 30  2  0  0  0  0
 32 34  2  0  0  0  0
 32 31  1  0  0  0  0
 33 34  1  0  0  0  0
 33 29  1  0  0  0  0
 34 29  1  0  0  0  0
M  END
>  <MODEL>
3

>  <REMARK>
 VINA RESULT:      -8.4      1.927      3.112
  Name = 
  10 active torsions:
  status: ('A' for Active; 'I' for Inactive)
    1  A    between atoms: C_1  and  C_30
    2  A    between atoms: C_2  and  C_13
    3  A    between atoms: C_2  and  C_28
    4  A    between atoms: N_3  and  C_25
    5  A    between atoms: N_4  and  C_19
    6  A    between atoms: C_9  and  C_12
    7  A    between atoms: N_16  and  C_30
    8  A    between atoms: N_16  and  C_34
    9  A    between atoms: C_19  and  C_34
   10  A    between atoms: C_25  and  C_32
                            x       y       z     vdW  Elec       q    Type
                         _______ _______ _______ _____ _____    ______ ____

>  <TORSDO>
F 10

$$$$
=
 OpenBabel10222421303D

 34 38  0  0  1  0  0  0  0  0999 V2000
  184.8910  178.2110  143.3370 N   0  0  0  0  0  0  0  0  0  0  0  0
  183.9340  179.2880  143.6300 C   0  0  2  0  0  3  0  0  0  0  0  0
  185.2850  179.3120  144.2340 C   0  0  1  0  0  3  0  0  0  0  0  0
  185.3930  178.8150  145.6570 C   0  0  0  0  0  0  0  0  0  0  0  0
  184.3710  178.8220  146.3930 O   0  0  0  0  0  0  0  0  0  0  0  0
  190.1040  177.2850  145.3690 N   0  0  0  0  0  0  0  0  0  0  0  0
  190.8910  176.8680  146.3870 C   0  0  0  0  0  0  0  0  0  0  0  0
  188.9260  177.5340  145.9640 C   0  0  0  0  0  0  0  0  0  0  0  0
  187.6990  178.0520  145.3740 C   0  0  0  0  0  3  0  0  0  0  0  0
  190.2570  176.8430  147.5450 O   0  0  0  0  0  0  0  0  0  0  0  0
  186.7510  178.0030  147.5780 O   0  0  0  0  0  0  0  0  0  0  0  0
  189.0370  177.2600  147.2920 C   0  0  0  0  0  0  0  0  0  0  0  0
  187.8990  177.4310  148.2410 C   0  0  1  0  0  3  0  0  0  0  0  0
  192.1000  176.5440  146.2480 O   0  0  0  0  0  0  0  0  0  0  0  0
  186.6560  178.2720  146.1890 C   0  0  0  0  0  0  0  0  0  0  0  0
  188.2820  178.2490  149.2860 F   0  0  0  0  0  0  0  0  0  0  0  0
  190.4700  177.5010  143.9760 C   0  0  0  0  0  2  0  0  0  0  0  0
  190.2130  176.6820  141.3920 S   0  0  0  0  0  1  0  0  0  0  0  0
  190.1270  176.2730  143.1560 C   0  0  0  0  0  2  0  0  0  0  0  0
  182.8130  178.7370  144.5050 C   0  0  0  0  0  2  0  0  0  0  0  0
  181.6110  178.7740  143.8000 O   0  0  0  0  0  1  0  0  0  0  0  0
  185.4760  178.5060  142.0400 C   0  0  0  0  0  2  0  0  0  0  0  0
  184.4170  179.0840  141.1200 C   0  0  0  0  0  2  0  0  0  0  0  0
  184.9980  179.3730  139.8210 N   0  0  0  0  0  2  0  0  0  0  0  0
  184.8410  178.1770  139.0130 C   0  0  0  0  0  2  0  0  0  0  0  0
  185.8070  178.2160  137.8430 C   0  0  1  0  0  3  0  0  0  0  0  0
  189.4810  175.4500  137.5550 C   0  0  0  0  0  1  0  0  0  0  0  0
  186.7330  174.7350  136.3430 N   0  0  0  0  0  1  0  0  0  0  0  0
  187.1520  178.3660  138.3270 N   0  0  0  0  0  0  0  0  0  0  0  0
  185.8080  176.8290  137.1280 C   0  0  0  0  0  3  0  0  0  0  0  0
  186.9000  175.9690  137.0310 C   0  0  0  0  0  0  0  0  0  0  0  0
  188.2600  176.2980  137.6220 C   0  0  0  0  0  0  0  0  0  0  0  0
  188.4080  178.6760  138.8650 N   0  0  0  0  0  2  0  0  0  0  0  0
  188.2000  177.4600  138.1900 C   0  0  0  0  0  0  0  0  0  0  0  0
  1  2  1  0  0  0  0
  1  3  1  0  0  0  0
  2  3  1  0  0  0  0
  2 20  1  1  0  0  0
  3  4  1  1  0  0  0
  4 15  1  0  0  0  0
  4  5  2  0  0  0  0
  6  8  1  0  0  0  0
  6  7  1  0  0  0  0
  7 10  1  0  0  0  0
  8 12  2  0  0  0  0
  9  8  1  0  0  0  0
  9 15  2  0  0  0  0
 11 13  1  0  0  0  0
 12 10  1  0  0  0  0
 12 13  1  0  0  0  0
 13 16  1  1  0  0  0
 14  7  2  0  0  0  0
 15 11  1  0  0  0  0
 17  6  1  0  0  0  0
 18 19  1  0  0  0  0
 19 17  1  0  0  0  0
 21 20  1  0  0  0  0
 22  1  1  0  0  0  0
 23 22  1  0  0  0  0
 24 23  1  0  0  0  0
 25 24  1  0  0  0  0
 26 29  1  0  0  0  0
 26 25  1  1  0  0  0
 27 32  1  0  0  0  0
 28 31  1  0  0  0  0
 29 33  1  0  0  0  0
 30 26  1  0  0  0  0
 31 30  2  0  0  0  0
 31 32  1  0  0  0  0
 32 34  2  0  0  0  0
 34 29  1  0  0  0  0
 34 33  1  0  0  0  0
M  END
>  <MODEL>
4

>  <REMARK>
 VINA RESULT:      -8.3      2.432      5.254
  Name = 
  10 active torsions:
  status: ('A' for Active; 'I' for Inactive)
    1  A    between atoms: C_1  and  C_30
    2  A    between atoms: C_2  and  C_13
    3  A    between atoms: C_2  and  C_28
    4  A    between atoms: N_3  and  C_25
    5  A    between atoms: N_4  and  C_19
    6  A    between atoms: C_9  and  C_12
    7  A    between atoms: N_16  and  C_30
    8  A    between atoms: N_16  and  C_34
    9  A    between atoms: C_19  and  C_34
   10  A    between atoms: C_25  and  C_32
                            x       y       z     vdW  Elec       q    Type
                         _______ _______ _______ _____ _____    ______ ____

>  <TORSDO>
F 10

$$$$
=
 OpenBabel10222421303D

 34 38  0  0  1  0  0  0  0  0999 V2000
  185.0740  178.1020  143.4660 N   0  0  0  0  0  0  0  0  0  0  0  0
  184.1800  179.2330  143.7530 C   0  0  2  0  0  3  0  0  0  0  0  0
  185.5290  179.1830  144.3580 C   0  0  1  0  0  3  0  0  0  0  0  0
  185.6080  178.6880  145.7840 C   0  0  0  0  0  0  0  0  0  0  0  0
  184.5710  178.6940  146.4980 O   0  0  0  0  0  0  0  0  0  0  0  0
  190.1780  176.7720  145.5470 N   0  0  0  0  0  0  0  0  0  0  0  0
  190.9940  176.4740  146.5830 C   0  0  0  0  0  0  0  0  0  0  0  0
  189.0580  177.2090  146.1430 C   0  0  0  0  0  0  0  0  0  0  0  0
  187.8360  177.7130  145.5300 C   0  0  0  0  0  3  0  0  0  0  0  0
  190.4300  176.6950  147.7570 O   0  0  0  0  0  0  0  0  0  0  0  0
  187.0190  178.1100  147.7510 O   0  0  0  0  0  0  0  0  0  0  0  0
  189.2280  177.1550  147.4920 C   0  0  0  0  0  0  0  0  0  0  0  0
  188.1620  177.5720  148.4490 C   0  0  1  0  0  3  0  0  0  0  0  0
  192.1680  176.0390  146.4470 O   0  0  0  0  0  0  0  0  0  0  0  0
  186.8610  178.1470  146.3420 C   0  0  0  0  0  0  0  0  0  0  0  0
  188.6610  178.5230  149.3170 F   0  0  0  0  0  0  0  0  0  0  0  0
  190.4760  176.7210  144.1210 C   0  0  0  0  0  2  0  0  0  0  0  0
  191.0510  179.3770  143.9520 S   0  0  0  0  0  1  0  0  0  0  0  0
  191.6190  177.6620  143.7990 C   0  0  0  0  0  2  0  0  0  0  0  0
  183.0280  178.7510  144.6300 C   0  0  0  0  0  2  0  0  0  0  0  0
  181.8340  178.8280  143.9150 O   0  0  0  0  0  1  0  0  0  0  0  0
  185.6750  178.3570  142.1690 C   0  0  0  0  0  2  0  0  0  0  0  0
  187.1790  178.1760  142.2550 C   0  0  0  0  0  2  0  0  0  0  0  0
  187.7670  178.3040  140.9340 N   0  0  0  0  0  2  0  0  0  0  0  0
  188.9580  177.4740  140.9200 C   0  0  0  0  0  2  0  0  0  0  0  0
  189.8250  177.8350  139.7280 C   0  0  1  0  0  3  0  0  0  0  0  0
  188.8060  176.5390  135.4260 C   0  0  0  0  0  1  0  0  0  0  0  0
  187.8940  179.2280  136.6370 N   0  0  0  0  0  1  0  0  0  0  0  0
  190.1540  176.6470  138.9880 N   0  0  0  0  0  0  0  0  0  0  0  0
  188.9930  178.6950  138.7260 C   0  0  0  0  0  3  0  0  0  0  0  0
  188.6640  178.3260  137.4230 C   0  0  0  0  0  0  0  0  0  0  0  0
  189.0980  177.0080  136.8070 C   0  0  0  0  0  0  0  0  0  0  0  0
  190.5640  175.4340  138.4200 N   0  0  0  0  0  2  0  0  0  0  0  0
  189.7910  176.3460  137.6780 C   0  0  0  0  0  0  0  0  0  0  0  0
  1  2  1  0  0  0  0
  1  3  1  0  0  0  0
  2  3  1  0  0  0  0
  2 20  1  1  0  0  0
  3  4  1  1  0  0  0
  4 15  1  0  0  0  0
  4  5  2  0  0  0  0
  6  8  1  0  0  0  0
  6  7  1  0  0  0  0
  7 10  1  0  0  0  0
  8 12  2  0  0  0  0
  9  8  1  0  0  0  0
  9 15  2  0  0  0  0
 11 13  1  0  0  0  0
 12 10  1  0  0  0  0
 12 13  1  0  0  0  0
 13 16  1  1  0  0  0
 14  7  2  0  0  0  0
 15 11  1  0  0  0  0
 17  6  1  0  0  0  0
 19 18  1  0  0  0  0
 19 17  1  0  0  0  0
 21 20  1  0  0  0  0
 22 23  1  0  0  0  0
 22  1  1  0  0  0  0
 24 23  1  0  0  0  0
 25 24  1  0  0  0  0
 26 25  1  1  0  0  0
 27 32  1  0  0  0  0
 28 31  1  0  0  0  0
 29 26  1  0  0  0  0
 30 26  1  0  0  0  0
 31 30  2  0  0  0  0
 32 31  1  0  0  0  0
 32 34  2  0  0  0  0
 33 29  1  0  0  0  0
 34 33  1  0  0  0  0
 34 29  1  0  0  0  0
M  END
>  <MODEL>
5

>  <REMARK>
 VINA RESULT:      -8.2      2.224      4.982
  Name = 
  10 active torsions:
  status: ('A' for Active; 'I' for Inactive)
    1  A    between atoms: C_1  and  C_30
    2  A    between atoms: C_2  and  C_13
    3  A    between atoms: C_2  and  C_28
    4  A    between atoms: N_3  and  C_25
    5  A    between atoms: N_4  and  C_19
    6  A    between atoms: C_9  and  C_12
    7  A    between atoms: N_16  and  C_30
    8  A    between atoms: N_16  and  C_34
    9  A    between atoms: C_19  and  C_34
   10  A    between atoms: C_25  and  C_32
                            x       y       z     vdW  Elec       q    Type
                         _______ _______ _______ _____ _____    ______ ____

>  <TORSDO>
F 10

$$$$
=
 OpenBabel10222421303D

 34 38  0  0  1  0  0  0  0  0999 V2000
  188.9960  177.1870  139.7320 N   0  0  0  0  0  0  0  0  0  0  0  0
  190.2080  176.9680  138.9300 C   0  0  2  0  0  3  0  0  0  0  0  0
  189.4300  178.2170  138.7710 C   0  0  1  0  0  3  0  0  0  0  0  0
  188.4800  178.2720  137.5980 C   0  0  0  0  0  0  0  0  0  0  0  0
  188.9310  178.5240  136.4490 O   0  0  0  0  0  0  0  0  0  0  0  0
  184.2790  175.7600  136.7840 N   0  0  0  0  0  0  0  0  0  0  0  0
  183.0730  175.9800  137.3540 C   0  0  0  0  0  0  0  0  0  0  0  0
  185.0520  176.7300  137.2990 C   0  0  0  0  0  0  0  0  0  0  0  0
  186.4710  176.9750  137.0820 C   0  0  0  0  0  3  0  0  0  0  0  0
  183.0740  177.0210  138.1660 O   0  0  0  0  0  0  0  0  0  0  0  0
  186.2820  178.7850  138.6470 O   0  0  0  0  0  0  0  0  0  0  0  0
  184.3010  177.4910  138.1400 C   0  0  0  0  0  0  0  0  0  0  0  0
  184.8620  178.6590  138.8780 C   0  0  1  0  0  3  0  0  0  0  0  0
  182.0570  175.2650  137.1410 O   0  0  0  0  0  0  0  0  0  0  0  0
  187.0420  177.9850  137.7570 C   0  0  0  0  0  0  0  0  0  0  0  0
  184.6270  178.5150  140.2310 F   0  0  0  0  0  0  0  0  0  0  0  0
  184.6720  174.6750  135.8950 C   0  0  0  0  0  2  0  0  0  0  0  0
  184.1080  172.2270  136.9430 S   0  0  0  0  0  1  0  0  0  0  0  0
  185.3120  173.5580  136.6960 C   0  0  0  0  0  2  0  0  0  0  0  0
  189.9390  175.8700  137.9060 C   0  0  0  0  0  2  0  0  0  0  0  0
  190.8420  174.8260  138.0950 O   0  0  0  0  0  1  0  0  0  0  0  0
  189.4320  177.6360  141.0430 C   0  0  0  0  0  2  0  0  0  0  0  0
  190.3710  176.6100  141.6500 C   0  0  0  0  0  2  0  0  0  0  0  0
  191.3380  177.2730  142.5070 N   0  0  0  0  0  2  0  0  0  0  0  0
  190.5850  177.9460  143.5500 C   0  0  0  0  0  2  0  0  0  0  0  0
  189.9690  176.9200  144.4840 C   0  0  1  0  0  3  0  0  0  0  0  0
  188.4820  177.9790  148.7140 C   0  0  0  0  0  1  0  0  0  0  0  0
  186.6600  178.0380  146.2220 N   0  0  0  0  0  1  0  0  0  0  0  0
  190.6460  176.9470  145.7520 N   0  0  0  0  0  0  0  0  0  0  0  0
  188.5050  177.3410  144.8200 C   0  0  0  0  0  3  0  0  0  0  0  0
  188.0280  177.6730  146.0870 C   0  0  0  0  0  0  0  0  0  0  0  0
  188.9060  177.6540  147.3250 C   0  0  0  0  0  0  0  0  0  0  0  0
  191.4560  176.9210  146.8950 N   0  0  0  0  0  2  0  0  0  0  0  0
  190.1010  177.2890  146.9870 C   0  0  0  0  0  0  0  0  0  0  0  0
  1 22  1  0  0  0  0
  2 20  1  6  0  0  0
  2  1  1  0  0  0  0
  3  4  1  6  0  0  0
  3  2  1  0  0  0  0
  3  1  1  0  0  0  0
  4 15  1  0  0  0  0
  5  4  2  0  0  0  0
  6  8  1  0  0  0  0
  6  7  1  0  0  0  0
  7 10  1  0  0  0  0
  8 12  2  0  0  0  0
  9  8  1  0  0  0  0
  9 15  2  0  0  0  0
 11 13  1  0  0  0  0
 12 10  1  0  0  0  0
 12 13  1  0  0  0  0
 13 16  1  1  0  0  0
 14  7  2  0  0  0  0
 15 11  1  0  0  0  0
 17 19  1  0  0  0  0
 17  6  1  0  0  0  0
 19 18  1  0  0  0  0
 20 21  1  0  0  0  0
 22 23  1  0  0  0  0
 23 24  1  0  0  0  0
 24 25  1  0  0  0  0
 26 25  1  6  0  0  0
 26 30  1  0  0  0  0
 26 29  1  0  0  0  0
 29 33  1  0  0  0  0
 29 34  1  0  0  0  0
 30 31  2  0  0  0  0
 31 28  1  0  0  0  0
 31 32  1  0  0  0  0
 32 27  1  0  0  0  0
 33 34  1  0  0  0  0
 34 32  2  0  0  0  0
M  END
>  <MODEL>
6

>  <REMARK>
 VINA RESULT:      -8.0      4.744      8.340
  Name = 
  10 active torsions:
  status: ('A' for Active; 'I' for Inactive)
    1  A    between atoms: C_1  and  C_30
    2  A    between atoms: C_2  and  C_13
    3  A    between atoms: C_2  and  C_28
    4  A    between atoms: N_3  and  C_25
    5  A    between atoms: N_4  and  C_19
    6  A    between atoms: C_9  and  C_12
    7  A    between atoms: N_16  and  C_30
    8  A    between atoms: N_16  and  C_34
    9  A    between atoms: C_19  and  C_34
   10  A    between atoms: C_25  and  C_32
                            x       y       z     vdW  Elec       q    Type
                         _______ _______ _______ _____ _____    ______ ____

>  <TORSDO>
F 10

$$$$
=
 OpenBabel10222421303D

 34 38  0  0  1  0  0  0  0  0999 V2000
  189.0060  177.1680  139.6710 N   0  0  0  0  0  0  0  0  0  0  0  0
  190.3300  177.3380  139.0570 C   0  0  2  0  0  3  0  0  0  0  0  0
  189.3130  178.4040  138.9280 C   0  0  1  0  0  3  0  0  0  0  0  0
  188.5390  178.4410  137.6310 C   0  0  0  0  0  0  0  0  0  0  0  0
  189.0840  178.9150  136.6000 O   0  0  0  0  0  0  0  0  0  0  0  0
  183.7480  178.0350  138.8550 N   0  0  0  0  0  0  0  0  0  0  0  0
  182.8200  177.2430  138.2700 C   0  0  0  0  0  0  0  0  0  0  0  0
  184.8770  177.7370  138.1920 C   0  0  0  0  0  0  0  0  0  0  0  0
  186.2070  178.3100  138.3550 C   0  0  0  0  0  3  0  0  0  0  0  0
  183.3230  176.4890  137.3110 O   0  0  0  0  0  0  0  0  0  0  0  0
  186.9100  176.9080  136.5380 O   0  0  0  0  0  0  0  0  0  0  0  0
  184.6000  176.7920  137.2530 C   0  0  0  0  0  0  0  0  0  0  0  0
  185.6450  176.2400  136.3430 C   0  0  1  0  0  3  0  0  0  0  0  0
  181.6040  177.2320  138.5990 O   0  0  0  0  0  0  0  0  0  0  0  0
  187.1760  177.8860  137.5310 C   0  0  0  0  0  0  0  0  0  0  0  0
  185.2450  176.3870  135.0300 F   0  0  0  0  0  0  0  0  0  0  0  0
  183.5530  179.0380  139.8930 C   0  0  0  0  0  2  0  0  0  0  0  0
  185.2850  179.0610  141.9930 S   0  0  0  0  0  1  0  0  0  0  0  0
  183.7600  178.4140  141.2590 C   0  0  0  0  0  2  0  0  0  0  0  0
  190.4610  176.3820  137.8750 C   0  0  0  0  0  2  0  0  0  0  0  0
  190.7120  175.0940  138.3440 O   0  0  0  0  0  1  0  0  0  0  0  0
  189.1490  177.4880  141.0810 C   0  0  0  0  0  2  0  0  0  0  0  0
  190.2540  176.6430  141.6880 C   0  0  0  0  0  2  0  0  0  0  0  0
  190.8340  177.3340  142.8260 N   0  0  0  0  0  2  0  0  0  0  0  0
  189.7350  177.9410  143.5560 C   0  0  0  0  0  2  0  0  0  0  0  0
  189.1610  176.9440  144.5460 C   0  0  1  0  0  3  0  0  0  0  0  0
  188.1780  178.0510  148.9090 C   0  0  0  0  0  1  0  0  0  0  0  0
  186.1160  178.2300  146.6180 N   0  0  0  0  0  1  0  0  0  0  0  0
  189.9650  176.9240  145.7380 N   0  0  0  0  0  0  0  0  0  0  0  0
  187.7650  177.4430  145.0310 C   0  0  0  0  0  3  0  0  0  0  0  0
  187.4400  177.7910  146.3410 C   0  0  0  0  0  0  0  0  0  0  0  0
  188.4390  177.7140  147.4830 C   0  0  0  0  0  0  0  0  0  0  0  0
  190.8850  176.8430  146.7910 N   0  0  0  0  0  2  0  0  0  0  0  0
  189.5700  177.2850  147.0230 C   0  0  0  0  0  0  0  0  0  0  0  0
  1 22  1  0  0  0  0
  2 20  1  6  0  0  0
  2  1  1  0  0  0  0
  3  4  1  6  0  0  0
  3  2  1  0  0  0  0
  3  1  1  0  0  0  0
  5  4  2  0  0  0  0
  6 17  1  0  0  0  0
  7 14  2  0  0  0  0
  7  6  1  0  0  0  0
  8  9  1  0  0  0  0
  8  6  1  0  0  0  0
 10  7  1  0  0  0  0
 11 15  1  0  0  0  0
 12 10  1  0  0  0  0
 12  8  2  0  0  0  0
 13 16  1  6  0  0  0
 13 11  1  0  0  0  0
 13 12  1  0  0  0  0
 15  4  1  0  0  0  0
 15  9  2  0  0  0  0
 17 19  1  0  0  0  0
 19 18  1  0  0  0  0
 20 21  1  0  0  0  0
 22 23  1  0  0  0  0
 23 24  1  0  0  0  0
 24 25  1  0  0  0  0
 26 25  1  6  0  0  0
 26 30  1  0  0  0  0
 26 29  1  0  0  0  0
 29 33  1  0  0  0  0
 29 34  1  0  0  0  0
 30 31  2  0  0  0  0
 31 28  1  0  0  0  0
 31 32  1  0  0  0  0
 32 27  1  0  0  0  0
 33 34  1  0  0  0  0
 34 32  2  0  0  0  0
M  END
>  <MODEL>
7

>  <REMARK>
 VINA RESULT:      -8.0      4.731      8.307
  Name = 
  10 active torsions:
  status: ('A' for Active; 'I' for Inactive)
    1  A    between atoms: C_1  and  C_30
    2  A    between atoms: C_2  and  C_13
    3  A    between atoms: C_2  and  C_28
    4  A    between atoms: N_3  and  C_25
    5  A    between atoms: N_4  and  C_19
    6  A    between atoms: C_9  and  C_12
    7  A    between atoms: N_16  and  C_30
    8  A    between atoms: N_16  and  C_34
    9  A    between atoms: C_19  and  C_34
   10  A    between atoms: C_25  and  C_32
                            x       y       z     vdW  Elec       q    Type
                         _______ _______ _______ _____ _____    ______ ____

>  <TORSDO>
F 10

$$$$
=
 OpenBabel10222421303D

 34 38  0  0  1  0  0  0  0  0999 V2000
  189.8290  177.9390  139.9480 N   0  0  0  0  0  0  0  0  0  0  0  0
  188.6170  177.5480  140.6820 C   0  0  2  0  0  3  0  0  0  0  0  0
  188.7360  177.2520  139.2370 C   0  0  1  0  0  3  0  0  0  0  0  0
  188.0420  178.2080  138.2960 C   0  0  0  0  0  0  0  0  0  0  0  0
  188.6440  179.2470  137.9160 O   0  0  0  0  0  0  0  0  0  0  0  0
  183.0830  178.3560  138.3240 N   0  0  0  0  0  0  0  0  0  0  0  0
  182.2460  177.8830  137.3720 C   0  0  0  0  0  0  0  0  0  0  0  0
  184.3000  178.0270  137.8640 C   0  0  0  0  0  0  0  0  0  0  0  0
  185.6030  178.3160  138.4480 C   0  0  0  0  0  3  0  0  0  0  0  0
  182.8840  177.2860  136.3820 O   0  0  0  0  0  0  0  0  0  0  0  0
  186.5740  177.2550  136.5260 O   0  0  0  0  0  0  0  0  0  0  0  0
  184.1610  177.3750  136.6780 C   0  0  0  0  0  0  0  0  0  0  0  0
  185.3300  176.8700  135.9020 C   0  0  1  0  0  3  0  0  0  0  0  0
  180.9930  178.0040  137.4200 O   0  0  0  0  0  0  0  0  0  0  0  0
  186.6930  177.9280  137.7690 C   0  0  0  0  0  0  0  0  0  0  0  0
  185.2870  177.3700  134.6150 F   0  0  0  0  0  0  0  0  0  0  0  0
  182.7500  179.1220  139.5180 C   0  0  0  0  0  2  0  0  0  0  0  0
  181.0140  178.8390  141.5960 S   0  0  0  0  0  1  0  0  0  0  0  0
  182.4190  178.1800  140.6580 C   0  0  0  0  0  2  0  0  0  0  0  0
  187.8300  178.8020  141.0510 C   0  0  0  0  0  2  0  0  0  0  0  0
  186.7490  178.4520  141.8580 O   0  0  0  0  0  1  0  0  0  0  0  0
  190.8360  176.9300  140.2290 C   0  0  0  0  0  2  0  0  0  0  0  0
  190.8060  176.5720  141.7040 C   0  0  0  0  0  2  0  0  0  0  0  0
  191.8230  177.3270  142.4150 N   0  0  0  0  0  2  0  0  0  0  0  0
  191.1670  177.9490  143.5520 C   0  0  0  0  0  2  0  0  0  0  0  0
  190.4190  176.8990  144.3530 C   0  0  1  0  0  3  0  0  0  0  0  0
  188.3380  177.8350  148.3550 C   0  0  0  0  0  1  0  0  0  0  0  0
  186.8960  177.9860  145.6290 N   0  0  0  0  0  1  0  0  0  0  0  0
  190.9050  176.8810  145.7060 N   0  0  0  0  0  0  0  0  0  0  0  0
  188.9230  177.3200  144.4870 C   0  0  0  0  0  3  0  0  0  0  0  0
  188.2690  177.6150  145.6810 C   0  0  0  0  0  0  0  0  0  0  0  0
  188.9580  177.5510  147.0330 C   0  0  0  0  0  0  0  0  0  0  0  0
  191.5410  176.8130  146.9520 N   0  0  0  0  0  2  0  0  0  0  0  0
  190.1890  177.1880  146.8590 C   0  0  0  0  0  0  0  0  0  0  0  0
  1 22  1  0  0  0  0
  1  2  1  0  0  0  0
  2 20  1  6  0  0  0
  3  4  1  6  0  0  0
  3  1  1  0  0  0  0
  3  2  1  0  0  0  0
  5  4  2  0  0  0  0
  6 17  1  0  0  0  0
  7 14  2  0  0  0  0
  7  6  1  0  0  0  0
  8  6  1  0  0  0  0
  8  9  1  0  0  0  0
 10 12  1  0  0  0  0
 10  7  1  0  0  0  0
 11 15  1  0  0  0  0
 12  8  2  0  0  0  0
 13 16  1  6  0  0  0
 13 11  1  0  0  0  0
 13 12  1  0  0  0  0
 15  4  1  0  0  0  0
 15  9  2  0  0  0  0
 17 19  1  0  0  0  0
 19 18  1  0  0  0  0
 20 21  1  0  0  0  0
 22 23  1  0  0  0  0
 23 24  1  0  0  0  0
 24 25  1  0  0  0  0
 26 25  1  6  0  0  0
 26 30  1  0  0  0  0
 26 29  1  0  0  0  0
 28 31  1  0  0  0  0
 29 34  1  0  0  0  0
 29 33  1  0  0  0  0
 30 31  2  0  0  0  0
 31 32  1  0  0  0  0
 32 27  1  0  0  0  0
 34 33  1  0  0  0  0
 34 32  2  0  0  0  0
M  END
>  <MODEL>
8

>  <REMARK>
 VINA RESULT:      -7.9      4.958      8.219
  Name = 
  10 active torsions:
  status: ('A' for Active; 'I' for Inactive)
    1  A    between atoms: C_1  and  C_30
    2  A    between atoms: C_2  and  C_13
    3  A    between atoms: C_2  and  C_28
    4  A    between atoms: N_3  and  C_25
    5  A    between atoms: N_4  and  C_19
    6  A    between atoms: C_9  and  C_12
    7  A    between atoms: N_16  and  C_30
    8  A    between atoms: N_16  and  C_34
    9  A    between atoms: C_19  and  C_34
   10  A    between atoms: C_25  and  C_32
                            x       y       z     vdW  Elec       q    Type
                         _______ _______ _______ _____ _____    ______ ____

>  <TORSDO>
F 10

$$$$
=
 OpenBabel10222421303D

 34 38  0  0  1  0  0  0  0  0999 V2000
  183.7010  179.0030  141.7440 N   0  0  0  0  0  0  0  0  0  0  0  0
  182.9000  177.9790  141.0570 C   0  0  2  0  0  3  0  0  0  0  0  0
  184.3450  178.1060  140.7670 C   0  0  1  0  0  3  0  0  0  0  0  0
  184.7150  178.8730  139.5180 C   0  0  0  0  0  0  0  0  0  0  0  0
  184.5820  180.1250  139.4990 O   0  0  0  0  0  0  0  0  0  0  0  0
  188.3720  177.1650  136.6330 N   0  0  0  0  0  0  0  0  0  0  0  0
  188.2470  176.4490  135.4920 C   0  0  0  0  0  0  0  0  0  0  0  0
  187.1030  177.4150  136.9890 C   0  0  0  0  0  0  0  0  0  0  0  0
  186.6080  178.1160  138.1660 C   0  0  0  0  0  3  0  0  0  0  0  0
  186.9870  176.2650  135.1420 O   0  0  0  0  0  0  0  0  0  0  0  0
  184.3910  177.6130  137.3960 O   0  0  0  0  0  0  0  0  0  0  0  0
  186.2700  176.8580  136.0690 C   0  0  0  0  0  0  0  0  0  0  0  0
  184.7850  176.9560  136.1720 C   0  0  1  0  0  3  0  0  0  0  0  0
  189.2240  175.9990  134.8370 O   0  0  0  0  0  0  0  0  0  0  0  0
  185.2790  178.1940  138.3370 C   0  0  0  0  0  0  0  0  0  0  0  0
  184.2300  175.6920  136.1290 F   0  0  0  0  0  0  0  0  0  0  0  0
  189.5920  177.5060  137.3540 C   0  0  0  0  0  2  0  0  0  0  0  0
  189.9400  177.1210  140.0270 S   0  0  0  0  0  1  0  0  0  0  0  0
  189.9200  176.4170  138.3570 C   0  0  0  0  0  2  0  0  0  0  0  0
  181.9520  178.6610  140.0750 C   0  0  0  0  0  2  0  0  0  0  0  0
  180.9320  179.2970  140.7800 O   0  0  0  0  0  1  0  0  0  0  0  0
  184.0210  178.4760  143.0600 C   0  0  0  0  0  2  0  0  0  0  0  0
  183.7710  179.5410  144.1120 C   0  0  0  0  0  2  0  0  0  0  0  0
  184.0100  178.9910  145.4350 N   0  0  0  0  0  2  0  0  0  0  0  0
  185.4220  179.1780  145.7190 C   0  0  0  0  0  2  0  0  0  0  0  0
  186.0520  177.8490  146.0970 C   0  0  1  0  0  3  0  0  0  0  0  0
  190.5820  177.0650  145.7920 C   0  0  0  0  0  1  0  0  0  0  0  0
  189.2180  178.1000  148.3620 N   0  0  0  0  0  1  0  0  0  0  0  0
  186.8640  177.3700  145.0110 N   0  0  0  0  0  0  0  0  0  0  0  0
  187.0610  178.0700  147.2660 C   0  0  0  0  0  3  0  0  0  0  0  0
  188.4360  177.8480  147.2010 C   0  0  0  0  0  0  0  0  0  0  0  0
  189.1280  177.3430  145.9480 C   0  0  0  0  0  0  0  0  0  0  0  0
  187.4990  176.8960  143.8570 N   0  0  0  0  0  2  0  0  0  0  0  0
  188.2420  177.1690  145.0200 C   0  0  0  0  0  0  0  0  0  0  0  0
  1 22  1  0  0  0  0
  2 20  1  6  0  0  0
  2  1  1  0  0  0  0
  3  4  1  6  0  0  0
  3  2  1  0  0  0  0
  3  1  1  0  0  0  0
  5  4  2  0  0  0  0
  6  8  1  0  0  0  0
  6 17  1  0  0  0  0
  7  6  1  0  0  0  0
  8  9  1  0  0  0  0
  9 15  2  0  0  0  0
 10  7  1  0  0  0  0
 10 12  1  0  0  0  0
 11 15  1  0  0  0  0
 12 13  1  0  0  0  0
 12  8  2  0  0  0  0
 13 16  1  1  0  0  0
 13 11  1  0  0  0  0
 14  7  2  0  0  0  0
 15  4  1  0  0  0  0
 17 19  1  0  0  0  0
 19 18  1  0  0  0  0
 20 21  1  0  0  0  0
 22 23  1  0  0  0  0
 23 24  1  0  0  0  0
 24 25  1  0  0  0  0
 26 25  1  6  0  0  0
 26 30  1  0  0  0  0
 27 32  1  0  0  0  0
 29 34  1  0  0  0  0
 29 26  1  0  0  0  0
 31 30  2  0  0  0  0
 31 28  1  0  0  0  0
 32 31  1  0  0  0  0
 33 29  1  0  0  0  0
 33 34  1  0  0  0  0
 34 32  2  0  0  0  0
M  END
>  <MODEL>
9

>  <REMARK>
 VINA RESULT:      -7.9      4.812      9.531
  Name = 
  10 active torsions:
  status: ('A' for Active; 'I' for Inactive)
    1  A    between atoms: C_1  and  C_30
    2  A    between atoms: C_2  and  C_13
    3  A    between atoms: C_2  and  C_28
    4  A    between atoms: N_3  and  C_25
    5  A    between atoms: N_4  and  C_19
    6  A    between atoms: C_9  and  C_12
    7  A    between atoms: N_16  and  C_30
    8  A    between atoms: N_16  and  C_34
    9  A    between atoms: C_19  and  C_34
   10  A    between atoms: C_25  and  C_32
                            x       y       z     vdW  Elec       q    Type
                         _______ _______ _______ _____ _____    ______ ____

>  <TORSDO>
F 10

$$$$
