=
 OpenBabel10232411103D

 36 39  0  0  1  0  0  0  0  0999 V2000
  188.6060  177.5470  141.2790 C   0  0  2  0  0  3  0  0  0  0  0  0
  188.9680  179.0030  141.4990 C   0  0  0  0  0  1  0  0  0  0  0  0
  188.1470  176.9750  142.4980 O   0  0  0  0  0  0  0  0  0  0  0  0
  185.9860  178.1750  145.2620 C   0  0  0  0  0  3  0  0  0  0  0  0
  187.0550  177.4860  143.2070 C   0  0  0  0  0  0  0  0  0  0  0  0
  185.9010  177.7810  142.5420 N   0  0  0  0  0  0  0  0  0  0  0  0
  184.7990  178.2590  143.1760 C   0  0  0  0  0  3  0  0  0  0  0  0
  187.1290  177.6850  144.6090 C   0  0  0  0  0  0  0  0  0  0  0  0
  183.4110  179.0780  145.3820 Cl  0  0  0  0  0  0  0  0  0  0  0  0
  184.8230  178.4610  144.5520 C   0  0  0  0  0  0  0  0  0  0  0  0
  189.4550  176.9960  147.5550 C   0  0  0  0  0  3  0  0  0  0  0  0
  190.7490  176.9530  145.5160 C   0  0  0  0  0  3  0  0  0  0  0  0
  189.5940  177.2300  144.7800 C   0  0  0  0  0  3  0  0  0  0  0  0
  190.6880  176.8360  146.9100 C   0  0  0  0  0  0  0  0  0  0  0  0
  188.3020  177.2710  146.8170 C   0  0  0  0  0  3  0  0  0  0  0  0
  188.3520  177.3970  145.4180 C   0  0  0  0  0  0  0  0  0  0  0  0
  191.8770  176.5620  147.6630 N   0  0  0  0  0  0  0  0  0  0  0  0
  192.2350  177.3250  148.5840 O   0  0  0  0  0  0  0  0  0  0  0  0
  192.6460  175.4600  147.3660 O   0  0  0  0  0  0  0  0  0  0  0  0
  189.8330  176.7980  140.7970 C   0  0  0  0  0  2  0  0  0  0  0  0
  190.1010  177.0730  139.3180 C   0  0  1  0  0  3  0  0  0  0  0  0
  191.4500  176.5380  138.8310 C   0  0  0  0  0  2  0  0  0  0  0  0
  191.3150  175.3300  137.9150 C   0  0  0  0  0  1  0  0  0  0  0  0
  188.9330  176.6870  138.4030 C   0  0  0  0  0  2  0  0  0  0  0  0
  188.3300  177.8660  137.6440 C   0  0  1  0  0  3  0  0  0  0  0  0
  186.8670  177.9650  137.9320 C   0  0  0  0  0  0  0  0  0  0  0  0
  186.3640  178.6700  138.9410 O   0  0  0  0  0  0  0  0  0  0  0  0
  182.9290  178.3150  138.8890 N   0  0  0  0  0  0  0  0  0  0  0  0
  183.3750  177.5800  137.8300 C   0  0  0  0  0  3  0  0  0  0  0  0
  185.8680  177.3230  137.1660 C   0  0  0  0  0  3  0  0  0  0  0  0
  185.0780  178.4980  138.8560 C   0  0  0  0  0  0  0  0  0  0  0  0
  183.9680  178.8980  139.5500 C   0  0  0  0  0  3  0  0  0  0  0  0
  181.5380  178.4370  139.2790 C   0  0  0  0  0  1  0  0  0  0  0  0
  184.7390  177.7240  137.8420 C   0  0  0  0  0  0  0  0  0  0  0  0
  188.6410  180.0550  137.1710 O   0  0  0  0  0  1  0  0  0  0  0  0
  188.9970  179.0910  138.0550 N   0  0  0  0  0  2  0  0  0  0  0  0
  1  2  1  1  0  0  0
  1  3  1  0  0  0  0
  3  5  1  0  0  0  0
  5  8  1  0  0  0  0
  6  7  1  0  0  0  0
  6  5  2  0  0  0  0
  7 10  2  0  0  0  0
  8  4  2  0  0  0  0
  8 16  1  0  0  0  0
 10  4  1  0  0  0  0
 10  9  1  0  0  0  0
 12 14  2  0  0  0  0
 13 16  2  0  0  0  0
 13 12  1  0  0  0  0
 14 11  1  0  0  0  0
 14 17  1  0  0  0  0
 15 11  2  0  0  0  0
 16 15  1  0  0  0  0
 17 18  2  0  0  0  0
 19 17  2  0  0  0  0
 20  1  1  0  0  0  0
 21 24  1  6  0  0  0
 21 20  1  0  0  0  0
 22 21  1  0  0  0  0
 23 22  1  0  0  0  0
 25 26  1  0  0  0  0
 25 36  1  0  0  0  0
 25 24  1  1  0  0  0
 26 27  1  0  0  0  0
 28 33  1  0  0  0  0
 28 32  1  0  0  0  0
 29 34  2  0  0  0  0
 29 28  1  0  0  0  0
 30 34  1  0  0  0  0
 30 26  2  0  0  0  0
 31 27  1  0  0  0  0
 31 32  2  0  0  0  0
 34 31  1  0  0  0  0
 35 36  1  0  0  0  0
M  END
>  <MODEL>
1

>  <REMARK>
 VINA RESULT:      -8.7      0.000      0.000
  Name = 
  11 active torsions:
  status: ('A' for Active; 'I' for Inactive)
    1  A    between atoms: N_1  and  C_20
    2  A    between atoms: C_2  and  C_10
    3  A    between atoms: C_10  and  C_14
    4  A    between atoms: C_10  and  N_18
    5  A    between atoms: C_11  and  O_28
    6  A    between atoms: C_12  and  C_27
    7  A    between atoms: C_14  and  C_27
    8  A    between atoms: C_22  and  O_28
    9  A    between atoms: C_22  and  C_35
   10  A    between atoms: C_26  and  C_36
   11  A    between atoms: C_27  and  C_35
                            x       y       z     vdW  Elec       q    Type
                         _______ _______ _______ _____ _____    ______ ____

>  <TORSDO>
F 11

$$$$
=
 OpenBabel10232411103D

 36 39  0  0  1  0  0  0  0  0999 V2000
  186.0900  178.5250  141.0310 C   0  0  2  0  0  3  0  0  0  0  0  0
  185.3340  178.8310  139.7540 C   0  0  0  0  0  1  0  0  0  0  0  0
  185.5700  179.3110  142.0990 O   0  0  0  0  0  0  0  0  0  0  0  0
  182.7740  178.4780  144.3870 C   0  0  0  0  0  3  0  0  0  0  0  0
  184.2840  179.1250  142.6140 C   0  0  0  0  0  0  0  0  0  0  0  0
  183.2010  179.3690  141.8200 N   0  0  0  0  0  0  0  0  0  0  0  0
  181.9270  179.1860  142.2540 C   0  0  0  0  0  3  0  0  0  0  0  0
  184.0930  178.6700  143.9440 C   0  0  0  0  0  0  0  0  0  0  0  0
  180.0550  178.4950  144.1210 Cl  0  0  0  0  0  0  0  0  0  0  0  0
  181.6920  178.7330  143.5480 C   0  0  0  0  0  0  0  0  0  0  0  0
  187.3960  177.4080  145.3770 C   0  0  0  0  0  3  0  0  0  0  0  0
  186.2080  178.6090  147.1040 C   0  0  0  0  0  3  0  0  0  0  0  0
  185.1640  178.8570  146.2090 C   0  0  0  0  0  3  0  0  0  0  0  0
  187.3300  177.8800  146.6960 C   0  0  0  0  0  0  0  0  0  0  0  0
  186.3530  177.6600  144.4850 C   0  0  0  0  0  3  0  0  0  0  0  0
  185.2170  178.3850  144.8850 C   0  0  0  0  0  0  0  0  0  0  0  0
  188.3950  177.6170  147.6190 N   0  0  0  0  0  0  0  0  0  0  0  0
  188.8340  176.4580  147.7690 O   0  0  0  0  0  0  0  0  0  0  0  0
  188.9330  178.6410  148.3650 O   0  0  0  0  0  0  0  0  0  0  0  0
  187.5570  178.8520  140.8300 C   0  0  0  0  0  2  0  0  0  0  0  0
  188.1770  177.9620  139.7520 C   0  0  1  0  0  3  0  0  0  0  0  0
  188.7250  178.7420  138.5550 C   0  0  0  0  0  2  0  0  0  0  0  0
  188.1270  178.2920  137.2300 C   0  0  0  0  0  1  0  0  0  0  0  0
  189.1660  176.9310  140.3070 C   0  0  0  0  0  2  0  0  0  0  0  0
  190.5370  177.5110  140.6420 C   0  0  1  0  0  3  0  0  0  0  0  0
  190.8810  177.2230  142.0680 C   0  0  0  0  0  0  0  0  0  0  0  0
  191.3560  176.0530  142.4850 O   0  0  0  0  0  0  0  0  0  0  0  0
  191.8280  176.2460  145.9010 N   0  0  0  0  0  0  0  0  0  0  0  0
  191.3530  177.4730  145.5420 C   0  0  0  0  0  3  0  0  0  0  0  0
  190.7360  178.1570  143.1170 C   0  0  0  0  0  3  0  0  0  0  0  0
  191.5150  176.1990  143.7670 C   0  0  0  0  0  0  0  0  0  0  0  0
  191.9390  175.4290  144.8160 C   0  0  0  0  0  3  0  0  0  0  0  0
  192.1460  175.8530  147.2600 C   0  0  0  0  0  1  0  0  0  0  0  0
  191.1700  177.4030  144.1830 C   0  0  0  0  0  0  0  0  0  0  0  0
  190.9320  175.8980  139.1080 O   0  0  0  0  0  1  0  0  0  0  0  0
  191.5340  176.9190  139.7650 N   0  0  0  0  0  2  0  0  0  0  0  0
  1  2  1  6  0  0  0
  1  3  1  0  0  0  0
  3  5  1  0  0  0  0
  5  8  1  0  0  0  0
  6  7  1  0  0  0  0
  6  5  2  0  0  0  0
  7 10  2  0  0  0  0
  8  4  2  0  0  0  0
  8 16  1  0  0  0  0
 10  9  1  0  0  0  0
 10  4  1  0  0  0  0
 11 14  1  0  0  0  0
 13 12  1  0  0  0  0
 14 12  2  0  0  0  0
 14 17  1  0  0  0  0
 15 16  1  0  0  0  0
 15 11  2  0  0  0  0
 16 13  2  0  0  0  0
 17 18  2  0  0  0  0
 17 19  2  0  0  0  0
 20  1  1  0  0  0  0
 21 22  1  6  0  0  0
 21 24  1  0  0  0  0
 21 20  1  0  0  0  0
 23 22  1  0  0  0  0
 25 24  1  6  0  0  0
 25 26  1  0  0  0  0
 26 27  1  0  0  0  0
 26 30  2  0  0  0  0
 27 31  1  0  0  0  0
 28 33  1  0  0  0  0
 29 28  1  0  0  0  0
 30 34  1  0  0  0  0
 31 34  1  0  0  0  0
 31 32  2  0  0  0  0
 32 28  1  0  0  0  0
 34 29  2  0  0  0  0
 35 36  1  0  0  0  0
 36 25  1  0  0  0  0
M  END
>  <MODEL>
2

>  <REMARK>
 VINA RESULT:      -8.6      2.419      5.755
  Name = 
  11 active torsions:
  status: ('A' for Active; 'I' for Inactive)
    1  A    between atoms: N_1  and  C_20
    2  A    between atoms: C_2  and  C_10
    3  A    between atoms: C_10  and  C_14
    4  A    between atoms: C_10  and  N_18
    5  A    between atoms: C_11  and  O_28
    6  A    between atoms: C_12  and  C_27
    7  A    between atoms: C_14  and  C_27
    8  A    between atoms: C_22  and  O_28
    9  A    between atoms: C_22  and  C_35
   10  A    between atoms: C_26  and  C_36
   11  A    between atoms: C_27  and  C_35
                            x       y       z     vdW  Elec       q    Type
                         _______ _______ _______ _____ _____    ______ ____

>  <TORSDO>
F 11

$$$$
=
 OpenBabel10232411103D

 36 39  0  0  1  0  0  0  0  0999 V2000
  186.6430  178.1390  142.2860 C   0  0  2  0  0  3  0  0  0  0  0  0
  186.9040  177.5340  143.6510 C   0  0  0  0  0  1  0  0  0  0  0  0
  187.8240  178.7740  141.8070 O   0  0  0  0  0  0  0  0  0  0  0  0
  190.4880  177.0990  139.8470 C   0  0  0  0  0  3  0  0  0  0  0  0
  188.5710  178.2700  140.7380 C   0  0  0  0  0  0  0  0  0  0  0  0
  188.1440  178.4850  139.4610 N   0  0  0  0  0  0  0  0  0  0  0  0
  188.8350  178.0400  138.3790 C   0  0  0  0  0  3  0  0  0  0  0  0
  189.7730  177.5530  140.9670 C   0  0  0  0  0  0  0  0  0  0  0  0
  190.9250  176.7600  137.1710 Cl  0  0  0  0  0  0  0  0  0  0  0  0
  190.0240  177.3400  138.5550 C   0  0  0  0  0  0  0  0  0  0  0  0
  191.1120  178.0020  144.5120 C   0  0  0  0  0  3  0  0  0  0  0  0
  191.0130  175.6420  144.0120 C   0  0  0  0  0  3  0  0  0  0  0  0
  190.5170  175.9350  142.7390 C   0  0  0  0  0  3  0  0  0  0  0  0
  191.3170  176.6730  144.9070 C   0  0  0  0  0  0  0  0  0  0  0  0
  190.6140  178.2920  143.2400 C   0  0  0  0  0  3  0  0  0  0  0  0
  190.3120  177.2640  142.3300 C   0  0  0  0  0  0  0  0  0  0  0  0
  191.8360  176.3700  146.2080 N   0  0  0  0  0  0  0  0  0  0  0  0
  191.7380  177.1960  147.1390 O   0  0  0  0  0  0  0  0  0  0  0  0
  192.4650  175.1680  146.4410 O   0  0  0  0  0  0  0  0  0  0  0  0
  185.5290  179.1610  142.4010 C   0  0  0  0  0  2  0  0  0  0  0  0
  184.1570  178.4950  142.2960 C   0  0  1  0  0  3  0  0  0  0  0  0
  183.2210  178.8350  143.4580 C   0  0  0  0  0  2  0  0  0  0  0  0
  183.9640  179.1130  144.7570 C   0  0  0  0  0  1  0  0  0  0  0  0
  183.5000  178.6630  140.9220 C   0  0  0  0  0  2  0  0  0  0  0  0
  184.4940  178.9050  139.7890 C   0  0  1  0  0  3  0  0  0  0  0  0
  184.3690  177.8280  138.7600 C   0  0  0  0  0  0  0  0  0  0  0  0
  183.4480  176.8700  138.8090 O   0  0  0  0  0  0  0  0  0  0  0  0
  183.9090  174.8010  136.0820 N   0  0  0  0  0  0  0  0  0  0  0  0
  184.8730  175.7580  135.9640 C   0  0  0  0  0  3  0  0  0  0  0  0
  185.2140  177.7140  137.6330 C   0  0  0  0  0  3  0  0  0  0  0  0
  183.6750  176.1390  137.7580 C   0  0  0  0  0  0  0  0  0  0  0  0
  183.1470  175.0110  137.1910 C   0  0  0  0  0  3  0  0  0  0  0  0
  183.7340  173.6910  135.1650 C   0  0  0  0  0  1  0  0  0  0  0  0
  184.6890  176.5880  137.0420 C   0  0  0  0  0  0  0  0  0  0  0  0
  182.9210  180.1990  138.8080 O   0  0  0  0  0  1  0  0  0  0  0  0
  184.2230  180.1990  139.1830 N   0  0  0  0  0  2  0  0  0  0  0  0
  1 20  1  0  0  0  0
  1  2  1  1  0  0  0
  3  1  1  0  0  0  0
  4  8  2  0  0  0  0
  5  8  1  0  0  0  0
  5  3  1  0  0  0  0
  6  5  2  0  0  0  0
  7 10  2  0  0  0  0
  7  6  1  0  0  0  0
  8 16  1  0  0  0  0
  9 10  1  0  0  0  0
 10  4  1  0  0  0  0
 11 14  1  0  0  0  0
 12 14  2  0  0  0  0
 13 12  1  0  0  0  0
 14 17  1  0  0  0  0
 15 11  2  0  0  0  0
 16 13  2  0  0  0  0
 16 15  1  0  0  0  0
 17 19  2  0  0  0  0
 17 18  2  0  0  0  0
 21 24  1  6  0  0  0
 21 20  1  0  0  0  0
 21 22  1  0  0  0  0
 22 23  1  0  0  0  0
 25 24  1  1  0  0  0
 26 27  1  0  0  0  0
 26 25  1  0  0  0  0
 28 32  1  0  0  0  0
 29 28  1  0  0  0  0
 29 34  2  0  0  0  0
 30 26  2  0  0  0  0
 31 27  1  0  0  0  0
 32 31  2  0  0  0  0
 33 28  1  0  0  0  0
 34 30  1  0  0  0  0
 34 31  1  0  0  0  0
 35 36  1  0  0  0  0
 36 25  1  0  0  0  0
M  END
>  <MODEL>
3

>  <REMARK>
 VINA RESULT:      -8.3      2.726      5.120
  Name = 
  11 active torsions:
  status: ('A' for Active; 'I' for Inactive)
    1  A    between atoms: N_1  and  C_20
    2  A    between atoms: C_2  and  C_10
    3  A    between atoms: C_10  and  C_14
    4  A    between atoms: C_10  and  N_18
    5  A    between atoms: C_11  and  O_28
    6  A    between atoms: C_12  and  C_27
    7  A    between atoms: C_14  and  C_27
    8  A    between atoms: C_22  and  O_28
    9  A    between atoms: C_22  and  C_35
   10  A    between atoms: C_26  and  C_36
   11  A    between atoms: C_27  and  C_35
                            x       y       z     vdW  Elec       q    Type
                         _______ _______ _______ _____ _____    ______ ____

>  <TORSDO>
F 11

$$$$
=
 OpenBabel10232411103D

 36 39  0  0  1  0  0  0  0  0999 V2000
  189.3010  177.1650  141.3730 C   0  0  2  0  0  3  0  0  0  0  0  0
  190.6400  176.5070  141.6420 C   0  0  0  0  0  1  0  0  0  0  0  0
  189.3650  177.9090  140.1610 O   0  0  0  0  0  0  0  0  0  0  0  0
  187.9010  176.7720  136.9500 C   0  0  0  0  0  3  0  0  0  0  0  0
  188.4710  177.7060  139.1050 C   0  0  0  0  0  0  0  0  0  0  0  0
  187.2410  178.2940  139.1440 N   0  0  0  0  0  0  0  0  0  0  0  0
  186.3370  178.1540  138.1390 C   0  0  0  0  0  3  0  0  0  0  0  0
  188.8360  176.9110  137.9880 C   0  0  0  0  0  0  0  0  0  0  0  0
  185.5000  177.2000  135.7190 Cl  0  0  0  0  0  0  0  0  0  0  0  0
  186.6550  177.3910  137.0210 C   0  0  0  0  0  0  0  0  0  0  0  0
  191.5000  174.2480  137.3790 C   0  0  0  0  0  3  0  0  0  0  0  0
  192.5920  176.3160  137.9850 C   0  0  0  0  0  3  0  0  0  0  0  0
  191.3460  176.9360  138.1030 C   0  0  0  0  0  3  0  0  0  0  0  0
  192.6790  174.9660  137.6250 C   0  0  0  0  0  0  0  0  0  0  0  0
  190.2570  174.8710  137.4960 C   0  0  0  0  0  3  0  0  0  0  0  0
  190.1570  176.2240  137.8640 C   0  0  0  0  0  0  0  0  0  0  0  0
  193.9580  174.3290  137.5140 N   0  0  0  0  0  0  0  0  0  0  0  0
  194.0410  173.1120  137.2490 O   0  0  0  0  0  0  0  0  0  0  0  0
  195.1120  175.0530  137.7170 O   0  0  0  0  0  0  0  0  0  0  0  0
  188.9660  178.0950  142.5220 C   0  0  0  0  0  2  0  0  0  0  0  0
  189.2770  177.4430  143.8690 C   0  0  1  0  0  3  0  0  0  0  0  0
  190.1840  178.2900  144.7650 C   0  0  0  0  0  2  0  0  0  0  0  0
  190.9570  179.3500  143.9930 C   0  0  0  0  0  1  0  0  0  0  0  0
  188.0340  176.9160  144.5940 C   0  0  0  0  0  2  0  0  0  0  0  0
  187.2520  177.9950  145.3400 C   0  0  1  0  0  3  0  0  0  0  0  0
  185.9390  178.2330  144.6660 C   0  0  0  0  0  0  0  0  0  0  0  0
  185.7350  178.0340  143.3670 O   0  0  0  0  0  0  0  0  0  0  0  0
  182.4590  178.8670  142.6570 N   0  0  0  0  0  0  0  0  0  0  0  0
  182.5950  179.0840  143.9970 C   0  0  0  0  0  3  0  0  0  0  0  0
  184.7830  178.6950  145.3340 C   0  0  0  0  0  3  0  0  0  0  0  0
  184.4900  178.3580  143.1740 C   0  0  0  0  0  0  0  0  0  0  0  0
  183.6240  178.4160  142.1160 C   0  0  0  0  0  3  0  0  0  0  0  0
  181.2450  179.1120  141.9040 C   0  0  0  0  0  1  0  0  0  0  0  0
  183.8940  178.7470  144.2850 C   0  0  0  0  0  0  0  0  0  0  0  0
  188.0780  178.0160  147.4440 O   0  0  0  0  0  1  0  0  0  0  0  0
  187.0310  177.5640  146.7110 N   0  0  0  0  0  2  0  0  0  0  0  0
  1  2  1  1  0  0  0
  1 20  1  0  0  0  0
  3  1  1  0  0  0  0
  4 10  1  0  0  0  0
  4  8  2  0  0  0  0
  5  6  2  0  0  0  0
  5  3  1  0  0  0  0
  7  6  1  0  0  0  0
  8  5  1  0  0  0  0
  9 10  1  0  0  0  0
 10  7  2  0  0  0  0
 11 15  2  0  0  0  0
 11 14  1  0  0  0  0
 12 13  1  0  0  0  0
 14 12  2  0  0  0  0
 15 16  1  0  0  0  0
 16  8  1  0  0  0  0
 16 13  2  0  0  0  0
 17 14  1  0  0  0  0
 17 19  2  0  0  0  0
 18 17  2  0  0  0  0
 21 20  1  6  0  0  0
 21 24  1  0  0  0  0
 21 22  1  0  0  0  0
 23 22  1  0  0  0  0
 25 24  1  6  0  0  0
 25 36  1  0  0  0  0
 26 30  2  0  0  0  0
 26 25  1  0  0  0  0
 27 26  1  0  0  0  0
 28 29  1  0  0  0  0
 29 34  2  0  0  0  0
 31 27  1  0  0  0  0
 31 34  1  0  0  0  0
 32 28  1  0  0  0  0
 32 31  2  0  0  0  0
 33 28  1  0  0  0  0
 34 30  1  0  0  0  0
 36 35  1  0  0  0  0
M  END
>  <MODEL>
4

>  <REMARK>
 VINA RESULT:      -8.3      3.383      7.223
  Name = 
  11 active torsions:
  status: ('A' for Active; 'I' for Inactive)
    1  A    between atoms: N_1  and  C_20
    2  A    between atoms: C_2  and  C_10
    3  A    between atoms: C_10  and  C_14
    4  A    between atoms: C_10  and  N_18
    5  A    between atoms: C_11  and  O_28
    6  A    between atoms: C_12  and  C_27
    7  A    between atoms: C_14  and  C_27
    8  A    between atoms: C_22  and  O_28
    9  A    between atoms: C_22  and  C_35
   10  A    between atoms: C_26  and  C_36
   11  A    between atoms: C_27  and  C_35
                            x       y       z     vdW  Elec       q    Type
                         _______ _______ _______ _____ _____    ______ ____

>  <TORSDO>
F 11

$$$$
=
 OpenBabel10232411103D

 36 39  0  0  1  0  0  0  0  0999 V2000
  186.9180  177.8100  142.6050 C   0  0  2  0  0  3  0  0  0  0  0  0
  186.8380  177.2420  144.0080 C   0  0  0  0  0  1  0  0  0  0  0  0
  188.1980  178.3970  142.3960 O   0  0  0  0  0  0  0  0  0  0  0  0
  191.1670  176.9290  140.7300 C   0  0  0  0  0  3  0  0  0  0  0  0
  189.0830  177.9440  141.4120 C   0  0  0  0  0  0  0  0  0  0  0  0
  188.7650  178.1070  140.0960 N   0  0  0  0  0  0  0  0  0  0  0  0
  189.5910  177.7100  139.0940 C   0  0  0  0  0  3  0  0  0  0  0  0
  190.3130  177.3340  141.7680 C   0  0  0  0  0  0  0  0  0  0  0  0
  191.8860  176.5960  138.1150 Cl  0  0  0  0  0  0  0  0  0  0  0  0
  190.8120  177.1150  139.3960 C   0  0  0  0  0  0  0  0  0  0  0  0
  190.8340  177.7900  145.5210 C   0  0  0  0  0  3  0  0  0  0  0  0
  191.8680  175.7160  144.8390 C   0  0  0  0  0  3  0  0  0  0  0  0
  191.4640  175.9510  143.5220 C   0  0  0  0  0  3  0  0  0  0  0  0
  191.5590  176.6350  145.8480 C   0  0  0  0  0  0  0  0  0  0  0  0
  190.4300  178.0200  144.2050 C   0  0  0  0  0  3  0  0  0  0  0  0
  190.7410  177.1080  143.1820 C   0  0  0  0  0  0  0  0  0  0  0  0
  191.9830  176.3960  147.1960 N   0  0  0  0  0  0  0  0  0  0  0  0
  192.6110  175.3580  147.4890 O   0  0  0  0  0  0  0  0  0  0  0  0
  191.6850  177.3040  148.1870 O   0  0  0  0  0  0  0  0  0  0  0  0
  185.8430  178.8650  142.4350 C   0  0  0  0  0  2  0  0  0  0  0  0
  184.4520  178.2340  142.3980 C   0  0  1  0  0  3  0  0  0  0  0  0
  183.4480  178.9100  143.3360 C   0  0  0  0  0  2  0  0  0  0  0  0
  183.9510  179.0130  144.7690 C   0  0  0  0  0  1  0  0  0  0  0  0
  183.9100  178.0300  140.9790 C   0  0  0  0  0  2  0  0  0  0  0  0
  184.3800  179.0870  139.9830 C   0  0  1  0  0  3  0  0  0  0  0  0
  184.9880  178.4280  138.7870 C   0  0  0  0  0  0  0  0  0  0  0  0
  186.1710  178.7700  138.2850 O   0  0  0  0  0  0  0  0  0  0  0  0
  186.7760  176.7830  135.5250 N   0  0  0  0  0  0  0  0  0  0  0  0
  185.5620  176.3750  135.9920 C   0  0  0  0  0  3  0  0  0  0  0  0
  184.3730  177.3800  138.0670 C   0  0  0  0  0  3  0  0  0  0  0  0
  186.3350  177.9830  137.2620 C   0  0  0  0  0  0  0  0  0  0  0  0
  187.2830  177.7850  136.2950 C   0  0  0  0  0  3  0  0  0  0  0  0
  187.4290  176.2410  134.3490 C   0  0  0  0  0  1  0  0  0  0  0  0
  185.3200  177.1570  137.0940 C   0  0  0  0  0  0  0  0  0  0  0  0
  183.7350  180.9350  138.8530 O   0  0  0  0  0  1  0  0  0  0  0  0
  183.2450  179.8980  139.5750 N   0  0  0  0  0  2  0  0  0  0  0  0
  1  2  1  1  0  0  0
  3  1  1  0  0  0  0
  4  8  2  0  0  0  0
  5  8  1  0  0  0  0
  5  3  1  0  0  0  0
  6  5  2  0  0  0  0
  7 10  2  0  0  0  0
  7  6  1  0  0  0  0
  8 16  1  0  0  0  0
  9 10  1  0  0  0  0
 10  4  1  0  0  0  0
 11 14  1  0  0  0  0
 12 14  2  0  0  0  0
 13 12  1  0  0  0  0
 14 17  1  0  0  0  0
 15 11  2  0  0  0  0
 16 13  2  0  0  0  0
 16 15  1  0  0  0  0
 17 18  2  0  0  0  0
 17 19  2  0  0  0  0
 20  1  1  0  0  0  0
 21 24  1  6  0  0  0
 21 20  1  0  0  0  0
 21 22  1  0  0  0  0
 22 23  1  0  0  0  0
 25 24  1  1  0  0  0
 26 25  1  0  0  0  0
 27 26  1  0  0  0  0
 28 29  1  0  0  0  0
 28 32  1  0  0  0  0
 29 34  2  0  0  0  0
 30 26  2  0  0  0  0
 31 27  1  0  0  0  0
 32 31  2  0  0  0  0
 33 28  1  0  0  0  0
 34 31  1  0  0  0  0
 34 30  1  0  0  0  0
 35 36  1  0  0  0  0
 36 25  1  0  0  0  0
M  END
>  <MODEL>
5

>  <REMARK>
 VINA RESULT:      -8.3      2.483      5.069
  Name = 
  11 active torsions:
  status: ('A' for Active; 'I' for Inactive)
    1  A    between atoms: N_1  and  C_20
    2  A    between atoms: C_2  and  C_10
    3  A    between atoms: C_10  and  C_14
    4  A    between atoms: C_10  and  N_18
    5  A    between atoms: C_11  and  O_28
    6  A    between atoms: C_12  and  C_27
    7  A    between atoms: C_14  and  C_27
    8  A    between atoms: C_22  and  O_28
    9  A    between atoms: C_22  and  C_35
   10  A    between atoms: C_26  and  C_36
   11  A    between atoms: C_27  and  C_35
                            x       y       z     vdW  Elec       q    Type
                         _______ _______ _______ _____ _____    ______ ____

>  <TORSDO>
F 11

$$$$
=
 OpenBabel10232411103D

 36 39  0  0  1  0  0  0  0  0999 V2000
  188.6700  177.4970  141.8750 C   0  0  2  0  0  3  0  0  0  0  0  0
  189.2120  178.8160  142.3870 C   0  0  0  0  0  1  0  0  0  0  0  0
  188.0910  176.7640  142.9490 O   0  0  0  0  0  0  0  0  0  0  0  0
  187.6810  178.0030  146.4200 C   0  0  0  0  0  3  0  0  0  0  0  0
  188.3420  177.0700  144.2910 C   0  0  0  0  0  0  0  0  0  0  0  0
  189.5590  176.7740  144.8310 N   0  0  0  0  0  0  0  0  0  0  0  0
  189.8720  177.0650  146.1200 C   0  0  0  0  0  3  0  0  0  0  0  0
  187.3530  177.6990  145.0890 C   0  0  0  0  0  0  0  0  0  0  0  0
  189.3250  178.0700  148.6010 Cl  0  0  0  0  0  0  0  0  0  0  0  0
  188.9360  177.6890  146.9370 C   0  0  0  0  0  0  0  0  0  0  0  0
  183.6980  178.7880  144.9620 C   0  0  0  0  0  3  0  0  0  0  0  0
  184.4530  178.3390  142.7130 C   0  0  0  0  0  3  0  0  0  0  0  0
  185.7170  178.0040  143.2070 C   0  0  0  0  0  3  0  0  0  0  0  0
  183.4330  178.7300  143.5870 C   0  0  0  0  0  0  0  0  0  0  0  0
  184.9620  178.4550  145.4520 C   0  0  0  0  0  3  0  0  0  0  0  0
  185.9920  178.0530  144.5850 C   0  0  0  0  0  0  0  0  0  0  0  0
  182.1350  179.0630  143.0780 N   0  0  0  0  0  0  0  0  0  0  0  0
  181.1770  179.2480  143.8570 O   0  0  0  0  0  0  0  0  0  0  0  0
  181.9280  179.1650  141.7210 O   0  0  0  0  0  0  0  0  0  0  0  0
  189.8050  176.6960  141.2680 C   0  0  0  0  0  2  0  0  0  0  0  0
  190.0710  177.1210  139.8240 C   0  0  1  0  0  3  0  0  0  0  0  0
  191.4820  176.7840  139.3370 C   0  0  0  0  0  2  0  0  0  0  0  0
  191.4940  175.7370  138.2330 C   0  0  0  0  0  1  0  0  0  0  0  0
  188.9730  176.6840  138.8470 C   0  0  0  0  0  2  0  0  0  0  0  0
  188.4960  177.7980  137.9190 C   0  0  1  0  0  3  0  0  0  0  0  0
  187.0030  177.8770  137.9400 C   0  0  0  0  0  0  0  0  0  0  0  0
  186.3220  178.6420  138.7870 O   0  0  0  0  0  0  0  0  0  0  0  0
  182.9540  178.1860  138.1690 N   0  0  0  0  0  0  0  0  0  0  0  0
  183.5890  177.3860  137.2660 C   0  0  0  0  0  3  0  0  0  0  0  0
  186.1640  177.1500  137.0670 C   0  0  0  0  0  3  0  0  0  0  0  0
  185.0720  178.4270  138.4950 C   0  0  0  0  0  0  0  0  0  0  0  0
  183.8520  178.8470  138.9510 C   0  0  0  0  0  3  0  0  0  0  0  0
  181.5140  178.2970  138.3000 C   0  0  0  0  0  1  0  0  0  0  0  0
  184.9280  177.5690  137.5030 C   0  0  0  0  0  0  0  0  0  0  0  0
  188.9220  179.9400  137.3350 O   0  0  0  0  0  1  0  0  0  0  0  0
  189.0630  179.0630  138.3590 N   0  0  0  0  0  2  0  0  0  0  0  0
  1  2  1  1  0  0  0
  1  3  1  0  0  0  0
  3  5  1  0  0  0  0
  4 10  1  0  0  0  0
  5  6  2  0  0  0  0
  5  8  1  0  0  0  0
  6  7  1  0  0  0  0
  7 10  2  0  0  0  0
  8  4  2  0  0  0  0
 10  9  1  0  0  0  0
 11 15  1  0  0  0  0
 12 13  2  0  0  0  0
 12 14  1  0  0  0  0
 13 16  1  0  0  0  0
 14 11  2  0  0  0  0
 16  8  1  0  0  0  0
 16 15  2  0  0  0  0
 17 14  1  0  0  0  0
 17 18  2  0  0  0  0
 19 17  2  0  0  0  0
 20  1  1  0  0  0  0
 21 24  1  6  0  0  0
 21 20  1  0  0  0  0
 22 21  1  0  0  0  0
 23 22  1  0  0  0  0
 25 26  1  0  0  0  0
 25 36  1  0  0  0  0
 25 24  1  1  0  0  0
 26 27  1  0  0  0  0
 28 33  1  0  0  0  0
 28 32  1  0  0  0  0
 29 34  2  0  0  0  0
 29 28  1  0  0  0  0
 30 34  1  0  0  0  0
 30 26  2  0  0  0  0
 31 27  1  0  0  0  0
 31 32  2  0  0  0  0
 34 31  1  0  0  0  0
 35 36  1  0  0  0  0
M  END
>  <MODEL>
6

>  <REMARK>
 VINA RESULT:      -8.2      2.262      4.620
  Name = 
  11 active torsions:
  status: ('A' for Active; 'I' for Inactive)
    1  A    between atoms: N_1  and  C_20
    2  A    between atoms: C_2  and  C_10
    3  A    between atoms: C_10  and  C_14
    4  A    between atoms: C_10  and  N_18
    5  A    between atoms: C_11  and  O_28
    6  A    between atoms: C_12  and  C_27
    7  A    between atoms: C_14  and  C_27
    8  A    between atoms: C_22  and  O_28
    9  A    between atoms: C_22  and  C_35
   10  A    between atoms: C_26  and  C_36
   11  A    between atoms: C_27  and  C_35
                            x       y       z     vdW  Elec       q    Type
                         _______ _______ _______ _____ _____    ______ ____

>  <TORSDO>
F 11

$$$$
=
 OpenBabel10232411103D

 36 39  0  0  1  0  0  0  0  0999 V2000
  188.2300  177.6150  141.9730 C   0  0  2  0  0  3  0  0  0  0  0  0
  187.4050  178.5960  141.1630 C   0  0  0  0  0  1  0  0  0  0  0  0
  187.4120  176.9960  142.9590 O   0  0  0  0  0  0  0  0  0  0  0  0
  186.7530  178.0880  146.4400 C   0  0  0  0  0  3  0  0  0  0  0  0
  187.5640  177.2420  144.3270 C   0  0  0  0  0  0  0  0  0  0  0  0
  188.7360  176.9130  144.9420 N   0  0  0  0  0  0  0  0  0  0  0  0
  188.9550  177.1460  146.2620 C   0  0  0  0  0  3  0  0  0  0  0  0
  186.5210  177.8440  145.0770 C   0  0  0  0  0  0  0  0  0  0  0  0
  188.2310  178.0480  148.7380 Cl  0  0  0  0  0  0  0  0  0  0  0  0
  187.9640  177.7430  147.0350 C   0  0  0  0  0  0  0  0  0  0  0  0
  182.9550  179.1500  144.7060 C   0  0  0  0  0  3  0  0  0  0  0  0
  183.7430  178.4140  142.5440 C   0  0  0  0  0  3  0  0  0  0  0  0
  184.9650  178.0520  143.1160 C   0  0  0  0  0  3  0  0  0  0  0  0
  182.7270  178.9630  143.3350 C   0  0  0  0  0  0  0  0  0  0  0  0
  184.1790  178.7890  145.2730 C   0  0  0  0  0  3  0  0  0  0  0  0
  185.2030  178.2310  144.4900 C   0  0  0  0  0  0  0  0  0  0  0  0
  181.4700  179.3240  142.7480 N   0  0  0  0  0  0  0  0  0  0  0  0
  180.7550  180.2030  143.2710 O   0  0  0  0  0  0  0  0  0  0  0  0
  181.0300  178.6900  141.6090 O   0  0  0  0  0  0  0  0  0  0  0  0
  189.3640  178.3610  142.6490 C   0  0  0  0  0  2  0  0  0  0  0  0
  190.7230  177.8410  142.1820 C   0  0  1  0  0  3  0  0  0  0  0  0
  191.7770  177.8030  143.2910 C   0  0  0  0  0  2  0  0  0  0  0  0
  191.6350  178.9460  144.2860 C   0  0  0  0  0  1  0  0  0  0  0  0
  190.6360  176.5340  141.3860 C   0  0  0  0  0  2  0  0  0  0  0  0
  191.3240  176.5950  140.0250 C   0  0  1  0  0  3  0  0  0  0  0  0
  190.3140  176.8460  138.9510 C   0  0  0  0  0  0  0  0  0  0  0  0
  189.8620  175.8990  138.1350 O   0  0  0  0  0  0  0  0  0  0  0  0
  187.6100  177.3510  135.9560 N   0  0  0  0  0  0  0  0  0  0  0  0
  188.0230  178.3690  136.7640 C   0  0  0  0  0  3  0  0  0  0  0  0
  189.7390  178.1100  138.6910 C   0  0  0  0  0  3  0  0  0  0  0  0
  189.0210  176.5110  137.3540 C   0  0  0  0  0  0  0  0  0  0  0  0
  188.2150  176.1800  136.2980 C   0  0  0  0  0  3  0  0  0  0  0  0
  186.6720  177.5000  134.8600 C   0  0  0  0  0  1  0  0  0  0  0  0
  188.9140  177.7950  137.6370 C   0  0  0  0  0  0  0  0  0  0  0  0
  193.4760  177.1340  139.5940 O   0  0  0  0  0  1  0  0  0  0  0  0
  192.3100  177.6640  140.0350 N   0  0  0  0  0  2  0  0  0  0  0  0
  1  2  1  1  0  0  0
  1 20  1  0  0  0  0
  1  3  1  0  0  0  0
  3  5  1  0  0  0  0
  4 10  1  0  0  0  0
  5  6  2  0  0  0  0
  5  8  1  0  0  0  0
  6  7  1  0  0  0  0
  7 10  2  0  0  0  0
  8  4  2  0  0  0  0
 10  9  1  0  0  0  0
 11 15  1  0  0  0  0
 12 13  2  0  0  0  0
 12 14  1  0  0  0  0
 13 16  1  0  0  0  0
 14 11  2  0  0  0  0
 16  8  1  0  0  0  0
 16 15  2  0  0  0  0
 17 18  2  0  0  0  0
 17 14  1  0  0  0  0
 19 17  2  0  0  0  0
 21 24  1  1  0  0  0
 21 20  1  0  0  0  0
 21 22  1  0  0  0  0
 22 23  1  0  0  0  0
 25 36  1  0  0  0  0
 25 24  1  1  0  0  0
 26 25  1  0  0  0  0
 27 26  1  0  0  0  0
 28 32  1  0  0  0  0
 28 29  1  0  0  0  0
 29 34  2  0  0  0  0
 30 26  2  0  0  0  0
 31 34  1  0  0  0  0
 31 27  1  0  0  0  0
 32 31  2  0  0  0  0
 33 28  1  0  0  0  0
 34 30  1  0  0  0  0
 35 36  1  0  0  0  0
M  END
>  <MODEL>
7

>  <REMARK>
 VINA RESULT:      -8.0      3.087      5.884
  Name = 
  11 active torsions:
  status: ('A' for Active; 'I' for Inactive)
    1  A    between atoms: N_1  and  C_20
    2  A    between atoms: C_2  and  C_10
    3  A    between atoms: C_10  and  C_14
    4  A    between atoms: C_10  and  N_18
    5  A    between atoms: C_11  and  O_28
    6  A    between atoms: C_12  and  C_27
    7  A    between atoms: C_14  and  C_27
    8  A    between atoms: C_22  and  O_28
    9  A    between atoms: C_22  and  C_35
   10  A    between atoms: C_26  and  C_36
   11  A    between atoms: C_27  and  C_35
                            x       y       z     vdW  Elec       q    Type
                         _______ _______ _______ _____ _____    ______ ____

>  <TORSDO>
F 11

$$$$
=
 OpenBabel10232411103D

 36 39  0  0  1  0  0  0  0  0999 V2000
  190.0520  177.0210  142.4350 C   0  0  2  0  0  3  0  0  0  0  0  0
  191.4180  176.7710  143.0440 C   0  0  0  0  0  1  0  0  0  0  0  0
  189.0510  176.3820  143.2190 O   0  0  0  0  0  0  0  0  0  0  0  0
  187.2050  178.0910  145.9420 C   0  0  0  0  0  3  0  0  0  0  0  0
  188.6740  176.8450  144.4830 C   0  0  0  0  0  0  0  0  0  0  0  0
  189.4480  176.5450  145.5660 N   0  0  0  0  0  0  0  0  0  0  0  0
  189.1490  176.9840  146.8160 C   0  0  0  0  0  3  0  0  0  0  0  0
  187.5080  177.6360  144.6490 C   0  0  0  0  0  0  0  0  0  0  0  0
  187.6210  178.3400  148.6310 Cl  0  0  0  0  0  0  0  0  0  0  0  0
  188.0200  177.7690  147.0250 C   0  0  0  0  0  0  0  0  0  0  0  0
  184.3670  178.3530  142.6050 C   0  0  0  0  0  3  0  0  0  0  0  0
  186.3050  178.7510  141.2180 C   0  0  0  0  0  3  0  0  0  0  0  0
  187.1360  178.3930  142.2820 C   0  0  0  0  0  3  0  0  0  0  0  0
  184.9140  178.7310  141.3710 C   0  0  0  0  0  0  0  0  0  0  0  0
  185.2010  177.9970  143.6660 C   0  0  0  0  0  3  0  0  0  0  0  0
  186.5990  178.0070  143.5230 C   0  0  0  0  0  0  0  0  0  0  0  0
  184.0630  179.0900  140.2740 N   0  0  0  0  0  0  0  0  0  0  0  0
  184.4750  179.8480  139.3720 O   0  0  0  0  0  0  0  0  0  0  0  0
  182.7720  178.6140  140.2140 O   0  0  0  0  0  0  0  0  0  0  0  0
  190.0280  176.4600  141.0260 C   0  0  0  0  0  2  0  0  0  0  0  0
  190.4700  177.5100  140.0070 C   0  0  1  0  0  3  0  0  0  0  0  0
  191.6810  177.0820  139.1740 C   0  0  0  0  0  2  0  0  0  0  0  0
  193.0030  177.2940  139.8980 C   0  0  0  0  0  1  0  0  0  0  0  0
  189.3180  178.0610  139.1590 C   0  0  0  0  0  2  0  0  0  0  0  0
  189.3860  177.6560  137.6890 C   0  0  1  0  0  3  0  0  0  0  0  0
  188.4610  176.5110  137.4300 C   0  0  0  0  0  0  0  0  0  0  0  0
  187.1360  176.6230  137.4410 O   0  0  0  0  0  0  0  0  0  0  0  0
  185.7930  173.5080  136.7910 N   0  0  0  0  0  0  0  0  0  0  0  0
  187.1440  173.3230  136.7550 C   0  0  0  0  0  3  0  0  0  0  0  0
  188.8940  175.1970  137.1480 C   0  0  0  0  0  3  0  0  0  0  0  0
  186.7010  175.4240  137.1850 C   0  0  0  0  0  0  0  0  0  0  0  0
  185.4860  174.8070  137.0580 C   0  0  0  0  0  3  0  0  0  0  0  0
  184.8140  172.4560  136.6000 C   0  0  0  0  0  1  0  0  0  0  0  0
  187.6820  174.5610  137.0050 C   0  0  0  0  0  0  0  0  0  0  0  0
  189.0580  179.8920  137.6510 O   0  0  0  0  0  1  0  0  0  0  0  0
  189.0100  178.7910  136.8620 N   0  0  0  0  0  2  0  0  0  0  0  0
  1  2  1  1  0  0  0
  1  3  1  0  0  0  0
  3  5  1  0  0  0  0
  4 10  1  0  0  0  0
  5  8  1  0  0  0  0
  5  6  2  0  0  0  0
  6  7  1  0  0  0  0
  7 10  2  0  0  0  0
  8  4  2  0  0  0  0
 10  9  1  0  0  0  0
 11 15  1  0  0  0  0
 12 14  1  0  0  0  0
 12 13  2  0  0  0  0
 13 16  1  0  0  0  0
 14 11  2  0  0  0  0
 16 15  2  0  0  0  0
 16  8  1  0  0  0  0
 17 14  1  0  0  0  0
 18 17  2  0  0  0  0
 19 17  2  0  0  0  0
 20  1  1  0  0  0  0
 21 24  1  6  0  0  0
 21 20  1  0  0  0  0
 22 23  1  0  0  0  0
 22 21  1  0  0  0  0
 25 24  1  1  0  0  0
 26 27  1  0  0  0  0
 26 25  1  0  0  0  0
 28 32  1  0  0  0  0
 29 28  1  0  0  0  0
 29 34  2  0  0  0  0
 30 26  2  0  0  0  0
 31 27  1  0  0  0  0
 32 31  2  0  0  0  0
 33 28  1  0  0  0  0
 34 30  1  0  0  0  0
 34 31  1  0  0  0  0
 36 35  1  0  0  0  0
 36 25  1  0  0  0  0
M  END
>  <MODEL>
8

>  <REMARK>
 VINA RESULT:      -7.9      2.479      5.239
  Name = 
  11 active torsions:
  status: ('A' for Active; 'I' for Inactive)
    1  A    between atoms: N_1  and  C_20
    2  A    between atoms: C_2  and  C_10
    3  A    between atoms: C_10  and  C_14
    4  A    between atoms: C_10  and  N_18
    5  A    between atoms: C_11  and  O_28
    6  A    between atoms: C_12  and  C_27
    7  A    between atoms: C_14  and  C_27
    8  A    between atoms: C_22  and  O_28
    9  A    between atoms: C_22  and  C_35
   10  A    between atoms: C_26  and  C_36
   11  A    between atoms: C_27  and  C_35
                            x       y       z     vdW  Elec       q    Type
                         _______ _______ _______ _____ _____    ______ ____

>  <TORSDO>
F 11

$$$$
=
 OpenBabel10232411103D

 36 39  0  0  1  0  0  0  0  0999 V2000
  189.1280  177.2320  142.5760 C   0  0  2  0  0  3  0  0  0  0  0  0
  188.9730  175.7840  142.9970 C   0  0  0  0  0  1  0  0  0  0  0  0
  188.2400  178.0510  143.3300 O   0  0  0  0  0  0  0  0  0  0  0  0
  186.8070  178.0130  146.7490 C   0  0  0  0  0  3  0  0  0  0  0  0
  188.1160  177.9480  144.7190 C   0  0  0  0  0  0  0  0  0  0  0  0
  189.2260  177.7130  145.4760 N   0  0  0  0  0  0  0  0  0  0  0  0
  189.1760  177.6250  146.8310 C   0  0  0  0  0  3  0  0  0  0  0  0
  186.8540  178.1010  145.3480 C   0  0  0  0  0  0  0  0  0  0  0  0
  187.8810  177.6640  149.2360 Cl  0  0  0  0  0  0  0  0  0  0  0  0
  187.9610  177.7770  147.4910 C   0  0  0  0  0  0  0  0  0  0  0  0
  184.2980  178.3880  142.5290 C   0  0  0  0  0  3  0  0  0  0  0  0
  183.2400  179.0210  144.6060 C   0  0  0  0  0  3  0  0  0  0  0  0
  184.4380  178.7870  145.2850 C   0  0  0  0  0  3  0  0  0  0  0  0
  183.1620  178.8260  143.2230 C   0  0  0  0  0  0  0  0  0  0  0  0
  185.4940  178.1540  143.2110 C   0  0  0  0  0  3  0  0  0  0  0  0
  185.5860  178.3520  144.5990 C   0  0  0  0  0  0  0  0  0  0  0  0
  181.9340  179.0770  142.5270 N   0  0  0  0  0  0  0  0  0  0  0  0
  181.1160  179.9140  142.9630 O   0  0  0  0  0  0  0  0  0  0  0  0
  181.6340  178.3820  141.3770 O   0  0  0  0  0  0  0  0  0  0  0  0
  188.8030  177.3580  141.1000 C   0  0  0  0  0  2  0  0  0  0  0  0
  190.0690  177.5840  140.2740 C   0  0  1  0  0  3  0  0  0  0  0  0
  191.3610  177.3160  141.0480 C   0  0  0  0  0  2  0  0  0  0  0  0
  192.5950  177.2980  140.1570 C   0  0  0  0  0  1  0  0  0  0  0  0
  190.0330  176.9010  138.9020 C   0  0  0  0  0  2  0  0  0  0  0  0
  189.3660  177.7380  137.8140 C   0  0  1  0  0  3  0  0  0  0  0  0
  188.1560  177.0320  137.2940 C   0  0  0  0  0  0  0  0  0  0  0  0
  188.2070  176.0730  136.3740 O   0  0  0  0  0  0  0  0  0  0  0  0
  184.9760  175.0340  135.7320 N   0  0  0  0  0  0  0  0  0  0  0  0
  184.8520  176.0030  136.6830 C   0  0  0  0  0  3  0  0  0  0  0  0
  186.8390  177.3080  137.7200 C   0  0  0  0  0  3  0  0  0  0  0  0
  186.9670  175.7280  136.1880 C   0  0  0  0  0  0  0  0  0  0  0  0
  186.2830  174.8400  135.4010 C   0  0  0  0  0  3  0  0  0  0  0  0
  183.8640  174.3240  135.1310 C   0  0  0  0  0  1  0  0  0  0  0  0
  186.1340  176.4140  136.9470 C   0  0  0  0  0  0  0  0  0  0  0  0
  188.9780  179.9150  137.3460 O   0  0  0  0  0  1  0  0  0  0  0  0
  188.9850  179.0270  138.3690 N   0  0  0  0  0  2  0  0  0  0  0  0
  1  2  1  1  0  0  0
  1  3  1  0  0  0  0
  3  5  1  0  0  0  0
  4 10  1  0  0  0  0
  5  8  1  0  0  0  0
  5  6  2  0  0  0  0
  6  7  1  0  0  0  0
  7 10  2  0  0  0  0
  8  4  2  0  0  0  0
 10  9  1  0  0  0  0
 11 15  2  0  0  0  0
 11 14  1  0  0  0  0
 12 13  1  0  0  0  0
 14 12  2  0  0  0  0
 15 16  1  0  0  0  0
 16 13  2  0  0  0  0
 16  8  1  0  0  0  0
 17 18  2  0  0  0  0
 17 14  1  0  0  0  0
 19 17  2  0  0  0  0
 20  1  1  0  0  0  0
 21 24  1  6  0  0  0
 21 22  1  0  0  0  0
 21 20  1  0  0  0  0
 23 22  1  0  0  0  0
 25 36  1  0  0  0  0
 25 24  1  1  0  0  0
 26 30  2  0  0  0  0
 26 25  1  0  0  0  0
 27 26  1  0  0  0  0
 28 29  1  0  0  0  0
 29 34  2  0  0  0  0
 31 27  1  0  0  0  0
 31 34  1  0  0  0  0
 32 28  1  0  0  0  0
 32 31  2  0  0  0  0
 33 28  1  0  0  0  0
 34 30  1  0  0  0  0
 35 36  1  0  0  0  0
M  END
>  <MODEL>
9

>  <REMARK>
 VINA RESULT:      -7.9      2.681      5.312
  Name = 
  11 active torsions:
  status: ('A' for Active; 'I' for Inactive)
    1  A    between atoms: N_1  and  C_20
    2  A    between atoms: C_2  and  C_10
    3  A    between atoms: C_10  and  C_14
    4  A    between atoms: C_10  and  N_18
    5  A    between atoms: C_11  and  O_28
    6  A    between atoms: C_12  and  C_27
    7  A    between atoms: C_14  and  C_27
    8  A    between atoms: C_22  and  O_28
    9  A    between atoms: C_22  and  C_35
   10  A    between atoms: C_26  and  C_36
   11  A    between atoms: C_27  and  C_35
                            x       y       z     vdW  Elec       q    Type
                         _______ _______ _______ _____ _____    ______ ____

>  <TORSDO>
F 11

$$$$
