=
 OpenBabel10232408163D

 32 33  0  0  1  0  0  0  0  0999 V2000
  184.6250  179.5360  145.9110 O   0  0  0  0  0  0  0  0  0  0  0  0
  185.9340  178.3090  144.6650 C   0  0  0  0  0  0  0  0  0  0  0  0
  184.8220  179.1210  144.6810 C   0  0  0  0  0  0  0  0  0  0  0  0
  186.3460  178.2830  145.9790 C   0  0  0  0  0  0  0  0  0  0  0  0
  185.5200  179.0480  146.7220 N   0  0  0  0  0  0  0  0  0  0  0  0
  187.4820  177.4920  146.5400 C   0  0  0  0  0  2  0  0  0  0  0  0
  187.8430  177.9760  147.9330 C   0  0  0  0  0  2  0  0  0  0  0  0
  189.0740  177.4480  148.3190 O   0  0  0  0  0  0  0  0  0  0  0  0
  189.6840  177.0600  147.1270 C   0  0  0  0  0  2  0  0  0  0  0  0
  191.0500  176.4640  147.4200 C   0  0  0  0  0  2  0  0  0  0  0  0
  191.1400  177.3180  145.2490 C   0  0  0  0  0  1  0  0  0  0  0  0
  191.9330  176.6720  146.2830 N   0  0  0  0  0  2  0  0  0  0  0  0
  186.5090  177.5610  143.5110 C   0  0  0  0  0  2  0  0  0  0  0  0
  187.3480  178.4520  142.7240 N   0  0  0  0  0  2  0  0  0  0  0  0
  188.5800  177.7280  142.4490 C   0  0  1  0  0  3  0  0  0  0  0  0
  188.4710  176.2990  142.9570 C   0  0  0  0  0  1  0  0  0  0  0  0
  187.9220  178.3190  140.0420 C   0  0  0  0  0  0  0  0  0  0  0  0
  188.9130  177.7610  140.9810 C   0  0  0  0  0  0  0  0  0  0  0  0
  188.2750  178.5210  138.6720 N   0  0  0  0  0  0  0  0  0  0  0  0
  190.1070  177.3570  140.5040 C   0  0  0  0  0  0  0  0  0  0  0  0
  186.7800  178.6590  140.4450 O   0  0  0  0  0  0  0  0  0  0  0  0
  189.4180  178.1300  138.1950 C   0  0  0  0  0  3  0  0  0  0  0  0
  191.0830  176.8770  141.3750 O   0  0  0  0  0  1  0  0  0  0  0  0
  190.5730  175.9750  138.5000 C   0  0  0  0  0  1  0  0  0  0  0  0
  190.4320  177.3900  139.0270 C   0  0  2  0  0  3  0  0  0  0  0  0
  183.9830  179.5140  143.5090 C   0  0  0  0  0  2  0  0  0  0  0  0
  182.7960  178.5740  143.3770 C   0  0  0  0  0  2  0  0  0  0  0  0
  181.6380  179.3000  143.0810 O   0  0  0  0  0  0  0  0  0  0  0  0
  180.4900  180.0720  140.6690 O   0  0  0  0  0  0  0  0  0  0  0  0
  181.1530  178.7770  141.5390 P   0  0  0  0  0  0  0  0  0  0  0  0
  182.3370  178.2140  140.7840 O   0  0  0  0  0  1  0  0  0  0  0  0
  179.9830  177.5660  141.7080 O   0  0  0  0  0  1  0  0  0  0  0  0
  1  5  1  0  0  0  0
  2  3  2  0  0  0  0
  2  4  1  0  0  0  0
  3  1  1  0  0  0  0
  4  6  1  0  0  0  0
  4  5  2  0  0  0  0
  6  7  1  0  0  0  0
  7  8  1  0  0  0  0
  9 10  1  0  0  0  0
  9  8  1  0  0  0  0
 11 12  1  0  0  0  0
 12 10  1  0  0  0  0
 13  2  1  0  0  0  0
 14 13  1  0  0  0  0
 15 14  1  0  0  0  0
 15 16  1  6  0  0  0
 17 21  2  0  0  0  0
 17 18  1  0  0  0  0
 18 15  1  0  0  0  0
 19 17  1  0  0  0  0
 20 18  2  0  0  0  0
 20 23  1  0  0  0  0
 22 19  2  0  0  0  0
 22 25  1  0  0  0  0
 25 24  1  6  0  0  0
 25 20  1  0  0  0  0
 26  3  1  0  0  0  0
 27 26  1  0  0  0  0
 28 27  1  0  0  0  0
 29 30  2  0  0  0  0
 30 32  1  0  0  0  0
 30 28  1  0  0  0  0
 31 30  1  0  0  0  0
M  END
>  <MODEL>
1

>  <REMARK>
 VINA RESULT:      -7.2      0.000      0.000
  Name = 
  14 active torsions:
  status: ('A' for Active; 'I' for Inactive)
    1  A    between atoms: O_1  and  C_10
    2  A    between atoms: O_1  and  C_28
    3  A    between atoms: C_2  and  N_27
    4  A    between atoms: C_2  and  C_28
    5  A    between atoms: C_5  and  C_15
    6  A    between atoms: C_6  and  O_11
    7  A    between atoms: C_6  and  C_32
    8  A    between atoms: C_7  and  C_17
    9  A    between atoms: C_10  and  C_13
   10  A    between atoms: O_11  and  P_26
   11  A    between atoms: C_13  and  C_22
   12  A    between atoms: C_15  and  N_25
   13  A    between atoms: C_17  and  N_25
   14  A    between atoms: C_21  and  C_32
                            x       y       z     vdW  Elec       q    Type
                         _______ _______ _______ _____ _____    ______ ____

>  <TORSDO>
F 14

$$$$
=
 OpenBabel10232408163D

 32 33  0  0  1  0  0  0  0  0999 V2000
  187.2390  178.2510  138.7750 O   0  0  0  0  0  0  0  0  0  0  0  0
  188.0660  178.4690  140.7850 C   0  0  0  0  0  0  0  0  0  0  0  0
  188.3530  178.1910  139.4670 C   0  0  0  0  0  0  0  0  0  0  0  0
  186.7040  178.6790  140.7910 C   0  0  0  0  0  0  0  0  0  0  0  0
  186.2240  178.5370  139.5390 N   0  0  0  0  0  0  0  0  0  0  0  0
  185.8520  178.9550  141.9860 C   0  0  0  0  0  2  0  0  0  0  0  0
  184.5150  178.2450  141.8730 C   0  0  0  0  0  2  0  0  0  0  0  0
  183.6620  178.6660  142.8920 O   0  0  0  0  0  0  0  0  0  0  0  0
  184.4730  179.4020  143.7530 C   0  0  0  0  0  2  0  0  0  0  0  0
  184.3050  178.8950  145.1760 C   0  0  0  0  0  2  0  0  0  0  0  0
  185.6120  178.4770  147.0640 C   0  0  0  0  0  1  0  0  0  0  0  0
  185.3410  179.4590  146.0270 N   0  0  0  0  0  2  0  0  0  0  0  0
  188.9960  178.4610  141.9500 C   0  0  0  0  0  2  0  0  0  0  0  0
  188.9040  177.1800  142.6360 N   0  0  0  0  0  2  0  0  0  0  0  0
  190.2670  176.7680  142.9300 C   0  0  1  0  0  3  0  0  0  0  0  0
  191.2550  177.7100  142.2620 C   0  0  0  0  0  1  0  0  0  0  0  0
  191.5910  175.8330  144.9180 C   0  0  0  0  0  0  0  0  0  0  0  0
  190.5030  176.6920  144.4160 C   0  0  0  0  0  0  0  0  0  0  0  0
  191.9480  175.8730  146.3010 N   0  0  0  0  0  0  0  0  0  0  0  0
  189.7950  177.4290  145.2950 C   0  0  0  0  0  0  0  0  0  0  0  0
  192.2370  175.0950  144.1310 O   0  0  0  0  0  0  0  0  0  0  0  0
  191.2720  176.5710  147.1630 C   0  0  0  0  0  3  0  0  0  0  0  0
  188.7990  178.2910  144.8440 O   0  0  0  0  0  1  0  0  0  0  0  0
  188.8310  176.7220  147.4660 C   0  0  0  0  0  1  0  0  0  0  0  0
  190.0350  177.3440  146.7860 C   0  0  2  0  0  3  0  0  0  0  0  0
  189.6990  177.9030  138.8860 C   0  0  0  0  0  2  0  0  0  0  0  0
  189.7860  176.4450  138.4650 C   0  0  0  0  0  2  0  0  0  0  0  0
  190.9100  175.8440  139.0410 O   0  0  0  0  0  0  0  0  0  0  0  0
  191.4120  176.2870  136.3430 O   0  0  0  0  0  0  0  0  0  0  0  0
  192.0990  175.8440  137.8280 P   0  0  0  0  0  0  0  0  0  0  0  0
  193.2060  176.8120  138.1830 O   0  0  0  0  0  1  0  0  0  0  0  0
  192.7530  174.2880  137.6940 O   0  0  0  0  0  1  0  0  0  0  0  0
  1  3  1  0  0  0  0
  1  5  1  0  0  0  0
  2  4  1  0  0  0  0
  2 13  1  0  0  0  0
  3  2  2  0  0  0  0
  4  6  1  0  0  0  0
  5  4  2  0  0  0  0
  7  6  1  0  0  0  0
  7  8  1  0  0  0  0
  8  9  1  0  0  0  0
  9 10  1  0  0  0  0
 10 12  1  0  0  0  0
 12 11  1  0  0  0  0
 13 14  1  0  0  0  0
 14 15  1  0  0  0  0
 15 16  1  1  0  0  0
 15 18  1  0  0  0  0
 17 19  1  0  0  0  0
 18 17  1  0  0  0  0
 18 20  2  0  0  0  0
 19 22  2  0  0  0  0
 20 25  1  0  0  0  0
 21 17  2  0  0  0  0
 23 20  1  0  0  0  0
 25 22  1  0  0  0  0
 25 24  1  1  0  0  0
 26  3  1  0  0  0  0
 27 26  1  0  0  0  0
 27 28  1  0  0  0  0
 29 30  2  0  0  0  0
 30 31  1  0  0  0  0
 30 28  1  0  0  0  0
 32 30  1  0  0  0  0
M  END
>  <MODEL>
2

>  <REMARK>
 VINA RESULT:      -7.1      3.000      7.652
  Name = 
  14 active torsions:
  status: ('A' for Active; 'I' for Inactive)
    1  A    between atoms: O_1  and  C_10
    2  A    between atoms: O_1  and  C_28
    3  A    between atoms: C_2  and  N_27
    4  A    between atoms: C_2  and  C_28
    5  A    between atoms: C_5  and  C_15
    6  A    between atoms: C_6  and  O_11
    7  A    between atoms: C_6  and  C_32
    8  A    between atoms: C_7  and  C_17
    9  A    between atoms: C_10  and  C_13
   10  A    between atoms: O_11  and  P_26
   11  A    between atoms: C_13  and  C_22
   12  A    between atoms: C_15  and  N_25
   13  A    between atoms: C_17  and  N_25
   14  A    between atoms: C_21  and  C_32
                            x       y       z     vdW  Elec       q    Type
                         _______ _______ _______ _____ _____    ______ ____

>  <TORSDO>
F 14

$$$$
=
 OpenBabel10232408163D

 32 33  0  0  1  0  0  0  0  0999 V2000
  186.4880  178.5980  146.7570 O   0  0  0  0  0  0  0  0  0  0  0  0
  186.3470  178.0100  144.6580 C   0  0  0  0  0  0  0  0  0  0  0  0
  187.0340  177.8350  145.8390 C   0  0  0  0  0  0  0  0  0  0  0  0
  185.3790  178.9380  144.9700 C   0  0  0  0  0  0  0  0  0  0  0  0
  185.4910  179.2820  146.2700 N   0  0  0  0  0  0  0  0  0  0  0  0
  184.3880  179.5420  144.0300 C   0  0  0  0  0  2  0  0  0  0  0  0
  183.0800  178.7710  144.0530 C   0  0  0  0  0  2  0  0  0  0  0  0
  182.0330  179.5920  143.6370 O   0  0  0  0  0  0  0  0  0  0  0  0
  180.9390  178.7370  143.5120 C   0  0  0  0  0  2  0  0  0  0  0  0
  180.2540  178.9730  142.1770 C   0  0  0  0  0  2  0  0  0  0  0  0
  181.5550  178.7600  140.2500 C   0  0  0  0  0  1  0  0  0  0  0  0
  180.7410  178.0150  141.1970 N   0  0  0  0  0  2  0  0  0  0  0  0
  186.6360  177.4010  143.3280 C   0  0  0  0  0  2  0  0  0  0  0  0
  188.0510  177.0710  143.2420 N   0  0  0  0  0  2  0  0  0  0  0  0
  188.6820  178.1430  142.4880 C   0  0  1  0  0  3  0  0  0  0  0  0
  189.8840  178.6800  143.2480 C   0  0  0  0  0  1  0  0  0  0  0  0
  190.2620  176.8260  140.9570 C   0  0  0  0  0  0  0  0  0  0  0  0
  189.0700  177.6800  141.1080 C   0  0  0  0  0  0  0  0  0  0  0  0
  190.5570  176.2330  139.6900 N   0  0  0  0  0  0  0  0  0  0  0  0
  188.3310  177.9680  140.0180 C   0  0  0  0  0  0  0  0  0  0  0  0
  191.0020  176.5800  141.9440 O   0  0  0  0  0  0  0  0  0  0  0  0
  189.8600  176.5060  138.6280 C   0  0  0  0  0  3  0  0  0  0  0  0
  187.1690  178.7260  140.1390 O   0  0  0  0  0  1  0  0  0  0  0  0
  189.1120  178.6960  137.7810 C   0  0  0  0  0  1  0  0  0  0  0  0
  188.7310  177.5020  138.6360 C   0  0  2  0  0  3  0  0  0  0  0  0
  188.1840  176.9120  146.0770 C   0  0  0  0  0  2  0  0  0  0  0  0
  189.3420  177.6710  146.7060 C   0  0  0  0  0  2  0  0  0  0  0  0
  189.8340  176.9670  147.8100 O   0  0  0  0  0  0  0  0  0  0  0  0
  191.8390  177.2090  145.8990 O   0  0  0  0  0  0  0  0  0  0  0  0
  191.4440  176.5850  147.4250 P   0  0  0  0  0  0  0  0  0  0  0  0
  192.3800  177.1610  148.4650 O   0  0  0  0  0  1  0  0  0  0  0  0
  191.6220  174.9010  147.3980 O   0  0  0  0  0  1  0  0  0  0  0  0
  2  4  1  0  0  0  0
  2  3  2  0  0  0  0
  3 26  1  0  0  0  0
  3  1  1  0  0  0  0
  4  5  2  0  0  0  0
  5  1  1  0  0  0  0
  6  7  1  0  0  0  0
  6  4  1  0  0  0  0
  8  7  1  0  0  0  0
  9  8  1  0  0  0  0
 10  9  1  0  0  0  0
 11 12  1  0  0  0  0
 12 10  1  0  0  0  0
 13  2  1  0  0  0  0
 14 13  1  0  0  0  0
 15 14  1  0  0  0  0
 15 16  1  1  0  0  0
 17 18  1  0  0  0  0
 17 21  2  0  0  0  0
 18 15  1  0  0  0  0
 19 17  1  0  0  0  0
 20 23  1  0  0  0  0
 20 18  2  0  0  0  0
 22 25  1  0  0  0  0
 22 19  2  0  0  0  0
 25 24  1  6  0  0  0
 25 20  1  0  0  0  0
 26 27  1  0  0  0  0
 27 28  1  0  0  0  0
 29 30  2  0  0  0  0
 30 28  1  0  0  0  0
 30 31  1  0  0  0  0
 32 30  1  0  0  0  0
M  END
>  <MODEL>
3

>  <REMARK>
 VINA RESULT:      -6.9      2.987      7.041
  Name = 
  14 active torsions:
  status: ('A' for Active; 'I' for Inactive)
    1  A    between atoms: O_1  and  C_10
    2  A    between atoms: O_1  and  C_28
    3  A    between atoms: C_2  and  N_27
    4  A    between atoms: C_2  and  C_28
    5  A    between atoms: C_5  and  C_15
    6  A    between atoms: C_6  and  O_11
    7  A    between atoms: C_6  and  C_32
    8  A    between atoms: C_7  and  C_17
    9  A    between atoms: C_10  and  C_13
   10  A    between atoms: O_11  and  P_26
   11  A    between atoms: C_13  and  C_22
   12  A    between atoms: C_15  and  N_25
   13  A    between atoms: C_17  and  N_25
   14  A    between atoms: C_21  and  C_32
                            x       y       z     vdW  Elec       q    Type
                         _______ _______ _______ _____ _____    ______ ____

>  <TORSDO>
F 14

$$$$
=
 OpenBabel10232408163D

 32 33  0  0  1  0  0  0  0  0999 V2000
  188.1460  176.5430  143.3050 O   0  0  0  0  0  0  0  0  0  0  0  0
  188.3360  177.7740  141.5110 C   0  0  0  0  0  0  0  0  0  0  0  0
  188.9570  176.8460  142.3180 C   0  0  0  0  0  0  0  0  0  0  0  0
  187.1180  177.9830  142.1190 C   0  0  0  0  0  0  0  0  0  0  0  0
  187.0300  177.2120  143.2220 N   0  0  0  0  0  0  0  0  0  0  0  0
  186.0650  178.9520  141.6930 C   0  0  0  0  0  2  0  0  0  0  0  0
  185.2640  179.4410  142.8870 C   0  0  0  0  0  2  0  0  0  0  0  0
  183.9530  178.9730  142.8080 O   0  0  0  0  0  0  0  0  0  0  0  0
  183.5740  178.7560  144.1310 C   0  0  0  0  0  2  0  0  0  0  0  0
  184.6830  179.2120  145.0640 C   0  0  0  0  0  2  0  0  0  0  0  0
  185.7880  178.6850  147.0520 C   0  0  0  0  0  1  0  0  0  0  0  0
  184.5030  178.6100  146.3760 N   0  0  0  0  0  2  0  0  0  0  0  0
  188.8870  178.4570  140.3060 C   0  0  0  0  0  2  0  0  0  0  0  0
  188.8370  177.5510  139.1680 N   0  0  0  0  0  2  0  0  0  0  0  0
  188.0920  178.2350  138.1230 C   0  0  1  0  0  3  0  0  0  0  0  0
  189.0240  178.6340  136.9910 C   0  0  0  0  0  1  0  0  0  0  0  0
  185.5770  177.8880  137.7640 C   0  0  0  0  0  0  0  0  0  0  0  0
  186.9550  177.3840  137.6220 C   0  0  0  0  0  0  0  0  0  0  0  0
  184.4950  177.1860  137.1470 N   0  0  0  0  0  0  0  0  0  0  0  0
  187.1580  176.2090  136.9930 C   0  0  0  0  0  0  0  0  0  0  0  0
  185.3470  178.9550  138.3890 O   0  0  0  0  0  0  0  0  0  0  0  0
  184.6720  176.0490  136.5450 C   0  0  0  0  0  3  0  0  0  0  0  0
  188.4530  175.7360  136.7950 O   0  0  0  0  0  1  0  0  0  0  0  0
  185.9380  174.0730  137.2970 C   0  0  0  0  0  1  0  0  0  0  0  0
  186.0100  175.3590  136.4960 C   0  0  2  0  0  3  0  0  0  0  0  0
  190.3070  176.2410  142.1120 C   0  0  0  0  0  2  0  0  0  0  0  0
  191.3030  176.8390  143.0920 C   0  0  0  0  0  2  0  0  0  0  0  0
  191.5000  175.9700  144.1690 O   0  0  0  0  0  0  0  0  0  0  0  0
  189.7370  176.9060  146.1040 O   0  0  0  0  0  1  0  0  0  0  0  0
  191.3430  176.9290  145.5630 P   0  0  0  0  0  0  0  0  0  0  0  0
  192.2530  176.4130  146.6560 O   0  0  0  0  0  1  0  0  0  0  0  0
  191.7800  178.5210  145.1910 O   0  0  0  0  0  0  0  0  0  0  0  0
  2  4  1  0  0  0  0
  2  3  2  0  0  0  0
  3  1  1  0  0  0  0
  4  5  2  0  0  0  0
  5  1  1  0  0  0  0
  6  4  1  0  0  0  0
  6  7  1  0  0  0  0
  8  7  1  0  0  0  0
  8  9  1  0  0  0  0
  9 10  1  0  0  0  0
 10 12  1  0  0  0  0
 12 11  1  0  0  0  0
 13  2  1  0  0  0  0
 14 13  1  0  0  0  0
 15 16  1  6  0  0  0
 15 14  1  0  0  0  0
 17 21  2  0  0  0  0
 18 17  1  0  0  0  0
 18 15  1  0  0  0  0
 19 17  1  0  0  0  0
 20 18  2  0  0  0  0
 22 19  2  0  0  0  0
 23 20  1  0  0  0  0
 25 22  1  0  0  0  0
 25 20  1  0  0  0  0
 25 24  1  1  0  0  0
 26  3  1  0  0  0  0
 26 27  1  0  0  0  0
 27 28  1  0  0  0  0
 28 30  1  0  0  0  0
 30 29  1  0  0  0  0
 30 31  1  0  0  0  0
 32 30  2  0  0  0  0
M  END
>  <MODEL>
4

>  <REMARK>
 VINA RESULT:      -6.9      3.419      6.796
  Name = 
  14 active torsions:
  status: ('A' for Active; 'I' for Inactive)
    1  A    between atoms: O_1  and  C_10
    2  A    between atoms: O_1  and  C_28
    3  A    between atoms: C_2  and  N_27
    4  A    between atoms: C_2  and  C_28
    5  A    between atoms: C_5  and  C_15
    6  A    between atoms: C_6  and  O_11
    7  A    between atoms: C_6  and  C_32
    8  A    between atoms: C_7  and  C_17
    9  A    between atoms: C_10  and  C_13
   10  A    between atoms: O_11  and  P_26
   11  A    between atoms: C_13  and  C_22
   12  A    between atoms: C_15  and  N_25
   13  A    between atoms: C_17  and  N_25
   14  A    between atoms: C_21  and  C_32
                            x       y       z     vdW  Elec       q    Type
                         _______ _______ _______ _____ _____    ______ ____

>  <TORSDO>
F 14

$$$$
=
 OpenBabel10232408163D

 32 33  0  0  1  0  0  0  0  0999 V2000
  183.7880  178.9350  144.6630 O   0  0  0  0  0  0  0  0  0  0  0  0
  185.8390  178.1860  144.6280 C   0  0  0  0  0  0  0  0  0  0  0  0
  184.6700  178.3160  143.9120 C   0  0  0  0  0  0  0  0  0  0  0  0
  185.5520  178.7640  145.8440 C   0  0  0  0  0  0  0  0  0  0  0  0
  184.2810  179.2160  145.8360 N   0  0  0  0  0  0  0  0  0  0  0  0
  186.4570  178.8380  147.0300 C   0  0  0  0  0  2  0  0  0  0  0  0
  187.1740  177.5170  147.2460 C   0  0  0  0  0  2  0  0  0  0  0  0
  187.8940  177.5530  148.4400 O   0  0  0  0  0  0  0  0  0  0  0  0
  189.1900  177.9030  148.0620 C   0  0  0  0  0  2  0  0  0  0  0  0
  189.6670  176.9810  146.9520 C   0  0  0  0  0  2  0  0  0  0  0  0
  191.5390  176.5970  145.6100 C   0  0  0  0  0  1  0  0  0  0  0  0
  191.1190  176.8990  146.9700 N   0  0  0  0  0  2  0  0  0  0  0  0
  187.0970  177.5010  144.2140 C   0  0  0  0  0  2  0  0  0  0  0  0
  187.7260  178.2490  143.1350 N   0  0  0  0  0  2  0  0  0  0  0  0
  188.9130  177.5030  142.7490 C   0  0  1  0  0  3  0  0  0  0  0  0
  188.7530  176.0370  143.1170 C   0  0  0  0  0  1  0  0  0  0  0  0
  188.1660  178.2560  140.4150 C   0  0  0  0  0  0  0  0  0  0  0  0
  189.2050  177.6690  141.2810 C   0  0  0  0  0  0  0  0  0  0  0  0
  188.4720  178.5830  139.0580 N   0  0  0  0  0  0  0  0  0  0  0  0
  190.4020  177.3570  140.7440 C   0  0  0  0  0  0  0  0  0  0  0  0
  187.0220  178.5120  140.8710 O   0  0  0  0  0  0  0  0  0  0  0  0
  189.6170  178.2830  138.5230 C   0  0  0  0  0  3  0  0  0  0  0  0
  191.4200  176.8530  141.5490 O   0  0  0  0  0  1  0  0  0  0  0  0
  190.8700  176.1630  138.6240 C   0  0  0  0  0  1  0  0  0  0  0  0
  190.6830  177.5240  139.2680 C   0  0  2  0  0  3  0  0  0  0  0  0
  184.4260  177.8750  142.5070 C   0  0  0  0  0  2  0  0  0  0  0  0
  183.7360  178.9800  141.7230 C   0  0  0  0  0  2  0  0  0  0  0  0
  182.9090  178.4280  140.7400 O   0  0  0  0  0  0  0  0  0  0  0  0
  182.2590  179.6640  138.3360 O   0  0  0  0  0  0  0  0  0  0  0  0
  183.5160  179.0010  139.2600 P   0  0  0  0  0  0  0  0  0  0  0  0
  184.5750  180.0530  139.5030 O   0  0  0  0  0  1  0  0  0  0  0  0
  184.2080  177.7110  138.4090 O   0  0  0  0  0  1  0  0  0  0  0  0
  1  5  1  0  0  0  0
  2  4  1  0  0  0  0
  3  2  2  0  0  0  0
  3  1  1  0  0  0  0
  4  6  1  0  0  0  0
  5  4  2  0  0  0  0
  6  7  1  0  0  0  0
  7  8  1  0  0  0  0
  9  8  1  0  0  0  0
 10 12  1  0  0  0  0
 10  9  1  0  0  0  0
 11 12  1  0  0  0  0
 13  2  1  0  0  0  0
 14 13  1  0  0  0  0
 15 16  1  6  0  0  0
 15 14  1  0  0  0  0
 17 21  2  0  0  0  0
 17 18  1  0  0  0  0
 18 15  1  0  0  0  0
 19 17  1  0  0  0  0
 20 18  2  0  0  0  0
 20 23  1  0  0  0  0
 22 19  2  0  0  0  0
 22 25  1  0  0  0  0
 25 24  1  6  0  0  0
 25 20  1  0  0  0  0
 26  3  1  0  0  0  0
 27 26  1  0  0  0  0
 28 27  1  0  0  0  0
 29 30  2  0  0  0  0
 30 31  1  0  0  0  0
 30 28  1  0  0  0  0
 32 30  1  0  0  0  0
M  END
>  <MODEL>
5

>  <REMARK>
 VINA RESULT:      -6.8      1.386      1.733
  Name = 
  14 active torsions:
  status: ('A' for Active; 'I' for Inactive)
    1  A    between atoms: O_1  and  C_10
    2  A    between atoms: O_1  and  C_28
    3  A    between atoms: C_2  and  N_27
    4  A    between atoms: C_2  and  C_28
    5  A    between atoms: C_5  and  C_15
    6  A    between atoms: C_6  and  O_11
    7  A    between atoms: C_6  and  C_32
    8  A    between atoms: C_7  and  C_17
    9  A    between atoms: C_10  and  C_13
   10  A    between atoms: O_11  and  P_26
   11  A    between atoms: C_13  and  C_22
   12  A    between atoms: C_15  and  N_25
   13  A    between atoms: C_17  and  N_25
   14  A    between atoms: C_21  and  C_32
                            x       y       z     vdW  Elec       q    Type
                         _______ _______ _______ _____ _____    ______ ____

>  <TORSDO>
F 14

$$$$
=
 OpenBabel10232408163D

 32 33  0  0  1  0  0  0  0  0999 V2000
  190.5460  177.2930  139.3070 O   0  0  0  0  0  0  0  0  0  0  0  0
  189.1340  178.0760  140.7780 C   0  0  0  0  0  0  0  0  0  0  0  0
  189.4150  177.9490  139.4360 C   0  0  0  0  0  0  0  0  0  0  0  0
  190.1950  177.4570  141.4010 C   0  0  0  0  0  0  0  0  0  0  0  0
  191.0480  176.9850  140.4690 N   0  0  0  0  0  0  0  0  0  0  0  0
  190.4310  177.3620  142.8730 C   0  0  0  0  0  2  0  0  0  0  0  0
  190.8120  175.9470  143.2700 C   0  0  0  0  0  2  0  0  0  0  0  0
  191.6100  175.9690  144.4130 O   0  0  0  0  0  0  0  0  0  0  0  0
  191.2680  177.1540  145.0610 C   0  0  0  0  0  2  0  0  0  0  0  0
  190.8320  176.8520  146.4850 C   0  0  0  0  0  2  0  0  0  0  0  0
  192.3330  175.5240  147.6840 C   0  0  0  0  0  1  0  0  0  0  0  0
  191.9820  176.9020  147.3750 N   0  0  0  0  0  2  0  0  0  0  0  0
  187.9920  178.7940  141.4130 C   0  0  0  0  0  2  0  0  0  0  0  0
  187.1250  177.8340  142.0800 N   0  0  0  0  0  2  0  0  0  0  0  0
  185.9320  178.5610  142.4840 C   0  0  1  0  0  3  0  0  0  0  0  0
  184.7190  178.0350  141.7340 C   0  0  0  0  0  1  0  0  0  0  0  0
  184.6940  179.3350  144.5920 C   0  0  0  0  0  0  0  0  0  0  0  0
  185.7280  178.4850  143.9740 C   0  0  0  0  0  0  0  0  0  0  0  0
  184.3620  179.1610  145.9710 N   0  0  0  0  0  0  0  0  0  0  0  0
  186.4150  177.6230  144.7520 C   0  0  0  0  0  0  0  0  0  0  0  0
  184.0710  180.1850  143.9060 O   0  0  0  0  0  0  0  0  0  0  0  0
  185.0180  178.3420  146.7360 C   0  0  0  0  0  3  0  0  0  0  0  0
  187.3580  176.7690  144.1860 O   0  0  0  0  0  1  0  0  0  0  0  0
  187.4530  178.0430  146.9630 C   0  0  0  0  0  1  0  0  0  0  0  0
  186.2070  177.5570  146.2480 C   0  0  2  0  0  3  0  0  0  0  0  0
  188.5780  178.4290  138.2960 C   0  0  0  0  0  2  0  0  0  0  0  0
  187.2530  177.6850  138.2710 C   0  0  0  0  0  2  0  0  0  0  0  0
  186.4340  178.1950  137.2580 O   0  0  0  0  0  0  0  0  0  0  0  0
  186.7790  175.4880  136.7270 O   0  0  0  0  0  1  0  0  0  0  0  0
  185.7860  176.8360  136.4690 P   0  0  0  0  0  0  0  0  0  0  0  0
  184.3940  176.5470  136.9870 O   0  0  0  0  0  1  0  0  0  0  0  0
  185.6990  177.1510  134.8080 O   0  0  0  0  0  0  0  0  0  0  0  0
  1  3  1  0  0  0  0
  1  5  1  0  0  0  0
  2  4  1  0  0  0  0
  2 13  1  0  0  0  0
  3  2  2  0  0  0  0
  4  6  1  0  0  0  0
  5  4  2  0  0  0  0
  6  7  1  0  0  0  0
  7  8  1  0  0  0  0
  8  9  1  0  0  0  0
  9 10  1  0  0  0  0
 10 12  1  0  0  0  0
 12 11  1  0  0  0  0
 13 14  1  0  0  0  0
 14 15  1  0  0  0  0
 15 16  1  6  0  0  0
 15 18  1  0  0  0  0
 17 19  1  0  0  0  0
 18 17  1  0  0  0  0
 18 20  2  0  0  0  0
 19 22  2  0  0  0  0
 20 25  1  0  0  0  0
 21 17  2  0  0  0  0
 23 20  1  0  0  0  0
 25 22  1  0  0  0  0
 25 24  1  1  0  0  0
 26  3  1  0  0  0  0
 27 26  1  0  0  0  0
 28 27  1  0  0  0  0
 30 29  1  0  0  0  0
 30 31  1  0  0  0  0
 30 28  1  0  0  0  0
 32 30  2  0  0  0  0
M  END
>  <MODEL>
6

>  <REMARK>
 VINA RESULT:      -6.7      2.696      6.206
  Name = 
  14 active torsions:
  status: ('A' for Active; 'I' for Inactive)
    1  A    between atoms: O_1  and  C_10
    2  A    between atoms: O_1  and  C_28
    3  A    between atoms: C_2  and  N_27
    4  A    between atoms: C_2  and  C_28
    5  A    between atoms: C_5  and  C_15
    6  A    between atoms: C_6  and  O_11
    7  A    between atoms: C_6  and  C_32
    8  A    between atoms: C_7  and  C_17
    9  A    between atoms: C_10  and  C_13
   10  A    between atoms: O_11  and  P_26
   11  A    between atoms: C_13  and  C_22
   12  A    between atoms: C_15  and  N_25
   13  A    between atoms: C_17  and  N_25
   14  A    between atoms: C_21  and  C_32
                            x       y       z     vdW  Elec       q    Type
                         _______ _______ _______ _____ _____    ______ ____

>  <TORSDO>
F 14

$$$$
=
 OpenBabel10232408163D

 32 33  0  0  1  0  0  0  0  0999 V2000
  186.2990  178.6590  139.5240 O   0  0  0  0  0  0  0  0  0  0  0  0
  188.0320  178.4030  140.8290 C   0  0  0  0  0  0  0  0  0  0  0  0
  186.7100  178.7850  140.7650 C   0  0  0  0  0  0  0  0  0  0  0  0
  188.3440  178.0620  139.5320 C   0  0  0  0  0  0  0  0  0  0  0  0
  187.2570  178.2300  138.7510 N   0  0  0  0  0  0  0  0  0  0  0  0
  189.6800  177.6340  139.0210 C   0  0  0  0  0  2  0  0  0  0  0  0
  189.6860  177.5750  137.5040 C   0  0  0  0  0  2  0  0  0  0  0  0
  190.5830  176.6010  137.0670 O   0  0  0  0  0  0  0  0  0  0  0  0
  191.2290  176.1690  138.2230 C   0  0  0  0  0  2  0  0  0  0  0  0
  192.7330  176.2920  138.0470 C   0  0  0  0  0  2  0  0  0  0  0  0
  194.5610  174.8400  138.1030 C   0  0  0  0  0  1  0  0  0  0  0  0
  193.2660  175.0640  137.4780 N   0  0  0  0  0  2  0  0  0  0  0  0
  188.9390  178.4320  142.0120 C   0  0  0  0  0  2  0  0  0  0  0  0
  188.8730  177.1560  142.7080 N   0  0  0  0  0  2  0  0  0  0  0  0
  190.2460  176.7540  142.9700 C   0  0  1  0  0  3  0  0  0  0  0  0
  191.2110  177.7140  142.2930 C   0  0  0  0  0  1  0  0  0  0  0  0
  191.5970  175.7850  144.9220 C   0  0  0  0  0  0  0  0  0  0  0  0
  190.5120  176.6640  144.4500 C   0  0  0  0  0  0  0  0  0  0  0  0
  191.9840  175.8090  146.2980 N   0  0  0  0  0  0  0  0  0  0  0  0
  189.8340  177.4050  145.3490 C   0  0  0  0  0  0  0  0  0  0  0  0
  192.2160  175.0430  144.1160 O   0  0  0  0  0  0  0  0  0  0  0  0
  191.3370  176.5100  147.1780 C   0  0  0  0  0  3  0  0  0  0  0  0
  188.8410  178.2850  144.9260 O   0  0  0  0  0  1  0  0  0  0  0  0
  188.9060  176.6960  147.5350 C   0  0  0  0  0  1  0  0  0  0  0  0
  190.1050  177.3040  146.8330 C   0  0  2  0  0  3  0  0  0  0  0  0
  185.8520  179.2360  141.9010 C   0  0  0  0  0  2  0  0  0  0  0  0
  185.2310  178.0350  142.5950 C   0  0  0  0  0  2  0  0  0  0  0  0
  185.5140  178.0720  143.9650 O   0  0  0  0  0  0  0  0  0  0  0  0
  184.6370  180.6680  144.4360 O   0  0  0  0  0  1  0  0  0  0  0  0
  184.2890  179.0240  144.6580 P   0  0  0  0  0  0  0  0  0  0  0  0
  182.9550  178.6990  144.0230 O   0  0  0  0  0  0  0  0  0  0  0  0
  184.2030  178.6940  146.3160 O   0  0  0  0  0  1  0  0  0  0  0  0
  1  3  1  0  0  0  0
  2 13  1  0  0  0  0
  3  2  2  0  0  0  0
  3 26  1  0  0  0  0
  4  2  1  0  0  0  0
  5  1  1  0  0  0  0
  5  4  2  0  0  0  0
  6  4  1  0  0  0  0
  7  6  1  0  0  0  0
  8  7  1  0  0  0  0
  8  9  1  0  0  0  0
 10  9  1  0  0  0  0
 12 10  1  0  0  0  0
 12 11  1  0  0  0  0
 13 14  1  0  0  0  0
 14 15  1  0  0  0  0
 15 16  1  1  0  0  0
 15 18  1  0  0  0  0
 17 19  1  0  0  0  0
 18 17  1  0  0  0  0
 18 20  2  0  0  0  0
 19 22  2  0  0  0  0
 20 25  1  0  0  0  0
 21 17  2  0  0  0  0
 23 20  1  0  0  0  0
 25 22  1  0  0  0  0
 25 24  1  1  0  0  0
 26 27  1  0  0  0  0
 27 28  1  0  0  0  0
 28 30  1  0  0  0  0
 29 30  1  0  0  0  0
 30 32  1  0  0  0  0
 31 30  2  0  0  0  0
M  END
>  <MODEL>
7

>  <REMARK>
 VINA RESULT:      -6.6      2.416      6.740
  Name = 
  14 active torsions:
  status: ('A' for Active; 'I' for Inactive)
    1  A    between atoms: O_1  and  C_10
    2  A    between atoms: O_1  and  C_28
    3  A    between atoms: C_2  and  N_27
    4  A    between atoms: C_2  and  C_28
    5  A    between atoms: C_5  and  C_15
    6  A    between atoms: C_6  and  O_11
    7  A    between atoms: C_6  and  C_32
    8  A    between atoms: C_7  and  C_17
    9  A    between atoms: C_10  and  C_13
   10  A    between atoms: O_11  and  P_26
   11  A    between atoms: C_13  and  C_22
   12  A    between atoms: C_15  and  N_25
   13  A    between atoms: C_17  and  N_25
   14  A    between atoms: C_21  and  C_32
                            x       y       z     vdW  Elec       q    Type
                         _______ _______ _______ _____ _____    ______ ____

>  <TORSDO>
F 14

$$$$
=
 OpenBabel10232408163D

 32 33  0  0  1  0  0  0  0  0999 V2000
  189.7180  178.3220  138.4020 O   0  0  0  0  0  0  0  0  0  0  0  0
  189.4470  177.5810  140.4390 C   0  0  0  0  0  0  0  0  0  0  0  0
  190.2650  177.5720  139.3310 C   0  0  0  0  0  0  0  0  0  0  0  0
  188.3900  178.3820  140.0660 C   0  0  0  0  0  0  0  0  0  0  0  0
  188.5850  178.8220  138.8070 N   0  0  0  0  0  0  0  0  0  0  0  0
  187.1720  178.6820  140.8770 C   0  0  0  0  0  2  0  0  0  0  0  0
  185.9350  178.7270  139.9970 C   0  0  0  0  0  2  0  0  0  0  0  0
  184.9590  179.5300  140.5850 O   0  0  0  0  0  0  0  0  0  0  0  0
  183.8380  178.7080  140.6900 C   0  0  0  0  0  2  0  0  0  0  0  0
  182.8430  179.0550  139.5950 C   0  0  0  0  0  2  0  0  0  0  0  0
  182.0000  180.9280  138.4840 C   0  0  0  0  0  1  0  0  0  0  0  0
  183.2270  180.3060  138.9590 N   0  0  0  0  0  2  0  0  0  0  0  0
  189.6220  176.8310  141.7160 C   0  0  0  0  0  2  0  0  0  0  0  0
  189.7380  177.7720  142.8200 N   0  0  0  0  0  2  0  0  0  0  0  0
  188.6610  177.4610  143.7460 C   0  0  1  0  0  3  0  0  0  0  0  0
  187.9790  176.1640  143.3400 C   0  0  0  0  0  1  0  0  0  0  0  0
  190.5190  176.8620  145.4080 C   0  0  0  0  0  0  0  0  0  0  0  0
  189.1660  177.3920  145.1640 C   0  0  0  0  0  0  0  0  0  0  0  0
  191.0900  176.9430  146.7160 N   0  0  0  0  0  0  0  0  0  0  0  0
  188.4480  177.8550  146.2070 C   0  0  0  0  0  0  0  0  0  0  0  0
  191.1960  176.3760  144.4650 O   0  0  0  0  0  0  0  0  0  0  0  0
  190.4100  177.3780  147.7330 C   0  0  0  0  0  3  0  0  0  0  0  0
  187.1890  178.4130  145.9990 O   0  0  0  0  0  1  0  0  0  0  0  0
  188.1160  176.8070  148.4280 C   0  0  0  0  0  1  0  0  0  0  0  0
  188.9620  177.7780  147.6270 C   0  0  2  0  0  3  0  0  0  0  0  0
  191.5750  176.8690  139.1910 C   0  0  0  0  0  2  0  0  0  0  0  0
  191.7020  176.2690  137.8000 C   0  0  0  0  0  2  0  0  0  0  0  0
  192.3450  175.0290  137.8680 O   0  0  0  0  0  0  0  0  0  0  0  0
  194.9510  175.1790  138.8230 O   0  0  0  0  0  1  0  0  0  0  0  0
  193.9650  175.3330  137.4540 P   0  0  0  0  0  0  0  0  0  0  0  0
  194.4220  174.3600  136.3890 O   0  0  0  0  0  0  0  0  0  0  0  0
  194.0950  176.9090  136.8500 O   0  0  0  0  0  1  0  0  0  0  0  0
  1  5  1  0  0  0  0
  1  3  1  0  0  0  0
  2 13  1  0  0  0  0
  3  2  2  0  0  0  0
  4  2  1  0  0  0  0
  4  6  1  0  0  0  0
  5  4  2  0  0  0  0
  7  8  1  0  0  0  0
  7  6  1  0  0  0  0
  8  9  1  0  0  0  0
 10  9  1  0  0  0  0
 11 12  1  0  0  0  0
 12 10  1  0  0  0  0
 13 14  1  0  0  0  0
 14 15  1  0  0  0  0
 15 16  1  6  0  0  0
 15 18  1  0  0  0  0
 17 19  1  0  0  0  0
 18 17  1  0  0  0  0
 18 20  2  0  0  0  0
 19 22  2  0  0  0  0
 20 25  1  0  0  0  0
 21 17  2  0  0  0  0
 23 20  1  0  0  0  0
 25 22  1  0  0  0  0
 25 24  1  1  0  0  0
 26  3  1  0  0  0  0
 27 28  1  0  0  0  0
 27 26  1  0  0  0  0
 30 28  1  0  0  0  0
 30 29  1  0  0  0  0
 31 30  2  0  0  0  0
 32 30  1  0  0  0  0
M  END
>  <MODEL>
8

>  <REMARK>
 VINA RESULT:      -6.6      3.764      9.186
  Name = 
  14 active torsions:
  status: ('A' for Active; 'I' for Inactive)
    1  A    between atoms: O_1  and  C_10
    2  A    between atoms: O_1  and  C_28
    3  A    between atoms: C_2  and  N_27
    4  A    between atoms: C_2  and  C_28
    5  A    between atoms: C_5  and  C_15
    6  A    between atoms: C_6  and  O_11
    7  A    between atoms: C_6  and  C_32
    8  A    between atoms: C_7  and  C_17
    9  A    between atoms: C_10  and  C_13
   10  A    between atoms: O_11  and  P_26
   11  A    between atoms: C_13  and  C_22
   12  A    between atoms: C_15  and  N_25
   13  A    between atoms: C_17  and  N_25
   14  A    between atoms: C_21  and  C_32
                            x       y       z     vdW  Elec       q    Type
                         _______ _______ _______ _____ _____    ______ ____

>  <TORSDO>
F 14

$$$$
=
 OpenBabel10232408163D

 32 33  0  0  1  0  0  0  0  0999 V2000
  188.3170  177.7700  138.5520 O   0  0  0  0  0  0  0  0  0  0  0  0
  188.3650  178.3130  140.6670 C   0  0  0  0  0  0  0  0  0  0  0  0
  189.1020  177.8440  139.6020 C   0  0  0  0  0  0  0  0  0  0  0  0
  187.1010  178.4870  140.1470 C   0  0  0  0  0  0  0  0  0  0  0  0
  187.1030  178.1440  138.8430 N   0  0  0  0  0  0  0  0  0  0  0  0
  185.8830  178.9200  140.8950 C   0  0  0  0  0  2  0  0  0  0  0  0
  184.6900  179.0400  139.9630 C   0  0  0  0  0  2  0  0  0  0  0  0
  183.5450  178.5430  140.5850 O   0  0  0  0  0  0  0  0  0  0  0  0
  183.8370  178.5790  141.9470 C   0  0  0  0  0  2  0  0  0  0  0  0
  182.5510  178.7110  142.7450 C   0  0  0  0  0  2  0  0  0  0  0  0
  184.0450  179.7480  144.2090 C   0  0  0  0  0  1  0  0  0  0  0  0
  182.8610  178.9050  144.1520 N   0  0  0  0  0  2  0  0  0  0  0  0
  188.8090  178.5060  142.0780 C   0  0  0  0  0  2  0  0  0  0  0  0
  188.6520  177.2590  142.8120 N   0  0  0  0  0  2  0  0  0  0  0  0
  189.5900  177.3090  143.9220 C   0  0  1  0  0  3  0  0  0  0  0  0
  190.5430  178.4800  143.7490 C   0  0  0  0  0  1  0  0  0  0  0  0
  187.4210  177.6740  145.2400 C   0  0  0  0  0  0  0  0  0  0  0  0
  188.8660  177.3830  145.2410 C   0  0  0  0  0  0  0  0  0  0  0  0
  186.6770  177.5830  146.4570 N   0  0  0  0  0  0  0  0  0  0  0  0
  189.4810  177.1330  146.4140 C   0  0  0  0  0  0  0  0  0  0  0  0
  186.8270  177.9620  144.1690 O   0  0  0  0  0  0  0  0  0  0  0  0
  187.2540  177.3500  147.5970 C   0  0  0  0  0  3  0  0  0  0  0  0
  190.8330  176.8010  146.4390 O   0  0  0  0  0  1  0  0  0  0  0  0
  189.2820  178.3770  148.5480 C   0  0  0  0  0  1  0  0  0  0  0  0
  188.7480  177.2140  147.7340 C   0  0  2  0  0  3  0  0  0  0  0  0
  190.5560  177.5060  139.6000 C   0  0  0  0  0  2  0  0  0  0  0  0
  190.8030  176.2630  138.7590 C   0  0  0  0  0  2  0  0  0  0  0  0
  191.3970  176.6160  137.5430 O   0  0  0  0  0  0  0  0  0  0  0  0
  193.8280  176.5250  138.8890 O   0  0  0  0  0  1  0  0  0  0  0  0
  192.9460  175.9190  137.5740 P   0  0  0  0  0  0  0  0  0  0  0  0
  192.8380  174.4140  137.6870 O   0  0  0  0  0  1  0  0  0  0  0  0
  193.7560  176.3050  136.1390 O   0  0  0  0  0  0  0  0  0  0  0  0
  1  5  1  0  0  0  0
  1  3  1  0  0  0  0
  2 13  1  0  0  0  0
  3  2  2  0  0  0  0
  4  2  1  0  0  0  0
  4  6  1  0  0  0  0
  5  4  2  0  0  0  0
  7  8  1  0  0  0  0
  7  6  1  0  0  0  0
  8  9  1  0  0  0  0
  9 10  1  0  0  0  0
 10 12  1  0  0  0  0
 12 11  1  0  0  0  0
 13 14  1  0  0  0  0
 14 15  1  0  0  0  0
 15 16  1  6  0  0  0
 15 18  1  0  0  0  0
 17 18  1  0  0  0  0
 17 19  1  0  0  0  0
 18 20  2  0  0  0  0
 19 22  2  0  0  0  0
 20 23  1  0  0  0  0
 20 25  1  0  0  0  0
 21 17  2  0  0  0  0
 22 25  1  0  0  0  0
 25 24  1  6  0  0  0
 26  3  1  0  0  0  0
 27 26  1  0  0  0  0
 28 30  1  0  0  0  0
 28 27  1  0  0  0  0
 30 31  1  0  0  0  0
 30 29  1  0  0  0  0
 32 30  2  0  0  0  0
M  END
>  <MODEL>
9

>  <REMARK>
 VINA RESULT:      -6.6      3.258      8.372
  Name = 
  14 active torsions:
  status: ('A' for Active; 'I' for Inactive)
    1  A    between atoms: O_1  and  C_10
    2  A    between atoms: O_1  and  C_28
    3  A    between atoms: C_2  and  N_27
    4  A    between atoms: C_2  and  C_28
    5  A    between atoms: C_5  and  C_15
    6  A    between atoms: C_6  and  O_11
    7  A    between atoms: C_6  and  C_32
    8  A    between atoms: C_7  and  C_17
    9  A    between atoms: C_10  and  C_13
   10  A    between atoms: O_11  and  P_26
   11  A    between atoms: C_13  and  C_22
   12  A    between atoms: C_15  and  N_25
   13  A    between atoms: C_17  and  N_25
   14  A    between atoms: C_21  and  C_32
                            x       y       z     vdW  Elec       q    Type
                         _______ _______ _______ _____ _____    ______ ____

>  <TORSDO>
F 14

$$$$
