=
 OpenBabel10232408203D

 30 34  0  0  1  0  0  0  0  0999 V2000
  190.8370  177.3720  140.8150 N   0  0  0  0  0  0  0  0  0  0  0  0
  192.9870  176.3470  137.8050 C   0  0  0  0  0  0  0  0  0  0  0  0
  191.4910  177.0050  139.5930 C   0  0  0  0  0  0  0  0  0  0  0  0
  188.6970  177.1220  142.0260 C   0  0  1  0  0  3  0  0  0  0  0  0
  191.6070  177.5210  142.0500 C   0  0  0  0  0  2  0  0  0  0  0  0
  194.0560  175.9610  136.9500 N   0  0  0  0  0  1  0  0  0  0  0  0
  193.1340  176.6410  139.4510 S   0  0  0  0  0  0  0  0  0  0  0  0
  190.6800  177.8570  143.2120 C   0  0  0  0  0  2  0  0  0  0  0  0
  189.4160  177.7130  140.8020 C   0  0  0  0  0  2  0  0  0  0  0  0
  189.5500  176.9150  143.2220 N   0  0  1  0  0  0  0  0  0  0  0  0
  187.4920  177.8590  143.7790 N   0  0  0  0  0  0  0  0  0  0  0  0
  188.6230  177.1510  144.3400 C   0  0  2  0  0  3  0  0  0  0  0  0
  187.5500  177.9490  142.3860 N   0  0  0  0  0  2  0  0  0  0  0  0
  191.6750  176.5330  137.3990 C   0  0  0  0  0  3  0  0  0  0  0  0
  190.8430  176.9010  138.4100 N   0  0  0  0  0  0  0  0  0  0  0  0
  185.0540  178.3350  143.8620 C   0  0  0  0  0  0  0  0  0  0  0  0
  186.2860  178.1550  144.5090 C   0  0  0  0  0  0  0  0  0  0  0  0
  183.2870  178.5900  142.3670 N   0  0  0  0  0  0  0  0  0  0  0  0
  184.7240  178.3070  142.3920 C   0  0  0  0  0  2  0  0  0  0  0  0
  185.1170  178.5600  146.6170 C   0  0  0  0  0  3  0  0  0  0  0  0
  186.3020  178.2720  145.9140 C   0  0  0  0  0  3  0  0  0  0  0  0
  183.9260  178.6160  144.5990 C   0  0  0  0  0  0  0  0  0  0  0  0
  182.4770  178.6800  141.1640 C   0  0  0  0  0  1  0  0  0  0  0  0
  183.9410  178.7310  145.9500 N   0  0  0  0  0  0  0  0  0  0  0  0
  181.6310  179.0420  144.0100 O   0  0  0  0  0  0  0  0  0  0  0  0
  182.8210  178.7760  143.6960 C   0  0  0  0  0  0  0  0  0  0  0  0
  189.2190  177.8920  145.5460 C   0  0  0  0  0  2  0  0  0  0  0  0
  189.5380  176.9440  146.5980 N   0  0  0  0  0  2  0  0  0  0  0  0
  190.8660  176.7650  146.9980 C   0  0  0  0  0  0  0  0  0  0  0  0
  191.9650  176.6170  147.3310 N   0  0  0  0  0  0  0  0  0  0  0  0
  1  5  1  0  0  0  0
  2  7  1  0  0  0  0
  3  1  1  0  0  0  0
  4  9  1  6  0  0  0
  4 13  1  0  0  0  0
  4 10  1  0  0  0  0
  5  8  1  0  0  0  0
  6  2  1  0  0  0  0
  7  3  1  0  0  0  0
  9  1  1  0  0  0  0
 10  8  1  6  0  0  0
 10 12  1  0  0  0  0
 11 12  1  0  0  0  0
 11 17  1  0  0  0  0
 12 27  1  1  0  0  0
 13 11  1  0  0  0  0
 14  2  2  0  0  0  0
 14 15  1  0  0  0  0
 15  3  2  0  0  0  0
 16 17  2  0  0  0  0
 16 22  1  0  0  0  0
 17 21  1  0  0  0  0
 18 19  1  0  0  0  0
 18 26  1  0  0  0  0
 19 16  1  0  0  0  0
 21 20  2  0  0  0  0
 22 24  2  0  0  0  0
 23 18  1  0  0  0  0
 24 20  1  0  0  0  0
 26 25  2  0  0  0  0
 26 22  1  0  0  0  0
 27 28  1  0  0  0  0
 28 29  1  0  0  0  0
 29 30  3  0  0  0  0
M  END
>  <MODEL>
1

>  <REMARK>
 VINA RESULT:      -9.5      0.000      0.000
  Name = 
  4 active torsions:
  status: ('A' for Active; 'I' for Inactive)
    1  A    between atoms: C_6  and  N_8
    2  A    between atoms: N_8  and  C_24
    3  A    between atoms: C_11  and  N_18
    4  A    between atoms: C_20  and  C_24
                            x       y       z     vdW  Elec       q    Type
                         _______ _______ _______ _____ _____    ______ ____

>  <TORSDO>
F 4

$$$$
=
 OpenBabel10232408203D

 30 34  0  0  1  0  0  0  0  0999 V2000
  190.7710  177.0350  139.5580 N   0  0  0  0  0  0  0  0  0  0  0  0
  191.5840  176.1390  135.9150 C   0  0  0  0  0  0  0  0  0  0  0  0
  190.9000  176.7230  138.1640 C   0  0  0  0  0  0  0  0  0  0  0  0
  189.2390  176.7560  141.4770 C   0  0  1  0  0  3  0  0  0  0  0  0
  191.9550  177.1010  140.4130 C   0  0  0  0  0  2  0  0  0  0  0  0
  192.2340  175.7810  134.7020 N   0  0  0  0  0  1  0  0  0  0  0  0
  192.3530  176.3390  137.3930 S   0  0  0  0  0  0  0  0  0  0  0  0
  191.5500  177.3890  141.8540 C   0  0  0  0  0  2  0  0  0  0  0  0
  189.4640  177.4010  140.1000 C   0  0  0  0  0  2  0  0  0  0  0  0
  190.4720  176.4680  142.2500 N   0  0  1  0  0  0  0  0  0  0  0  0
  188.8160  177.4170  143.5880 N   0  0  0  0  0  0  0  0  0  0  0  0
  190.0470  176.6580  143.6460 C   0  0  2  0  0  3  0  0  0  0  0  0
  188.3460  177.5820  142.2820 N   0  0  0  0  0  2  0  0  0  0  0  0
  190.2240  176.3700  136.0460 C   0  0  0  0  0  3  0  0  0  0  0  0
  189.8500  176.6980  137.3110 N   0  0  0  0  0  0  0  0  0  0  0  0
  186.6350  178.0490  144.6010 C   0  0  0  0  0  0  0  0  0  0  0  0
  187.9860  177.6940  144.7330 C   0  0  0  0  0  0  0  0  0  0  0  0
  184.4980  178.6350  143.8860 N   0  0  0  0  0  0  0  0  0  0  0  0
  185.8090  178.2490  143.3570 C   0  0  0  0  0  2  0  0  0  0  0  0
  187.6900  177.8840  147.1520 C   0  0  0  0  0  3  0  0  0  0  0  0
  188.5100  177.6120  146.0400 C   0  0  0  0  0  3  0  0  0  0  0  0
  185.8800  178.3050  145.7230 C   0  0  0  0  0  0  0  0  0  0  0  0
  183.3330  178.9480  143.0770 C   0  0  0  0  0  1  0  0  0  0  0  0
  186.3830  178.2290  146.9800 N   0  0  0  0  0  0  0  0  0  0  0  0
  183.5910  178.9700  146.0570 O   0  0  0  0  0  0  0  0  0  0  0  0
  184.5550  178.6670  145.3050 C   0  0  0  0  0  0  0  0  0  0  0  0
  191.0810  177.3200  144.5670 C   0  0  0  0  0  2  0  0  0  0  0  0
  191.8040  176.3020  145.3070 N   0  0  0  0  0  2  0  0  0  0  0  0
  191.9190  176.3990  146.6980 C   0  0  0  0  0  0  0  0  0  0  0  0
  192.0160  176.4800  147.8490 N   0  0  0  0  0  0  0  0  0  0  0  0
  1  9  1  0  0  0  0
  1  5  1  0  0  0  0
  2 14  2  0  0  0  0
  2  7  1  0  0  0  0
  3  1  1  0  0  0  0
  4  9  1  6  0  0  0
  4 10  1  0  0  0  0
  4 13  1  0  0  0  0
  5  8  1  0  0  0  0
  6  2  1  0  0  0  0
  7  3  1  0  0  0  0
 10  8  1  6  0  0  0
 10 12  1  0  0  0  0
 11 12  1  0  0  0  0
 11 17  1  0  0  0  0
 12 27  1  1  0  0  0
 13 11  1  0  0  0  0
 14 15  1  0  0  0  0
 15  3  2  0  0  0  0
 16 17  2  0  0  0  0
 16 22  1  0  0  0  0
 17 21  1  0  0  0  0
 18 26  1  0  0  0  0
 19 18  1  0  0  0  0
 19 16  1  0  0  0  0
 21 20  2  0  0  0  0
 22 24  2  0  0  0  0
 23 18  1  0  0  0  0
 24 20  1  0  0  0  0
 26 22  1  0  0  0  0
 26 25  2  0  0  0  0
 27 28  1  0  0  0  0
 28 29  1  0  0  0  0
 29 30  3  0  0  0  0
M  END
>  <MODEL>
2

>  <REMARK>
 VINA RESULT:      -9.2      1.505      1.940
  Name = 
  4 active torsions:
  status: ('A' for Active; 'I' for Inactive)
    1  A    between atoms: C_6  and  N_8
    2  A    between atoms: N_8  and  C_24
    3  A    between atoms: C_11  and  N_18
    4  A    between atoms: C_20  and  C_24
                            x       y       z     vdW  Elec       q    Type
                         _______ _______ _______ _____ _____    ______ ____

>  <TORSDO>
F 4

$$$$
=
 OpenBabel10232408203D

 30 34  0  0  1  0  0  0  0  0999 V2000
  190.0060  176.7610  138.9040 N   0  0  0  0  0  0  0  0  0  0  0  0
  192.8290  176.2490  136.3540 C   0  0  0  0  0  0  0  0  0  0  0  0
  191.1640  176.5290  138.0910 C   0  0  0  0  0  0  0  0  0  0  0  0
  189.3210  177.6780  141.0940 C   0  0  1  0  0  3  0  0  0  0  0  0
  188.7180  177.0710  138.2840 C   0  0  0  0  0  2  0  0  0  0  0  0
  193.6030  176.1500  135.1650 N   0  0  0  0  0  1  0  0  0  0  0  0
  191.2010  176.6540  136.4080 S   0  0  0  0  0  0  0  0  0  0  0  0
  187.6660  177.3310  139.3550 C   0  0  0  0  0  2  0  0  0  0  0  0
  190.0860  176.5710  140.3500 C   0  0  0  0  0  2  0  0  0  0  0  0
  188.1980  178.2870  140.3390 N   0  0  1  0  0  0  0  0  0  0  0  0
  187.6120  177.8450  142.5520 N   0  0  0  0  0  0  0  0  0  0  0  0
  187.2260  178.6200  141.3920 C   0  0  2  0  0  3  0  0  0  0  0  0
  188.8290  177.1800  142.3740 N   0  0  0  0  0  2  0  0  0  0  0  0
  193.3110  176.0280  137.6340 C   0  0  0  0  0  3  0  0  0  0  0  0
  192.3700  176.1870  138.6020 N   0  0  0  0  0  0  0  0  0  0  0  0
  187.7300  177.7600  145.0330 C   0  0  0  0  0  0  0  0  0  0  0  0
  187.0080  177.9860  143.8520 C   0  0  0  0  0  0  0  0  0  0  0  0
  189.2970  177.2410  146.6760 N   0  0  0  0  0  0  0  0  0  0  0  0
  189.1600  177.3190  145.2200 C   0  0  0  0  0  2  0  0  0  0  0  0
  185.0760  178.5000  145.2580 C   0  0  0  0  0  3  0  0  0  0  0  0
  185.6560  178.3630  143.9820 C   0  0  0  0  0  3  0  0  0  0  0  0
  187.1120  177.9070  146.2540 C   0  0  0  0  0  0  0  0  0  0  0  0
  190.5070  176.8490  147.3780 C   0  0  0  0  0  1  0  0  0  0  0  0
  185.8120  178.2670  146.3810 N   0  0  0  0  0  0  0  0  0  0  0  0
  187.8530  177.6160  148.5260 O   0  0  0  0  0  0  0  0  0  0  0  0
  188.0620  177.5930  147.2850 C   0  0  0  0  0  0  0  0  0  0  0  0
  185.7520  178.3980  141.0240 C   0  0  0  0  0  2  0  0  0  0  0  0
  185.2240  179.5810  140.3690 N   0  0  0  0  0  2  0  0  0  0  0  0
  184.1250  179.4740  139.5120 C   0  0  0  0  0  0  0  0  0  0  0  0
  183.2140  179.3860  138.8020 N   0  0  0  0  0  0  0  0  0  0  0  0
  1  9  1  0  0  0  0
  2  7  1  0  0  0  0
  2 14  2  0  0  0  0
  3 15  2  0  0  0  0
  3  1  1  0  0  0  0
  4  9  1  6  0  0  0
  4 13  1  0  0  0  0
  5  1  1  0  0  0  0
  5  8  1  0  0  0  0
  6  2  1  0  0  0  0
  7  3  1  0  0  0  0
 10  8  1  6  0  0  0
 10  4  1  0  0  0  0
 10 12  1  0  0  0  0
 11 17  1  0  0  0  0
 12 27  1  6  0  0  0
 12 11  1  0  0  0  0
 13 11  1  0  0  0  0
 14 15  1  0  0  0  0
 16 19  1  0  0  0  0
 16 22  1  0  0  0  0
 17 21  1  0  0  0  0
 17 16  2  0  0  0  0
 18 26  1  0  0  0  0
 18 23  1  0  0  0  0
 19 18  1  0  0  0  0
 20 24  1  0  0  0  0
 21 20  2  0  0  0  0
 22 24  2  0  0  0  0
 22 26  1  0  0  0  0
 26 25  2  0  0  0  0
 28 27  1  0  0  0  0
 29 28  1  0  0  0  0
 30 29  3  0  0  0  0
M  END
>  <MODEL>
3

>  <REMARK>
 VINA RESULT:      -8.0      2.280      5.168
  Name = 
  4 active torsions:
  status: ('A' for Active; 'I' for Inactive)
    1  A    between atoms: C_6  and  N_8
    2  A    between atoms: N_8  and  C_24
    3  A    between atoms: C_11  and  N_18
    4  A    between atoms: C_20  and  C_24
                            x       y       z     vdW  Elec       q    Type
                         _______ _______ _______ _____ _____    ______ ____

>  <TORSDO>
F 4

$$$$
=
 OpenBabel10232408203D

 30 34  0  0  1  0  0  0  0  0999 V2000
  189.2410  177.0090  144.2960 N   0  0  0  0  0  0  0  0  0  0  0  0
  191.5440  176.5590  147.3340 C   0  0  0  0  0  0  0  0  0  0  0  0
  189.9560  176.8670  145.5310 C   0  0  0  0  0  0  0  0  0  0  0  0
  187.3950  178.2800  143.2540 C   0  0  1  0  0  3  0  0  0  0  0  0
  189.9250  176.8050  143.0190 C   0  0  0  0  0  2  0  0  0  0  0  0
  192.6570  176.3410  148.1920 N   0  0  0  0  0  1  0  0  0  0  0  0
  191.6080  176.5380  145.6570 S   0  0  0  0  0  0  0  0  0  0  0  0
  188.9700  177.0700  141.8620 C   0  0  0  0  0  2  0  0  0  0  0  0
  187.7990  177.2440  144.3170 C   0  0  0  0  0  2  0  0  0  0  0  0
  188.2920  178.3590  142.0750 N   0  0  1  0  0  0  0  0  0  0  0  0
  186.0440  178.3970  141.4570 N   0  0  0  0  0  0  0  0  0  0  0  0
  187.3750  178.7070  140.9780 C   0  0  2  0  0  3  0  0  0  0  0  0
  186.0280  178.0390  142.8080 N   0  0  0  0  0  2  0  0  0  0  0  0
  190.2530  176.8210  147.7630 C   0  0  0  0  0  3  0  0  0  0  0  0
  189.3690  176.9920  146.7440 N   0  0  0  0  0  0  0  0  0  0  0  0
  183.5970  178.8310  141.3960 C   0  0  0  0  0  0  0  0  0  0  0  0
  184.8360  178.7270  140.7450 C   0  0  0  0  0  0  0  0  0  0  0  0
  181.8030  178.8430  142.8800 N   0  0  0  0  0  0  0  0  0  0  0  0
  183.2480  178.6080  142.8450 C   0  0  0  0  0  2  0  0  0  0  0  0
  183.6720  179.2840  138.6690 C   0  0  0  0  0  3  0  0  0  0  0  0
  184.8580  178.9620  139.3550 C   0  0  0  0  0  3  0  0  0  0  0  0
  182.4680  179.1480  140.6760 C   0  0  0  0  0  0  0  0  0  0  0  0
  180.9720  178.7450  144.0680 C   0  0  0  0  0  1  0  0  0  0  0  0
  182.4880  179.3720  139.3390 N   0  0  0  0  0  0  0  0  0  0  0  0
  180.1500  179.4120  141.2700 O   0  0  0  0  0  0  0  0  0  0  0  0
  181.3470  179.1630  141.5730 C   0  0  0  0  0  0  0  0  0  0  0  0
  187.6680  178.0290  139.6320 C   0  0  0  0  0  2  0  0  0  0  0  0
  188.6000  178.8360  138.8670 N   0  0  0  0  0  2  0  0  0  0  0  0
  189.0140  178.4130  137.5990 C   0  0  0  0  0  0  0  0  0  0  0  0
  189.3570  178.0640  136.5500 N   0  0  0  0  0  0  0  0  0  0  0  0
  1  9  1  0  0  0  0
  1  3  1  0  0  0  0
  2 14  2  0  0  0  0
  2  6  1  0  0  0  0
  3  7  1  0  0  0  0
  3 15  2  0  0  0  0
  4  9  1  1  0  0  0
  5  1  1  0  0  0  0
  7  2  1  0  0  0  0
  8  5  1  0  0  0  0
 10  8  1  6  0  0  0
 10  4  1  0  0  0  0
 11 13  1  0  0  0  0
 12 27  1  6  0  0  0
 12 11  1  0  0  0  0
 12 10  1  0  0  0  0
 13  4  1  0  0  0  0
 15 14  1  0  0  0  0
 16 19  1  0  0  0  0
 17 16  1  0  0  0  0
 17 11  1  0  0  0  0
 18 23  1  0  0  0  0
 19 18  1  0  0  0  0
 20 24  2  0  0  0  0
 20 21  1  0  0  0  0
 21 17  2  0  0  0  0
 22 16  2  0  0  0  0
 22 26  1  0  0  0  0
 24 22  1  0  0  0  0
 25 26  2  0  0  0  0
 26 18  1  0  0  0  0
 28 27  1  0  0  0  0
 29 28  1  0  0  0  0
 30 29  3  0  0  0  0
M  END
>  <MODEL>
4

>  <REMARK>
 VINA RESULT:      -7.7      2.609      6.082
  Name = 
  4 active torsions:
  status: ('A' for Active; 'I' for Inactive)
    1  A    between atoms: C_6  and  N_8
    2  A    between atoms: N_8  and  C_24
    3  A    between atoms: C_11  and  N_18
    4  A    between atoms: C_20  and  C_24
                            x       y       z     vdW  Elec       q    Type
                         _______ _______ _______ _____ _____    ______ ____

>  <TORSDO>
F 4

$$$$
=
 OpenBabel10232408203D

 30 34  0  0  1  0  0  0  0  0999 V2000
  188.5840  177.2530  144.0310 N   0  0  0  0  0  0  0  0  0  0  0  0
  188.0450  177.9230  147.7720 C   0  0  0  0  0  0  0  0  0  0  0  0
  188.2200  177.5620  145.3830 C   0  0  0  0  0  0  0  0  0  0  0  0
  188.3090  178.0610  141.7110 C   0  0  1  0  0  3  0  0  0  0  0  0
  189.8660  176.6130  143.7390 C   0  0  0  0  0  2  0  0  0  0  0  0
  188.1940  178.0310  149.1820 N   0  0  0  0  0  1  0  0  0  0  0  0
  189.2080  177.3090  146.7290 S   0  0  0  0  0  0  0  0  0  0  0  0
  190.0400  176.4440  142.2340 C   0  0  0  0  0  2  0  0  0  0  0  0
  187.6210  177.4710  142.9540 C   0  0  0  0  0  2  0  0  0  0  0  0
  189.7460  177.7210  141.5640 N   0  0  1  0  0  0  0  0  0  0  0  0
  188.5990  177.5250  139.5440 N   0  0  0  0  0  0  0  0  0  0  0  0
  189.9270  177.6520  140.1050 C   0  0  2  0  0  3  0  0  0  0  0  0
  187.5920  177.6690  140.5030 N   0  0  0  0  0  2  0  0  0  0  0  0
  186.9210  178.3130  147.0620 C   0  0  0  0  0  3  0  0  0  0  0  0
  187.0280  178.1060  145.7220 N   0  0  0  0  0  0  0  0  0  0  0  0
  188.0280  176.4150  137.3940 C   0  0  0  0  0  0  0  0  0  0  0  0
  188.3130  177.5730  138.1320 C   0  0  0  0  0  0  0  0  0  0  0  0
  187.6650  174.2550  136.6020 N   0  0  0  0  0  0  0  0  0  0  0  0
  187.9930  174.9740  137.8360 C   0  0  0  0  0  2  0  0  0  0  0  0
  188.0240  178.8370  136.0600 C   0  0  0  0  0  3  0  0  0  0  0  0
  188.3060  178.8010  137.4390 C   0  0  0  0  0  3  0  0  0  0  0  0
  187.7600  176.5080  136.0470 C   0  0  0  0  0  0  0  0  0  0  0  0
  187.5180  172.8140  136.4930 C   0  0  0  0  0  1  0  0  0  0  0  0
  187.7560  177.6880  135.3790 N   0  0  0  0  0  0  0  0  0  0  0  0
  187.2590  174.8810  134.3460 O   0  0  0  0  0  0  0  0  0  0  0  0
  187.5310  175.1850  135.5370 C   0  0  0  0  0  0  0  0  0  0  0  0
  190.8640  176.5420  139.6080 C   0  0  0  0  0  2  0  0  0  0  0  0
  192.2150  177.0570  139.4840 N   0  0  0  0  0  2  0  0  0  0  0  0
  193.0750  176.5380  138.5110 C   0  0  0  0  0  0  0  0  0  0  0  0
  193.7870  176.1080  137.7050 N   0  0  0  0  0  0  0  0  0  0  0  0
  1  3  1  0  0  0  0
  2  6  1  0  0  0  0
  3 15  2  0  0  0  0
  3  7  1  0  0  0  0
  4  9  1  1  0  0  0
  5  1  1  0  0  0  0
  7  2  1  0  0  0  0
  8  5  1  0  0  0  0
  9  1  1  0  0  0  0
 10  4  1  0  0  0  0
 10  8  1  1  0  0  0
 11 12  1  0  0  0  0
 11 13  1  0  0  0  0
 12 27  1  1  0  0  0
 12 10  1  0  0  0  0
 13  4  1  0  0  0  0
 14  2  2  0  0  0  0
 15 14  1  0  0  0  0
 16 19  1  0  0  0  0
 16 17  1  0  0  0  0
 17 11  1  0  0  0  0
 18 19  1  0  0  0  0
 20 21  1  0  0  0  0
 21 17  2  0  0  0  0
 22 16  2  0  0  0  0
 23 18  1  0  0  0  0
 24 22  1  0  0  0  0
 24 20  2  0  0  0  0
 25 26  2  0  0  0  0
 26 22  1  0  0  0  0
 26 18  1  0  0  0  0
 28 27  1  0  0  0  0
 29 28  1  0  0  0  0
 30 29  3  0  0  0  0
M  END
>  <MODEL>
5

>  <REMARK>
 VINA RESULT:      -7.5      3.849      8.006
  Name = 
  4 active torsions:
  status: ('A' for Active; 'I' for Inactive)
    1  A    between atoms: C_6  and  N_8
    2  A    between atoms: N_8  and  C_24
    3  A    between atoms: C_11  and  N_18
    4  A    between atoms: C_20  and  C_24
                            x       y       z     vdW  Elec       q    Type
                         _______ _______ _______ _____ _____    ______ ____

>  <TORSDO>
F 4

$$$$
=
 OpenBabel10232408203D

 30 34  0  0  1  0  0  0  0  0999 V2000
  186.3430  178.3970  142.5190 N   0  0  0  0  0  0  0  0  0  0  0  0
  189.6000  177.1620  144.1330 C   0  0  0  0  0  0  0  0  0  0  0  0
  187.6420  178.0000  142.9770 C   0  0  0  0  0  0  0  0  0  0  0  0
  184.9810  178.5920  140.4660 C   0  0  1  0  0  3  0  0  0  0  0  0
  185.1700  178.2100  143.3730 C   0  0  0  0  0  2  0  0  0  0  0  0
  190.5720  176.6000  145.0060 N   0  0  0  0  0  1  0  0  0  0  0  0
  187.9530  177.2350  144.4510 S   0  0  0  0  0  0  0  0  0  0  0  0
  183.9100  178.6550  142.6410 C   0  0  0  0  0  2  0  0  0  0  0  0
  186.2070  179.0980  141.2450 C   0  0  0  0  0  2  0  0  0  0  0  0
  183.8830  178.0460  141.3020 N   0  0  1  0  0  0  0  0  0  0  0  0
  183.0760  179.4330  139.6110 N   0  0  0  0  0  0  0  0  0  0  0  0
  182.6740  178.3990  140.5400 C   0  0  2  0  0  3  0  0  0  0  0  0
  184.4570  179.6490  139.6080 N   0  0  0  0  0  2  0  0  0  0  0  0
  189.8760  177.7260  142.8980 C   0  0  0  0  0  3  0  0  0  0  0  0
  188.7710  178.1930  142.2570 N   0  0  0  0  0  0  0  0  0  0  0  0
  181.7890  179.1660  137.5010 C   0  0  0  0  0  0  0  0  0  0  0  0
  182.2250  179.9580  138.5730 C   0  0  0  0  0  0  0  0  0  0  0  0
  181.3720  177.5030  135.9250 N   0  0  0  0  0  0  0  0  0  0  0  0
  182.1020  177.7280  137.1750 C   0  0  0  0  0  2  0  0  0  0  0  0
  180.9600  181.8020  137.5870 C   0  0  0  0  0  3  0  0  0  0  0  0
  181.7930  181.3000  138.6040 C   0  0  0  0  0  3  0  0  0  0  0  0
  180.9760  179.7090  136.5320 C   0  0  0  0  0  0  0  0  0  0  0  0
  181.3550  176.2530  135.1850 C   0  0  0  0  0  1  0  0  0  0  0  0
  180.5620  181.0000  136.5590 N   0  0  0  0  0  0  0  0  0  0  0  0
  179.9960  178.8330  134.5160 O   0  0  0  0  0  0  0  0  0  0  0  0
  180.7040  178.6990  135.5490 C   0  0  0  0  0  0  0  0  0  0  0  0
  181.4660  178.8290  141.3830 C   0  0  0  0  0  2  0  0  0  0  0  0
  180.2570  178.2210  140.8570 N   0  0  0  0  0  2  0  0  0  0  0  0
  180.2830  176.9000  140.3970 C   0  0  0  0  0  0  0  0  0  0  0  0
  180.3040  175.8070  140.0160 N   0  0  0  0  0  0  0  0  0  0  0  0
  1  3  1  0  0  0  0
  1  5  1  0  0  0  0
  2  7  1  0  0  0  0
  2  6  1  0  0  0  0
  3  7  1  0  0  0  0
  4  9  1  1  0  0  0
  4 10  1  0  0  0  0
  8  5  1  0  0  0  0
  9  1  1  0  0  0  0
 10  8  1  1  0  0  0
 11 12  1  0  0  0  0
 12 10  1  0  0  0  0
 12 27  1  1  0  0  0
 13 11  1  0  0  0  0
 13  4  1  0  0  0  0
 14  2  2  0  0  0  0
 15 14  1  0  0  0  0
 15  3  2  0  0  0  0
 16 17  1  0  0  0  0
 17 21  2  0  0  0  0
 17 11  1  0  0  0  0
 18 19  1  0  0  0  0
 19 16  1  0  0  0  0
 20 21  1  0  0  0  0
 22 24  1  0  0  0  0
 22 16  2  0  0  0  0
 23 18  1  0  0  0  0
 24 20  2  0  0  0  0
 25 26  2  0  0  0  0
 26 18  1  0  0  0  0
 26 22  1  0  0  0  0
 28 27  1  0  0  0  0
 29 28  1  0  0  0  0
 30 29  3  0  0  0  0
M  END
>  <MODEL>
6

>  <REMARK>
 VINA RESULT:      -7.5      4.098      7.893
  Name = 
  4 active torsions:
  status: ('A' for Active; 'I' for Inactive)
    1  A    between atoms: C_6  and  N_8
    2  A    between atoms: N_8  and  C_24
    3  A    between atoms: C_11  and  N_18
    4  A    between atoms: C_20  and  C_24
                            x       y       z     vdW  Elec       q    Type
                         _______ _______ _______ _____ _____    ______ ____

>  <TORSDO>
F 4

$$$$
=
 OpenBabel10232408203D

 30 34  0  0  1  0  0  0  0  0999 V2000
  188.4680  177.2920  143.8220 N   0  0  0  0  0  0  0  0  0  0  0  0
  187.8760  177.9520  147.5570 C   0  0  0  0  0  0  0  0  0  0  0  0
  188.0880  177.6050  145.1690 C   0  0  0  0  0  0  0  0  0  0  0  0
  188.2890  178.1350  141.5050 C   0  0  1  0  0  3  0  0  0  0  0  0
  189.7220  176.5900  143.5520 C   0  0  0  0  0  2  0  0  0  0  0  0
  187.9960  178.0380  148.9710 N   0  0  0  0  0  1  0  0  0  0  0  0
  189.0300  177.2900  146.5340 S   0  0  0  0  0  0  0  0  0  0  0  0
  189.9230  176.4270  142.0510 C   0  0  0  0  0  2  0  0  0  0  0  0
  187.5430  177.5690  142.7260 C   0  0  0  0  0  2  0  0  0  0  0  0
  189.7100  177.7240  141.3870 N   0  0  1  0  0  0  0  0  0  0  0  0
  188.6020  177.6060  139.3400 N   0  0  0  0  0  0  0  0  0  0  0  0
  189.9210  177.6590  139.9330 C   0  0  2  0  0  3  0  0  0  0  0  0
  187.5820  177.7910  140.2770 N   0  0  0  0  0  2  0  0  0  0  0  0
  186.7900  178.4050  146.8260 C   0  0  0  0  0  3  0  0  0  0  0  0
  186.9180  178.2060  145.4860 N   0  0  0  0  0  0  0  0  0  0  0  0
  187.0730  177.4850  137.3830 C   0  0  0  0  0  0  0  0  0  0  0  0
  188.3530  177.6820  137.9220 C   0  0  0  0  0  0  0  0  0  0  0  0
  184.8240  177.0450  136.9680 N   0  0  0  0  0  0  0  0  0  0  0  0
  185.7790  177.1390  138.0750 C   0  0  0  0  0  2  0  0  0  0  0  0
  189.1440  178.0380  135.6370 C   0  0  0  0  0  3  0  0  0  0  0  0
  189.3990  177.9650  137.0200 C   0  0  0  0  0  3  0  0  0  0  0  0
  186.8800  177.5680  136.0230 C   0  0  0  0  0  0  0  0  0  0  0  0
  183.4140  176.7240  137.1090 C   0  0  0  0  0  1  0  0  0  0  0  0
  187.8850  177.8370  135.1540 N   0  0  0  0  0  0  0  0  0  0  0  0
  184.9540  177.2880  134.6070 O   0  0  0  0  0  0  0  0  0  0  0  0
  185.4970  177.3010  135.7430 C   0  0  0  0  0  0  0  0  0  0  0  0
  190.8120  176.5080  139.4450 C   0  0  0  0  0  2  0  0  0  0  0  0
  192.1930  176.9510  139.3710 N   0  0  0  0  0  2  0  0  0  0  0  0
  193.0030  176.5380  138.3080 C   0  0  0  0  0  0  0  0  0  0  0  0
  193.6740  176.1970  137.4280 N   0  0  0  0  0  0  0  0  0  0  0  0
  1  3  1  0  0  0  0
  2  6  1  0  0  0  0
  3 15  2  0  0  0  0
  3  7  1  0  0  0  0
  4  9  1  1  0  0  0
  5  1  1  0  0  0  0
  7  2  1  0  0  0  0
  8  5  1  0  0  0  0
  9  1  1  0  0  0  0
 10  4  1  0  0  0  0
 10  8  1  1  0  0  0
 11 12  1  0  0  0  0
 11 13  1  0  0  0  0
 12 27  1  1  0  0  0
 12 10  1  0  0  0  0
 13  4  1  0  0  0  0
 14  2  2  0  0  0  0
 15 14  1  0  0  0  0
 16 17  1  0  0  0  0
 16 19  1  0  0  0  0
 17 11  1  0  0  0  0
 18 23  1  0  0  0  0
 18 19  1  0  0  0  0
 20 21  1  0  0  0  0
 21 17  2  0  0  0  0
 22 16  2  0  0  0  0
 24 20  2  0  0  0  0
 24 22  1  0  0  0  0
 25 26  2  0  0  0  0
 26 22  1  0  0  0  0
 26 18  1  0  0  0  0
 28 27  1  0  0  0  0
 29 28  1  0  0  0  0
 30 29  3  0  0  0  0
M  END
>  <MODEL>
7

>  <REMARK>
 VINA RESULT:      -7.4      3.765      7.656
  Name = 
  4 active torsions:
  status: ('A' for Active; 'I' for Inactive)
    1  A    between atoms: C_6  and  N_8
    2  A    between atoms: N_8  and  C_24
    3  A    between atoms: C_11  and  N_18
    4  A    between atoms: C_20  and  C_24
                            x       y       z     vdW  Elec       q    Type
                         _______ _______ _______ _____ _____    ______ ____

>  <TORSDO>
F 4

$$$$
=
 OpenBabel10232408203D

 30 34  0  0  1  0  0  0  0  0999 V2000
  195.1440  174.1150  137.5240 N   0  0  0  0  0  0  0  0  0  0  0  0
  198.8620  173.1770  137.3360 C   0  0  0  0  0  0  0  0  0  0  0  0
  196.5640  173.9120  137.5500 C   0  0  0  0  0  0  0  0  0  0  0  0
  193.4390  175.8980  137.3860 C   0  0  1  0  0  3  0  0  0  0  0  0
  194.2670  173.1210  136.9060 C   0  0  0  0  0  2  0  0  0  0  0  0
  200.1040  172.5360  137.0730 N   0  0  0  0  0  1  0  0  0  0  0  0
  197.3640  172.6050  136.8400 S   0  0  0  0  0  0  0  0  0  0  0  0
  192.8190  173.5930  136.9540 C   0  0  0  0  0  2  0  0  0  0  0  0
  194.5640  175.2610  138.2190 C   0  0  0  0  0  2  0  0  0  0  0  0
  192.7410  174.9760  136.4560 N   0  0  1  0  0  0  0  0  0  0  0  0
  191.2430  176.3460  137.6020 N   0  0  0  0  0  0  0  0  0  0  0  0
  191.3650  175.4960  136.4370 C   0  0  2  0  0  3  0  0  0  0  0  0
  192.4610  176.5340  138.2620 N   0  0  0  0  0  2  0  0  0  0  0  0
  198.7160  174.3640  138.0350 C   0  0  0  0  0  3  0  0  0  0  0  0
  197.4220  174.7680  138.1510 N   0  0  0  0  0  0  0  0  0  0  0  0
  189.6190  177.3640  139.1860 C   0  0  0  0  0  0  0  0  0  0  0  0
  190.0950  177.1710  137.8800 C   0  0  0  0  0  0  0  0  0  0  0  0
  189.1870  177.3440  141.4740 N   0  0  0  0  0  0  0  0  0  0  0  0
  190.1130  176.7840  140.4870 C   0  0  0  0  0  2  0  0  0  0  0  0
  188.2850  178.6280  137.1200 C   0  0  0  0  0  3  0  0  0  0  0  0
  189.4050  177.8230  136.8370 C   0  0  0  0  0  3  0  0  0  0  0  0
  188.5190  178.1610  139.4050 C   0  0  0  0  0  0  0  0  0  0  0  0
  189.2330  177.0810  142.9020 C   0  0  0  0  0  1  0  0  0  0  0  0
  187.8540  178.7870  138.4040 N   0  0  0  0  0  0  0  0  0  0  0  0
  187.2980  178.7840  141.3840 O   0  0  0  0  0  0  0  0  0  0  0  0
  188.2340  178.1650  140.8130 C   0  0  0  0  0  0  0  0  0  0  0  0
  190.2580  174.4330  136.3890 C   0  0  0  0  0  2  0  0  0  0  0  0
  189.4450  174.6220  135.2020 N   0  0  0  0  0  2  0  0  0  0  0  0
  188.0560  174.7360  135.3160 C   0  0  0  0  0  0  0  0  0  0  0  0
  186.9060  174.8300  135.4100 N   0  0  0  0  0  0  0  0  0  0  0  0
  1  3  1  0  0  0  0
  1  9  1  0  0  0  0
  2 14  2  0  0  0  0
  3 15  2  0  0  0  0
  4  9  1  1  0  0  0
  4 13  1  0  0  0  0
  5  8  1  0  0  0  0
  5  1  1  0  0  0  0
  6  2  1  0  0  0  0
  7  2  1  0  0  0  0
  7  3  1  0  0  0  0
 10  8  1  1  0  0  0
 10  4  1  0  0  0  0
 11 17  1  0  0  0  0
 11 13  1  0  0  0  0
 12 27  1  1  0  0  0
 12 10  1  0  0  0  0
 12 11  1  0  0  0  0
 14 15  1  0  0  0  0
 16 22  1  0  0  0  0
 16 19  1  0  0  0  0
 17 16  2  0  0  0  0
 18 23  1  0  0  0  0
 19 18  1  0  0  0  0
 20 24  1  0  0  0  0
 21 20  2  0  0  0  0
 21 17  1  0  0  0  0
 22 26  1  0  0  0  0
 24 22  2  0  0  0  0
 26 25  2  0  0  0  0
 26 18  1  0  0  0  0
 28 29  1  0  0  0  0
 28 27  1  0  0  0  0
 29 30  3  0  0  0  0
M  END
>  <MODEL>
8

>  <REMARK>
 VINA RESULT:      -7.0      4.111      7.987
  Name = 
  4 active torsions:
  status: ('A' for Active; 'I' for Inactive)
    1  A    between atoms: C_6  and  N_8
    2  A    between atoms: N_8  and  C_24
    3  A    between atoms: C_11  and  N_18
    4  A    between atoms: C_20  and  C_24
                            x       y       z     vdW  Elec       q    Type
                         _______ _______ _______ _____ _____    ______ ____

>  <TORSDO>
F 4

$$$$
=
 OpenBabel10232408203D

 30 34  0  0  1  0  0  0  0  0999 V2000
  188.3860  177.3050  143.1120 N   0  0  0  0  0  0  0  0  0  0  0  0
  190.5820  177.0620  146.2520 C   0  0  0  0  0  0  0  0  0  0  0  0
  189.0570  177.2410  144.3780 C   0  0  0  0  0  0  0  0  0  0  0  0
  186.5550  178.4790  141.9390 C   0  0  1  0  0  3  0  0  0  0  0  0
  189.1210  177.0520  141.8730 C   0  0  0  0  0  2  0  0  0  0  0  0
  191.6660  176.9130  147.1600 N   0  0  0  0  0  1  0  0  0  0  0  0
  190.7090  176.9570  144.5810 S   0  0  0  0  0  0  0  0  0  0  0  0
  188.2050  177.2350  140.6700 C   0  0  0  0  0  2  0  0  0  0  0  0
  186.9400  177.5080  143.0680 C   0  0  0  0  0  2  0  0  0  0  0  0
  187.4930  178.5180  140.7910 N   0  0  1  0  0  0  0  0  0  0  0  0
  185.2700  178.4740  140.0900 N   0  0  0  0  0  0  0  0  0  0  0  0
  186.6110  178.7880  139.6450 C   0  0  2  0  0  3  0  0  0  0  0  0
  185.2100  178.1840  141.4560 N   0  0  0  0  0  2  0  0  0  0  0  0
  189.2700  177.3160  146.6190 C   0  0  0  0  0  3  0  0  0  0  0  0
  188.4220  177.4150  145.5610 N   0  0  0  0  0  0  0  0  0  0  0  0
  183.3980  177.7210  138.6370 C   0  0  0  0  0  0  0  0  0  0  0  0
  184.0820  178.7390  139.3190 C   0  0  0  0  0  0  0  0  0  0  0  0
  182.6510  175.7430  137.6610 N   0  0  0  0  0  0  0  0  0  0  0  0
  183.7230  176.2540  138.5200 C   0  0  0  0  0  2  0  0  0  0  0  0
  182.3980  180.2930  138.4690 C   0  0  0  0  0  3  0  0  0  0  0  0
  183.5600  180.0450  139.2250 C   0  0  0  0  0  3  0  0  0  0  0  0
  182.2670  178.0200  137.9130 C   0  0  0  0  0  0  0  0  0  0  0  0
  182.5120  174.3610  137.2360 C   0  0  0  0  0  1  0  0  0  0  0  0
  181.7650  179.2760  137.8200 N   0  0  0  0  0  0  0  0  0  0  0  0
  180.7730  176.7000  136.5640 O   0  0  0  0  0  0  0  0  0  0  0  0
  181.7870  176.8120  137.3020 C   0  0  0  0  0  0  0  0  0  0  0  0
  186.9680  178.0490  138.3470 C   0  0  0  0  0  2  0  0  0  0  0  0
  187.9300  178.8260  137.5870 N   0  0  0  0  0  2  0  0  0  0  0  0
  188.7110  178.2060  136.6070 C   0  0  0  0  0  0  0  0  0  0  0  0
  189.3570  177.6910  135.7950 N   0  0  0  0  0  0  0  0  0  0  0  0
  1  3  1  0  0  0  0
  2 14  2  0  0  0  0
  2  6  1  0  0  0  0
  3  7  1  0  0  0  0
  3 15  2  0  0  0  0
  4  9  1  1  0  0  0
  5  1  1  0  0  0  0
  7  2  1  0  0  0  0
  8  5  1  0  0  0  0
  9  1  1  0  0  0  0
 10  8  1  6  0  0  0
 10  4  1  0  0  0  0
 11 13  1  0  0  0  0
 12 27  1  6  0  0  0
 12 11  1  0  0  0  0
 12 10  1  0  0  0  0
 13  4  1  0  0  0  0
 15 14  1  0  0  0  0
 16 17  1  0  0  0  0
 17 11  1  0  0  0  0
 18 19  1  0  0  0  0
 19 16  1  0  0  0  0
 20 21  1  0  0  0  0
 21 17  2  0  0  0  0
 22 16  2  0  0  0  0
 23 18  1  0  0  0  0
 24 22  1  0  0  0  0
 24 20  2  0  0  0  0
 25 26  2  0  0  0  0
 26 18  1  0  0  0  0
 26 22  1  0  0  0  0
 28 27  1  0  0  0  0
 29 28  1  0  0  0  0
 30 29  3  0  0  0  0
M  END
>  <MODEL>
9

>  <REMARK>
 VINA RESULT:      -6.9      3.398      6.879
  Name = 
  4 active torsions:
  status: ('A' for Active; 'I' for Inactive)
    1  A    between atoms: C_6  and  N_8
    2  A    between atoms: N_8  and  C_24
    3  A    between atoms: C_11  and  N_18
    4  A    between atoms: C_20  and  C_24
                            x       y       z     vdW  Elec       q    Type
                         _______ _______ _______ _____ _____    ______ ____

>  <TORSDO>
F 4

$$$$
