=
 OpenBabel10232409533D

 59 64  0  0  1  0  0  0  0  0999 V2000
  191.8330  175.1210  137.4020 C   0  0  0  0  0  3  0  0  0  0  0  0
  189.9240  176.3570  136.6400 C   0  0  0  0  0  0  0  0  0  0  0  0
  189.8390  177.0000  137.8510 C   0  0  0  0  0  0  0  0  0  0  0  0
  188.0490  178.6740  138.9060 C   0  0  0  0  0  2  0  0  0  0  0  0
  191.7560  175.7830  138.6410 C   0  0  0  0  0  3  0  0  0  0  0  0
  189.0760  179.3660  138.0260 C   0  0  0  0  0  2  0  0  0  0  0  0
  190.9110  175.4070  136.3870 C   0  0  0  0  0  3  0  0  0  0  0  0
  190.7420  176.7290  138.8900 C   0  0  0  0  0  0  0  0  0  0  0  0
  188.6880  177.9320  137.7530 C   0  0  0  0  0  0  0  0  0  0  0  0
  188.9280  176.7760  135.7140 N   0  0  0  0  0  2  0  0  0  0  0  0
  188.0710  177.7740  136.3620 C   0  0  1  0  0  3  0  0  0  0  0  0
  185.5800  176.8200  136.5150 C   0  0  0  0  0  0  0  0  0  0  0  0
  186.7060  177.2450  136.4560 C   0  0  0  0  0  0  0  0  0  0  0  0
  184.2040  176.3100  136.5680 C   0  0  2  0  0  3  0  0  0  0  0  0
  183.7400  175.7990  135.2040 C   0  0  0  0  0  2  0  0  0  0  0  0
  182.4130  175.0530  135.2840 C   0  0  0  0  0  2  0  0  0  0  0  0
  182.4110  174.1010  136.4740 C   0  0  0  0  0  2  0  0  0  0  0  0
  181.1720  172.6560  134.9840 O   0  0  0  0  0  1  0  0  0  0  0  0
  182.0010  172.6690  136.1090 C   0  0  1  0  0  3  0  0  0  0  0  0
  183.1700  171.6920  135.9300 C   0  0  1  0  0  3  0  0  0  0  0  0
  183.6730  171.7120  134.6260 O   0  0  0  0  0  1  0  0  0  0  0  0
  184.2830  171.9050  136.9480 C   0  0  0  0  0  2  0  0  0  0  0  0
  185.2190  172.8700  136.4860 O   0  0  0  0  0  0  0  0  0  0  0  0
  186.9660  171.5120  135.8340 O   0  0  0  0  0  0  0  0  0  0  0  0
  187.5820  173.5470  136.8810 C   0  0  0  0  0  1  0  0  0  0  0  0
  186.5780  172.5820  136.3660 C   0  0  0  0  0  0  0  0  0  0  0  0
  183.2570  177.3600  137.1270 C   0  0  0  0  0  2  0  0  0  0  0  0
  183.8740  178.0360  138.3360 C   0  0  0  0  0  2  0  0  0  0  0  0
  183.1000  179.2910  138.7010 C   0  0  0  0  0  2  0  0  0  0  0  0
  181.6410  178.9470  138.9520 C   0  0  0  0  0  2  0  0  0  0  0  0
  180.8410  180.1970  139.2760 C   0  0  0  0  0  2  0  0  0  0  0  0
  180.3220  180.5630  136.8780 C   0  0  0  0  0  3  0  0  0  0  0  0
  180.6950  181.0120  138.0810 N   0  0  0  0  0  0  0  0  0  0  0  0
  180.9660  182.3240  137.9910 C   0  0  0  0  0  3  0  0  0  0  0  0
  180.7480  182.7340  136.6920 C   0  0  0  0  0  3  0  0  0  0  0  0
  180.3380  181.6170  135.9840 C   0  0  0  0  0  3  0  0  0  0  0  0
  190.7110  177.5140  140.1710 C   0  0  0  0  0  2  0  0  0  0  0  0
  191.5830  176.9850  141.1290 O   0  0  0  0  0  0  0  0  0  0  0  0
  190.6730  178.0110  143.0980 C   0  0  0  0  0  0  0  0  0  0  0  0
  190.7900  176.7660  142.2610 C   0  0  1  0  0  3  0  0  0  0  0  0
  188.5060  176.1160  143.0440 C   0  0  0  0  0  2  0  0  0  0  0  0
  189.4120  176.2680  141.8300 C   0  0  0  0  0  2  0  0  0  0  0  0
  191.6540  178.7970  143.2100 O   0  0  0  0  0  0  0  0  0  0  0  0
  188.2470  177.4850  143.6710 C   0  0  2  0  0  3  0  0  0  0  0  0
  189.4950  178.2330  143.8800 N   0  0  0  0  0  2  0  0  0  0  0  0
  188.0620  178.0620  146.0640 C   0  0  1  0  0  3  0  0  0  0  0  0
  186.0410  177.6410  144.7020 C   0  0  1  0  0  3  0  0  0  0  0  0
  187.4720  177.3390  144.9140 N   0  0  1  0  0  0  0  0  0  0  0  0
  187.0430  178.2990  147.1390 C   0  0  0  0  0  0  0  0  0  0  0  0
  185.3130  177.2360  145.8420 O   0  0  0  0  0  0  0  0  0  0  0  0
  187.3670  178.8640  148.2160 O   0  0  0  0  0  0  0  0  0  0  0  0
  185.7010  177.9970  146.8900 O   0  0  0  0  0  0  0  0  0  0  0  0
  189.2370  177.2730  146.6370 C   0  0  0  0  0  1  0  0  0  0  0  0
  185.7550  179.1080  144.2880 C   0  0  1  0  0  3  0  0  0  0  0  0
  186.1040  179.3060  142.8240 C   0  0  0  0  0  1  0  0  0  0  0  0
  184.2900  179.4920  144.4860 C   0  0  0  0  0  2  0  0  0  0  0  0
  183.3640  178.5140  143.7760 C   0  0  0  0  0  3  0  0  0  0  0  0
  183.4170  178.7380  142.2770 C   0  0  0  0  0  1  0  0  0  0  0  0
  181.9430  178.7420  144.2540 C   0  0  0  0  0  1  0  0  0  0  0  0
  1  5  1  0  0  0  0
  2  3  2  0  0  0  0
  3  8  1  0  0  0  0
  5  8  2  0  0  0  0
  6  4  1  0  0  0  0
  7  2  1  0  0  0  0
  7  1  2  0  0  0  0
  8 37  1  0  0  0  0
  9  3  1  0  0  0  0
  9  6  1  0  0  0  0
  9  4  1  0  0  0  0
 10 11  1  0  0  0  0
 10  2  1  0  0  0  0
 11 13  1  1  0  0  0
 11  9  1  0  0  0  0
 12 14  1  0  0  0  0
 13 12  3  0  0  0  0
 14 15  1  6  0  0  0
 14 27  1  0  0  0  0
 15 16  1  0  0  0  0
 16 17  1  0  0  0  0
 19 18  1  6  0  0  0
 19 17  1  0  0  0  0
 20 21  1  6  0  0  0
 20 19  1  0  0  0  0
 20 22  1  0  0  0  0
 23 22  1  0  0  0  0
 24 26  2  0  0  0  0
 26 23  1  0  0  0  0
 26 25  1  0  0  0  0
 27 28  1  0  0  0  0
 28 29  1  0  0  0  0
 29 30  1  0  0  0  0
 30 31  1  0  0  0  0
 32 33  1  0  0  0  0
 33 31  1  0  0  0  0
 34 33  1  0  0  0  0
 35 34  2  0  0  0  0
 36 35  1  0  0  0  0
 36 32  2  0  0  0  0
 37 38  1  0  0  0  0
 39 43  2  0  0  0  0
 39 45  1  0  0  0  0
 40 38  1  6  0  0  0
 40 39  1  0  0  0  0
 42 40  1  0  0  0  0
 42 41  1  0  0  0  0
 44 41  1  1  0  0  0
 44 45  1  0  0  0  0
 46 53  1  1  0  0  0
 46 49  1  0  0  0  0
 47 54  1  1  0  0  0
 47 48  1  0  0  0  0
 47 50  1  0  0  0  0
 48 44  1  6  0  0  0
 48 46  1  0  0  0  0
 49 51  2  0  0  0  0
 50 52  1  0  0  0  0
 52 49  1  0  0  0  0
 54 55  1  6  0  0  0
 54 56  1  0  0  0  0
 57 59  1  0  0  0  0
 57 56  1  0  0  0  0
 58 57  1  0  0  0  0
M  END
>  <MODEL>
1

>  <REMARK>
 VINA RESULT:      -6.0      0.000      0.000
  Name = 
  23 active torsions:
  status: ('A' for Active; 'I' for Inactive)
    1  A    between atoms: C_3  and  C_30
    2  A    between atoms: C_3  and  C_40
    3  A    between atoms: C_6  and  C_26
    4  A    between atoms: C_6  and  O_46
    5  A    between atoms: C_8  and  C_40
    6  A    between atoms: C_8  and  C_42
    7  A    between atoms: C_9  and  O_46
    8  A    between atoms: C_14  and  C_22
    9  A    between atoms: C_15  and  C_27
   10  A    between atoms: C_15  and  O_49
   11  A    between atoms: N_16  and  C_31
   12  A    between atoms: C_22  and  C_47
   13  A    between atoms: C_25  and  C_47
   14  A    between atoms: C_27  and  C_53
   15  A    between atoms: C_30  and  N_33
   16  A    between atoms: C_35  and  C_36
   17  A    between atoms: C_35  and  C_41
   18  A    between atoms: C_36  and  C_53
   19  A    between atoms: C_41  and  C_44
   20  A    between atoms: C_42  and  C_44
   21  A    between atoms: C_44  and  C_50
   22  A    between atoms: C_45  and  C_51
   23  A    between atoms: O_49  and  C_57
                            x       y       z     vdW  Elec       q    Type
                         _______ _______ _______ _____ _____    ______ ____

>  <TORSDO>
F 23

$$$$
=
 OpenBabel10232409533D

 59 64  0  0  1  0  0  0  0  0999 V2000
  191.1420  175.3600  146.5600 C   0  0  0  0  0  3  0  0  0  0  0  0
  191.7370  176.4860  144.5270 C   0  0  0  0  0  0  0  0  0  0  0  0
  190.7310  177.4020  144.7240 C   0  0  0  0  0  0  0  0  0  0  0  0
  189.7450  179.3770  143.2250 C   0  0  0  0  0  2  0  0  0  0  0  0
  190.1170  176.3010  146.7710 C   0  0  0  0  0  3  0  0  0  0  0  0
  190.9740  179.7810  144.0220 C   0  0  0  0  0  2  0  0  0  0  0  0
  191.9640  175.4490  145.4280 C   0  0  0  0  0  3  0  0  0  0  0  0
  189.8880  177.3350  145.8420 C   0  0  0  0  0  0  0  0  0  0  0  0
  190.7950  178.3480  143.5810 C   0  0  0  0  0  0  0  0  0  0  0  0
  192.4890  176.7290  143.3440 N   0  0  0  0  0  2  0  0  0  0  0  0
  191.9310  177.8980  142.6600 C   0  0  1  0  0  3  0  0  0  0  0  0
  190.9880  177.1610  140.2710 C   0  0  0  0  0  0  0  0  0  0  0  0
  191.4070  177.4850  141.3530 C   0  0  0  0  0  0  0  0  0  0  0  0
  190.4910  176.7800  138.9440 C   0  0  2  0  0  3  0  0  0  0  0  0
  189.0020  176.4290  138.9800 C   0  0  0  0  0  2  0  0  0  0  0  0
  188.3610  176.4770  137.5970 C   0  0  0  0  0  2  0  0  0  0  0  0
  187.6660  175.1550  137.2890 C   0  0  0  0  0  2  0  0  0  0  0  0
  189.2610  175.0310  135.4770 O   0  0  0  0  0  1  0  0  0  0  0  0
  188.0010  174.6010  135.8990 C   0  0  1  0  0  3  0  0  0  0  0  0
  187.8790  173.0780  135.7690 C   0  0  1  0  0  3  0  0  0  0  0  0
  188.2020  172.4230  136.9600 O   0  0  0  0  0  1  0  0  0  0  0  0
  186.5140  172.6340  135.2560 C   0  0  0  0  0  2  0  0  0  0  0  0
  185.8600  171.8000  136.2030 O   0  0  0  0  0  0  0  0  0  0  0  0
  183.5950  171.5300  136.5420 O   0  0  0  0  0  0  0  0  0  0  0  0
  184.6060  173.3130  137.7310 C   0  0  0  0  0  1  0  0  0  0  0  0
  184.6510  172.1610  136.7950 C   0  0  0  0  0  0  0  0  0  0  0  0
  191.3200  175.6490  138.3560 C   0  0  0  0  0  2  0  0  0  0  0  0
  192.7100  176.1430  138.0070 C   0  0  0  0  0  2  0  0  0  0  0  0
  193.3080  175.3100  136.8850 C   0  0  0  0  0  2  0  0  0  0  0  0
  193.2980  173.8400  137.2660 C   0  0  0  0  0  2  0  0  0  0  0  0
  194.5420  173.1400  136.7440 C   0  0  0  0  0  2  0  0  0  0  0  0
  196.7540  174.2590  136.6750 C   0  0  0  0  0  3  0  0  0  0  0  0
  195.7270  173.7260  137.3460 N   0  0  0  0  0  0  0  0  0  0  0  0
  195.9960  173.7710  138.6600 C   0  0  0  0  0  3  0  0  0  0  0  0
  197.2300  174.3630  138.8410 C   0  0  0  0  0  3  0  0  0  0  0  0
  197.7110  174.6740  137.5810 C   0  0  0  0  0  3  0  0  0  0  0  0
  188.8630  178.4020  146.1070 C   0  0  0  0  0  2  0  0  0  0  0  0
  187.8730  177.9660  146.9950 O   0  0  0  0  0  0  0  0  0  0  0  0
  185.7450  178.7430  146.2040 C   0  0  0  0  0  0  0  0  0  0  0  0
  186.7760  177.6470  146.1870 C   0  0  1  0  0  3  0  0  0  0  0  0
  186.0610  177.1160  143.8500 C   0  0  0  0  0  2  0  0  0  0  0  0
  187.2530  177.3700  144.7630 C   0  0  0  0  0  2  0  0  0  0  0  0
  185.5270  179.3960  147.2610 O   0  0  0  0  0  0  0  0  0  0  0  0
  185.2150  178.3830  143.7380 C   0  0  2  0  0  3  0  0  0  0  0  0
  184.9140  178.9540  145.0580 N   0  0  0  0  0  2  0  0  0  0  0  0
  182.9390  179.1340  143.1480 C   0  0  1  0  0  3  0  0  0  0  0  0
  184.3090  177.8540  141.5350 C   0  0  1  0  0  3  0  0  0  0  0  0
  183.9980  178.1150  142.9560 N   0  0  1  0  0  0  0  0  0  0  0  0
  181.9520  179.1130  142.0190 C   0  0  0  0  0  0  0  0  0  0  0  0
  183.1540  177.3520  140.8970 O   0  0  0  0  0  0  0  0  0  0  0  0
  180.9540  179.8810  142.0250 O   0  0  0  0  0  0  0  0  0  0  0  0
  182.2100  178.3210  140.8970 O   0  0  0  0  0  0  0  0  0  0  0  0
  182.2120  178.8960  144.4690 C   0  0  0  0  0  1  0  0  0  0  0  0
  184.9400  179.0590  140.7900 C   0  0  1  0  0  3  0  0  0  0  0  0
  186.4540  178.9710  140.8620 C   0  0  0  0  0  1  0  0  0  0  0  0
  184.5330  179.1090  139.3180 C   0  0  0  0  0  2  0  0  0  0  0  0
  185.3200  178.0980  138.4960 C   0  0  0  0  0  3  0  0  0  0  0  0
  186.1180  178.8080  137.4190 C   0  0  0  0  0  1  0  0  0  0  0  0
  184.3500  177.1380  137.8330 C   0  0  0  0  0  1  0  0  0  0  0  0
  1  5  1  0  0  0  0
  2  3  2  0  0  0  0
  2  7  1  0  0  0  0
  3  8  1  0  0  0  0
  4  9  1  0  0  0  0
  4  6  1  0  0  0  0
  7  1  2  0  0  0  0
  8 37  1  0  0  0  0
  8  5  2  0  0  0  0
  9  6  1  0  0  0  0
  9  3  1  0  0  0  0
 10  2  1  0  0  0  0
 11 13  1  6  0  0  0
 11 10  1  0  0  0  0
 11  9  1  0  0  0  0
 12 13  3  0  0  0  0
 14 27  1  1  0  0  0
 14 15  1  0  0  0  0
 14 12  1  0  0  0  0
 16 15  1  0  0  0  0
 17 16  1  0  0  0  0
 19 18  1  1  0  0  0
 19 17  1  0  0  0  0
 20 19  1  0  0  0  0
 20 21  1  1  0  0  0
 22 20  1  0  0  0  0
 22 23  1  0  0  0  0
 23 26  1  0  0  0  0
 24 26  2  0  0  0  0
 26 25  1  0  0  0  0
 28 27  1  0  0  0  0
 29 30  1  0  0  0  0
 29 28  1  0  0  0  0
 31 30  1  0  0  0  0
 31 33  1  0  0  0  0
 32 33  1  0  0  0  0
 32 36  2  0  0  0  0
 33 34  1  0  0  0  0
 34 35  2  0  0  0  0
 36 35  1  0  0  0  0
 37 38  1  0  0  0  0
 39 43  2  0  0  0  0
 40 39  1  0  0  0  0
 40 38  1  1  0  0  0
 41 42  1  0  0  0  0
 42 40  1  0  0  0  0
 44 41  1  1  0  0  0
 44 45  1  0  0  0  0
 45 39  1  0  0  0  0
 46 53  1  1  0  0  0
 47 54  1  6  0  0  0
 47 48  1  0  0  0  0
 48 46  1  0  0  0  0
 48 44  1  1  0  0  0
 49 51  2  0  0  0  0
 49 46  1  0  0  0  0
 50 52  1  0  0  0  0
 50 47  1  0  0  0  0
 52 49  1  0  0  0  0
 54 55  1  6  0  0  0
 56 54  1  0  0  0  0
 57 56  1  0  0  0  0
 58 57  1  0  0  0  0
 59 57  1  0  0  0  0
M  END
>  <MODEL>
2

>  <REMARK>
 VINA RESULT:      -5.9      2.846      8.333
  Name = 
  23 active torsions:
  status: ('A' for Active; 'I' for Inactive)
    1  A    between atoms: C_3  and  C_30
    2  A    between atoms: C_3  and  C_40
    3  A    between atoms: C_6  and  C_26
    4  A    between atoms: C_6  and  O_46
    5  A    between atoms: C_8  and  C_40
    6  A    between atoms: C_8  and  C_42
    7  A    between atoms: C_9  and  O_46
    8  A    between atoms: C_14  and  C_22
    9  A    between atoms: C_15  and  C_27
   10  A    between atoms: C_15  and  O_49
   11  A    between atoms: N_16  and  C_31
   12  A    between atoms: C_22  and  C_47
   13  A    between atoms: C_25  and  C_47
   14  A    between atoms: C_27  and  C_53
   15  A    between atoms: C_30  and  N_33
   16  A    between atoms: C_35  and  C_36
   17  A    between atoms: C_35  and  C_41
   18  A    between atoms: C_36  and  C_53
   19  A    between atoms: C_41  and  C_44
   20  A    between atoms: C_42  and  C_44
   21  A    between atoms: C_44  and  C_50
   22  A    between atoms: C_45  and  C_51
   23  A    between atoms: O_49  and  C_57
                            x       y       z     vdW  Elec       q    Type
                         _______ _______ _______ _____ _____    ______ ____

>  <TORSDO>
F 23

$$$$
=
 OpenBabel10232409533D

 59 64  0  0  1  0  0  0  0  0999 V2000
  191.6840  176.5850  142.4230 C   0  0  0  0  0  3  0  0  0  0  0  0
  189.3380  176.4760  142.9080 C   0  0  0  0  0  0  0  0  0  0  0  0
  189.0730  177.3740  141.9020 C   0  0  0  0  0  0  0  0  0  0  0  0
  186.8570  178.6390  141.1240 C   0  0  0  0  0  2  0  0  0  0  0  0
  191.4180  177.4980  141.3860 C   0  0  0  0  0  3  0  0  0  0  0  0
  186.9880  177.2400  140.5440 C   0  0  0  0  0  2  0  0  0  0  0  0
  190.6370  176.0650  143.1950 C   0  0  0  0  0  3  0  0  0  0  0  0
  190.1000  177.9190  141.1180 C   0  0  0  0  0  0  0  0  0  0  0  0
  187.6010  177.5650  141.8860 C   0  0  0  0  0  0  0  0  0  0  0  0
  188.1650  176.0300  143.5810 N   0  0  0  0  0  2  0  0  0  0  0  0
  187.0010  176.7040  142.9990 C   0  0  1  0  0  3  0  0  0  0  0  0
  185.8380  178.2310  144.8590 C   0  0  0  0  0  0  0  0  0  0  0  0
  186.3730  177.5440  144.0240 C   0  0  0  0  0  0  0  0  0  0  0  0
  185.1670  179.0600  145.8670 C   0  0  2  0  0  3  0  0  0  0  0  0
  185.5660  178.6520  147.2870 C   0  0  0  0  0  2  0  0  0  0  0  0
  186.8840  179.2820  147.7230 C   0  0  0  0  0  2  0  0  0  0  0  0
  187.5430  178.4350  148.8060 C   0  0  0  0  0  2  0  0  0  0  0  0
  187.8250  176.5740  147.2890 O   0  0  0  0  0  1  0  0  0  0  0  0
  188.4760  177.3530  148.2490 C   0  0  1  0  0  3  0  0  0  0  0  0
  189.8120  177.8740  147.7060 C   0  0  1  0  0  3  0  0  0  0  0  0
  190.7710  178.0060  148.7140 O   0  0  0  0  0  1  0  0  0  0  0  0
  190.3490  177.0390  146.5500 C   0  0  0  0  0  2  0  0  0  0  0  0
  191.7610  176.9010  146.6320 O   0  0  0  0  0  0  0  0  0  0  0  0
  192.8670  175.3970  147.9860 O   0  0  0  0  0  0  0  0  0  0  0  0
  192.4430  174.6660  145.7720 C   0  0  0  0  0  1  0  0  0  0  0  0
  192.3710  175.6690  146.8640 C   0  0  0  0  0  0  0  0  0  0  0  0
  183.6590  179.0320  145.6780 C   0  0  0  0  0  2  0  0  0  0  0  0
  183.3160  178.9100  144.2060 C   0  0  0  0  0  2  0  0  0  0  0  0
  181.8100  178.9210  144.0040 C   0  0  0  0  0  2  0  0  0  0  0  0
  181.4760  178.6050  142.5560 C   0  0  0  0  0  2  0  0  0  0  0  0
  182.7370  178.5740  141.7080 C   0  0  0  0  0  2  0  0  0  0  0  0
  181.2650  179.1570  139.7990 C   0  0  0  0  0  3  0  0  0  0  0  0
  182.4610  179.1340  140.3960 N   0  0  0  0  0  0  0  0  0  0  0  0
  183.3730  179.6610  139.5630 C   0  0  0  0  0  3  0  0  0  0  0  0
  182.7420  180.0460  138.3980 C   0  0  0  0  0  3  0  0  0  0  0  0
  181.4020  179.7280  138.5470 C   0  0  0  0  0  3  0  0  0  0  0  0
  189.7940  178.8140  139.9510 C   0  0  0  0  0  2  0  0  0  0  0  0
  190.2880  178.2940  138.7490 O   0  0  0  0  0  0  0  0  0  0  0  0
  188.6800  178.3140  136.9670 C   0  0  0  0  0  0  0  0  0  0  0  0
  189.2100  177.6030  138.1830 C   0  0  1  0  0  3  0  0  0  0  0  0
  188.5070  175.4450  137.1340 C   0  0  0  0  0  2  0  0  0  0  0  0
  189.6400  176.1790  137.8380 C   0  0  0  0  0  2  0  0  0  0  0  0
  188.6580  179.5750  136.9270 O   0  0  0  0  0  0  0  0  0  0  0  0
  188.2220  176.1040  135.7850 C   0  0  2  0  0  3  0  0  0  0  0  0
  188.0740  177.5610  135.9130 N   0  0  0  0  0  2  0  0  0  0  0  0
  187.0040  174.0090  135.3230 C   0  0  1  0  0  3  0  0  0  0  0  0
  185.7960  176.1560  135.5370 C   0  0  1  0  0  3  0  0  0  0  0  0
  187.0520  175.4790  135.1500 N   0  0  1  0  0  0  0  0  0  0  0  0
  185.6160  173.4800  135.1100 C   0  0  0  0  0  0  0  0  0  0  0  0
  184.7500  175.6920  134.7070 O   0  0  0  0  0  0  0  0  0  0  0  0
  185.3840  172.2440  135.1730 O   0  0  0  0  0  0  0  0  0  0  0  0
  184.5550  174.3780  134.9600 O   0  0  0  0  0  0  0  0  0  0  0  0
  187.9650  173.3320  134.3480 C   0  0  0  0  0  1  0  0  0  0  0  0
  185.4600  176.0610  137.0470 C   0  0  1  0  0  3  0  0  0  0  0  0
  185.3900  177.4550  137.6460 C   0  0  0  0  0  1  0  0  0  0  0  0
  184.1260  175.3630  137.3040 C   0  0  0  0  0  2  0  0  0  0  0  0
  183.1040  176.3280  137.8890 C   0  0  0  0  0  3  0  0  0  0  0  0
  182.4980  175.7460  139.1510 C   0  0  0  0  0  1  0  0  0  0  0  0
  181.9980  176.5530  136.8750 C   0  0  0  0  0  1  0  0  0  0  0  0
  1  7  1  0  0  0  0
  2  7  2  0  0  0  0
  2 10  1  0  0  0  0
  3  2  1  0  0  0  0
  4  9  1  0  0  0  0
  5  1  2  0  0  0  0
  6  4  1  0  0  0  0
  6  9  1  0  0  0  0
  8  5  1  0  0  0  0
  8  3  2  0  0  0  0
  9  3  1  0  0  0  0
  9 11  1  0  0  0  0
 11 10  1  0  0  0  0
 11 13  1  1  0  0  0
 13 12  3  0  0  0  0
 14 12  1  6  0  0  0
 14 15  1  0  0  0  0
 15 16  1  0  0  0  0
 16 17  1  0  0  0  0
 19 18  1  6  0  0  0
 19 17  1  0  0  0  0
 20 19  1  0  0  0  0
 20 21  1  1  0  0  0
 22 23  1  0  0  0  0
 22 20  1  0  0  0  0
 23 26  1  0  0  0  0
 25 26  1  0  0  0  0
 26 24  2  0  0  0  0
 27 14  1  0  0  0  0
 28 27  1  0  0  0  0
 29 28  1  0  0  0  0
 30 29  1  0  0  0  0
 31 30  1  0  0  0  0
 32 33  1  0  0  0  0
 33 31  1  0  0  0  0
 34 33  1  0  0  0  0
 35 36  1  0  0  0  0
 35 34  2  0  0  0  0
 36 32  2  0  0  0  0
 37  8  1  0  0  0  0
 38 37  1  0  0  0  0
 39 40  1  0  0  0  0
 40 38  1  6  0  0  0
 41 42  1  0  0  0  0
 42 40  1  0  0  0  0
 43 39  2  0  0  0  0
 44 45  1  0  0  0  0
 44 41  1  1  0  0  0
 45 39  1  0  0  0  0
 46 53  1  6  0  0  0
 47 54  1  1  0  0  0
 48 46  1  0  0  0  0
 48 47  1  0  0  0  0
 48 44  1  1  0  0  0
 49 51  2  0  0  0  0
 49 46  1  0  0  0  0
 50 52  1  0  0  0  0
 50 47  1  0  0  0  0
 52 49  1  0  0  0  0
 54 56  1  0  0  0  0
 54 55  1  6  0  0  0
 56 57  1  0  0  0  0
 57 58  1  0  0  0  0
 59 57  1  0  0  0  0
M  END
>  <MODEL>
3

>  <REMARK>
 VINA RESULT:      -5.4      2.157      8.968
  Name = 
  23 active torsions:
  status: ('A' for Active; 'I' for Inactive)
    1  A    between atoms: C_3  and  C_30
    2  A    between atoms: C_3  and  C_40
    3  A    between atoms: C_6  and  C_26
    4  A    between atoms: C_6  and  O_46
    5  A    between atoms: C_8  and  C_40
    6  A    between atoms: C_8  and  C_42
    7  A    between atoms: C_9  and  O_46
    8  A    between atoms: C_14  and  C_22
    9  A    between atoms: C_15  and  C_27
   10  A    between atoms: C_15  and  O_49
   11  A    between atoms: N_16  and  C_31
   12  A    between atoms: C_22  and  C_47
   13  A    between atoms: C_25  and  C_47
   14  A    between atoms: C_27  and  C_53
   15  A    between atoms: C_30  and  N_33
   16  A    between atoms: C_35  and  C_36
   17  A    between atoms: C_35  and  C_41
   18  A    between atoms: C_36  and  C_53
   19  A    between atoms: C_41  and  C_44
   20  A    between atoms: C_42  and  C_44
   21  A    between atoms: C_44  and  C_50
   22  A    between atoms: C_45  and  C_51
   23  A    between atoms: O_49  and  C_57
                            x       y       z     vdW  Elec       q    Type
                         _______ _______ _______ _____ _____    ______ ____

>  <TORSDO>
F 23

$$$$
=
 OpenBabel10232409533D

 59 64  0  0  1  0  0  0  0  0999 V2000
  188.8540  176.4770  134.3460 C   0  0  0  0  0  3  0  0  0  0  0  0
  187.8880  177.7930  136.1030 C   0  0  0  0  0  0  0  0  0  0  0  0
  188.5670  177.0590  137.0460 C   0  0  0  0  0  0  0  0  0  0  0  0
  188.5030  177.0080  139.7120 C   0  0  0  0  0  2  0  0  0  0  0  0
  189.5580  175.7280  135.3060 C   0  0  0  0  0  3  0  0  0  0  0  0
  189.4090  178.0910  139.1520 C   0  0  0  0  0  2  0  0  0  0  0  0
  188.0090  177.5220  134.7430 C   0  0  0  0  0  3  0  0  0  0  0  0
  189.4140  176.0020  136.6800 C   0  0  0  0  0  0  0  0  0  0  0  0
  188.2040  177.6310  138.3670 C   0  0  0  0  0  0  0  0  0  0  0  0
  187.0920  178.8280  136.6700 N   0  0  0  0  0  2  0  0  0  0  0  0
  187.2180  178.7760  138.1290 C   0  0  1  0  0  3  0  0  0  0  0  0
  184.8400  178.2160  139.2110 C   0  0  0  0  0  0  0  0  0  0  0  0
  185.9090  178.4650  138.7130 C   0  0  0  0  0  0  0  0  0  0  0  0
  183.5440  177.9240  139.8350 C   0  0  2  0  0  3  0  0  0  0  0  0
  183.6900  177.6470  141.3320 C   0  0  0  0  0  2  0  0  0  0  0  0
  183.7680  178.9290  142.1540 C   0  0  0  0  0  2  0  0  0  0  0  0
  185.2190  179.2580  142.4860 C   0  0  0  0  0  2  0  0  0  0  0  0
  187.0950  177.7940  142.9170 O   0  0  0  0  0  1  0  0  0  0  0  0
  185.8740  178.2410  143.4290 C   0  0  1  0  0  3  0  0  0  0  0  0
  186.0390  178.7200  144.8760 C   0  0  1  0  0  3  0  0  0  0  0  0
  185.0680  179.6610  145.2300 O   0  0  0  0  0  1  0  0  0  0  0  0
  186.0780  177.5740  145.8800 C   0  0  0  0  0  2  0  0  0  0  0  0
  187.3540  176.9500  145.8930 O   0  0  0  0  0  0  0  0  0  0  0  0
  188.5540  177.8980  147.6190 O   0  0  0  0  0  0  0  0  0  0  0  0
  189.6160  177.9140  145.5010 C   0  0  0  0  0  1  0  0  0  0  0  0
  188.4840  177.5880  146.4040 C   0  0  0  0  0  0  0  0  0  0  0  0
  182.8420  176.7800  139.1190 C   0  0  0  0  0  2  0  0  0  0  0  0
  181.5810  177.2800  138.4410 C   0  0  0  0  0  2  0  0  0  0  0  0
  180.8390  176.1320  137.7770 C   0  0  0  0  0  2  0  0  0  0  0  0
  181.7240  174.8980  137.7320 C   0  0  0  0  0  2  0  0  0  0  0  0
  182.0280  174.5050  136.2950 C   0  0  0  0  0  2  0  0  0  0  0  0
  181.8400  172.1920  135.4220 C   0  0  0  0  0  3  0  0  0  0  0  0
  182.3900  173.1000  136.2350 N   0  0  0  0  0  0  0  0  0  0  0  0
  183.2900  172.4900  137.0230 C   0  0  0  0  0  3  0  0  0  0  0  0
  183.3290  171.1490  136.6970 C   0  0  0  0  0  3  0  0  0  0  0  0
  182.4090  170.9590  135.6800 C   0  0  0  0  0  3  0  0  0  0  0  0
  190.2360  175.2750  137.7060 C   0  0  0  0  0  2  0  0  0  0  0  0
  191.3720  176.0040  138.0770 O   0  0  0  0  0  0  0  0  0  0  0  0
  193.7440  175.9840  137.7110 C   0  0  0  0  0  0  0  0  0  0  0  0
  192.3870  175.5520  137.2250 C   0  0  1  0  0  3  0  0  0  0  0  0
  193.4660  173.5170  136.2530 C   0  0  0  0  0  2  0  0  0  0  0  0
  192.3100  174.0320  137.1000 C   0  0  0  0  0  2  0  0  0  0  0  0
  193.8940  177.1090  138.2610 O   0  0  0  0  0  0  0  0  0  0  0  0
  194.7900  173.7840  136.9670 C   0  0  2  0  0  3  0  0  0  0  0  0
  194.8900  175.1760  137.4250 N   0  0  0  0  0  2  0  0  0  0  0  0
  197.1620  174.1520  136.3940 C   0  0  1  0  0  3  0  0  0  0  0  0
  196.1140  171.9340  136.0840 C   0  0  1  0  0  3  0  0  0  0  0  0
  195.9200  173.3990  136.1060 N   0  0  1  0  0  0  0  0  0  0  0  0
  198.3700  173.4310  135.8720 C   0  0  0  0  0  0  0  0  0  0  0  0
  197.0250  171.6070  135.0550 O   0  0  0  0  0  0  0  0  0  0  0  0
  199.5170  173.9370  135.9850 O   0  0  0  0  0  0  0  0  0  0  0  0
  198.2300  172.1360  135.3670 O   0  0  0  0  0  0  0  0  0  0  0  0
  197.0900  175.5460  135.7730 C   0  0  0  0  0  1  0  0  0  0  0  0
  196.5020  171.3230  137.4550 C   0  0  1  0  0  3  0  0  0  0  0  0
  195.2730  170.7240  138.1160 C   0  0  0  0  0  1  0  0  0  0  0  0
  197.5580  170.2270  137.3250 C   0  0  0  0  0  2  0  0  0  0  0  0
  196.9480  168.8480  137.5400 C   0  0  0  0  0  3  0  0  0  0  0  0
  197.8960  167.9760  138.3420 C   0  0  0  0  0  1  0  0  0  0  0  0
  196.7090  168.1970  136.1910 C   0  0  0  0  0  1  0  0  0  0  0  0
  1  7  2  0  0  0  0
  1  5  1  0  0  0  0
  2 10  1  0  0  0  0
  2  3  2  0  0  0  0
  3  9  1  0  0  0  0
  5  8  2  0  0  0  0
  6  4  1  0  0  0  0
  7  2  1  0  0  0  0
  8  3  1  0  0  0  0
  8 37  1  0  0  0  0
  9  6  1  0  0  0  0
  9  4  1  0  0  0  0
 10 11  1  0  0  0  0
 11  9  1  0  0  0  0
 11 13  1  1  0  0  0
 12 14  1  0  0  0  0
 13 12  3  0  0  0  0
 14 27  1  6  0  0  0
 14 15  1  0  0  0  0
 15 16  1  0  0  0  0
 16 17  1  0  0  0  0
 17 19  1  0  0  0  0
 19 18  1  6  0  0  0
 19 20  1  0  0  0  0
 20 21  1  1  0  0  0
 20 22  1  0  0  0  0
 22 23  1  0  0  0  0
 23 26  1  0  0  0  0
 25 26  1  0  0  0  0
 26 24  2  0  0  0  0
 28 27  1  0  0  0  0
 29 28  1  0  0  0  0
 30 29  1  0  0  0  0
 31 30  1  0  0  0  0
 32 36  2  0  0  0  0
 32 33  1  0  0  0  0
 33 31  1  0  0  0  0
 33 34  1  0  0  0  0
 35 34  2  0  0  0  0
 36 35  1  0  0  0  0
 37 38  1  0  0  0  0
 39 43  2  0  0  0  0
 40 39  1  0  0  0  0
 40 38  1  1  0  0  0
 41 42  1  0  0  0  0
 42 40  1  0  0  0  0
 44 41  1  6  0  0  0
 44 45  1  0  0  0  0
 45 39  1  0  0  0  0
 46 53  1  6  0  0  0
 47 48  1  0  0  0  0
 47 54  1  1  0  0  0
 48 46  1  0  0  0  0
 48 44  1  1  0  0  0
 49 51  2  0  0  0  0
 49 46  1  0  0  0  0
 50 52  1  0  0  0  0
 50 47  1  0  0  0  0
 52 49  1  0  0  0  0
 54 55  1  6  0  0  0
 56 54  1  0  0  0  0
 56 57  1  0  0  0  0
 57 58  1  0  0  0  0
 59 57  1  0  0  0  0
M  END
>  <MODEL>
4

>  <REMARK>
 VINA RESULT:      -5.2      4.293     10.256
  Name = 
  23 active torsions:
  status: ('A' for Active; 'I' for Inactive)
    1  A    between atoms: C_3  and  C_30
    2  A    between atoms: C_3  and  C_40
    3  A    between atoms: C_6  and  C_26
    4  A    between atoms: C_6  and  O_46
    5  A    between atoms: C_8  and  C_40
    6  A    between atoms: C_8  and  C_42
    7  A    between atoms: C_9  and  O_46
    8  A    between atoms: C_14  and  C_22
    9  A    between atoms: C_15  and  C_27
   10  A    between atoms: C_15  and  O_49
   11  A    between atoms: N_16  and  C_31
   12  A    between atoms: C_22  and  C_47
   13  A    between atoms: C_25  and  C_47
   14  A    between atoms: C_27  and  C_53
   15  A    between atoms: C_30  and  N_33
   16  A    between atoms: C_35  and  C_36
   17  A    between atoms: C_35  and  C_41
   18  A    between atoms: C_36  and  C_53
   19  A    between atoms: C_41  and  C_44
   20  A    between atoms: C_42  and  C_44
   21  A    between atoms: C_44  and  C_50
   22  A    between atoms: C_45  and  C_51
   23  A    between atoms: O_49  and  C_57
                            x       y       z     vdW  Elec       q    Type
                         _______ _______ _______ _____ _____    ______ ____

>  <TORSDO>
F 23

$$$$
=
 OpenBabel10232409533D

 59 64  0  0  1  0  0  0  0  0999 V2000
  189.1070  178.1870  135.9290 C   0  0  0  0  0  3  0  0  0  0  0  0
  188.8800  178.7910  138.2380 C   0  0  0  0  0  0  0  0  0  0  0  0
  189.2500  177.5240  138.6210 C   0  0  0  0  0  0  0  0  0  0  0  0
  189.3300  176.2830  140.9810 C   0  0  0  0  0  2  0  0  0  0  0  0
  189.4960  176.8910  136.3150 C   0  0  0  0  0  3  0  0  0  0  0  0
  190.5670  177.1170  140.6970 C   0  0  0  0  0  2  0  0  0  0  0  0
  188.7960  179.1520  136.8960 C   0  0  0  0  0  3  0  0  0  0  0  0
  189.5600  176.5350  137.6770 C   0  0  0  0  0  0  0  0  0  0  0  0
  189.2350  177.5120  140.1050 C   0  0  0  0  0  0  0  0  0  0  0  0
  188.6170  179.6530  139.3400 N   0  0  0  0  0  2  0  0  0  0  0  0
  188.7980  178.8990  140.5840 C   0  0  1  0  0  3  0  0  0  0  0  0
  186.4710  178.7650  141.8890 C   0  0  0  0  0  0  0  0  0  0  0  0
  187.5150  178.8240  141.2900 C   0  0  0  0  0  0  0  0  0  0  0  0
  185.2100  178.6960  142.6360 C   0  0  2  0  0  3  0  0  0  0  0  0
  185.2800  177.6680  143.7670 C   0  0  0  0  0  2  0  0  0  0  0  0
  185.3990  178.3220  145.1390 C   0  0  0  0  0  2  0  0  0  0  0  0
  186.4540  177.6080  145.9760 C   0  0  0  0  0  2  0  0  0  0  0  0
  186.4830  179.1190  147.8640 O   0  0  0  0  0  1  0  0  0  0  0  0
  187.2750  178.5570  146.8590 C   0  0  1  0  0  3  0  0  0  0  0  0
  188.5470  177.9420  147.4550 C   0  0  1  0  0  3  0  0  0  0  0  0
  188.2640  177.0990  148.5330 O   0  0  0  0  0  1  0  0  0  0  0  0
  189.4040  177.2290  146.4160 C   0  0  0  0  0  2  0  0  0  0  0  0
  190.0540  178.1620  145.5640 O   0  0  0  0  0  0  0  0  0  0  0  0
  191.2590  176.5480  144.4410 O   0  0  0  0  0  0  0  0  0  0  0  0
  191.6480  178.7820  143.7540 C   0  0  0  0  0  1  0  0  0  0  0  0
  190.9790  177.7610  144.6000 C   0  0  0  0  0  0  0  0  0  0  0  0
  184.0390  178.4240  141.7040 C   0  0  0  0  0  2  0  0  0  0  0  0
  184.5180  178.3550  140.2660 C   0  0  0  0  0  2  0  0  0  0  0  0
  183.9510  179.5100  139.4580 C   0  0  0  0  0  2  0  0  0  0  0  0
  183.0230  178.9820  138.3770 C   0  0  0  0  0  2  0  0  0  0  0  0
  181.5750  179.0440  138.8330 C   0  0  0  0  0  2  0  0  0  0  0  0
  180.4860  180.4070  137.0700 C   0  0  0  0  0  3  0  0  0  0  0  0
  180.9470  180.2480  138.3150 N   0  0  0  0  0  0  0  0  0  0  0  0
  180.7850  181.3980  138.9900 C   0  0  0  0  0  3  0  0  0  0  0  0
  180.1900  182.3220  138.1550 C   0  0  0  0  0  3  0  0  0  0  0  0
  179.9990  181.6940  136.9360 C   0  0  0  0  0  3  0  0  0  0  0  0
  190.0680  175.1870  138.1030 C   0  0  0  0  0  2  0  0  0  0  0  0
  191.3370  175.2680  138.6880 O   0  0  0  0  0  0  0  0  0  0  0  0
  193.5670  175.7770  137.9620 C   0  0  0  0  0  0  0  0  0  0  0  0
  192.2360  175.1610  137.6220 C   0  0  1  0  0  3  0  0  0  0  0  0
  193.4460  173.5520  136.1390 C   0  0  0  0  0  2  0  0  0  0  0  0
  192.3980  173.6930  137.2340 C   0  0  0  0  0  2  0  0  0  0  0  0
  193.6230  176.8140  138.6790 O   0  0  0  0  0  0  0  0  0  0  0  0
  194.8150  173.9680  136.6760 C   0  0  2  0  0  3  0  0  0  0  0  0
  194.7600  175.2670  137.3600 N   0  0  0  0  0  2  0  0  0  0  0  0
  196.7080  175.1310  135.6000 C   0  0  1  0  0  3  0  0  0  0  0  0
  196.5400  172.6640  135.5450 C   0  0  1  0  0  3  0  0  0  0  0  0
  195.8130  173.9500  135.5940 N   0  0  1  0  0  0  0  0  0  0  0  0
  197.9710  174.8620  134.8360 C   0  0  0  0  0  0  0  0  0  0  0  0
  197.2860  172.6040  134.3460 O   0  0  0  0  0  0  0  0  0  0  0  0
  198.8380  175.7630  134.6940 O   0  0  0  0  0  0  0  0  0  0  0  0
  198.2360  173.5660  134.3850 O   0  0  0  0  0  0  0  0  0  0  0  0
  195.9920  176.3380  134.9970 C   0  0  0  0  0  1  0  0  0  0  0  0
  197.3920  172.3650  136.8050 C   0  0  1  0  0  3  0  0  0  0  0  0
  196.5190  172.4400  138.0450 C   0  0  0  0  0  1  0  0  0  0  0  0
  198.0370  170.9810  136.7560 C   0  0  0  0  0  2  0  0  0  0  0  0
  197.4970  170.1650  135.5890 C   0  0  0  0  0  3  0  0  0  0  0  0
  196.4760  169.1580  136.0840 C   0  0  0  0  0  1  0  0  0  0  0  0
  198.6430  169.4180  134.9360 C   0  0  0  0  0  1  0  0  0  0  0  0
  1  5  2  0  0  0  0
  1  7  1  0  0  0  0
  2  3  1  0  0  0  0
  2 10  1  0  0  0  0
  3  9  1  0  0  0  0
  5  8  1  0  0  0  0
  6  4  1  0  0  0  0
  7  2  2  0  0  0  0
  8 37  1  0  0  0  0
  8  3  2  0  0  0  0
  9 11  1  0  0  0  0
  9  6  1  0  0  0  0
  9  4  1  0  0  0  0
 10 11  1  0  0  0  0
 11 13  1  6  0  0  0
 12 14  1  0  0  0  0
 13 12  3  0  0  0  0
 14 27  1  6  0  0  0
 14 15  1  0  0  0  0
 15 16  1  0  0  0  0
 16 17  1  0  0  0  0
 17 19  1  0  0  0  0
 19 20  1  0  0  0  0
 19 18  1  1  0  0  0
 20 21  1  1  0  0  0
 22 20  1  0  0  0  0
 23 22  1  0  0  0  0
 24 26  2  0  0  0  0
 25 26  1  0  0  0  0
 26 23  1  0  0  0  0
 28 27  1  0  0  0  0
 29 28  1  0  0  0  0
 30 31  1  0  0  0  0
 30 29  1  0  0  0  0
 32 33  1  0  0  0  0
 33 31  1  0  0  0  0
 33 34  1  0  0  0  0
 35 34  2  0  0  0  0
 36 32  2  0  0  0  0
 36 35  1  0  0  0  0
 37 38  1  0  0  0  0
 39 43  2  0  0  0  0
 40 39  1  0  0  0  0
 40 38  1  1  0  0  0
 41 42  1  0  0  0  0
 42 40  1  0  0  0  0
 44 41  1  6  0  0  0
 44 45  1  0  0  0  0
 45 39  1  0  0  0  0
 46 53  1  6  0  0  0
 47 48  1  0  0  0  0
 47 54  1  1  0  0  0
 48 46  1  0  0  0  0
 48 44  1  1  0  0  0
 49 46  1  0  0  0  0
 50 52  1  0  0  0  0
 50 47  1  0  0  0  0
 51 49  2  0  0  0  0
 52 49  1  0  0  0  0
 54 55  1  1  0  0  0
 56 54  1  0  0  0  0
 57 58  1  0  0  0  0
 57 56  1  0  0  0  0
 59 57  1  0  0  0  0
M  END
>  <MODEL>
5

>  <REMARK>
 VINA RESULT:      -4.9      4.062     10.325
  Name = 
  23 active torsions:
  status: ('A' for Active; 'I' for Inactive)
    1  A    between atoms: C_3  and  C_30
    2  A    between atoms: C_3  and  C_40
    3  A    between atoms: C_6  and  C_26
    4  A    between atoms: C_6  and  O_46
    5  A    between atoms: C_8  and  C_40
    6  A    between atoms: C_8  and  C_42
    7  A    between atoms: C_9  and  O_46
    8  A    between atoms: C_14  and  C_22
    9  A    between atoms: C_15  and  C_27
   10  A    between atoms: C_15  and  O_49
   11  A    between atoms: N_16  and  C_31
   12  A    between atoms: C_22  and  C_47
   13  A    between atoms: C_25  and  C_47
   14  A    between atoms: C_27  and  C_53
   15  A    between atoms: C_30  and  N_33
   16  A    between atoms: C_35  and  C_36
   17  A    between atoms: C_35  and  C_41
   18  A    between atoms: C_36  and  C_53
   19  A    between atoms: C_41  and  C_44
   20  A    between atoms: C_42  and  C_44
   21  A    between atoms: C_44  and  C_50
   22  A    between atoms: C_45  and  C_51
   23  A    between atoms: O_49  and  C_57
                            x       y       z     vdW  Elec       q    Type
                         _______ _______ _______ _____ _____    ______ ____

>  <TORSDO>
F 23

$$$$
=
 OpenBabel10232409533D

 59 64  0  0  1  0  0  0  0  0999 V2000
  192.7560  175.7040  136.9030 C   0  0  0  0  0  3  0  0  0  0  0  0
  190.6220  176.5760  136.2390 C   0  0  0  0  0  0  0  0  0  0  0  0
  190.3530  176.9430  137.5360 C   0  0  0  0  0  0  0  0  0  0  0  0
  188.1830  177.9200  138.7410 C   0  0  0  0  0  2  0  0  0  0  0  0
  192.4890  176.0860  138.2310 C   0  0  0  0  0  3  0  0  0  0  0  0
  189.0310  178.9870  138.0700 C   0  0  0  0  0  2  0  0  0  0  0  0
  191.8170  175.9500  135.8920 C   0  0  0  0  0  3  0  0  0  0  0  0
  191.2690  176.7030  138.5700 C   0  0  0  0  0  0  0  0  0  0  0  0
  189.0120  177.5790  137.5230 C   0  0  0  0  0  0  0  0  0  0  0  0
  189.5770  176.9140  135.3350 N   0  0  0  0  0  2  0  0  0  0  0  0
  188.4870  177.5430  136.0860 C   0  0  1  0  0  3  0  0  0  0  0  0
  186.3170  175.9920  135.9240 C   0  0  0  0  0  0  0  0  0  0  0  0
  187.2910  176.6990  135.9910 C   0  0  0  0  0  0  0  0  0  0  0  0
  185.1410  175.1160  135.8560 C   0  0  2  0  0  3  0  0  0  0  0  0
  184.0150  175.6140  136.7640 C   0  0  0  0  0  2  0  0  0  0  0  0
  184.4270  176.8300  137.5870 C   0  0  0  0  0  2  0  0  0  0  0  0
  183.4070  177.9510  137.4240 C   0  0  0  0  0  2  0  0  0  0  0  0
  182.4110  179.8920  138.4650 O   0  0  0  0  0  1  0  0  0  0  0  0
  183.1530  178.7350  138.7170 C   0  0  1  0  0  3  0  0  0  0  0  0
  182.5160  177.9200  139.8490 C   0  0  1  0  0  3  0  0  0  0  0  0
  181.9250  176.7450  139.3790 O   0  0  0  0  0  1  0  0  0  0  0  0
  183.4860  177.6250  140.9870 C   0  0  0  0  0  2  0  0  0  0  0  0
  184.4590  178.6530  141.1080 O   0  0  0  0  0  0  0  0  0  0  0  0
  185.8410  179.9160  142.4540 O   0  0  0  0  0  0  0  0  0  0  0  0
  184.0370  178.8430  143.5540 C   0  0  0  0  0  1  0  0  0  0  0  0
  184.8330  179.1750  142.3460 C   0  0  0  0  0  0  0  0  0  0  0  0
  185.5170  173.6760  136.1670 C   0  0  0  0  0  2  0  0  0  0  0  0
  186.4560  173.6230  137.3570 C   0  0  0  0  0  2  0  0  0  0  0  0
  187.6360  172.7110  137.0670 C   0  0  0  0  0  2  0  0  0  0  0  0
  187.7830  172.5110  135.5680 C   0  0  0  0  0  2  0  0  0  0  0  0
  188.4740  171.1920  135.2660 C   0  0  0  0  0  2  0  0  0  0  0  0
  187.7660  168.8150  135.2680 C   0  0  0  0  0  3  0  0  0  0  0  0
  187.4910  170.1220  135.2100 N   0  0  0  0  0  0  0  0  0  0  0  0
  186.1700  170.2820  135.0350 C   0  0  0  0  0  3  0  0  0  0  0  0
  185.5740  169.0390  134.9920 C   0  0  0  0  0  3  0  0  0  0  0  0
  186.5860  168.1060  135.1420 C   0  0  0  0  0  3  0  0  0  0  0  0
  191.0150  177.2040  139.9640 C   0  0  0  0  0  2  0  0  0  0  0  0
  190.9180  176.1560  140.8860 O   0  0  0  0  0  0  0  0  0  0  0  0
  190.1830  175.7390  143.1330 C   0  0  0  0  0  0  0  0  0  0  0  0
  190.1970  176.6860  141.9630 C   0  0  1  0  0  3  0  0  0  0  0  0
  190.0780  178.5790  143.5910 C   0  0  0  0  0  2  0  0  0  0  0  0
  190.7910  178.0350  142.3610 C   0  0  0  0  0  2  0  0  0  0  0  0
  190.1270  174.4930  142.9420 O   0  0  0  0  0  0  0  0  0  0  0  0
  190.3430  177.6680  144.7890 C   0  0  2  0  0  3  0  0  0  0  0  0
  190.0940  176.2570  144.4640 N   0  0  0  0  0  2  0  0  0  0  0  0
  188.3660  177.2840  146.2160 C   0  0  1  0  0  3  0  0  0  0  0  0
  190.4190  178.3040  147.1430 C   0  0  1  0  0  3  0  0  0  0  0  0
  189.5630  178.1170  145.9530 N   0  0  1  0  0  0  0  0  0  0  0  0
  187.8880  177.4470  147.6280 C   0  0  0  0  0  0  0  0  0  0  0  0
  189.6780  178.9760  148.1400 O   0  0  0  0  0  0  0  0  0  0  0  0
  186.8550  176.8500  148.0290 O   0  0  0  0  0  0  0  0  0  0  0  0
  188.6660  178.1720  148.5360 O   0  0  0  0  0  0  0  0  0  0  0  0
  187.2430  177.6550  145.2490 C   0  0  0  0  0  1  0  0  0  0  0  0
  191.0890  177.0040  147.6570 C   0  0  1  0  0  3  0  0  0  0  0  0
  191.9670  176.4130  146.5680 C   0  0  0  0  0  1  0  0  0  0  0  0
  191.9550  177.2450  148.8920 C   0  0  0  0  0  2  0  0  0  0  0  0
  193.0760  176.2180  148.9860 C   0  0  0  0  0  3  0  0  0  0  0  0
  192.5060  174.8530  149.3240 C   0  0  0  0  0  1  0  0  0  0  0  0
  194.0350  176.6320  150.0840 C   0  0  0  0  0  1  0  0  0  0  0  0
  1  5  1  0  0  0  0
  2  3  2  0  0  0  0
  3  8  1  0  0  0  0
  5  8  2  0  0  0  0
  6  4  1  0  0  0  0
  7  2  1  0  0  0  0
  7  1  2  0  0  0  0
  8 37  1  0  0  0  0
  9  3  1  0  0  0  0
  9  6  1  0  0  0  0
  9  4  1  0  0  0  0
 10 11  1  0  0  0  0
 10  2  1  0  0  0  0
 11 13  1  1  0  0  0
 11  9  1  0  0  0  0
 12 13  3  0  0  0  0
 14 12  1  1  0  0  0
 14 27  1  0  0  0  0
 14 15  1  0  0  0  0
 15 16  1  0  0  0  0
 17 16  1  0  0  0  0
 17 19  1  0  0  0  0
 19 18  1  6  0  0  0
 19 20  1  0  0  0  0
 20 21  1  6  0  0  0
 20 22  1  0  0  0  0
 22 23  1  0  0  0  0
 23 26  1  0  0  0  0
 26 24  2  0  0  0  0
 26 25  1  0  0  0  0
 27 28  1  0  0  0  0
 29 28  1  0  0  0  0
 30 29  1  0  0  0  0
 31 30  1  0  0  0  0
 33 31  1  0  0  0  0
 33 32  1  0  0  0  0
 34 33  1  0  0  0  0
 35 34  2  0  0  0  0
 35 36  1  0  0  0  0
 36 32  2  0  0  0  0
 37 38  1  0  0  0  0
 39 45  1  0  0  0  0
 40 38  1  6  0  0  0
 40 42  1  0  0  0  0
 40 39  1  0  0  0  0
 42 41  1  0  0  0  0
 43 39  2  0  0  0  0
 44 41  1  6  0  0  0
 45 44  1  0  0  0  0
 46 53  1  6  0  0  0
 46 49  1  0  0  0  0
 47 54  1  1  0  0  0
 47 50  1  0  0  0  0
 48 44  1  6  0  0  0
 48 46  1  0  0  0  0
 48 47  1  0  0  0  0
 49 51  2  0  0  0  0
 49 52  1  0  0  0  0
 50 52  1  0  0  0  0
 54 55  1  6  0  0  0
 54 56  1  0  0  0  0
 56 57  1  0  0  0  0
 57 58  1  0  0  0  0
 57 59  1  0  0  0  0
M  END
>  <MODEL>
6

>  <REMARK>
 VINA RESULT:      -4.3      2.914      6.855
  Name = 
  23 active torsions:
  status: ('A' for Active; 'I' for Inactive)
    1  A    between atoms: C_3  and  C_30
    2  A    between atoms: C_3  and  C_40
    3  A    between atoms: C_6  and  C_26
    4  A    between atoms: C_6  and  O_46
    5  A    between atoms: C_8  and  C_40
    6  A    between atoms: C_8  and  C_42
    7  A    between atoms: C_9  and  O_46
    8  A    between atoms: C_14  and  C_22
    9  A    between atoms: C_15  and  C_27
   10  A    between atoms: C_15  and  O_49
   11  A    between atoms: N_16  and  C_31
   12  A    between atoms: C_22  and  C_47
   13  A    between atoms: C_25  and  C_47
   14  A    between atoms: C_27  and  C_53
   15  A    between atoms: C_30  and  N_33
   16  A    between atoms: C_35  and  C_36
   17  A    between atoms: C_35  and  C_41
   18  A    between atoms: C_36  and  C_53
   19  A    between atoms: C_41  and  C_44
   20  A    between atoms: C_42  and  C_44
   21  A    between atoms: C_44  and  C_50
   22  A    between atoms: C_45  and  C_51
   23  A    between atoms: O_49  and  C_57
                            x       y       z     vdW  Elec       q    Type
                         _______ _______ _______ _____ _____    ______ ____

>  <TORSDO>
F 23

$$$$
=
 OpenBabel10232409533D

 59 64  0  0  1  0  0  0  0  0999 V2000
  192.8390  175.8590  137.1090 C   0  0  0  0  0  3  0  0  0  0  0  0
  190.7670  176.7600  136.3030 C   0  0  0  0  0  0  0  0  0  0  0  0
  190.3740  177.0430  137.5890 C   0  0  0  0  0  0  0  0  0  0  0  0
  188.0900  177.9310  138.6430 C   0  0  0  0  0  2  0  0  0  0  0  0
  192.4450  176.1550  138.4270 C   0  0  0  0  0  3  0  0  0  0  0  0
  188.9850  179.0420  138.1220 C   0  0  0  0  0  2  0  0  0  0  0  0
  191.9960  176.1630  136.0320 C   0  0  0  0  0  3  0  0  0  0  0  0
  191.1920  176.7440  138.6880 C   0  0  0  0  0  0  0  0  0  0  0  0
  189.0330  177.6710  137.4900 C   0  0  0  0  0  0  0  0  0  0  0  0
  189.8070  177.1480  135.3270 N   0  0  0  0  0  2  0  0  0  0  0  0
  188.6450  177.7220  136.0110 C   0  0  1  0  0  3  0  0  0  0  0  0
  186.5180  176.1720  135.5490 C   0  0  0  0  0  0  0  0  0  0  0  0
  187.4720  176.8800  135.7520 C   0  0  0  0  0  0  0  0  0  0  0  0
  185.3640  175.2950  135.3150 C   0  0  2  0  0  3  0  0  0  0  0  0
  184.1890  175.6550  136.2250 C   0  0  0  0  0  2  0  0  0  0  0  0
  184.5560  176.7200  137.2530 C   0  0  0  0  0  2  0  0  0  0  0  0
  183.3620  177.6290  137.5230 C   0  0  0  0  0  2  0  0  0  0  0  0
  182.8380  175.8470  139.0720 O   0  0  0  0  0  1  0  0  0  0  0  0
  182.3510  177.0300  138.5090 C   0  0  1  0  0  3  0  0  0  0  0  0
  181.8730  177.9910  139.6030 C   0  0  1  0  0  3  0  0  0  0  0  0
  181.2050  177.3220  140.6320 O   0  0  0  0  0  1  0  0  0  0  0  0
  182.9930  178.8640  140.1580 C   0  0  0  0  0  2  0  0  0  0  0  0
  183.9600  178.0790  140.8420 O   0  0  0  0  0  0  0  0  0  0  0  0
  183.6530  178.7360  143.0310 O   0  0  0  0  0  0  0  0  0  0  0  0
  185.9050  178.4590  142.3490 C   0  0  0  0  0  1  0  0  0  0  0  0
  184.4410  178.4320  142.1020 C   0  0  0  0  0  0  0  0  0  0  0  0
  185.7560  173.8320  135.4570 C   0  0  0  0  0  2  0  0  0  0  0  0
  185.8810  173.4610  136.9220 C   0  0  0  0  0  2  0  0  0  0  0  0
  184.5510  172.9610  137.4620 C   0  0  0  0  0  2  0  0  0  0  0  0
  184.1620  171.6670  136.7690 C   0  0  0  0  0  2  0  0  0  0  0  0
  182.6830  171.3770  136.9610 C   0  0  0  0  0  2  0  0  0  0  0  0
  181.8460  172.9780  135.2610 C   0  0  0  0  0  3  0  0  0  0  0  0
  181.8960  172.5140  136.5150 N   0  0  0  0  0  0  0  0  0  0  0  0
  181.1460  173.3020  137.3010 C   0  0  0  0  0  3  0  0  0  0  0  0
  180.5860  174.2980  136.5260 C   0  0  0  0  0  3  0  0  0  0  0  0
  181.0290  174.0930  135.2310 C   0  0  0  0  0  3  0  0  0  0  0  0
  190.8040  177.1550  140.0800 C   0  0  0  0  0  2  0  0  0  0  0  0
  189.9450  176.2270  140.6790 O   0  0  0  0  0  0  0  0  0  0  0  0
  189.3650  175.8200  142.9720 C   0  0  0  0  0  0  0  0  0  0  0  0
  189.5310  176.8320  141.8710 C   0  0  1  0  0  3  0  0  0  0  0  0
  190.1470  178.5150  143.6140 C   0  0  0  0  0  2  0  0  0  0  0  0
  190.5330  177.9130  142.2700 C   0  0  0  0  0  2  0  0  0  0  0  0
  188.9260  174.6660  142.7140 O   0  0  0  0  0  0  0  0  0  0  0  0
  190.2610  177.4540  144.7080 C   0  0  2  0  0  3  0  0  0  0  0  0
  189.5760  176.2100  144.3330 N   0  0  0  0  0  2  0  0  0  0  0  0
  188.4460  177.4700  146.3810 C   0  0  1  0  0  3  0  0  0  0  0  0
  190.7940  177.8580  147.0550 C   0  0  1  0  0  3  0  0  0  0  0  0
  189.7770  177.9910  145.9900 N   0  0  1  0  0  0  0  0  0  0  0  0
  188.2070  177.6350  147.8530 C   0  0  0  0  0  0  0  0  0  0  0  0
  190.3850  178.6140  148.1770 O   0  0  0  0  0  0  0  0  0  0  0  0
  187.1110  177.2890  148.3670 O   0  0  0  0  0  0  0  0  0  0  0  0
  189.2540  178.0630  148.6740 O   0  0  0  0  0  0  0  0  0  0  0  0
  187.3490  178.1910  145.6000 C   0  0  0  0  0  1  0  0  0  0  0  0
  191.1570  176.3930  147.4090 C   0  0  1  0  0  3  0  0  0  0  0  0
  192.3240  175.9330  146.5540 C   0  0  0  0  0  1  0  0  0  0  0  0
  191.5460  176.2300  148.8770 C   0  0  0  0  0  2  0  0  0  0  0  0
  193.0600  176.2200  149.0470 C   0  0  0  0  0  3  0  0  0  0  0  0
  193.4820  175.0440  149.9060 C   0  0  0  0  0  1  0  0  0  0  0  0
  193.4890  177.5040  149.7310 C   0  0  0  0  0  1  0  0  0  0  0  0
  1  5  1  0  0  0  0
  2  3  2  0  0  0  0
  3  8  1  0  0  0  0
  5  8  2  0  0  0  0
  6  4  1  0  0  0  0
  7  2  1  0  0  0  0
  7  1  2  0  0  0  0
  8 37  1  0  0  0  0
  9  3  1  0  0  0  0
  9  6  1  0  0  0  0
  9  4  1  0  0  0  0
 10 11  1  0  0  0  0
 10  2  1  0  0  0  0
 11 13  1  1  0  0  0
 11  9  1  0  0  0  0
 12 13  3  0  0  0  0
 14 27  1  1  0  0  0
 14 12  1  0  0  0  0
 14 15  1  0  0  0  0
 15 16  1  0  0  0  0
 16 17  1  0  0  0  0
 17 19  1  0  0  0  0
 19 18  1  1  0  0  0
 19 20  1  0  0  0  0
 20 22  1  0  0  0  0
 20 21  1  1  0  0  0
 22 23  1  0  0  0  0
 23 26  1  0  0  0  0
 26 25  1  0  0  0  0
 26 24  2  0  0  0  0
 27 28  1  0  0  0  0
 28 29  1  0  0  0  0
 30 31  1  0  0  0  0
 30 29  1  0  0  0  0
 32 33  1  0  0  0  0
 33 31  1  0  0  0  0
 33 34  1  0  0  0  0
 35 34  2  0  0  0  0
 36 32  2  0  0  0  0
 36 35  1  0  0  0  0
 37 38  1  0  0  0  0
 39 45  1  0  0  0  0
 40 38  1  6  0  0  0
 40 42  1  0  0  0  0
 40 39  1  0  0  0  0
 42 41  1  0  0  0  0
 43 39  2  0  0  0  0
 44 41  1  6  0  0  0
 45 44  1  0  0  0  0
 46 53  1  6  0  0  0
 46 49  1  0  0  0  0
 47 54  1  1  0  0  0
 47 50  1  0  0  0  0
 48 44  1  6  0  0  0
 48 46  1  0  0  0  0
 48 47  1  0  0  0  0
 49 51  2  0  0  0  0
 49 52  1  0  0  0  0
 50 52  1  0  0  0  0
 54 55  1  6  0  0  0
 54 56  1  0  0  0  0
 56 57  1  0  0  0  0
 57 59  1  0  0  0  0
 57 58  1  0  0  0  0
M  END
>  <MODEL>
7

>  <REMARK>
 VINA RESULT:      -4.0      2.710      5.795
  Name = 
  23 active torsions:
  status: ('A' for Active; 'I' for Inactive)
    1  A    between atoms: C_3  and  C_30
    2  A    between atoms: C_3  and  C_40
    3  A    between atoms: C_6  and  C_26
    4  A    between atoms: C_6  and  O_46
    5  A    between atoms: C_8  and  C_40
    6  A    between atoms: C_8  and  C_42
    7  A    between atoms: C_9  and  O_46
    8  A    between atoms: C_14  and  C_22
    9  A    between atoms: C_15  and  C_27
   10  A    between atoms: C_15  and  O_49
   11  A    between atoms: N_16  and  C_31
   12  A    between atoms: C_22  and  C_47
   13  A    between atoms: C_25  and  C_47
   14  A    between atoms: C_27  and  C_53
   15  A    between atoms: C_30  and  N_33
   16  A    between atoms: C_35  and  C_36
   17  A    between atoms: C_35  and  C_41
   18  A    between atoms: C_36  and  C_53
   19  A    between atoms: C_41  and  C_44
   20  A    between atoms: C_42  and  C_44
   21  A    between atoms: C_44  and  C_50
   22  A    between atoms: C_45  and  C_51
   23  A    between atoms: O_49  and  C_57
                            x       y       z     vdW  Elec       q    Type
                         _______ _______ _______ _____ _____    ______ ____

>  <TORSDO>
F 23

$$$$
=
 OpenBabel10232409533D

 59 64  0  0  1  0  0  0  0  0999 V2000
  191.7550  174.6580  137.6780 C   0  0  0  0  0  3  0  0  0  0  0  0
  189.8810  175.7610  136.6660 C   0  0  0  0  0  0  0  0  0  0  0  0
  189.7790  176.6070  137.7440 C   0  0  0  0  0  0  0  0  0  0  0  0
  187.9920  178.4590  138.4470 C   0  0  0  0  0  2  0  0  0  0  0  0
  191.6610  175.5280  138.7800 C   0  0  0  0  0  3  0  0  0  0  0  0
  189.0470  178.9750  137.4830 C   0  0  0  0  0  2  0  0  0  0  0  0
  190.8580  174.7710  136.6070 C   0  0  0  0  0  3  0  0  0  0  0  0
  190.6560  176.5140  138.8340 C   0  0  0  0  0  0  0  0  0  0  0  0
  188.6440  177.5200  137.4570 C   0  0  0  0  0  0  0  0  0  0  0  0
  188.9100  176.0210  135.6590 N   0  0  0  0  0  2  0  0  0  0  0  0
  188.0540  177.1260  136.1010 C   0  0  1  0  0  3  0  0  0  0  0  0
  185.5460  176.2410  136.3620 C   0  0  0  0  0  0  0  0  0  0  0  0
  186.6800  176.6360  136.2550 C   0  0  0  0  0  0  0  0  0  0  0  0
  184.1620  175.7660  136.4730 C   0  0  2  0  0  3  0  0  0  0  0  0
  183.5380  175.5240  135.0980 C   0  0  0  0  0  2  0  0  0  0  0  0
  182.5040  174.4040  135.1190 C   0  0  0  0  0  2  0  0  0  0  0  0
  182.4690  173.7420  136.4920 C   0  0  0  0  0  2  0  0  0  0  0  0
  180.4740  172.4520  136.0410 O   0  0  0  0  0  1  0  0  0  0  0  0
  181.7950  172.3630  136.4860 C   0  0  1  0  0  3  0  0  0  0  0  0
  182.5550  171.2800  135.7100 C   0  0  1  0  0  3  0  0  0  0  0  0
  182.6330  171.5710  134.3460 O   0  0  0  0  0  1  0  0  0  0  0  0
  183.9370  170.9970  136.2870 C   0  0  0  0  0  2  0  0  0  0  0  0
  184.9590  171.3880  135.3800 O   0  0  0  0  0  0  0  0  0  0  0  0
  187.0140  170.3450  135.3240 O   0  0  0  0  0  0  0  0  0  0  0  0
  186.9270  172.3750  136.5420 C   0  0  0  0  0  1  0  0  0  0  0  0
  186.3110  171.3100  135.7120 C   0  0  0  0  0  0  0  0  0  0  0  0
  183.3250  176.7220  137.3090 C   0  0  0  0  0  2  0  0  0  0  0  0
  184.1820  177.3770  138.3750 C   0  0  0  0  0  2  0  0  0  0  0  0
  184.2630  178.8780  138.1500 C   0  0  0  0  0  2  0  0  0  0  0  0
  183.7010  179.6150  139.3530 C   0  0  0  0  0  2  0  0  0  0  0  0
  183.6400  178.7010  140.5650 C   0  0  0  0  0  2  0  0  0  0  0  0
  182.2710  178.7080  142.6340 C   0  0  0  0  0  3  0  0  0  0  0  0
  182.4400  178.9820  141.3350 N   0  0  0  0  0  0  0  0  0  0  0  0
  181.3040  179.5070  140.8500 C   0  0  0  0  0  3  0  0  0  0  0  0
  180.3790  179.5850  141.8710 C   0  0  0  0  0  3  0  0  0  0  0  0
  180.9920  179.0790  143.0040 C   0  0  0  0  0  3  0  0  0  0  0  0
  190.6090  177.5110  139.9570 C   0  0  0  0  0  2  0  0  0  0  0  0
  191.8190  177.5670  140.6580 O   0  0  0  0  0  0  0  0  0  0  0  0
  191.2890  178.3240  142.8730 C   0  0  0  0  0  0  0  0  0  0  0  0
  191.5060  177.1500  141.9570 C   0  0  1  0  0  3  0  0  0  0  0  0
  189.8610  175.8670  143.3360 C   0  0  0  0  0  2  0  0  0  0  0  0
  190.2710  176.2510  141.9210 C   0  0  0  0  0  2  0  0  0  0  0  0
  191.9830  179.3700  142.7410 O   0  0  0  0  0  0  0  0  0  0  0  0
  189.4160  177.1130  144.1020 C   0  0  2  0  0  3  0  0  0  0  0  0
  190.3920  178.2040  143.9810 N   0  0  0  0  0  2  0  0  0  0  0  0
  189.6690  177.7600  146.4700 C   0  0  1  0  0  3  0  0  0  0  0  0
  187.6990  176.4710  145.7130 C   0  0  1  0  0  3  0  0  0  0  0  0
  189.1310  176.7730  145.5050 N   0  0  1  0  0  0  0  0  0  0  0  0
  188.9720  177.6620  147.7950 C   0  0  0  0  0  0  0  0  0  0  0  0
  187.5310  175.9040  146.9960 O   0  0  0  0  0  0  0  0  0  0  0  0
  189.3210  178.3930  148.7580 O   0  0  0  0  0  0  0  0  0  0  0  0
  187.8500  176.8380  147.9200 O   0  0  0  0  0  0  0  0  0  0  0  0
  191.1690  177.5450  146.6620 C   0  0  0  0  0  1  0  0  0  0  0  0
  186.7510  177.6680  145.4480 C   0  0  1  0  0  3  0  0  0  0  0  0
  186.5900  177.8760  143.9530 C   0  0  0  0  0  1  0  0  0  0  0  0
  185.3640  177.4560  146.0540 C   0  0  0  0  0  2  0  0  0  0  0  0
  184.7710  178.7700  146.5430 C   0  0  0  0  0  3  0  0  0  0  0  0
  184.3100  179.6060  145.3650 C   0  0  0  0  0  1  0  0  0  0  0  0
  185.8340  179.5400  147.3020 C   0  0  0  0  0  1  0  0  0  0  0  0
  1  5  1  0  0  0  0
  2  3  2  0  0  0  0
  3  8  1  0  0  0  0
  5  8  2  0  0  0  0
  6  4  1  0  0  0  0
  7  2  1  0  0  0  0
  7  1  2  0  0  0  0
  8 37  1  0  0  0  0
  9  6  1  0  0  0  0
  9  3  1  0  0  0  0
  9  4  1  0  0  0  0
 10 11  1  0  0  0  0
 10  2  1  0  0  0  0
 11 13  1  1  0  0  0
 11  9  1  0  0  0  0
 12 14  1  0  0  0  0
 13 12  3  0  0  0  0
 14 15  1  6  0  0  0
 14 27  1  0  0  0  0
 15 16  1  0  0  0  0
 16 17  1  0  0  0  0
 19 18  1  6  0  0  0
 19 17  1  0  0  0  0
 20 21  1  6  0  0  0
 20 22  1  0  0  0  0
 20 19  1  0  0  0  0
 23 26  1  0  0  0  0
 23 22  1  0  0  0  0
 24 26  2  0  0  0  0
 26 25  1  0  0  0  0
 27 28  1  0  0  0  0
 29 28  1  0  0  0  0
 29 30  1  0  0  0  0
 30 31  1  0  0  0  0
 31 33  1  0  0  0  0
 32 36  2  0  0  0  0
 33 32  1  0  0  0  0
 34 33  1  0  0  0  0
 34 35  2  0  0  0  0
 35 36  1  0  0  0  0
 37 38  1  0  0  0  0
 39 45  1  0  0  0  0
 40 38  1  6  0  0  0
 40 39  1  0  0  0  0
 42 40  1  0  0  0  0
 42 41  1  0  0  0  0
 43 39  2  0  0  0  0
 44 41  1  6  0  0  0
 45 44  1  0  0  0  0
 46 53  1  1  0  0  0
 46 49  1  0  0  0  0
 47 54  1  1  0  0  0
 47 50  1  0  0  0  0
 48 44  1  6  0  0  0
 48 47  1  0  0  0  0
 48 46  1  0  0  0  0
 49 52  1  0  0  0  0
 49 51  2  0  0  0  0
 50 52  1  0  0  0  0
 54 55  1  6  0  0  0
 54 56  1  0  0  0  0
 56 57  1  0  0  0  0
 57 59  1  0  0  0  0
 58 57  1  0  0  0  0
M  END
>  <MODEL>
8

>  <REMARK>
 VINA RESULT:      -3.9      1.752      2.310
  Name = 
  23 active torsions:
  status: ('A' for Active; 'I' for Inactive)
    1  A    between atoms: C_3  and  C_30
    2  A    between atoms: C_3  and  C_40
    3  A    between atoms: C_6  and  C_26
    4  A    between atoms: C_6  and  O_46
    5  A    between atoms: C_8  and  C_40
    6  A    between atoms: C_8  and  C_42
    7  A    between atoms: C_9  and  O_46
    8  A    between atoms: C_14  and  C_22
    9  A    between atoms: C_15  and  C_27
   10  A    between atoms: C_15  and  O_49
   11  A    between atoms: N_16  and  C_31
   12  A    between atoms: C_22  and  C_47
   13  A    between atoms: C_25  and  C_47
   14  A    between atoms: C_27  and  C_53
   15  A    between atoms: C_30  and  N_33
   16  A    between atoms: C_35  and  C_36
   17  A    between atoms: C_35  and  C_41
   18  A    between atoms: C_36  and  C_53
   19  A    between atoms: C_41  and  C_44
   20  A    between atoms: C_42  and  C_44
   21  A    between atoms: C_44  and  C_50
   22  A    between atoms: C_45  and  C_51
   23  A    between atoms: O_49  and  C_57
                            x       y       z     vdW  Elec       q    Type
                         _______ _______ _______ _____ _____    ______ ____

>  <TORSDO>
F 23

$$$$
=
 OpenBabel10232409533D

 59 64  0  0  1  0  0  0  0  0999 V2000
  192.6330  175.8810  137.3750 C   0  0  0  0  0  3  0  0  0  0  0  0
  190.5650  176.8640  136.6580 C   0  0  0  0  0  0  0  0  0  0  0  0
  190.1920  177.0670  137.9650 C   0  0  0  0  0  0  0  0  0  0  0  0
  187.9360  177.9160  139.1070 C   0  0  0  0  0  2  0  0  0  0  0  0
  192.2600  176.0950  138.7150 C   0  0  0  0  0  3  0  0  0  0  0  0
  188.8410  179.0470  138.6480 C   0  0  0  0  0  2  0  0  0  0  0  0
  191.7810  176.2690  136.3310 C   0  0  0  0  0  3  0  0  0  0  0  0
  191.0190  176.6830  139.0310 C   0  0  0  0  0  0  0  0  0  0  0  0
  188.8600  177.7200  137.9260 C   0  0  0  0  0  0  0  0  0  0  0  0
  189.5990  177.3300  135.7230 N   0  0  0  0  0  2  0  0  0  0  0  0
  188.4540  177.8750  136.4590 C   0  0  1  0  0  3  0  0  0  0  0  0
  186.3000  176.3900  135.9180 C   0  0  0  0  0  0  0  0  0  0  0  0
  187.2660  177.0690  136.1610 C   0  0  0  0  0  0  0  0  0  0  0  0
  185.1350  175.5450  135.6270 C   0  0  2  0  0  3  0  0  0  0  0  0
  184.0020  175.7850  136.6270 C   0  0  0  0  0  2  0  0  0  0  0  0
  184.4440  176.6350  137.8120 C   0  0  0  0  0  2  0  0  0  0  0  0
  183.8830  178.0470  137.6890 C   0  0  0  0  0  2  0  0  0  0  0  0
  181.8430  176.8090  137.3010 O   0  0  0  0  0  1  0  0  0  0  0  0
  182.4140  178.0830  137.2470 C   0  0  1  0  0  3  0  0  0  0  0  0
  181.5420  179.0980  137.9960 C   0  0  1  0  0  3  0  0  0  0  0  0
  181.2680  180.2260  137.2180 O   0  0  0  0  0  1  0  0  0  0  0  0
  180.2580  178.4870  138.5430 C   0  0  0  0  0  2  0  0  0  0  0  0
  179.9880  178.9570  139.8560 O   0  0  0  0  0  0  0  0  0  0  0  0
  180.0760  178.6340  142.1380 O   0  0  0  0  0  0  0  0  0  0  0  0
  181.4000  177.1580  140.8400 C   0  0  0  0  0  1  0  0  0  0  0  0
  180.4490  178.2880  140.9900 C   0  0  0  0  0  0  0  0  0  0  0  0
  185.5300  174.0780  135.5670 C   0  0  0  0  0  2  0  0  0  0  0  0
  184.6880  173.2670  136.5340 C   0  0  0  0  0  2  0  0  0  0  0  0
  185.2210  171.8490  136.6480 C   0  0  0  0  0  2  0  0  0  0  0  0
  184.1670  170.8590  136.1830 C   0  0  0  0  0  2  0  0  0  0  0  0
  183.7130  171.1800  134.7680 C   0  0  0  0  0  2  0  0  0  0  0  0
  181.4080  172.0730  134.5630 C   0  0  0  0  0  3  0  0  0  0  0  0
  182.2680  171.0550  134.6740 N   0  0  0  0  0  0  0  0  0  0  0  0
  181.5760  169.9060  134.7420 C   0  0  0  0  0  3  0  0  0  0  0  0
  180.2290  170.1940  134.6580 C   0  0  0  0  0  3  0  0  0  0  0  0
  180.1210  171.5690  134.5440 C   0  0  0  0  0  3  0  0  0  0  0  0
  190.6550  177.0070  140.4520 C   0  0  0  0  0  2  0  0  0  0  0  0
  191.7830  177.0880  141.2760 O   0  0  0  0  0  0  0  0  0  0  0  0
  190.4950  178.2210  142.9530 C   0  0  0  0  0  0  0  0  0  0  0  0
  191.2870  176.9970  142.5810 C   0  0  1  0  0  3  0  0  0  0  0  0
  189.8120  175.6730  144.1060 C   0  0  0  0  0  2  0  0  0  0  0  0
  190.4370  175.7360  142.7190 C   0  0  0  0  0  2  0  0  0  0  0  0
  190.8470  179.3580  142.5350 O   0  0  0  0  0  0  0  0  0  0  0  0
  188.8270  176.8280  144.2820 C   0  0  2  0  0  3  0  0  0  0  0  0
  189.4220  178.1140  143.8950 N   0  0  0  0  0  2  0  0  0  0  0  0
  188.9370  177.8830  146.5110 C   0  0  1  0  0  3  0  0  0  0  0  0
  186.8290  176.8890  145.6820 C   0  0  1  0  0  3  0  0  0  0  0  0
  188.3070  176.8480  145.6580 N   0  0  1  0  0  0  0  0  0  0  0  0
  188.0830  178.2010  147.7020 C   0  0  0  0  0  0  0  0  0  0  0  0
  186.3840  176.6430  147.0000 O   0  0  0  0  0  0  0  0  0  0  0  0
  188.4720  179.0290  148.5670 O   0  0  0  0  0  0  0  0  0  0  0  0
  186.7950  177.6640  147.7870 O   0  0  0  0  0  0  0  0  0  0  0  0
  190.3140  177.4150  146.9770 C   0  0  0  0  0  1  0  0  0  0  0  0
  186.2180  178.1720  145.0630 C   0  0  1  0  0  3  0  0  0  0  0  0
  186.1930  178.0520  143.5500 C   0  0  0  0  0  1  0  0  0  0  0  0
  184.7920  178.4280  145.5470 C   0  0  0  0  0  2  0  0  0  0  0  0
  183.9720  179.1470  144.4840 C   0  0  0  0  0  3  0  0  0  0  0  0
  184.3820  180.6050  144.4050 C   0  0  0  0  0  1  0  0  0  0  0  0
  182.5040  179.0720  144.8560 C   0  0  0  0  0  1  0  0  0  0  0  0
  1  5  1  0  0  0  0
  2  3  2  0  0  0  0
  3  8  1  0  0  0  0
  5  8  2  0  0  0  0
  6  4  1  0  0  0  0
  7  2  1  0  0  0  0
  7  1  2  0  0  0  0
  8 37  1  0  0  0  0
  9  3  1  0  0  0  0
  9  6  1  0  0  0  0
  9  4  1  0  0  0  0
 10 11  1  0  0  0  0
 10  2  1  0  0  0  0
 11 13  1  1  0  0  0
 11  9  1  0  0  0  0
 12 13  3  0  0  0  0
 14 27  1  1  0  0  0
 14 12  1  0  0  0  0
 14 15  1  0  0  0  0
 15 16  1  0  0  0  0
 17 16  1  0  0  0  0
 19 18  1  1  0  0  0
 19 17  1  0  0  0  0
 19 20  1  0  0  0  0
 20 21  1  6  0  0  0
 20 22  1  0  0  0  0
 22 23  1  0  0  0  0
 23 26  1  0  0  0  0
 25 26  1  0  0  0  0
 26 24  2  0  0  0  0
 27 28  1  0  0  0  0
 28 29  1  0  0  0  0
 30 29  1  0  0  0  0
 31 30  1  0  0  0  0
 32 33  1  0  0  0  0
 33 34  1  0  0  0  0
 33 31  1  0  0  0  0
 35 34  2  0  0  0  0
 36 32  2  0  0  0  0
 36 35  1  0  0  0  0
 37 38  1  0  0  0  0
 39 45  1  0  0  0  0
 40 38  1  6  0  0  0
 40 42  1  0  0  0  0
 40 39  1  0  0  0  0
 42 41  1  0  0  0  0
 43 39  2  0  0  0  0
 44 41  1  1  0  0  0
 45 44  1  0  0  0  0
 46 53  1  1  0  0  0
 46 49  1  0  0  0  0
 47 54  1  1  0  0  0
 47 50  1  0  0  0  0
 48 44  1  6  0  0  0
 48 47  1  0  0  0  0
 48 46  1  0  0  0  0
 49 52  1  0  0  0  0
 49 51  2  0  0  0  0
 50 52  1  0  0  0  0
 54 55  1  6  0  0  0
 54 56  1  0  0  0  0
 57 59  1  0  0  0  0
 57 56  1  0  0  0  0
 58 57  1  0  0  0  0
M  END
>  <MODEL>
9

>  <REMARK>
 VINA RESULT:      -3.6      2.497      5.271
  Name = 
  23 active torsions:
  status: ('A' for Active; 'I' for Inactive)
    1  A    between atoms: C_3  and  C_30
    2  A    between atoms: C_3  and  C_40
    3  A    between atoms: C_6  and  C_26
    4  A    between atoms: C_6  and  O_46
    5  A    between atoms: C_8  and  C_40
    6  A    between atoms: C_8  and  C_42
    7  A    between atoms: C_9  and  O_46
    8  A    between atoms: C_14  and  C_22
    9  A    between atoms: C_15  and  C_27
   10  A    between atoms: C_15  and  O_49
   11  A    between atoms: N_16  and  C_31
   12  A    between atoms: C_22  and  C_47
   13  A    between atoms: C_25  and  C_47
   14  A    between atoms: C_27  and  C_53
   15  A    between atoms: C_30  and  N_33
   16  A    between atoms: C_35  and  C_36
   17  A    between atoms: C_35  and  C_41
   18  A    between atoms: C_36  and  C_53
   19  A    between atoms: C_41  and  C_44
   20  A    between atoms: C_42  and  C_44
   21  A    between atoms: C_44  and  C_50
   22  A    between atoms: C_45  and  C_51
   23  A    between atoms: O_49  and  C_57
                            x       y       z     vdW  Elec       q    Type
                         _______ _______ _______ _____ _____    ______ ____

>  <TORSDO>
F 23

$$$$
