=
 OpenBabel10232408473D

 55 60  0  0  1  0  0  0  0  0999 V2000
  191.1400  178.0190  142.0160 N   0  0  0  0  0  2  0  0  0  0  0  0
  189.6350  176.8810  144.5260 C   0  0  2  0  0  3  0  0  0  0  0  0
  191.2330  177.1570  143.1890 C   0  0  1  0  0  3  0  0  0  0  0  0
  190.9270  178.1200  144.6730 S   0  0  0  0  0  0  0  0  0  0  0  0
  189.6400  175.2900  142.5530 O   0  0  0  0  0  0  0  0  0  0  0  0
  190.0550  176.2090  143.2370 C   0  0  0  0  0  0  0  0  0  0  0  0
  186.2360  178.5370  145.3330 C   0  0  0  0  0  0  0  0  0  0  0  0
  186.9100  178.4220  147.5830 C   0  0  0  0  0  2  0  0  0  0  0  0
  187.5480  177.9660  145.4530 C   0  0  0  0  0  0  0  0  0  0  0  0
  184.5300  177.9510  147.0210 C   0  0  0  0  0  1  0  0  0  0  0  0
  185.6420  178.7740  144.2020 N   0  0  0  0  0  0  0  0  0  0  0  0
  187.9360  177.8960  146.6800 N   0  0  0  0  0  0  0  0  0  0  0  0
  188.3490  177.5400  144.3470 N   0  0  0  0  0  2  0  0  0  0  0  0
  185.7220  178.8390  146.6990 C   0  0  2  0  0  3  0  0  0  0  0  0
  184.3320  179.3990  144.0910 C   0  0  0  0  0  2  0  0  0  0  0  0
  183.4100  178.5370  143.2430 C   0  0  0  0  0  2  0  0  0  0  0  0
  181.7590  180.1560  143.6480 O   0  0  0  0  0  0  0  0  0  0  0  0
  181.9920  179.0400  143.2150 C   0  0  0  0  0  0  0  0  0  0  0  0
  180.6330  178.0750  142.5360 S   0  0  0  0  0  0  0  0  0  0  0  0
  180.7120  177.1240  140.0480 C   0  0  2  0  0  3  0  0  0  0  0  0
  180.3150  179.0910  139.8830 C   0  0  0  0  0  2  0  0  0  0  0  0
  181.2010  178.3320  140.8310 C   0  0  1  0  0  0  0  0  0  0  0  0
  182.2030  177.3640  140.2210 C   0  0  2  0  0  3  0  0  0  0  0  0
  180.0360  177.9470  139.1250 O   0  0  0  0  0  0  0  0  0  0  0  0
  182.8610  177.9220  138.9570 C   0  0  0  0  0  2  0  0  0  0  0  0
  183.7160  180.2040  138.8550 C   0  0  0  0  0  2  0  0  0  0  0  0
  183.9170  178.9560  139.2590 C   0  0  0  0  0  0  0  0  0  0  0  0
  185.1780  178.6360  140.0070 C   0  0  0  0  0  1  0  0  0  0  0  0
  191.5370  177.1320  139.7400 C   0  0  0  0  0  0  0  0  0  0  0  0
  192.0020  177.4960  141.0430 N   0  0  0  0  0  2  0  0  0  0  0  0
  190.3200  177.2520  139.4390 O   0  0  0  0  0  0  0  0  0  0  0  0
  192.6950  176.5120  138.5240 S   0  0  0  0  0  0  0  0  0  0  0  0
  191.4970  175.3350  137.8260 C   0  0  0  0  0  2  0  0  0  0  0  0
  192.3790  173.9050  137.1320 S   0  0  0  0  0  0  0  0  0  0  0  0
  191.3790  173.9000  135.6460 C   0  0  0  0  0  0  0  0  0  0  0  0
  191.5600  172.9690  134.7690 N   0  0  0  0  0  2  0  0  0  0  0  0
  189.0250  174.6940  135.9980 N   0  0  0  0  0  2  0  0  0  0  0  0
  190.3310  174.9090  135.4490 C   0  0  0  0  0  0  0  0  0  0  0  0
  190.5840  175.9640  134.8050 O   0  0  0  0  0  0  0  0  0  0  0  0
  185.4500  175.8940  135.8120 C   0  0  1  0  0  3  0  0  0  0  0  0
  187.0040  179.0370  137.2910 O   0  0  0  0  0  1  0  0  0  0  0  0
  185.4270  177.0480  136.6180 O   0  0  0  0  0  0  0  0  0  0  0  0
  186.8950  177.8610  136.3440 P   0  0  2  0  0  0  0  0  0  0  0  0
  188.1530  176.7650  136.6690 O   0  0  0  0  0  0  0  0  0  0  0  0
  186.5870  174.9490  136.2080 C   0  0  0  0  0  2  0  0  0  0  0  0
  187.9170  175.6330  135.8690 C   0  0  2  0  0  3  0  0  0  0  0  0
  186.9800  178.4040  134.7410 O   0  0  0  0  0  0  0  0  0  0  0  0
  184.2290  175.2260  135.9310 O   0  0  0  0  0  0  0  0  0  0  0  0
  183.3080  173.2830  137.0530 C   0  0  1  0  0  3  0  0  0  0  0  0
  184.1110  172.9440  135.9410 O   0  0  0  0  0  0  0  0  0  0  0  0
  184.5230  174.0740  136.6720 C   0  0  1  0  0  3  0  0  0  0  0  0
  181.9380  173.8680  136.6320 C   0  0  1  0  0  3  0  0  0  0  0  0
  181.3720  173.1170  135.6040 O   0  0  0  0  0  1  0  0  0  0  0  0
  180.9300  174.0730  137.7590 C   0  0  0  0  0  2  0  0  0  0  0  0
  179.9820  173.0520  137.7410 O   0  0  0  0  0  1  0  0  0  0  0  0
  2 13  1  6  0  0  0
  2  4  1  0  0  0  0
  3  1  1  6  0  0  0
  3  6  1  0  0  0  0
  3  4  1  0  0  0  0
  5  6  2  0  0  0  0
  6  2  1  0  0  0  0
  7  9  1  0  0  0  0
  7 14  1  0  0  0  0
  9 12  2  0  0  0  0
 11  7  2  0  0  0  0
 12  8  1  0  0  0  0
 13  9  1  0  0  0  0
 14 10  1  1  0  0  0
 14  8  1  0  0  0  0
 15 11  1  0  0  0  0
 16 15  1  0  0  0  0
 18 16  1  0  0  0  0
 18 17  2  0  0  0  0
 19 18  1  0  0  0  0
 20 24  1  6  0  0  0
 20 23  1  0  0  0  0
 20 22  1  0  0  0  0
 21 22  1  0  0  0  0
 22 19  1  1  0  0  0
 23 25  1  6  0  0  0
 23 22  1  0  0  0  0
 24 21  1  0  0  0  0
 25 27  1  0  0  0  0
 26 27  2  0  0  0  0
 27 28  1  0  0  0  0
 29 30  1  0  0  0  0
 30  1  1  0  0  0  0
 31 29  2  0  0  0  0
 32 29  1  0  0  0  0
 33 32  1  0  0  0  0
 34 33  1  0  0  0  0
 35 34  1  0  0  0  0
 36 35  2  0  0  0  0
 38 35  1  0  0  0  0
 38 37  1  0  0  0  0
 39 38  2  0  0  0  0
 40 48  1  1  0  0  0
 40 45  1  0  0  0  0
 40 42  1  0  0  0  0
 43 47  2  6  0  0  0
 43 42  1  0  0  0  0
 43 44  1  0  0  0  0
 43 41  1  0  0  0  0
 46 37  1  1  0  0  0
 46 45  1  0  0  0  0
 46 44  1  0  0  0  0
 49 52  1  6  0  0  0
 50 51  1  0  0  0  0
 50 49  1  0  0  0  0
 51 48  1  6  0  0  0
 51 49  1  0  0  0  0
 52 53  1  6  0  0  0
 52 54  1  0  0  0  0
 55 54  1  0  0  0  0
M  END
>  <MODEL>
1

>  <REMARK>
 VINA RESULT:      -6.0      0.000      0.000
  Name = 
  20 active torsions:
  status: ('A' for Active; 'I' for Inactive)
    1  A    between atoms: C_1  and  C_18
    2  A    between atoms: C_2  and  N_44
    3  A    between atoms: C_3  and  O_22
    4  A    between atoms: C_5  and  N_24
    5  A    between atoms: C_6  and  C_18
    6  A    between atoms: S_8  and  C_16
    7  A    between atoms: S_8  and  C_23
    8  A    between atoms: N_10  and  C_35
    9  A    between atoms: C_16  and  C_31
   10  A    between atoms: O_22  and  C_49
   11  A    between atoms: C_23  and  S_34
   12  A    between atoms: N_24  and  N_29
   13  A    between atoms: C_25  and  S_34
   14  A    between atoms: C_27  and  C_28
   15  A    between atoms: C_27  and  C_40
   16  A    between atoms: C_28  and  N_42
   17  A    between atoms: C_32  and  S_47
   18  A    between atoms: C_36  and  C_55
   19  A    between atoms: C_38  and  C_55
   20  A    between atoms: C_40  and  S_47
                            x       y       z     vdW  Elec       q    Type
                         _______ _______ _______ _____ _____    ______ ____

>  <TORSDO>
F 20

$$$$
=
 OpenBabel10232408473D

 55 60  0  0  1  0  0  0  0  0999 V2000
  188.4380  178.8500  146.3680 N   0  0  0  0  0  2  0  0  0  0  0  0
  185.4640  177.9950  145.8350 C   0  0  2  0  0  3  0  0  0  0  0  0
  187.2300  178.2690  146.9430 C   0  0  1  0  0  3  0  0  0  0  0  0
  185.8770  179.4430  146.8150 S   0  0  0  0  0  0  0  0  0  0  0  0
  187.1030  176.0660  145.6950 O   0  0  0  0  0  0  0  0  0  0  0  0
  186.7080  177.1620  146.0540 C   0  0  0  0  0  0  0  0  0  0  0  0
  183.9380  178.9080  142.4030 C   0  0  0  0  0  0  0  0  0  0  0  0
  181.8710  178.9370  143.5240 C   0  0  0  0  0  2  0  0  0  0  0  0
  184.1010  178.6230  143.8010 C   0  0  0  0  0  0  0  0  0  0  0  0
  181.9730  177.9820  141.2260 C   0  0  0  0  0  1  0  0  0  0  0  0
  184.9190  179.0170  141.5590 N   0  0  0  0  0  0  0  0  0  0  0  0
  182.9790  178.6350  144.4330 N   0  0  0  0  0  0  0  0  0  0  0  0
  185.3600  178.3720  144.4330 N   0  0  0  0  0  2  0  0  0  0  0  0
  182.4860  179.0970  142.1230 C   0  0  2  0  0  3  0  0  0  0  0  0
  184.7450  179.3550  140.1540 C   0  0  0  0  0  2  0  0  0  0  0  0
  185.6450  178.4870  139.2890 C   0  0  0  0  0  2  0  0  0  0  0  0
  185.7920  178.1000  136.9780 O   0  0  0  0  0  0  0  0  0  0  0  0
  185.0500  178.1760  137.9430 C   0  0  0  0  0  0  0  0  0  0  0  0
  183.2910  177.8750  137.7060 S   0  0  0  0  0  0  0  0  0  0  0  0
  182.7130  175.3090  137.2800 C   0  0  2  0  0  3  0  0  0  0  0  0
  182.7710  176.1790  135.4650 C   0  0  0  0  0  2  0  0  0  0  0  0
  183.6010  176.3970  136.6980 C   0  0  1  0  0  0  0  0  0  0  0  0
  184.2260  175.1690  137.3420 C   0  0  2  0  0  3  0  0  0  0  0  0
  182.1020  175.0850  136.0290 O   0  0  0  0  0  0  0  0  0  0  0  0
  184.7690  174.1790  136.3100 C   0  0  0  0  0  2  0  0  0  0  0  0
  186.2250  172.5290  137.3620 C   0  0  0  0  0  2  0  0  0  0  0  0
  185.0160  172.8100  136.8910 C   0  0  0  0  0  0  0  0  0  0  0  0
  183.9510  171.7560  136.9700 C   0  0  0  0  0  1  0  0  0  0  0  0
  190.3440  177.9520  145.0700 C   0  0  0  0  0  0  0  0  0  0  0  0
  189.2860  177.7900  146.0180 N   0  0  0  0  0  2  0  0  0  0  0  0
  190.5300  179.0610  144.5020 O   0  0  0  0  0  0  0  0  0  0  0  0
  191.4230  176.5730  144.6960 S   0  0  0  0  0  0  0  0  0  0  0  0
  191.1010  176.6660  142.9090 C   0  0  0  0  0  2  0  0  0  0  0  0
  189.4180  176.0790  142.5590 S   0  0  0  0  0  0  0  0  0  0  0  0
  189.0850  177.4350  141.4370 C   0  0  0  0  0  0  0  0  0  0  0  0
  188.4290  178.4610  141.8680 N   0  0  0  0  0  2  0  0  0  0  0  0
  190.3490  176.2770  139.6050 N   0  0  0  0  0  2  0  0  0  0  0  0
  189.5940  177.4060  140.0600 C   0  0  0  0  0  0  0  0  0  0  0  0
  189.3600  178.3710  139.2810 O   0  0  0  0  0  0  0  0  0  0  0  0
  192.9560  175.9400  136.8950 C   0  0  1  0  0  3  0  0  0  0  0  0
  190.1270  174.0710  135.1670 O   0  0  0  0  0  0  0  0  0  0  0  0
  192.4440  174.9440  136.0410 O   0  0  0  0  0  0  0  0  0  0  0  0
  190.7650  175.1970  135.9520 P   0  0  2  0  0  0  0  0  0  0  0  0
  190.1630  175.1790  137.5410 O   0  0  0  0  0  0  0  0  0  0  0  0
  192.3900  175.8150  138.3120 C   0  0  0  0  0  2  0  0  0  0  0  0
  190.8930  176.1430  138.2590 C   0  0  2  0  0  3  0  0  0  0  0  0
  190.4280  176.6800  135.2060 O   0  0  0  0  0  1  0  0  0  0  0  0
  194.3480  175.8350  136.9400 O   0  0  0  0  0  0  0  0  0  0  0  0
  195.9600  174.2030  137.7260 C   0  0  1  0  0  3  0  0  0  0  0  0
  195.6770  175.1990  138.6870 O   0  0  0  0  0  0  0  0  0  0  0  0
  194.6000  174.8150  137.8660 C   0  0  1  0  0  3  0  0  0  0  0  0
  196.8450  174.7330  136.5730 C   0  0  1  0  0  3  0  0  0  0  0  0
  197.7870  175.6450  137.0470 O   0  0  0  0  0  1  0  0  0  0  0  0
  197.5200  173.6710  135.7110 C   0  0  0  0  0  2  0  0  0  0  0  0
  198.0090  172.6450  136.5170 O   0  0  0  0  0  1  0  0  0  0  0  0
  2 13  1  6  0  0  0
  2  6  1  0  0  0  0
  2  4  1  0  0  0  0
  3  1  1  6  0  0  0
  4  3  1  0  0  0  0
  5  6  2  0  0  0  0
  6  3  1  0  0  0  0
  7  9  1  0  0  0  0
  8 12  1  0  0  0  0
  9 13  1  0  0  0  0
  9 12  2  0  0  0  0
 11  7  2  0  0  0  0
 14 10  1  6  0  0  0
 14  7  1  0  0  0  0
 14  8  1  0  0  0  0
 15 11  1  0  0  0  0
 16 15  1  0  0  0  0
 17 18  2  0  0  0  0
 18 16  1  0  0  0  0
 19 18  1  0  0  0  0
 20 24  1  6  0  0  0
 20 23  1  0  0  0  0
 21 24  1  0  0  0  0
 21 22  1  0  0  0  0
 22 20  1  0  0  0  0
 22 23  1  0  0  0  0
 22 19  1  1  0  0  0
 23 25  1  6  0  0  0
 25 27  1  0  0  0  0
 27 28  1  0  0  0  0
 27 26  2  0  0  0  0
 29 30  1  0  0  0  0
 30  1  1  0  0  0  0
 31 29  2  0  0  0  0
 32 29  1  0  0  0  0
 33 32  1  0  0  0  0
 34 33  1  0  0  0  0
 35 36  2  0  0  0  0
 35 34  1  0  0  0  0
 37 38  1  0  0  0  0
 38 35  1  0  0  0  0
 39 38  2  0  0  0  0
 40 48  1  1  0  0  0
 40 45  1  0  0  0  0
 42 40  1  0  0  0  0
 43 41  2  6  0  0  0
 43 42  1  0  0  0  0
 43 44  1  0  0  0  0
 44 46  1  0  0  0  0
 46 45  1  0  0  0  0
 46 37  1  1  0  0  0
 47 43  1  0  0  0  0
 49 52  1  6  0  0  0
 49 51  1  0  0  0  0
 49 50  1  0  0  0  0
 51 48  1  6  0  0  0
 51 50  1  0  0  0  0
 52 53  1  1  0  0  0
 54 55  1  0  0  0  0
 54 52  1  0  0  0  0
M  END
>  <MODEL>
2

>  <REMARK>
 VINA RESULT:      -5.8      3.096      7.512
  Name = 
  20 active torsions:
  status: ('A' for Active; 'I' for Inactive)
    1  A    between atoms: C_1  and  C_18
    2  A    between atoms: C_2  and  N_44
    3  A    between atoms: C_3  and  O_22
    4  A    between atoms: C_5  and  N_24
    5  A    between atoms: C_6  and  C_18
    6  A    between atoms: S_8  and  C_16
    7  A    between atoms: S_8  and  C_23
    8  A    between atoms: N_10  and  C_35
    9  A    between atoms: C_16  and  C_31
   10  A    between atoms: O_22  and  C_49
   11  A    between atoms: C_23  and  S_34
   12  A    between atoms: N_24  and  N_29
   13  A    between atoms: C_25  and  S_34
   14  A    between atoms: C_27  and  C_28
   15  A    between atoms: C_27  and  C_40
   16  A    between atoms: C_28  and  N_42
   17  A    between atoms: C_32  and  S_47
   18  A    between atoms: C_36  and  C_55
   19  A    between atoms: C_38  and  C_55
   20  A    between atoms: C_40  and  S_47
                            x       y       z     vdW  Elec       q    Type
                         _______ _______ _______ _____ _____    ______ ____

>  <TORSDO>
F 20

$$$$
=
 OpenBabel10232408473D

 55 60  0  0  1  0  0  0  0  0999 V2000
  190.5120  176.1700  141.3920 N   0  0  0  0  0  2  0  0  0  0  0  0
  190.9700  177.6890  144.1010 C   0  0  2  0  0  3  0  0  0  0  0  0
  191.4970  176.7590  142.2910 C   0  0  1  0  0  3  0  0  0  0  0  0
  191.1450  178.5070  142.5110 S   0  0  0  0  0  0  0  0  0  0  0  0
  191.3510  175.1890  144.2760 O   0  0  0  0  0  0  0  0  0  0  0  0
  191.2800  176.2630  143.7030 C   0  0  0  0  0  0  0  0  0  0  0  0
  187.8940  177.9170  146.4310 C   0  0  0  0  0  0  0  0  0  0  0  0
  189.4500  178.1410  148.1790 C   0  0  0  0  0  2  0  0  0  0  0  0
  189.2400  177.9050  145.9320 C   0  0  0  0  0  0  0  0  0  0  0  0
  187.4100  176.7660  148.5630 C   0  0  0  0  0  1  0  0  0  0  0  0
  186.8340  177.8710  145.6800 N   0  0  0  0  0  0  0  0  0  0  0  0
  190.1090  178.0280  146.8760 N   0  0  0  0  0  0  0  0  0  0  0  0
  189.5890  177.7910  144.5490 N   0  0  0  0  0  2  0  0  0  0  0  0
  187.9380  178.0360  147.9160 C   0  0  2  0  0  3  0  0  0  0  0  0
  185.4740  177.9330  146.1940 C   0  0  0  0  0  2  0  0  0  0  0  0
  184.6590  178.9430  145.4020 C   0  0  0  0  0  2  0  0  0  0  0  0
  185.2040  177.7710  143.4430 O   0  0  0  0  0  0  0  0  0  0  0  0
  184.4010  178.5120  143.9840 C   0  0  0  0  0  0  0  0  0  0  0  0
  182.9360  179.0160  143.0670 S   0  0  0  0  0  0  0  0  0  0  0  0
  182.9210  179.2040  140.4090 C   0  0  2  0  0  3  0  0  0  0  0  0
  184.8540  179.0440  140.9480 C   0  0  0  0  0  2  0  0  0  0  0  0
  183.6130  178.4010  141.4990 C   0  0  1  0  0  0  0  0  0  0  0  0
  182.6930  177.7040  140.5080 C   0  0  2  0  0  3  0  0  0  0  0  0
  184.1580  179.6280  139.8830 O   0  0  0  0  0  0  0  0  0  0  0  0
  183.4650  176.9190  139.4450 C   0  0  0  0  0  2  0  0  0  0  0  0
  183.8030  177.4590  137.0910 C   0  0  0  0  0  2  0  0  0  0  0  0
  182.9380  177.1570  138.0520 C   0  0  0  0  0  0  0  0  0  0  0  0
  181.4820  177.0550  137.7040 C   0  0  0  0  0  1  0  0  0  0  0  0
  189.2530  177.6300  139.8400 C   0  0  0  0  0  0  0  0  0  0  0  0
  190.4580  176.9730  140.2450 N   0  0  0  0  0  2  0  0  0  0  0  0
  188.1910  177.4830  140.5020 O   0  0  0  0  0  0  0  0  0  0  0  0
  189.2570  178.6800  138.3910 S   0  0  0  0  0  0  0  0  0  0  0  0
  189.7420  177.3270  137.2780 C   0  0  0  0  0  2  0  0  0  0  0  0
  188.4050  176.0990  137.1880 S   0  0  0  0  0  0  0  0  0  0  0  0
  189.2360  175.1600  135.9090 C   0  0  0  0  0  0  0  0  0  0  0  0
  188.7950  175.2210  134.6970 N   0  0  0  0  0  2  0  0  0  0  0  0
  191.4330  174.1660  135.2150 N   0  0  0  0  0  2  0  0  0  0  0  0
  190.4350  174.3710  136.2220 C   0  0  0  0  0  0  0  0  0  0  0  0
  190.5860  173.8850  137.3760 O   0  0  0  0  0  0  0  0  0  0  0  0
  194.9480  173.4360  136.3850 C   0  0  1  0  0  3  0  0  0  0  0  0
  193.5780  169.8880  136.5230 O   0  0  0  0  0  1  0  0  0  0  0  0
  194.8730  172.1370  136.9240 O   0  0  0  0  0  0  0  0  0  0  0  0
  193.8230  171.2540  135.9190 P   0  0  2  0  0  0  0  0  0  0  0  0
  192.3520  172.1030  135.8480 O   0  0  0  0  0  0  0  0  0  0  0  0
  193.5860  174.1350  136.4040 C   0  0  0  0  0  2  0  0  0  0  0  0
  192.6610  173.4080  135.4220 C   0  0  2  0  0  3  0  0  0  0  0  0
  194.4870  171.0870  134.3700 O   0  0  0  0  0  0  0  0  0  0  0  0
  195.8660  174.1860  137.1220 O   0  0  0  0  0  0  0  0  0  0  0  0
  198.1270  174.6870  136.3990 C   0  0  1  0  0  3  0  0  0  0  0  0
  197.4270  173.8700  135.4830 O   0  0  0  0  0  0  0  0  0  0  0  0
  196.6540  174.8310  136.1600 C   0  0  1  0  0  3  0  0  0  0  0  0
  198.5510  173.9140  137.6710 C   0  0  1  0  0  3  0  0  0  0  0  0
  199.4010  172.8570  137.3510 O   0  0  0  0  0  1  0  0  0  0  0  0
  199.1510  174.7590  138.7910 C   0  0  0  0  0  2  0  0  0  0  0  0
  198.2500  175.7500  139.1740 O   0  0  0  0  0  1  0  0  0  0  0  0
  2 13  1  6  0  0  0
  3  1  1  6  0  0  0
  3  4  1  0  0  0  0
  3  6  1  0  0  0  0
  4  2  1  0  0  0  0
  6  2  1  0  0  0  0
  6  5  2  0  0  0  0
  7 14  1  0  0  0  0
  9  7  1  0  0  0  0
  9 12  2  0  0  0  0
 11 15  1  0  0  0  0
 11  7  2  0  0  0  0
 12  8  1  0  0  0  0
 13  9  1  0  0  0  0
 14  8  1  0  0  0  0
 14 10  1  1  0  0  0
 16 15  1  0  0  0  0
 17 18  2  0  0  0  0
 18 16  1  0  0  0  0
 19 18  1  0  0  0  0
 20 24  1  6  0  0  0
 20 23  1  0  0  0  0
 20 22  1  0  0  0  0
 21 22  1  0  0  0  0
 22 19  1  1  0  0  0
 23 25  1  6  0  0  0
 23 22  1  0  0  0  0
 24 21  1  0  0  0  0
 26 27  2  0  0  0  0
 27 25  1  0  0  0  0
 28 27  1  0  0  0  0
 29 30  1  0  0  0  0
 29 31  2  0  0  0  0
 30  1  1  0  0  0  0
 32 29  1  0  0  0  0
 33 32  1  0  0  0  0
 34 33  1  0  0  0  0
 35 38  1  0  0  0  0
 35 34  1  0  0  0  0
 36 35  2  0  0  0  0
 37 38  1  0  0  0  0
 38 39  2  0  0  0  0
 40 45  1  0  0  0  0
 40 42  1  0  0  0  0
 40 48  1  1  0  0  0
 43 47  2  6  0  0  0
 43 41  1  0  0  0  0
 43 42  1  0  0  0  0
 44 43  1  0  0  0  0
 46 37  1  1  0  0  0
 46 44  1  0  0  0  0
 46 45  1  0  0  0  0
 49 52  1  1  0  0  0
 50 51  1  0  0  0  0
 50 49  1  0  0  0  0
 51 49  1  0  0  0  0
 51 48  1  1  0  0  0
 52 53  1  6  0  0  0
 52 54  1  0  0  0  0
 54 55  1  0  0  0  0
M  END
>  <MODEL>
3

>  <REMARK>
 VINA RESULT:      -5.7      3.983      7.297
  Name = 
  20 active torsions:
  status: ('A' for Active; 'I' for Inactive)
    1  A    between atoms: C_1  and  C_18
    2  A    between atoms: C_2  and  N_44
    3  A    between atoms: C_3  and  O_22
    4  A    between atoms: C_5  and  N_24
    5  A    between atoms: C_6  and  C_18
    6  A    between atoms: S_8  and  C_16
    7  A    between atoms: S_8  and  C_23
    8  A    between atoms: N_10  and  C_35
    9  A    between atoms: C_16  and  C_31
   10  A    between atoms: O_22  and  C_49
   11  A    between atoms: C_23  and  S_34
   12  A    between atoms: N_24  and  N_29
   13  A    between atoms: C_25  and  S_34
   14  A    between atoms: C_27  and  C_28
   15  A    between atoms: C_27  and  C_40
   16  A    between atoms: C_28  and  N_42
   17  A    between atoms: C_32  and  S_47
   18  A    between atoms: C_36  and  C_55
   19  A    between atoms: C_38  and  C_55
   20  A    between atoms: C_40  and  S_47
                            x       y       z     vdW  Elec       q    Type
                         _______ _______ _______ _____ _____    ______ ____

>  <TORSDO>
F 20

$$$$
=
 OpenBabel10232408473D

 55 60  0  0  1  0  0  0  0  0999 V2000
  185.9920  177.2690  144.3210 N   0  0  0  0  0  2  0  0  0  0  0  0
  184.2260  179.1880  142.5720 C   0  0  2  0  0  3  0  0  0  0  0  0
  185.5350  178.6400  144.1240 C   0  0  1  0  0  3  0  0  0  0  0  0
  186.0210  179.2090  142.4910 S   0  0  0  0  0  0  0  0  0  0  0  0
  183.0750  178.4230  144.6970 O   0  0  0  0  0  0  0  0  0  0  0  0
  184.0290  178.6730  143.9820 C   0  0  0  0  0  0  0  0  0  0  0  0
  182.7180  177.7000  139.3390 C   0  0  0  0  0  0  0  0  0  0  0  0
  183.0000  179.8480  138.4240 C   0  0  0  0  0  2  0  0  0  0  0  0
  183.3170  178.5940  140.2890 C   0  0  0  0  0  0  0  0  0  0  0  0
  180.9440  178.5650  137.8540 C   0  0  0  0  0  1  0  0  0  0  0  0
  182.5040  176.4370  139.5560 N   0  0  0  0  0  0  0  0  0  0  0  0
  183.4810  179.7770  139.8060 N   0  0  0  0  0  0  0  0  0  0  0  0
  183.7090  178.2220  141.6140 N   0  0  0  0  0  2  0  0  0  0  0  0
  182.4430  178.4550  138.0840 C   0  0  2  0  0  3  0  0  0  0  0  0
  181.9410  175.5290  138.5670 C   0  0  0  0  0  2  0  0  0  0  0  0
  183.0140  174.5790  138.0560 C   0  0  0  0  0  2  0  0  0  0  0  0
  182.8600  175.6680  135.9820 O   0  0  0  0  0  0  0  0  0  0  0  0
  183.2080  174.6550  136.5670 C   0  0  0  0  0  0  0  0  0  0  0  0
  183.9670  173.3280  135.6170 S   0  0  0  0  0  0  0  0  0  0  0  0
  186.4130  173.3800  136.6740 C   0  0  2  0  0  3  0  0  0  0  0  0
  186.6530  173.6500  134.6940 C   0  0  0  0  0  2  0  0  0  0  0  0
  185.5930  174.1360  135.6410 C   0  0  1  0  0  0  0  0  0  0  0  0
  186.0600  174.8410  136.9040 C   0  0  2  0  0  3  0  0  0  0  0  0
  187.4230  173.1080  135.7300 O   0  0  0  0  0  0  0  0  0  0  0  0
  187.2410  175.7800  136.6480 C   0  0  0  0  0  2  0  0  0  0  0  0
  186.0340  177.5510  137.8100 C   0  0  0  0  0  2  0  0  0  0  0  0
  186.8820  177.2320  136.8400 C   0  0  0  0  0  0  0  0  0  0  0  0
  187.4500  178.3300  135.9900 C   0  0  0  0  0  1  0  0  0  0  0  0
  188.4200  177.2860  144.7980 C   0  0  0  0  0  0  0  0  0  0  0  0
  187.3230  177.2050  143.8850 N   0  0  0  0  0  2  0  0  0  0  0  0
  188.2160  177.4410  146.0310 O   0  0  0  0  0  0  0  0  0  0  0  0
  190.0980  177.1530  144.1870 S   0  0  0  0  0  0  0  0  0  0  0  0
  189.5870  176.3210  142.6530 C   0  0  0  0  0  2  0  0  0  0  0  0
  189.2840  177.5590  141.3570 S   0  0  0  0  0  0  0  0  0  0  0  0
  190.8830  177.2830  140.5980 C   0  0  0  0  0  0  0  0  0  0  0  0
  191.9420  177.3080  141.3360 N   0  0  0  0  0  2  0  0  0  0  0  0
  192.0710  176.1790  138.6840 N   0  0  0  0  0  2  0  0  0  0  0  0
  190.9860  176.9810  139.1650 C   0  0  0  0  0  0  0  0  0  0  0  0
  190.1160  177.4210  138.3640 O   0  0  0  0  0  0  0  0  0  0  0  0
  193.8910  175.0590  135.5710 C   0  0  1  0  0  3  0  0  0  0  0  0
  190.4480  173.6810  134.7170 O   0  0  0  0  0  1  0  0  0  0  0  0
  193.0230  174.1210  134.9790 O   0  0  0  0  0  0  0  0  0  0  0  0
  191.4450  174.7130  135.1990 P   0  0  2  0  0  0  0  0  0  0  0  0
  191.2240  174.9650  136.8650 O   0  0  0  0  0  0  0  0  0  0  0  0
  193.6460  175.1840  137.0770 C   0  0  0  0  0  2  0  0  0  0  0  0
  192.2630  175.8140  137.2860 C   0  0  2  0  0  3  0  0  0  0  0  0
  191.2310  176.1610  134.3470 O   0  0  0  0  0  0  0  0  0  0  0  0
  195.2120  174.6680  135.3460 O   0  0  0  0  0  0  0  0  0  0  0  0
  197.3570  175.7210  135.7620 C   0  0  1  0  0  3  0  0  0  0  0  0
  197.0020  175.7250  134.3960 O   0  0  0  0  0  0  0  0  0  0  0  0
  195.9380  175.8660  135.3060 C   0  0  1  0  0  3  0  0  0  0  0  0
  197.7890  174.3180  136.2540 C   0  0  1  0  0  3  0  0  0  0  0  0
  199.0320  173.9690  135.7300 O   0  0  0  0  0  1  0  0  0  0  0  0
  197.7710  174.1100  137.7650 C   0  0  0  0  0  2  0  0  0  0  0  0
  197.3340  175.2710  138.4000 O   0  0  0  0  0  1  0  0  0  0  0  0
  2 13  1  6  0  0  0
  2  6  1  0  0  0  0
  3  1  1  6  0  0  0
  4  2  1  0  0  0  0
  4  3  1  0  0  0  0
  6  3  1  0  0  0  0
  6  5  2  0  0  0  0
  7 11  2  0  0  0  0
  7  9  1  0  0  0  0
  8 12  1  0  0  0  0
  9 13  1  0  0  0  0
 12  9  2  0  0  0  0
 14 10  1  1  0  0  0
 14  8  1  0  0  0  0
 14  7  1  0  0  0  0
 15 11  1  0  0  0  0
 16 15  1  0  0  0  0
 17 18  2  0  0  0  0
 18 16  1  0  0  0  0
 19 18  1  0  0  0  0
 20 24  1  6  0  0  0
 20 23  1  0  0  0  0
 21 22  1  0  0  0  0
 21 24  1  0  0  0  0
 22 19  1  6  0  0  0
 22 20  1  0  0  0  0
 22 23  1  0  0  0  0
 23 25  1  6  0  0  0
 25 27  1  0  0  0  0
 27 26  2  0  0  0  0
 28 27  1  0  0  0  0
 29 31  2  0  0  0  0
 30  1  1  0  0  0  0
 30 29  1  0  0  0  0
 32 29  1  0  0  0  0
 33 32  1  0  0  0  0
 34 33  1  0  0  0  0
 35 36  2  0  0  0  0
 35 34  1  0  0  0  0
 37 38  1  0  0  0  0
 38 35  1  0  0  0  0
 39 38  2  0  0  0  0
 40 48  1  1  0  0  0
 40 45  1  0  0  0  0
 41 43  1  0  0  0  0
 42 43  1  0  0  0  0
 42 40  1  0  0  0  0
 43 47  2  6  0  0  0
 43 44  1  0  0  0  0
 44 46  1  0  0  0  0
 45 46  1  0  0  0  0
 46 37  1  1  0  0  0
 49 52  1  1  0  0  0
 50 51  1  0  0  0  0
 50 49  1  0  0  0  0
 51 48  1  1  0  0  0
 51 49  1  0  0  0  0
 52 53  1  1  0  0  0
 52 54  1  0  0  0  0
 54 55  1  0  0  0  0
M  END
>  <MODEL>
4

>  <REMARK>
 VINA RESULT:      -5.4      3.580      8.512
  Name = 
  20 active torsions:
  status: ('A' for Active; 'I' for Inactive)
    1  A    between atoms: C_1  and  C_18
    2  A    between atoms: C_2  and  N_44
    3  A    between atoms: C_3  and  O_22
    4  A    between atoms: C_5  and  N_24
    5  A    between atoms: C_6  and  C_18
    6  A    between atoms: S_8  and  C_16
    7  A    between atoms: S_8  and  C_23
    8  A    between atoms: N_10  and  C_35
    9  A    between atoms: C_16  and  C_31
   10  A    between atoms: O_22  and  C_49
   11  A    between atoms: C_23  and  S_34
   12  A    between atoms: N_24  and  N_29
   13  A    between atoms: C_25  and  S_34
   14  A    between atoms: C_27  and  C_28
   15  A    between atoms: C_27  and  C_40
   16  A    between atoms: C_28  and  N_42
   17  A    between atoms: C_32  and  S_47
   18  A    between atoms: C_36  and  C_55
   19  A    between atoms: C_38  and  C_55
   20  A    between atoms: C_40  and  S_47
                            x       y       z     vdW  Elec       q    Type
                         _______ _______ _______ _____ _____    ______ ____

>  <TORSDO>
F 20

$$$$
=
 OpenBabel10232408473D

 55 60  0  0  1  0  0  0  0  0999 V2000
  187.9840  178.6810  145.5140 N   0  0  0  0  0  2  0  0  0  0  0  0
  184.8950  178.1290  145.4300 C   0  0  2  0  0  3  0  0  0  0  0  0
  186.8080  178.2980  146.2850 C   0  0  1  0  0  3  0  0  0  0  0  0
  185.5770  179.6030  146.1980 S   0  0  0  0  0  0  0  0  0  0  0  0
  186.2950  176.0200  145.2980 O   0  0  0  0  0  0  0  0  0  0  0  0
  186.0650  177.1820  145.5850 C   0  0  0  0  0  0  0  0  0  0  0  0
  183.0300  178.8180  142.1150 C   0  0  0  0  0  0  0  0  0  0  0  0
  181.1060  179.0530  143.4460 C   0  0  0  0  0  2  0  0  0  0  0  0
  183.3380  178.6480  143.5070 C   0  0  0  0  0  0  0  0  0  0  0  0
  180.9080  177.8970  141.2500 C   0  0  0  0  0  1  0  0  0  0  0  0
  183.9130  178.8010  141.1620 N   0  0  0  0  0  0  0  0  0  0  0  0
  182.2960  178.7740  144.2540 N   0  0  0  0  0  0  0  0  0  0  0  0
  184.6480  178.3880  144.0190 N   0  0  0  0  0  2  0  0  0  0  0  0
  181.5650  179.0580  141.9780 C   0  0  2  0  0  3  0  0  0  0  0  0
  183.5960  179.0250  139.7590 C   0  0  0  0  0  2  0  0  0  0  0  0
  183.7990  177.7440  138.9640 C   0  0  0  0  0  2  0  0  0  0  0  0
  182.7370  178.2340  136.9290 O   0  0  0  0  0  0  0  0  0  0  0  0
  182.7390  177.5230  137.9200 C   0  0  0  0  0  0  0  0  0  0  0  0
  181.4970  176.2280  138.0580 S   0  0  0  0  0  0  0  0  0  0  0  0
  181.9420  173.7370  137.2250 C   0  0  2  0  0  3  0  0  0  0  0  0
  181.7310  174.8540  135.5630 C   0  0  0  0  0  2  0  0  0  0  0  0
  182.3750  175.1540  136.8870 C   0  0  1  0  0  0  0  0  0  0  0  0
  183.3930  174.1520  137.4090 C   0  0  2  0  0  3  0  0  0  0  0  0
  181.5040  173.5140  135.9040 O   0  0  0  0  0  0  0  0  0  0  0  0
  184.3040  173.6140  136.3030 C   0  0  0  0  0  2  0  0  0  0  0  0
  185.7740  175.4350  135.6150 C   0  0  0  0  0  2  0  0  0  0  0  0
  185.6510  174.2920  136.2800 C   0  0  0  0  0  0  0  0  0  0  0  0
  186.8540  173.7370  136.9850 C   0  0  0  0  0  1  0  0  0  0  0  0
  189.6570  177.3640  146.7750 C   0  0  0  0  0  0  0  0  0  0  0  0
  188.8990  177.6220  145.5900 N   0  0  0  0  0  2  0  0  0  0  0  0
  189.5360  178.1050  147.7860 O   0  0  0  0  0  0  0  0  0  0  0  0
  190.7770  175.9680  146.8290 S   0  0  0  0  0  0  0  0  0  0  0  0
  191.8720  176.6600  145.5530 C   0  0  0  0  0  2  0  0  0  0  0  0
  191.4600  175.9380  143.9360 S   0  0  0  0  0  0  0  0  0  0  0  0
  191.5260  177.5280  143.1130 C   0  0  0  0  0  0  0  0  0  0  0  0
  191.8030  178.5830  143.8040 N   0  0  0  0  0  2  0  0  0  0  0  0
  189.9900  177.5740  141.1300 N   0  0  0  0  0  2  0  0  0  0  0  0
  191.3190  177.6260  141.6630 C   0  0  0  0  0  0  0  0  0  0  0  0
  192.3080  177.7630  140.8920 O   0  0  0  0  0  0  0  0  0  0  0  0
  189.8380  176.5620  137.4950 C   0  0  1  0  0  3  0  0  0  0  0  0
  186.6510  178.6380  137.6190 O   0  0  0  0  0  1  0  0  0  0  0  0
  188.5200  176.8680  137.1030 O   0  0  0  0  0  0  0  0  0  0  0  0
  188.1090  178.3250  137.8770 P   0  0  2  0  0  0  0  0  0  0  0  0
  188.3440  178.1010  139.5450 O   0  0  0  0  0  0  0  0  0  0  0  0
  189.9400  176.3340  139.0060 C   0  0  0  0  0  2  0  0  0  0  0  0
  189.6720  177.6690  139.7100 C   0  0  2  0  0  3  0  0  0  0  0  0
  189.0790  179.5910  137.3060 O   0  0  0  0  0  0  0  0  0  0  0  0
  190.2630  175.4150  136.8230 O   0  0  0  0  0  0  0  0  0  0  0  0
  192.0650  175.6560  135.2180 C   0  0  1  0  0  3  0  0  0  0  0  0
  191.0610  174.7630  134.7830 O   0  0  0  0  0  0  0  0  0  0  0  0
  190.6170  175.8610  135.5430 C   0  0  1  0  0  3  0  0  0  0  0  0
  192.9490  175.0500  136.3350 C   0  0  1  0  0  3  0  0  0  0  0  0
  193.6620  173.9500  135.8620 O   0  0  0  0  0  1  0  0  0  0  0  0
  193.8820  176.0250  137.0460 C   0  0  0  0  0  2  0  0  0  0  0  0
  194.2110  175.5330  138.3080 O   0  0  0  0  0  1  0  0  0  0  0  0
  1 30  1  0  0  0  0
  2 13  1  6  0  0  0
  2  6  1  0  0  0  0
  2  4  1  0  0  0  0
  3  1  1  6  0  0  0
  4  3  1  0  0  0  0
  5  6  2  0  0  0  0
  6  3  1  0  0  0  0
  7  9  1  0  0  0  0
  8 12  1  0  0  0  0
  9 13  1  0  0  0  0
  9 12  2  0  0  0  0
 11  7  2  0  0  0  0
 14 10  1  6  0  0  0
 14  7  1  0  0  0  0
 14  8  1  0  0  0  0
 15 11  1  0  0  0  0
 16 15  1  0  0  0  0
 17 18  2  0  0  0  0
 18 19  1  0  0  0  0
 18 16  1  0  0  0  0
 20 24  1  6  0  0  0
 20 23  1  0  0  0  0
 21 24  1  0  0  0  0
 21 22  1  0  0  0  0
 22 20  1  0  0  0  0
 22 23  1  0  0  0  0
 22 19  1  1  0  0  0
 23 25  1  6  0  0  0
 26 27  2  0  0  0  0
 27 25  1  0  0  0  0
 27 28  1  0  0  0  0
 29 32  1  0  0  0  0
 29 31  2  0  0  0  0
 30 29  1  0  0  0  0
 33 32  1  0  0  0  0
 34 33  1  0  0  0  0
 35 36  2  0  0  0  0
 35 34  1  0  0  0  0
 37 38  1  0  0  0  0
 38 35  1  0  0  0  0
 39 38  2  0  0  0  0
 40 48  1  6  0  0  0
 40 45  1  0  0  0  0
 41 43  1  0  0  0  0
 42 40  1  0  0  0  0
 42 43  1  0  0  0  0
 43 47  2  6  0  0  0
 43 44  1  0  0  0  0
 44 46  1  0  0  0  0
 45 46  1  0  0  0  0
 46 37  1  1  0  0  0
 49 51  1  0  0  0  0
 49 52  1  1  0  0  0
 50 49  1  0  0  0  0
 50 51  1  0  0  0  0
 51 48  1  1  0  0  0
 52 53  1  6  0  0  0
 52 54  1  0  0  0  0
 54 55  1  0  0  0  0
M  END
>  <MODEL>
5

>  <REMARK>
 VINA RESULT:      -5.2      2.692      6.658
  Name = 
  20 active torsions:
  status: ('A' for Active; 'I' for Inactive)
    1  A    between atoms: C_1  and  C_18
    2  A    between atoms: C_2  and  N_44
    3  A    between atoms: C_3  and  O_22
    4  A    between atoms: C_5  and  N_24
    5  A    between atoms: C_6  and  C_18
    6  A    between atoms: S_8  and  C_16
    7  A    between atoms: S_8  and  C_23
    8  A    between atoms: N_10  and  C_35
    9  A    between atoms: C_16  and  C_31
   10  A    between atoms: O_22  and  C_49
   11  A    between atoms: C_23  and  S_34
   12  A    between atoms: N_24  and  N_29
   13  A    between atoms: C_25  and  S_34
   14  A    between atoms: C_27  and  C_28
   15  A    between atoms: C_27  and  C_40
   16  A    between atoms: C_28  and  N_42
   17  A    between atoms: C_32  and  S_47
   18  A    between atoms: C_36  and  C_55
   19  A    between atoms: C_38  and  C_55
   20  A    between atoms: C_40  and  S_47
                            x       y       z     vdW  Elec       q    Type
                         _______ _______ _______ _____ _____    ______ ____

>  <TORSDO>
F 20

$$$$
=
 OpenBabel10232408473D

 55 60  0  0  1  0  0  0  0  0999 V2000
  189.8700  175.9970  143.6570 N   0  0  0  0  0  2  0  0  0  0  0  0
  188.1030  178.5890  143.5250 C   0  0  2  0  0  3  0  0  0  0  0  0
  189.3140  177.1150  144.4100 C   0  0  1  0  0  3  0  0  0  0  0  0
  189.8890  178.6630  143.7050 S   0  0  0  0  0  0  0  0  0  0  0  0
  186.8420  176.5560  144.3620 O   0  0  0  0  0  0  0  0  0  0  0  0
  187.8290  177.2360  144.1460 C   0  0  0  0  0  0  0  0  0  0  0  0
  186.0140  178.6550  140.2730 C   0  0  0  0  0  0  0  0  0  0  0  0
  184.1960  179.2140  141.6570 C   0  0  0  0  0  2  0  0  0  0  0  0
  186.4190  178.7590  141.6470 C   0  0  0  0  0  0  0  0  0  0  0  0
  183.8180  177.6470  139.7590 C   0  0  0  0  0  1  0  0  0  0  0  0
  186.8250  178.4190  139.2860 N   0  0  0  0  0  0  0  0  0  0  0  0
  185.4370  179.0660  142.4210 N   0  0  0  0  0  0  0  0  0  0  0  0
  187.7590  178.5660  142.1110 N   0  0  0  0  0  2  0  0  0  0  0  0
  184.5470  178.9090  140.1900 C   0  0  2  0  0  3  0  0  0  0  0  0
  186.4100  178.3650  137.8920 C   0  0  0  0  0  2  0  0  0  0  0  0
  186.6330  176.9690  137.3310 C   0  0  0  0  0  2  0  0  0  0  0  0
  185.6370  177.6030  135.3020 O   0  0  0  0  0  0  0  0  0  0  0  0
  186.4810  176.9020  135.8360 C   0  0  0  0  0  0  0  0  0  0  0  0
  187.5160  175.8560  134.8010 S   0  0  0  0  0  0  0  0  0  0  0  0
  187.4240  173.1960  134.9220 C   0  0  2  0  0  3  0  0  0  0  0  0
  188.3470  173.8020  136.6060 C   0  0  0  0  0  2  0  0  0  0  0  0
  187.2040  174.3940  135.8310 C   0  0  1  0  0  0  0  0  0  0  0  0
  186.0420  173.4740  135.4920 C   0  0  2  0  0  3  0  0  0  0  0  0
  188.3810  172.6540  135.8040 O   0  0  0  0  0  0  0  0  0  0  0  0
  185.6810  172.5370  136.6480 C   0  0  0  0  0  2  0  0  0  0  0  0
  183.6170  171.2450  136.5210 C   0  0  0  0  0  2  0  0  0  0  0  0
  184.1920  172.3980  136.8400 C   0  0  0  0  0  0  0  0  0  0  0  0
  183.3360  173.5030  137.3870 C   0  0  0  0  0  1  0  0  0  0  0  0
  190.8240  176.5790  141.4490 C   0  0  0  0  0  0  0  0  0  0  0  0
  190.9180  176.4990  142.8740 N   0  0  0  0  0  2  0  0  0  0  0  0
  189.7910  176.1730  140.8530 O   0  0  0  0  0  0  0  0  0  0  0  0
  192.1780  177.2720  140.5050 S   0  0  0  0  0  0  0  0  0  0  0  0
  191.5550  176.6170  138.9270 C   0  0  0  0  0  2  0  0  0  0  0  0
  192.8910  176.6190  137.6950 S   0  0  0  0  0  0  0  0  0  0  0  0
  193.0280  174.8330  137.7140 C   0  0  0  0  0  0  0  0  0  0  0  0
  191.9520  174.1200  137.7120 N   0  0  0  0  0  2  0  0  0  0  0  0
  195.4710  174.8960  137.1470 N   0  0  0  0  0  2  0  0  0  0  0  0
  194.3460  174.1860  137.6790 C   0  0  0  0  0  0  0  0  0  0  0  0
  194.4840  173.0130  138.1220 O   0  0  0  0  0  0  0  0  0  0  0  0
  198.1910  172.3070  136.7470 C   0  0  1  0  0  3  0  0  0  0  0  0
  200.0960  175.3150  135.4020 O   0  0  0  0  0  0  0  0  0  0  0  0
  199.1370  172.9230  135.9030 O   0  0  0  0  0  0  0  0  0  0  0  0
  199.2080  174.5570  136.3660 P   0  0  2  0  0  0  0  0  0  0  0  0
  197.6300  175.1820  136.2750 O   0  0  0  0  0  0  0  0  0  0  0  0
  196.7940  172.9060  136.5620 C   0  0  0  0  0  2  0  0  0  0  0  0
  196.8220  174.3510  137.0730 C   0  0  2  0  0  3  0  0  0  0  0  0
  199.8140  174.7010  137.9410 O   0  0  0  0  0  1  0  0  0  0  0  0
  198.1510  170.9390  136.4700 O   0  0  0  0  0  0  0  0  0  0  0  0
  196.7090  169.4450  137.7230 C   0  0  1  0  0  3  0  0  0  0  0  0
  198.0160  168.9350  137.5580 O   0  0  0  0  0  0  0  0  0  0  0  0
  197.9180  170.3300  137.7090 C   0  0  1  0  0  3  0  0  0  0  0  0
  195.8820  169.3790  136.4170 C   0  0  1  0  0  3  0  0  0  0  0  0
  196.1390  168.1970  135.7250 O   0  0  0  0  0  1  0  0  0  0  0  0
  194.3790  169.5890  136.5720 C   0  0  0  0  0  2  0  0  0  0  0  0
  193.7760  168.4090  137.0050 O   0  0  0  0  0  1  0  0  0  0  0  0
  2 13  1  6  0  0  0
  2  4  1  0  0  0  0
  2  6  1  0  0  0  0
  3  1  1  6  0  0  0
  4  3  1  0  0  0  0
  6  5  2  0  0  0  0
  6  3  1  0  0  0  0
  7  9  1  0  0  0  0
  8 12  1  0  0  0  0
  9 13  1  0  0  0  0
  9 12  2  0  0  0  0
 11  7  2  0  0  0  0
 14 10  1  1  0  0  0
 14  7  1  0  0  0  0
 14  8  1  0  0  0  0
 15 11  1  0  0  0  0
 16 15  1  0  0  0  0
 17 18  2  0  0  0  0
 18 16  1  0  0  0  0
 19 18  1  0  0  0  0
 20 23  1  0  0  0  0
 20 24  1  1  0  0  0
 20 22  1  0  0  0  0
 22 19  1  6  0  0  0
 22 21  1  0  0  0  0
 23 22  1  0  0  0  0
 23 25  1  1  0  0  0
 24 21  1  0  0  0  0
 25 27  1  0  0  0  0
 26 27  2  0  0  0  0
 27 28  1  0  0  0  0
 29 30  1  0  0  0  0
 30  1  1  0  0  0  0
 31 29  2  0  0  0  0
 32 29  1  0  0  0  0
 33 32  1  0  0  0  0
 34 35  1  0  0  0  0
 34 33  1  0  0  0  0
 36 35  2  0  0  0  0
 37 38  1  0  0  0  0
 38 35  1  0  0  0  0
 38 39  2  0  0  0  0
 40 48  1  6  0  0  0
 42 43  1  0  0  0  0
 42 40  1  0  0  0  0
 43 41  2  6  0  0  0
 43 47  1  0  0  0  0
 44 43  1  0  0  0  0
 44 46  1  0  0  0  0
 45 40  1  0  0  0  0
 45 46  1  0  0  0  0
 46 37  1  6  0  0  0
 49 52  1  6  0  0  0
 50 51  1  0  0  0  0
 50 49  1  0  0  0  0
 51 48  1  6  0  0  0
 51 49  1  0  0  0  0
 52 53  1  1  0  0  0
 52 54  1  0  0  0  0
 54 55  1  0  0  0  0
M  END
>  <MODEL>
6

>  <REMARK>
 VINA RESULT:      -4.7      5.047      8.876
  Name = 
  20 active torsions:
  status: ('A' for Active; 'I' for Inactive)
    1  A    between atoms: C_1  and  C_18
    2  A    between atoms: C_2  and  N_44
    3  A    between atoms: C_3  and  O_22
    4  A    between atoms: C_5  and  N_24
    5  A    between atoms: C_6  and  C_18
    6  A    between atoms: S_8  and  C_16
    7  A    between atoms: S_8  and  C_23
    8  A    between atoms: N_10  and  C_35
    9  A    between atoms: C_16  and  C_31
   10  A    between atoms: O_22  and  C_49
   11  A    between atoms: C_23  and  S_34
   12  A    between atoms: N_24  and  N_29
   13  A    between atoms: C_25  and  S_34
   14  A    between atoms: C_27  and  C_28
   15  A    between atoms: C_27  and  C_40
   16  A    between atoms: C_28  and  N_42
   17  A    between atoms: C_32  and  S_47
   18  A    between atoms: C_36  and  C_55
   19  A    between atoms: C_38  and  C_55
   20  A    between atoms: C_40  and  S_47
                            x       y       z     vdW  Elec       q    Type
                         _______ _______ _______ _____ _____    ______ ____

>  <TORSDO>
F 20

$$$$
=
 OpenBabel10232408473D

 55 60  0  0  1  0  0  0  0  0999 V2000
  187.4220  175.3290  137.5450 N   0  0  0  0  0  2  0  0  0  0  0  0
  185.9380  178.0470  137.0260 C   0  0  2  0  0  3  0  0  0  0  0  0
  187.1580  176.3930  136.5830 C   0  0  1  0  0  3  0  0  0  0  0  0
  185.3920  176.5070  136.2770 S   0  0  0  0  0  0  0  0  0  0  0  0
  188.3750  178.3390  137.6600 O   0  0  0  0  0  0  0  0  0  0  0  0
  187.4080  177.7440  137.2170 C   0  0  0  0  0  0  0  0  0  0  0  0
  183.1890  178.5220  139.7010 C   0  0  0  0  0  0  0  0  0  0  0  0
  181.6630  178.1850  137.9440 C   0  0  0  0  0  2  0  0  0  0  0  0
  183.8700  178.2700  138.4630 C   0  0  0  0  0  0  0  0  0  0  0  0
  181.1430  179.9070  139.6660 C   0  0  0  0  0  1  0  0  0  0  0  0
  183.7840  178.6830  140.8450 N   0  0  0  0  0  0  0  0  0  0  0  0
  183.0500  178.0810  137.4870 N   0  0  0  0  0  0  0  0  0  0  0  0
  185.2930  178.2120  138.3200 N   0  0  0  0  0  2  0  0  0  0  0  0
  181.7200  178.5180  139.4450 C   0  0  2  0  0  3  0  0  0  0  0  0
  183.0800  178.8890  142.1020 C   0  0  0  0  0  2  0  0  0  0  0  0
  183.7360  178.0780  143.2100 C   0  0  0  0  0  2  0  0  0  0  0  0
  184.9170  180.0380  143.7350 O   0  0  0  0  0  0  0  0  0  0  0  0
  184.7960  178.8430  143.9530 C   0  0  0  0  0  0  0  0  0  0  0  0
  185.8710  178.0760  145.1750 S   0  0  0  0  0  0  0  0  0  0  0  0
  187.9890  176.6940  144.3360 C   0  0  2  0  0  3  0  0  0  0  0  0
  187.0440  177.3330  142.6780 C   0  0  0  0  0  2  0  0  0  0  0  0
  187.2610  177.9890  144.0120 C   0  0  1  0  0  0  0  0  0  0  0  0
  188.6860  178.0300  144.5420 C   0  0  2  0  0  3  0  0  0  0  0  0
  187.8560  176.2410  143.0080 O   0  0  0  0  0  0  0  0  0  0  0  0
  189.7100  178.3350  143.4470 C   0  0  0  0  0  2  0  0  0  0  0  0
  191.6170  176.8420  143.7300 C   0  0  0  0  0  2  0  0  0  0  0  0
  191.1270  178.0660  143.8850 C   0  0  0  0  0  0  0  0  0  0  0  0
  192.0100  179.1250  144.4780 C   0  0  0  0  0  1  0  0  0  0  0  0
  187.8640  173.3420  136.1360 C   0  0  0  0  0  0  0  0  0  0  0  0
  188.3170  174.4330  136.9430 N   0  0  0  0  0  2  0  0  0  0  0  0
  186.6330  173.1440  135.9610 O   0  0  0  0  0  0  0  0  0  0  0  0
  189.0570  172.2580  135.3570 S   0  0  0  0  0  0  0  0  0  0  0  0
  190.4790  173.2490  135.9070 C   0  0  0  0  0  2  0  0  0  0  0  0
  191.0760  174.2770  134.5330 S   0  0  0  0  0  0  0  0  0  0  0  0
  192.5910  174.6960  135.3920 C   0  0  0  0  0  0  0  0  0  0  0  0
  192.9220  175.9380  135.5140 N   0  0  0  0  0  2  0  0  0  0  0  0
  193.8330  172.5240  135.2030 N   0  0  0  0  0  2  0  0  0  0  0  0
  193.4220  173.6450  135.9940 C   0  0  0  0  0  0  0  0  0  0  0  0
  193.7760  173.7370  137.2020 O   0  0  0  0  0  0  0  0  0  0  0  0
  196.9020  170.7840  136.5490 C   0  0  1  0  0  3  0  0  0  0  0  0
  194.2630  168.5630  138.1580 O   0  0  0  0  0  1  0  0  0  0  0  0
  196.4110  169.9590  137.5800 O   0  0  0  0  0  0  0  0  0  0  0  0
  194.9210  169.3410  137.0400 P   0  0  2  0  0  0  0  0  0  0  0  0
  193.9390  170.6660  136.6310 O   0  0  0  0  0  0  0  0  0  0  0  0
  195.9730  171.9710  136.2840 C   0  0  0  0  0  2  0  0  0  0  0  0
  194.6620  171.4320  135.6990 C   0  0  2  0  0  3  0  0  0  0  0  0
  195.1500  168.3360  135.6960 O   0  0  0  0  0  0  0  0  0  0  0  0
  198.1680  171.2540  136.9020 O   0  0  0  0  0  0  0  0  0  0  0  0
  198.9770  173.4260  136.1870 C   0  0  1  0  0  3  0  0  0  0  0  0
  199.9240  172.3970  135.9900 O   0  0  0  0  0  0  0  0  0  0  0  0
  198.5770  172.0320  135.8110 C   0  0  1  0  0  3  0  0  0  0  0  0
  198.8290  173.8130  137.6780 C   0  0  1  0  0  3  0  0  0  0  0  0
  200.0590  174.1830  138.2190 O   0  0  0  0  0  1  0  0  0  0  0  0
  197.7710  174.8670  137.9890 C   0  0  0  0  0  2  0  0  0  0  0  0
  197.4240  175.5500  136.8250 O   0  0  0  0  0  1  0  0  0  0  0  0
  2  6  1  0  0  0  0
  2 13  1  1  0  0  0
  3  6  1  0  0  0  0
  3  1  1  1  0  0  0
  4  3  1  0  0  0  0
  4  2  1  0  0  0  0
  6  5  2  0  0  0  0
  7 11  2  0  0  0  0
  8 14  1  0  0  0  0
  9  7  1  0  0  0  0
 11 15  1  0  0  0  0
 12  8  1  0  0  0  0
 12  9  2  0  0  0  0
 13  9  1  0  0  0  0
 14 10  1  6  0  0  0
 14  7  1  0  0  0  0
 15 16  1  0  0  0  0
 16 18  1  0  0  0  0
 17 18  2  0  0  0  0
 18 19  1  0  0  0  0
 20 24  1  6  0  0  0
 20 23  1  0  0  0  0
 21 24  1  0  0  0  0
 21 22  1  0  0  0  0
 22 20  1  0  0  0  0
 22 23  1  0  0  0  0
 22 19  1  1  0  0  0
 23 25  1  6  0  0  0
 25 27  1  0  0  0  0
 26 27  2  0  0  0  0
 27 28  1  0  0  0  0
 29 30  1  0  0  0  0
 30  1  1  0  0  0  0
 31 29  2  0  0  0  0
 32 33  1  0  0  0  0
 32 29  1  0  0  0  0
 34 35  1  0  0  0  0
 34 33  1  0  0  0  0
 35 36  2  0  0  0  0
 35 38  1  0  0  0  0
 37 38  1  0  0  0  0
 38 39  2  0  0  0  0
 40 48  1  1  0  0  0
 40 42  1  0  0  0  0
 43 47  2  6  0  0  0
 43 42  1  0  0  0  0
 43 41  1  0  0  0  0
 44 43  1  0  0  0  0
 45 40  1  0  0  0  0
 46 37  1  1  0  0  0
 46 45  1  0  0  0  0
 46 44  1  0  0  0  0
 49 52  1  1  0  0  0
 50 49  1  0  0  0  0
 51 50  1  0  0  0  0
 51 49  1  0  0  0  0
 51 48  1  1  0  0  0
 52 54  1  0  0  0  0
 52 53  1  6  0  0  0
 55 54  1  0  0  0  0
M  END
>  <MODEL>
7

>  <REMARK>
 VINA RESULT:      -4.6      5.019      9.539
  Name = 
  20 active torsions:
  status: ('A' for Active; 'I' for Inactive)
    1  A    between atoms: C_1  and  C_18
    2  A    between atoms: C_2  and  N_44
    3  A    between atoms: C_3  and  O_22
    4  A    between atoms: C_5  and  N_24
    5  A    between atoms: C_6  and  C_18
    6  A    between atoms: S_8  and  C_16
    7  A    between atoms: S_8  and  C_23
    8  A    between atoms: N_10  and  C_35
    9  A    between atoms: C_16  and  C_31
   10  A    between atoms: O_22  and  C_49
   11  A    between atoms: C_23  and  S_34
   12  A    between atoms: N_24  and  N_29
   13  A    between atoms: C_25  and  S_34
   14  A    between atoms: C_27  and  C_28
   15  A    between atoms: C_27  and  C_40
   16  A    between atoms: C_28  and  N_42
   17  A    between atoms: C_32  and  S_47
   18  A    between atoms: C_36  and  C_55
   19  A    between atoms: C_38  and  C_55
   20  A    between atoms: C_40  and  S_47
                            x       y       z     vdW  Elec       q    Type
                         _______ _______ _______ _____ _____    ______ ____

>  <TORSDO>
F 20

$$$$
=
 OpenBabel10232408473D

 55 60  0  0  1  0  0  0  0  0999 V2000
  187.4490  176.6480  143.0450 N   0  0  0  0  0  2  0  0  0  0  0  0
  185.5260  178.7610  141.7430 C   0  0  2  0  0  3  0  0  0  0  0  0
  187.1000  178.0600  142.9480 C   0  0  1  0  0  3  0  0  0  0  0  0
  187.2430  178.6010  141.2410 S   0  0  0  0  0  0  0  0  0  0  0  0
  184.8360  178.0860  144.0870 O   0  0  0  0  0  0  0  0  0  0  0  0
  185.6150  178.2490  143.1640 C   0  0  0  0  0  0  0  0  0  0  0  0
  182.4260  177.1760  140.0630 C   0  0  0  0  0  0  0  0  0  0  0  0
  181.2520  179.0540  140.8530 C   0  0  0  0  0  2  0  0  0  0  0  0
  183.2980  178.0760  140.7640 C   0  0  0  0  0  0  0  0  0  0  0  0
  180.1380  176.8270  140.9260 C   0  0  0  0  0  1  0  0  0  0  0  0
  182.8200  176.0890  139.4690 N   0  0  0  0  0  0  0  0  0  0  0  0
  182.6720  179.1130  141.2050 N   0  0  0  0  0  0  0  0  0  0  0  0
  184.7020  177.8670  140.9430 N   0  0  0  0  0  2  0  0  0  0  0  0
  181.0420  177.7280  140.1000 C   0  0  2  0  0  3  0  0  0  0  0  0
  181.9360  175.2100  138.7180 C   0  0  0  0  0  2  0  0  0  0  0  0
  182.3870  175.1250  137.2680 C   0  0  0  0  0  2  0  0  0  0  0  0
  181.8660  173.0020  136.4130 O   0  0  0  0  0  0  0  0  0  0  0  0
  182.7470  173.7280  136.8430 C   0  0  0  0  0  0  0  0  0  0  0  0
  184.4310  173.0970  136.9100 S   0  0  0  0  0  0  0  0  0  0  0  0
  186.5850  174.3250  135.9310 C   0  0  2  0  0  3  0  0  0  0  0  0
  185.2220  174.3170  134.4490 C   0  0  0  0  0  2  0  0  0  0  0  0
  185.0730  174.4870  135.9340 C   0  0  1  0  0  0  0  0  0  0  0  0
  185.9510  175.5310  136.6060 C   0  0  2  0  0  3  0  0  0  0  0  0
  186.6210  174.3270  134.5230 O   0  0  0  0  0  0  0  0  0  0  0  0
  186.0830  176.8090  135.7730 C   0  0  0  0  0  2  0  0  0  0  0  0
  187.2810  178.3570  137.2290 C   0  0  0  0  0  2  0  0  0  0  0  0
  187.3090  177.6110  136.1310 C   0  0  0  0  0  0  0  0  0  0  0  0
  188.5610  177.5930  135.3040 C   0  0  0  0  0  1  0  0  0  0  0  0
  189.6550  177.4050  143.8710 C   0  0  0  0  0  0  0  0  0  0  0  0
  188.8470  176.5610  143.0460 N   0  0  0  0  0  2  0  0  0  0  0  0
  189.1230  178.2740  144.6120 O   0  0  0  0  0  0  0  0  0  0  0  0
  191.4350  177.2170  143.8630 S   0  0  0  0  0  0  0  0  0  0  0  0
  191.4550  176.4440  142.2170 C   0  0  0  0  0  2  0  0  0  0  0  0
  191.0090  177.6770  140.9580 S   0  0  0  0  0  0  0  0  0  0  0  0
  192.3940  177.2350  139.9110 C   0  0  0  0  0  0  0  0  0  0  0  0
  193.5960  177.4460  140.3350 N   0  0  0  0  0  2  0  0  0  0  0  0
  193.0100  175.5080  138.1990 N   0  0  0  0  0  2  0  0  0  0  0  0
  192.1700  176.5940  138.6100 C   0  0  0  0  0  0  0  0  0  0  0  0
  191.2360  176.9940  137.8620 O   0  0  0  0  0  0  0  0  0  0  0  0
  194.0620  173.6270  135.0980 C   0  0  1  0  0  3  0  0  0  0  0  0
  190.6110  172.0820  135.5300 O   0  0  0  0  0  1  0  0  0  0  0  0
  193.1360  172.5700  135.0010 O   0  0  0  0  0  0  0  0  0  0  0  0
  191.6280  173.2020  135.4680 P   0  0  2  0  0  0  0  0  0  0  0  0
  191.8150  173.8710  137.0190 O   0  0  0  0  0  0  0  0  0  0  0  0
  194.1940  174.1330  136.5370 C   0  0  0  0  0  2  0  0  0  0  0  0
  192.8700  174.7970  136.9340 C   0  0  2  0  0  3  0  0  0  0  0  0
  191.1160  174.3840  134.3690 O   0  0  0  0  0  0  0  0  0  0  0  0
  195.3080  173.1900  134.6450 O   0  0  0  0  0  0  0  0  0  0  0  0
  197.4910  173.0100  135.6860 C   0  0  1  0  0  3  0  0  0  0  0  0
  197.4080  174.0820  134.7710 O   0  0  0  0  0  0  0  0  0  0  0  0
  196.2350  173.8040  135.4960 C   0  0  1  0  0  3  0  0  0  0  0  0
  197.5570  171.6350  134.9790 C   0  0  1  0  0  3  0  0  0  0  0  0
  198.8660  171.3270  134.6120 O   0  0  0  0  0  1  0  0  0  0  0  0
  196.9270  170.4680  135.7340 C   0  0  0  0  0  2  0  0  0  0  0  0
  197.1360  170.6200  137.1030 O   0  0  0  0  0  1  0  0  0  0  0  0
  1 30  1  0  0  0  0
  2 13  1  6  0  0  0
  2  6  1  0  0  0  0
  3  1  1  6  0  0  0
  3  6  1  0  0  0  0
  4  2  1  0  0  0  0
  4  3  1  0  0  0  0
  6  5  2  0  0  0  0
  7 14  1  0  0  0  0
  7  9  1  0  0  0  0
  8 12  1  0  0  0  0
  9 13  1  0  0  0  0
  9 12  2  0  0  0  0
 11  7  2  0  0  0  0
 14  8  1  0  0  0  0
 14 10  1  1  0  0  0
 15 11  1  0  0  0  0
 16 15  1  0  0  0  0
 17 18  2  0  0  0  0
 18 19  1  0  0  0  0
 18 16  1  0  0  0  0
 20 24  1  6  0  0  0
 20 22  1  0  0  0  0
 20 23  1  0  0  0  0
 21 24  1  0  0  0  0
 21 22  1  0  0  0  0
 22 23  1  0  0  0  0
 22 19  1  1  0  0  0
 23 25  1  6  0  0  0
 25 27  1  0  0  0  0
 27 26  2  0  0  0  0
 28 27  1  0  0  0  0
 29 31  2  0  0  0  0
 30 29  1  0  0  0  0
 32 29  1  0  0  0  0
 33 32  1  0  0  0  0
 34 33  1  0  0  0  0
 35 36  2  0  0  0  0
 35 34  1  0  0  0  0
 37 38  1  0  0  0  0
 38 35  1  0  0  0  0
 39 38  2  0  0  0  0
 40 48  1  1  0  0  0
 40 45  1  0  0  0  0
 42 40  1  0  0  0  0
 42 43  1  0  0  0  0
 43 47  2  6  0  0  0
 43 41  1  0  0  0  0
 43 44  1  0  0  0  0
 45 46  1  0  0  0  0
 46 44  1  0  0  0  0
 46 37  1  1  0  0  0
 49 52  1  6  0  0  0
 50 51  1  0  0  0  0
 50 49  1  0  0  0  0
 51 48  1  6  0  0  0
 51 49  1  0  0  0  0
 52 53  1  1  0  0  0
 52 54  1  0  0  0  0
 54 55  1  0  0  0  0
M  END
>  <MODEL>
8

>  <REMARK>
 VINA RESULT:      -4.4      3.799      8.280
  Name = 
  20 active torsions:
  status: ('A' for Active; 'I' for Inactive)
    1  A    between atoms: C_1  and  C_18
    2  A    between atoms: C_2  and  N_44
    3  A    between atoms: C_3  and  O_22
    4  A    between atoms: C_5  and  N_24
    5  A    between atoms: C_6  and  C_18
    6  A    between atoms: S_8  and  C_16
    7  A    between atoms: S_8  and  C_23
    8  A    between atoms: N_10  and  C_35
    9  A    between atoms: C_16  and  C_31
   10  A    between atoms: O_22  and  C_49
   11  A    between atoms: C_23  and  S_34
   12  A    between atoms: N_24  and  N_29
   13  A    between atoms: C_25  and  S_34
   14  A    between atoms: C_27  and  C_28
   15  A    between atoms: C_27  and  C_40
   16  A    between atoms: C_28  and  N_42
   17  A    between atoms: C_32  and  S_47
   18  A    between atoms: C_36  and  C_55
   19  A    between atoms: C_38  and  C_55
   20  A    between atoms: C_40  and  S_47
                            x       y       z     vdW  Elec       q    Type
                         _______ _______ _______ _____ _____    ______ ____

>  <TORSDO>
F 20

$$$$
=
 OpenBabel10232408473D

 55 60  0  0  1  0  0  0  0  0999 V2000
  189.9570  175.9490  143.4300 N   0  0  0  0  0  2  0  0  0  0  0  0
  188.1700  178.5300  143.3890 C   0  0  2  0  0  3  0  0  0  0  0  0
  189.4170  177.0530  144.2150 C   0  0  1  0  0  3  0  0  0  0  0  0
  189.9600  178.6140  143.5140 S   0  0  0  0  0  0  0  0  0  0  0  0
  186.9490  176.4770  144.2370 O   0  0  0  0  0  0  0  0  0  0  0  0
  187.9240  177.1670  143.9990 C   0  0  0  0  0  0  0  0  0  0  0  0
  185.9780  178.6130  140.2060 C   0  0  0  0  0  0  0  0  0  0  0  0
  184.1960  179.1180  141.6550 C   0  0  0  0  0  2  0  0  0  0  0  0
  186.4250  178.7010  141.5670 C   0  0  0  0  0  0  0  0  0  0  0  0
  183.7850  177.5750  139.7440 C   0  0  0  0  0  1  0  0  0  0  0  0
  186.7620  178.4070  139.1900 N   0  0  0  0  0  0  0  0  0  0  0  0
  185.4620  178.9790  142.3780 N   0  0  0  0  0  0  0  0  0  0  0  0
  187.7820  178.5240  141.9860 N   0  0  0  0  0  2  0  0  0  0  0  0
  184.5060  178.8430  140.1730 C   0  0  2  0  0  3  0  0  0  0  0  0
  186.3040  178.3680  137.8090 C   0  0  0  0  0  2  0  0  0  0  0  0
  186.6220  177.0170  137.1870 C   0  0  0  0  0  2  0  0  0  0  0  0
  186.1740  177.9130  135.0640 O   0  0  0  0  0  0  0  0  0  0  0  0
  186.1780  176.9070  135.7550 C   0  0  0  0  0  0  0  0  0  0  0  0
  185.6850  175.3450  135.0080 S   0  0  0  0  0  0  0  0  0  0  0  0
  183.4050  174.0520  135.4910 C   0  0  2  0  0  3  0  0  0  0  0  0
  184.2170  174.4480  137.2910 C   0  0  0  0  0  2  0  0  0  0  0  0
  184.1800  175.2490  136.0200 C   0  0  1  0  0  0  0  0  0  0  0  0
  182.8230  175.4500  135.3640 C   0  0  2  0  0  3  0  0  0  0  0  0
  183.3720  173.4600  136.7700 O   0  0  0  0  0  0  0  0  0  0  0  0
  181.7150  175.7220  136.3840 C   0  0  0  0  0  2  0  0  0  0  0  0
  182.0800  178.0680  135.8260 C   0  0  0  0  0  2  0  0  0  0  0  0
  181.5220  177.1930  136.6540 C   0  0  0  0  0  0  0  0  0  0  0  0
  180.7160  177.7090  137.8100 C   0  0  0  0  0  1  0  0  0  0  0  0
  190.8230  176.6550  141.2220 C   0  0  0  0  0  0  0  0  0  0  0  0
  190.9850  176.4670  142.6310 N   0  0  0  0  0  2  0  0  0  0  0  0
  189.7450  176.3350  140.6540 O   0  0  0  0  0  0  0  0  0  0  0  0
  192.1560  177.3630  140.2600 S   0  0  0  0  0  0  0  0  0  0  0  0
  191.6460  176.5200  138.7320 C   0  0  0  0  0  2  0  0  0  0  0  0
  193.0390  176.4710  137.5660 S   0  0  0  0  0  0  0  0  0  0  0  0
  193.1040  174.6810  137.5850 C   0  0  0  0  0  0  0  0  0  0  0  0
  192.0100  174.0130  137.7450 N   0  0  0  0  0  2  0  0  0  0  0  0
  195.6120  174.6480  137.6420 N   0  0  0  0  0  2  0  0  0  0  0  0
  194.3750  173.9780  137.3690 C   0  0  0  0  0  0  0  0  0  0  0  0
  194.3750  172.7870  136.9520 O   0  0  0  0  0  0  0  0  0  0  0  0
  198.1690  171.9820  136.8580 C   0  0  1  0  0  3  0  0  0  0  0  0
  200.2280  175.0240  135.8630 O   0  0  0  0  0  0  0  0  0  0  0  0
  199.1370  172.6460  136.0790 O   0  0  0  0  0  0  0  0  0  0  0  0
  199.3100  174.2020  136.7420 P   0  0  2  0  0  0  0  0  0  0  0  0
  197.7710  174.9200  136.7660 O   0  0  0  0  0  0  0  0  0  0  0  0
  196.8070  172.6770  136.7810 C   0  0  0  0  0  2  0  0  0  0  0  0
  196.9270  174.0420  137.4700 C   0  0  2  0  0  3  0  0  0  0  0  0
  199.9460  174.1100  138.3090 O   0  0  0  0  0  1  0  0  0  0  0  0
  198.0440  170.6650  136.4120 O   0  0  0  0  0  0  0  0  0  0  0  0
  197.9020  168.8970  138.0660 C   0  0  1  0  0  3  0  0  0  0  0  0
  198.7100  168.5490  136.9610 O   0  0  0  0  0  0  0  0  0  0  0  0
  198.7520  169.9020  137.3490 C   0  0  1  0  0  3  0  0  0  0  0  0
  196.3940  168.8880  137.7170 C   0  0  1  0  0  3  0  0  0  0  0  0
  196.1590  168.1700  136.5460 O   0  0  0  0  0  1  0  0  0  0  0  0
  195.4580  168.4180  138.8270 C   0  0  0  0  0  2  0  0  0  0  0  0
  194.1500  168.3540  138.3510 O   0  0  0  0  0  1  0  0  0  0  0  0
  2 13  1  6  0  0  0
  2  4  1  0  0  0  0
  2  6  1  0  0  0  0
  3  1  1  6  0  0  0
  4  3  1  0  0  0  0
  6  3  1  0  0  0  0
  6  5  2  0  0  0  0
  7  9  1  0  0  0  0
  8 12  1  0  0  0  0
  9 13  1  0  0  0  0
  9 12  2  0  0  0  0
 11  7  2  0  0  0  0
 14 10  1  1  0  0  0
 14  7  1  0  0  0  0
 14  8  1  0  0  0  0
 15 11  1  0  0  0  0
 16 15  1  0  0  0  0
 17 18  2  0  0  0  0
 18 16  1  0  0  0  0
 19 18  1  0  0  0  0
 20 22  1  0  0  0  0
 20 24  1  1  0  0  0
 22 19  1  6  0  0  0
 22 21  1  0  0  0  0
 23 20  1  0  0  0  0
 23 22  1  0  0  0  0
 23 25  1  1  0  0  0
 24 21  1  0  0  0  0
 25 27  1  0  0  0  0
 26 27  2  0  0  0  0
 27 28  1  0  0  0  0
 29 30  1  0  0  0  0
 30  1  1  0  0  0  0
 31 29  2  0  0  0  0
 32 29  1  0  0  0  0
 33 32  1  0  0  0  0
 34 35  1  0  0  0  0
 34 33  1  0  0  0  0
 35 36  2  0  0  0  0
 38 35  1  0  0  0  0
 38 37  1  0  0  0  0
 39 38  2  0  0  0  0
 40 48  1  6  0  0  0
 42 43  1  0  0  0  0
 42 40  1  0  0  0  0
 43 41  2  6  0  0  0
 43 44  1  0  0  0  0
 43 47  1  0  0  0  0
 44 46  1  0  0  0  0
 45 40  1  0  0  0  0
 45 46  1  0  0  0  0
 46 37  1  6  0  0  0
 49 52  1  6  0  0  0
 50 51  1  0  0  0  0
 50 49  1  0  0  0  0
 51 48  1  6  0  0  0
 51 49  1  0  0  0  0
 52 53  1  6  0  0  0
 52 54  1  0  0  0  0
 55 54  1  0  0  0  0
M  END
>  <MODEL>
9

>  <REMARK>
 VINA RESULT:      -4.2      5.299      8.653
  Name = 
  20 active torsions:
  status: ('A' for Active; 'I' for Inactive)
    1  A    between atoms: C_1  and  C_18
    2  A    between atoms: C_2  and  N_44
    3  A    between atoms: C_3  and  O_22
    4  A    between atoms: C_5  and  N_24
    5  A    between atoms: C_6  and  C_18
    6  A    between atoms: S_8  and  C_16
    7  A    between atoms: S_8  and  C_23
    8  A    between atoms: N_10  and  C_35
    9  A    between atoms: C_16  and  C_31
   10  A    between atoms: O_22  and  C_49
   11  A    between atoms: C_23  and  S_34
   12  A    between atoms: N_24  and  N_29
   13  A    between atoms: C_25  and  S_34
   14  A    between atoms: C_27  and  C_28
   15  A    between atoms: C_27  and  C_40
   16  A    between atoms: C_28  and  N_42
   17  A    between atoms: C_32  and  S_47
   18  A    between atoms: C_36  and  C_55
   19  A    between atoms: C_38  and  C_55
   20  A    between atoms: C_40  and  S_47
                            x       y       z     vdW  Elec       q    Type
                         _______ _______ _______ _____ _____    ______ ____

>  <TORSDO>
F 20

$$$$
