=
 OpenBabel10222422063D

 31 36  0  0  1  0  0  0  0  0999 V2000
  190.8000  175.8550  138.7010 C   0  0  0  0  0  3  0  0  0  0  0  0
  191.3940  175.7030  135.1870 O   0  0  0  0  0  0  0  0  0  0  0  0
  185.7050  178.0590  143.5690 C   0  0  0  0  0  0  0  0  0  0  0  0
  186.9500  178.1190  139.9060 C   0  0  1  0  0  3  0  0  0  0  0  0
  185.0670  178.5180  144.8220 C   0  0  0  0  0  0  0  0  0  0  0  0
  189.9910  177.2400  136.3160 C   0  0  0  0  0  3  0  0  0  0  0  0
  182.9730  178.3420  140.9930 C   0  0  2  0  0  3  0  0  0  0  0  0
  183.1280  179.2460  143.4220 C   0  0  0  0  0  2  0  0  0  0  0  0
  187.4970  178.7150  141.1950 C   0  0  1  0  0  3  0  0  0  0  0  0
  183.9480  178.3720  139.8060 C   0  0  2  0  0  3  0  0  0  0  0  0
  184.8880  179.4620  139.9580 N   0  0  2  0  0  0  0  0  0  0  0  0
  189.4900  177.6640  137.4800 C   0  0  0  0  0  3  0  0  0  0  0  0
  191.3000  175.4330  137.5380 C   0  0  0  0  0  3  0  0  0  0  0  0
  186.9960  177.9290  143.4730 N   0  0  0  0  0  0  0  0  0  0  0  0
  183.8300  179.0260  144.7390 C   0  0  0  0  0  3  0  0  0  0  0  0
  184.8830  177.8870  142.4090 N   0  0  0  0  0  0  0  0  0  0  0  0
  183.8070  179.5210  139.0940 O   0  0  0  0  0  0  0  0  0  0  0  0
  189.7530  176.7300  141.2160 C   0  0  0  0  0  2  0  0  0  0  0  0
  186.0720  179.1330  139.1720 C   0  0  0  0  0  2  0  0  0  0  0  0
  190.9230  176.1020  136.2820 C   0  0  0  0  0  0  0  0  0  0  0  0
  187.6640  177.5870  142.2180 C   0  0  2  0  0  3  0  0  0  0  0  0
  188.3880  178.6050  139.9510 C   0  0  1  0  0  3  0  0  0  0  0  0
  183.6890  178.3920  142.3150 C   0  0  0  0  0  0  0  0  0  0  0  0
  189.3490  177.4280  139.9330 C   0  0  0  0  0  0  0  0  0  0  0  0
  189.8570  177.0020  138.7580 C   0  0  0  0  0  0  0  0  0  0  0  0
  189.1390  177.3520  142.4620 C   0  0  0  0  0  2  0  0  0  0  0  0
  185.7170  178.3840  146.1440 C   0  0  0  0  0  0  0  0  0  0  0  0
  185.6300  179.4270  147.1110 N   0  0  0  0  0  1  0  0  0  0  0  0
  186.3700  177.3440  146.4290 O   0  0  0  0  0  0  0  0  0  0  0  0
  182.2000  177.1810  140.9240 O   0  0  0  0  0  0  0  0  0  0  0  0
  182.6450  176.5210  139.7780 C   0  0  0  0  0  1  0  0  0  0  0  0
  1 25  1  0  0  0  0
  2 20  2  0  0  0  0
  3  5  1  0  0  0  0
  4 19  1  6  0  0  0
  4 22  1  0  0  0  0
  4  9  1  0  0  0  0
  5 27  1  0  0  0  0
  6 12  2  0  0  0  0
  7 30  1  1  0  0  0
  7 23  1  0  0  0  0
  8 15  1  0  0  0  0
  9 21  1  0  0  0  0
 10 11  1  0  0  0  0
 10  7  1  0  0  0  0
 12 25  1  0  0  0  0
 13  1  2  0  0  0  0
 14  3  2  0  0  0  0
 15  5  2  0  0  0  0
 16  3  1  0  0  0  0
 17 10  1  0  0  0  0
 17 11  1  0  0  0  0
 18 26  1  0  0  0  0
 19 11  1  0  0  0  0
 20  6  1  0  0  0  0
 20 13  1  0  0  0  0
 21 26  1  0  0  0  0
 21 14  1  0  0  0  0
 22  9  1  0  0  0  0
 23 16  2  0  0  0  0
 23  8  1  0  0  0  0
 24 22  1  0  0  0  0
 24 18  1  0  0  0  0
 25 24  2  0  0  0  0
 27 29  2  0  0  0  0
 27 28  1  0  0  0  0
 31 30  1  0  0  0  0
M  END
>  <MODEL>
1

>  <REMARK>
 VINA RESULT:      -8.3      0.000      0.000
  Name = 
  2 active torsions:
  status: ('A' for Active; 'I' for Inactive)
    1  A    between atoms: O_3  and  C_11
    2  A    between atoms: C_6  and  C_7
                            x       y       z     vdW  Elec       q    Type
                         _______ _______ _______ _____ _____    ______ ____

>  <TORSDO>
F 2

$$$$
=
 OpenBabel10222422063D

 31 36  0  0  1  0  0  0  0  0999 V2000
  189.1260  176.7890  146.4030 C   0  0  0  0  0  3  0  0  0  0  0  0
  192.0640  175.7950  148.1660 O   0  0  0  0  0  0  0  0  0  0  0  0
  186.6780  177.9720  139.5400 C   0  0  0  0  0  0  0  0  0  0  0  0
  189.7220  177.3940  141.8560 C   0  0  1  0  0  3  0  0  0  0  0  0
  185.8800  178.4800  138.4020 C   0  0  0  0  0  0  0  0  0  0  0  0
  191.9770  176.8350  146.0410 C   0  0  0  0  0  3  0  0  0  0  0  0
  189.5670  176.1910  137.9090 C   0  0  2  0  0  3  0  0  0  0  0  0
  187.7790  177.7960  136.9260 C   0  0  0  0  0  2  0  0  0  0  0  0
  188.7400  178.5470  141.7060 C   0  0  1  0  0  3  0  0  0  0  0  0
  190.4560  176.2620  139.1600 C   0  0  2  0  0  3  0  0  0  0  0  0
  190.6220  177.6380  139.5790 N   0  0  2  0  0  0  0  0  0  0  0  0
  191.2190  177.3450  145.0660 C   0  0  0  0  0  3  0  0  0  0  0  0
  189.8840  176.2800  147.3770 C   0  0  0  0  0  3  0  0  0  0  0  0
  186.4760  178.3970  140.7520 N   0  0  0  0  0  0  0  0  0  0  0  0
  186.3930  178.3400  137.1720 C   0  0  0  0  0  3  0  0  0  0  0  0
  187.7770  177.0970  139.2640 N   0  0  0  0  0  0  0  0  0  0  0  0
  191.6050  176.9390  138.8980 O   0  0  0  0  0  0  0  0  0  0  0  0
  187.4640  177.8720  144.3410 C   0  0  0  0  0  2  0  0  0  0  0  0
  190.9650  177.6280  140.9960 C   0  0  0  0  0  2  0  0  0  0  0  0
  191.3500  176.2750  147.2490 C   0  0  0  0  0  0  0  0  0  0  0  0
  187.3190  177.9990  141.8790 C   0  0  2  0  0  3  0  0  0  0  0  0
  189.6340  178.4460  142.9490 C   0  0  1  0  0  3  0  0  0  0  0  0
  188.2910  176.9690  138.0780 C   0  0  0  0  0  0  0  0  0  0  0  0
  188.9720  177.8710  144.1890 C   0  0  0  0  0  0  0  0  0  0  0  0
  189.7380  177.3590  145.1750 C   0  0  0  0  0  0  0  0  0  0  0  0
  186.7390  178.5240  143.1740 C   0  0  0  0  0  2  0  0  0  0  0  0
  184.5360  179.0750  138.5720 C   0  0  0  0  0  0  0  0  0  0  0  0
  183.3610  178.3070  138.3260 N   0  0  0  0  0  1  0  0  0  0  0  0
  184.4130  180.2780  138.9250 O   0  0  0  0  0  0  0  0  0  0  0  0
  189.2670  174.8550  137.6340 O   0  0  0  0  0  0  0  0  0  0  0  0
  190.3720  174.3770  136.9270 C   0  0  0  0  0  1  0  0  0  0  0  0
  1 13  2  0  0  0  0
  3 14  2  0  0  0  0
  4 19  1  6  0  0  0
  4 22  1  0  0  0  0
  5 27  1  0  0  0  0
  5  3  1  0  0  0  0
  6 20  1  0  0  0  0
  7 30  1  1  0  0  0
  7 23  1  0  0  0  0
  7 10  1  0  0  0  0
  8 15  1  0  0  0  0
  8 23  1  0  0  0  0
  9  4  1  0  0  0  0
  9 21  1  0  0  0  0
  9 22  1  0  0  0  0
 10 11  1  0  0  0  0
 11 19  1  0  0  0  0
 12 25  1  0  0  0  0
 12  6  2  0  0  0  0
 14 21  1  0  0  0  0
 15  5  2  0  0  0  0
 16  3  1  0  0  0  0
 17 10  1  0  0  0  0
 17 11  1  0  0  0  0
 20 13  1  0  0  0  0
 20  2  2  0  0  0  0
 21 26  1  0  0  0  0
 22 24  1  0  0  0  0
 23 16  2  0  0  0  0
 24 18  1  0  0  0  0
 24 25  2  0  0  0  0
 25  1  1  0  0  0  0
 26 18  1  0  0  0  0
 27 29  2  0  0  0  0
 28 27  1  0  0  0  0
 31 30  1  0  0  0  0
M  END
>  <MODEL>
2

>  <REMARK>
 VINA RESULT:      -8.2      2.890      7.106
  Name = 
  2 active torsions:
  status: ('A' for Active; 'I' for Inactive)
    1  A    between atoms: O_3  and  C_11
    2  A    between atoms: C_6  and  C_7
                            x       y       z     vdW  Elec       q    Type
                         _______ _______ _______ _____ _____    ______ ____

>  <TORSDO>
F 2

$$$$
=
 OpenBabel10222422063D

 31 36  0  0  1  0  0  0  0  0999 V2000
  188.4260  177.5110  144.3070 C   0  0  0  0  0  3  0  0  0  0  0  0
  190.6380  177.0250  147.0640 O   0  0  0  0  0  0  0  0  0  0  0  0
  188.2110  176.9210  136.9510 C   0  0  0  0  0  0  0  0  0  0  0  0
  190.3850  176.9760  140.1510 C   0  0  1  0  0  3  0  0  0  0  0  0
  187.8220  177.1190  135.5380 C   0  0  0  0  0  0  0  0  0  0  0  0
  191.2530  177.5030  144.8280 C   0  0  0  0  0  3  0  0  0  0  0  0
  191.3350  174.8270  136.7550 C   0  0  2  0  0  3  0  0  0  0  0  0
  190.0260  176.1150  134.9200 C   0  0  0  0  0  2  0  0  0  0  0  0
  189.5670  178.0420  139.4370 C   0  0  1  0  0  3  0  0  0  0  0  0
  191.8140  175.2190  138.1610 C   0  0  2  0  0  3  0  0  0  0  0  0
  191.9350  176.6580  138.2670 N   0  0  2  0  0  0  0  0  0  0  0  0
  190.8530  177.7450  143.5760 C   0  0  0  0  0  3  0  0  0  0  0  0
  188.8260  177.2700  145.5580 C   0  0  0  0  0  3  0  0  0  0  0  0
  187.6850  177.6300  137.9060 N   0  0  0  0  0  0  0  0  0  0  0  0
  188.6670  176.6850  134.5940 C   0  0  0  0  0  3  0  0  0  0  0  0
  189.2840  176.0190  137.2420 N   0  0  0  0  0  0  0  0  0  0  0  0
  193.0300  175.8240  138.1060 O   0  0  0  0  0  0  0  0  0  0  0  0
  187.5260  178.0260  141.6410 C   0  0  0  0  0  2  0  0  0  0  0  0
  191.8400  177.0040  139.6800 C   0  0  0  0  0  2  0  0  0  0  0  0
  190.2610  177.2520  145.8860 C   0  0  0  0  0  0  0  0  0  0  0  0
  188.1280  177.5360  139.2960 C   0  0  2  0  0  3  0  0  0  0  0  0
  190.0430  178.2640  140.8780 C   0  0  1  0  0  3  0  0  0  0  0  0
  190.1190  175.6070  136.3350 C   0  0  0  0  0  0  0  0  0  0  0  0
  189.0070  178.0070  141.9590 C   0  0  0  0  0  0  0  0  0  0  0  0
  189.4110  177.7660  143.2240 C   0  0  0  0  0  0  0  0  0  0  0  0
  187.2230  178.3590  140.1870 C   0  0  0  0  0  2  0  0  0  0  0  0
  186.5290  177.7200  135.1430 C   0  0  0  0  0  0  0  0  0  0  0  0
  185.2990  177.2000  135.6390 N   0  0  0  0  0  1  0  0  0  0  0  0
  186.4980  178.6970  134.3470 O   0  0  0  0  0  0  0  0  0  0  0  0
  191.0470  173.4610  136.7310 O   0  0  0  0  0  0  0  0  0  0  0  0
  191.9970  172.9080  135.8720 C   0  0  0  0  0  1  0  0  0  0  0  0
  1 13  2  0  0  0  0
  3 16  1  0  0  0  0
  3 14  2  0  0  0  0
  4 19  1  6  0  0  0
  4 22  1  0  0  0  0
  5  3  1  0  0  0  0
  6 20  1  0  0  0  0
  7 30  1  1  0  0  0
  7 10  1  0  0  0  0
  8 23  1  0  0  0  0
  9  4  1  0  0  0  0
  9 22  1  0  0  0  0
 10 11  1  0  0  0  0
 11 19  1  0  0  0  0
 12  6  2  0  0  0  0
 13 20  1  0  0  0  0
 14 21  1  0  0  0  0
 15  8  1  0  0  0  0
 15  5  2  0  0  0  0
 17 10  1  0  0  0  0
 17 11  1  0  0  0  0
 18 24  1  0  0  0  0
 20  2  2  0  0  0  0
 21  9  1  0  0  0  0
 21 26  1  0  0  0  0
 22 24  1  0  0  0  0
 23  7  1  0  0  0  0
 23 16  2  0  0  0  0
 24 25  2  0  0  0  0
 25 12  1  0  0  0  0
 25  1  1  0  0  0  0
 26 18  1  0  0  0  0
 27  5  1  0  0  0  0
 27 28  1  0  0  0  0
 29 27  2  0  0  0  0
 31 30  1  0  0  0  0
M  END
>  <MODEL>
3

>  <REMARK>
 VINA RESULT:      -7.9      3.830      8.268
  Name = 
  2 active torsions:
  status: ('A' for Active; 'I' for Inactive)
    1  A    between atoms: O_3  and  C_11
    2  A    between atoms: C_6  and  C_7
                            x       y       z     vdW  Elec       q    Type
                         _______ _______ _______ _____ _____    ______ ____

>  <TORSDO>
F 2

$$$$
=
 OpenBabel10222422063D

 31 36  0  0  1  0  0  0  0  0999 V2000
  188.4520  177.2760  145.3600 C   0  0  0  0  0  3  0  0  0  0  0  0
  191.9680  176.8390  145.7770 O   0  0  0  0  0  0  0  0  0  0  0  0
  183.3480  178.0090  140.0770 C   0  0  0  0  0  0  0  0  0  0  0  0
  187.1060  177.9980  140.9940 C   0  0  1  0  0  3  0  0  0  0  0  0
  182.0950  178.3640  139.3750 C   0  0  0  0  0  0  0  0  0  0  0  0
  190.8790  177.8530  143.9350 C   0  0  0  0  0  3  0  0  0  0  0  0
  185.6240  176.8010  137.3300 C   0  0  2  0  0  3  0  0  0  0  0  0
  183.3500  178.0500  137.2360 C   0  0  0  0  0  2  0  0  0  0  0  0
  185.9640  178.9480  141.3210 C   0  0  1  0  0  3  0  0  0  0  0  0
  186.9050  177.0320  138.1450 C   0  0  2  0  0  3  0  0  0  0  0  0
  186.9860  178.4130  138.5710 N   0  0  2  0  0  0  0  0  0  0  0  0
  189.7260  178.2160  143.3680 C   0  0  0  0  0  3  0  0  0  0  0  0
  189.6050  176.9130  145.9260 C   0  0  0  0  0  3  0  0  0  0  0  0
  183.5680  178.3840  141.3020 N   0  0  0  0  0  0  0  0  0  0  0  0
  182.1000  178.3260  138.0360 C   0  0  0  0  0  3  0  0  0  0  0  0
  184.3820  177.3540  139.3340 N   0  0  0  0  0  0  0  0  0  0  0  0
  187.7270  177.9120  137.5140 O   0  0  0  0  0  0  0  0  0  0  0  0
  185.9570  178.0380  144.1840 C   0  0  0  0  0  2  0  0  0  0  0  0
  187.8540  178.4620  139.7430 C   0  0  0  0  0  2  0  0  0  0  0  0
  190.8810  177.1810  145.2440 C   0  0  0  0  0  0  0  0  0  0  0  0
  184.8390  178.1460  141.9850 C   0  0  2  0  0  3  0  0  0  0  0  0
  187.2760  179.0110  142.1130 C   0  0  1  0  0  3  0  0  0  0  0  0
  184.4030  177.3280  138.0350 C   0  0  0  0  0  0  0  0  0  0  0  0
  187.2610  178.3190  143.4650 C   0  0  0  0  0  0  0  0  0  0  0  0
  188.4270  177.9540  144.0390 C   0  0  0  0  0  0  0  0  0  0  0  0
  184.7330  178.5490  143.4390 C   0  0  0  0  0  2  0  0  0  0  0  0
  180.8440  178.6970  140.0930 C   0  0  0  0  0  0  0  0  0  0  0  0
  180.0820  177.6840  140.7430 N   0  0  0  0  0  1  0  0  0  0  0  0
  180.4290  179.8870  140.1280 O   0  0  0  0  0  0  0  0  0  0  0  0
  185.4710  175.4340  137.0910 O   0  0  0  0  0  0  0  0  0  0  0  0
  185.8460  175.2590  135.7570 C   0  0  0  0  0  1  0  0  0  0  0  0
  1 13  2  0  0  0  0
  3 14  2  0  0  0  0
  4 19  1  6  0  0  0
  4  9  1  0  0  0  0
  4 22  1  0  0  0  0
  5  3  1  0  0  0  0
  5 27  1  0  0  0  0
  6 20  1  0  0  0  0
  7 30  1  1  0  0  0
  7 23  1  0  0  0  0
  7 10  1  0  0  0  0
  8 23  1  0  0  0  0
  8 15  1  0  0  0  0
  9 21  1  0  0  0  0
  9 22  1  0  0  0  0
 10 11  1  0  0  0  0
 11 19  1  0  0  0  0
 12  6  2  0  0  0  0
 12 25  1  0  0  0  0
 14 21  1  0  0  0  0
 15  5  2  0  0  0  0
 16  3  1  0  0  0  0
 17 10  1  0  0  0  0
 17 11  1  0  0  0  0
 20  2  2  0  0  0  0
 20 13  1  0  0  0  0
 21 26  1  0  0  0  0
 22 24  1  0  0  0  0
 23 16  2  0  0  0  0
 24 25  2  0  0  0  0
 24 18  1  0  0  0  0
 25  1  1  0  0  0  0
 26 18  1  0  0  0  0
 27 29  2  0  0  0  0
 27 28  1  0  0  0  0
 31 30  1  0  0  0  0
M  END
>  <MODEL>
4

>  <REMARK>
 VINA RESULT:      -7.5      2.938      5.852
  Name = 
  2 active torsions:
  status: ('A' for Active; 'I' for Inactive)
    1  A    between atoms: O_3  and  C_11
    2  A    between atoms: C_6  and  C_7
                            x       y       z     vdW  Elec       q    Type
                         _______ _______ _______ _____ _____    ______ ____

>  <TORSDO>
F 2

$$$$
=
 OpenBabel10222422063D

 31 36  0  0  1  0  0  0  0  0999 V2000
  188.6720  176.9130  144.4330 C   0  0  0  0  0  3  0  0  0  0  0  0
  192.1050  175.9890  144.1260 O   0  0  0  0  0  0  0  0  0  0  0  0
  182.7810  178.5570  140.2980 C   0  0  0  0  0  0  0  0  0  0  0  0
  186.6070  178.0000  140.4390 C   0  0  1  0  0  3  0  0  0  0  0  0
  181.4770  179.1070  139.8690 C   0  0  0  0  0  0  0  0  0  0  0  0
  190.8280  177.2190  142.5570 C   0  0  0  0  0  3  0  0  0  0  0  0
  184.2790  177.1750  137.1300 C   0  0  2  0  0  3  0  0  0  0  0  0
  182.2290  178.7210  137.5150 C   0  0  0  0  0  2  0  0  0  0  0  0
  185.6970  179.0800  141.0050 C   0  0  1  0  0  3  0  0  0  0  0  0
  185.7150  177.1960  137.6740 C   0  0  2  0  0  3  0  0  0  0  0  0
  186.0720  178.5330  138.0970 N   0  0  2  0  0  0  0  0  0  0  0  0
  189.6480  177.7600  142.2400 C   0  0  0  0  0  3  0  0  0  0  0  0
  189.8520  176.3740  144.7490 C   0  0  0  0  0  3  0  0  0  0  0  0
  183.2900  178.8440  141.4600 N   0  0  0  0  0  0  0  0  0  0  0  0
  181.2130  179.1280  138.5550 C   0  0  0  0  0  3  0  0  0  0  0  0
  183.5470  177.8020  139.3520 N   0  0  0  0  0  0  0  0  0  0  0  0
  186.5120  177.9830  136.9040 O   0  0  0  0  0  0  0  0  0  0  0  0
  186.1270  178.0550  143.7950 C   0  0  0  0  0  2  0  0  0  0  0  0
  187.1510  178.4130  139.0700 C   0  0  0  0  0  2  0  0  0  0  0  0
  190.9930  176.4970  143.8280 C   0  0  0  0  0  0  0  0  0  0  0  0
  184.6240  178.4080  141.8680 C   0  0  2  0  0  3  0  0  0  0  0  0
  187.1350  178.9300  141.5170 C   0  0  1  0  0  3  0  0  0  0  0  0
  183.3070  177.8300  138.0750 C   0  0  0  0  0  0  0  0  0  0  0  0
  187.2900  178.1880  142.8330 C   0  0  0  0  0  0  0  0  0  0  0  0
  188.4830  177.6450  143.1540 C   0  0  0  0  0  0  0  0  0  0  0  0
  184.8650  178.7580  143.3200 C   0  0  0  0  0  2  0  0  0  0  0  0
  180.4530  179.5740  140.8290 C   0  0  0  0  0  0  0  0  0  0  0  0
  179.9920  180.9220  140.8080 N   0  0  0  0  0  1  0  0  0  0  0  0
  179.9820  178.7840  141.6910 O   0  0  0  0  0  0  0  0  0  0  0  0
  183.8910  175.8530  136.9040 O   0  0  0  0  0  0  0  0  0  0  0  0
  183.7100  175.7620  135.5230 C   0  0  0  0  0  1  0  0  0  0  0  0
  1 13  2  0  0  0  0
  3 14  2  0  0  0  0
  4 19  1  6  0  0  0
  4  9  1  0  0  0  0
  4 22  1  0  0  0  0
  5  3  1  0  0  0  0
  5 27  1  0  0  0  0
  6 20  1  0  0  0  0
  7 30  1  1  0  0  0
  7 10  1  0  0  0  0
  7 23  1  0  0  0  0
  8 23  1  0  0  0  0
  8 15  1  0  0  0  0
  9 22  1  0  0  0  0
  9 21  1  0  0  0  0
 10 11  1  0  0  0  0
 11 19  1  0  0  0  0
 12  6  2  0  0  0  0
 12 25  1  0  0  0  0
 14 21  1  0  0  0  0
 15  5  2  0  0  0  0
 16  3  1  0  0  0  0
 17 10  1  0  0  0  0
 17 11  1  0  0  0  0
 20  2  2  0  0  0  0
 20 13  1  0  0  0  0
 21 26  1  0  0  0  0
 22 24  1  0  0  0  0
 23 16  2  0  0  0  0
 24 25  2  0  0  0  0
 24 18  1  0  0  0  0
 25  1  1  0  0  0  0
 26 18  1  0  0  0  0
 27 29  2  0  0  0  0
 28 27  1  0  0  0  0
 31 30  1  0  0  0  0
M  END
>  <MODEL>
5

>  <REMARK>
 VINA RESULT:      -7.4      3.131      5.271
  Name = 
  2 active torsions:
  status: ('A' for Active; 'I' for Inactive)
    1  A    between atoms: O_3  and  C_11
    2  A    between atoms: C_6  and  C_7
                            x       y       z     vdW  Elec       q    Type
                         _______ _______ _______ _____ _____    ______ ____

>  <TORSDO>
F 2

$$$$
=
 OpenBabel10222422063D

 31 36  0  0  1  0  0  0  0  0999 V2000
  184.2460  175.6920  135.5610 C   0  0  0  0  0  3  0  0  0  0  0  0
  180.8770  176.3630  136.5230 O   0  0  0  0  0  0  0  0  0  0  0  0
  191.1660  176.3740  138.0410 C   0  0  0  0  0  0  0  0  0  0  0  0
  187.4430  177.3330  138.4730 C   0  0  1  0  0  3  0  0  0  0  0  0
  192.6390  176.4950  138.0740 C   0  0  0  0  0  0  0  0  0  0  0  0
  182.8130  177.5010  137.2730 C   0  0  0  0  0  3  0  0  0  0  0  0
  190.1170  177.0060  141.6030 C   0  0  2  0  0  3  0  0  0  0  0  0
  192.3930  177.3620  140.4060 C   0  0  0  0  0  2  0  0  0  0  0  0
  188.4820  177.6710  137.4150 C   0  0  1  0  0  3  0  0  0  0  0  0
  188.6730  177.3710  141.2250 C   0  0  2  0  0  3  0  0  0  0  0  0
  188.6650  178.4690  140.2820 N   0  0  2  0  0  0  0  0  0  0  0  0
  184.1420  177.6190  137.2200 C   0  0  0  0  0  3  0  0  0  0  0  0
  182.9170  175.5760  135.6140 C   0  0  0  0  0  3  0  0  0  0  0  0
  190.5100  176.3670  136.9180 N   0  0  0  0  0  0  0  0  0  0  0  0
  193.2040  176.9130  139.2150 C   0  0  0  0  0  3  0  0  0  0  0  0
  190.4530  176.3980  139.2830 N   0  0  0  0  0  0  0  0  0  0  0  0
  188.3740  178.6350  141.6270 O   0  0  0  0  0  0  0  0  0  0  0  0
  187.0950  175.9090  135.4150 C   0  0  0  0  0  2  0  0  0  0  0  0
  187.4020  178.4140  139.5550 C   0  0  0  0  0  2  0  0  0  0  0  0
  182.1280  176.4730  136.4730 C   0  0  0  0  0  0  0  0  0  0  0  0
  189.0490  176.3610  136.8560 C   0  0  2  0  0  3  0  0  0  0  0  0
  186.9910  177.9060  137.1410 C   0  0  1  0  0  3  0  0  0  0  0  0
  190.9880  176.8180  140.3900 C   0  0  0  0  0  0  0  0  0  0  0  0
  186.3000  176.8400  136.3090 C   0  0  0  0  0  0  0  0  0  0  0  0
  184.9570  176.7230  136.3610 C   0  0  0  0  0  0  0  0  0  0  0  0
  188.5900  176.1920  135.4250 C   0  0  0  0  0  2  0  0  0  0  0  0
  193.4970  176.1230  136.9260 C   0  0  0  0  0  0  0  0  0  0  0  0
  193.4900  174.7960  136.4080 N   0  0  0  0  0  1  0  0  0  0  0  0
  194.2580  176.9780  136.3980 O   0  0  0  0  0  0  0  0  0  0  0  0
  190.1120  175.8330  142.3600 O   0  0  0  0  0  0  0  0  0  0  0  0
  190.7960  176.1590  143.5320 C   0  0  0  0  0  1  0  0  0  0  0  0
  1 13  2  0  0  0  0
  1 25  1  0  0  0  0
  3  5  1  0  0  0  0
  3 16  1  0  0  0  0
  4 19  1  1  0  0  0
  5 15  2  0  0  0  0
  7 30  1  6  0  0  0
  9  4  1  0  0  0  0
 10  7  1  0  0  0  0
 10 17  1  0  0  0  0
 11 10  1  0  0  0  0
 11 17  1  0  0  0  0
 12  6  2  0  0  0  0
 13 20  1  0  0  0  0
 14  3  2  0  0  0  0
 15  8  1  0  0  0  0
 16 23  2  0  0  0  0
 18 26  1  0  0  0  0
 18 24  1  0  0  0  0
 19 11  1  0  0  0  0
 20  2  2  0  0  0  0
 20  6  1  0  0  0  0
 21 14  1  0  0  0  0
 21  9  1  0  0  0  0
 22  9  1  0  0  0  0
 22  4  1  0  0  0  0
 23  8  1  0  0  0  0
 23  7  1  0  0  0  0
 24 25  2  0  0  0  0
 24 22  1  0  0  0  0
 25 12  1  0  0  0  0
 26 21  1  0  0  0  0
 27  5  1  0  0  0  0
 28 27  1  0  0  0  0
 29 27  2  0  0  0  0
 30 31  1  0  0  0  0
M  END
>  <MODEL>
6

>  <REMARK>
 VINA RESULT:      -7.2      3.790      7.911
  Name = 
  2 active torsions:
  status: ('A' for Active; 'I' for Inactive)
    1  A    between atoms: O_3  and  C_11
    2  A    between atoms: C_6  and  C_7
                            x       y       z     vdW  Elec       q    Type
                         _______ _______ _______ _____ _____    ______ ____

>  <TORSDO>
F 2

$$$$
=
 OpenBabel10222422063D

 31 36  0  0  1  0  0  0  0  0999 V2000
  190.7380  175.6000  138.8410 C   0  0  0  0  0  3  0  0  0  0  0  0
  190.3540  175.9770  135.3140 O   0  0  0  0  0  0  0  0  0  0  0  0
  187.5760  177.6060  145.2030 C   0  0  0  0  0  0  0  0  0  0  0  0
  187.8080  178.1270  141.3770 C   0  0  1  0  0  3  0  0  0  0  0  0
  187.3820  177.9250  146.6350 C   0  0  0  0  0  0  0  0  0  0  0  0
  189.5950  177.4730  136.9850 C   0  0  0  0  0  3  0  0  0  0  0  0
  184.3610  178.7000  143.5760 C   0  0  2  0  0  3  0  0  0  0  0  0
  185.3060  179.1410  145.9540 C   0  0  0  0  0  2  0  0  0  0  0  0
  188.7720  178.4100  142.5200 C   0  0  1  0  0  3  0  0  0  0  0  0
  184.9800  178.8010  142.1740 C   0  0  2  0  0  3  0  0  0  0  0  0
  186.1080  179.7090  142.1890 N   0  0  2  0  0  0  0  0  0  0  0  0
  189.5000  177.7540  138.2880 C   0  0  0  0  0  3  0  0  0  0  0  0
  190.8330  175.3200  137.5390 C   0  0  0  0  0  3  0  0  0  0  0  0
  188.7520  177.3200  144.7260 N   0  0  0  0  0  0  0  0  0  0  0  0
  186.2780  178.6040  146.9760 C   0  0  0  0  0  3  0  0  0  0  0  0
  186.4620  177.7510  144.3160 N   0  0  0  0  0  0  0  0  0  0  0  0
  184.8670  180.0640  141.6850 O   0  0  0  0  0  0  0  0  0  0  0  0
  190.5600  176.1630  141.6410 C   0  0  0  0  0  2  0  0  0  0  0  0
  186.9650  179.3630  141.0610 C   0  0  0  0  0  2  0  0  0  0  0  0
  190.2650  176.2410  136.5400 C   0  0  0  0  0  0  0  0  0  0  0  0
  188.9960  177.1100  143.3000 C   0  0  2  0  0  3  0  0  0  0  0  0
  189.2710  178.3960  141.0700 C   0  0  1  0  0  3  0  0  0  0  0  0
  185.3960  178.4230  144.6330 C   0  0  0  0  0  0  0  0  0  0  0  0
  189.9670  177.1200  140.6270 C   0  0  0  0  0  0  0  0  0  0  0  0
  190.0650  176.8380  139.3110 C   0  0  0  0  0  0  0  0  0  0  0  0
  190.4160  176.6380  143.0790 C   0  0  0  0  0  2  0  0  0  0  0  0
  188.3200  177.4760  147.6880 C   0  0  0  0  0  0  0  0  0  0  0  0
  188.9830  178.4190  148.5260 N   0  0  0  0  0  1  0  0  0  0  0  0
  188.5560  176.2490  147.8480 O   0  0  0  0  0  0  0  0  0  0  0  0
  183.4020  177.6860  143.5840 O   0  0  0  0  0  0  0  0  0  0  0  0
  182.1860  178.3420  143.7820 C   0  0  0  0  0  1  0  0  0  0  0  0
  1 25  1  0  0  0  0
  2 20  2  0  0  0  0
  3  5  1  0  0  0  0
  4 19  1  6  0  0  0
  4  9  1  0  0  0  0
  5 15  2  0  0  0  0
  5 27  1  0  0  0  0
  6 12  2  0  0  0  0
  7 30  1  6  0  0  0
  7 23  1  0  0  0  0
  8 15  1  0  0  0  0
  9 21  1  0  0  0  0
 10 11  1  0  0  0  0
 10  7  1  0  0  0  0
 12 25  1  0  0  0  0
 13  1  2  0  0  0  0
 14  3  2  0  0  0  0
 16 23  2  0  0  0  0
 16  3  1  0  0  0  0
 17 10  1  0  0  0  0
 17 11  1  0  0  0  0
 18 26  1  0  0  0  0
 19 11  1  0  0  0  0
 20  6  1  0  0  0  0
 20 13  1  0  0  0  0
 21 14  1  0  0  0  0
 22  4  1  0  0  0  0
 22  9  1  0  0  0  0
 23  8  1  0  0  0  0
 24 22  1  0  0  0  0
 24 18  1  0  0  0  0
 25 24  2  0  0  0  0
 26 21  1  0  0  0  0
 27 29  2  0  0  0  0
 27 28  1  0  0  0  0
 30 31  1  0  0  0  0
M  END
>  <MODEL>
7

>  <REMARK>
 VINA RESULT:      -6.7      1.812      2.358
  Name = 
  2 active torsions:
  status: ('A' for Active; 'I' for Inactive)
    1  A    between atoms: O_3  and  C_11
    2  A    between atoms: C_6  and  C_7
                            x       y       z     vdW  Elec       q    Type
                         _______ _______ _______ _____ _____    ______ ____

>  <TORSDO>
F 2

$$$$
=
 OpenBabel10222422063D

 31 36  0  0  1  0  0  0  0  0999 V2000
  189.6980  177.4800  140.4730 C   0  0  0  0  0  3  0  0  0  0  0  0
  192.2620  176.3870  138.2460 O   0  0  0  0  0  0  0  0  0  0  0  0
  182.3600  178.1810  140.8730 C   0  0  0  0  0  0  0  0  0  0  0  0
  185.4530  177.5460  138.6380 C   0  0  1  0  0  3  0  0  0  0  0  0
  181.0140  178.6450  141.2750 C   0  0  0  0  0  0  0  0  0  0  0  0
  190.1220  177.2040  137.6440 C   0  0  0  0  0  3  0  0  0  0  0  0
  181.7120  175.9600  137.9020 C   0  0  2  0  0  3  0  0  0  0  0  0
  180.1650  177.6240  139.1570 C   0  0  0  0  0  2  0  0  0  0  0  0
  184.9570  178.7690  139.3950 C   0  0  1  0  0  3  0  0  0  0  0  0
  183.1490  176.0720  137.3700 C   0  0  2  0  0  3  0  0  0  0  0  0
  183.4950  177.4610  137.1500 N   0  0  2  0  0  0  0  0  0  0  0  0
  188.9430  177.6820  138.0510 C   0  0  0  0  0  3  0  0  0  0  0  0
  190.8760  177.0030  140.0660 C   0  0  0  0  0  3  0  0  0  0  0  0
  183.4370  178.7480  141.3310 N   0  0  0  0  0  0  0  0  0  0  0  0
  179.9840  178.3270  140.4800 C   0  0  0  0  0  3  0  0  0  0  0  0
  182.4590  177.1770  139.8580 N   0  0  0  0  0  0  0  0  0  0  0  0
  183.1610  176.5990  136.1170 O   0  0  0  0  0  0  0  0  0  0  0  0
  187.1880  178.5030  141.3900 C   0  0  0  0  0  2  0  0  0  0  0  0
  184.9490  177.5640  137.1940 C   0  0  0  0  0  2  0  0  0  0  0  0
  191.1520  176.8380  138.6300 C   0  0  0  0  0  0  0  0  0  0  0  0
  184.7770  178.3870  140.8680 C   0  0  2  0  0  3  0  0  0  0  0  0
  186.4000  178.7090  138.8770 C   0  0  1  0  0  3  0  0  0  0  0  0
  181.4690  176.8750  139.0710 C   0  0  0  0  0  0  0  0  0  0  0  0
  187.4530  178.3360  139.9070 C   0  0  0  0  0  0  0  0  0  0  0  0
  188.6450  177.8550  139.4950 C   0  0  0  0  0  0  0  0  0  0  0  0
  185.8230  179.1000  141.6970 C   0  0  0  0  0  2  0  0  0  0  0  0
  180.7670  179.3860  142.5330 C   0  0  0  0  0  0  0  0  0  0  0  0
  181.0750  178.8030  143.7960 N   0  0  0  0  0  1  0  0  0  0  0  0
  180.2670  180.5420  142.5010 O   0  0  0  0  0  0  0  0  0  0  0  0
  181.4650  174.6400  138.2830 O   0  0  0  0  0  0  0  0  0  0  0  0
  180.5790  174.1490  137.3220 C   0  0  0  0  0  1  0  0  0  0  0  0
  2 20  2  0  0  0  0
  3  5  1  0  0  0  0
  3 14  2  0  0  0  0
  4 19  1  6  0  0  0
  4 22  1  0  0  0  0
  4  9  1  0  0  0  0
  5 27  1  0  0  0  0
  6 12  2  0  0  0  0
  6 20  1  0  0  0  0
  7 30  1  1  0  0  0
  7 23  1  0  0  0  0
  8 15  1  0  0  0  0
  9 21  1  0  0  0  0
 10  7  1  0  0  0  0
 11 19  1  0  0  0  0
 11 10  1  0  0  0  0
 12 25  1  0  0  0  0
 13  1  2  0  0  0  0
 15  5  2  0  0  0  0
 16  3  1  0  0  0  0
 17 11  1  0  0  0  0
 17 10  1  0  0  0  0
 18 26  1  0  0  0  0
 20 13  1  0  0  0  0
 21 14  1  0  0  0  0
 21 26  1  0  0  0  0
 22  9  1  0  0  0  0
 22 24  1  0  0  0  0
 23  8  1  0  0  0  0
 23 16  2  0  0  0  0
 24 18  1  0  0  0  0
 25 24  2  0  0  0  0
 25  1  1  0  0  0  0
 27 28  1  0  0  0  0
 29 27  2  0  0  0  0
 31 30  1  0  0  0  0
M  END
>  <MODEL>
8

>  <REMARK>
 VINA RESULT:      -6.6      2.823      3.963
  Name = 
  2 active torsions:
  status: ('A' for Active; 'I' for Inactive)
    1  A    between atoms: O_3  and  C_11
    2  A    between atoms: C_6  and  C_7
                            x       y       z     vdW  Elec       q    Type
                         _______ _______ _______ _____ _____    ______ ____

>  <TORSDO>
F 2

$$$$
=
 OpenBabel10222422063D

 31 36  0  0  1  0  0  0  0  0999 V2000
  184.4170  172.5670  136.7400 C   0  0  0  0  0  3  0  0  0  0  0  0
  181.1610  173.8810  137.3690 O   0  0  0  0  0  0  0  0  0  0  0  0
  191.5480  174.3950  137.2990 C   0  0  0  0  0  0  0  0  0  0  0  0
  187.8670  175.5800  137.3870 C   0  0  1  0  0  3  0  0  0  0  0  0
  193.0100  174.4320  137.0740 C   0  0  0  0  0  0  0  0  0  0  0  0
  183.1250  175.1270  136.9250 C   0  0  0  0  0  3  0  0  0  0  0  0
  190.9010  177.3190  139.5830 C   0  0  2  0  0  3  0  0  0  0  0  0
  193.0050  176.6580  138.2130 C   0  0  0  0  0  2  0  0  0  0  0  0
  188.7600  175.0610  136.2700 C   0  0  1  0  0  3  0  0  0  0  0  0
  189.4100  177.4050  139.2250 C   0  0  2  0  0  3  0  0  0  0  0  0
  189.2460  177.5760  137.7970 N   0  0  2  0  0  0  0  0  0  0  0  0
  184.4330  175.1110  136.6560 C   0  0  0  0  0  3  0  0  0  0  0  0
  183.1100  172.5840  137.0070 C   0  0  0  0  0  3  0  0  0  0  0  0
  190.7660  173.6650  136.5600 N   0  0  0  0  0  0  0  0  0  0  0  0
  193.6870  175.4810  137.5580 C   0  0  0  0  0  3  0  0  0  0  0  0
  190.9860  175.2880  138.2670 N   0  0  0  0  0  0  0  0  0  0  0  0
  189.1090  178.6210  138.6970 O   0  0  0  0  0  0  0  0  0  0  0  0
  187.2190  172.4850  136.1640 C   0  0  0  0  0  2  0  0  0  0  0  0
  187.9100  177.1080  137.4480 C   0  0  0  0  0  2  0  0  0  0  0  0
  182.3930  173.8650  137.1150 C   0  0  0  0  0  0  0  0  0  0  0  0
  189.3100  173.6920  136.6850 C   0  0  2  0  0  3  0  0  0  0  0  0
  187.2390  175.1240  136.0810 C   0  0  1  0  0  3  0  0  0  0  0  0
  191.6300  176.3180  138.7280 C   0  0  0  0  0  0  0  0  0  0  0  0
  186.4980  173.8130  136.2750 C   0  0  0  0  0  0  0  0  0  0  0  0
  185.1760  173.8300  136.5440 C   0  0  0  0  0  0  0  0  0  0  0  0
  188.6920  172.6240  135.8090 C   0  0  0  0  0  2  0  0  0  0  0  0
  193.7400  173.3400  136.3930 C   0  0  0  0  0  0  0  0  0  0  0  0
  194.1860  172.1960  137.1160 N   0  0  0  0  0  1  0  0  0  0  0  0
  193.9900  173.4140  135.1600 O   0  0  0  0  0  0  0  0  0  0  0  0
  191.0320  176.9680  140.9280 O   0  0  0  0  0  0  0  0  0  0  0  0
  189.7530  177.1250  141.4660 C   0  0  0  0  0  1  0  0  0  0  0  0
  1 13  2  0  0  0  0
  3 16  1  0  0  0  0
  4 19  1  6  0  0  0
  5  3  1  0  0  0  0
  5 15  2  0  0  0  0
  6 20  1  0  0  0  0
  7 30  1  1  0  0  0
  8 23  1  0  0  0  0
  9 21  1  0  0  0  0
  9  4  1  0  0  0  0
 10  7  1  0  0  0  0
 11 17  1  0  0  0  0
 11 10  1  0  0  0  0
 12  6  2  0  0  0  0
 13 20  1  0  0  0  0
 14 21  1  0  0  0  0
 14  3  2  0  0  0  0
 15  8  1  0  0  0  0
 16 23  2  0  0  0  0
 17 10  1  0  0  0  0
 18 24  1  0  0  0  0
 19 11  1  0  0  0  0
 20  2  2  0  0  0  0
 22  9  1  0  0  0  0
 22 24  1  0  0  0  0
 22  4  1  0  0  0  0
 23  7  1  0  0  0  0
 24 25  2  0  0  0  0
 25 12  1  0  0  0  0
 25  1  1  0  0  0  0
 26 18  1  0  0  0  0
 26 21  1  0  0  0  0
 27  5  1  0  0  0  0
 27 28  1  0  0  0  0
 29 27  2  0  0  0  0
 30 31  1  0  0  0  0
M  END
>  <MODEL>
9

>  <REMARK>
 VINA RESULT:      -6.6      4.653      8.748
  Name = 
  2 active torsions:
  status: ('A' for Active; 'I' for Inactive)
    1  A    between atoms: O_3  and  C_11
    2  A    between atoms: C_6  and  C_7
                            x       y       z     vdW  Elec       q    Type
                         _______ _______ _______ _____ _____    ______ ____

>  <TORSDO>
F 2

$$$$
