=
 OpenBabel10232409323D

 70 72  0  0  1  0  0  0  0  0999 V2000
  185.2450  177.1360  137.1260 C   0  0  0  0  0  0  0  0  0  0  0  0
  188.8510  176.4800  141.6440 C   0  0  0  0  0  2  0  0  0  0  0  0
  192.7720  174.2440  136.2170 C   0  0  0  0  0  2  0  0  0  0  0  0
  188.5420  178.6690  138.7680 O   0  0  0  0  0  1  0  0  0  0  0  0
  191.5100  175.3400  134.3470 C   0  0  0  0  0  2  0  0  0  0  0  0
  183.9660  176.9580  136.7230 C   0  0  0  0  0  0  0  0  0  0  0  0
  190.3020  176.8010  139.7110 C   0  0  0  0  0  2  0  0  0  0  0  0
  192.9990  175.6380  139.0150 C   0  0  0  0  0  2  0  0  0  0  0  0
  191.5980  177.1600  140.4270 C   0  0  0  0  0  2  0  0  0  0  0  0
  192.7810  175.3610  135.1820 C   0  0  0  0  0  2  0  0  0  0  0  0
  190.4190  177.3120  135.4100 C   0  0  0  0  0  1  0  0  0  0  0  0
  190.3110  175.8210  135.1500 C   0  0  1  0  0  3  0  0  0  0  0  0
  187.2230  176.4130  135.8110 C   0  0  0  0  0  2  0  0  0  0  0  0
  185.6780  178.4280  139.2180 C   0  0  0  0  0  2  0  0  0  0  0  0
  193.9840  174.3100  137.1480 C   0  0  2  0  0  3  0  0  0  0  0  0
  186.7380  177.5170  139.8290 C   0  0  0  0  0  2  0  0  0  0  0  0
  185.7400  178.4320  137.6990 C   0  0  0  0  0  2  0  0  0  0  0  0
  188.1070  178.1990  140.0120 C   0  0  1  0  0  0  0  0  0  0  0  0
  187.8920  175.1590  135.2530 C   0  0  2  0  0  3  0  0  0  0  0  0
  183.5720  175.6760  136.0480 C   0  0  0  0  0  1  0  0  0  0  0  0
  186.2630  176.0520  136.9220 C   0  0  0  0  0  2  0  0  0  0  0  0
  194.0390  175.6240  137.9170 C   0  0  0  0  0  2  0  0  0  0  0  0
  192.7640  177.0690  139.4590 C   0  0  0  0  0  2  0  0  0  0  0  0
  189.1050  177.1800  140.5330 C   0  0  0  0  0  0  0  0  0  0  0  0
  189.0500  175.5390  134.3500 C   0  0  0  0  0  2  0  0  0  0  0  0
  181.9010  179.7700  138.1900 C   0  0  0  0  0  3  0  0  0  0  0  0
  182.8560  178.7650  138.0400 C   0  0  0  0  0  3  0  0  0  0  0  0
  181.9940  178.2620  135.8430 C   0  0  0  0  0  3  0  0  0  0  0  0
  182.9040  177.9880  136.8720 C   0  0  0  0  0  0  0  0  0  0  0  0
  180.9740  180.0140  137.1740 C   0  0  0  0  0  0  0  0  0  0  0  0
  181.0310  179.2660  135.9930 C   0  0  0  0  0  3  0  0  0  0  0  0
  179.9840  181.1220  137.3360 C   0  0  0  0  0  2  0  0  0  0  0  0
  180.5740  182.4420  136.9620 C   0  0  0  0  0  0  0  0  0  0  0  0
  181.4820  183.1020  137.8360 N   0  0  0  0  0  1  0  0  0  0  0  0
  180.2890  182.9590  135.8470 O   0  0  0  0  0  0  0  0  0  0  0  0
  195.5350  174.0690  136.2310 S   0  0  0  0  0  0  0  0  0  0  0  0
  196.3390  173.2700  137.6500 C   0  0  0  0  0  2  0  0  0  0  0  0
  197.0720  172.0000  137.2190 C   0  0  2  0  0  3  0  0  0  0  0  0
  199.4620  171.9830  136.1670 C   0  0  1  0  0  3  0  0  0  0  0  0
  197.4850  172.4420  134.6350 C   0  0  0  0  0  1  0  0  0  0  0  0
  198.0180  172.2860  136.0460 C   0  0  1  0  0  0  0  0  0  0  0  0
  198.9560  173.2880  136.3530 O   0  0  0  0  0  0  0  0  0  0  0  0
  199.7730  171.4300  137.4160 O   0  0  0  0  0  1  0  0  0  0  0  0
  195.4570  170.3830  138.0180 O   0  0  0  0  0  1  0  0  0  0  0  0
  196.8150  169.7980  136.2800 O   0  0  0  0  0  1  0  0  0  0  0  0
  196.1190  170.8490  136.8800 C   0  0  0  0  0  3  0  0  0  0  0  0
  188.0280  179.4150  140.9540 C   0  0  0  0  0  2  0  0  0  0  0  0
  186.8950  179.3490  141.9770 C   0  0  0  0  0  2  0  0  0  0  0  0
  186.3830  178.2210  144.1950 C   0  0  0  0  0  0  0  0  0  0  0  0
  187.2710  178.5160  143.1120 N   0  0  0  0  0  2  0  0  0  0  0  0
  185.2850  178.8250  144.3080 O   0  0  0  0  0  0  0  0  0  0  0  0
  186.8000  176.9150  145.3520 S   0  0  0  0  0  0  0  0  0  0  0  0
  188.6210  177.1300  145.3030 C   0  0  1  0  0  3  0  0  0  0  0  0
  188.9700  178.5330  144.8240 C   0  0  0  0  0  1  0  0  0  0  0  0
  189.3370  176.7670  146.6190 C   0  0  2  0  0  3  0  0  0  0  0  0
  188.5870  177.7110  148.0100 P   0  0  2  0  0  0  0  0  0  0  0  0
  188.1600  176.6360  149.2490 O   0  0  0  0  0  1  0  0  0  0  0  0
  187.0850  178.5810  147.4700 C   0  0  0  0  0  1  0  0  0  0  0  0
  189.5580  178.7220  148.5730 O   0  0  0  0  0  0  0  0  0  0  0  0
  191.2060  177.0180  146.4910 P   0  0  1  0  0  0  0  0  0  0  0  0
  191.6940  176.2230  147.9560 O   0  0  0  0  0  1  0  0  0  0  0  0
  191.6980  175.6770  145.2960 C   0  0  0  0  0  1  0  0  0  0  0  0
  186.9310  174.3850  134.4790 N   0  0  0  0  0  2  0  0  0  0  0  0
  187.0230  173.0090  134.9350 C   0  0  0  0  0  2  0  0  0  0  0  0
  185.6650  172.1790  137.2860 O   0  0  0  0  0  0  0  0  0  0  0  0
  185.6910  172.4270  134.9670 N   0  0  0  0  0  2  0  0  0  0  0  0
  185.0670  172.0210  136.1870 C   0  0  0  0  0  0  0  0  0  0  0  0
  183.7230  171.4270  136.1600 C   0  0  0  0  0  0  0  0  0  0  0  0
  182.8210  171.6090  134.9890 C   0  0  0  0  0  1  0  0  0  0  0  0
  183.3170  170.7670  137.1530 O   0  0  0  0  0  0  0  0  0  0  0  0
  1 17  1  0  0  0  0
  3 15  1  0  0  0  0
  5 12  1  0  0  0  0
  5 10  1  0  0  0  0
  6 29  1  0  0  0  0
  6  1  2  0  0  0  0
  7  9  1  0  0  0  0
  7 24  1  0  0  0  0
  8 23  1  0  0  0  0
 10  3  1  0  0  0  0
 12 11  1  6  0  0  0
 13 21  1  0  0  0  0
 14 16  1  0  0  0  0
 15 36  1  6  0  0  0
 15 22  1  0  0  0  0
 16 18  1  0  0  0  0
 17 14  1  0  0  0  0
 18  4  1  6  0  0  0
 18 24  1  0  0  0  0
 18 47  1  0  0  0  0
 19 63  1  6  0  0  0
 19 13  1  0  0  0  0
 20  6  1  0  0  0  0
 21  1  1  0  0  0  0
 22  8  1  0  0  0  0
 23  9  1  0  0  0  0
 24  2  2  0  0  0  0
 25 12  1  0  0  0  0
 25 19  1  0  0  0  0
 27 26  1  0  0  0  0
 28 31  2  0  0  0  0
 28 29  1  0  0  0  0
 29 27  2  0  0  0  0
 30 32  1  0  0  0  0
 30 26  2  0  0  0  0
 31 30  1  0  0  0  0
 33 32  1  0  0  0  0
 33 34  1  0  0  0  0
 35 33  2  0  0  0  0
 36 37  1  0  0  0  0
 38 37  1  6  0  0  0
 39 42  1  0  0  0  0
 39 43  1  1  0  0  0
 41 40  1  6  0  0  0
 41 39  1  0  0  0  0
 41 42  1  0  0  0  0
 41 38  1  0  0  0  0
 45 46  1  0  0  0  0
 46 38  1  0  0  0  0
 46 44  1  0  0  0  0
 47 48  1  0  0  0  0
 48 50  1  0  0  0  0
 49 51  2  0  0  0  0
 49 52  1  0  0  0  0
 50 49  1  0  0  0  0
 53 54  1  1  0  0  0
 53 52  1  0  0  0  0
 55 53  1  6  0  0  0
 55 56  1  0  0  0  0
 56 58  1  6  0  0  0
 56 59  2  0  0  0  0
 56 57  1  0  0  0  0
 60 62  1  6  0  0  0
 60 55  1  0  0  0  0
 60 61  1  0  0  0  0
 63 64  1  0  0  0  0
 64 66  1  0  0  0  0
 66 67  1  0  0  0  0
 67 65  2  0  0  0  0
 68 67  1  0  0  0  0
 68 70  2  0  0  0  0
 69 68  1  0  0  0  0
M  END
>  <MODEL>
1

>  <REMARK>
 VINA RESULT:      -3.7      0.000      0.000
  Name = 
  20 active torsions:
  status: ('A' for Active; 'I' for Inactive)
    1  A    between atoms: C_3  and  C_15
    2  A    between atoms: C_3  and  P_16
    3  A    between atoms: C_3  and  P_28
    4  A    between atoms: C_5  and  C_51
    5  A    between atoms: C_7  and  C_21
    6  A    between atoms: S_12  and  C_41
    7  A    between atoms: S_12  and  C_46
    8  A    between atoms: C_13  and  C_26
    9  A    between atoms: C_14  and  S_54
   10  A    between atoms: C_15  and  S_54
   11  A    between atoms: C_17  and  C_25
   12  A    between atoms: C_19  and  C_45
   13  A    between atoms: C_19  and  C_55
   14  A    between atoms: C_21  and  C_47
   15  A    between atoms: N_24  and  C_56
   16  A    between atoms: C_25  and  C_41
   17  A    between atoms: C_25  and  C_66
   18  A    between atoms: N_32  and  C_45
   19  A    between atoms: N_40  and  C_56
   20  A    between atoms: N_40  and  C_57
                            x       y       z     vdW  Elec       q    Type
                         _______ _______ _______ _____ _____    ______ ____

>  <TORSDO>
F 20

$$$$
=
 OpenBabel10232409323D

 70 72  0  0  1  0  0  0  0  0999 V2000
  193.3010  174.9100  137.4060 C   0  0  0  0  0  0  0  0  0  0  0  0
  189.2530  179.0880  137.3850 C   0  0  0  0  0  2  0  0  0  0  0  0
  185.8350  173.6290  134.4980 C   0  0  0  0  0  2  0  0  0  0  0  0
  189.8950  175.9990  139.1740 O   0  0  0  0  0  1  0  0  0  0  0  0
  187.3000  171.7700  135.3250 C   0  0  0  0  0  2  0  0  0  0  0  0
  194.6090  174.6640  137.1630 C   0  0  0  0  0  0  0  0  0  0  0  0
  188.0070  176.9940  137.4650 C   0  0  0  0  0  2  0  0  0  0  0  0
  185.3650  176.1860  136.2490 C   0  0  0  0  0  2  0  0  0  0  0  0
  186.6560  177.5230  137.9280 C   0  0  0  0  0  2  0  0  0  0  0  0
  185.9540  172.4620  135.4690 C   0  0  0  0  0  2  0  0  0  0  0  0
  188.3270  172.6730  137.4090 C   0  0  0  0  0  1  0  0  0  0  0  0
  188.4250  172.6210  135.8950 C   0  0  1  0  0  3  0  0  0  0  0  0
  191.4460  173.5070  136.5370 C   0  0  0  0  0  2  0  0  0  0  0  0
  192.6940  176.7630  138.9660 C   0  0  0  0  0  2  0  0  0  0  0  0
  184.5380  174.4170  134.6970 C   0  0  2  0  0  3  0  0  0  0  0  0
  191.5580  177.3770  138.1530 C   0  0  0  0  0  2  0  0  0  0  0  0
  192.7820  175.2580  138.7710 C   0  0  0  0  0  2  0  0  0  0  0  0
  190.1940  177.3310  138.8670 C   0  0  1  0  0  0  0  0  0  0  0  0
  190.8060  173.0510  135.2270 C   0  0  2  0  0  3  0  0  0  0  0  0
  195.0370  174.2050  135.7990 C   0  0  0  0  0  1  0  0  0  0  0  0
  192.2830  174.7460  136.3150 C   0  0  0  0  0  2  0  0  0  0  0  0
  184.4390  175.0000  136.1010 C   0  0  0  0  0  2  0  0  0  0  0  0
  185.5890  176.4620  137.7230 C   0  0  0  0  0  2  0  0  0  0  0  0
  189.1260  177.8760  137.9360 C   0  0  0  0  0  0  0  0  0  0  0  0
  189.7520  171.9950  135.4970 C   0  0  0  0  0  2  0  0  0  0  0  0
  198.0360  175.0320  138.7270 C   0  0  0  0  0  3  0  0  0  0  0  0
  197.0160  174.8720  137.7890 C   0  0  0  0  0  3  0  0  0  0  0  0
  195.3740  174.8960  139.5570 C   0  0  0  0  0  3  0  0  0  0  0  0
  195.6750  174.7850  138.1930 C   0  0  0  0  0  0  0  0  0  0  0  0
  197.7310  175.1060  140.0890 C   0  0  0  0  0  0  0  0  0  0  0  0
  196.3940  175.0500  140.5000 C   0  0  0  0  0  3  0  0  0  0  0  0
  198.8320  175.3180  141.0760 C   0  0  0  0  0  2  0  0  0  0  0  0
  198.3830  176.1650  142.2210 C   0  0  0  0  0  0  0  0  0  0  0  0
  198.8260  175.8870  143.5440 N   0  0  0  0  0  1  0  0  0  0  0  0
  197.6310  177.1550  142.0070 O   0  0  0  0  0  0  0  0  0  0  0  0
  183.0810  173.3870  134.3550 S   0  0  0  0  0  0  0  0  0  0  0  0
  182.5560  173.4170  136.0940 C   0  0  0  0  0  2  0  0  0  0  0  0
  181.5880  174.5720  136.3520 C   0  0  2  0  0  3  0  0  0  0  0  0
  181.5140  175.9890  138.5440 C   0  0  1  0  0  3  0  0  0  0  0  0
  180.3450  173.7300  138.5410 C   0  0  0  0  0  1  0  0  0  0  0  0
  181.2810  174.7030  137.8490 C   0  0  1  0  0  0  0  0  0  0  0  0
  182.4410  174.9260  138.6110 O   0  0  0  0  0  0  0  0  0  0  0  0
  182.0020  176.9690  137.6710 O   0  0  0  0  0  1  0  0  0  0  0  0
  180.2030  173.2200  134.8970 O   0  0  0  0  0  1  0  0  0  0  0  0
  180.2160  175.4820  134.5960 O   0  0  0  0  0  1  0  0  0  0  0  0
  180.2950  174.4560  135.5400 C   0  0  0  0  0  3  0  0  0  0  0  0
  190.2080  178.1100  140.1960 C   0  0  0  0  0  2  0  0  0  0  0  0
  191.0230  177.4500  141.3070 C   0  0  0  0  0  2  0  0  0  0  0  0
  189.7310  177.6950  143.4800 C   0  0  0  0  0  0  0  0  0  0  0  0
  190.1480  176.9250  142.3480 N   0  0  0  0  0  2  0  0  0  0  0  0
  190.2540  178.8120  143.7250 O   0  0  0  0  0  0  0  0  0  0  0  0
  188.3860  177.0990  144.5080 S   0  0  0  0  0  0  0  0  0  0  0  0
  187.0440  178.0790  143.7300 C   0  0  1  0  0  3  0  0  0  0  0  0
  186.8830  177.6790  142.2690 C   0  0  0  0  0  1  0  0  0  0  0  0
  185.7080  178.0430  144.4970 C   0  0  2  0  0  3  0  0  0  0  0  0
  184.3890  178.8230  143.4750 P   0  0  2  0  0  0  0  0  0  0  0  0
  182.9060  178.0740  143.8110 O   0  0  0  0  0  1  0  0  0  0  0  0
  184.7370  178.6230  141.7020 C   0  0  0  0  0  1  0  0  0  0  0  0
  184.2580  180.2960  143.7810 O   0  0  0  0  0  0  0  0  0  0  0  0
  185.8630  178.8270  146.2090 P   0  0  1  0  0  0  0  0  0  0  0  0
  184.3590  178.2950  146.8960 O   0  0  0  0  0  1  0  0  0  0  0  0
  186.9840  177.6270  147.0870 C   0  0  0  0  0  1  0  0  0  0  0  0
  191.8200  172.4850  134.3490 N   0  0  0  0  0  2  0  0  0  0  0  0
  192.9180  172.0430  135.1910 C   0  0  0  0  0  2  0  0  0  0  0  0
  194.8640  170.4530  136.5120 O   0  0  0  0  0  0  0  0  0  0  0  0
  193.3480  170.7220  134.7610 N   0  0  0  0  0  2  0  0  0  0  0  0
  194.3410  169.9770  135.4680 C   0  0  0  0  0  0  0  0  0  0  0  0
  194.7470  168.6510  134.9820 C   0  0  0  0  0  0  0  0  0  0  0  0
  196.1440  168.1620  135.1460 C   0  0  0  0  0  1  0  0  0  0  0  0
  193.9030  167.9210  134.3980 O   0  0  0  0  0  0  0  0  0  0  0  0
  1 17  1  0  0  0  0
  2 24  2  0  0  0  0
  3 15  1  0  0  0  0
  3 10  1  0  0  0  0
  5 10  1  0  0  0  0
  5 12  1  0  0  0  0
  6  1  2  0  0  0  0
  6 29  1  0  0  0  0
  7  9  1  0  0  0  0
  7 24  1  0  0  0  0
  8 23  1  0  0  0  0
 12 11  1  1  0  0  0
 15 36  1  1  0  0  0
 15 22  1  0  0  0  0
 16 18  1  0  0  0  0
 16 14  1  0  0  0  0
 17 14  1  0  0  0  0
 18  4  1  1  0  0  0
 18 47  1  0  0  0  0
 19 63  1  6  0  0  0
 19 25  1  0  0  0  0
 19 13  1  0  0  0  0
 20  6  1  0  0  0  0
 21 13  1  0  0  0  0
 21  1  1  0  0  0  0
 22  8  1  0  0  0  0
 23  9  1  0  0  0  0
 24 18  1  0  0  0  0
 25 12  1  0  0  0  0
 26 30  1  0  0  0  0
 27 29  1  0  0  0  0
 27 26  2  0  0  0  0
 28 31  1  0  0  0  0
 29 28  2  0  0  0  0
 30 31  2  0  0  0  0
 30 32  1  0  0  0  0
 32 33  1  0  0  0  0
 33 34  1  0  0  0  0
 35 33  2  0  0  0  0
 36 37  1  0  0  0  0
 38 37  1  1  0  0  0
 38 41  1  0  0  0  0
 39 43  1  6  0  0  0
 39 42  1  0  0  0  0
 41 40  1  1  0  0  0
 41 39  1  0  0  0  0
 41 42  1  0  0  0  0
 44 46  1  0  0  0  0
 45 46  1  0  0  0  0
 46 38  1  0  0  0  0
 47 48  1  0  0  0  0
 48 50  1  0  0  0  0
 49 51  2  0  0  0  0
 49 52  1  0  0  0  0
 50 49  1  0  0  0  0
 53 54  1  6  0  0  0
 53 52  1  0  0  0  0
 55 53  1  6  0  0  0
 55 60  1  0  0  0  0
 56 58  1  6  0  0  0
 56 59  2  0  0  0  0
 56 57  1  0  0  0  0
 56 55  1  0  0  0  0
 60 61  1  0  0  0  0
 60 62  1  1  0  0  0
 63 64  1  0  0  0  0
 66 64  1  0  0  0  0
 66 67  1  0  0  0  0
 67 65  2  0  0  0  0
 68 69  1  0  0  0  0
 68 67  1  0  0  0  0
 70 68  2  0  0  0  0
M  END
>  <MODEL>
2

>  <REMARK>
 VINA RESULT:      -3.7      3.681     10.904
  Name = 
  20 active torsions:
  status: ('A' for Active; 'I' for Inactive)
    1  A    between atoms: C_3  and  C_15
    2  A    between atoms: C_3  and  P_16
    3  A    between atoms: C_3  and  P_28
    4  A    between atoms: C_5  and  C_51
    5  A    between atoms: C_7  and  C_21
    6  A    between atoms: S_12  and  C_41
    7  A    between atoms: S_12  and  C_46
    8  A    between atoms: C_13  and  C_26
    9  A    between atoms: C_14  and  S_54
   10  A    between atoms: C_15  and  S_54
   11  A    between atoms: C_17  and  C_25
   12  A    between atoms: C_19  and  C_45
   13  A    between atoms: C_19  and  C_55
   14  A    between atoms: C_21  and  C_47
   15  A    between atoms: N_24  and  C_56
   16  A    between atoms: C_25  and  C_41
   17  A    between atoms: C_25  and  C_66
   18  A    between atoms: N_32  and  C_45
   19  A    between atoms: N_40  and  C_56
   20  A    between atoms: N_40  and  C_57
                            x       y       z     vdW  Elec       q    Type
                         _______ _______ _______ _____ _____    ______ ____

>  <TORSDO>
F 20

$$$$
=
 OpenBabel10232409323D

 70 72  0  0  1  0  0  0  0  0999 V2000
  185.0030  177.5340  137.4160 C   0  0  0  0  0  0  0  0  0  0  0  0
  188.7510  176.6240  141.7710 C   0  0  0  0  0  2  0  0  0  0  0  0
  192.3090  174.2340  136.1620 C   0  0  0  0  0  2  0  0  0  0  0  0
  188.4470  178.8600  138.9300 O   0  0  0  0  0  1  0  0  0  0  0  0
  191.0340  175.4200  134.3580 C   0  0  0  0  0  2  0  0  0  0  0  0
  183.7000  177.4330  137.0660 C   0  0  0  0  0  0  0  0  0  0  0  0
  190.1370  176.8860  139.7810 C   0  0  0  0  0  2  0  0  0  0  0  0
  192.7320  175.5810  138.9600 C   0  0  0  0  0  2  0  0  0  0  0  0
  191.4800  177.1630  140.4450 C   0  0  0  0  0  2  0  0  0  0  0  0
  192.3380  175.3610  135.1370 C   0  0  0  0  0  2  0  0  0  0  0  0
  190.1010  177.4390  135.4830 C   0  0  0  0  0  1  0  0  0  0  0  0
  189.8980  175.9590  135.2150 C   0  0  1  0  0  3  0  0  0  0  0  0
  186.8800  176.7160  136.0110 C   0  0  0  0  0  2  0  0  0  0  0  0
  185.5950  178.7760  139.4990 C   0  0  0  0  0  2  0  0  0  0  0  0
  193.5610  174.2210  137.0410 C   0  0  2  0  0  3  0  0  0  0  0  0
  186.6270  177.7990  140.0570 C   0  0  0  0  0  2  0  0  0  0  0  0
  185.5940  178.7940  137.9790 C   0  0  0  0  0  2  0  0  0  0  0  0
  188.0390  178.4010  140.1880 C   0  0  1  0  0  0  0  0  0  0  0  0
  187.4530  175.4330  135.4140 C   0  0  2  0  0  3  0  0  0  0  0  0
  183.2060  176.1820  136.3970 C   0  0  0  0  0  1  0  0  0  0  0  0
  185.9480  176.3970  137.1590 C   0  0  0  0  0  2  0  0  0  0  0  0
  193.7230  175.5210  137.8190 C   0  0  0  0  0  2  0  0  0  0  0  0
  192.5970  177.0180  139.4270 C   0  0  0  0  0  2  0  0  0  0  0  0
  188.9980  177.3230  140.6560 C   0  0  0  0  0  0  0  0  0  0  0  0
  188.5910  175.7570  134.4660 C   0  0  0  0  0  2  0  0  0  0  0  0
  181.9210  180.4050  138.5920 C   0  0  0  0  0  3  0  0  0  0  0  0
  182.8110  179.3480  138.3960 C   0  0  0  0  0  3  0  0  0  0  0  0
  181.7080  178.7920  136.3230 C   0  0  0  0  0  3  0  0  0  0  0  0
  182.7050  178.5190  137.2690 C   0  0  0  0  0  0  0  0  0  0  0  0
  180.9070  180.6490  137.6620 C   0  0  0  0  0  0  0  0  0  0  0  0
  180.8110  179.8470  136.5190 C   0  0  0  0  0  3  0  0  0  0  0  0
  179.9880  181.8100  137.8670 C   0  0  0  0  0  2  0  0  0  0  0  0
  180.4620  183.0180  137.1290 C   0  0  0  0  0  0  0  0  0  0  0  0
  181.2330  184.0140  137.7900 N   0  0  0  0  0  1  0  0  0  0  0  0
  180.2030  183.1390  135.9000 O   0  0  0  0  0  0  0  0  0  0  0  0
  195.0560  173.9040  136.0570 S   0  0  0  0  0  0  0  0  0  0  0  0
  195.6850  172.6990  137.2610 C   0  0  0  0  0  2  0  0  0  0  0  0
  196.2030  171.4440  136.5590 C   0  0  2  0  0  3  0  0  0  0  0  0
  194.5260  169.5210  136.0040 C   0  0  1  0  0  3  0  0  0  0  0  0
  195.7920  169.4050  138.2070 C   0  0  0  0  0  1  0  0  0  0  0  0
  195.3990  170.2090  136.9820 C   0  0  1  0  0  0  0  0  0  0  0  0
  194.0120  170.4400  136.9450 O   0  0  0  0  0  0  0  0  0  0  0  0
  194.5750  170.1340  134.7460 O   0  0  0  0  0  1  0  0  0  0  0  0
  198.1800  171.9580  137.8610 O   0  0  0  0  0  1  0  0  0  0  0  0
  198.4210  171.5520  135.6280 O   0  0  0  0  0  1  0  0  0  0  0  0
  197.7020  171.2170  136.7780 C   0  0  0  0  0  3  0  0  0  0  0  0
  188.0680  179.6090  141.1420 C   0  0  0  0  0  2  0  0  0  0  0  0
  186.7590  179.8540  141.8920 C   0  0  0  0  0  2  0  0  0  0  0  0
  185.5720  179.0440  143.9870 C   0  0  0  0  0  0  0  0  0  0  0  0
  186.6850  179.0240  143.0880 N   0  0  0  0  0  2  0  0  0  0  0  0
  184.6770  179.9230  143.8820 O   0  0  0  0  0  0  0  0  0  0  0  0
  185.4040  177.7500  145.2180 S   0  0  0  0  0  0  0  0  0  0  0  0
  186.9460  178.1070  146.1460 C   0  0  1  0  0  3  0  0  0  0  0  0
  186.6140  178.5180  147.5740 C   0  0  0  0  0  1  0  0  0  0  0  0
  187.9940  176.9780  146.0900 C   0  0  2  0  0  3  0  0  0  0  0  0
  188.9030  176.9020  147.6900 P   0  0  2  0  0  0  0  0  0  0  0  0
  187.8650  176.3160  148.8950 O   0  0  0  0  0  1  0  0  0  0  0  0
  189.4780  178.5520  148.1900 C   0  0  0  0  0  1  0  0  0  0  0  0
  190.0950  175.9790  147.5990 O   0  0  0  0  0  0  0  0  0  0  0  0
  189.1460  177.1660  144.6040 P   0  0  1  0  0  0  0  0  0  0  0  0
  189.4030  178.8830  144.6680 O   0  0  0  0  0  1  0  0  0  0  0  0
  190.7850  176.6350  145.3120 C   0  0  0  0  0  1  0  0  0  0  0  0
  186.4180  174.7230  134.6750 N   0  0  0  0  0  2  0  0  0  0  0  0
  186.4430  173.3410  135.1220 C   0  0  0  0  0  2  0  0  0  0  0  0
  185.6500  170.6380  135.4750 O   0  0  0  0  0  0  0  0  0  0  0  0
  185.0830  172.8990  135.3840 N   0  0  0  0  0  2  0  0  0  0  0  0
  184.7490  171.5180  135.5430 C   0  0  0  0  0  0  0  0  0  0  0  0
  183.3550  171.1260  135.7940 C   0  0  0  0  0  0  0  0  0  0  0  0
  182.7310  171.3080  137.1340 C   0  0  0  0  0  1  0  0  0  0  0  0
  182.6800  170.6090  134.8650 O   0  0  0  0  0  0  0  0  0  0  0  0
  1 17  1  0  0  0  0
  3 15  1  0  0  0  0
  5 10  1  0  0  0  0
  5 12  1  0  0  0  0
  6 29  1  0  0  0  0
  6  1  2  0  0  0  0
  7  9  1  0  0  0  0
  7 24  1  0  0  0  0
  8 23  1  0  0  0  0
 10  3  1  0  0  0  0
 12 11  1  6  0  0  0
 13 21  1  0  0  0  0
 14 16  1  0  0  0  0
 15 36  1  6  0  0  0
 15 22  1  0  0  0  0
 16 18  1  0  0  0  0
 17 14  1  0  0  0  0
 18  4  1  6  0  0  0
 18 24  1  0  0  0  0
 18 47  1  0  0  0  0
 19 63  1  6  0  0  0
 19 13  1  0  0  0  0
 20  6  1  0  0  0  0
 21  1  1  0  0  0  0
 22  8  1  0  0  0  0
 23  9  1  0  0  0  0
 24  2  2  0  0  0  0
 25 12  1  0  0  0  0
 25 19  1  0  0  0  0
 27 26  1  0  0  0  0
 28 31  2  0  0  0  0
 28 29  1  0  0  0  0
 29 27  2  0  0  0  0
 30 32  1  0  0  0  0
 30 26  2  0  0  0  0
 31 30  1  0  0  0  0
 33 34  1  0  0  0  0
 33 32  1  0  0  0  0
 35 33  2  0  0  0  0
 36 37  1  0  0  0  0
 38 46  1  0  0  0  0
 38 41  1  0  0  0  0
 38 37  1  1  0  0  0
 39 43  1  6  0  0  0
 39 42  1  0  0  0  0
 39 41  1  0  0  0  0
 41 40  1  1  0  0  0
 42 41  1  0  0  0  0
 45 46  1  0  0  0  0
 46 44  1  0  0  0  0
 47 48  1  0  0  0  0
 48 50  1  0  0  0  0
 49 52  1  0  0  0  0
 50 49  1  0  0  0  0
 51 49  2  0  0  0  0
 52 53  1  0  0  0  0
 53 54  1  1  0  0  0
 55 53  1  1  0  0  0
 55 56  1  0  0  0  0
 56 58  1  1  0  0  0
 56 57  1  0  0  0  0
 59 56  2  0  0  0  0
 60 61  1  0  0  0  0
 60 62  1  1  0  0  0
 60 55  1  0  0  0  0
 63 64  1  0  0  0  0
 64 66  1  0  0  0  0
 65 67  2  0  0  0  0
 66 67  1  0  0  0  0
 67 68  1  0  0  0  0
 68 69  1  0  0  0  0
 70 68  2  0  0  0  0
M  END
>  <MODEL>
3

>  <REMARK>
 VINA RESULT:      -3.3      1.200      1.933
  Name = 
  20 active torsions:
  status: ('A' for Active; 'I' for Inactive)
    1  A    between atoms: C_3  and  C_15
    2  A    between atoms: C_3  and  P_16
    3  A    between atoms: C_3  and  P_28
    4  A    between atoms: C_5  and  C_51
    5  A    between atoms: C_7  and  C_21
    6  A    between atoms: S_12  and  C_41
    7  A    between atoms: S_12  and  C_46
    8  A    between atoms: C_13  and  C_26
    9  A    between atoms: C_14  and  S_54
   10  A    between atoms: C_15  and  S_54
   11  A    between atoms: C_17  and  C_25
   12  A    between atoms: C_19  and  C_45
   13  A    between atoms: C_19  and  C_55
   14  A    between atoms: C_21  and  C_47
   15  A    between atoms: N_24  and  C_56
   16  A    between atoms: C_25  and  C_41
   17  A    between atoms: C_25  and  C_66
   18  A    between atoms: N_32  and  C_45
   19  A    between atoms: N_40  and  C_56
   20  A    between atoms: N_40  and  C_57
                            x       y       z     vdW  Elec       q    Type
                         _______ _______ _______ _____ _____    ______ ____

>  <TORSDO>
F 20

$$$$
=
 OpenBabel10232409323D

 70 72  0  0  1  0  0  0  0  0999 V2000
  191.2550  175.9200  137.1550 C   0  0  0  0  0  0  0  0  0  0  0  0
  189.0210  179.9600  140.6940 C   0  0  0  0  0  2  0  0  0  0  0  0
  183.2610  177.2060  137.6840 C   0  0  0  0  0  2  0  0  0  0  0  0
  189.1830  176.3390  140.5380 O   0  0  0  0  0  1  0  0  0  0  0  0
  184.2310  175.0280  136.9070 C   0  0  0  0  0  2  0  0  0  0  0  0
  192.2520  175.6810  136.2730 C   0  0  0  0  0  0  0  0  0  0  0  0
  187.2650  178.2860  140.4490 C   0  0  0  0  0  2  0  0  0  0  0  0
  184.2590  178.5350  140.3410 C   0  0  0  0  0  2  0  0  0  0  0  0
  186.3950  178.6580  141.6430 C   0  0  0  0  0  2  0  0  0  0  0  0
  183.3120  175.7010  137.9140 C   0  0  0  0  0  2  0  0  0  0  0  0
  186.1280  174.6040  138.4670 C   0  0  0  0  0  1  0  0  0  0  0  0
  185.6930  175.3250  137.2040 C   0  0  1  0  0  3  0  0  0  0  0  0
  188.8680  175.3920  136.7210 C   0  0  0  0  0  2  0  0  0  0  0  0
  191.8390  176.7650  139.4310 C   0  0  0  0  0  2  0  0  0  0  0  0
  182.4350  177.9260  138.7520 C   0  0  2  0  0  3  0  0  0  0  0  0
  190.7620  177.8390  139.5540 C   0  0  0  0  0  2  0  0  0  0  0  0
  191.3640  175.5760  138.6130 C   0  0  0  0  0  2  0  0  0  0  0  0
  189.7780  177.5940  140.7140 C   0  0  1  0  0  0  0  0  0  0  0  0
  187.7170  175.7530  135.7840 C   0  0  2  0  0  3  0  0  0  0  0  0
  192.0270  175.9400  134.8110 C   0  0  0  0  0  1  0  0  0  0  0  0
  189.9370  176.4610  136.6830 C   0  0  0  0  0  2  0  0  0  0  0  0
  183.0040  177.7130  140.1490 C   0  0  0  0  0  2  0  0  0  0  0  0
  185.0380  177.9870  141.5210 C   0  0  0  0  0  2  0  0  0  0  0  0
  188.6990  178.6610  140.6840 C   0  0  0  0  0  0  0  0  0  0  0  0
  186.5320  174.8410  136.0330 C   0  0  0  0  0  2  0  0  0  0  0  0
  196.0040  175.2310  136.4920 C   0  0  0  0  0  3  0  0  0  0  0  0
  194.7430  175.6960  136.1170 C   0  0  0  0  0  3  0  0  0  0  0  0
  193.7050  174.1080  137.6080 C   0  0  0  0  0  3  0  0  0  0  0  0
  193.5790  175.1290  136.6570 C   0  0  0  0  0  0  0  0  0  0  0  0
  196.1210  174.1880  137.4150 C   0  0  0  0  0  0  0  0  0  0  0  0
  194.9670  173.6360  137.9830 C   0  0  0  0  0  3  0  0  0  0  0  0
  197.4800  173.7310  137.8360 C   0  0  0  0  0  2  0  0  0  0  0  0
  198.2140  173.0880  136.7060 C   0  0  0  0  0  0  0  0  0  0  0  0
  197.5190  172.3020  135.7450 N   0  0  0  0  0  1  0  0  0  0  0  0
  199.4570  173.2700  136.5870 O   0  0  0  0  0  0  0  0  0  0  0  0
  180.6960  177.3980  138.7090 S   0  0  0  0  0  0  0  0  0  0  0  0
  180.1040  179.1070  138.5410 C   0  0  0  0  0  2  0  0  0  0  0  0
  180.8820  179.8510  137.4560 C   0  0  2  0  0  3  0  0  0  0  0  0
  181.8800  182.0430  138.4650 C   0  0  1  0  0  3  0  0  0  0  0  0
  179.9880  182.2560  136.7780 C   0  0  0  0  0  1  0  0  0  0  0  0
  180.8220  181.3670  137.6810 C   0  0  1  0  0  0  0  0  0  0  0  0
  180.6360  181.6950  139.0350 O   0  0  0  0  0  0  0  0  0  0  0  0
  182.8550  181.1400  138.9060 O   0  0  0  0  0  1  0  0  0  0  0  0
  179.9940  178.1650  135.9620 O   0  0  0  0  0  1  0  0  0  0  0  0
  181.4450  179.7120  135.1190 O   0  0  0  0  0  1  0  0  0  0  0  0
  180.4190  179.4930  136.0400 C   0  0  0  0  0  3  0  0  0  0  0  0
  190.4860  177.5730  142.0810 C   0  0  0  0  0  2  0  0  0  0  0  0
  190.8230  176.1740  142.5960 C   0  0  0  0  0  2  0  0  0  0  0  0
  191.0210  177.3760  144.8250 C   0  0  0  0  0  0  0  0  0  0  0  0
  191.2010  176.2180  144.0030 N   0  0  0  0  0  2  0  0  0  0  0  0
  190.6940  178.4800  144.3180 O   0  0  0  0  0  0  0  0  0  0  0  0
  191.1770  177.2290  146.6070 S   0  0  0  0  0  0  0  0  0  0  0  0
  189.4820  176.6130  146.9420 C   0  0  1  0  0  3  0  0  0  0  0  0
  189.4240  175.9590  148.3160 C   0  0  0  0  0  1  0  0  0  0  0  0
  188.3750  177.6680  146.7490 C   0  0  2  0  0  3  0  0  0  0  0  0
  187.9080  178.3780  148.3820 P   0  0  2  0  0  0  0  0  0  0  0  0
  189.3140  178.7750  149.2410 O   0  0  0  0  0  1  0  0  0  0  0  0
  186.9620  177.1770  149.3660 C   0  0  0  0  0  1  0  0  0  0  0  0
  187.0810  179.6310  148.2200 O   0  0  0  0  0  0  0  0  0  0  0  0
  186.8940  176.9650  145.8090 P   0  0  1  0  0  0  0  0  0  0  0  0
  185.9890  178.4300  145.5810 O   0  0  0  0  0  1  0  0  0  0  0  0
  187.5680  176.8090  144.0800 C   0  0  0  0  0  1  0  0  0  0  0  0
  188.1380  175.6030  134.3980 N   0  0  0  0  0  2  0  0  0  0  0  0
  189.0610  174.4820  134.3490 C   0  0  0  0  0  2  0  0  0  0  0  0
  190.0910  171.9720  135.1860 O   0  0  0  0  0  0  0  0  0  0  0  0
  188.3050  173.2400  134.3830 N   0  0  0  0  0  2  0  0  0  0  0  0
  188.8880  172.0060  134.8080 C   0  0  0  0  0  0  0  0  0  0  0  0
  188.0810  170.7780  134.8120 C   0  0  0  0  0  0  0  0  0  0  0  0
  186.7020  170.7610  135.3740 C   0  0  0  0  0  1  0  0  0  0  0  0
  188.5700  169.7140  134.3470 O   0  0  0  0  0  0  0  0  0  0  0  0
  1 17  1  0  0  0  0
  3 10  1  0  0  0  0
  3 15  1  0  0  0  0
  5 12  1  0  0  0  0
  5 10  1  0  0  0  0
  6 29  1  0  0  0  0
  6  1  2  0  0  0  0
  7 24  1  0  0  0  0
  7  9  1  0  0  0  0
  8 23  1  0  0  0  0
 12 11  1  1  0  0  0
 14 16  1  0  0  0  0
 15 36  1  1  0  0  0
 15 22  1  0  0  0  0
 16 18  1  0  0  0  0
 17 14  1  0  0  0  0
 18  4  1  6  0  0  0
 18 47  1  0  0  0  0
 19 63  1  6  0  0  0
 19 25  1  0  0  0  0
 19 13  1  0  0  0  0
 20  6  1  0  0  0  0
 21 13  1  0  0  0  0
 21  1  1  0  0  0  0
 22  8  1  0  0  0  0
 23  9  1  0  0  0  0
 24  2  2  0  0  0  0
 24 18  1  0  0  0  0
 25 12  1  0  0  0  0
 26 30  1  0  0  0  0
 27 26  2  0  0  0  0
 27 29  1  0  0  0  0
 28 31  1  0  0  0  0
 29 28  2  0  0  0  0
 30 32  1  0  0  0  0
 30 31  2  0  0  0  0
 33 32  1  0  0  0  0
 34 33  1  0  0  0  0
 35 33  2  0  0  0  0
 37 36  1  0  0  0  0
 38 41  1  0  0  0  0
 38 37  1  1  0  0  0
 39 43  1  1  0  0  0
 39 42  1  0  0  0  0
 41 40  1  6  0  0  0
 41 39  1  0  0  0  0
 41 42  1  0  0  0  0
 44 46  1  0  0  0  0
 45 46  1  0  0  0  0
 46 38  1  0  0  0  0
 47 48  1  0  0  0  0
 48 50  1  0  0  0  0
 49 52  1  0  0  0  0
 50 49  1  0  0  0  0
 51 49  2  0  0  0  0
 52 53  1  0  0  0  0
 53 54  1  1  0  0  0
 55 53  1  1  0  0  0
 55 56  1  0  0  0  0
 56 57  1  0  0  0  0
 56 58  1  1  0  0  0
 59 56  2  0  0  0  0
 60 62  1  6  0  0  0
 60 55  1  0  0  0  0
 61 60  1  0  0  0  0
 64 66  1  0  0  0  0
 64 63  1  0  0  0  0
 66 67  1  0  0  0  0
 67 68  1  0  0  0  0
 67 65  2  0  0  0  0
 68 69  1  0  0  0  0
 70 68  2  0  0  0  0
M  END
>  <MODEL>
4

>  <REMARK>
 VINA RESULT:      -1.5      2.938     10.749
  Name = 
  20 active torsions:
  status: ('A' for Active; 'I' for Inactive)
    1  A    between atoms: C_3  and  C_15
    2  A    between atoms: C_3  and  P_16
    3  A    between atoms: C_3  and  P_28
    4  A    between atoms: C_5  and  C_51
    5  A    between atoms: C_7  and  C_21
    6  A    between atoms: S_12  and  C_41
    7  A    between atoms: S_12  and  C_46
    8  A    between atoms: C_13  and  C_26
    9  A    between atoms: C_14  and  S_54
   10  A    between atoms: C_15  and  S_54
   11  A    between atoms: C_17  and  C_25
   12  A    between atoms: C_19  and  C_45
   13  A    between atoms: C_19  and  C_55
   14  A    between atoms: C_21  and  C_47
   15  A    between atoms: N_24  and  C_56
   16  A    between atoms: C_25  and  C_41
   17  A    between atoms: C_25  and  C_66
   18  A    between atoms: N_32  and  C_45
   19  A    between atoms: N_40  and  C_56
   20  A    between atoms: N_40  and  C_57
                            x       y       z     vdW  Elec       q    Type
                         _______ _______ _______ _____ _____    ______ ____

>  <TORSDO>
F 20

$$$$
=
 OpenBabel10232409323D

 70 72  0  0  1  0  0  0  0  0999 V2000
  193.0160  174.8340  137.4370 C   0  0  0  0  0  0  0  0  0  0  0  0
  189.0630  179.0930  137.1630 C   0  0  0  0  0  2  0  0  0  0  0  0
  185.5540  173.5740  134.5090 C   0  0  0  0  0  2  0  0  0  0  0  0
  189.6160  176.0830  139.1100 O   0  0  0  0  0  1  0  0  0  0  0  0
  186.9680  171.7260  135.4440 C   0  0  0  0  0  2  0  0  0  0  0  0
  194.3200  174.5480  137.2220 C   0  0  0  0  0  0  0  0  0  0  0  0
  187.7700  177.0330  137.3320 C   0  0  0  0  0  2  0  0  0  0  0  0
  185.1230  176.2240  136.1260 C   0  0  0  0  0  2  0  0  0  0  0  0
  186.4250  177.6140  137.7520 C   0  0  0  0  0  2  0  0  0  0  0  0
  185.6370  172.4540  135.5380 C   0  0  0  0  0  2  0  0  0  0  0  0
  187.9940  172.7080  137.4930 C   0  0  0  0  0  1  0  0  0  0  0  0
  188.1060  172.5790  135.9850 C   0  0  1  0  0  3  0  0  0  0  0  0
  191.1390  173.4300  136.6170 C   0  0  0  0  0  2  0  0  0  0  0  0
  192.4340  176.7750  138.8960 C   0  0  0  0  0  2  0  0  0  0  0  0
  184.2730  174.3980  134.6550 C   0  0  2  0  0  3  0  0  0  0  0  0
  191.3210  177.3720  138.0410 C   0  0  0  0  0  2  0  0  0  0  0  0
  192.4900  175.2600  138.7770 C   0  0  0  0  0  2  0  0  0  0  0  0
  189.9490  177.3920  138.7410 C   0  0  1  0  0  0  0  0  0  0  0  0
  190.5030  172.9240  135.3240 C   0  0  2  0  0  3  0  0  0  0  0  0
  194.7530  174.0120  135.8880 C   0  0  0  0  0  1  0  0  0  0  0  0
  192.0060  174.6390  136.3440 C   0  0  0  0  0  2  0  0  0  0  0  0
  184.1720  175.0520  136.0270 C   0  0  0  0  0  2  0  0  0  0  0  0
  185.3380  176.5680  137.5880 C   0  0  0  0  0  2  0  0  0  0  0  0
  188.9030  177.9130  137.7720 C   0  0  0  0  0  0  0  0  0  0  0  0
  189.4230  171.9060  135.6340 C   0  0  0  0  0  2  0  0  0  0  0  0
  197.7070  175.1380  138.8060 C   0  0  0  0  0  3  0  0  0  0  0  0
  196.7000  174.9480  137.8590 C   0  0  0  0  0  3  0  0  0  0  0  0
  195.0790  174.6710  139.6250 C   0  0  0  0  0  3  0  0  0  0  0  0
  195.3780  174.6960  138.2570 C   0  0  0  0  0  0  0  0  0  0  0  0
  197.4080  175.0760  140.1700 C   0  0  0  0  0  0  0  0  0  0  0  0
  196.0870  174.8560  140.5770 C   0  0  0  0  0  3  0  0  0  0  0  0
  198.4910  175.3230  141.1690 C   0  0  0  0  0  2  0  0  0  0  0  0
  198.1170  176.4090  142.1230 C   0  0  0  0  0  0  0  0  0  0  0  0
  197.3290  177.5120  141.6920 N   0  0  0  0  0  1  0  0  0  0  0  0
  198.4780  176.3300  143.3300 O   0  0  0  0  0  0  0  0  0  0  0  0
  182.7970  173.3840  134.3460 S   0  0  0  0  0  0  0  0  0  0  0  0
  183.2500  172.1940  135.6420 C   0  0  0  0  0  2  0  0  0  0  0  0
  182.5660  170.8470  135.4100 C   0  0  2  0  0  3  0  0  0  0  0  0
  180.1780  169.7890  135.4210 C   0  0  1  0  0  3  0  0  0  0  0  0
  180.5390  171.9390  136.7310 C   0  0  0  0  0  1  0  0  0  0  0  0
  181.0680  170.9330  135.7270 C   0  0  1  0  0  0  0  0  0  0  0  0
  180.2770  170.9070  134.5640 O   0  0  0  0  0  0  0  0  0  0  0  0
  180.8850  168.7190  134.8600 O   0  0  0  0  0  1  0  0  0  0  0  0
  184.5510  169.9970  136.5060 O   0  0  0  0  0  1  0  0  0  0  0  0
  183.1630  168.5150  135.4630 O   0  0  0  0  0  1  0  0  0  0  0  0
  183.2220  169.7050  136.1930 C   0  0  0  0  0  3  0  0  0  0  0  0
  189.9660  178.2350  140.0290 C   0  0  0  0  0  2  0  0  0  0  0  0
  188.6010  178.3990  140.6960 C   0  0  0  0  0  2  0  0  0  0  0  0
  189.1030  178.0510  143.1610 C   0  0  0  0  0  0  0  0  0  0  0  0
  188.7470  178.8920  142.0590 N   0  0  0  0  0  2  0  0  0  0  0  0
  189.1270  176.8000  143.0330 O   0  0  0  0  0  0  0  0  0  0  0  0
  189.6060  178.7930  144.7150 S   0  0  0  0  0  0  0  0  0  0  0  0
  190.3900  177.3040  145.4450 C   0  0  1  0  0  3  0  0  0  0  0  0
  191.6760  176.9700  144.6990 C   0  0  0  0  0  1  0  0  0  0  0  0
  190.6010  177.3810  146.9700 C   0  0  2  0  0  3  0  0  0  0  0  0
  191.6150  175.9480  147.5260 P   0  0  2  0  0  0  0  0  0  0  0  0
  190.5860  174.7060  148.0470 O   0  0  0  0  0  1  0  0  0  0  0  0
  192.6920  176.4130  148.9140 C   0  0  0  0  0  1  0  0  0  0  0  0
  192.4730  175.4150  146.4030 O   0  0  0  0  0  0  0  0  0  0  0  0
  188.9610  177.5180  147.8970 P   0  0  1  0  0  0  0  0  0  0  0  0
  189.0100  179.2070  148.3000 O   0  0  0  0  0  1  0  0  0  0  0  0
  187.7320  177.6230  146.5020 C   0  0  0  0  0  1  0  0  0  0  0  0
  191.5130  172.2930  134.4870 N   0  0  0  0  0  2  0  0  0  0  0  0
  191.8780  171.0400  135.1250 C   0  0  0  0  0  2  0  0  0  0  0  0
  194.1100  169.3890  134.5310 O   0  0  0  0  0  0  0  0  0  0  0  0
  193.1980  171.1750  135.7210 N   0  0  0  0  0  2  0  0  0  0  0  0
  194.2780  170.3020  135.3830 C   0  0  0  0  0  0  0  0  0  0  0  0
  195.5880  170.4770  136.0260 C   0  0  0  0  0  0  0  0  0  0  0  0
  196.8310  170.6230  135.2190 C   0  0  0  0  0  1  0  0  0  0  0  0
  195.6650  170.4840  137.2830 O   0  0  0  0  0  0  0  0  0  0  0  0
  1 17  1  0  0  0  0
  2 24  2  0  0  0  0
  3 15  1  0  0  0  0
  3 10  1  0  0  0  0
  5 10  1  0  0  0  0
  5 12  1  0  0  0  0
  6  1  2  0  0  0  0
  6 29  1  0  0  0  0
  7  9  1  0  0  0  0
  7 24  1  0  0  0  0
  8 23  1  0  0  0  0
 12 11  1  1  0  0  0
 15 36  1  1  0  0  0
 15 22  1  0  0  0  0
 16 18  1  0  0  0  0
 16 14  1  0  0  0  0
 17 14  1  0  0  0  0
 18  4  1  1  0  0  0
 18 47  1  0  0  0  0
 19 63  1  6  0  0  0
 19 25  1  0  0  0  0
 19 13  1  0  0  0  0
 20  6  1  0  0  0  0
 21 13  1  0  0  0  0
 21  1  1  0  0  0  0
 22  8  1  0  0  0  0
 23  9  1  0  0  0  0
 24 18  1  0  0  0  0
 25 12  1  0  0  0  0
 26 30  1  0  0  0  0
 27 29  1  0  0  0  0
 27 26  2  0  0  0  0
 28 31  1  0  0  0  0
 29 28  2  0  0  0  0
 30 31  2  0  0  0  0
 30 32  1  0  0  0  0
 32 33  1  0  0  0  0
 33 35  2  0  0  0  0
 34 33  1  0  0  0  0
 36 37  1  0  0  0  0
 38 37  1  1  0  0  0
 38 41  1  0  0  0  0
 38 46  1  0  0  0  0
 39 43  1  6  0  0  0
 39 41  1  0  0  0  0
 41 40  1  1  0  0  0
 42 39  1  0  0  0  0
 42 41  1  0  0  0  0
 45 46  1  0  0  0  0
 46 44  1  0  0  0  0
 47 48  1  0  0  0  0
 48 50  1  0  0  0  0
 49 52  1  0  0  0  0
 50 49  1  0  0  0  0
 51 49  2  0  0  0  0
 52 53  1  0  0  0  0
 53 54  1  6  0  0  0
 55 53  1  6  0  0  0
 55 56  1  0  0  0  0
 55 60  1  0  0  0  0
 56 57  1  0  0  0  0
 56 58  1  1  0  0  0
 59 56  2  0  0  0  0
 60 62  1  6  0  0  0
 60 61  1  0  0  0  0
 63 64  1  0  0  0  0
 64 66  1  0  0  0  0
 65 67  2  0  0  0  0
 67 66  1  0  0  0  0
 67 68  1  0  0  0  0
 68 70  2  0  0  0  0
 69 68  1  0  0  0  0
M  END
>  <MODEL>
5

>  <REMARK>
 VINA RESULT:      -1.5      3.547     10.525
  Name = 
  20 active torsions:
  status: ('A' for Active; 'I' for Inactive)
    1  A    between atoms: C_3  and  C_15
    2  A    between atoms: C_3  and  P_16
    3  A    between atoms: C_3  and  P_28
    4  A    between atoms: C_5  and  C_51
    5  A    between atoms: C_7  and  C_21
    6  A    between atoms: S_12  and  C_41
    7  A    between atoms: S_12  and  C_46
    8  A    between atoms: C_13  and  C_26
    9  A    between atoms: C_14  and  S_54
   10  A    between atoms: C_15  and  S_54
   11  A    between atoms: C_17  and  C_25
   12  A    between atoms: C_19  and  C_45
   13  A    between atoms: C_19  and  C_55
   14  A    between atoms: C_21  and  C_47
   15  A    between atoms: N_24  and  C_56
   16  A    between atoms: C_25  and  C_41
   17  A    between atoms: C_25  and  C_66
   18  A    between atoms: N_32  and  C_45
   19  A    between atoms: N_40  and  C_56
   20  A    between atoms: N_40  and  C_57
                            x       y       z     vdW  Elec       q    Type
                         _______ _______ _______ _____ _____    ______ ____

>  <TORSDO>
F 20

$$$$
=
 OpenBabel10232409323D

 70 72  0  0  1  0  0  0  0  0999 V2000
  185.2070  176.0450  137.7460 C   0  0  0  0  0  0  0  0  0  0  0  0
  190.1480  176.6620  140.7540 C   0  0  0  0  0  2  0  0  0  0  0  0
  191.8380  171.6940  136.0330 C   0  0  0  0  0  2  0  0  0  0  0  0
  188.9180  177.4780  137.4400 O   0  0  0  0  0  1  0  0  0  0  0  0
  190.0340  172.1300  134.3460 C   0  0  0  0  0  2  0  0  0  0  0  0
  183.8630  175.9580  137.8720 C   0  0  0  0  0  0  0  0  0  0  0  0
  190.8370  175.8780  138.5500 C   0  0  0  0  0  2  0  0  0  0  0  0
  193.0790  174.0530  137.6820 C   0  0  0  0  0  2  0  0  0  0  0  0
  192.3130  176.2540  138.5990 C   0  0  0  0  0  2  0  0  0  0  0  0
  191.5180  172.2580  134.6550 C   0  0  0  0  0  2  0  0  0  0  0  0
  189.4490  174.5300  134.6720 C   0  0  0  0  0  1  0  0  0  0  0  0
  189.2100  173.1140  135.1620 C   0  0  1  0  0  3  0  0  0  0  0  0
  186.5720  174.4890  136.3750 C   0  0  0  0  0  2  0  0  0  0  0  0
  186.3890  177.9830  138.7870 C   0  0  0  0  0  2  0  0  0  0  0  0
  193.3020  171.9130  136.4200 C   0  0  2  0  0  3  0  0  0  0  0  0
  187.5670  177.2270  139.3950 C   0  0  0  0  0  2  0  0  0  0  0  0
  185.9130  177.3460  137.4920 C   0  0  0  0  0  2  0  0  0  0  0  0
  188.9330  177.6560  138.8290 C   0  0  1  0  0  0  0  0  0  0  0  0
  186.9620  173.0160  136.2740 C   0  0  2  0  0  3  0  0  0  0  0  0
  183.2170  174.6090  138.0050 C   0  0  0  0  0  1  0  0  0  0  0  0
  186.0530  174.8060  137.7600 C   0  0  0  0  0  2  0  0  0  0  0  0
  193.6650  173.3920  136.4550 C   0  0  0  0  0  2  0  0  0  0  0  0
  193.0600  175.5550  137.4780 C   0  0  0  0  0  2  0  0  0  0  0  0
  190.0180  176.7790  139.4270 C   0  0  0  0  0  0  0  0  0  0  0  0
  187.7400  172.7650  134.9970 C   0  0  0  0  0  2  0  0  0  0  0  0
  181.5370  178.6470  136.5760 C   0  0  0  0  0  3  0  0  0  0  0  0
  182.4280  177.5760  136.6250 C   0  0  0  0  0  3  0  0  0  0  0  0
  182.5410  177.7700  139.0280 C   0  0  0  0  0  3  0  0  0  0  0  0
  182.9540  177.1350  137.8500 C   0  0  0  0  0  0  0  0  0  0  0  0
  181.1580  179.2990  137.7530 C   0  0  0  0  0  0  0  0  0  0  0  0
  181.6520  178.8480  138.9810 C   0  0  0  0  0  3  0  0  0  0  0  0
  180.1710  180.4190  137.6840 C   0  0  0  0  0  2  0  0  0  0  0  0
  180.8470  181.7300  137.4490 C   0  0  0  0  0  0  0  0  0  0  0  0
  181.4840  182.4180  138.5190 N   0  0  0  0  0  1  0  0  0  0  0  0
  180.8800  182.2140  136.2840 O   0  0  0  0  0  0  0  0  0  0  0  0
  194.4220  171.0300  135.2940 S   0  0  0  0  0  0  0  0  0  0  0  0
  195.2100  170.1300  136.6610 C   0  0  0  0  0  2  0  0  0  0  0  0
  196.4710  170.8520  137.1360 C   0  0  2  0  0  3  0  0  0  0  0  0
  198.1560  172.6780  136.3350 C   0  0  1  0  0  3  0  0  0  0  0  0
  196.7160  171.5280  134.5820 C   0  0  0  0  0  1  0  0  0  0  0  0
  197.0090  171.7880  136.0480 C   0  0  1  0  0  0  0  0  0  0  0  0
  196.8230  173.1430  136.3740 O   0  0  0  0  0  0  0  0  0  0  0  0
  198.6230  172.5150  137.6450 O   0  0  0  0  0  1  0  0  0  0  0  0
  197.5550  168.7020  136.8770 O   0  0  0  0  0  1  0  0  0  0  0  0
  197.4020  169.5990  138.9700 O   0  0  0  0  0  1  0  0  0  0  0  0
  197.5630  169.8890  137.6130 C   0  0  0  0  0  3  0  0  0  0  0  0
  189.2290  179.1440  139.0920 C   0  0  0  0  0  2  0  0  0  0  0  0
  188.4390  179.7500  140.2510 C   0  0  0  0  0  2  0  0  0  0  0  0
  188.7870  178.5320  142.4530 C   0  0  0  0  0  0  0  0  0  0  0  0
  189.1400  179.5520  141.5140 N   0  0  0  0  0  2  0  0  0  0  0  0
  187.7270  177.8690  142.3140 O   0  0  0  0  0  0  0  0  0  0  0  0
  189.9120  178.1350  143.7930 S   0  0  0  0  0  0  0  0  0  0  0  0
  188.6610  178.0380  145.1310 C   0  0  1  0  0  3  0  0  0  0  0  0
  187.7220  176.8640  144.8860 C   0  0  0  0  0  1  0  0  0  0  0  0
  189.2540  178.0270  146.5530 C   0  0  2  0  0  3  0  0  0  0  0  0
  190.5620  176.7360  146.6660 P   0  0  2  0  0  0  0  0  0  0  0  0
  191.7420  177.2330  147.7770 O   0  0  0  0  0  1  0  0  0  0  0  0
  191.3680  176.4860  145.0560 C   0  0  0  0  0  1  0  0  0  0  0  0
  189.9930  175.4180  147.1350 O   0  0  0  0  0  0  0  0  0  0  0  0
  187.9120  177.8230  147.8690 P   0  0  1  0  0  0  0  0  0  0  0  0
  188.7990  178.3740  149.2570 O   0  0  0  0  0  1  0  0  0  0  0  0
  186.8740  179.3460  147.6060 C   0  0  0  0  0  1  0  0  0  0  0  0
  185.7670  172.1850  136.2640 N   0  0  0  0  0  2  0  0  0  0  0  0
  185.2240  172.2300  134.9170 C   0  0  0  0  0  2  0  0  0  0  0  0
  183.0250  170.8790  136.0990 O   0  0  0  0  0  0  0  0  0  0  0  0
  183.8630  172.7380  134.9670 N   0  0  0  0  0  2  0  0  0  0  0  0
  182.7980  172.0010  135.5710 C   0  0  0  0  0  0  0  0  0  0  0  0
  181.4380  172.5580  135.5830 C   0  0  0  0  0  0  0  0  0  0  0  0
  181.0340  173.6330  134.6340 C   0  0  0  0  0  1  0  0  0  0  0  0
  180.6020  172.1320  136.4230 O   0  0  0  0  0  0  0  0  0  0  0  0
  1 21  1  0  0  0  0
  1  6  2  0  0  0  0
  3 15  1  0  0  0  0
  5 10  1  0  0  0  0
  5 12  1  0  0  0  0
  6 20  1  0  0  0  0
  7  9  1  0  0  0  0
  7 24  1  0  0  0  0
 10  3  1  0  0  0  0
 12 11  1  6  0  0  0
 13 21  1  0  0  0  0
 14 16  1  0  0  0  0
 15 36  1  6  0  0  0
 15 22  1  0  0  0  0
 17  1  1  0  0  0  0
 17 14  1  0  0  0  0
 18  4  1  6  0  0  0
 18 47  1  0  0  0  0
 18 16  1  0  0  0  0
 18 24  1  0  0  0  0
 19 63  1  6  0  0  0
 19 13  1  0  0  0  0
 22  8  1  0  0  0  0
 23  8  1  0  0  0  0
 23  9  1  0  0  0  0
 24  2  2  0  0  0  0
 25 12  1  0  0  0  0
 25 19  1  0  0  0  0
 26 27  2  0  0  0  0
 26 30  1  0  0  0  0
 27 29  1  0  0  0  0
 29  6  1  0  0  0  0
 29 28  2  0  0  0  0
 30 31  2  0  0  0  0
 31 28  1  0  0  0  0
 32 30  1  0  0  0  0
 33 32  1  0  0  0  0
 33 34  1  0  0  0  0
 35 33  2  0  0  0  0
 36 37  1  0  0  0  0
 38 37  1  6  0  0  0
 38 46  1  0  0  0  0
 39 42  1  0  0  0  0
 39 43  1  1  0  0  0
 41 40  1  6  0  0  0
 41 39  1  0  0  0  0
 41 42  1  0  0  0  0
 41 38  1  0  0  0  0
 44 46  1  0  0  0  0
 46 45  1  0  0  0  0
 47 48  1  0  0  0  0
 48 50  1  0  0  0  0
 49 52  1  0  0  0  0
 50 49  1  0  0  0  0
 51 49  2  0  0  0  0
 52 53  1  0  0  0  0
 53 54  1  6  0  0  0
 55 53  1  6  0  0  0
 55 56  1  0  0  0  0
 55 60  1  0  0  0  0
 56 58  1  6  0  0  0
 56 59  2  0  0  0  0
 56 57  1  0  0  0  0
 60 62  1  6  0  0  0
 60 61  1  0  0  0  0
 64 66  1  0  0  0  0
 64 63  1  0  0  0  0
 66 67  1  0  0  0  0
 67 68  1  0  0  0  0
 67 65  2  0  0  0  0
 68 70  2  0  0  0  0
 69 68  1  0  0  0  0
M  END
>  <MODEL>
6

>  <REMARK>
 VINA RESULT:      -1.2      1.671      2.578
  Name = 
  20 active torsions:
  status: ('A' for Active; 'I' for Inactive)
    1  A    between atoms: C_3  and  C_15
    2  A    between atoms: C_3  and  P_16
    3  A    between atoms: C_3  and  P_28
    4  A    between atoms: C_5  and  C_51
    5  A    between atoms: C_7  and  C_21
    6  A    between atoms: S_12  and  C_41
    7  A    between atoms: S_12  and  C_46
    8  A    between atoms: C_13  and  C_26
    9  A    between atoms: C_14  and  S_54
   10  A    between atoms: C_15  and  S_54
   11  A    between atoms: C_17  and  C_25
   12  A    between atoms: C_19  and  C_45
   13  A    between atoms: C_19  and  C_55
   14  A    between atoms: C_21  and  C_47
   15  A    between atoms: N_24  and  C_56
   16  A    between atoms: C_25  and  C_41
   17  A    between atoms: C_25  and  C_66
   18  A    between atoms: N_32  and  C_45
   19  A    between atoms: N_40  and  C_56
   20  A    between atoms: N_40  and  C_57
                            x       y       z     vdW  Elec       q    Type
                         _______ _______ _______ _____ _____    ______ ____

>  <TORSDO>
F 20

$$$$
