=
 OpenBabel10222421453D

 31 31  0  0  1  0  0  0  0  0999 V2000
  190.3160  177.0040  145.9490 C   0  0  1  0  0  3  0  0  0  0  0  0
  191.2940  176.7560  147.0580 C   0  0  0  0  0  3  0  0  0  0  0  0
  192.1220  175.7150  147.0160 C   0  0  0  0  0  2  0  0  0  0  0  0
  188.9140  177.3420  146.4800 C   0  0  2  0  0  3  0  0  0  0  0  0
  188.0510  178.0590  145.4440 C   0  0  2  0  0  3  0  0  0  0  0  0
  186.6590  177.5610  145.5090 C   0  0  2  0  0  3  0  0  0  0  0  0
  187.5570  177.1220  144.5180 O   0  0  0  0  0  0  0  0  0  0  0  0
  185.7170  178.5900  144.9160 C   0  0  2  0  0  3  0  0  0  0  0  0
  184.4950  178.7260  145.8060 C   0  0  0  0  0  1  0  0  0  0  0  0
  185.2960  178.1580  143.5220 C   0  0  0  0  0  2  0  0  0  0  0  0
  184.7410  179.2380  142.8350 O   0  0  0  0  0  0  0  0  0  0  0  0
  183.6300  178.7060  142.1810 C   0  0  0  0  0  2  0  0  0  0  0  0
  184.0900  177.8460  141.0230 C   0  0  0  0  0  2  0  0  0  0  0  0
  183.3950  179.5270  139.3480 C   0  0  0  0  0  1  0  0  0  0  0  0
  184.5640  178.7340  139.8920 C   0  0  0  0  0  2  0  0  0  0  0  0
  188.1470  177.5210  148.5500 C   0  0  0  0  0  1  0  0  0  0  0  0
  189.0150  178.1210  147.6360 O   0  0  0  0  0  0  0  0  0  0  0  0
  190.8340  178.0820  144.9990 C   0  0  0  0  0  2  0  0  0  0  0  0
  191.4990  177.4720  143.7700 C   0  0  0  0  0  2  0  0  0  0  0  0
  190.9290  176.0950  143.4540 C   0  0  0  0  0  2  0  0  0  0  0  0
  190.0380  176.1250  142.2220 C   0  0  0  0  0  2  0  0  0  0  0  0
  190.0680  177.5010  141.5760 C   0  0  0  0  0  2  0  0  0  0  0  0
  190.5160  176.0570  139.7360 O   0  0  0  0  0  1  0  0  0  0  0  0
  190.2150  177.3780  140.0680 C   0  0  1  0  0  3  0  0  0  0  0  0
  188.5990  177.1900  138.1260 N   0  0  0  0  0  2  0  0  0  0  0  0
  188.9650  177.8020  139.3680 C   0  0  0  0  0  0  0  0  0  0  0  0
  188.1870  178.6680  139.9300 N   0  0  0  0  0  2  0  0  0  0  0  0
  187.3970  177.5610  137.3930 C   0  0  0  0  0  2  0  0  0  0  0  0
  186.8600  176.3760  136.6050 C   0  0  0  0  0  2  0  0  0  0  0  0
  184.6050  177.1600  136.6990 O   0  0  0  0  0  1  0  0  0  0  0  0
  185.4200  176.0620  136.9780 C   0  0  0  0  0  2  0  0  0  0  0  0
  1 18  1  1  0  0  0
  1  4  1  0  0  0  0
  1  2  1  0  0  0  0
  3  2  2  0  0  0  0
  4 17  1  1  0  0  0
  5  6  1  0  0  0  0
  5  4  1  1  0  0  0
  6  8  1  6  0  0  0
  7  5  1  0  0  0  0
  7  6  1  0  0  0  0
  8  9  1  1  0  0  0
 10  8  1  0  0  0  0
 11 10  1  0  0  0  0
 12 11  1  0  0  0  0
 13 12  1  0  0  0  0
 14 15  1  0  0  0  0
 15 13  1  0  0  0  0
 17 16  1  0  0  0  0
 19 18  1  0  0  0  0
 20 19  1  0  0  0  0
 21 20  1  0  0  0  0
 22 21  1  0  0  0  0
 24 23  1  1  0  0  0
 24 22  1  0  0  0  0
 25 26  1  0  0  0  0
 26 27  2  0  0  0  0
 26 24  1  0  0  0  0
 28 25  1  0  0  0  0
 29 31  1  0  0  0  0
 29 28  1  0  0  0  0
 30 31  1  0  0  0  0
M  END
>  <MODEL>
1

>  <REMARK>
 VINA RESULT:      -6.0      0.000      0.000
  Name = 
  20 active torsions:
  status: ('A' for Active; 'I' for Inactive)
    1  A    between atoms: C_2  and  C_7
    2  A    between atoms: C_2  and  C_19
    3  A    between atoms: N_3  and  C_8
    4  A    between atoms: C_5  and  C_13
    5  A    between atoms: C_5  and  C_31
    6  A    between atoms: C_6  and  C_8
    7  A    between atoms: C_6  and  C_28
    8  A    between atoms: C_7  and  C_23
    9  A    between atoms: C_10  and  C_16
   10  A    between atoms: C_11  and  C_14
   11  A    between atoms: C_11  and  O_29
   12  A    between atoms: C_12  and  C_22
   13  A    between atoms: C_12  and  C_27
   14  A    between atoms: C_13  and  O_29
   15  A    between atoms: C_14  and  C_17
   16  A    between atoms: C_15  and  C_19
   17  A    between atoms: C_16  and  O_20
   18  A    between atoms: C_16  and  C_27
   19  A    between atoms: C_22  and  C_23
   20  A    between atoms: C_24  and  C_27
                            x       y       z     vdW  Elec       q    Type
                         _______ _______ _______ _____ _____    ______ ____

>  <TORSDO>
F 20

$$$$
=
 OpenBabel10222421453D

 31 31  0  0  1  0  0  0  0  0999 V2000
  191.0630  176.5170  143.5900 C   0  0  1  0  0  3  0  0  0  0  0  0
  191.7960  175.2550  143.9340 C   0  0  0  0  0  3  0  0  0  0  0  0
  192.1230  174.9780  145.1940 C   0  0  0  0  0  2  0  0  0  0  0  0
  191.1440  177.5570  144.7180 C   0  0  2  0  0  3  0  0  0  0  0  0
  189.7690  178.0540  145.1580 C   0  0  2  0  0  3  0  0  0  0  0  0
  189.3380  177.3400  146.3800 C   0  0  2  0  0  3  0  0  0  0  0  0
  188.8500  176.9900  145.1070 O   0  0  0  0  0  0  0  0  0  0  0  0
  188.2940  178.1600  147.1130 C   0  0  2  0  0  3  0  0  0  0  0  0
  188.4910  178.0050  148.6100 C   0  0  0  0  0  1  0  0  0  0  0  0
  186.9030  177.6890  146.7230 C   0  0  0  0  0  2  0  0  0  0  0  0
  186.2050  178.7240  146.1030 O   0  0  0  0  0  0  0  0  0  0  0  0
  184.8710  178.5030  146.4430 C   0  0  0  0  0  2  0  0  0  0  0  0
  183.9890  178.7900  145.2470 C   0  0  0  0  0  2  0  0  0  0  0  0
  184.7400  178.3610  142.9310 C   0  0  0  0  0  1  0  0  0  0  0  0
  184.8390  179.3090  144.1060 C   0  0  0  0  0  2  0  0  0  0  0  0
  191.0380  179.6960  144.1540 C   0  0  0  0  0  1  0  0  0  0  0  0
  191.9350  178.6380  144.3160 O   0  0  0  0  0  0  0  0  0  0  0  0
  191.5560  177.0870  142.2610 C   0  0  0  0  0  2  0  0  0  0  0  0
  190.5350  176.8750  141.1490 C   0  0  0  0  0  2  0  0  0  0  0  0
  189.1090  176.9430  141.6810 C   0  0  0  0  0  2  0  0  0  0  0  0
  188.3670  178.1580  141.1480 C   0  0  0  0  0  2  0  0  0  0  0  0
  188.8470  178.5020  139.7460 C   0  0  0  0  0  2  0  0  0  0  0  0
  187.4090  178.7940  137.8710 O   0  0  0  0  0  1  0  0  0  0  0  0
  187.9720  177.8260  138.7030 C   0  0  1  0  0  3  0  0  0  0  0  0
  190.1540  177.0810  137.6530 N   0  0  0  0  0  2  0  0  0  0  0  0
  188.7590  176.8550  137.8860 C   0  0  0  0  0  0  0  0  0  0  0  0
  188.1870  175.7780  137.4570 N   0  0  0  0  0  2  0  0  0  0  0  0
  190.9740  176.1750  136.8620 C   0  0  0  0  0  2  0  0  0  0  0  0
  191.9280  175.3950  137.7550 C   0  0  0  0  0  2  0  0  0  0  0  0
  193.4470  176.8550  138.8810 O   0  0  0  0  0  1  0  0  0  0  0  0
  193.3140  176.0180  137.7730 C   0  0  0  0  0  2  0  0  0  0  0  0
  1 18  1  6  0  0  0
  1  2  1  0  0  0  0
  1  4  1  0  0  0  0
  2  3  2  0  0  0  0
  4 17  1  6  0  0  0
  5  4  1  6  0  0  0
  5  6  1  0  0  0  0
  6  8  1  1  0  0  0
  7  5  1  0  0  0  0
  7  6  1  0  0  0  0
  8  9  1  1  0  0  0
 10  8  1  0  0  0  0
 11 12  1  0  0  0  0
 11 10  1  0  0  0  0
 13 12  1  0  0  0  0
 14 15  1  0  0  0  0
 15 13  1  0  0  0  0
 16 17  1  0  0  0  0
 19 20  1  0  0  0  0
 19 18  1  0  0  0  0
 21 20  1  0  0  0  0
 22 21  1  0  0  0  0
 24 23  1  6  0  0  0
 24 22  1  0  0  0  0
 25 26  1  0  0  0  0
 26 24  1  0  0  0  0
 27 26  2  0  0  0  0
 28 25  1  0  0  0  0
 28 29  1  0  0  0  0
 29 31  1  0  0  0  0
 31 30  1  0  0  0  0
M  END
>  <MODEL>
2

>  <REMARK>
 VINA RESULT:      -6.0      2.088      4.040
  Name = 
  20 active torsions:
  status: ('A' for Active; 'I' for Inactive)
    1  A    between atoms: C_2  and  C_7
    2  A    between atoms: C_2  and  C_19
    3  A    between atoms: N_3  and  C_8
    4  A    between atoms: C_5  and  C_13
    5  A    between atoms: C_5  and  C_31
    6  A    between atoms: C_6  and  C_8
    7  A    between atoms: C_6  and  C_28
    8  A    between atoms: C_7  and  C_23
    9  A    between atoms: C_10  and  C_16
   10  A    between atoms: C_11  and  C_14
   11  A    between atoms: C_11  and  O_29
   12  A    between atoms: C_12  and  C_22
   13  A    between atoms: C_12  and  C_27
   14  A    between atoms: C_13  and  O_29
   15  A    between atoms: C_14  and  C_17
   16  A    between atoms: C_15  and  C_19
   17  A    between atoms: C_16  and  O_20
   18  A    between atoms: C_16  and  C_27
   19  A    between atoms: C_22  and  C_23
   20  A    between atoms: C_24  and  C_27
                            x       y       z     vdW  Elec       q    Type
                         _______ _______ _______ _____ _____    ______ ____

>  <TORSDO>
F 20

$$$$
=
 OpenBabel10222421453D

 31 31  0  0  1  0  0  0  0  0999 V2000
  189.9780  177.2890  144.1040 C   0  0  1  0  0  3  0  0  0  0  0  0
  190.4710  178.6870  143.8740 C   0  0  0  0  0  3  0  0  0  0  0  0
  191.7560  178.9930  144.0420 C   0  0  0  0  0  2  0  0  0  0  0  0
  189.0650  177.1960  145.3360 C   0  0  2  0  0  3  0  0  0  0  0  0
  187.7520  177.9550  145.1520 C   0  0  2  0  0  3  0  0  0  0  0  0
  186.8770  177.7480  146.3270 C   0  0  2  0  0  3  0  0  0  0  0  0
  186.6830  177.0410  145.1250 O   0  0  0  0  0  0  0  0  0  0  0  0
  185.8650  178.8740  146.4190 C   0  0  2  0  0  3  0  0  0  0  0  0
  186.0310  179.5930  147.7440 C   0  0  0  0  0  1  0  0  0  0  0  0
  184.4580  178.3110  146.3080 C   0  0  0  0  0  2  0  0  0  0  0  0
  183.6250  179.2300  145.6700 O   0  0  0  0  0  0  0  0  0  0  0  0
  183.4170  178.6930  144.4000 C   0  0  0  0  0  2  0  0  0  0  0  0
  184.3880  179.3180  143.4220 C   0  0  0  0  0  2  0  0  0  0  0  0
  186.2650  178.6610  141.9530 C   0  0  0  0  0  1  0  0  0  0  0  0
  184.9030  178.2560  142.4730 C   0  0  0  0  0  2  0  0  0  0  0  0
  190.5230  176.6000  146.8930 C   0  0  0  0  0  1  0  0  0  0  0  0
  189.7350  177.6710  146.4670 O   0  0  0  0  0  0  0  0  0  0  0  0
  189.2960  176.7410  142.8530 C   0  0  0  0  0  2  0  0  0  0  0  0
  190.3150  176.3110  141.8030 C   0  0  0  0  0  2  0  0  0  0  0  0
  190.4280  177.3380  140.6830 C   0  0  0  0  0  2  0  0  0  0  0  0
  189.3300  177.1620  139.6460 C   0  0  0  0  0  2  0  0  0  0  0  0
  188.9900  178.4950  138.9990 C   0  0  0  0  0  2  0  0  0  0  0  0
  189.1980  177.2330  136.9910 O   0  0  0  0  0  1  0  0  0  0  0  0
  188.4970  178.2870  137.5770 C   0  0  1  0  0  3  0  0  0  0  0  0
  186.1520  178.6690  138.4550 N   0  0  0  0  0  2  0  0  0  0  0  0
  187.0320  177.9940  137.5510 C   0  0  0  0  0  0  0  0  0  0  0  0
  186.5640  177.1840  136.6570 N   0  0  0  0  0  2  0  0  0  0  0  0
  184.7160  178.4240  138.4830 C   0  0  0  0  0  2  0  0  0  0  0  0
  183.9850  179.5890  139.1320 C   0  0  0  0  0  2  0  0  0  0  0  0
  181.9850  179.0330  140.3160 O   0  0  0  0  0  1  0  0  0  0  0  0
  182.4760  179.4100  139.0650 C   0  0  0  0  0  2  0  0  0  0  0  0
  1 18  1  6  0  0  0
  1  4  1  0  0  0  0
  2  3  2  0  0  0  0
  2  1  1  0  0  0  0
  4 17  1  1  0  0  0
  5  4  1  1  0  0  0
  5  6  1  0  0  0  0
  6  8  1  6  0  0  0
  7  5  1  0  0  0  0
  7  6  1  0  0  0  0
  8  9  1  1  0  0  0
 10  8  1  0  0  0  0
 11 10  1  0  0  0  0
 12 11  1  0  0  0  0
 13 12  1  0  0  0  0
 14 15  1  0  0  0  0
 15 13  1  0  0  0  0
 17 16  1  0  0  0  0
 19 18  1  0  0  0  0
 20 19  1  0  0  0  0
 21 20  1  0  0  0  0
 22 21  1  0  0  0  0
 24 23  1  1  0  0  0
 24 22  1  0  0  0  0
 25 28  1  0  0  0  0
 26 24  1  0  0  0  0
 26 25  1  0  0  0  0
 27 26  2  0  0  0  0
 28 29  1  0  0  0  0
 31 29  1  0  0  0  0
 31 30  1  0  0  0  0
M  END
>  <MODEL>
3

>  <REMARK>
 VINA RESULT:      -5.9      1.811      3.062
  Name = 
  20 active torsions:
  status: ('A' for Active; 'I' for Inactive)
    1  A    between atoms: C_2  and  C_7
    2  A    between atoms: C_2  and  C_19
    3  A    between atoms: N_3  and  C_8
    4  A    between atoms: C_5  and  C_13
    5  A    between atoms: C_5  and  C_31
    6  A    between atoms: C_6  and  C_8
    7  A    between atoms: C_6  and  C_28
    8  A    between atoms: C_7  and  C_23
    9  A    between atoms: C_10  and  C_16
   10  A    between atoms: C_11  and  C_14
   11  A    between atoms: C_11  and  O_29
   12  A    between atoms: C_12  and  C_22
   13  A    between atoms: C_12  and  C_27
   14  A    between atoms: C_13  and  O_29
   15  A    between atoms: C_14  and  C_17
   16  A    between atoms: C_15  and  C_19
   17  A    between atoms: C_16  and  O_20
   18  A    between atoms: C_16  and  C_27
   19  A    between atoms: C_22  and  C_23
   20  A    between atoms: C_24  and  C_27
                            x       y       z     vdW  Elec       q    Type
                         _______ _______ _______ _____ _____    ______ ____

>  <TORSDO>
F 20

$$$$
=
 OpenBabel10222421453D

 31 31  0  0  1  0  0  0  0  0999 V2000
  186.2810  178.4440  145.0350 C   0  0  1  0  0  3  0  0  0  0  0  0
  185.0340  178.1650  145.8210 C   0  0  0  0  0  3  0  0  0  0  0  0
  183.9610  178.9420  145.6950 C   0  0  0  0  0  2  0  0  0  0  0  0
  187.5520  178.1220  145.8360 C   0  0  2  0  0  3  0  0  0  0  0  0
  188.6160  177.4230  144.9930 C   0  0  2  0  0  3  0  0  0  0  0  0
  189.9660  177.7720  145.4860 C   0  0  2  0  0  3  0  0  0  0  0  0
  189.4120  178.3880  144.3490 O   0  0  0  0  0  0  0  0  0  0  0  0
  190.9620  176.7130  145.0510 C   0  0  2  0  0  3  0  0  0  0  0  0
  191.8260  176.3190  146.2350 C   0  0  0  0  0  1  0  0  0  0  0  0
  191.8340  177.2570  143.9330 C   0  0  0  0  0  2  0  0  0  0  0  0
  191.5400  176.6020  142.7370 O   0  0  0  0  0  0  0  0  0  0  0  0
  191.1950  177.6230  141.8520 C   0  0  0  0  0  2  0  0  0  0  0  0
  191.1840  177.0830  140.4380 C   0  0  0  0  0  2  0  0  0  0  0  0
  188.8700  177.8780  140.7920 C   0  0  0  0  0  1  0  0  0  0  0  0
  189.7560  176.9920  139.9430 C   0  0  0  0  0  2  0  0  0  0  0  0
  187.6180  178.0990  148.0500 C   0  0  0  0  0  1  0  0  0  0  0  0
  187.2320  177.3350  146.9460 O   0  0  0  0  0  0  0  0  0  0  0  0
  186.2560  177.7080  143.6970 C   0  0  0  0  0  2  0  0  0  0  0  0
  185.6210  178.5580  142.6030 C   0  0  0  0  0  2  0  0  0  0  0  0
  184.3260  177.9360  142.0950 C   0  0  0  0  0  2  0  0  0  0  0  0
  183.4730  178.9480  141.3470 C   0  0  0  0  0  2  0  0  0  0  0  0
  182.9780  178.3600  140.0340 C   0  0  0  0  0  2  0  0  0  0  0  0
  184.3500  180.1660  139.3090 O   0  0  0  0  0  1  0  0  0  0  0  0
  183.6500  179.0480  138.8560 C   0  0  1  0  0  3  0  0  0  0  0  0
  185.9880  178.3950  138.1310 N   0  0  0  0  0  2  0  0  0  0  0  0
  184.5830  178.1190  138.1500 C   0  0  0  0  0  0  0  0  0  0  0  0
  184.1180  177.0340  137.6230 N   0  0  0  0  0  2  0  0  0  0  0  0
  186.9480  177.5330  137.4570 C   0  0  0  0  0  2  0  0  0  0  0  0
  187.7230  178.3120  136.4040 C   0  0  0  0  0  2  0  0  0  0  0  0
  189.0330  179.7920  137.7480 O   0  0  0  0  0  1  0  0  0  0  0  0
  189.1110  178.6890  136.8960 C   0  0  0  0  0  2  0  0  0  0  0  0
  1 18  1  6  0  0  0
  1  2  1  0  0  0  0
  1  4  1  0  0  0  0
  3  2  2  0  0  0  0
  4 17  1  1  0  0  0
  5  6  1  0  0  0  0
  5  4  1  1  0  0  0
  6  8  1  6  0  0  0
  7  5  1  0  0  0  0
  7  6  1  0  0  0  0
  8  9  1  1  0  0  0
 10  8  1  0  0  0  0
 11 10  1  0  0  0  0
 12 11  1  0  0  0  0
 13 12  1  0  0  0  0
 15 13  1  0  0  0  0
 15 14  1  0  0  0  0
 17 16  1  0  0  0  0
 19 18  1  0  0  0  0
 20 19  1  0  0  0  0
 21 20  1  0  0  0  0
 22 21  1  0  0  0  0
 24 23  1  1  0  0  0
 24 22  1  0  0  0  0
 25 26  1  0  0  0  0
 26 24  1  0  0  0  0
 27 26  2  0  0  0  0
 28 25  1  0  0  0  0
 29 31  1  0  0  0  0
 29 28  1  0  0  0  0
 31 30  1  0  0  0  0
M  END
>  <MODEL>
4

>  <REMARK>
 VINA RESULT:      -5.8      1.884      5.538
  Name = 
  20 active torsions:
  status: ('A' for Active; 'I' for Inactive)
    1  A    between atoms: C_2  and  C_7
    2  A    between atoms: C_2  and  C_19
    3  A    between atoms: N_3  and  C_8
    4  A    between atoms: C_5  and  C_13
    5  A    between atoms: C_5  and  C_31
    6  A    between atoms: C_6  and  C_8
    7  A    between atoms: C_6  and  C_28
    8  A    between atoms: C_7  and  C_23
    9  A    between atoms: C_10  and  C_16
   10  A    between atoms: C_11  and  C_14
   11  A    between atoms: C_11  and  O_29
   12  A    between atoms: C_12  and  C_22
   13  A    between atoms: C_12  and  C_27
   14  A    between atoms: C_13  and  O_29
   15  A    between atoms: C_14  and  C_17
   16  A    between atoms: C_15  and  C_19
   17  A    between atoms: C_16  and  O_20
   18  A    between atoms: C_16  and  C_27
   19  A    between atoms: C_22  and  C_23
   20  A    between atoms: C_24  and  C_27
                            x       y       z     vdW  Elec       q    Type
                         _______ _______ _______ _____ _____    ______ ____

>  <TORSDO>
F 20

$$$$
=
 OpenBabel10222421453D

 31 31  0  0  1  0  0  0  0  0999 V2000
  189.8680  177.6460  142.2320 C   0  0  1  0  0  3  0  0  0  0  0  0
  191.1150  177.9670  143.0020 C   0  0  0  0  0  3  0  0  0  0  0  0
  191.1460  178.9910  143.8520 C   0  0  0  0  0  2  0  0  0  0  0  0
  190.0850  177.7460  140.7150 C   0  0  2  0  0  3  0  0  0  0  0  0
  188.8510  177.3320  139.9170 C   0  0  2  0  0  3  0  0  0  0  0  0
  188.4600  178.4140  138.9870 C   0  0  2  0  0  3  0  0  0  0  0  0
  187.7900  178.2090  140.2070 O   0  0  0  0  0  0  0  0  0  0  0  0
  187.6300  177.8430  137.8530 C   0  0  2  0  0  3  0  0  0  0  0  0
  188.0400  178.5000  136.5480 C   0  0  0  0  0  1  0  0  0  0  0  0
  186.1560  178.0950  138.1190 C   0  0  0  0  0  2  0  0  0  0  0  0
  185.3840  177.5160  137.1110 O   0  0  0  0  0  0  0  0  0  0  0  0
  184.1890  177.1670  137.7400 C   0  0  0  0  0  2  0  0  0  0  0  0
  183.9220  178.1220  138.8840 C   0  0  0  0  0  2  0  0  0  0  0  0
  181.8260  177.0310  139.6110 C   0  0  0  0  0  1  0  0  0  0  0  0
  183.2420  177.3790  140.0140 C   0  0  0  0  0  2  0  0  0  0  0  0
  190.7460  176.2570  139.2140 C   0  0  0  0  0  1  0  0  0  0  0  0
  191.1810  176.9660  140.3350 O   0  0  0  0  0  0  0  0  0  0  0  0
  189.3190  176.2790  142.6340 C   0  0  0  0  0  2  0  0  0  0  0  0
  187.9990  176.4050  143.3860 C   0  0  0  0  0  2  0  0  0  0  0  0
  187.5020  177.8460  143.4020 C   0  0  0  0  0  2  0  0  0  0  0  0
  186.1150  177.9560  144.0130 C   0  0  0  0  0  2  0  0  0  0  0  0
  186.1170  177.4200  145.4370 C   0  0  0  0  0  2  0  0  0  0  0  0
  185.5140  178.8820  147.2160 O   0  0  0  0  0  1  0  0  0  0  0  0
  186.5820  178.4920  146.4090 C   0  0  1  0  0  3  0  0  0  0  0  0
  188.6350  177.0440  146.7370 N   0  0  0  0  0  2  0  0  0  0  0  0
  187.7040  177.9960  147.2620 C   0  0  0  0  0  0  0  0  0  0  0  0
  187.8650  178.4900  148.4460 N   0  0  0  0  0  2  0  0  0  0  0  0
  189.7460  176.5200  147.5180 C   0  0  0  0  0  2  0  0  0  0  0  0
  191.0770  176.9440  146.9140 C   0  0  0  0  0  2  0  0  0  0  0  0
  192.3410  175.0060  146.3170 O   0  0  0  0  0  1  0  0  0  0  0  0
  192.1950  175.9880  147.2970 C   0  0  0  0  0  2  0  0  0  0  0  0
  1 18  1  6  0  0  0
  1  2  1  0  0  0  0
  2  3  2  0  0  0  0
  4 17  1  6  0  0  0
  4  1  1  0  0  0  0
  5  7  1  0  0  0  0
  5  4  1  1  0  0  0
  6  8  1  6  0  0  0
  6  5  1  0  0  0  0
  6  7  1  0  0  0  0
  8  9  1  6  0  0  0
  8 10  1  0  0  0  0
 11 12  1  0  0  0  0
 11 10  1  0  0  0  0
 12 13  1  0  0  0  0
 13 15  1  0  0  0  0
 14 15  1  0  0  0  0
 16 17  1  0  0  0  0
 18 19  1  0  0  0  0
 19 20  1  0  0  0  0
 20 21  1  0  0  0  0
 21 22  1  0  0  0  0
 22 24  1  0  0  0  0
 24 23  1  1  0  0  0
 24 26  1  0  0  0  0
 25 26  1  0  0  0  0
 25 28  1  0  0  0  0
 26 27  2  0  0  0  0
 29 31  1  0  0  0  0
 29 28  1  0  0  0  0
 30 31  1  0  0  0  0
M  END
>  <MODEL>
5

>  <REMARK>
 VINA RESULT:      -5.6      2.653      7.159
  Name = 
  20 active torsions:
  status: ('A' for Active; 'I' for Inactive)
    1  A    between atoms: C_2  and  C_7
    2  A    between atoms: C_2  and  C_19
    3  A    between atoms: N_3  and  C_8
    4  A    between atoms: C_5  and  C_13
    5  A    between atoms: C_5  and  C_31
    6  A    between atoms: C_6  and  C_8
    7  A    between atoms: C_6  and  C_28
    8  A    between atoms: C_7  and  C_23
    9  A    between atoms: C_10  and  C_16
   10  A    between atoms: C_11  and  C_14
   11  A    between atoms: C_11  and  O_29
   12  A    between atoms: C_12  and  C_22
   13  A    between atoms: C_12  and  C_27
   14  A    between atoms: C_13  and  O_29
   15  A    between atoms: C_14  and  C_17
   16  A    between atoms: C_15  and  C_19
   17  A    between atoms: C_16  and  O_20
   18  A    between atoms: C_16  and  C_27
   19  A    between atoms: C_22  and  C_23
   20  A    between atoms: C_24  and  C_27
                            x       y       z     vdW  Elec       q    Type
                         _______ _______ _______ _____ _____    ______ ____

>  <TORSDO>
F 20

$$$$
=
 OpenBabel10222421453D

 31 31  0  0  1  0  0  0  0  0999 V2000
  183.3880  179.1000  139.5380 C   0  0  1  0  0  3  0  0  0  0  0  0
  182.8430  180.3080  138.8360 C   0  0  0  0  0  3  0  0  0  0  0  0
  181.7680  180.2150  138.0570 C   0  0  0  0  0  2  0  0  0  0  0  0
  182.7460  178.8970  140.9190 C   0  0  2  0  0  3  0  0  0  0  0  0
  183.6600  178.1480  141.8870 C   0  0  2  0  0  3  0  0  0  0  0  0
  184.1390  179.0650  142.9450 C   0  0  2  0  0  3  0  0  0  0  0  0
  184.9470  178.7150  141.8470 O   0  0  0  0  0  0  0  0  0  0  0  0
  184.5670  178.2660  144.1620 C   0  0  2  0  0  3  0  0  0  0  0  0
  183.8760  178.8180  145.3950 C   0  0  0  0  0  1  0  0  0  0  0  0
  186.0750  178.3540  144.3300 C   0  0  0  0  0  2  0  0  0  0  0  0
  186.3890  178.6940  145.6460 O   0  0  0  0  0  0  0  0  0  0  0  0
  187.0360  177.5690  146.1540 C   0  0  0  0  0  2  0  0  0  0  0  0
  188.5320  177.7220  145.9750 C   0  0  0  0  0  2  0  0  0  0  0  0
  188.3670  177.8340  148.4390 C   0  0  0  0  0  1  0  0  0  0  0  0
  189.2330  177.3970  147.2770 C   0  0  0  0  0  2  0  0  0  0  0  0
  180.6200  178.9600  141.5370 C   0  0  0  0  0  1  0  0  0  0  0  0
  181.5330  178.2160  140.7880 O   0  0  0  0  0  0  0  0  0  0  0  0
  183.2510  177.8550  138.6640 C   0  0  0  0  0  2  0  0  0  0  0  0
  184.4070  177.7340  137.6780 C   0  0  0  0  0  2  0  0  0  0  0  0
  185.7510  177.7190  138.3950 C   0  0  0  0  0  2  0  0  0  0  0  0
  186.9010  177.9890  137.4380 C   0  0  0  0  0  2  0  0  0  0  0  0
  188.1100  177.1440  137.8060 C   0  0  0  0  0  2  0  0  0  0  0  0
  188.9780  179.3600  137.8580 O   0  0  0  0  0  1  0  0  0  0  0  0
  189.3040  178.0300  138.1210 C   0  0  1  0  0  3  0  0  0  0  0  0
  188.7650  178.0740  140.5960 N   0  0  0  0  0  2  0  0  0  0  0  0
  189.7220  177.8860  139.5480 C   0  0  0  0  0  0  0  0  0  0  0  0
  190.9320  177.5190  139.8200 N   0  0  0  0  0  2  0  0  0  0  0  0
  189.1090  177.9520  142.0050 C   0  0  0  0  0  2  0  0  0  0  0  0
  188.7690  176.5630  142.5240 C   0  0  0  0  0  2  0  0  0  0  0  0
  190.9310  176.6170  143.5390 O   0  0  0  0  0  1  0  0  0  0  0  0
  190.0190  175.7810  142.8920 C   0  0  0  0  0  2  0  0  0  0  0  0
  1 18  1  6  0  0  0
  1  4  1  0  0  0  0
  2  1  1  0  0  0  0
  3  2  2  0  0  0  0
  4 17  1  6  0  0  0
  5  4  1  6  0  0  0
  5  6  1  0  0  0  0
  6  8  1  1  0  0  0
  7  5  1  0  0  0  0
  7  6  1  0  0  0  0
  8 10  1  0  0  0  0
  8  9  1  1  0  0  0
 10 11  1  0  0  0  0
 11 12  1  0  0  0  0
 13 12  1  0  0  0  0
 13 15  1  0  0  0  0
 15 14  1  0  0  0  0
 17 16  1  0  0  0  0
 19 20  1  0  0  0  0
 19 18  1  0  0  0  0
 21 22  1  0  0  0  0
 21 20  1  0  0  0  0
 22 24  1  0  0  0  0
 24 23  1  1  0  0  0
 24 26  1  0  0  0  0
 25 28  1  0  0  0  0
 26 27  2  0  0  0  0
 26 25  1  0  0  0  0
 28 29  1  0  0  0  0
 29 31  1  0  0  0  0
 31 30  1  0  0  0  0
M  END
>  <MODEL>
6

>  <REMARK>
 VINA RESULT:      -5.5      1.942      7.215
  Name = 
  20 active torsions:
  status: ('A' for Active; 'I' for Inactive)
    1  A    between atoms: C_2  and  C_7
    2  A    between atoms: C_2  and  C_19
    3  A    between atoms: N_3  and  C_8
    4  A    between atoms: C_5  and  C_13
    5  A    between atoms: C_5  and  C_31
    6  A    between atoms: C_6  and  C_8
    7  A    between atoms: C_6  and  C_28
    8  A    between atoms: C_7  and  C_23
    9  A    between atoms: C_10  and  C_16
   10  A    between atoms: C_11  and  C_14
   11  A    between atoms: C_11  and  O_29
   12  A    between atoms: C_12  and  C_22
   13  A    between atoms: C_12  and  C_27
   14  A    between atoms: C_13  and  O_29
   15  A    between atoms: C_14  and  C_17
   16  A    between atoms: C_15  and  C_19
   17  A    between atoms: C_16  and  O_20
   18  A    between atoms: C_16  and  C_27
   19  A    between atoms: C_22  and  C_23
   20  A    between atoms: C_24  and  C_27
                            x       y       z     vdW  Elec       q    Type
                         _______ _______ _______ _____ _____    ______ ____

>  <TORSDO>
F 20

$$$$
=
 OpenBabel10222421453D

 31 31  0  0  1  0  0  0  0  0999 V2000
  188.8460  177.7980  145.5870 C   0  0  1  0  0  3  0  0  0  0  0  0
  189.2680  177.2740  146.9280 C   0  0  0  0  0  3  0  0  0  0  0  0
  188.8000  177.8170  148.0500 C   0  0  0  0  0  2  0  0  0  0  0  0
  189.7840  177.3310  144.4640 C   0  0  2  0  0  3  0  0  0  0  0  0
  189.0840  177.2520  143.1090 C   0  0  2  0  0  3  0  0  0  0  0  0
  189.9560  177.8120  142.0530 C   0  0  2  0  0  3  0  0  0  0  0  0
  188.8940  178.5520  142.6050 O   0  0  0  0  0  0  0  0  0  0  0  0
  189.5410  177.2660  140.7000 C   0  0  2  0  0  3  0  0  0  0  0  0
  190.7790  176.9260  139.8920 C   0  0  0  0  0  1  0  0  0  0  0  0
  188.7090  178.3000  139.9620 C   0  0  0  0  0  2  0  0  0  0  0  0
  189.2320  178.5120  138.6870 O   0  0  0  0  0  0  0  0  0  0  0  0
  188.2770  177.9780  137.8220 C   0  0  0  0  0  2  0  0  0  0  0  0
  188.9700  177.3160  136.6500 C   0  0  0  0  0  2  0  0  0  0  0  0
  187.0200  178.0800  135.3360 C   0  0  0  0  0  1  0  0  0  0  0  0
  187.9400  176.9120  135.6170 C   0  0  0  0  0  2  0  0  0  0  0  0
  191.7100  176.2430  144.5930 C   0  0  0  0  0  1  0  0  0  0  0  0
  190.3360  176.0870  144.7870 O   0  0  0  0  0  0  0  0  0  0  0  0
  187.3920  177.4340  145.2960 C   0  0  0  0  0  2  0  0  0  0  0  0
  186.4770  178.6480  145.4150 C   0  0  0  0  0  2  0  0  0  0  0  0
  185.1880  178.3030  146.1490 C   0  0  0  0  0  2  0  0  0  0  0  0
  183.9660  178.8420  145.4230 C   0  0  0  0  0  2  0  0  0  0  0  0
  184.3630  179.4410  144.0830 C   0  0  0  0  0  2  0  0  0  0  0  0
  182.3720  178.9160  142.8880 O   0  0  0  0  0  1  0  0  0  0  0  0
  183.7410  178.6530  142.9420 C   0  0  1  0  0  3  0  0  0  0  0  0
  183.6100  178.9260  140.4270 N   0  0  0  0  0  2  0  0  0  0  0  0
  184.3740  179.0040  141.6350 C   0  0  0  0  0  0  0  0  0  0  0  0
  185.5890  179.4450  141.6190 N   0  0  0  0  0  2  0  0  0  0  0  0
  184.1700  179.2500  139.1220 C   0  0  0  0  0  2  0  0  0  0  0  0
  184.5470  177.9830  138.3690 C   0  0  0  0  0  2  0  0  0  0  0  0
  182.4400  178.4530  137.3430 O   0  0  0  0  0  1  0  0  0  0  0  0
  183.3760  177.4410  137.5640 C   0  0  0  0  0  2  0  0  0  0  0  0
  1 18  1  6  0  0  0
  1  2  1  0  0  0  0
  2  3  2  0  0  0  0
  4 17  1  1  0  0  0
  4  1  1  0  0  0  0
  5  4  1  1  0  0  0
  6  8  1  6  0  0  0
  6  7  1  0  0  0  0
  6  5  1  0  0  0  0
  7  5  1  0  0  0  0
  8  9  1  6  0  0  0
 10  8  1  0  0  0  0
 11 10  1  0  0  0  0
 12 11  1  0  0  0  0
 13 12  1  0  0  0  0
 14 15  1  0  0  0  0
 15 13  1  0  0  0  0
 16 17  1  0  0  0  0
 18 19  1  0  0  0  0
 19 20  1  0  0  0  0
 21 20  1  0  0  0  0
 22 21  1  0  0  0  0
 24 23  1  6  0  0  0
 24 22  1  0  0  0  0
 25 26  1  0  0  0  0
 26 24  1  0  0  0  0
 27 26  2  0  0  0  0
 28 25  1  0  0  0  0
 29 28  1  0  0  0  0
 30 31  1  0  0  0  0
 31 29  1  0  0  0  0
M  END
>  <MODEL>
7

>  <REMARK>
 VINA RESULT:      -5.5      1.994      5.281
  Name = 
  20 active torsions:
  status: ('A' for Active; 'I' for Inactive)
    1  A    between atoms: C_2  and  C_7
    2  A    between atoms: C_2  and  C_19
    3  A    between atoms: N_3  and  C_8
    4  A    between atoms: C_5  and  C_13
    5  A    between atoms: C_5  and  C_31
    6  A    between atoms: C_6  and  C_8
    7  A    between atoms: C_6  and  C_28
    8  A    between atoms: C_7  and  C_23
    9  A    between atoms: C_10  and  C_16
   10  A    between atoms: C_11  and  C_14
   11  A    between atoms: C_11  and  O_29
   12  A    between atoms: C_12  and  C_22
   13  A    between atoms: C_12  and  C_27
   14  A    between atoms: C_13  and  O_29
   15  A    between atoms: C_14  and  C_17
   16  A    between atoms: C_15  and  C_19
   17  A    between atoms: C_16  and  O_20
   18  A    between atoms: C_16  and  C_27
   19  A    between atoms: C_22  and  C_23
   20  A    between atoms: C_24  and  C_27
                            x       y       z     vdW  Elec       q    Type
                         _______ _______ _______ _____ _____    ______ ____

>  <TORSDO>
F 20

$$$$
=
 OpenBabel10222421453D

 31 31  0  0  1  0  0  0  0  0999 V2000
  189.6850  177.7690  143.8600 C   0  0  1  0  0  3  0  0  0  0  0  0
  190.4570  179.0320  144.1000 C   0  0  0  0  0  3  0  0  0  0  0  0
  191.7880  179.0290  144.0920 C   0  0  0  0  0  2  0  0  0  0  0  0
  190.4790  176.7580  143.0180 C   0  0  2  0  0  3  0  0  0  0  0  0
  189.8610  176.5280  141.6400 C   0  0  2  0  0  3  0  0  0  0  0  0
  190.7210  177.1220  140.5930 C   0  0  2  0  0  3  0  0  0  0  0  0
  189.5580  177.7690  141.0510 O   0  0  0  0  0  0  0  0  0  0  0  0
  190.4370  176.4590  139.2580 C   0  0  2  0  0  3  0  0  0  0  0  0
  191.6790  176.5240  138.3890 C   0  0  0  0  0  1  0  0  0  0  0  0
  189.2840  177.1670  138.5680 C   0  0  0  0  0  2  0  0  0  0  0  0
  189.7730  178.1620  137.7220 O   0  0  0  0  0  0  0  0  0  0  0  0
  188.6390  178.6870  137.1030 C   0  0  0  0  0  2  0  0  0  0  0  0
  188.0990  177.6860  136.1040 C   0  0  0  0  0  2  0  0  0  0  0  0
  186.0870  178.1180  137.4730 C   0  0  0  0  0  1  0  0  0  0  0  0
  186.5870  177.7480  136.0940 C   0  0  0  0  0  2  0  0  0  0  0  0
  191.9420  175.4120  143.9940 C   0  0  0  0  0  1  0  0  0  0  0  0
  190.5830  175.5430  143.7020 O   0  0  0  0  0  0  0  0  0  0  0  0
  189.2160  177.1590  145.1790 C   0  0  0  0  0  2  0  0  0  0  0  0
  187.7050  177.2760  145.3440 C   0  0  0  0  0  2  0  0  0  0  0  0
  187.3380  177.9710  146.6490 C   0  0  0  0  0  2  0  0  0  0  0  0
  185.8530  178.2860  146.7200 C   0  0  0  0  0  2  0  0  0  0  0  0
  185.4390  179.1720  145.5550 C   0  0  0  0  0  2  0  0  0  0  0  0
  183.0900  179.3010  145.1930 O   0  0  0  0  0  1  0  0  0  0  0  0
  184.2330  178.5840  144.8410 C   0  0  1  0  0  3  0  0  0  0  0  0
  183.2710  178.5580  142.4970 N   0  0  0  0  0  2  0  0  0  0  0  0
  184.4140  178.6190  143.3580 C   0  0  0  0  0  0  0  0  0  0  0  0
  185.5990  178.7800  142.8680 N   0  0  0  0  0  2  0  0  0  0  0  0
  183.3800  178.5830  141.0460 C   0  0  0  0  0  2  0  0  0  0  0  0
  182.0380  178.2740  140.4000 C   0  0  0  0  0  2  0  0  0  0  0  0
  180.9030  180.2100  139.5790 O   0  0  0  0  0  1  0  0  0  0  0  0
  181.0170  179.3640  140.6830 C   0  0  0  0  0  2  0  0  0  0  0  0
  1  2  1  1  0  0  0
  1 18  1  0  0  0  0
  3  2  2  0  0  0  0
  4 17  1  1  0  0  0
  4  1  1  0  0  0  0
  5  4  1  1  0  0  0
  6  8  1  6  0  0  0
  6  7  1  0  0  0  0
  6  5  1  0  0  0  0
  7  5  1  0  0  0  0
  8  9  1  6  0  0  0
 10  8  1  0  0  0  0
 11 10  1  0  0  0  0
 12 11  1  0  0  0  0
 13 12  1  0  0  0  0
 15 13  1  0  0  0  0
 15 14  1  0  0  0  0
 17 16  1  0  0  0  0
 18 19  1  0  0  0  0
 19 20  1  0  0  0  0
 20 21  1  0  0  0  0
 22 21  1  0  0  0  0
 24 23  1  6  0  0  0
 24 22  1  0  0  0  0
 25 26  1  0  0  0  0
 26 24  1  0  0  0  0
 27 26  2  0  0  0  0
 28 25  1  0  0  0  0
 29 31  1  0  0  0  0
 29 28  1  0  0  0  0
 30 31  1  0  0  0  0
M  END
>  <MODEL>
8

>  <REMARK>
 VINA RESULT:      -5.4      2.444      6.005
  Name = 
  20 active torsions:
  status: ('A' for Active; 'I' for Inactive)
    1  A    between atoms: C_2  and  C_7
    2  A    between atoms: C_2  and  C_19
    3  A    between atoms: N_3  and  C_8
    4  A    between atoms: C_5  and  C_13
    5  A    between atoms: C_5  and  C_31
    6  A    between atoms: C_6  and  C_8
    7  A    between atoms: C_6  and  C_28
    8  A    between atoms: C_7  and  C_23
    9  A    between atoms: C_10  and  C_16
   10  A    between atoms: C_11  and  C_14
   11  A    between atoms: C_11  and  O_29
   12  A    between atoms: C_12  and  C_22
   13  A    between atoms: C_12  and  C_27
   14  A    between atoms: C_13  and  O_29
   15  A    between atoms: C_14  and  C_17
   16  A    between atoms: C_15  and  C_19
   17  A    between atoms: C_16  and  O_20
   18  A    between atoms: C_16  and  C_27
   19  A    between atoms: C_22  and  C_23
   20  A    between atoms: C_24  and  C_27
                            x       y       z     vdW  Elec       q    Type
                         _______ _______ _______ _____ _____    ______ ____

>  <TORSDO>
F 20

$$$$
=
 OpenBabel10222421453D

 31 31  0  0  1  0  0  0  0  0999 V2000
  186.4900  178.3830  145.7430 C   0  0  1  0  0  3  0  0  0  0  0  0
  185.3420  178.1600  146.6820 C   0  0  0  0  0  3  0  0  0  0  0  0
  184.1510  178.7020  146.4430 C   0  0  0  0  0  2  0  0  0  0  0  0
  187.8390  178.0210  146.3840 C   0  0  2  0  0  3  0  0  0  0  0  0
  188.7700  177.2930  145.4170 C   0  0  2  0  0  3  0  0  0  0  0  0
  190.1700  177.7140  145.6460 C   0  0  2  0  0  3  0  0  0  0  0  0
  189.4050  178.2310  144.5830 O   0  0  0  0  0  0  0  0  0  0  0  0
  191.1190  176.6550  145.1170 C   0  0  2  0  0  3  0  0  0  0  0  0
  191.9640  176.1210  146.2580 C   0  0  0  0  0  1  0  0  0  0  0  0
  192.0140  177.2570  144.0470 C   0  0  0  0  0  2  0  0  0  0  0  0
  191.9050  176.5240  142.8660 O   0  0  0  0  0  0  0  0  0  0  0  0
  191.3660  177.4210  141.9440 C   0  0  0  0  0  2  0  0  0  0  0  0
  190.1120  176.8290  141.3370 C   0  0  0  0  0  2  0  0  0  0  0  0
  188.3730  178.4580  140.6790 C   0  0  0  0  0  1  0  0  0  0  0  0
  189.6170  177.7280  140.2230 C   0  0  0  0  0  2  0  0  0  0  0  0
  188.1810  177.9850  148.5720 C   0  0  0  0  0  1  0  0  0  0  0  0
  187.6330  177.2410  147.5250 O   0  0  0  0  0  0  0  0  0  0  0  0
  186.2700  177.6360  144.4290 C   0  0  0  0  0  2  0  0  0  0  0  0
  185.9330  178.5920  143.2920 C   0  0  0  0  0  2  0  0  0  0  0  0
  184.6630  178.1670  142.5640 C   0  0  0  0  0  2  0  0  0  0  0  0
  184.5020  178.8980  141.2410 C   0  0  0  0  0  2  0  0  0  0  0  0
  183.9090  177.9720  140.1900 C   0  0  0  0  0  2  0  0  0  0  0  0
  184.1470  179.9660  138.9120 O   0  0  0  0  0  1  0  0  0  0  0  0
  184.0510  178.5790  138.8040 C   0  0  1  0  0  3  0  0  0  0  0  0
  185.2340  176.7220  137.5510 N   0  0  0  0  0  2  0  0  0  0  0  0
  185.2560  178.0440  138.1010 C   0  0  0  0  0  0  0  0  0  0  0  0
  186.2830  178.8100  137.9320 N   0  0  0  0  0  2  0  0  0  0  0  0
  186.3760  176.1410  136.8590 C   0  0  0  0  0  2  0  0  0  0  0  0
  185.9810  174.8480  136.1610 C   0  0  0  0  0  2  0  0  0  0  0  0
  184.2440  173.2200  136.3620 O   0  0  0  0  0  1  0  0  0  0  0  0
  185.2040  173.9270  137.0870 C   0  0  0  0  0  2  0  0  0  0  0  0
  1 18  1  6  0  0  0
  1  4  1  0  0  0  0
  1  2  1  0  0  0  0
  3  2  2  0  0  0  0
  4 17  1  1  0  0  0
  5  6  1  0  0  0  0
  5  4  1  1  0  0  0
  6  8  1  6  0  0  0
  7  5  1  0  0  0  0
  7  6  1  0  0  0  0
  8  9  1  1  0  0  0
 10  8  1  0  0  0  0
 11 10  1  0  0  0  0
 12 11  1  0  0  0  0
 13 12  1  0  0  0  0
 15 14  1  0  0  0  0
 15 13  1  0  0  0  0
 17 16  1  0  0  0  0
 19 18  1  0  0  0  0
 20 19  1  0  0  0  0
 21 20  1  0  0  0  0
 22 21  1  0  0  0  0
 24 23  1  1  0  0  0
 24 22  1  0  0  0  0
 25 26  1  0  0  0  0
 26 24  1  0  0  0  0
 27 26  2  0  0  0  0
 28 25  1  0  0  0  0
 29 28  1  0  0  0  0
 29 31  1  0  0  0  0
 30 31  1  0  0  0  0
M  END
>  <MODEL>
9

>  <REMARK>
 VINA RESULT:      -5.2      1.795      5.207
  Name = 
  20 active torsions:
  status: ('A' for Active; 'I' for Inactive)
    1  A    between atoms: C_2  and  C_7
    2  A    between atoms: C_2  and  C_19
    3  A    between atoms: N_3  and  C_8
    4  A    between atoms: C_5  and  C_13
    5  A    between atoms: C_5  and  C_31
    6  A    between atoms: C_6  and  C_8
    7  A    between atoms: C_6  and  C_28
    8  A    between atoms: C_7  and  C_23
    9  A    between atoms: C_10  and  C_16
   10  A    between atoms: C_11  and  C_14
   11  A    between atoms: C_11  and  O_29
   12  A    between atoms: C_12  and  C_22
   13  A    between atoms: C_12  and  C_27
   14  A    between atoms: C_13  and  O_29
   15  A    between atoms: C_14  and  C_17
   16  A    between atoms: C_15  and  C_19
   17  A    between atoms: C_16  and  O_20
   18  A    between atoms: C_16  and  C_27
   19  A    between atoms: C_22  and  C_23
   20  A    between atoms: C_24  and  C_27
                            x       y       z     vdW  Elec       q    Type
                         _______ _______ _______ _____ _____    ______ ____

>  <TORSDO>
F 20

$$$$
