=
 OpenBabel10232410103D

 62 71  0  0  1  0  0  0  0  0999 V2000
  180.5120  173.3790  136.4370 C   0  0  0  0  0  3  0  0  0  0  0  0
  185.6030  177.1230  137.3810 C   0  0  0  0  0  0  0  0  0  0  0  0
  182.7100  173.6640  135.7240 C   0  0  0  0  0  0  0  0  0  0  0  0
  182.4350  177.0680  139.4160 C   0  0  0  0  0  2  0  0  0  0  0  0
  183.4500  176.7050  138.4240 N   0  0  0  0  0  0  0  0  0  0  0  0
  184.6840  177.4660  138.3130 C   0  0  0  0  0  0  0  0  0  0  0  0
  182.0610  172.6030  134.6080 S   0  0  0  0  0  0  0  0  0  0  0  0
  182.4120  178.5700  139.6590 C   0  0  0  0  0  2  0  0  0  0  0  0
  183.8890  174.2080  135.6670 N   0  0  0  0  0  2  0  0  0  0  0  0
  180.5160  172.5490  135.3090 C   0  0  0  0  0  3  0  0  0  0  0  0
  183.4210  175.3360  137.8970 C   0  0  0  0  0  0  0  0  0  0  0  0
  182.0110  174.8220  137.6750 C   0  0  0  0  0  3  0  0  0  0  0  0
  184.8400  178.7800  139.0570 C   0  0  0  0  0  2  0  0  0  0  0  0
  184.2680  175.1950  136.6470 C   0  0  0  0  0  0  0  0  0  0  0  0
  185.3440  175.9790  136.4510 C   0  0  0  0  0  0  0  0  0  0  0  0
  183.7860  179.0370  140.1320 C   0  0  2  0  0  3  0  0  0  0  0  0
  181.7490  173.9920  136.6640 C   0  0  0  0  0  0  0  0  0  0  0  0
  187.4590  175.1620  135.5120 C   0  0  0  0  0  2  0  0  0  0  0  0
  186.1440  175.7670  135.1830 C   0  0  2  0  0  3  0  0  0  0  0  0
  187.3370  176.5180  135.1520 O   0  0  0  0  0  0  0  0  0  0  0  0
  184.2260  178.4290  141.4730 C   0  0  0  0  0  2  0  0  0  0  0  0
  185.1780  179.3210  142.2700 C   0  0  0  0  0  2  0  0  0  0  0  0
  185.9680  178.5190  144.4760 C   0  0  0  0  0  0  0  0  0  0  0  0
  187.1910  177.8910  143.9610 C   0  0  0  0  0  2  0  0  0  0  0  0
  185.0330  179.1420  143.7500 C   0  0  0  0  0  3  0  0  0  0  0  0
  187.7060  177.1330  145.0950 N   0  0  0  0  0  0  0  0  0  0  0  0
  187.2150  177.7470  146.2730 N   0  0  0  0  0  2  0  0  0  0  0  0
  185.9230  178.3340  145.9320 C   0  0  0  0  0  2  0  0  0  0  0  0
  189.1750  177.1640  145.0800 C   0  0  1  0  0  3  0  0  0  0  0  0
  191.8160  178.6560  142.7300 F   0  0  0  0  0  0  0  0  0  0  0  0
  191.3770  176.3930  143.3250 F   0  0  0  0  0  0  0  0  0  0  0  0
  189.6700  177.8380  142.7810 O   0  0  0  0  0  0  0  0  0  0  0  0
  189.8430  178.2010  144.1360 C   0  0  2  0  0  3  0  0  0  0  0  0
  190.9730  177.7150  143.3000 C   0  0  0  0  0  0  0  0  0  0  0  0
  189.0640  176.5520  147.4040 O   0  0  0  0  0  0  0  0  0  0  0  0
  191.2050  176.6360  146.4720 N   0  0  0  0  0  2  0  0  0  0  0  0
  191.8800  176.2790  147.7110 C   0  0  0  0  0  1  0  0  0  0  0  0
  189.7850  176.8040  146.4030 C   0  0  0  0  0  0  0  0  0  0  0  0
  186.7690  177.8840  137.2140 O   0  0  0  0  0  0  0  0  0  0  0  0
  189.1110  177.4990  138.1340 C   0  0  2  0  0  0  0  0  0  0  0  0
  187.9780  176.7850  138.8100 C   0  0  0  0  0  2  0  0  0  0  0  0
  187.6800  178.1570  138.2730 C   0  0  2  0  0  0  0  0  0  0  0  0
  188.8100  178.8510  137.5710 C   0  0  0  0  0  2  0  0  0  0  0  0
  190.1380  177.7340  139.1700 N   0  0  0  0  0  2  0  0  0  0  0  0
  191.1400  176.6770  139.3420 C   0  0  0  0  0  2  0  0  0  0  0  0
  191.5750  176.1660  137.9820 C   0  0  0  0  0  2  0  0  0  0  0  0
  192.0370  174.8540  138.0960 O   0  0  0  0  0  0  0  0  0  0  0  0
  193.4540  174.7670  137.1560 P   0  0  1  0  0  0  0  0  0  0  0  0
  193.6720  172.6900  135.6620 O   0  0  0  0  0  0  0  0  0  0  0  0
  193.2060  174.0240  135.5170 C   0  0  1  0  0  3  0  0  0  0  0  0
  194.2100  176.0780  137.0820 O   0  0  0  0  0  0  0  0  0  0  0  0
  194.4260  172.4190  136.7850 N   0  0  0  0  0  0  0  0  0  0  0  0
  194.4700  173.3860  137.6370 C   0  0  0  0  0  0  0  0  0  0  0  0
  191.3550  175.3370  134.8190 O   0  0  0  0  0  1  0  0  0  0  0  0
  191.7560  174.0300  135.0910 C   0  0  0  0  0  2  0  0  0  0  0  0
  195.2650  173.2820  138.7870 O   0  0  0  0  0  0  0  0  0  0  0  0
  196.3990  174.0880  139.1230 C   0  0  2  0  0  3  0  0  0  0  0  0
  195.2690  175.9500  140.0710 O   0  0  0  0  0  0  0  0  0  0  0  0
  196.1240  175.0930  140.2060 C   0  0  0  0  0  3  0  0  0  0  0  0
  197.0990  174.6590  137.8930 C   0  0  0  0  0  2  0  0  0  0  0  0
  199.2370  174.1190  137.8720 C   0  0  0  0  0  1  0  0  0  0  0  0
  198.3640  175.1490  138.2280 O   0  0  0  0  0  0  0  0  0  0  0  0
  1 17  1  0  0  0  0
  2  6  2  0  0  0  0
  3 17  2  0  0  0  0
  4  8  1  0  0  0  0
  5  4  1  0  0  0  0
  6  5  1  0  0  0  0
  6 13  1  0  0  0  0
  7 10  1  0  0  0  0
  7  3  1  0  0  0  0
  8 16  1  0  0  0  0
  9  3  1  0  0  0  0
  9 14  1  0  0  0  0
 10  1  2  0  0  0  0
 11  5  1  0  0  0  0
 12 11  2  0  0  0  0
 13 16  1  0  0  0  0
 14 11  1  0  0  0  0
 15 14  2  0  0  0  0
 15  2  1  0  0  0  0
 16 21  1  1  0  0  0
 17 12  1  0  0  0  0
 19 18  1  0  0  0  0
 19 15  1  1  0  0  0
 20 19  1  0  0  0  0
 20 18  1  0  0  0  0
 21 22  1  0  0  0  0
 22 25  1  0  0  0  0
 23 28  1  0  0  0  0
 24 23  1  0  0  0  0
 24 26  1  0  0  0  0
 25 23  2  0  0  0  0
 26 27  1  0  0  0  0
 28 27  1  0  0  0  0
 29 26  1  0  0  0  0
 29 38  1  1  0  0  0
 30 34  1  0  0  0  0
 32 34  1  0  0  0  0
 32 33  1  0  0  0  0
 33 29  1  1  0  0  0
 34 31  1  0  0  0  0
 34 33  1  0  0  0  0
 36 37  1  0  0  0  0
 38 36  1  0  0  0  0
 38 35  2  0  0  0  0
 39  2  1  0  0  0  0
 40 42  1  0  0  0  0
 40 41  1  0  0  0  0
 40 44  1  1  0  0  0
 42 39  1  6  0  0  0
 42 41  1  0  0  0  0
 43 40  1  0  0  0  0
 43 42  1  0  0  0  0
 44 45  1  0  0  0  0
 46 47  1  0  0  0  0
 46 45  1  0  0  0  0
 48 51  2  6  0  0  0
 48 53  1  0  0  0  0
 48 47  1  0  0  0  0
 49 52  1  0  0  0  0
 50 55  1  1  0  0  0
 50 49  1  0  0  0  0
 50 48  1  0  0  0  0
 52 53  2  0  0  0  0
 53 56  1  0  0  0  0
 54 55  1  0  0  0  0
 56 57  1  0  0  0  0
 57 60  1  6  0  0  0
 57 59  1  0  0  0  0
 58 59  2  0  0  0  0
 60 62  1  0  0  0  0
 61 62  1  0  0  0  0
M  END
>  <MODEL>
1

>  <REMARK>
 VINA RESULT:      -7.8      0.000      0.000
  Name = 
  20 active torsions:
  status: ('A' for Active; 'I' for Inactive)
    1  A    between atoms: C_4  and  C_54
    2  A    between atoms: C_4  and  O_55
    3  A    between atoms: C_4  and  C_57
    4  A    between atoms: P_5  and  O_40
    5  A    between atoms: C_6  and  N_15
    6  A    between atoms: C_8  and  O_31
    7  A    between atoms: N_15  and  C_19
    8  A    between atoms: C_19  and  C_36
    9  A    between atoms: C_24  and  C_35
   10  A    between atoms: C_24  and  C_37
   11  A    between atoms: C_26  and  C_27
   12  A    between atoms: C_26  and  N_41
   13  A    between atoms: C_26  and  C_49
   14  A    between atoms: O_30  and  C_57
   15  A    between atoms: O_31  and  C_39
   16  A    between atoms: C_32  and  C_51
   17  A    between atoms: C_35  and  C_59
   18  A    between atoms: C_36  and  O_40
   19  A    between atoms: C_45  and  C_53
   20  A    between atoms: O_55  and  C_58
                            x       y       z     vdW  Elec       q    Type
                         _______ _______ _______ _____ _____    ______ ____

>  <TORSDO>
F 20

$$$$
=
 OpenBabel10232410103D

 62 71  0  0  1  0  0  0  0  0999 V2000
  180.4140  173.4360  136.4380 C   0  0  0  0  0  3  0  0  0  0  0  0
  185.4640  177.2720  137.2160 C   0  0  0  0  0  0  0  0  0  0  0  0
  182.5530  173.8100  135.5980 C   0  0  0  0  0  0  0  0  0  0  0  0
  182.4400  177.0440  139.4480 C   0  0  0  0  0  2  0  0  0  0  0  0
  183.3960  176.7520  138.3770 N   0  0  0  0  0  0  0  0  0  0  0  0
  184.6010  177.5500  138.2210 C   0  0  0  0  0  0  0  0  0  0  0  0
  181.8570  172.7820  134.4800 S   0  0  0  0  0  0  0  0  0  0  0  0
  182.3970  178.5320  139.7590 C   0  0  0  0  0  2  0  0  0  0  0  0
  183.7110  174.3880  135.4890 N   0  0  0  0  0  2  0  0  0  0  0  0
  180.3630  172.6550  135.2770 C   0  0  0  0  0  3  0  0  0  0  0  0
  183.3640  175.4060  137.7930 C   0  0  0  0  0  0  0  0  0  0  0  0
  181.9560  174.8640  137.6390 C   0  0  0  0  0  3  0  0  0  0  0  0
  184.7740  178.8340  139.0100 C   0  0  0  0  0  2  0  0  0  0  0  0
  184.1310  175.3420  136.4850 C   0  0  0  0  0  0  0  0  0  0  0  0
  185.1720  176.1620  136.2550 C   0  0  0  0  0  0  0  0  0  0  0  0
  183.7870  179.0160  140.1620 C   0  0  2  0  0  3  0  0  0  0  0  0
  181.6480  174.0710  136.6120 C   0  0  0  0  0  0  0  0  0  0  0  0
  187.2100  175.3760  135.1350 C   0  0  0  0  0  2  0  0  0  0  0  0
  185.8920  176.0270  134.9300 C   0  0  2  0  0  3  0  0  0  0  0  0
  187.0980  176.7560  134.8800 O   0  0  0  0  0  0  0  0  0  0  0  0
  184.3290  178.3630  141.4430 C   0  0  0  0  0  2  0  0  0  0  0  0
  185.1190  179.3210  142.3350 C   0  0  0  0  0  2  0  0  0  0  0  0
  185.6120  178.6060  144.6550 C   0  0  0  0  0  0  0  0  0  0  0  0
  186.9120  178.0050  144.3370 C   0  0  0  0  0  2  0  0  0  0  0  0
  184.7710  179.1780  143.7860 C   0  0  0  0  0  3  0  0  0  0  0  0
  187.2840  177.2970  145.5550 N   0  0  0  0  0  0  0  0  0  0  0  0
  186.6140  177.9250  146.6340 N   0  0  0  0  0  2  0  0  0  0  0  0
  185.3660  178.4600  146.0950 C   0  0  0  0  0  2  0  0  0  0  0  0
  188.7390  177.3760  145.7460 C   0  0  1  0  0  3  0  0  0  0  0  0
  191.3880  175.6720  147.9370 F   0  0  0  0  0  0  0  0  0  0  0  0
  191.6180  177.3130  146.2280 F   0  0  0  0  0  0  0  0  0  0  0  0
  189.9900  177.4920  147.8450 O   0  0  0  0  0  0  0  0  0  0  0  0
  189.3270  176.6080  146.9620 C   0  0  2  0  0  3  0  0  0  0  0  0
  190.8080  176.6160  147.1060 C   0  0  0  0  0  0  0  0  0  0  0  0
  190.2250  178.4970  144.2220 O   0  0  0  0  0  0  0  0  0  0  0  0
  189.4710  176.3900  143.5480 N   0  0  0  0  0  2  0  0  0  0  0  0
  190.1850  176.4170  142.2810 C   0  0  0  0  0  1  0  0  0  0  0  0
  189.4970  177.4960  144.4570 C   0  0  0  0  0  0  0  0  0  0  0  0
  186.5980  178.0710  137.0080 O   0  0  0  0  0  0  0  0  0  0  0  0
  189.0240  177.7360  137.7050 C   0  0  2  0  0  0  0  0  0  0  0  0
  187.9840  176.9120  138.4060 C   0  0  0  0  0  2  0  0  0  0  0  0
  187.5800  178.3050  138.0110 C   0  0  2  0  0  0  0  0  0  0  0  0
  188.6150  179.1110  137.2820 C   0  0  0  0  0  2  0  0  0  0  0  0
  190.1210  177.9410  138.6720 N   0  0  0  0  0  2  0  0  0  0  0  0
  191.0080  176.7960  138.9000 C   0  0  0  0  0  2  0  0  0  0  0  0
  191.5160  176.2760  137.5680 C   0  0  0  0  0  2  0  0  0  0  0  0
  191.8570  174.9280  137.6860 O   0  0  0  0  0  0  0  0  0  0  0  0
  192.3250  174.4200  136.1300 P   0  0  1  0  0  0  0  0  0  0  0  0
  191.5490  172.0690  135.4470 O   0  0  0  0  0  0  0  0  0  0  0  0
  191.0830  173.4010  135.2830 C   0  0  1  0  0  3  0  0  0  0  0  0
  192.8350  175.5470  135.2550 O   0  0  0  0  0  0  0  0  0  0  0  0
  192.8560  171.9210  135.8650 N   0  0  0  0  0  0  0  0  0  0  0  0
  193.4290  173.0240  136.2060 C   0  0  0  0  0  0  0  0  0  0  0  0
  189.7470  173.2320  137.2390 O   0  0  0  0  0  1  0  0  0  0  0  0
  189.7040  173.5510  135.8820 C   0  0  0  0  0  2  0  0  0  0  0  0
  194.7820  173.0360  136.5740 O   0  0  0  0  0  0  0  0  0  0  0  0
  195.3230  172.7420  137.8660 C   0  0  2  0  0  3  0  0  0  0  0  0
  195.4980  175.0130  138.5420 O   0  0  0  0  0  0  0  0  0  0  0  0
  196.0160  173.9100  138.5100 C   0  0  0  0  0  3  0  0  0  0  0  0
  196.1250  171.4430  137.8840 C   0  0  0  0  0  2  0  0  0  0  0  0
  196.0640  169.2440  138.0450 C   0  0  0  0  0  1  0  0  0  0  0  0
  195.3520  170.3940  138.3920 O   0  0  0  0  0  0  0  0  0  0  0  0
  1 17  1  0  0  0  0
  2  6  2  0  0  0  0
  3 17  2  0  0  0  0
  4  8  1  0  0  0  0
  5  4  1  0  0  0  0
  6  5  1  0  0  0  0
  6 13  1  0  0  0  0
  7 10  1  0  0  0  0
  7  3  1  0  0  0  0
  8 16  1  0  0  0  0
  9  3  1  0  0  0  0
  9 14  1  0  0  0  0
 10  1  2  0  0  0  0
 11  5  1  0  0  0  0
 12 11  2  0  0  0  0
 13 16  1  0  0  0  0
 14 11  1  0  0  0  0
 15 14  2  0  0  0  0
 15  2  1  0  0  0  0
 16 21  1  1  0  0  0
 17 12  1  0  0  0  0
 19 18  1  0  0  0  0
 19 15  1  1  0  0  0
 20 19  1  0  0  0  0
 20 18  1  0  0  0  0
 21 22  1  0  0  0  0
 22 25  1  0  0  0  0
 23 28  1  0  0  0  0
 24 23  1  0  0  0  0
 24 26  1  0  0  0  0
 25 23  2  0  0  0  0
 26 29  1  0  0  0  0
 26 27  1  0  0  0  0
 28 27  1  0  0  0  0
 29 38  1  6  0  0  0
 31 34  1  0  0  0  0
 33 29  1  6  0  0  0
 33 34  1  0  0  0  0
 33 32  1  0  0  0  0
 34 32  1  0  0  0  0
 34 30  1  0  0  0  0
 35 38  2  0  0  0  0
 36 38  1  0  0  0  0
 37 36  1  0  0  0  0
 39  2  1  0  0  0  0
 40 42  1  0  0  0  0
 40 41  1  0  0  0  0
 40 44  1  1  0  0  0
 42 39  1  6  0  0  0
 42 41  1  0  0  0  0
 43 40  1  0  0  0  0
 43 42  1  0  0  0  0
 44 45  1  0  0  0  0
 46 47  1  0  0  0  0
 46 45  1  0  0  0  0
 48 51  2  6  0  0  0
 48 53  1  0  0  0  0
 48 47  1  0  0  0  0
 49 52  1  0  0  0  0
 50 49  1  0  0  0  0
 50 55  1  1  0  0  0
 50 48  1  0  0  0  0
 52 53  2  0  0  0  0
 53 56  1  0  0  0  0
 55 54  1  0  0  0  0
 56 57  1  0  0  0  0
 57 60  1  6  0  0  0
 57 59  1  0  0  0  0
 59 58  2  0  0  0  0
 60 62  1  0  0  0  0
 61 62  1  0  0  0  0
M  END
>  <MODEL>
2

>  <REMARK>
 VINA RESULT:      -7.5      1.419      2.213
  Name = 
  20 active torsions:
  status: ('A' for Active; 'I' for Inactive)
    1  A    between atoms: C_4  and  C_54
    2  A    between atoms: C_4  and  O_55
    3  A    between atoms: C_4  and  C_57
    4  A    between atoms: P_5  and  O_40
    5  A    between atoms: C_6  and  N_15
    6  A    between atoms: C_8  and  O_31
    7  A    between atoms: N_15  and  C_19
    8  A    between atoms: C_19  and  C_36
    9  A    between atoms: C_24  and  C_35
   10  A    between atoms: C_24  and  C_37
   11  A    between atoms: C_26  and  C_27
   12  A    between atoms: C_26  and  N_41
   13  A    between atoms: C_26  and  C_49
   14  A    between atoms: O_30  and  C_57
   15  A    between atoms: O_31  and  C_39
   16  A    between atoms: C_32  and  C_51
   17  A    between atoms: C_35  and  C_59
   18  A    between atoms: C_36  and  O_40
   19  A    between atoms: C_45  and  C_53
   20  A    between atoms: O_55  and  C_58
                            x       y       z     vdW  Elec       q    Type
                         _______ _______ _______ _____ _____    ______ ____

>  <TORSDO>
F 20

$$$$
=
 OpenBabel10232410103D

 62 71  0  0  1  0  0  0  0  0999 V2000
  189.5430  177.0400  146.3450 C   0  0  0  0  0  3  0  0  0  0  0  0
  188.0230  178.1090  140.2320 C   0  0  0  0  0  0  0  0  0  0  0  0
  187.7250  177.5910  144.9980 C   0  0  0  0  0  0  0  0  0  0  0  0
  191.2730  176.7280  141.5390 C   0  0  0  0  0  2  0  0  0  0  0  0
  189.8900  177.2120  141.4980 N   0  0  0  0  0  0  0  0  0  0  0  0
  189.2970  177.6530  140.2460 C   0  0  0  0  0  0  0  0  0  0  0  0
  187.1830  177.8950  146.5490 S   0  0  0  0  0  0  0  0  0  0  0  0
  192.1380  177.4400  140.5100 C   0  0  0  0  0  2  0  0  0  0  0  0
  187.0900  177.8640  143.8980 N   0  0  0  0  0  0  0  0  0  0  0  0
  188.6220  177.4370  147.3220 C   0  0  0  0  0  3  0  0  0  0  0  0
  189.0010  176.8100  142.5930 C   0  0  1  0  0  3  0  0  0  0  0  0
  189.6960  176.7970  143.9410 C   0  0  0  0  0  3  0  0  0  0  0  0
  190.1630  177.8390  139.0140 C   0  0  0  0  0  2  0  0  0  0  0  0
  187.7360  177.6460  142.6270 C   0  0  0  0  0  0  0  0  0  0  0  0
  187.2330  178.1830  141.5010 C   0  0  0  0  0  0  0  0  0  0  0  0
  191.5590  177.2290  139.1140 C   0  0  2  0  0  3  0  0  0  0  0  0
  189.0260  177.1230  145.0470 C   0  0  0  0  0  0  0  0  0  0  0  0
  184.8050  178.0920  141.8490 C   0  0  0  0  0  2  0  0  0  0  0  0
  185.9600  178.9950  141.6180 C   0  0  2  0  0  3  0  0  0  0  0  0
  185.0260  178.7070  140.6010 O   0  0  0  0  0  0  0  0  0  0  0  0
  191.5390  175.7600  138.6610 C   0  0  0  0  0  2  0  0  0  0  0  0
  191.4340  175.5850  137.1460 C   0  0  0  0  0  2  0  0  0  0  0  0
  193.7190  176.1350  136.3650 C   0  0  0  0  0  0  0  0  0  0  0  0
  194.3730  175.0230  137.0660 C   0  0  0  0  0  2  0  0  0  0  0  0
  192.4160  176.4350  136.3980 C   0  0  0  0  0  3  0  0  0  0  0  0
  195.7960  175.3020  136.9270 N   0  0  0  0  0  0  0  0  0  0  0  0
  195.9610  176.1010  135.7690 N   0  0  0  0  0  2  0  0  0  0  0  0
  194.7400  176.8900  135.6280 C   0  0  0  0  0  2  0  0  0  0  0  0
  196.5330  174.0390  136.7810 C   0  0  1  0  0  3  0  0  0  0  0  0
  200.2320  173.6580  137.7280 F   0  0  0  0  0  0  0  0  0  0  0  0
  199.2210  174.6280  135.8040 F   0  0  0  0  0  0  0  0  0  0  0  0
  198.4350  175.0750  137.9200 O   0  0  0  0  0  0  0  0  0  0  0  0
  197.7740  173.8450  137.6950 C   0  0  2  0  0  3  0  0  0  0  0  0
  199.1020  174.1490  137.0960 C   0  0  0  0  0  0  0  0  0  0  0  0
  195.2920  172.7070  135.2080 O   0  0  0  0  0  0  0  0  0  0  0  0
  195.3330  171.9160  137.4070 N   0  0  0  0  0  2  0  0  0  0  0  0
  194.4960  170.7600  137.1240 C   0  0  0  0  0  1  0  0  0  0  0  0
  195.6540  172.8830  136.4020 C   0  0  0  0  0  0  0  0  0  0  0  0
  187.4540  178.6010  139.0470 O   0  0  0  0  0  0  0  0  0  0  0  0
  187.4310  177.4710  136.7660 C   0  0  2  0  0  0  0  0  0  0  0  0
  186.5670  178.6840  136.9440 C   0  0  0  0  0  2  0  0  0  0  0  0
  186.7170  177.7880  138.1410 C   0  0  2  0  0  0  0  0  0  0  0  0
  187.6080  176.5940  137.9650 C   0  0  0  0  0  2  0  0  0  0  0  0
  186.7610  176.6200  135.7630 N   0  0  0  0  0  2  0  0  0  0  0  0
  185.3010  176.7420  135.6790 C   0  0  0  0  0  2  0  0  0  0  0  0
  184.6630  175.3990  135.9820 C   0  0  0  0  0  2  0  0  0  0  0  0
  183.2870  175.4710  135.7650 O   0  0  0  0  0  0  0  0  0  0  0  0
  182.5510  174.9700  137.2160 P   0  0  1  0  0  0  0  0  0  0  0  0
  180.4150  173.5690  136.9550 O   0  0  0  0  0  0  0  0  0  0  0  0
  181.8020  173.3180  137.1310 C   0  0  1  0  0  3  0  0  0  0  0  0
  183.4410  175.1340  138.4310 O   0  0  0  0  0  0  0  0  0  0  0  0
  179.9850  174.8560  137.2060 N   0  0  0  0  0  0  0  0  0  0  0  0
  180.9370  175.7000  137.4130 C   0  0  0  0  0  0  0  0  0  0  0  0
  181.9000  171.1800  136.1030 O   0  0  0  0  0  1  0  0  0  0  0  0
  182.3360  172.4980  135.9790 C   0  0  0  0  0  2  0  0  0  0  0  0
  180.6470  177.0260  137.7600 O   0  0  0  0  0  0  0  0  0  0  0  0
  181.5520  177.9890  138.3100 C   0  0  2  0  0  3  0  0  0  0  0  0
  181.5760  177.3340  140.5930 O   0  0  0  0  0  0  0  0  0  0  0  0
  181.3660  178.2200  139.7830 C   0  0  0  0  0  3  0  0  0  0  0  0
  181.6300  179.2640  137.4740 C   0  0  0  0  0  2  0  0  0  0  0  0
  181.3510  181.4100  137.8950 C   0  0  0  0  0  1  0  0  0  0  0  0
  182.1530  180.3170  138.2290 O   0  0  0  0  0  0  0  0  0  0  0  0
  1 10  2  0  0  0  0
  2  6  2  0  0  0  0
  2 15  1  0  0  0  0
  3 17  1  0  0  0  0
  3  7  1  0  0  0  0
  5  4  1  0  0  0  0
  5 11  1  0  0  0  0
  6  5  1  0  0  0  0
  7 10  1  0  0  0  0
  8  4  1  0  0  0  0
  9  3  2  0  0  0  0
 11 14  1  0  0  0  0
 11 12  1  1  0  0  0
 12 17  2  0  0  0  0
 13 16  1  0  0  0  0
 13  6  1  0  0  0  0
 14  9  1  0  0  0  0
 15 14  2  0  0  0  0
 16 21  1  1  0  0  0
 16  8  1  0  0  0  0
 17  1  1  0  0  0  0
 19 15  1  6  0  0  0
 19 18  1  0  0  0  0
 20 19  1  0  0  0  0
 20 18  1  0  0  0  0
 22 21  1  0  0  0  0
 23 25  2  0  0  0  0
 23 24  1  0  0  0  0
 25 22  1  0  0  0  0
 26 24  1  0  0  0  0
 27 26  1  0  0  0  0
 28 27  1  0  0  0  0
 28 23  1  0  0  0  0
 29 38  1  1  0  0  0
 29 26  1  0  0  0  0
 31 34  1  0  0  0  0
 33 29  1  6  0  0  0
 33 32  1  0  0  0  0
 34 33  1  0  0  0  0
 34 30  1  0  0  0  0
 34 32  1  0  0  0  0
 35 38  2  0  0  0  0
 37 36  1  0  0  0  0
 38 36  1  0  0  0  0
 39  2  1  0  0  0  0
 40 44  1  6  0  0  0
 40 41  1  0  0  0  0
 40 43  1  0  0  0  0
 40 42  1  0  0  0  0
 41 42  1  0  0  0  0
 42 39  1  1  0  0  0
 43 42  1  0  0  0  0
 45 44  1  0  0  0  0
 45 46  1  0  0  0  0
 47 46  1  0  0  0  0
 47 48  1  0  0  0  0
 48 53  1  0  0  0  0
 48 51  2  1  0  0  0
 49 50  1  0  0  0  0
 49 52  1  0  0  0  0
 50 55  1  6  0  0  0
 50 48  1  0  0  0  0
 52 53  2  0  0  0  0
 53 56  1  0  0  0  0
 55 54  1  0  0  0  0
 56 57  1  0  0  0  0
 57 60  1  6  0  0  0
 57 59  1  0  0  0  0
 59 58  2  0  0  0  0
 60 62  1  0  0  0  0
 61 62  1  0  0  0  0
M  END
>  <MODEL>
3

>  <REMARK>
 VINA RESULT:      -6.7      4.050     10.838
  Name = 
  20 active torsions:
  status: ('A' for Active; 'I' for Inactive)
    1  A    between atoms: C_4  and  C_54
    2  A    between atoms: C_4  and  O_55
    3  A    between atoms: C_4  and  C_57
    4  A    between atoms: P_5  and  O_40
    5  A    between atoms: C_6  and  N_15
    6  A    between atoms: C_8  and  O_31
    7  A    between atoms: N_15  and  C_19
    8  A    between atoms: C_19  and  C_36
    9  A    between atoms: C_24  and  C_35
   10  A    between atoms: C_24  and  C_37
   11  A    between atoms: C_26  and  C_27
   12  A    between atoms: C_26  and  N_41
   13  A    between atoms: C_26  and  C_49
   14  A    between atoms: O_30  and  C_57
   15  A    between atoms: O_31  and  C_39
   16  A    between atoms: C_32  and  C_51
   17  A    between atoms: C_35  and  C_59
   18  A    between atoms: C_36  and  O_40
   19  A    between atoms: C_45  and  C_53
   20  A    between atoms: O_55  and  C_58
                            x       y       z     vdW  Elec       q    Type
                         _______ _______ _______ _____ _____    ______ ____

>  <TORSDO>
F 20

$$$$
=
 OpenBabel10232410103D

 62 71  0  0  1  0  0  0  0  0999 V2000
  189.9870  177.2460  146.5730 C   0  0  0  0  0  3  0  0  0  0  0  0
  186.1280  178.5930  141.6620 C   0  0  0  0  0  0  0  0  0  0  0  0
  187.7690  177.7760  146.1020 C   0  0  0  0  0  0  0  0  0  0  0  0
  189.6640  177.3160  141.4660 C   0  0  0  0  0  2  0  0  0  0  0  0
  188.3680  177.7250  142.0130 N   0  0  0  0  0  0  0  0  0  0  0  0
  187.3130  178.2070  141.1360 C   0  0  0  0  0  0  0  0  0  0  0  0
  187.8820  177.9570  147.7600 S   0  0  0  0  0  0  0  0  0  0  0  0
  190.0290  178.1340  140.2370 C   0  0  0  0  0  2  0  0  0  0  0  0
  186.7410  178.0790  145.3680 N   0  0  0  0  0  0  0  0  0  0  0  0
  189.5220  177.5330  147.8620 C   0  0  0  0  0  3  0  0  0  0  0  0
  188.0000  177.2110  143.3360 C   0  0  1  0  0  3  0  0  0  0  0  0
  189.1750  177.1550  144.2940 C   0  0  0  0  0  3  0  0  0  0  0  0
  187.6110  178.5130  139.6800 C   0  0  0  0  0  2  0  0  0  0  0  0
  186.8320  177.9730  143.9330 C   0  0  0  0  0  0  0  0  0  0  0  0
  185.9080  178.5470  143.1420 C   0  0  0  0  0  0  0  0  0  0  0  0
  188.9470  177.9750  139.1720 C   0  0  2  0  0  3  0  0  0  0  0  0
  188.9940  177.3780  145.5960 C   0  0  0  0  0  0  0  0  0  0  0  0
  184.0230  178.3500  144.7030 C   0  0  0  0  0  2  0  0  0  0  0  0
  184.7660  179.2800  143.8160 C   0  0  2  0  0  3  0  0  0  0  0  0
  183.4990  178.7690  143.4650 O   0  0  0  0  0  0  0  0  0  0  0  0
  188.7860  176.5370  138.6530 C   0  0  0  0  0  2  0  0  0  0  0  0
  189.7840  176.1630  137.5580 C   0  0  0  0  0  2  0  0  0  0  0  0
  192.2490  175.9350  137.4790 C   0  0  0  0  0  0  0  0  0  0  0  0
  192.2430  174.6350  136.7970 C   0  0  0  0  0  2  0  0  0  0  0  0
  191.1750  176.6340  137.8590 C   0  0  0  0  0  3  0  0  0  0  0  0
  193.6300  174.1920  136.8600 N   0  0  0  0  0  0  0  0  0  0  0  0
  194.4390  175.3480  136.9830 N   0  0  0  0  0  2  0  0  0  0  0  0
  193.6430  176.3420  137.6990 C   0  0  0  0  0  2  0  0  0  0  0  0
  193.9700  173.4630  135.6310 C   0  0  1  0  0  3  0  0  0  0  0  0
  197.7880  173.2140  135.9120 F   0  0  0  0  0  0  0  0  0  0  0  0
  196.0740  172.2500  137.2540 F   0  0  0  0  0  0  0  0  0  0  0  0
  195.9590  172.2090  134.9550 O   0  0  0  0  0  0  0  0  0  0  0  0
  195.4550  173.5110  135.1780 C   0  0  2  0  0  3  0  0  0  0  0  0
  196.4540  172.8860  136.0860 C   0  0  0  0  0  0  0  0  0  0  0  0
  192.1130  172.2680  134.6750 O   0  0  0  0  0  0  0  0  0  0  0  0
  193.5740  171.0020  135.9890 N   0  0  0  0  0  2  0  0  0  0  0  0
  192.8250  169.7650  135.8260 C   0  0  0  0  0  1  0  0  0  0  0  0
  193.1280  172.2380  135.4200 C   0  0  0  0  0  0  0  0  0  0  0  0
  185.1210  179.1230  140.8410 O   0  0  0  0  0  0  0  0  0  0  0  0
  183.0700  178.5310  139.4540 C   0  0  2  0  0  0  0  0  0  0  0  0
  183.6990  177.4320  140.2580 C   0  0  0  0  0  2  0  0  0  0  0  0
  184.6330  178.4590  139.6810 C   0  0  2  0  0  0  0  0  0  0  0  0
  183.9930  179.5720  138.9040 C   0  0  0  0  0  2  0  0  0  0  0  0
  182.4630  177.8920  138.2690 N   0  0  0  0  0  2  0  0  0  0  0  0
  181.0080  177.7060  138.3050 C   0  0  0  0  0  2  0  0  0  0  0  0
  180.6890  176.2310  138.4580 C   0  0  0  0  0  2  0  0  0  0  0  0
  181.7700  175.4670  138.0170 O   0  0  0  0  0  0  0  0  0  0  0  0
  181.4270  175.0470  136.4030 P   0  0  1  0  0  0  0  0  0  0  0  0
  181.6640  172.5560  135.8260 O   0  0  0  0  0  0  0  0  0  0  0  0
  180.6170  173.4330  136.2170 C   0  0  1  0  0  3  0  0  0  0  0  0
  180.7120  176.1400  135.6350 O   0  0  0  0  0  0  0  0  0  0  0  0
  182.8350  173.1470  135.4010 N   0  0  0  0  0  0  0  0  0  0  0  0
  182.8750  174.4250  135.5710 C   0  0  0  0  0  0  0  0  0  0  0  0
  180.7520  171.9250  138.0470 O   0  0  0  0  0  1  0  0  0  0  0  0
  179.9820  172.9520  137.5020 C   0  0  0  0  0  2  0  0  0  0  0  0
  183.9700  175.1680  135.1120 O   0  0  0  0  0  0  0  0  0  0  0  0
  185.1050  175.5880  135.8760 C   0  0  2  0  0  3  0  0  0  0  0  0
  186.2580  177.5860  136.4470 O   0  0  0  0  0  0  0  0  0  0  0  0
  185.3960  177.0580  135.7650 C   0  0  0  0  0  3  0  0  0  0  0  0
  186.3180  174.6860  135.6690 C   0  0  0  0  0  2  0  0  0  0  0  0
  185.9930  173.1020  137.1690 C   0  0  0  0  0  1  0  0  0  0  0  0
  186.7950  174.2120  136.8950 O   0  0  0  0  0  0  0  0  0  0  0  0
  1 10  2  0  0  0  0
  2 15  1  0  0  0  0
  3  7  1  0  0  0  0
  4  5  1  0  0  0  0
  5 11  1  0  0  0  0
  6  2  2  0  0  0  0
  6  5  1  0  0  0  0
  7 10  1  0  0  0  0
  8  4  1  0  0  0  0
  9  3  2  0  0  0  0
 11 14  1  0  0  0  0
 11 12  1  1  0  0  0
 12 17  2  0  0  0  0
 13  6  1  0  0  0  0
 14  9  1  0  0  0  0
 15 14  2  0  0  0  0
 16 21  1  1  0  0  0
 16 13  1  0  0  0  0
 16  8  1  0  0  0  0
 17  3  1  0  0  0  0
 17  1  1  0  0  0  0
 19 15  1  6  0  0  0
 19 18  1  0  0  0  0
 20 19  1  0  0  0  0
 20 18  1  0  0  0  0
 22 25  1  0  0  0  0
 22 21  1  0  0  0  0
 23 28  1  0  0  0  0
 23 25  2  0  0  0  0
 24 26  1  0  0  0  0
 24 23  1  0  0  0  0
 26 27  1  0  0  0  0
 27 28  1  0  0  0  0
 29 38  1  1  0  0  0
 29 26  1  0  0  0  0
 30 34  1  0  0  0  0
 32 33  1  0  0  0  0
 32 34  1  0  0  0  0
 33 29  1  1  0  0  0
 33 34  1  0  0  0  0
 34 31  1  0  0  0  0
 35 38  2  0  0  0  0
 37 36  1  0  0  0  0
 38 36  1  0  0  0  0
 39  2  1  0  0  0  0
 40 44  1  6  0  0  0
 40 42  1  0  0  0  0
 40 41  1  0  0  0  0
 42 41  1  0  0  0  0
 42 39  1  1  0  0  0
 43 40  1  0  0  0  0
 43 42  1  0  0  0  0
 44 45  1  0  0  0  0
 45 46  1  0  0  0  0
 47 46  1  0  0  0  0
 48 51  2  6  0  0  0
 48 47  1  0  0  0  0
 49 50  1  0  0  0  0
 50 48  1  0  0  0  0
 50 55  1  1  0  0  0
 52 53  2  0  0  0  0
 52 49  1  0  0  0  0
 53 48  1  0  0  0  0
 55 54  1  0  0  0  0
 56 53  1  0  0  0  0
 56 57  1  0  0  0  0
 57 60  1  6  0  0  0
 59 57  1  0  0  0  0
 59 58  2  0  0  0  0
 60 62  1  0  0  0  0
 62 61  1  0  0  0  0
M  END
>  <MODEL>
4

>  <REMARK>
 VINA RESULT:      -6.6      3.988     10.352
  Name = 
  20 active torsions:
  status: ('A' for Active; 'I' for Inactive)
    1  A    between atoms: C_4  and  C_54
    2  A    between atoms: C_4  and  O_55
    3  A    between atoms: C_4  and  C_57
    4  A    between atoms: P_5  and  O_40
    5  A    between atoms: C_6  and  N_15
    6  A    between atoms: C_8  and  O_31
    7  A    between atoms: N_15  and  C_19
    8  A    between atoms: C_19  and  C_36
    9  A    between atoms: C_24  and  C_35
   10  A    between atoms: C_24  and  C_37
   11  A    between atoms: C_26  and  C_27
   12  A    between atoms: C_26  and  N_41
   13  A    between atoms: C_26  and  C_49
   14  A    between atoms: O_30  and  C_57
   15  A    between atoms: O_31  and  C_39
   16  A    between atoms: C_32  and  C_51
   17  A    between atoms: C_35  and  C_59
   18  A    between atoms: C_36  and  O_40
   19  A    between atoms: C_45  and  C_53
   20  A    between atoms: O_55  and  C_58
                            x       y       z     vdW  Elec       q    Type
                         _______ _______ _______ _____ _____    ______ ____

>  <TORSDO>
F 20

$$$$
=
 OpenBabel10232410103D

 62 71  0  0  1  0  0  0  0  0999 V2000
  189.3070  177.0950  147.0050 C   0  0  0  0  0  3  0  0  0  0  0  0
  186.3960  178.6650  141.5380 C   0  0  0  0  0  0  0  0  0  0  0  0
  187.2630  177.8610  146.1950 C   0  0  0  0  0  0  0  0  0  0  0  0
  189.7390  176.9710  141.9080 C   0  0  0  0  0  2  0  0  0  0  0  0
  188.4370  177.5550  142.2430 N   0  0  0  0  0  0  0  0  0  0  0  0
  187.5890  178.1170  141.2060 C   0  0  0  0  0  0  0  0  0  0  0  0
  187.1560  178.1020  147.8440 S   0  0  0  0  0  0  0  0  0  0  0  0
  190.3760  177.6830  140.7240 C   0  0  0  0  0  2  0  0  0  0  0  0
  186.3980  178.2500  145.3070 N   0  0  0  0  0  0  0  0  0  0  0  0
  188.6990  177.4920  148.2020 C   0  0  0  0  0  3  0  0  0  0  0  0
  187.8210  177.1480  143.5100 C   0  0  1  0  0  3  0  0  0  0  0  0
  188.8290  176.9970  144.6340 C   0  0  0  0  0  3  0  0  0  0  0  0
  188.1300  178.3200  139.8020 C   0  0  0  0  0  2  0  0  0  0  0  0
  186.6820  178.0690  143.9050 C   0  0  0  0  0  0  0  0  0  0  0  0
  185.9600  178.7120  142.9700 C   0  0  0  0  0  0  0  0  0  0  0  0
  189.4480  177.6060  139.5150 C   0  0  2  0  0  3  0  0  0  0  0  0
  188.4890  177.2980  145.8880 C   0  0  0  0  0  0  0  0  0  0  0  0
  183.9300  178.8420  144.3440 C   0  0  0  0  0  2  0  0  0  0  0  0
  184.8330  179.6040  143.4450 C   0  0  2  0  0  3  0  0  0  0  0  0
  183.5620  179.1600  143.0220 O   0  0  0  0  0  0  0  0  0  0  0  0
  189.1880  176.1750  139.0180 C   0  0  0  0  0  2  0  0  0  0  0  0
  189.1720  176.0460  137.4940 C   0  0  0  0  0  2  0  0  0  0  0  0
  191.5630  176.2800  136.8920 C   0  0  0  0  0  0  0  0  0  0  0  0
  192.0000  175.0720  137.6020 C   0  0  0  0  0  2  0  0  0  0  0  0
  190.3170  176.7620  136.8440 C   0  0  0  0  0  3  0  0  0  0  0  0
  193.4550  175.1470  137.5710 N   0  0  0  0  0  0  0  0  0  0  0  0
  193.8160  175.9380  136.4530 N   0  0  0  0  0  2  0  0  0  0  0  0
  192.7320  176.8970  136.2510 C   0  0  0  0  0  2  0  0  0  0  0  0
  194.0150  173.7960  137.4390 C   0  0  1  0  0  3  0  0  0  0  0  0
  194.0050  170.9250  134.8930 F   0  0  0  0  0  0  0  0  0  0  0  0
  194.0630  170.8810  137.2730 F   0  0  0  0  0  0  0  0  0  0  0  0
  192.6170  172.2670  136.1380 O   0  0  0  0  0  0  0  0  0  0  0  0
  193.7800  173.0700  136.0860 C   0  0  2  0  0  3  0  0  0  0  0  0
  193.8480  171.5850  136.1020 C   0  0  0  0  0  0  0  0  0  0  0  0
  195.3460  172.7790  139.1670 O   0  0  0  0  0  0  0  0  0  0  0  0
  196.4600  174.2940  137.7800 N   0  0  0  0  0  2  0  0  0  0  0  0
  197.7340  174.1600  138.4690 C   0  0  0  0  0  1  0  0  0  0  0  0
  195.2840  173.6050  138.2170 C   0  0  0  0  0  0  0  0  0  0  0  0
  185.5920  179.2720  140.5620 O   0  0  0  0  0  0  0  0  0  0  0  0
  183.2950  178.6690  139.6440 C   0  0  2  0  0  0  0  0  0  0  0  0
  184.0290  177.6130  140.4160 C   0  0  0  0  0  2  0  0  0  0  0  0
  184.8700  178.5370  139.5800 C   0  0  2  0  0  0  0  0  0  0  0  0
  184.1320  179.6100  138.8360 C   0  0  0  0  0  2  0  0  0  0  0  0
  182.4530  177.9620  138.6580 N   0  0  0  0  0  2  0  0  0  0  0  0
  182.1400  176.5600  138.9590 C   0  0  0  0  0  2  0  0  0  0  0  0
  181.2420  175.9980  137.8730 C   0  0  0  0  0  2  0  0  0  0  0  0
  181.2660  174.6030  137.9160 O   0  0  0  0  0  0  0  0  0  0  0  0
  181.9190  174.0940  136.4290 P   0  0  1  0  0  0  0  0  0  0  0  0
  182.3030  171.5670  136.1900 O   0  0  0  0  0  0  0  0  0  0  0  0
  181.2810  172.4950  135.8530 C   0  0  1  0  0  3  0  0  0  0  0  0
  181.8620  175.1570  135.3500 O   0  0  0  0  0  0  0  0  0  0  0  0
  183.5310  172.0970  136.5240 N   0  0  0  0  0  0  0  0  0  0  0  0
  183.5380  173.3810  136.6410 C   0  0  0  0  0  0  0  0  0  0  0  0
  180.2470  171.6160  137.8010 O   0  0  0  0  0  1  0  0  0  0  0  0
  179.9830  172.1120  136.5250 C   0  0  0  0  0  2  0  0  0  0  0  0
  184.7350  174.0630  136.8960 O   0  0  0  0  0  0  0  0  0  0  0  0
  185.3670  175.0360  136.0570 C   0  0  2  0  0  3  0  0  0  0  0  0
  187.2330  173.5840  135.8300 O   0  0  0  0  0  0  0  0  0  0  0  0
  186.8020  174.7200  135.7420 C   0  0  0  0  0  3  0  0  0  0  0  0
  185.1220  176.4660  136.5300 C   0  0  0  0  0  2  0  0  0  0  0  0
  186.5650  177.8660  135.6250 C   0  0  0  0  0  1  0  0  0  0  0  0
  185.2700  177.3680  135.4720 O   0  0  0  0  0  0  0  0  0  0  0  0
  1 10  2  0  0  0  0
  2 15  1  0  0  0  0
  3  7  1  0  0  0  0
  4  5  1  0  0  0  0
  5 11  1  0  0  0  0
  6  2  2  0  0  0  0
  6  5  1  0  0  0  0
  7 10  1  0  0  0  0
  8  4  1  0  0  0  0
  9  3  2  0  0  0  0
 11 14  1  0  0  0  0
 11 12  1  1  0  0  0
 12 17  2  0  0  0  0
 13  6  1  0  0  0  0
 14  9  1  0  0  0  0
 15 14  2  0  0  0  0
 16 21  1  1  0  0  0
 16 13  1  0  0  0  0
 16  8  1  0  0  0  0
 17  3  1  0  0  0  0
 17  1  1  0  0  0  0
 19 15  1  6  0  0  0
 19 18  1  0  0  0  0
 20 19  1  0  0  0  0
 20 18  1  0  0  0  0
 22 21  1  0  0  0  0
 23 24  1  0  0  0  0
 25 23  2  0  0  0  0
 25 22  1  0  0  0  0
 26 24  1  0  0  0  0
 27 26  1  0  0  0  0
 28 27  1  0  0  0  0
 28 23  1  0  0  0  0
 29 26  1  0  0  0  0
 29 38  1  6  0  0  0
 30 34  1  0  0  0  0
 33 34  1  0  0  0  0
 33 32  1  0  0  0  0
 33 29  1  1  0  0  0
 34 32  1  0  0  0  0
 34 31  1  0  0  0  0
 36 38  1  0  0  0  0
 36 37  1  0  0  0  0
 38 35  2  0  0  0  0
 39  2  1  0  0  0  0
 40 44  1  6  0  0  0
 40 41  1  0  0  0  0
 42 40  1  0  0  0  0
 42 41  1  0  0  0  0
 42 39  1  1  0  0  0
 43 42  1  0  0  0  0
 43 40  1  0  0  0  0
 44 45  1  0  0  0  0
 46 47  1  0  0  0  0
 46 45  1  0  0  0  0
 48 51  2  6  0  0  0
 48 53  1  0  0  0  0
 48 47  1  0  0  0  0
 49 52  1  0  0  0  0
 50 49  1  0  0  0  0
 50 48  1  0  0  0  0
 50 55  1  1  0  0  0
 52 53  2  0  0  0  0
 53 56  1  0  0  0  0
 55 54  1  0  0  0  0
 57 59  1  1  0  0  0
 57 60  1  0  0  0  0
 57 56  1  0  0  0  0
 59 58  2  0  0  0  0
 62 61  1  0  0  0  0
 62 60  1  0  0  0  0
M  END
>  <MODEL>
5

>  <REMARK>
 VINA RESULT:      -6.5      3.949      9.968
  Name = 
  20 active torsions:
  status: ('A' for Active; 'I' for Inactive)
    1  A    between atoms: C_4  and  C_54
    2  A    between atoms: C_4  and  O_55
    3  A    between atoms: C_4  and  C_57
    4  A    between atoms: P_5  and  O_40
    5  A    between atoms: C_6  and  N_15
    6  A    between atoms: C_8  and  O_31
    7  A    between atoms: N_15  and  C_19
    8  A    between atoms: C_19  and  C_36
    9  A    between atoms: C_24  and  C_35
   10  A    between atoms: C_24  and  C_37
   11  A    between atoms: C_26  and  C_27
   12  A    between atoms: C_26  and  N_41
   13  A    between atoms: C_26  and  C_49
   14  A    between atoms: O_30  and  C_57
   15  A    between atoms: O_31  and  C_39
   16  A    between atoms: C_32  and  C_51
   17  A    between atoms: C_35  and  C_59
   18  A    between atoms: C_36  and  O_40
   19  A    between atoms: C_45  and  C_53
   20  A    between atoms: O_55  and  C_58
                            x       y       z     vdW  Elec       q    Type
                         _______ _______ _______ _____ _____    ______ ____

>  <TORSDO>
F 20

$$$$
=
 OpenBabel10232410103D

 62 71  0  0  1  0  0  0  0  0999 V2000
  189.3920  177.0600  146.3190 C   0  0  0  0  0  3  0  0  0  0  0  0
  187.7800  178.2230  140.2470 C   0  0  0  0  0  0  0  0  0  0  0  0
  187.5640  177.6750  145.0150 C   0  0  0  0  0  0  0  0  0  0  0  0
  191.0140  176.7370  141.4770 C   0  0  0  0  0  2  0  0  0  0  0  0
  189.6460  177.2610  141.4680 N   0  0  0  0  0  0  0  0  0  0  0  0
  189.0400  177.7290  140.2320 C   0  0  0  0  0  0  0  0  0  0  0  0
  187.0630  177.9820  146.5790 S   0  0  0  0  0  0  0  0  0  0  0  0
  191.8780  177.4310  140.4360 C   0  0  0  0  0  2  0  0  0  0  0  0
  186.9150  177.9750  143.9300 N   0  0  0  0  0  0  0  0  0  0  0  0
  188.5040  177.4750  147.3190 C   0  0  0  0  0  3  0  0  0  0  0  0
  188.7670  176.8760  142.5780 C   0  0  1  0  0  3  0  0  0  0  0  0
  189.4890  176.8320  143.9110 C   0  0  0  0  0  3  0  0  0  0  0  0
  189.8860  177.9000  138.9830 C   0  0  0  0  0  2  0  0  0  0  0  0
  187.5280  177.7490  142.6450 C   0  0  0  0  0  0  0  0  0  0  0  0
  187.0180  178.3080  141.5330 C   0  0  0  0  0  0  0  0  0  0  0  0
  191.2650  177.2480  139.0500 C   0  0  2  0  0  3  0  0  0  0  0  0
  188.8520  177.1680  145.0330 C   0  0  0  0  0  0  0  0  0  0  0  0
  184.5730  178.3590  141.3240 C   0  0  0  0  0  2  0  0  0  0  0  0
  185.7730  179.1560  141.6830 C   0  0  2  0  0  3  0  0  0  0  0  0
  185.0870  179.3500  140.4660 O   0  0  0  0  0  0  0  0  0  0  0  0
  191.1920  175.7850  138.5870 C   0  0  0  0  0  2  0  0  0  0  0  0
  191.0630  175.6250  137.0720 C   0  0  0  0  0  2  0  0  0  0  0  0
  193.4090  176.0130  136.3800 C   0  0  0  0  0  0  0  0  0  0  0  0
  193.9710  174.9280  137.1920 C   0  0  0  0  0  2  0  0  0  0  0  0
  192.1220  176.3730  136.3200 C   0  0  0  0  0  3  0  0  0  0  0  0
  195.4110  175.1310  137.1120 N   0  0  0  0  0  0  0  0  0  0  0  0
  195.6740  175.8350  135.9110 N   0  0  0  0  0  2  0  0  0  0  0  0
  194.5020  176.6650  135.6470 C   0  0  0  0  0  2  0  0  0  0  0  0
  196.0930  173.8300  137.0970 C   0  0  1  0  0  3  0  0  0  0  0  0
  195.8240  170.5980  135.0460 F   0  0  0  0  0  0  0  0  0  0  0  0
  195.7040  170.9520  137.3980 F   0  0  0  0  0  0  0  0  0  0  0  0
  194.5730  172.3130  135.9250 O   0  0  0  0  0  0  0  0  0  0  0  0
  195.8460  172.9250  135.8590 C   0  0  2  0  0  3  0  0  0  0  0  0
  195.6840  171.4690  136.1150 C   0  0  0  0  0  0  0  0  0  0  0  0
  198.2920  172.9730  137.5630 O   0  0  0  0  0  0  0  0  0  0  0  0
  197.7210  174.9620  138.6490 N   0  0  0  0  0  2  0  0  0  0  0  0
  198.9870  175.0680  139.3580 C   0  0  0  0  0  1  0  0  0  0  0  0
  197.4200  173.8510  137.7970 C   0  0  0  0  0  0  0  0  0  0  0  0
  187.2010  178.7410  139.0790 O   0  0  0  0  0  0  0  0  0  0  0  0
  187.0600  178.0160  136.6420 C   0  0  2  0  0  0  0  0  0  0  0  0
  186.0010  178.9530  137.1460 C   0  0  0  0  0  2  0  0  0  0  0  0
  186.5170  177.9350  138.1250 C   0  0  2  0  0  0  0  0  0  0  0  0
  187.5980  177.0230  137.6230 C   0  0  0  0  0  2  0  0  0  0  0  0
  186.4330  177.2050  135.5790 N   0  0  0  0  0  2  0  0  0  0  0  0
  184.9680  177.1360  135.5950 C   0  0  0  0  0  2  0  0  0  0  0  0
  184.5320  175.7110  135.8800 C   0  0  0  0  0  2  0  0  0  0  0  0
  183.1420  175.6150  135.7890 O   0  0  0  0  0  0  0  0  0  0  0  0
  182.6720  174.4440  136.9320 P   0  0  1  0  0  0  0  0  0  0  0  0
  181.1450  172.5780  136.0480 O   0  0  0  0  0  0  0  0  0  0  0  0
  182.5380  172.7650  136.2530 C   0  0  1  0  0  3  0  0  0  0  0  0
  183.4900  174.4830  138.2070 O   0  0  0  0  0  0  0  0  0  0  0  0
  180.3050  173.4840  136.6630 N   0  0  0  0  0  0  0  0  0  0  0  0
  180.9140  174.4790  137.2130 C   0  0  0  0  0  0  0  0  0  0  0  0
  184.4070  171.8020  135.1500 O   0  0  0  0  0  1  0  0  0  0  0  0
  183.2850  172.6050  134.9490 C   0  0  0  0  0  2  0  0  0  0  0  0
  180.1940  175.4340  137.9440 O   0  0  0  0  0  0  0  0  0  0  0  0
  180.6230  176.7550  138.2890 C   0  0  2  0  0  3  0  0  0  0  0  0
  181.4830  177.1890  140.4600 O   0  0  0  0  0  0  0  0  0  0  0  0
  180.4980  177.0670  139.7530 C   0  0  0  0  0  3  0  0  0  0  0  0
  180.0430  177.8210  137.3630 C   0  0  0  0  0  2  0  0  0  0  0  0
  181.7340  179.2290  137.2290 C   0  0  0  0  0  1  0  0  0  0  0  0
  180.4510  179.0960  137.7630 O   0  0  0  0  0  0  0  0  0  0  0  0
  1 10  2  0  0  0  0
  2 15  1  0  0  0  0
  3 17  1  0  0  0  0
  3  7  1  0  0  0  0
  5  4  1  0  0  0  0
  5 11  1  0  0  0  0
  6  2  2  0  0  0  0
  6  5  1  0  0  0  0
  7 10  1  0  0  0  0
  8  4  1  0  0  0  0
  9  3  2  0  0  0  0
 11 14  1  0  0  0  0
 11 12  1  1  0  0  0
 12 17  2  0  0  0  0
 13 16  1  0  0  0  0
 13  6  1  0  0  0  0
 14  9  1  0  0  0  0
 15 14  2  0  0  0  0
 16 21  1  1  0  0  0
 16  8  1  0  0  0  0
 17  1  1  0  0  0  0
 18 19  1  0  0  0  0
 19 15  1  6  0  0  0
 20 18  1  0  0  0  0
 20 19  1  0  0  0  0
 22 21  1  0  0  0  0
 23 24  1  0  0  0  0
 25 23  2  0  0  0  0
 25 22  1  0  0  0  0
 26 24  1  0  0  0  0
 27 26  1  0  0  0  0
 28 27  1  0  0  0  0
 28 23  1  0  0  0  0
 29 26  1  0  0  0  0
 29 38  1  6  0  0  0
 30 34  1  0  0  0  0
 32 34  1  0  0  0  0
 33 32  1  0  0  0  0
 33 34  1  0  0  0  0
 33 29  1  1  0  0  0
 34 31  1  0  0  0  0
 35 38  2  0  0  0  0
 36 37  1  0  0  0  0
 38 36  1  0  0  0  0
 39  2  1  0  0  0  0
 40 44  1  6  0  0  0
 40 41  1  0  0  0  0
 40 43  1  0  0  0  0
 40 42  1  0  0  0  0
 41 42  1  0  0  0  0
 42 39  1  1  0  0  0
 43 42  1  0  0  0  0
 44 45  1  0  0  0  0
 45 46  1  0  0  0  0
 47 46  1  0  0  0  0
 47 48  1  0  0  0  0
 48 53  1  0  0  0  0
 48 51  2  1  0  0  0
 49 50  1  0  0  0  0
 49 52  1  0  0  0  0
 50 55  1  6  0  0  0
 50 48  1  0  0  0  0
 52 53  2  0  0  0  0
 53 56  1  0  0  0  0
 55 54  1  0  0  0  0
 56 57  1  0  0  0  0
 57 60  1  6  0  0  0
 57 59  1  0  0  0  0
 59 58  2  0  0  0  0
 60 62  1  0  0  0  0
 61 62  1  0  0  0  0
M  END
>  <MODEL>
6

>  <REMARK>
 VINA RESULT:      -6.4      4.024     10.701
  Name = 
  20 active torsions:
  status: ('A' for Active; 'I' for Inactive)
    1  A    between atoms: C_4  and  C_54
    2  A    between atoms: C_4  and  O_55
    3  A    between atoms: C_4  and  C_57
    4  A    between atoms: P_5  and  O_40
    5  A    between atoms: C_6  and  N_15
    6  A    between atoms: C_8  and  O_31
    7  A    between atoms: N_15  and  C_19
    8  A    between atoms: C_19  and  C_36
    9  A    between atoms: C_24  and  C_35
   10  A    between atoms: C_24  and  C_37
   11  A    between atoms: C_26  and  C_27
   12  A    between atoms: C_26  and  N_41
   13  A    between atoms: C_26  and  C_49
   14  A    between atoms: O_30  and  C_57
   15  A    between atoms: O_31  and  C_39
   16  A    between atoms: C_32  and  C_51
   17  A    between atoms: C_35  and  C_59
   18  A    between atoms: C_36  and  O_40
   19  A    between atoms: C_45  and  C_53
   20  A    between atoms: O_55  and  C_58
                            x       y       z     vdW  Elec       q    Type
                         _______ _______ _______ _____ _____    ______ ____

>  <TORSDO>
F 20

$$$$
=
 OpenBabel10232410103D

 62 71  0  0  1  0  0  0  0  0999 V2000
  188.5440  177.6030  146.9510 C   0  0  0  0  0  3  0  0  0  0  0  0
  187.5670  178.1640  140.6620 C   0  0  0  0  0  0  0  0  0  0  0  0
  186.8470  178.0060  145.4090 C   0  0  0  0  0  0  0  0  0  0  0  0
  190.7080  176.9660  142.3580 C   0  0  0  0  0  2  0  0  0  0  0  0
  189.3270  177.4120  142.1560 N   0  0  0  0  0  0  0  0  0  0  0  0
  188.8420  177.7410  140.8260 C   0  0  0  0  0  0  0  0  0  0  0  0
  186.1610  178.4140  146.8770 S   0  0  0  0  0  0  0  0  0  0  0  0
  191.6510  177.6170  141.3580 C   0  0  0  0  0  2  0  0  0  0  0  0
  186.3100  178.1780  144.2390 N   0  0  0  0  0  0  0  0  0  0  0  0
  187.5320  178.0510  147.8090 C   0  0  0  0  0  3  0  0  0  0  0  0
  188.3490  177.0730  143.1960 C   0  0  1  0  0  3  0  0  0  0  0  0
  188.9190  177.1800  144.5970 C   0  0  0  0  0  3  0  0  0  0  0  0
  189.8130  177.8530  139.6650 C   0  0  0  0  0  2  0  0  0  0  0  0
  187.0720  177.8790  143.0520 C   0  0  0  0  0  0  0  0  0  0  0  0
  186.6640  178.3150  141.8460 C   0  0  0  0  0  0  0  0  0  0  0  0
  191.2050  177.2860  139.9370 C   0  0  2  0  0  3  0  0  0  0  0  0
  188.1460  177.5740  145.6110 C   0  0  0  0  0  0  0  0  0  0  0  0
  184.2330  178.2350  142.1750 C   0  0  0  0  0  2  0  0  0  0  0  0
  185.3720  179.1030  141.7860 C   0  0  2  0  0  3  0  0  0  0  0  0
  184.4620  178.5980  140.8340 O   0  0  0  0  0  0  0  0  0  0  0  0
  191.2510  175.7870  139.6000 C   0  0  0  0  0  2  0  0  0  0  0  0
  191.1230  175.4880  138.1070 C   0  0  0  0  0  2  0  0  0  0  0  0
  193.2770  176.1110  137.0560 C   0  0  0  0  0  0  0  0  0  0  0  0
  194.0370  174.9980  137.6350 C   0  0  0  0  0  2  0  0  0  0  0  0
  191.9830  176.3790  137.2640 C   0  0  0  0  0  3  0  0  0  0  0  0
  195.4250  175.3130  137.3230 N   0  0  0  0  0  0  0  0  0  0  0  0
  195.4240  176.1460  136.1770 N   0  0  0  0  0  2  0  0  0  0  0  0
  194.1790  176.9090  136.2160 C   0  0  0  0  0  2  0  0  0  0  0  0
  196.1630  174.0730  137.0490 C   0  0  1  0  0  3  0  0  0  0  0  0
  199.8430  173.5180  137.9820 F   0  0  0  0  0  0  0  0  0  0  0  0
  198.8730  174.6570  136.1300 F   0  0  0  0  0  0  0  0  0  0  0  0
  198.0840  174.9670  138.2710 O   0  0  0  0  0  0  0  0  0  0  0  0
  197.3920  173.7760  137.9510 C   0  0  2  0  0  3  0  0  0  0  0  0
  198.7310  174.0870  137.3820 C   0  0  0  0  0  0  0  0  0  0  0  0
  194.8240  173.0000  135.3620 O   0  0  0  0  0  0  0  0  0  0  0  0
  195.0890  171.8170  137.3600 N   0  0  0  0  0  2  0  0  0  0  0  0
  194.2640  170.6960  136.9350 C   0  0  0  0  0  1  0  0  0  0  0  0
  195.2880  172.9680  136.5330 C   0  0  0  0  0  0  0  0  0  0  0  0
  187.1000  178.5500  139.3970 O   0  0  0  0  0  0  0  0  0  0  0  0
  186.4380  178.1740  136.9680 C   0  0  2  0  0  0  0  0  0  0  0  0
  185.3310  178.3220  137.9690 C   0  0  0  0  0  2  0  0  0  0  0  0
  186.5770  177.6290  138.4460 C   0  0  2  0  0  0  0  0  0  0  0  0
  187.6920  177.5130  137.4470 C   0  0  0  0  0  2  0  0  0  0  0  0
  185.9240  177.2930  135.8990 N   0  0  0  0  0  2  0  0  0  0  0  0
  185.9990  175.8500  136.1560 C   0  0  0  0  0  2  0  0  0  0  0  0
  184.6750  175.3660  136.7160 C   0  0  0  0  0  2  0  0  0  0  0  0
  184.7130  173.9820  136.8890 O   0  0  0  0  0  0  0  0  0  0  0  0
  183.8630  173.3160  135.5740 P   0  0  1  0  0  0  0  0  0  0  0  0
  182.6650  171.0920  136.0340 O   0  0  0  0  0  0  0  0  0  0  0  0
  182.3250  172.4710  136.0420 C   0  0  1  0  0  3  0  0  0  0  0  0
  183.6560  174.2920  134.4330 O   0  0  0  0  0  0  0  0  0  0  0  0
  183.8490  170.7520  135.4130 N   0  0  0  0  0  0  0  0  0  0  0  0
  184.5700  171.7630  135.0620 C   0  0  0  0  0  0  0  0  0  0  0  0
  180.6800  173.6580  137.2770 O   0  0  0  0  0  1  0  0  0  0  0  0
  181.8310  172.8810  137.4100 C   0  0  0  0  0  2  0  0  0  0  0  0
  185.7600  171.5710  134.3490 O   0  0  0  0  0  0  0  0  0  0  0  0
  186.9070  170.8280  134.7750 C   0  0  2  0  0  3  0  0  0  0  0  0
  187.2760  168.6150  135.5540 O   0  0  0  0  0  0  0  0  0  0  0  0
  186.7020  169.3400  134.7610 C   0  0  0  0  0  3  0  0  0  0  0  0
  187.5100  171.3720  136.0680 C   0  0  0  0  0  2  0  0  0  0  0  0
  188.3580  173.0830  137.1700 C   0  0  0  0  0  1  0  0  0  0  0  0
  187.7290  172.7490  135.9690 O   0  0  0  0  0  0  0  0  0  0  0  0
  1 10  2  0  0  0  0
  2  6  2  0  0  0  0
  2 15  1  0  0  0  0
  3 17  1  0  0  0  0
  3  7  1  0  0  0  0
  5  4  1  0  0  0  0
  5 11  1  0  0  0  0
  6  5  1  0  0  0  0
  7 10  1  0  0  0  0
  8  4  1  0  0  0  0
  9  3  2  0  0  0  0
 11 12  1  1  0  0  0
 12 17  2  0  0  0  0
 13 16  1  0  0  0  0
 13  6  1  0  0  0  0
 14 11  1  0  0  0  0
 14  9  1  0  0  0  0
 15 14  2  0  0  0  0
 16 21  1  1  0  0  0
 16  8  1  0  0  0  0
 17  1  1  0  0  0  0
 19 15  1  6  0  0  0
 19 18  1  0  0  0  0
 20 19  1  0  0  0  0
 20 18  1  0  0  0  0
 22 21  1  0  0  0  0
 23 25  2  0  0  0  0
 23 24  1  0  0  0  0
 25 22  1  0  0  0  0
 26 24  1  0  0  0  0
 27 28  1  0  0  0  0
 27 26  1  0  0  0  0
 28 23  1  0  0  0  0
 29 38  1  1  0  0  0
 29 26  1  0  0  0  0
 31 34  1  0  0  0  0
 33 29  1  6  0  0  0
 33 32  1  0  0  0  0
 34 33  1  0  0  0  0
 34 30  1  0  0  0  0
 34 32  1  0  0  0  0
 35 38  2  0  0  0  0
 37 36  1  0  0  0  0
 38 36  1  0  0  0  0
 39  2  1  0  0  0  0
 40 44  1  6  0  0  0
 40 43  1  0  0  0  0
 40 41  1  0  0  0  0
 40 42  1  0  0  0  0
 41 42  1  0  0  0  0
 42 39  1  1  0  0  0
 43 42  1  0  0  0  0
 44 45  1  0  0  0  0
 45 46  1  0  0  0  0
 46 47  1  0  0  0  0
 48 51  2  6  0  0  0
 48 50  1  0  0  0  0
 48 47  1  0  0  0  0
 49 50  1  0  0  0  0
 50 55  1  1  0  0  0
 52 49  1  0  0  0  0
 53 52  2  0  0  0  0
 53 48  1  0  0  0  0
 54 55  1  0  0  0  0
 56 57  1  0  0  0  0
 56 53  1  0  0  0  0
 57 59  1  1  0  0  0
 57 60  1  0  0  0  0
 59 58  2  0  0  0  0
 62 60  1  0  0  0  0
 62 61  1  0  0  0  0
M  END
>  <MODEL>
7

>  <REMARK>
 VINA RESULT:      -6.3      4.046      9.755
  Name = 
  20 active torsions:
  status: ('A' for Active; 'I' for Inactive)
    1  A    between atoms: C_4  and  C_54
    2  A    between atoms: C_4  and  O_55
    3  A    between atoms: C_4  and  C_57
    4  A    between atoms: P_5  and  O_40
    5  A    between atoms: C_6  and  N_15
    6  A    between atoms: C_8  and  O_31
    7  A    between atoms: N_15  and  C_19
    8  A    between atoms: C_19  and  C_36
    9  A    between atoms: C_24  and  C_35
   10  A    between atoms: C_24  and  C_37
   11  A    between atoms: C_26  and  C_27
   12  A    between atoms: C_26  and  N_41
   13  A    between atoms: C_26  and  C_49
   14  A    between atoms: O_30  and  C_57
   15  A    between atoms: O_31  and  C_39
   16  A    between atoms: C_32  and  C_51
   17  A    between atoms: C_35  and  C_59
   18  A    between atoms: C_36  and  O_40
   19  A    between atoms: C_45  and  C_53
   20  A    between atoms: O_55  and  C_58
                            x       y       z     vdW  Elec       q    Type
                         _______ _______ _______ _____ _____    ______ ____

>  <TORSDO>
F 20

$$$$
=
 OpenBabel10232410103D

 62 71  0  0  1  0  0  0  0  0999 V2000
  184.4060  168.8250  135.1740 C   0  0  0  0  0  3  0  0  0  0  0  0
  184.9510  175.0960  136.2640 C   0  0  0  0  0  0  0  0  0  0  0  0
  183.1180  170.7590  135.3150 C   0  0  0  0  0  0  0  0  0  0  0  0
  187.7610  172.6500  135.7180 C   0  0  0  0  0  2  0  0  0  0  0  0
  186.4100  173.2090  135.8110 N   0  0  0  0  0  0  0  0  0  0  0  0
  186.2080  174.6030  136.1710 C   0  0  0  0  0  0  0  0  0  0  0  0
  181.9920  169.5240  135.3390 S   0  0  0  0  0  0  0  0  0  0  0  0
  188.7010  173.3090  136.7150 C   0  0  0  0  0  2  0  0  0  0  0  0
  182.8720  172.0220  135.4900 N   0  0  0  0  0  0  0  0  0  0  0  0
  183.1240  168.2640  135.2290 C   0  0  0  0  0  3  0  0  0  0  0  0
  185.3380  172.5060  135.0990 C   0  0  1  0  0  3  0  0  0  0  0  0
  185.4750  170.9970  135.1690 C   0  0  0  0  0  3  0  0  0  0  0  0
  187.3690  175.4370  136.6800 C   0  0  0  0  0  2  0  0  0  0  0  0
  183.9650  172.9610  135.5560 C   0  0  0  0  0  0  0  0  0  0  0  0
  183.7710  174.2080  136.0210 C   0  0  0  0  0  0  0  0  0  0  0  0
  188.7470  174.8140  136.4650 C   0  0  2  0  0  3  0  0  0  0  0  0
  184.3900  170.2230  135.2150 C   0  0  0  0  0  0  0  0  0  0  0  0
  181.6220  175.1400  135.2880 C   0  0  0  0  0  2  0  0  0  0  0  0
  182.3690  174.5880  136.4460 C   0  0  2  0  0  3  0  0  0  0  0  0
  182.1080  175.9690  136.3180 O   0  0  0  0  0  0  0  0  0  0  0  0
  189.3040  175.2020  135.0860 C   0  0  0  0  0  2  0  0  0  0  0  0
  190.8270  175.3300  135.0510 C   0  0  0  0  0  2  0  0  0  0  0  0
  192.4390  175.7550  136.8820 C   0  0  0  0  0  0  0  0  0  0  0  0
  193.1910  174.5090  136.6920 C   0  0  0  0  0  2  0  0  0  0  0  0
  191.3630  176.1440  136.1890 C   0  0  0  0  0  3  0  0  0  0  0  0
  194.0720  174.4440  137.8520 N   0  0  0  0  0  0  0  0  0  0  0  0
  194.2670  175.7690  138.3120 N   0  0  0  0  0  2  0  0  0  0  0  0
  193.0510  176.5090  137.9840 C   0  0  0  0  0  2  0  0  0  0  0  0
  195.3560  173.8470  137.4620 C   0  0  1  0  0  3  0  0  0  0  0  0
  199.0970  174.6670  137.6990 F   0  0  0  0  0  0  0  0  0  0  0  0
  197.8900  173.4060  136.0800 F   0  0  0  0  0  0  0  0  0  0  0  0
  197.1100  175.4340  136.8390 O   0  0  0  0  0  0  0  0  0  0  0  0
  196.6400  174.6110  137.8880 C   0  0  2  0  0  3  0  0  0  0  0  0
  197.8850  174.2980  137.1370 C   0  0  0  0  0  0  0  0  0  0  0  0
  195.3570  171.6620  138.4690 O   0  0  0  0  0  0  0  0  0  0  0  0
  195.1190  171.7150  136.1450 N   0  0  0  0  0  2  0  0  0  0  0  0
  195.0600  170.2670  136.0060 C   0  0  0  0  0  1  0  0  0  0  0  0
  195.3190  172.3480  137.4130 C   0  0  0  0  0  0  0  0  0  0  0  0
  184.7320  176.4200  136.6740 O   0  0  0  0  0  0  0  0  0  0  0  0
  184.9060  178.4320  138.2250 C   0  0  2  0  0  0  0  0  0  0  0  0
  185.8860  178.3470  137.0920 C   0  0  0  0  0  2  0  0  0  0  0  0
  185.4720  177.0450  137.7180 C   0  0  2  0  0  0  0  0  0  0  0  0
  184.4680  177.1360  138.8290 C   0  0  0  0  0  2  0  0  0  0  0  0
  185.5880  179.1540  139.3180 N   0  0  0  0  0  2  0  0  0  0  0  0
  185.0930  178.8950  140.6740 C   0  0  0  0  0  2  0  0  0  0  0  0
  186.2680  178.7600  141.6240 C   0  0  0  0  0  2  0  0  0  0  0  0
  187.0510  177.6660  141.2540 O   0  0  0  0  0  0  0  0  0  0  0  0
  188.6650  178.1130  141.5600 P   0  0  1  0  0  0  0  0  0  0  0  0
  190.4530  176.7160  140.3570 O   0  0  0  0  0  0  0  0  0  0  0  0
  189.7630  177.9360  140.1240 C   0  0  1  0  0  3  0  0  0  0  0  0
  188.8000  179.4700  142.2210 O   0  0  0  0  0  0  0  0  0  0  0  0
  190.3770  176.2000  141.6340 N   0  0  0  0  0  0  0  0  0  0  0  0
  189.5500  176.8180  142.4060 C   0  0  0  0  0  0  0  0  0  0  0  0
  188.9830  179.1290  138.2250 O   0  0  0  0  0  1  0  0  0  0  0  0
  189.0040  177.8680  138.8190 C   0  0  0  0  0  2  0  0  0  0  0  0
  189.4290  176.4540  143.7530 O   0  0  0  0  0  0  0  0  0  0  0  0
  189.8860  177.1970  144.8880 C   0  0  2  0  0  3  0  0  0  0  0  0
  191.4900  176.6840  146.5640 O   0  0  0  0  0  0  0  0  0  0  0  0
  191.2460  176.7820  145.3740 C   0  0  0  0  0  3  0  0  0  0  0  0
  188.8280  177.3030  145.9840 C   0  0  0  0  0  2  0  0  0  0  0  0
  186.6480  177.3130  145.6500 C   0  0  0  0  0  1  0  0  0  0  0  0
  187.7770  178.1300  145.5760 O   0  0  0  0  0  0  0  0  0  0  0  0
  1 17  1  0  0  0  0
  1 10  2  0  0  0  0
  2 39  1  0  0  0  0
  3  7  1  0  0  0  0
  3  9  2  0  0  0  0
  4  5  1  0  0  0  0
  4  8  1  0  0  0  0
  5  6  1  0  0  0  0
  6  2  2  0  0  0  0
  6 13  1  0  0  0  0
  9 14  1  0  0  0  0
 10  7  1  0  0  0  0
 11 12  1  1  0  0  0
 11 14  1  0  0  0  0
 11  5  1  0  0  0  0
 12 17  2  0  0  0  0
 14 15  2  0  0  0  0
 15  2  1  0  0  0  0
 16 21  1  6  0  0  0
 16 13  1  0  0  0  0
 16  8  1  0  0  0  0
 17  3  1  0  0  0  0
 18 20  1  0  0  0  0
 18 19  1  0  0  0  0
 19 15  1  6  0  0  0
 20 19  1  0  0  0  0
 22 21  1  0  0  0  0
 22 25  1  0  0  0  0
 23 28  1  0  0  0  0
 24 23  1  0  0  0  0
 24 26  1  0  0  0  0
 25 23  2  0  0  0  0
 26 27  1  0  0  0  0
 28 27  1  0  0  0  0
 29 38  1  1  0  0  0
 29 26  1  0  0  0  0
 31 34  1  0  0  0  0
 32 34  1  0  0  0  0
 32 33  1  0  0  0  0
 33 29  1  6  0  0  0
 34 30  1  0  0  0  0
 34 33  1  0  0  0  0
 36 38  1  0  0  0  0
 37 36  1  0  0  0  0
 38 35  2  0  0  0  0
 40 43  1  0  0  0  0
 40 44  1  1  0  0  0
 41 42  1  0  0  0  0
 41 40  1  0  0  0  0
 42 39  1  6  0  0  0
 42 40  1  0  0  0  0
 42 43  1  0  0  0  0
 44 45  1  0  0  0  0
 45 46  1  0  0  0  0
 47 48  1  0  0  0  0
 47 46  1  0  0  0  0
 48 51  2  1  0  0  0
 48 53  1  0  0  0  0
 49 52  1  0  0  0  0
 50 55  1  6  0  0  0
 50 49  1  0  0  0  0
 50 48  1  0  0  0  0
 52 53  2  0  0  0  0
 53 56  1  0  0  0  0
 54 55  1  0  0  0  0
 56 57  1  0  0  0  0
 57 59  1  1  0  0  0
 57 60  1  0  0  0  0
 59 58  2  0  0  0  0
 62 61  1  0  0  0  0
 62 60  1  0  0  0  0
M  END
>  <MODEL>
8

>  <REMARK>
 VINA RESULT:      -6.3      3.058      8.009
  Name = 
  20 active torsions:
  status: ('A' for Active; 'I' for Inactive)
    1  A    between atoms: C_4  and  C_54
    2  A    between atoms: C_4  and  O_55
    3  A    between atoms: C_4  and  C_57
    4  A    between atoms: P_5  and  O_40
    5  A    between atoms: C_6  and  N_15
    6  A    between atoms: C_8  and  O_31
    7  A    between atoms: N_15  and  C_19
    8  A    between atoms: C_19  and  C_36
    9  A    between atoms: C_24  and  C_35
   10  A    between atoms: C_24  and  C_37
   11  A    between atoms: C_26  and  C_27
   12  A    between atoms: C_26  and  N_41
   13  A    between atoms: C_26  and  C_49
   14  A    between atoms: O_30  and  C_57
   15  A    between atoms: O_31  and  C_39
   16  A    between atoms: C_32  and  C_51
   17  A    between atoms: C_35  and  C_59
   18  A    between atoms: C_36  and  O_40
   19  A    between atoms: C_45  and  C_53
   20  A    between atoms: O_55  and  C_58
                            x       y       z     vdW  Elec       q    Type
                         _______ _______ _______ _____ _____    ______ ____

>  <TORSDO>
F 20

$$$$
=
 OpenBabel10232410103D

 62 71  0  0  1  0  0  0  0  0999 V2000
  189.5190  177.0980  146.3910 C   0  0  0  0  0  3  0  0  0  0  0  0
  187.9300  178.2370  140.3080 C   0  0  0  0  0  0  0  0  0  0  0  0
  187.6950  177.7000  145.0760 C   0  0  0  0  0  0  0  0  0  0  0  0
  191.1650  176.7690  141.5570 C   0  0  0  0  0  2  0  0  0  0  0  0
  189.7950  177.2870  141.5400 N   0  0  0  0  0  0  0  0  0  0  0  0
  189.1930  177.7490  140.3000 C   0  0  0  0  0  0  0  0  0  0  0  0
  187.1840  178.0090  146.6370 S   0  0  0  0  0  0  0  0  0  0  0  0
  192.0310  177.4650  140.5180 C   0  0  0  0  0  2  0  0  0  0  0  0
  187.0490  177.9940  143.9880 N   0  0  0  0  0  0  0  0  0  0  0  0
  188.6240  177.5110  147.3850 C   0  0  0  0  0  3  0  0  0  0  0  0
  188.9130  176.9010  142.6470 C   0  0  1  0  0  3  0  0  0  0  0  0
  189.6280  176.8630  143.9840 C   0  0  0  0  0  3  0  0  0  0  0  0
  190.0430  177.9210  139.0550 C   0  0  0  0  0  2  0  0  0  0  0  0
  187.6700  177.7680  142.7050 C   0  0  0  0  0  0  0  0  0  0  0  0
  187.1620  178.3220  141.5900 C   0  0  0  0  0  0  0  0  0  0  0  0
  191.4260  177.2760  139.1300 C   0  0  2  0  0  3  0  0  0  0  0  0
  188.9840  177.2000  145.1020 C   0  0  0  0  0  0  0  0  0  0  0  0
  184.7110  178.3360  141.4570 C   0  0  0  0  0  2  0  0  0  0  0  0
  185.9120  179.1650  141.7320 C   0  0  2  0  0  3  0  0  0  0  0  0
  185.1860  179.2820  140.5280 O   0  0  0  0  0  0  0  0  0  0  0  0
  191.3620  175.8110  138.6700 C   0  0  0  0  0  2  0  0  0  0  0  0
  192.6450  175.3200  138.0000 C   0  0  0  0  0  2  0  0  0  0  0  0
  193.1810  173.3700  136.5700 C   0  0  0  0  0  0  0  0  0  0  0  0
  194.4180  173.0190  137.2780 C   0  0  0  0  0  2  0  0  0  0  0  0
  192.3780  174.4040  136.8440 C   0  0  0  0  0  3  0  0  0  0  0  0
  195.0380  172.0070  136.4320 N   0  0  0  0  0  0  0  0  0  0  0  0
  194.0070  171.3920  135.6810 N   0  0  0  0  0  2  0  0  0  0  0  0
  192.9720  172.4040  135.4830 C   0  0  0  0  0  2  0  0  0  0  0  0
  195.7170  171.0120  137.2720 C   0  0  1  0  0  3  0  0  0  0  0  0
  193.5200  167.9210  137.8610 F   0  0  0  0  0  0  0  0  0  0  0  0
  195.1840  168.3440  136.2110 F   0  0  0  0  0  0  0  0  0  0  0  0
  195.5380  168.8620  138.4260 O   0  0  0  0  0  0  0  0  0  0  0  0
  194.8110  170.0130  138.0440 C   0  0  2  0  0  3  0  0  0  0  0  0
  194.5810  168.6880  137.4080 C   0  0  0  0  0  0  0  0  0  0  0  0
  197.1430  169.8720  135.7040 O   0  0  0  0  0  0  0  0  0  0  0  0
  198.2300  171.1400  137.3380 N   0  0  0  0  0  2  0  0  0  0  0  0
  199.5660  170.7990  136.8720 C   0  0  0  0  0  1  0  0  0  0  0  0
  197.0540  170.5960  136.7310 C   0  0  0  0  0  0  0  0  0  0  0  0
  187.3540  178.7490  139.1350 O   0  0  0  0  0  0  0  0  0  0  0  0
  186.2120  178.1340  136.9450 C   0  0  2  0  0  0  0  0  0  0  0  0
  186.4850  177.0240  137.9170 C   0  0  0  0  0  2  0  0  0  0  0  0
  187.5000  178.1300  137.8620 C   0  0  2  0  0  0  0  0  0  0  0  0
  187.2050  179.2520  136.9100 C   0  0  0  0  0  2  0  0  0  0  0  0
  186.2610  177.5340  135.5960 N   0  0  0  0  0  2  0  0  0  0  0  0
  185.2310  176.5350  135.2920 C   0  0  0  0  0  2  0  0  0  0  0  0
  183.8590  177.1750  135.3950 C   0  0  0  0  0  2  0  0  0  0  0  0
  182.8920  176.3020  134.8950 O   0  0  0  0  0  0  0  0  0  0  0  0
  182.0630  175.6880  136.2500 P   0  0  1  0  0  0  0  0  0  0  0  0
  182.9790  176.4140  138.5370 O   0  0  0  0  0  0  0  0  0  0  0  0
  181.9650  176.8500  137.6420 C   0  0  1  0  0  3  0  0  0  0  0  0
  180.7150  175.0860  135.9100 O   0  0  0  0  0  0  0  0  0  0  0  0
  183.4990  175.1560  138.3130 N   0  0  0  0  0  0  0  0  0  0  0  0
  183.1020  174.6090  137.2140 C   0  0  0  0  0  0  0  0  0  0  0  0
  182.7570  178.9920  138.2930 O   0  0  0  0  0  1  0  0  0  0  0  0
  182.2160  178.2800  137.2230 C   0  0  0  0  0  2  0  0  0  0  0  0
  183.4860  173.2990  136.8960 O   0  0  0  0  0  0  0  0  0  0  0  0
  184.0220  172.8390  135.6510 C   0  0  2  0  0  3  0  0  0  0  0  0
  182.9740  170.7150  135.4670 O   0  0  0  0  0  0  0  0  0  0  0  0
  183.1650  171.8100  134.9680 C   0  0  0  0  0  3  0  0  0  0  0  0
  185.4990  172.4680  135.7500 C   0  0  0  0  0  2  0  0  0  0  0  0
  187.3000  172.4410  137.0220 C   0  0  0  0  0  1  0  0  0  0  0  0
  186.1030  173.1320  136.8220 O   0  0  0  0  0  0  0  0  0  0  0  0
  1 10  2  0  0  0  0
  2 15  1  0  0  0  0
  3 17  1  0  0  0  0
  3  7  1  0  0  0  0
  5  4  1  0  0  0  0
  5 11  1  0  0  0  0
  6  2  2  0  0  0  0
  6  5  1  0  0  0  0
  7 10  1  0  0  0  0
  8  4  1  0  0  0  0
  9  3  2  0  0  0  0
 11 14  1  0  0  0  0
 11 12  1  1  0  0  0
 12 17  2  0  0  0  0
 13 16  1  0  0  0  0
 13  6  1  0  0  0  0
 14  9  1  0  0  0  0
 15 14  2  0  0  0  0
 16 21  1  1  0  0  0
 16  8  1  0  0  0  0
 17  1  1  0  0  0  0
 18 19  1  0  0  0  0
 19 15  1  6  0  0  0
 20 18  1  0  0  0  0
 20 19  1  0  0  0  0
 22 21  1  0  0  0  0
 23 25  2  0  0  0  0
 23 24  1  0  0  0  0
 25 22  1  0  0  0  0
 26 29  1  0  0  0  0
 26 24  1  0  0  0  0
 27 26  1  0  0  0  0
 28 27  1  0  0  0  0
 28 23  1  0  0  0  0
 29 38  1  6  0  0  0
 31 34  1  0  0  0  0
 33 29  1  6  0  0  0
 33 32  1  0  0  0  0
 34 30  1  0  0  0  0
 34 33  1  0  0  0  0
 34 32  1  0  0  0  0
 35 38  2  0  0  0  0
 37 36  1  0  0  0  0
 38 36  1  0  0  0  0
 39  2  1  0  0  0  0
 40 44  1  6  0  0  0
 40 42  1  0  0  0  0
 40 41  1  0  0  0  0
 42 41  1  0  0  0  0
 42 39  1  1  0  0  0
 43 40  1  0  0  0  0
 43 42  1  0  0  0  0
 45 46  1  0  0  0  0
 45 44  1  0  0  0  0
 47 46  1  0  0  0  0
 47 48  1  0  0  0  0
 48 51  2  6  0  0  0
 48 53  1  0  0  0  0
 48 50  1  0  0  0  0
 50 55  1  6  0  0  0
 50 49  1  0  0  0  0
 52 49  1  0  0  0  0
 53 52  2  0  0  0  0
 55 54  1  0  0  0  0
 56 53  1  0  0  0  0
 57 59  1  1  0  0  0
 57 60  1  0  0  0  0
 57 56  1  0  0  0  0
 59 58  2  0  0  0  0
 60 62  1  0  0  0  0
 62 61  1  0  0  0  0
M  END
>  <MODEL>
9

>  <REMARK>
 VINA RESULT:      -6.2      4.288     10.567
  Name = 
  20 active torsions:
  status: ('A' for Active; 'I' for Inactive)
    1  A    between atoms: C_4  and  C_54
    2  A    between atoms: C_4  and  O_55
    3  A    between atoms: C_4  and  C_57
    4  A    between atoms: P_5  and  O_40
    5  A    between atoms: C_6  and  N_15
    6  A    between atoms: C_8  and  O_31
    7  A    between atoms: N_15  and  C_19
    8  A    between atoms: C_19  and  C_36
    9  A    between atoms: C_24  and  C_35
   10  A    between atoms: C_24  and  C_37
   11  A    between atoms: C_26  and  C_27
   12  A    between atoms: C_26  and  N_41
   13  A    between atoms: C_26  and  C_49
   14  A    between atoms: O_30  and  C_57
   15  A    between atoms: O_31  and  C_39
   16  A    between atoms: C_32  and  C_51
   17  A    between atoms: C_35  and  C_59
   18  A    between atoms: C_36  and  O_40
   19  A    between atoms: C_45  and  C_53
   20  A    between atoms: O_55  and  C_58
                            x       y       z     vdW  Elec       q    Type
                         _______ _______ _______ _____ _____    ______ ____

>  <TORSDO>
F 20

$$$$
