=
 OpenBabel10232410223D

 68 75  0  0  1  0  0  0  0  0999 V2000
  187.1760  177.2320  141.2340 N   0  0  0  0  0  2  0  0  0  0  0  0
  188.5040  177.7280  141.5590 C   0  0  1  0  0  3  0  0  0  0  0  0
  189.3430  176.6670  142.0100 O   0  0  0  0  0  0  0  0  0  0  0  0
  190.9360  176.4280  143.7230 C   0  0  0  0  0  2  0  0  0  0  0  0
  189.6690  176.5080  143.3550 C   0  0  0  0  0  3  0  0  0  0  0  0
  189.1140  178.4470  140.3630 C   0  0  0  0  0  2  0  0  0  0  0  0
  193.7280  173.4500  135.8040 N   0  0  0  0  0  0  0  0  0  0  0  0
  191.4510  177.8420  140.4290 C   0  0  0  0  0  3  0  0  0  0  0  0
  192.1780  175.8100  138.2240 N   0  0  0  0  0  0  0  0  0  0  0  0
  190.7870  176.0140  137.9760 C   0  0  0  0  0  3  0  0  0  0  0  0
  192.7110  174.1490  136.3860 C   0  0  0  0  0  3  0  0  0  0  0  0
  193.0260  174.9750  137.4560 C   0  0  0  0  0  0  0  0  0  0  0  0
  190.2690  177.6640  139.8330 C   0  0  0  0  0  0  0  0  0  0  0  0
  195.3180  174.3830  137.2990 N   0  0  0  0  0  0  0  0  0  0  0  0
  194.4400  175.9690  138.9830 N   0  0  0  0  0  2  0  0  0  0  0  0
  193.0840  176.4080  139.1600 C   0  0  0  0  0  0  0  0  0  0  0  0
  192.7660  177.2730  140.1150 C   0  0  0  0  0  3  0  0  0  0  0  0
  189.9810  176.8120  138.6690 C   0  0  0  0  0  3  0  0  0  0  0  0
  194.3120  175.0730  137.8880 C   0  0  0  0  0  0  0  0  0  0  0  0
  195.0240  173.5600  136.2470 C   0  0  0  0  0  0  0  0  0  0  0  0
  196.1320  172.7830  135.5910 C   0  0  2  0  0  3  0  0  0  0  0  0
  196.9430  171.9050  136.5650 C   0  0  2  0  0  3  0  0  0  0  0  0
  198.3210  172.0170  136.3510 O   0  0  0  0  0  1  0  0  0  0  0  0
  196.4760  170.4350  136.6490 C   0  0  1  0  0  0  0  0  0  0  0  0
  197.5590  169.0430  135.0150 C   0  0  0  0  0  2  0  0  0  0  0  0
  196.3240  169.8660  135.2440 C   0  0  0  0  0  2  0  0  0  0  0  0
  197.5140  169.6570  137.3280 N   0  0  0  0  0  2  0  0  0  0  0  0
  197.9700  168.6260  136.4010 C   0  0  0  0  0  2  0  0  0  0  0  0
  195.1620  170.2620  137.4280 C   0  0  0  0  0  2  0  0  0  0  0  0
  193.6990  168.3330  137.5670 N   0  0  0  0  0  1  0  0  0  0  0  0
  194.1260  169.4160  136.7010 C   0  0  0  0  0  2  0  0  0  0  0  0
  196.9750  173.6470  134.6450 C   0  0  0  0  0  2  0  0  0  0  0  0
  197.0340  175.1050  135.0740 C   0  0  0  0  0  2  0  0  0  0  0  0
  199.2040  175.0040  134.6900 C   0  0  0  0  0  1  0  0  0  0  0  0
  198.2720  175.3650  135.6610 O   0  0  0  0  0  0  0  0  0  0  0  0
  186.2970  177.7470  142.2700 C   0  0  0  0  0  2  0  0  0  0  0  0
  184.1110  178.7560  144.2850 C   0  0  1  0  0  3  0  0  0  0  0  0
  182.8430  178.9430  143.4530 C   0  0  1  0  0  3  0  0  0  0  0  0
  185.2030  179.7590  143.8560 C   0  0  2  0  0  3  0  0  0  0  0  0
  182.9520  178.2310  142.1320 C   0  0  0  0  0  3  0  0  0  0  0  0
  185.0720  181.0890  144.5820 C   0  0  0  0  0  1  0  0  0  0  0  0
  185.3490  178.8130  141.6990 C   0  0  1  0  0  3  0  0  0  0  0  0
  184.0170  178.2100  141.3180 C   0  0  0  0  0  0  0  0  0  0  0  0
  185.2170  180.0050  142.4610 O   0  0  0  0  0  0  0  0  0  0  0  0
  181.7200  178.4670  144.1360 O   0  0  0  0  0  0  0  0  0  0  0  0
  180.6870  178.5050  143.1970 C   0  0  0  0  0  1  0  0  0  0  0  0
  183.8520  178.8400  145.6580 O   0  0  0  0  0  0  0  0  0  0  0  0
  184.9800  178.2900  146.2670 C   0  0  0  0  0  1  0  0  0  0  0  0
  183.8650  177.5370  140.0970 O   0  0  0  0  0  0  0  0  0  0  0  0
  183.2880  179.2770  138.6170 C   0  0  0  0  0  1  0  0  0  0  0  0
  182.9270  177.8640  139.0660 C   0  0  2  0  0  0  0  0  0  0  0  0
  181.5070  177.9190  139.6470 C   0  0  0  0  0  2  0  0  0  0  0  0
  181.0480  176.6700  140.0260 F   0  0  0  0  0  0  0  0  0  0  0  0
  183.0550  176.9130  138.0120 O   0  0  0  0  0  0  0  0  0  0  0  0
  185.4600  176.9400  138.2090 O   0  0  0  0  0  1  0  0  0  0  0  0
  184.3850  175.9280  136.2350 C   0  0  1  0  0  3  0  0  0  0  0  0
  184.3260  176.9260  137.3880 C   0  0  1  0  0  0  0  0  0  0  0  0
  184.4750  177.4290  135.9710 C   0  0  0  0  0  2  0  0  0  0  0  0
  185.7600  175.2540  136.0860 C   0  0  1  0  0  3  0  0  0  0  0  0
  185.7370  172.9540  134.9370 C   0  0  0  0  0  2  0  0  0  0  0  0
  187.0180  172.9630  134.3510 O   0  0  0  0  0  0  0  0  0  0  0  0
  188.1310  172.9130  136.4750 C   0  0  0  0  0  2  0  0  0  0  0  0
  187.8430  172.1740  135.1690 C   0  0  0  0  0  2  0  0  0  0  0  0
  186.8160  173.1700  137.2100 C   0  0  0  0  0  2  0  0  0  0  0  0
  185.7330  173.7190  136.2680 C   0  0  1  0  0  3  0  0  0  0  0  0
  187.1230  177.0270  135.0900 O   0  0  0  0  0  0  0  0  0  0  0  0
  186.5420  175.7630  134.8550 C   0  0  1  0  0  3  0  0  0  0  0  0
  187.9900  175.9190  135.1310 C   0  0  0  0  0  2  0  0  0  0  0  0
  1  2  1  0  0  0  0
  1 36  1  0  0  0  0
  2  6  1  6  0  0  0
  2  3  1  0  0  0  0
  3  5  1  0  0  0  0
  5  4  2  0  0  0  0
  7 20  2  0  0  0  0
  7 11  1  0  0  0  0
  9 16  1  0  0  0  0
 10  9  1  0  0  0  0
 10 18  2  0  0  0  0
 11 12  2  0  0  0  0
 12 19  1  0  0  0  0
 12  9  1  0  0  0  0
 13  6  1  0  0  0  0
 13  8  2  0  0  0  0
 14 19  2  0  0  0  0
 15 16  1  0  0  0  0
 16 17  2  0  0  0  0
 17  8  1  0  0  0  0
 18 13  1  0  0  0  0
 19 15  1  0  0  0  0
 20 14  1  0  0  0  0
 21 32  1  1  0  0  0
 21 20  1  0  0  0  0
 21 22  1  0  0  0  0
 22 23  1  6  0  0  0
 22 24  1  0  0  0  0
 24 27  1  0  0  0  0
 24 29  1  1  0  0  0
 25 26  1  0  0  0  0
 25 28  1  0  0  0  0
 26 24  1  0  0  0  0
 28 27  1  0  0  0  0
 31 29  1  0  0  0  0
 31 30  1  0  0  0  0
 32 33  1  0  0  0  0
 33 35  1  0  0  0  0
 34 35  1  0  0  0  0
 37 47  1  1  0  0  0
 38 45  1  1  0  0  0
 38 37  1  0  0  0  0
 39 37  1  0  0  0  0
 39 41  1  1  0  0  0
 40 38  1  0  0  0  0
 42 36  1  1  0  0  0
 42 44  1  0  0  0  0
 43 42  1  0  0  0  0
 43 40  2  0  0  0  0
 44 39  1  0  0  0  0
 46 45  1  0  0  0  0
 47 48  1  0  0  0  0
 49 43  1  0  0  0  0
 51 50  1  6  0  0  0
 51 52  1  0  0  0  0
 51 49  1  0  0  0  0
 52 53  1  0  0  0  0
 54 51  1  0  0  0  0
 56 59  1  1  0  0  0
 56 57  1  0  0  0  0
 57 54  1  0  0  0  0
 57 55  1  1  0  0  0
 58 56  1  0  0  0  0
 58 57  1  0  0  0  0
 59 67  1  6  0  0  0
 60 65  1  0  0  0  0
 61 60  1  0  0  0  0
 61 63  1  0  0  0  0
 62 64  1  0  0  0  0
 63 62  1  0  0  0  0
 65 59  1  6  0  0  0
 65 64  1  0  0  0  0
 66 68  1  0  0  0  0
 67 66  1  0  0  0  0
 67 68  1  1  0  0  0
M  END
>  <MODEL>
1

>  <REMARK>
 VINA RESULT:      -4.0      0.000      0.000
  Name = 
  25 active torsions:
  status: ('A' for Active; 'I' for Inactive)
    1  A    between atoms: C_1  and  C_12
    2  A    between atoms: C_1  and  C_23
    3  A    between atoms: C_1  and  C_65
    4  A    between atoms: C_2  and  C_8
    5  A    between atoms: C_2  and  C_23
    6  A    between atoms: C_6  and  O_49
    7  A    between atoms: C_8  and  C_67
    8  A    between atoms: C_12  and  C_42
    9  A    between atoms: O_13  and  C_17
   10  A    between atoms: C_14  and  C_39
   11  A    between atoms: N_20  and  C_31
   12  A    between atoms: N_20  and  C_56
   13  A    between atoms: O_24  and  C_25
   14  A    between atoms: O_24  and  C_64
   15  A    between atoms: C_26  and  C_40
   16  A    between atoms: C_26  and  C_56
   17  A    between atoms: C_31  and  C_43
   18  A    between atoms: C_33  and  C_39
   19  A    between atoms: C_38  and  C_64
   20  A    between atoms: C_39  and  C_68
   21  A    between atoms: C_42  and  O_51
   22  A    between atoms: C_48  and  O_63
   23  A    between atoms: C_53  and  O_66
   24  A    between atoms: C_56  and  O_66
   25  A    between atoms: O_63  and  C_64
                            x       y       z     vdW  Elec       q    Type
                         _______ _______ _______ _____ _____    ______ ____

>  <TORSDO>
F 25

$$$$
=
 OpenBabel10232410223D

 68 75  0  0  1  0  0  0  0  0999 V2000
  192.5170  174.1180  136.6930 N   0  0  0  0  0  2  0  0  0  0  0  0
  191.7160  173.9600  135.4890 C   0  0  1  0  0  3  0  0  0  0  0  0
  192.5500  173.7710  134.3490 O   0  0  0  0  0  0  0  0  0  0  0  0
  193.7840  171.7940  134.6500 C   0  0  0  0  0  2  0  0  0  0  0  0
  193.7660  173.0970  134.4300 C   0  0  0  0  0  3  0  0  0  0  0  0
  190.7290  172.8120  135.6500 C   0  0  0  0  0  2  0  0  0  0  0  0
  184.3140  177.7990  136.6640 N   0  0  0  0  0  0  0  0  0  0  0  0
  188.5000  172.4770  136.5180 C   0  0  0  0  0  3  0  0  0  0  0  0
  186.8470  175.0820  136.4820 N   0  0  0  0  0  0  0  0  0  0  0  0
  188.0850  175.5230  135.9250 C   0  0  0  0  0  3  0  0  0  0  0  0
  185.5400  177.2520  136.4180 C   0  0  0  0  0  3  0  0  0  0  0  0
  185.7010  175.8950  136.6610 C   0  0  0  0  0  0  0  0  0  0  0  0
  189.3830  173.3440  136.0140 C   0  0  0  0  0  0  0  0  0  0  0  0
  183.4400  175.7030  137.3550 N   0  0  0  0  0  0  0  0  0  0  0  0
  185.0080  173.7900  137.3020 N   0  0  0  0  0  2  0  0  0  0  0  0
  186.3840  173.7880  136.8900 C   0  0  0  0  0  0  0  0  0  0  0  0
  187.1020  172.6710  136.9160 C   0  0  0  0  0  3  0  0  0  0  0  0
  189.1610  174.7700  135.7270 C   0  0  0  0  0  3  0  0  0  0  0  0
  184.6570  175.1550  137.1220 C   0  0  0  0  0  0  0  0  0  0  0  0
  183.2660  177.0400  137.1260 C   0  0  0  0  0  0  0  0  0  0  0  0
  181.9220  177.6610  137.3890 C   0  0  2  0  0  3  0  0  0  0  0  0
  181.3740  177.3910  138.8050 C   0  0  2  0  0  3  0  0  0  0  0  0
  179.9870  177.2000  138.8050 O   0  0  0  0  0  1  0  0  0  0  0  0
  181.8300  178.4050  139.8780 C   0  0  1  0  0  0  0  0  0  0  0  0
  184.2030  178.7850  139.8160 C   0  0  0  0  0  2  0  0  0  0  0  0
  183.1510  177.9470  140.4830 C   0  0  0  0  0  2  0  0  0  0  0  0
  182.0690  179.6940  139.2250 N   0  0  0  0  0  2  0  0  0  0  0  0
  183.4690  180.0440  139.4400 C   0  0  0  0  0  2  0  0  0  0  0  0
  180.7910  178.6160  140.9890 C   0  0  0  0  0  2  0  0  0  0  0  0
  180.0650  180.3320  142.5430 N   0  0  0  0  0  1  0  0  0  0  0  0
  180.3460  180.0640  141.1450 C   0  0  0  0  0  2  0  0  0  0  0  0
  180.9250  177.4080  136.2520 C   0  0  0  0  0  2  0  0  0  0  0  0
  181.3710  176.2970  135.3130 C   0  0  0  0  0  2  0  0  0  0  0  0
  180.8740  174.3090  134.4990 C   0  0  0  0  0  1  0  0  0  0  0  0
  180.2960  175.4480  135.0570 O   0  0  0  0  0  0  0  0  0  0  0  0
  191.8990  175.2010  137.4390 C   0  0  0  0  0  2  0  0  0  0  0  0
  194.7270  174.6250  138.6770 C   0  0  1  0  0  3  0  0  0  0  0  0
  195.0690  175.8610  139.5080 C   0  0  1  0  0  3  0  0  0  0  0  0
  194.6630  174.9730  137.1740 C   0  0  2  0  0  3  0  0  0  0  0  0
  193.8430  176.6920  139.7710 C   0  0  0  0  0  3  0  0  0  0  0  0
  196.0290  174.8880  136.5110 C   0  0  0  0  0  1  0  0  0  0  0  0
  192.8290  176.4230  137.4980 C   0  0  1  0  0  3  0  0  0  0  0  0
  192.8800  177.0020  138.8920 C   0  0  0  0  0  0  0  0  0  0  0  0
  194.1170  176.2560  136.9220 O   0  0  0  0  0  0  0  0  0  0  0  0
  195.6470  175.4990  140.7280 O   0  0  0  0  0  0  0  0  0  0  0  0
  197.0060  175.7850  140.5780 C   0  0  0  0  0  1  0  0  0  0  0  0
  195.6150  173.5700  138.9190 O   0  0  0  0  0  0  0  0  0  0  0  0
  195.1170  172.5070  138.1640 C   0  0  0  0  0  1  0  0  0  0  0  0
  191.8630  177.8560  139.3450 O   0  0  0  0  0  0  0  0  0  0  0  0
  190.4790  175.9600  139.5530 C   0  0  0  0  0  1  0  0  0  0  0  0
  190.5930  177.4500  139.8670 C   0  0  2  0  0  0  0  0  0  0  0  0
  189.4620  178.1620  139.1110 C   0  0  0  0  0  2  0  0  0  0  0  0
  189.6500  178.1360  137.7410 F   0  0  0  0  0  0  0  0  0  0  0  0
  190.5700  177.7100  141.2680 O   0  0  0  0  0  0  0  0  0  0  0  0
  189.4440  175.8630  142.3370 O   0  0  0  0  0  1  0  0  0  0  0  0
  188.8940  178.1830  142.9610 C   0  0  1  0  0  3  0  0  0  0  0  0
  189.4210  177.1990  141.9210 C   0  0  1  0  0  0  0  0  0  0  0  0
  188.0740  177.8520  141.7150 C   0  0  0  0  0  2  0  0  0  0  0  0
  188.3130  177.4940  144.2080 C   0  0  1  0  0  3  0  0  0  0  0  0
  189.4890  176.5550  146.2930 C   0  0  0  0  0  2  0  0  0  0  0  0
  190.5920  175.9240  145.6860 O   0  0  0  0  0  0  0  0  0  0  0  0
  191.5430  178.0020  144.9580 C   0  0  0  0  0  2  0  0  0  0  0  0
  191.6930  176.7780  145.8610 C   0  0  0  0  0  2  0  0  0  0  0  0
  190.2720  178.7590  145.3420 C   0  0  0  0  0  2  0  0  0  0  0  0
  189.0740  177.8120  145.5160 C   0  0  1  0  0  3  0  0  0  0  0  0
  186.3080  177.4520  145.6110 O   0  0  0  0  0  0  0  0  0  0  0  0
  186.7760  177.6090  144.2890 C   0  0  1  0  0  3  0  0  0  0  0  0
  186.3380  178.7660  145.1060 C   0  0  0  0  0  2  0  0  0  0  0  0
  1 36  1  0  0  0  0
  2  6  1  1  0  0  0
  2  1  1  0  0  0  0
  3  5  1  0  0  0  0
  3  2  1  0  0  0  0
  5  4  2  0  0  0  0
  6 13  1  0  0  0  0
  7 20  2  0  0  0  0
  8 17  1  0  0  0  0
  9 12  1  0  0  0  0
  9 16  1  0  0  0  0
 10  9  1  0  0  0  0
 11 12  2  0  0  0  0
 11  7  1  0  0  0  0
 12 19  1  0  0  0  0
 13  8  2  0  0  0  0
 16 17  2  0  0  0  0
 16 15  1  0  0  0  0
 18 10  2  0  0  0  0
 18 13  1  0  0  0  0
 19 15  1  0  0  0  0
 19 14  2  0  0  0  0
 20 14  1  0  0  0  0
 20 21  1  0  0  0  0
 21 32  1  6  0  0  0
 21 22  1  0  0  0  0
 22 23  1  6  0  0  0
 22 24  1  0  0  0  0
 24 26  1  0  0  0  0
 24 29  1  1  0  0  0
 25 26  1  0  0  0  0
 27 28  1  0  0  0  0
 27 24  1  0  0  0  0
 28 25  1  0  0  0  0
 29 31  1  0  0  0  0
 31 30  1  0  0  0  0
 33 32  1  0  0  0  0
 34 35  1  0  0  0  0
 35 33  1  0  0  0  0
 37 47  1  6  0  0  0
 37 38  1  0  0  0  0
 38 40  1  0  0  0  0
 38 45  1  1  0  0  0
 39 41  1  1  0  0  0
 39 37  1  0  0  0  0
 42 36  1  1  0  0  0
 42 43  1  0  0  0  0
 43 49  1  0  0  0  0
 43 40  2  0  0  0  0
 44 39  1  0  0  0  0
 44 42  1  0  0  0  0
 46 45  1  0  0  0  0
 48 47  1  0  0  0  0
 49 51  1  0  0  0  0
 51 50  1  6  0  0  0
 51 54  1  0  0  0  0
 52 51  1  0  0  0  0
 53 52  1  0  0  0  0
 54 57  1  0  0  0  0
 56 59  1  1  0  0  0
 57 55  1  1  0  0  0
 57 56  1  0  0  0  0
 58 57  1  0  0  0  0
 58 56  1  0  0  0  0
 59 67  1  1  0  0  0
 61 63  1  0  0  0  0
 61 60  1  0  0  0  0
 62 64  1  0  0  0  0
 62 63  1  0  0  0  0
 64 65  1  0  0  0  0
 65 59  1  6  0  0  0
 65 60  1  0  0  0  0
 67 68  1  1  0  0  0
 67 66  1  0  0  0  0
 68 66  1  0  0  0  0
M  END
>  <MODEL>
2

>  <REMARK>
 VINA RESULT:      -3.6      3.093     12.063
  Name = 
  25 active torsions:
  status: ('A' for Active; 'I' for Inactive)
    1  A    between atoms: C_1  and  C_12
    2  A    between atoms: C_1  and  C_23
    3  A    between atoms: C_1  and  C_65
    4  A    between atoms: C_2  and  C_8
    5  A    between atoms: C_2  and  C_23
    6  A    between atoms: C_6  and  O_49
    7  A    between atoms: C_8  and  C_67
    8  A    between atoms: C_12  and  C_42
    9  A    between atoms: O_13  and  C_17
   10  A    between atoms: C_14  and  C_39
   11  A    between atoms: N_20  and  C_31
   12  A    between atoms: N_20  and  C_56
   13  A    between atoms: O_24  and  C_25
   14  A    between atoms: O_24  and  C_64
   15  A    between atoms: C_26  and  C_40
   16  A    between atoms: C_26  and  C_56
   17  A    between atoms: C_31  and  C_43
   18  A    between atoms: C_33  and  C_39
   19  A    between atoms: C_38  and  C_64
   20  A    between atoms: C_39  and  C_68
   21  A    between atoms: C_42  and  O_51
   22  A    between atoms: C_48  and  O_63
   23  A    between atoms: C_53  and  O_66
   24  A    between atoms: C_56  and  O_66
   25  A    between atoms: O_63  and  C_64
                            x       y       z     vdW  Elec       q    Type
                         _______ _______ _______ _____ _____    ______ ____

>  <TORSDO>
F 25

$$$$
=
 OpenBabel10232410223D

 68 75  0  0  1  0  0  0  0  0999 V2000
  187.3430  177.4130  142.2690 N   0  0  0  0  0  2  0  0  0  0  0  0
  188.0430  177.9370  143.4310 C   0  0  1  0  0  3  0  0  0  0  0  0
  188.6240  176.8800  144.1910 O   0  0  0  0  0  0  0  0  0  0  0  0
  188.1770  177.6780  146.3560 C   0  0  0  0  0  2  0  0  0  0  0  0
  188.9870  177.0460  145.5250 C   0  0  0  0  0  3  0  0  0  0  0  0
  189.0930  178.9560  143.0080 C   0  0  0  0  0  2  0  0  0  0  0  0
  192.3090  175.5130  136.3110 N   0  0  0  0  0  0  0  0  0  0  0  0
  191.3260  178.2420  142.4310 C   0  0  0  0  0  3  0  0  0  0  0  0
  191.4500  177.0190  139.6020 N   0  0  0  0  0  0  0  0  0  0  0  0
  190.0690  177.3660  139.7020 C   0  0  0  0  0  3  0  0  0  0  0  0
  191.4850  176.0330  137.2680 C   0  0  0  0  0  3  0  0  0  0  0  0
  192.0620  176.4420  138.4620 C   0  0  0  0  0  0  0  0  0  0  0  0
  190.0500  178.3340  142.0480 C   0  0  0  0  0  0  0  0  0  0  0  0
  194.2160  175.8150  137.6910 N   0  0  0  0  0  0  0  0  0  0  0  0
  193.8090  176.7990  139.9240 N   0  0  0  0  0  2  0  0  0  0  0  0
  192.5580  177.2250  140.4870 C   0  0  0  0  0  0  0  0  0  0  0  0
  192.5000  177.7410  141.7090 C   0  0  0  0  0  3  0  0  0  0  0  0
  189.4820  177.9310  140.7520 C   0  0  0  0  0  3  0  0  0  0  0  0
  193.4040  176.3240  138.6490 C   0  0  0  0  0  0  0  0  0  0  0  0
  193.6640  175.4030  136.5110 C   0  0  0  0  0  0  0  0  0  0  0  0
  194.5550  174.8290  135.4430 C   0  0  2  0  0  3  0  0  0  0  0  0
  194.7130  173.2970  135.5170 C   0  0  2  0  0  3  0  0  0  0  0  0
  193.5170  172.6610  135.8670 O   0  0  0  0  0  1  0  0  0  0  0  0
  195.9100  172.8130  136.3660 C   0  0  1  0  0  0  0  0  0  0  0  0
  195.3870  170.8340  137.6270 C   0  0  0  0  0  2  0  0  0  0  0  0
  195.4110  172.3320  137.7230 C   0  0  0  0  0  2  0  0  0  0  0  0
  196.5230  171.6670  135.6920 N   0  0  0  0  0  2  0  0  0  0  0  0
  196.4420  170.5270  136.5990 C   0  0  0  0  0  2  0  0  0  0  0  0
  196.9890  173.8900  136.5580 C   0  0  0  0  0  2  0  0  0  0  0  0
  198.0510  175.3130  138.2100 N   0  0  0  0  0  1  0  0  0  0  0  0
  197.5160  173.9840  137.9830 C   0  0  0  0  0  2  0  0  0  0  0  0
  195.8680  175.6070  135.2940 C   0  0  0  0  0  2  0  0  0  0  0  0
  195.7470  176.7920  134.3470 C   0  0  0  0  0  2  0  0  0  0  0  0
  196.2910  178.9080  134.6490 C   0  0  0  0  0  1  0  0  0  0  0  0
  196.8440  177.6350  134.5170 O   0  0  0  0  0  0  0  0  0  0  0  0
  185.9280  177.5130  142.5830 C   0  0  0  0  0  2  0  0  0  0  0  0
  183.6780  178.8740  144.3000 C   0  0  1  0  0  3  0  0  0  0  0  0
  182.6290  179.3500  143.2970 C   0  0  1  0  0  3  0  0  0  0  0  0
  185.0030  179.6460  144.1190 C   0  0  2  0  0  3  0  0  0  0  0  0
  182.8140  178.6810  141.9620 C   0  0  0  0  0  3  0  0  0  0  0  0
  185.0180  180.9460  144.9080 C   0  0  0  0  0  1  0  0  0  0  0  0
  185.3170  178.7730  141.9490 C   0  0  1  0  0  3  0  0  0  0  0  0
  183.9750  178.4720  141.3240 C   0  0  0  0  0  0  0  0  0  0  0  0
  185.2980  179.9370  142.7640 O   0  0  0  0  0  0  0  0  0  0  0  0
  181.3370  179.0900  143.7620 O   0  0  0  0  0  0  0  0  0  0  0  0
  180.7480  178.3090  142.7640 C   0  0  0  0  0  1  0  0  0  0  0  0
  183.2160  178.9570  145.6190 O   0  0  0  0  0  0  0  0  0  0  0  0
  184.2440  178.4160  146.3920 C   0  0  0  0  0  1  0  0  0  0  0  0
  183.8980  177.8910  140.0490 O   0  0  0  0  0  0  0  0  0  0  0  0
  182.7730  179.6550  138.9650 C   0  0  0  0  0  1  0  0  0  0  0  0
  183.8610  178.5960  138.8040 C   0  0  2  0  0  0  0  0  0  0  0  0
  183.4150  177.6510  137.6790 C   0  0  0  0  0  2  0  0  0  0  0  0
  182.2060  177.0390  137.9580 F   0  0  0  0  0  0  0  0  0  0  0  0
  185.1430  179.1710  138.5640 O   0  0  0  0  0  0  0  0  0  0  0  0
  186.4020  177.1570  138.9910 O   0  0  0  0  0  1  0  0  0  0  0  0
  185.9160  177.8530  136.6770 C   0  0  1  0  0  3  0  0  0  0  0  0
  186.1160  178.2320  138.1410 C   0  0  1  0  0  0  0  0  0  0  0  0
  187.1590  178.6230  137.1200 C   0  0  0  0  0  2  0  0  0  0  0  0
  186.2500  176.3810  136.3800 C   0  0  1  0  0  3  0  0  0  0  0  0
  184.9170  174.4940  135.2520 C   0  0  0  0  0  2  0  0  0  0  0  0
  183.6760  174.6550  135.8980 O   0  0  0  0  0  0  0  0  0  0  0  0
  183.2780  176.7900  134.8800 C   0  0  0  0  0  2  0  0  0  0  0  0
  182.8360  175.3330  134.9980 C   0  0  0  0  0  2  0  0  0  0  0  0
  184.7090  176.8420  134.3460 C   0  0  0  0  0  2  0  0  0  0  0  0
  185.6250  175.8440  135.0720 C   0  0  1  0  0  3  0  0  0  0  0  0
  187.9930  174.6700  136.5460 O   0  0  0  0  0  0  0  0  0  0  0  0
  187.7470  176.0580  136.5820 C   0  0  1  0  0  3  0  0  0  0  0  0
  188.3480  175.4010  135.3970 C   0  0  0  0  0  2  0  0  0  0  0  0
  1 36  1  0  0  0  0
  1  2  1  0  0  0  0
  2  6  1  6  0  0  0
  2  3  1  0  0  0  0
  3  5  1  0  0  0  0
  5  4  2  0  0  0  0
  7 20  2  0  0  0  0
  7 11  1  0  0  0  0
  9 10  1  0  0  0  0
  9 16  1  0  0  0  0
 10 18  2  0  0  0  0
 11 12  2  0  0  0  0
 12 19  1  0  0  0  0
 12  9  1  0  0  0  0
 13  8  2  0  0  0  0
 13  6  1  0  0  0  0
 14 19  2  0  0  0  0
 15 16  1  0  0  0  0
 16 17  2  0  0  0  0
 17  8  1  0  0  0  0
 18 13  1  0  0  0  0
 19 15  1  0  0  0  0
 20 14  1  0  0  0  0
 21 32  1  1  0  0  0
 21 22  1  0  0  0  0
 21 20  1  0  0  0  0
 22 23  1  1  0  0  0
 22 24  1  0  0  0  0
 24 29  1  1  0  0  0
 24 26  1  0  0  0  0
 25 26  1  0  0  0  0
 27 24  1  0  0  0  0
 27 28  1  0  0  0  0
 28 25  1  0  0  0  0
 29 31  1  0  0  0  0
 31 30  1  0  0  0  0
 33 35  1  0  0  0  0
 33 32  1  0  0  0  0
 35 34  1  0  0  0  0
 37 47  1  1  0  0  0
 38 45  1  1  0  0  0
 38 37  1  0  0  0  0
 39 37  1  0  0  0  0
 39 41  1  1  0  0  0
 40 38  1  0  0  0  0
 42 36  1  1  0  0  0
 42 44  1  0  0  0  0
 43 42  1  0  0  0  0
 43 40  2  0  0  0  0
 44 39  1  0  0  0  0
 46 45  1  0  0  0  0
 47 48  1  0  0  0  0
 49 43  1  0  0  0  0
 51 50  1  1  0  0  0
 51 49  1  0  0  0  0
 52 53  1  0  0  0  0
 52 51  1  0  0  0  0
 54 51  1  0  0  0  0
 56 59  1  1  0  0  0
 56 58  1  0  0  0  0
 56 57  1  0  0  0  0
 57 54  1  0  0  0  0
 57 55  1  1  0  0  0
 58 57  1  0  0  0  0
 59 65  1  6  0  0  0
 60 61  1  0  0  0  0
 62 63  1  0  0  0  0
 63 61  1  0  0  0  0
 64 62  1  0  0  0  0
 65 64  1  1  0  0  0
 65 60  1  0  0  0  0
 66 67  1  0  0  0  0
 67 59  1  6  0  0  0
 68 66  1  0  0  0  0
 68 67  1  0  0  0  0
M  END
>  <MODEL>
3

>  <REMARK>
 VINA RESULT:      -3.4      1.833      2.823
  Name = 
  25 active torsions:
  status: ('A' for Active; 'I' for Inactive)
    1  A    between atoms: C_1  and  C_12
    2  A    between atoms: C_1  and  C_23
    3  A    between atoms: C_1  and  C_65
    4  A    between atoms: C_2  and  C_8
    5  A    between atoms: C_2  and  C_23
    6  A    between atoms: C_6  and  O_49
    7  A    between atoms: C_8  and  C_67
    8  A    between atoms: C_12  and  C_42
    9  A    between atoms: O_13  and  C_17
   10  A    between atoms: C_14  and  C_39
   11  A    between atoms: N_20  and  C_31
   12  A    between atoms: N_20  and  C_56
   13  A    between atoms: O_24  and  C_25
   14  A    between atoms: O_24  and  C_64
   15  A    between atoms: C_26  and  C_40
   16  A    between atoms: C_26  and  C_56
   17  A    between atoms: C_31  and  C_43
   18  A    between atoms: C_33  and  C_39
   19  A    between atoms: C_38  and  C_64
   20  A    between atoms: C_39  and  C_68
   21  A    between atoms: C_42  and  O_51
   22  A    between atoms: C_48  and  O_63
   23  A    between atoms: C_53  and  O_66
   24  A    between atoms: C_56  and  O_66
   25  A    between atoms: O_63  and  C_64
                            x       y       z     vdW  Elec       q    Type
                         _______ _______ _______ _____ _____    ______ ____

>  <TORSDO>
F 25

$$$$
=
 OpenBabel10232410223D

 68 75  0  0  1  0  0  0  0  0999 V2000
  192.4880  174.0380  136.7100 N   0  0  0  0  0  2  0  0  0  0  0  0
  191.8180  173.9250  135.4250 C   0  0  1  0  0  3  0  0  0  0  0  0
  192.7680  173.8160  134.3670 O   0  0  0  0  0  0  0  0  0  0  0  0
  193.5800  171.6100  134.3470 C   0  0  0  0  0  2  0  0  0  0  0  0
  193.8230  172.9080  134.4170 C   0  0  0  0  0  3  0  0  0  0  0  0
  190.8520  172.7480  135.4260 C   0  0  0  0  0  2  0  0  0  0  0  0
  183.9270  176.9990  136.4290 N   0  0  0  0  0  0  0  0  0  0  0  0
  188.8770  172.3900  136.7680 C   0  0  0  0  0  3  0  0  0  0  0  0
  186.8220  174.6650  136.4230 N   0  0  0  0  0  0  0  0  0  0  0  0
  187.8650  175.0870  135.5440 C   0  0  0  0  0  3  0  0  0  0  0  0
  185.1740  176.5600  136.0890 C   0  0  0  0  0  3  0  0  0  0  0  0
  185.5980  175.3490  136.6190 C   0  0  0  0  0  0  0  0  0  0  0  0
  189.5100  173.1890  135.9050 C   0  0  0  0  0  0  0  0  0  0  0  0
  183.5400  175.0780  137.7680 N   0  0  0  0  0  0  0  0  0  0  0  0
  185.3810  173.4290  137.8770 N   0  0  0  0  0  2  0  0  0  0  0  0
  186.6550  173.4830  137.2170 C   0  0  0  0  0  0  0  0  0  0  0  0
  187.5470  172.5120  137.3730 C   0  0  0  0  0  3  0  0  0  0  0  0
  189.0080  174.4460  135.3280 C   0  0  0  0  0  3  0  0  0  0  0  0
  184.7800  174.6400  137.4420 C   0  0  0  0  0  0  0  0  0  0  0  0
  183.1090  176.2710  137.2590 C   0  0  0  0  0  0  0  0  0  0  0  0
  181.7370  176.7710  137.6200 C   0  0  2  0  0  3  0  0  0  0  0  0
  181.5830  177.1570  139.1050 C   0  0  2  0  0  3  0  0  0  0  0  0
  180.2630  177.0220  139.5500 O   0  0  0  0  0  1  0  0  0  0  0  0
  182.1960  178.5250  139.4820 C   0  0  1  0  0  0  0  0  0  0  0  0
  182.4230  178.7940  141.8610 C   0  0  0  0  0  2  0  0  0  0  0  0
  181.4930  179.0760  140.7160 C   0  0  0  0  0  2  0  0  0  0  0  0
  183.6030  178.3220  139.8330 N   0  0  0  0  0  2  0  0  0  0  0  0
  183.7810  178.7570  141.2140 C   0  0  0  0  0  2  0  0  0  0  0  0
  182.1300  179.5510  138.3410 C   0  0  0  0  0  2  0  0  0  0  0  0
  182.3670  181.9380  138.6980 N   0  0  0  0  0  1  0  0  0  0  0  0
  181.4170  180.8420  138.7170 C   0  0  0  0  0  2  0  0  0  0  0  0
  180.6210  175.8770  137.0670 C   0  0  0  0  0  2  0  0  0  0  0  0
  180.4890  174.5630  137.8230 C   0  0  0  0  0  2  0  0  0  0  0  0
  180.3810  172.3760  137.5620 C   0  0  0  0  0  1  0  0  0  0  0  0
  180.0120  173.5780  136.9600 O   0  0  0  0  0  0  0  0  0  0  0  0
  191.7230  175.0110  137.4710 C   0  0  0  0  0  2  0  0  0  0  0  0
  194.6390  174.9070  138.6310 C   0  0  1  0  0  3  0  0  0  0  0  0
  194.7990  176.1860  139.4500 C   0  0  1  0  0  3  0  0  0  0  0  0
  194.4790  175.2310  137.1300 C   0  0  2  0  0  3  0  0  0  0  0  0
  193.4630  176.8100  139.7460 C   0  0  0  0  0  3  0  0  0  0  0  0
  195.8230  175.3640  136.4300 C   0  0  0  0  0  1  0  0  0  0  0  0
  192.4450  176.3680  137.5020 C   0  0  1  0  0  3  0  0  0  0  0  0
  192.4390  176.9560  138.8930 C   0  0  0  0  0  0  0  0  0  0  0  0
  193.7270  176.4080  136.8910 O   0  0  0  0  0  0  0  0  0  0  0  0
  195.4600  175.9300  140.6550 O   0  0  0  0  0  0  0  0  0  0  0  0
  196.7450  175.5300  140.2790 C   0  0  0  0  0  1  0  0  0  0  0  0
  195.6920  174.0110  138.8500 O   0  0  0  0  0  0  0  0  0  0  0  0
  195.1600  172.7570  138.5480 C   0  0  0  0  0  1  0  0  0  0  0  0
  191.3090  177.6370  139.3720 O   0  0  0  0  0  0  0  0  0  0  0  0
  189.9800  175.6950  139.2470 C   0  0  0  0  0  1  0  0  0  0  0  0
  190.1500  177.0350  139.9580 C   0  0  2  0  0  0  0  0  0  0  0  0
  188.9050  177.8780  139.6440 C   0  0  0  0  0  2  0  0  0  0  0  0
  188.0050  177.2030  138.8400 F   0  0  0  0  0  0  0  0  0  0  0  0
  190.3710  176.8800  141.3570 O   0  0  0  0  0  0  0  0  0  0  0  0
  188.5490  175.9010  142.5990 O   0  0  0  0  0  1  0  0  0  0  0  0
  189.3940  178.1390  143.1890 C   0  0  1  0  0  3  0  0  0  0  0  0
  189.2020  177.0500  142.1390 C   0  0  1  0  0  0  0  0  0  0  0  0
  188.4020  178.3280  142.0440 C   0  0  0  0  0  2  0  0  0  0  0  0
  188.6680  177.8420  144.5120 C   0  0  1  0  0  3  0  0  0  0  0  0
  186.6130  176.7220  145.5790 C   0  0  0  0  0  2  0  0  0  0  0  0
  186.3320  177.6530  146.5980 O   0  0  0  0  0  0  0  0  0  0  0  0
  185.7300  179.3730  145.0390 C   0  0  0  0  0  2  0  0  0  0  0  0
  185.2560  178.4340  146.1470 C   0  0  0  0  0  2  0  0  0  0  0  0
  186.2570  178.5450  143.8670 C   0  0  0  0  0  2  0  0  0  0  0  0
  187.1900  177.4190  144.3380 C   0  0  1  0  0  3  0  0  0  0  0  0
  190.7820  176.6850  144.9390 O   0  0  0  0  0  0  0  0  0  0  0  0
  189.5030  176.9600  145.4650 C   0  0  1  0  0  3  0  0  0  0  0  0
  190.7180  177.6530  145.9570 C   0  0  0  0  0  2  0  0  0  0  0  0
  1 36  1  0  0  0  0
  2  6  1  1  0  0  0
  2  1  1  0  0  0  0
  3  5  1  0  0  0  0
  3  2  1  0  0  0  0
  4  5  2  0  0  0  0
  6 13  1  0  0  0  0
  7 20  2  0  0  0  0
  8 17  1  0  0  0  0
  9 12  1  0  0  0  0
  9 16  1  0  0  0  0
 10  9  1  0  0  0  0
 11  7  1  0  0  0  0
 11 12  2  0  0  0  0
 12 19  1  0  0  0  0
 13  8  2  0  0  0  0
 16 17  2  0  0  0  0
 16 15  1  0  0  0  0
 18 10  2  0  0  0  0
 18 13  1  0  0  0  0
 19 14  2  0  0  0  0
 19 15  1  0  0  0  0
 20 21  1  0  0  0  0
 20 14  1  0  0  0  0
 21 32  1  1  0  0  0
 21 22  1  0  0  0  0
 22 24  1  0  0  0  0
 22 23  1  6  0  0  0
 24 29  1  6  0  0  0
 24 27  1  0  0  0  0
 24 26  1  0  0  0  0
 26 25  1  0  0  0  0
 27 28  1  0  0  0  0
 28 25  1  0  0  0  0
 29 31  1  0  0  0  0
 30 31  1  0  0  0  0
 32 33  1  0  0  0  0
 35 34  1  0  0  0  0
 35 33  1  0  0  0  0
 37 47  1  6  0  0  0
 37 38  1  0  0  0  0
 38 40  1  0  0  0  0
 38 45  1  1  0  0  0
 39 41  1  1  0  0  0
 39 37  1  0  0  0  0
 42 36  1  1  0  0  0
 42 43  1  0  0  0  0
 43 49  1  0  0  0  0
 43 40  2  0  0  0  0
 44 39  1  0  0  0  0
 44 42  1  0  0  0  0
 46 45  1  0  0  0  0
 48 47  1  0  0  0  0
 49 51  1  0  0  0  0
 51 50  1  6  0  0  0
 51 54  1  0  0  0  0
 52 51  1  0  0  0  0
 53 52  1  0  0  0  0
 54 57  1  0  0  0  0
 56 59  1  1  0  0  0
 57 55  1  1  0  0  0
 57 56  1  0  0  0  0
 58 57  1  0  0  0  0
 58 56  1  0  0  0  0
 59 65  1  6  0  0  0
 60 61  1  0  0  0  0
 62 63  1  0  0  0  0
 63 61  1  0  0  0  0
 64 62  1  0  0  0  0
 65 64  1  1  0  0  0
 65 60  1  0  0  0  0
 66 67  1  0  0  0  0
 66 68  1  0  0  0  0
 67 59  1  6  0  0  0
 67 68  1  0  0  0  0
M  END
>  <MODEL>
4

>  <REMARK>
 VINA RESULT:      -2.7      2.966     11.997
  Name = 
  25 active torsions:
  status: ('A' for Active; 'I' for Inactive)
    1  A    between atoms: C_1  and  C_12
    2  A    between atoms: C_1  and  C_23
    3  A    between atoms: C_1  and  C_65
    4  A    between atoms: C_2  and  C_8
    5  A    between atoms: C_2  and  C_23
    6  A    between atoms: C_6  and  O_49
    7  A    between atoms: C_8  and  C_67
    8  A    between atoms: C_12  and  C_42
    9  A    between atoms: O_13  and  C_17
   10  A    between atoms: C_14  and  C_39
   11  A    between atoms: N_20  and  C_31
   12  A    between atoms: N_20  and  C_56
   13  A    between atoms: O_24  and  C_25
   14  A    between atoms: O_24  and  C_64
   15  A    between atoms: C_26  and  C_40
   16  A    between atoms: C_26  and  C_56
   17  A    between atoms: C_31  and  C_43
   18  A    between atoms: C_33  and  C_39
   19  A    between atoms: C_38  and  C_64
   20  A    between atoms: C_39  and  C_68
   21  A    between atoms: C_42  and  O_51
   22  A    between atoms: C_48  and  O_63
   23  A    between atoms: C_53  and  O_66
   24  A    between atoms: C_56  and  O_66
   25  A    between atoms: O_63  and  C_64
                            x       y       z     vdW  Elec       q    Type
                         _______ _______ _______ _____ _____    ______ ____

>  <TORSDO>
F 25

$$$$
=
 OpenBabel10232410223D

 68 76  0  0  1  0  0  0  0  0999 V2000
  193.1750  173.4810  136.5810 N   0  0  0  0  0  2  0  0  0  0  0  0
  192.7430  173.8630  135.2460 C   0  0  1  0  0  3  0  0  0  0  0  0
  193.8490  173.8950  134.3470 O   0  0  0  0  0  0  0  0  0  0  0  0
  194.5650  171.6570  134.3870 C   0  0  0  0  0  2  0  0  0  0  0  0
  194.8650  172.9440  134.3960 C   0  0  0  0  0  3  0  0  0  0  0  0
  191.6520  172.9250  134.7480 C   0  0  0  0  0  2  0  0  0  0  0  0
  184.0570  173.9320  137.6370 N   0  0  0  0  0  0  0  0  0  0  0  0
  190.0610  174.7350  134.6080 C   0  0  0  0  0  3  0  0  0  0  0  0
  187.4200  174.0630  136.0540 N   0  0  0  0  0  0  0  0  0  0  0  0
  188.1800  172.8770  136.2830 C   0  0  0  0  0  3  0  0  0  0  0  0
  185.2800  173.4520  137.2660 C   0  0  0  0  0  3  0  0  0  0  0  0
  186.1130  174.2980  136.5470 C   0  0  0  0  0  0  0  0  0  0  0  0
  190.3080  173.4990  135.0490 C   0  0  0  0  0  0  0  0  0  0  0  0
  184.4940  176.0300  136.6180 N   0  0  0  0  0  0  0  0  0  0  0  0
  186.6910  176.2750  135.5080 N   0  0  0  0  0  2  0  0  0  0  0  0
  187.7460  175.3040  135.4160 C   0  0  0  0  0  0  0  0  0  0  0  0
  188.8790  175.5860  134.7840 C   0  0  0  0  0  3  0  0  0  0  0  0
  189.4150  172.6480  135.8510 C   0  0  0  0  0  3  0  0  0  0  0  0
  185.7050  175.5590  136.2380 C   0  0  0  0  0  0  0  0  0  0  0  0
  183.6590  175.2090  137.3220 C   0  0  0  0  0  0  0  0  0  0  0  0
  182.3070  175.7200  137.7420 C   0  0  2  0  0  3  0  0  0  0  0  0
  182.3200  176.5040  139.0700 C   0  0  2  0  0  3  0  0  0  0  0  0
  181.5510  175.8800  140.0580 O   0  0  0  0  0  1  0  0  0  0  0  0
  181.9960  178.0090  138.9320 C   0  0  1  0  0  0  0  0  0  0  0  0
  180.9330  178.5210  136.8370 C   0  0  0  0  0  2  0  0  0  0  0  0
  182.2770  178.4630  137.5050 C   0  0  0  0  0  2  0  0  0  0  0  0
  180.5650  178.1990  139.1800 N   0  0  0  0  0  2  0  0  0  0  0  0
  179.9820  178.7770  137.9740 C   0  0  0  0  0  2  0  0  0  0  0  0
  182.7740  178.8880  139.9230 C   0  0  0  0  0  2  0  0  0  0  0  0
  185.1450  179.3820  140.0520 N   0  0  0  0  0  1  0  0  0  0  0  0
  183.9370  179.6420  139.2930 C   0  0  0  0  0  2  0  0  0  0  0  0
  181.2150  174.6480  137.6370 C   0  0  0  0  0  2  0  0  0  0  0  0
  180.2610  174.8920  136.4770 C   0  0  0  0  0  2  0  0  0  0  0  0
  181.1640  173.3740  135.1560 C   0  0  0  0  0  1  0  0  0  0  0  0
  179.9890  173.6820  135.8400 O   0  0  0  0  0  0  0  0  0  0  0  0
  192.5950  174.4640  137.4800 C   0  0  0  0  0  2  0  0  0  0  0  0
  195.1700  174.8500  139.2350 C   0  0  1  0  0  3  0  0  0  0  0  0
  195.1300  176.3030  139.7060 C   0  0  1  0  0  3  0  0  0  0  0  0
  195.3540  174.7720  137.7040 C   0  0  2  0  0  3  0  0  0  0  0  0
  193.7560  176.8910  139.5290 C   0  0  0  0  0  3  0  0  0  0  0  0
  196.8210  174.8120  137.3050 C   0  0  0  0  0  2  0  0  0  0  0  0
  193.2810  175.8280  137.3120 C   0  0  1  0  0  3  0  0  0  0  0  0
  192.9540  176.7480  138.4650 C   0  0  0  0  0  0  0  0  0  0  0  0
  194.6680  175.7970  137.0070 O   0  0  0  0  0  0  0  0  0  0  0  0
  195.5010  176.4040  141.0500 O   0  0  0  0  0  0  0  0  0  0  0  0
  196.8150  176.8760  141.0230 C   0  0  0  0  0  1  0  0  0  0  0  0
  196.1510  174.1100  139.9050 O   0  0  0  0  0  0  0  0  0  0  0  0
  197.2450  174.1040  139.0400 C   0  0  0  0  0  2  0  0  0  0  0  0
  191.7400  177.4520  138.4910 O   0  0  0  0  0  0  0  0  0  0  0  0
  190.3890  175.6300  139.1340 C   0  0  0  0  0  1  0  0  0  0  0  0
  190.6000  177.1340  139.2960 C   0  0  2  0  0  0  0  0  0  0  0  0
  189.3510  177.8320  138.7390 C   0  0  0  0  0  2  0  0  0  0  0  0
  189.6080  179.1360  138.3550 F   0  0  0  0  0  0  0  0  0  0  0  0
  190.8770  177.4970  140.6470 O   0  0  0  0  0  0  0  0  0  0  0  0
  190.1620  175.7850  142.1900 O   0  0  0  0  0  1  0  0  0  0  0  0
  189.4580  178.1250  142.5150 C   0  0  1  0  0  3  0  0  0  0  0  0
  189.9180  177.0170  141.5720 C   0  0  1  0  0  0  0  0  0  0  0  0
  188.4890  177.5050  141.5100 C   0  0  0  0  0  2  0  0  0  0  0  0
  189.1730  177.6270  143.9420 C   0  0  1  0  0  3  0  0  0  0  0  0
  189.9450  178.8500  146.0680 C   0  0  0  0  0  2  0  0  0  0  0  0
  189.1230  178.2200  147.0220 O   0  0  0  0  0  0  0  0  0  0  0  0
  190.2060  176.0980  146.7430 C   0  0  0  0  0  2  0  0  0  0  0  0
  189.9220  177.2710  147.6800 C   0  0  0  0  0  2  0  0  0  0  0  0
  190.9630  176.6060  145.5160 C   0  0  0  0  0  2  0  0  0  0  0  0
  190.3260  177.8810  144.9400 C   0  0  1  0  0  3  0  0  0  0  0  0
  186.7500  177.3690  143.7090 O   0  0  0  0  0  0  0  0  0  0  0  0
  187.7650  178.0210  144.4390 C   0  0  1  0  0  3  0  0  0  0  0  0
  187.0190  176.8670  144.9960 C   0  0  0  0  0  2  0  0  0  0  0  0
  1 36  1  0  0  0  0
  2  6  1  6  0  0  0
  2  1  1  0  0  0  0
  3  5  1  0  0  0  0
  3  2  1  0  0  0  0
  4  5  2  0  0  0  0
  6 13  1  0  0  0  0
  8 17  1  0  0  0  0
  8 13  2  0  0  0  0
  9 10  1  0  0  0  0
  9 12  1  0  0  0  0
 11  7  1  0  0  0  0
 12 11  2  0  0  0  0
 13 18  1  0  0  0  0
 14 20  1  0  0  0  0
 15 19  1  0  0  0  0
 16 15  1  0  0  0  0
 16  9  1  0  0  0  0
 17 16  2  0  0  0  0
 18 10  2  0  0  0  0
 19 12  1  0  0  0  0
 19 14  2  0  0  0  0
 20  7  2  0  0  0  0
 20 21  1  0  0  0  0
 21 32  1  1  0  0  0
 21 22  1  0  0  0  0
 22 23  1  1  0  0  0
 24 22  1  0  0  0  0
 24 27  1  0  0  0  0
 24 29  1  1  0  0  0
 25 26  1  0  0  0  0
 25 28  1  0  0  0  0
 26 24  1  0  0  0  0
 28 27  1  0  0  0  0
 31 29  1  0  0  0  0
 31 30  1  0  0  0  0
 33 32  1  0  0  0  0
 34 35  1  0  0  0  0
 35 33  1  0  0  0  0
 37 38  1  0  0  0  0
 37 47  1  1  0  0  0
 38 45  1  1  0  0  0
 39 41  1  1  0  0  0
 39 37  1  0  0  0  0
 40 38  1  0  0  0  0
 41 48  1  0  0  0  0
 42 36  1  1  0  0  0
 42 43  1  0  0  0  0
 43 49  1  0  0  0  0
 43 40  2  0  0  0  0
 44 42  1  0  0  0  0
 44 39  1  0  0  0  0
 46 45  1  0  0  0  0
 48 47  1  0  0  0  0
 49 51  1  0  0  0  0
 51 50  1  6  0  0  0
 51 54  1  0  0  0  0
 52 51  1  0  0  0  0
 53 52  1  0  0  0  0
 54 57  1  0  0  0  0
 56 59  1  1  0  0  0
 57 55  1  1  0  0  0
 57 56  1  0  0  0  0
 58 57  1  0  0  0  0
 58 56  1  0  0  0  0
 59 67  1  1  0  0  0
 60 61  1  0  0  0  0
 61 63  1  0  0  0  0
 62 63  1  0  0  0  0
 64 62  1  0  0  0  0
 65 59  1  1  0  0  0
 65 64  1  0  0  0  0
 65 60  1  0  0  0  0
 66 67  1  0  0  0  0
 66 68  1  0  0  0  0
 67 68  1  1  0  0  0
M  END
>  <MODEL>
5

>  <REMARK>
 VINA RESULT:      -2.6      3.193     11.952
  Name = 
  25 active torsions:
  status: ('A' for Active; 'I' for Inactive)
    1  A    between atoms: C_1  and  C_12
    2  A    between atoms: C_1  and  C_23
    3  A    between atoms: C_1  and  C_65
    4  A    between atoms: C_2  and  C_8
    5  A    between atoms: C_2  and  C_23
    6  A    between atoms: C_6  and  O_49
    7  A    between atoms: C_8  and  C_67
    8  A    between atoms: C_12  and  C_42
    9  A    between atoms: O_13  and  C_17
   10  A    between atoms: C_14  and  C_39
   11  A    between atoms: N_20  and  C_31
   12  A    between atoms: N_20  and  C_56
   13  A    between atoms: O_24  and  C_25
   14  A    between atoms: O_24  and  C_64
   15  A    between atoms: C_26  and  C_40
   16  A    between atoms: C_26  and  C_56
   17  A    between atoms: C_31  and  C_43
   18  A    between atoms: C_33  and  C_39
   19  A    between atoms: C_38  and  C_64
   20  A    between atoms: C_39  and  C_68
   21  A    between atoms: C_42  and  O_51
   22  A    between atoms: C_48  and  O_63
   23  A    between atoms: C_53  and  O_66
   24  A    between atoms: C_56  and  O_66
   25  A    between atoms: O_63  and  C_64
                            x       y       z     vdW  Elec       q    Type
                         _______ _______ _______ _____ _____    ______ ____

>  <TORSDO>
F 25

$$$$
=
 OpenBabel10232410223D

 68 75  0  0  1  0  0  0  0  0999 V2000
  187.2510  177.0520  137.2880 N   0  0  0  0  0  2  0  0  0  0  0  0
  186.2110  176.4700  136.4560 C   0  0  1  0  0  3  0  0  0  0  0  0
  185.0520  177.3000  136.4410 O   0  0  0  0  0  0  0  0  0  0  0  0
  183.1930  176.9020  135.0590 C   0  0  0  0  0  2  0  0  0  0  0  0
  183.7760  176.7800  136.2380 C   0  0  0  0  0  3  0  0  0  0  0  0
  186.7300  176.2180  135.0470 C   0  0  0  0  0  2  0  0  0  0  0  0
  193.8880  172.4430  136.2930 N   0  0  0  0  0  0  0  0  0  0  0  0
  189.0160  176.8060  134.5360 C   0  0  0  0  0  3  0  0  0  0  0  0
  191.0010  174.6420  135.4810 N   0  0  0  0  0  0  0  0  0  0  0  0
  189.7520  174.0730  135.8730 C   0  0  0  0  0  3  0  0  0  0  0  0
  192.5770  172.8230  136.2730 C   0  0  0  0  0  3  0  0  0  0  0  0
  192.2640  174.0250  135.6530 C   0  0  0  0  0  0  0  0  0  0  0  0
  188.1900  175.9130  135.0890 C   0  0  0  0  0  0  0  0  0  0  0  0
  194.5430  174.3890  135.1020 N   0  0  0  0  0  0  0  0  0  0  0  0
  192.7340  175.9640  134.4960 N   0  0  0  0  0  2  0  0  0  0  0  0
  191.3280  175.8390  134.7640 C   0  0  0  0  0  0  0  0  0  0  0  0
  190.4730  176.7740  134.3690 C   0  0  0  0  0  3  0  0  0  0  0  0
  188.5560  174.6250  135.6980 C   0  0  0  0  0  3  0  0  0  0  0  0
  193.2450  174.7780  135.0870 C   0  0  0  0  0  0  0  0  0  0  0  0
  194.8690  173.2110  135.7140 C   0  0  0  0  0  0  0  0  0  0  0  0
  196.3080  172.7730  135.7440 C   0  0  2  0  0  3  0  0  0  0  0  0
  196.7340  172.1140  137.0720 C   0  0  2  0  0  3  0  0  0  0  0  0
  197.9530  172.6160  137.5420 O   0  0  0  0  0  1  0  0  0  0  0  0
  196.6940  170.5700  137.0670 C   0  0  1  0  0  0  0  0  0  0  0  0
  198.1590  169.6290  135.4090 C   0  0  0  0  0  2  0  0  0  0  0  0
  196.7390  170.0630  135.6310 C   0  0  0  0  0  2  0  0  0  0  0  0
  197.8930  170.0730  137.7460 N   0  0  0  0  0  2  0  0  0  0  0  0
  198.6390  169.2640  136.7870 C   0  0  0  0  0  2  0  0  0  0  0  0
  195.4640  169.9950  137.7860 C   0  0  0  0  0  2  0  0  0  0  0  0
  194.6560  167.9260  138.7610 N   0  0  0  0  0  1  0  0  0  0  0  0
  195.2780  168.4970  137.5820 C   0  0  0  0  0  2  0  0  0  0  0  0
  197.2630  173.8560  135.2260 C   0  0  0  0  0  2  0  0  0  0  0  0
  197.5530  174.9310  136.2630 C   0  0  0  0  0  2  0  0  0  0  0  0
  197.4530  176.1760  134.4460 C   0  0  0  0  0  1  0  0  0  0  0  0
  197.0980  176.1620  135.7930 O   0  0  0  0  0  0  0  0  0  0  0  0
  186.7340  177.0220  138.6460 C   0  0  0  0  0  2  0  0  0  0  0  0
  189.7380  176.4310  139.3440 C   0  0  1  0  0  3  0  0  0  0  0  0
  189.9220  176.9000  140.7860 C   0  0  1  0  0  3  0  0  0  0  0  0
  189.4430  177.6250  138.4100 C   0  0  2  0  0  3  0  0  0  0  0  0
  188.5940  177.0830  141.4700 C   0  0  0  0  0  3  0  0  0  0  0  0
  190.7190  178.2800  137.9040 C   0  0  0  0  0  1  0  0  0  0  0  0
  187.4100  178.0970  139.5110 C   0  0  1  0  0  3  0  0  0  0  0  0
  187.4990  177.6590  140.9530 C   0  0  0  0  0  0  0  0  0  0  0  0
  188.6350  178.6190  139.0150 O   0  0  0  0  0  0  0  0  0  0  0  0
  190.6890  175.9870  141.5160 O   0  0  0  0  0  0  0  0  0  0  0  0
  190.4680  176.3230  142.8540 C   0  0  0  0  0  1  0  0  0  0  0  0
  190.8350  175.6880  138.8920 O   0  0  0  0  0  0  0  0  0  0  0  0
  191.7840  176.6420  138.5240 C   0  0  0  0  0  1  0  0  0  0  0  0
  186.3910  177.7850  141.8050 O   0  0  0  0  0  0  0  0  0  0  0  0
  186.9080  179.6430  143.1600 C   0  0  0  0  0  1  0  0  0  0  0  0
  186.4260  178.1950  143.1760 C   0  0  2  0  0  0  0  0  0  0  0  0
  187.4720  177.3740  143.9430 C   0  0  0  0  0  2  0  0  0  0  0  0
  188.3150  178.1730  144.6950 F   0  0  0  0  0  0  0  0  0  0  0  0
  185.1160  178.0680  143.7250 O   0  0  0  0  0  0  0  0  0  0  0  0
  184.5130  179.6120  141.9720 O   0  0  0  0  0  1  0  0  0  0  0  0
  182.7640  178.4100  143.2260 C   0  0  1  0  0  3  0  0  0  0  0  0
  184.1800  178.9770  143.1740 C   0  0  1  0  0  0  0  0  0  0  0  0
  183.1440  179.6340  144.0570 C   0  0  0  0  0  2  0  0  0  0  0  0
  181.9070  178.8070  142.0120 C   0  0  1  0  0  3  0  0  0  0  0  0
  180.7590  177.4550  140.1500 C   0  0  0  0  0  2  0  0  0  0  0  0
  180.1870  178.5060  139.4060 O   0  0  0  0  0  0  0  0  0  0  0  0
  182.3240  179.3600  138.7300 C   0  0  0  0  0  2  0  0  0  0  0  0
  181.0160  178.7070  138.2890 C   0  0  0  0  0  2  0  0  0  0  0  0
  183.0440  178.4360  139.7120 C   0  0  0  0  0  2  0  0  0  0  0  0
  182.0890  177.8870  140.7830 C   0  0  1  0  0  3  0  0  0  0  0  0
  180.3500  180.2790  143.1960 O   0  0  0  0  0  0  0  0  0  0  0  0
  180.4440  179.1230  142.3940 C   0  0  1  0  0  3  0  0  0  0  0  0
  179.9840  180.4200  141.8450 C   0  0  0  0  0  2  0  0  0  0  0  0
  1 36  1  0  0  0  0
  2  6  1  6  0  0  0
  2  1  1  0  0  0  0
  3  2  1  0  0  0  0
  4  5  2  0  0  0  0
  5  3  1  0  0  0  0
  6 13  1  0  0  0  0
  8 13  2  0  0  0  0
  9 12  1  0  0  0  0
  9 10  1  0  0  0  0
 11  7  1  0  0  0  0
 12 11  2  0  0  0  0
 13 18  1  0  0  0  0
 14 20  1  0  0  0  0
 15 16  1  0  0  0  0
 15 19  1  0  0  0  0
 16  9  1  0  0  0  0
 17  8  1  0  0  0  0
 17 16  2  0  0  0  0
 18 10  2  0  0  0  0
 19 14  2  0  0  0  0
 19 12  1  0  0  0  0
 20 21  1  0  0  0  0
 20  7  2  0  0  0  0
 21 32  1  1  0  0  0
 21 22  1  0  0  0  0
 22 23  1  6  0  0  0
 24 22  1  0  0  0  0
 24 27  1  0  0  0  0
 24 29  1  1  0  0  0
 25 26  1  0  0  0  0
 25 28  1  0  0  0  0
 26 24  1  0  0  0  0
 28 27  1  0  0  0  0
 31 29  1  0  0  0  0
 31 30  1  0  0  0  0
 32 33  1  0  0  0  0
 34 35  1  0  0  0  0
 35 33  1  0  0  0  0
 37 47  1  6  0  0  0
 37 38  1  0  0  0  0
 38 40  1  0  0  0  0
 38 45  1  1  0  0  0
 39 41  1  1  0  0  0
 39 44  1  0  0  0  0
 39 37  1  0  0  0  0
 42 36  1  6  0  0  0
 42 43  1  0  0  0  0
 43 40  2  0  0  0  0
 43 49  1  0  0  0  0
 44 42  1  0  0  0  0
 45 46  1  0  0  0  0
 48 47  1  0  0  0  0
 49 51  1  0  0  0  0
 51 50  1  1  0  0  0
 51 54  1  0  0  0  0
 51 52  1  0  0  0  0
 52 53  1  0  0  0  0
 56 59  1  6  0  0  0
 56 58  1  0  0  0  0
 57 55  1  6  0  0  0
 57 56  1  0  0  0  0
 57 54  1  0  0  0  0
 57 58  1  0  0  0  0
 59 65  1  6  0  0  0
 60 65  1  0  0  0  0
 61 60  1  0  0  0  0
 62 64  1  0  0  0  0
 63 62  1  0  0  0  0
 63 61  1  0  0  0  0
 65 64  1  6  0  0  0
 67 59  1  6  0  0  0
 67 66  1  0  0  0  0
 68 67  1  0  0  0  0
 68 66  1  0  0  0  0
M  END
>  <MODEL>
6

>  <REMARK>
 VINA RESULT:      -1.9      2.180      6.252
  Name = 
  25 active torsions:
  status: ('A' for Active; 'I' for Inactive)
    1  A    between atoms: C_1  and  C_12
    2  A    between atoms: C_1  and  C_23
    3  A    between atoms: C_1  and  C_65
    4  A    between atoms: C_2  and  C_8
    5  A    between atoms: C_2  and  C_23
    6  A    between atoms: C_6  and  O_49
    7  A    between atoms: C_8  and  C_67
    8  A    between atoms: C_12  and  C_42
    9  A    between atoms: O_13  and  C_17
   10  A    between atoms: C_14  and  C_39
   11  A    between atoms: N_20  and  C_31
   12  A    between atoms: N_20  and  C_56
   13  A    between atoms: O_24  and  C_25
   14  A    between atoms: O_24  and  C_64
   15  A    between atoms: C_26  and  C_40
   16  A    between atoms: C_26  and  C_56
   17  A    between atoms: C_31  and  C_43
   18  A    between atoms: C_33  and  C_39
   19  A    between atoms: C_38  and  C_64
   20  A    between atoms: C_39  and  C_68
   21  A    between atoms: C_42  and  O_51
   22  A    between atoms: C_48  and  O_63
   23  A    between atoms: C_53  and  O_66
   24  A    between atoms: C_56  and  O_66
   25  A    between atoms: O_63  and  C_64
                            x       y       z     vdW  Elec       q    Type
                         _______ _______ _______ _____ _____    ______ ____

>  <TORSDO>
F 25

$$$$
