=
 OpenBabel10232408433D

 30 36  0  0  1  0  0  0  0  0999 V2000
  187.5760  178.2400  144.7560 C   0  0  1  0  0  3  0  0  0  0  0  0
  184.5000  178.9930  145.4910 N   0  0  0  0  0  0  0  0  0  0  0  0
  188.9700  177.1990  142.6260 C   0  0  1  0  0  3  0  0  0  0  0  0
  186.4330  177.2180  142.7190 N   0  0  0  0  0  2  0  0  0  0  0  0
  185.7240  178.6180  146.1280 C   0  0  0  0  0  0  0  0  0  0  0  0
  183.9620  179.0690  140.8290 N   0  0  0  0  0  0  0  0  0  0  0  0
  186.0290  179.2320  147.2840 C   0  0  0  0  0  2  0  0  0  0  0  0
  183.5100  179.1840  142.1700 C   0  0  2  0  0  3  0  0  0  0  0  0
  188.5810  177.3130  147.1120 C   0  0  2  0  0  3  0  0  0  0  0  0
  183.9000  178.2320  144.3980 C   0  0  2  0  0  3  0  0  0  0  0  0
  185.1150  178.4760  140.9180 C   0  0  0  0  0  3  0  0  0  0  0  0
  185.4450  178.1780  142.3220 C   0  0  0  0  0  0  0  0  0  0  0  0
  188.2340  178.2620  148.1710 C   0  0  0  0  0  3  0  0  0  0  0  0
  187.9460  177.3370  145.9590 C   0  0  1  0  0  3  0  0  0  0  0  0
  184.4550  178.6470  143.0760 C   0  0  0  0  0  0  0  0  0  0  0  0
  189.4840  176.1800  147.4340 C   0  0  0  0  0  1  0  0  0  0  0  0
  187.6890  177.6190  143.3600 C   0  0  1  0  0  0  0  0  0  0  0  0
  186.5440  177.5700  145.4420 C   0  0  2  0  0  3  0  0  0  0  0  0
  181.0960  179.3400  141.6880 C   0  0  0  0  0  1  0  0  0  0  0  0
  182.1080  178.6660  144.3070 S   0  0  0  0  0  0  0  0  0  0  0  0
  182.2670  179.2130  142.5990 C   0  0  1  0  0  3  0  0  0  0  0  0
  187.1710  179.0750  148.2190 C   0  0  0  0  0  3  0  0  0  0  0  0
  188.4110  178.5920  142.4390 C   0  0  0  0  0  2  0  0  0  0  0  0
  191.2330  179.7840  143.8780 Cl  0  0  0  0  0  0  0  0  0  0  0  0
  191.6090  177.5730  145.3890 C   0  0  0  0  0  2  0  0  0  0  0  0
  190.7910  175.9650  143.7680 N   0  0  0  0  0  2  0  0  0  0  0  0
  192.2280  175.2410  145.4680 O   0  0  0  0  0  0  0  0  0  0  0  0
  191.5930  176.1730  144.9110 C   0  0  0  0  0  0  0  0  0  0  0  0
  190.3390  177.2680  143.3280 C   0  0  2  0  0  3  0  0  0  0  0  0
  190.5770  178.2470  144.4890 C   0  0  2  0  0  3  0  0  0  0  0  0
  1 18  1  0  0  0  0
  1 14  1  0  0  0  0
  2  5  2  0  0  0  0
  3 29  1  0  0  0  0
  3 17  1  0  0  0  0
  4 17  1  0  0  0  0
  5  7  1  0  0  0  0
  6 11  2  0  0  0  0
  6  8  1  0  0  0  0
  7 22  1  0  0  0  0
  8 21  1  0  0  0  0
  8 15  1  0  0  0  0
  9 16  1  0  0  0  0
  9 13  1  0  0  0  0
 10  2  1  0  0  0  0
 11 12  1  0  0  0  0
 12  4  1  0  0  0  0
 12 15  2  0  0  0  0
 13 22  2  0  0  0  0
 14  9  1  0  0  0  0
 15 10  1  0  0  0  0
 17  1  1  0  0  0  0
 18 14  1  0  0  0  0
 18  5  1  0  0  0  0
 19 21  1  0  0  0  0
 20 10  1  0  0  0  0
 21 20  1  0  0  0  0
 23  3  1  0  0  0  0
 23 17  1  0  0  0  0
 24 30  1  0  0  0  0
 26 28  1  0  0  0  0
 28 25  1  0  0  0  0
 28 27  2  0  0  0  0
 29 26  1  0  0  0  0
 29 30  1  0  0  0  0
 30 25  1  0  0  0  0
M  END
>  <MODEL>
1

>  <REMARK>
 VINA RESULT:      -8.9      0.000      0.000
  Name = 
  1 active torsions:
  status: ('A' for Active; 'I' for Inactive)
    1  A    between atoms: C_4  and  C_25
                            x       y       z     vdW  Elec       q    Type
                         _______ _______ _______ _____ _____    ______ ____

>  <TORSDO>
F 1

$$$$
=
 OpenBabel10232408433D

 30 36  0  0  1  0  0  0  0  0999 V2000
  187.9550  178.2100  144.3240 C   0  0  1  0  0  3  0  0  0  0  0  0
  184.7970  178.9640  144.1620 N   0  0  0  0  0  0  0  0  0  0  0  0
  189.8850  177.1430  142.6810 C   0  0  1  0  0  3  0  0  0  0  0  0
  187.4230  177.1550  142.0640 N   0  0  0  0  0  2  0  0  0  0  0  0
  185.7950  178.6020  145.1190 C   0  0  0  0  0  0  0  0  0  0  0  0
  185.5770  178.9700  139.5330 N   0  0  0  0  0  0  0  0  0  0  0  0
  185.7670  179.2340  146.3050 C   0  0  0  0  0  2  0  0  0  0  0  0
  184.7700  179.1020  140.6950 C   0  0  2  0  0  3  0  0  0  0  0  0
  188.2630  177.3210  146.8790 C   0  0  2  0  0  3  0  0  0  0  0  0
  184.5230  178.1850  142.9570 C   0  0  2  0  0  3  0  0  0  0  0  0
  186.6590  178.3820  139.9490 C   0  0  0  0  0  3  0  0  0  0  0  0
  186.5850  178.1060  141.3940 C   0  0  0  0  0  0  0  0  0  0  0  0
  187.6370  178.2850  147.7850 C   0  0  0  0  0  3  0  0  0  0  0  0
  187.9740  177.3260  145.5950 C   0  0  1  0  0  3  0  0  0  0  0  0
  185.4250  178.5820  141.8350 C   0  0  0  0  0  0  0  0  0  0  0  0
  189.0400  176.1960  147.4570 C   0  0  0  0  0  1  0  0  0  0  0  0
  188.4510  177.5690  143.0230 C   0  0  1  0  0  0  0  0  0  0  0  0
  186.7720  177.5470  144.7050 C   0  0  2  0  0  3  0  0  0  0  0  0
  182.5850  179.2440  139.5570 C   0  0  0  0  0  1  0  0  0  0  0  0
  182.8290  178.6130  142.3640 S   0  0  0  0  0  0  0  0  0  0  0  0
  183.4570  179.1340  140.7590 C   0  0  1  0  0  3  0  0  0  0  0  0
  186.6030  179.0960  147.5240 C   0  0  0  0  0  3  0  0  0  0  0  0
  189.4020  178.5300  142.3240 C   0  0  0  0  0  2  0  0  0  0  0  0
  191.7890  179.7530  144.3930 Cl  0  0  0  0  0  0  0  0  0  0  0  0
  191.6570  177.6210  146.0530 C   0  0  0  0  0  2  0  0  0  0  0  0
  191.2740  175.9420  144.3460 N   0  0  0  0  0  2  0  0  0  0  0  0
  192.1550  175.2870  146.4130 O   0  0  0  0  0  0  0  0  0  0  0  0
  191.7310  176.1970  145.6570 C   0  0  0  0  0  0  0  0  0  0  0  0
  191.0050  177.2260  143.7350 C   0  0  2  0  0  3  0  0  0  0  0  0
  190.9400  178.2630  144.8680 C   0  0  2  0  0  3  0  0  0  0  0  0
  1 18  1  0  0  0  0
  1 14  1  0  0  0  0
  2  5  2  0  0  0  0
  3 17  1  0  0  0  0
  3 29  1  0  0  0  0
  4 17  1  0  0  0  0
  5  7  1  0  0  0  0
  6 11  2  0  0  0  0
  6  8  1  0  0  0  0
  7 22  1  0  0  0  0
  8 21  1  0  0  0  0
  8 15  1  0  0  0  0
  9 16  1  0  0  0  0
  9 13  1  0  0  0  0
 10  2  1  0  0  0  0
 11 12  1  0  0  0  0
 12 15  2  0  0  0  0
 12  4  1  0  0  0  0
 14  9  1  0  0  0  0
 15 10  1  0  0  0  0
 17  1  1  0  0  0  0
 18  5  1  0  0  0  0
 18 14  1  0  0  0  0
 19 21  1  0  0  0  0
 20 10  1  0  0  0  0
 21 20  1  0  0  0  0
 22 13  2  0  0  0  0
 23  3  1  0  0  0  0
 23 17  1  0  0  0  0
 24 30  1  0  0  0  0
 26 28  1  0  0  0  0
 28 25  1  0  0  0  0
 28 27  2  0  0  0  0
 29 26  1  0  0  0  0
 29 30  1  0  0  0  0
 30 25  1  0  0  0  0
M  END
>  <MODEL>
2

>  <REMARK>
 VINA RESULT:      -8.8      1.134      1.277
  Name = 
  1 active torsions:
  status: ('A' for Active; 'I' for Inactive)
    1  A    between atoms: C_4  and  C_25
                            x       y       z     vdW  Elec       q    Type
                         _______ _______ _______ _____ _____    ______ ____

>  <TORSDO>
F 1

$$$$
=
 OpenBabel10232408433D

 30 36  0  0  1  0  0  0  0  0999 V2000
  186.8300  177.7070  141.5240 C   0  0  1  0  0  3  0  0  0  0  0  0
  185.3130  178.1170  144.3700 N   0  0  0  0  0  2  0  0  0  0  0  0
  189.4040  177.7430  140.5590 C   0  0  1  0  0  3  0  0  0  0  0  0
  188.8150  178.5160  142.9040 N   0  0  0  0  0  2  0  0  0  0  0  0
  185.0730  178.2430  142.9670 C   0  0  0  0  0  0  0  0  0  0  0  0
  189.5340  177.1090  146.1610 N   0  0  0  0  0  0  0  0  0  0  0  0
  183.8690  177.8560  142.5120 C   0  0  0  0  0  3  0  0  0  0  0  0
  188.1590  177.4570  146.2440 C   0  0  2  0  0  3  0  0  0  0  0  0
  185.1100  178.8150  139.7260 C   0  0  2  0  0  3  0  0  0  0  0  0
  186.4450  178.7440  145.0490 C   0  0  2  0  0  3  0  0  0  0  0  0
  189.8560  177.3280  144.9220 C   0  0  0  0  0  3  0  0  0  0  0  0
  188.7010  177.8350  144.1600 C   0  0  0  0  0  0  0  0  0  0  0  0
  183.7670  178.2930  139.9850 C   0  0  0  0  0  3  0  0  0  0  0  0
  186.0540  178.7130  140.6380 C   0  0  1  0  0  3  0  0  0  0  0  0
  187.6620  177.8800  144.9900 C   0  0  0  0  0  0  0  0  0  0  0  0
  185.3290  179.6630  138.5280 C   0  0  0  0  0  1  0  0  0  0  0  0
  188.3420  177.9170  141.6530 C   0  0  1  0  0  0  0  0  0  0  0  0
  186.1910  178.8000  142.1420 C   0  0  2  0  0  3  0  0  0  0  0  0
  188.0890  177.9300  148.6640 C   0  0  0  0  0  1  0  0  0  0  0  0
  186.0490  178.8630  146.8470 S   0  0  0  0  0  0  0  0  0  0  0  0
  187.5070  177.9070  147.2940 C   0  0  1  0  0  3  0  0  0  0  0  0
  183.2670  177.8760  141.1560 C   0  0  0  0  0  3  0  0  0  0  0  0
  189.0490  176.5830  141.4600 C   0  0  0  0  0  2  0  0  0  0  0  0
  188.9130  179.5870  137.4400 Cl  0  0  0  0  0  0  0  0  0  0  0  0
  189.6700  177.0740  136.7880 C   0  0  0  0  0  2  0  0  0  0  0  0
  188.9570  176.0080  138.8460 N   0  0  0  0  0  2  0  0  0  0  0  0
  189.2030  174.7090  136.9150 O   0  0  0  0  0  0  0  0  0  0  0  0
  189.2650  175.8310  137.4800 C   0  0  0  0  0  0  0  0  0  0  0  0
  188.9980  177.4310  139.1070 C   0  0  2  0  0  3  0  0  0  0  0  0
  189.7360  178.0870  137.9280 C   0  0  2  0  0  3  0  0  0  0  0  0
  1 17  1  0  0  0  0
  1 18  1  0  0  0  0
  2 10  1  0  0  0  0
  3 23  1  0  0  0  0
  3 17  1  0  0  0  0
  4 12  1  0  0  0  0
  5  2  1  0  0  0  0
  6  8  1  0  0  0  0
  7  5  2  0  0  0  0
  8 21  1  0  0  0  0
  9 13  1  0  0  0  0
  9 14  1  0  0  0  0
 10 20  1  0  0  0  0
 11  6  2  0  0  0  0
 12 11  1  0  0  0  0
 12 15  2  0  0  0  0
 13 22  2  0  0  0  0
 14  1  1  0  0  0  0
 14 18  1  0  0  0  0
 15 10  1  0  0  0  0
 15  8  1  0  0  0  0
 16  9  1  0  0  0  0
 17  4  1  0  0  0  0
 18  5  1  0  0  0  0
 20 21  1  0  0  0  0
 21 19  1  0  0  0  0
 22  7  1  0  0  0  0
 23 17  1  0  0  0  0
 24 30  1  0  0  0  0
 25 28  1  0  0  0  0
 25 30  1  0  0  0  0
 26 29  1  0  0  0  0
 27 28  2  0  0  0  0
 28 26  1  0  0  0  0
 29  3  1  0  0  0  0
 30 29  1  0  0  0  0
M  END
>  <MODEL>
3

>  <REMARK>
 VINA RESULT:      -8.2      3.297      6.230
  Name = 
  1 active torsions:
  status: ('A' for Active; 'I' for Inactive)
    1  A    between atoms: C_4  and  C_25
                            x       y       z     vdW  Elec       q    Type
                         _______ _______ _______ _____ _____    ______ ____

>  <TORSDO>
F 1

$$$$
=
 OpenBabel10232408433D

 30 36  0  0  1  0  0  0  0  0999 V2000
  188.0300  177.9570  140.8930 C   0  0  1  0  0  3  0  0  0  0  0  0
  190.8380  177.2660  142.3790 N   0  0  0  0  0  2  0  0  0  0  0  0
  185.3520  178.0090  141.5130 C   0  0  1  0  0  3  0  0  0  0  0  0
  187.0920  177.0040  143.0640 N   0  0  0  0  0  2  0  0  0  0  0  0
  190.2600  177.2840  141.0720 C   0  0  0  0  0  0  0  0  0  0  0  0
  188.3590  178.0700  146.2830 N   0  0  0  0  0  0  0  0  0  0  0  0
  191.0340  177.7200  140.0630 C   0  0  0  0  0  3  0  0  0  0  0  0
  189.5320  177.7210  145.5620 C   0  0  2  0  0  3  0  0  0  0  0  0
  188.4160  177.0450  138.3570 C   0  0  2  0  0  3  0  0  0  0  0  0
  190.2350  176.5690  143.5130 C   0  0  2  0  0  3  0  0  0  0  0  0
  187.3970  177.9770  145.4150 C   0  0  0  0  0  3  0  0  0  0  0  0
  187.9140  177.5540  144.1020 C   0  0  0  0  0  0  0  0  0  0  0  0
  189.7050  177.5430  137.8740 C   0  0  0  0  0  3  0  0  0  0  0  0
  188.1360  177.0490  139.6430 C   0  0  1  0  0  3  0  0  0  0  0  0
  189.2340  177.4290  144.2110 C   0  0  0  0  0  0  0  0  0  0  0  0
  187.5300  176.3220  137.4100 C   0  0  0  0  0  1  0  0  0  0  0  0
  186.8300  177.7290  141.8180 C   0  0  1  0  0  0  0  0  0  0  0  0
  188.8450  176.8090  140.9570 C   0  0  2  0  0  3  0  0  0  0  0  0
  190.8970  177.0050  147.4880 C   0  0  0  0  0  1  0  0  0  0  0  0
  191.5480  176.2690  144.7740 S   0  0  0  0  0  0  0  0  0  0  0  0
  190.6290  177.1690  146.0330 C   0  0  1  0  0  3  0  0  0  0  0  0
  190.7880  177.8410  138.6050 C   0  0  0  0  0  3  0  0  0  0  0  0
  186.2050  179.0740  142.1640 C   0  0  0  0  0  2  0  0  0  0  0  0
  184.2650  176.4600  138.3850 Cl  0  0  0  0  0  0  0  0  0  0  0  0
  183.0920  178.8910  138.5380 C   0  0  0  0  0  2  0  0  0  0  0  0
  184.6990  179.8990  140.0490 N   0  0  0  0  0  2  0  0  0  0  0  0
  183.3760  181.2830  138.7020 O   0  0  0  0  0  0  0  0  0  0  0  0
  183.7050  180.1270  139.0720 C   0  0  0  0  0  0  0  0  0  0  0  0
  184.9090  178.4690  140.1120 C   0  0  2  0  0  3  0  0  0  0  0  0
  183.7120  177.8040  139.4110 C   0  0  2  0  0  3  0  0  0  0  0  0
  1 18  1  0  0  0  0
  1 17  1  0  0  0  0
  2 10  1  0  0  0  0
  3 17  1  0  0  0  0
  3 23  1  0  0  0  0
  4 12  1  0  0  0  0
  5  2  1  0  0  0  0
  7  5  2  0  0  0  0
  8 21  1  0  0  0  0
  8  6  1  0  0  0  0
  9 14  1  0  0  0  0
 10 15  1  0  0  0  0
 10 20  1  0  0  0  0
 11  6  2  0  0  0  0
 12 15  2  0  0  0  0
 12 11  1  0  0  0  0
 13  9  1  0  0  0  0
 13 22  2  0  0  0  0
 14  1  1  0  0  0  0
 14 18  1  0  0  0  0
 15  8  1  0  0  0  0
 16  9  1  0  0  0  0
 17 23  1  0  0  0  0
 17  4  1  0  0  0  0
 18  5  1  0  0  0  0
 20 21  1  0  0  0  0
 21 19  1  0  0  0  0
 22  7  1  0  0  0  0
 24 30  1  0  0  0  0
 25 28  1  0  0  0  0
 25 30  1  0  0  0  0
 26 29  1  0  0  0  0
 27 28  2  0  0  0  0
 28 26  1  0  0  0  0
 29  3  1  0  0  0  0
 30 29  1  0  0  0  0
M  END
>  <MODEL>
4

>  <REMARK>
 VINA RESULT:      -7.9      4.169      7.889
  Name = 
  1 active torsions:
  status: ('A' for Active; 'I' for Inactive)
    1  A    between atoms: C_4  and  C_25
                            x       y       z     vdW  Elec       q    Type
                         _______ _______ _______ _____ _____    ______ ____

>  <TORSDO>
F 1

$$$$
=
 OpenBabel10232408433D

 30 36  0  0  1  0  0  0  0  0999 V2000
  186.6740  177.7900  140.5690 C   0  0  1  0  0  3  0  0  0  0  0  0
  189.7290  176.9890  141.3440 N   0  0  0  0  0  0  0  0  0  0  0  0
  185.3220  178.8320  138.4140 C   0  0  1  0  0  3  0  0  0  0  0  0
  187.8560  178.7680  138.5330 N   0  0  0  0  0  2  0  0  0  0  0  0
  188.5060  177.3940  141.9630 C   0  0  0  0  0  0  0  0  0  0  0  0
  190.3120  176.8520  136.6880 N   0  0  0  0  0  0  0  0  0  0  0  0
  188.1770  176.7980  143.1230 C   0  0  0  0  0  2  0  0  0  0  0  0
  190.7480  176.7440  138.0360 C   0  0  2  0  0  3  0  0  0  0  0  0
  185.6630  178.7610  142.9040 C   0  0  2  0  0  3  0  0  0  0  0  0
  190.3540  177.7270  140.2490 C   0  0  2  0  0  3  0  0  0  0  0  0
  189.1700  177.4660  136.7590 C   0  0  0  0  0  3  0  0  0  0  0  0
  188.8310  177.7860  138.1570 C   0  0  0  0  0  0  0  0  0  0  0  0
  185.9820  177.8170  143.9760 C   0  0  0  0  0  3  0  0  0  0  0  0
  186.3100  178.7130  141.7580 C   0  0  1  0  0  3  0  0  0  0  0  0
  189.8050  177.3080  138.9250 C   0  0  0  0  0  0  0  0  0  0  0  0
  184.7780  179.9130  143.2050 C   0  0  0  0  0  1  0  0  0  0  0  0
  186.5880  178.3970  139.1650 C   0  0  1  0  0  0  0  0  0  0  0  0
  187.7120  178.4490  141.2580 C   0  0  2  0  0  3  0  0  0  0  0  0
  193.1640  176.5380  137.5800 C   0  0  0  0  0  1  0  0  0  0  0  0
  192.1380  177.2590  140.1800 S   0  0  0  0  0  0  0  0  0  0  0  0
  191.9870  176.6970  138.4770 C   0  0  1  0  0  3  0  0  0  0  0  0
  187.0300  176.9850  144.0450 C   0  0  0  0  0  3  0  0  0  0  0  0
  185.8570  177.4280  138.2470 C   0  0  0  0  0  2  0  0  0  0  0  0
  182.4650  181.0720  138.8460 Cl  0  0  0  0  0  0  0  0  0  0  0  0
  181.5260  178.5360  138.9050 C   0  0  0  0  0  2  0  0  0  0  0  0
  183.6010  177.4690  139.5650 N   0  0  0  0  0  2  0  0  0  0  0  0
  181.5740  176.3710  139.9710 O   0  0  0  0  0  0  0  0  0  0  0  0
  182.1940  177.3700  139.5240 C   0  0  0  0  0  0  0  0  0  0  0  0
  183.9450  178.7960  139.1010 C   0  0  2  0  0  3  0  0  0  0  0  0
  182.7020  179.3670  138.3970 C   0  0  2  0  0  3  0  0  0  0  0  0
  1 18  1  0  0  0  0
  1 14  1  0  0  0  0
  2  5  2  0  0  0  0
  3 29  1  0  0  0  0
  3 17  1  0  0  0  0
  4 17  1  0  0  0  0
  5  7  1  0  0  0  0
  6 11  2  0  0  0  0
  6  8  1  0  0  0  0
  7 22  1  0  0  0  0
  8 21  1  0  0  0  0
  8 15  1  0  0  0  0
  9 16  1  0  0  0  0
  9 13  1  0  0  0  0
 10  2  1  0  0  0  0
 11 12  1  0  0  0  0
 12  4  1  0  0  0  0
 12 15  2  0  0  0  0
 13 22  2  0  0  0  0
 14  9  1  0  0  0  0
 15 10  1  0  0  0  0
 17  1  1  0  0  0  0
 18 14  1  0  0  0  0
 18  5  1  0  0  0  0
 19 21  1  0  0  0  0
 20 10  1  0  0  0  0
 21 20  1  0  0  0  0
 23  3  1  0  0  0  0
 23 17  1  0  0  0  0
 25 28  1  0  0  0  0
 28 26  1  0  0  0  0
 28 27  2  0  0  0  0
 29 26  1  0  0  0  0
 30 24  1  0  0  0  0
 30 25  1  0  0  0  0
 30 29  1  0  0  0  0
M  END
>  <MODEL>
5

>  <REMARK>
 VINA RESULT:      -7.8      4.800      7.858
  Name = 
  1 active torsions:
  status: ('A' for Active; 'I' for Inactive)
    1  A    between atoms: C_4  and  C_25
                            x       y       z     vdW  Elec       q    Type
                         _______ _______ _______ _____ _____    ______ ____

>  <TORSDO>
F 1

$$$$
=
 OpenBabel10232408433D

 30 36  0  0  1  0  0  0  0  0999 V2000
  187.5800  177.2710  139.6950 C   0  0  1  0  0  3  0  0  0  0  0  0
  190.7130  176.8030  140.4260 N   0  0  0  0  0  0  0  0  0  0  0  0
  186.0770  177.9450  137.4940 C   0  0  1  0  0  3  0  0  0  0  0  0
  188.6100  178.0900  137.5120 N   0  0  0  0  0  2  0  0  0  0  0  0
  189.4830  177.1830  141.0470 C   0  0  0  0  0  0  0  0  0  0  0  0
  191.1510  176.1640  135.7970 N   0  0  0  0  0  0  0  0  0  0  0  0
  189.2430  176.7040  142.2800 C   0  0  0  0  0  2  0  0  0  0  0  0
  191.6390  176.2490  137.1280 C   0  0  2  0  0  3  0  0  0  0  0  0
  186.5720  178.4300  141.9440 C   0  0  2  0  0  3  0  0  0  0  0  0
  191.2400  177.4530  139.2280 C   0  0  2  0  0  3  0  0  0  0  0  0
  189.9650  176.6930  135.8450 C   0  0  0  0  0  3  0  0  0  0  0  0
  189.6480  177.1480  137.2100 C   0  0  0  0  0  0  0  0  0  0  0  0
  187.0010  177.6460  143.1030 C   0  0  0  0  0  3  0  0  0  0  0  0
  187.1810  178.2970  140.7850 C   0  0  1  0  0  3  0  0  0  0  0  0
  190.6830  176.8400  137.9860 C   0  0  0  0  0  0  0  0  0  0  0  0
  185.6060  179.5380  142.1480 C   0  0  0  0  0  1  0  0  0  0  0  0
  187.3980  177.7000  138.2360 C   0  0  1  0  0  0  0  0  0  0  0  0
  188.5840  178.0840  140.2590 C   0  0  2  0  0  3  0  0  0  0  0  0
  194.0470  176.1770  136.5970 C   0  0  0  0  0  1  0  0  0  0  0  0
  193.0530  177.1180  139.1380 S   0  0  0  0  0  0  0  0  0  0  0  0
  192.8910  176.3490  137.5180 C   0  0  1  0  0  3  0  0  0  0  0  0
  188.1150  176.9110  143.2220 C   0  0  0  0  0  3  0  0  0  0  0  0
  186.7170  176.5770  137.4670 C   0  0  0  0  0  2  0  0  0  0  0  0
  183.7850  180.2890  139.1140 Cl  0  0  0  0  0  0  0  0  0  0  0  0
  182.3120  178.2130  138.1980 C   0  0  0  0  0  2  0  0  0  0  0  0
  184.1070  176.5840  138.1360 N   0  0  0  0  0  2  0  0  0  0  0  0
  181.8920  175.8360  138.2470 O   0  0  0  0  0  0  0  0  0  0  0  0
  182.7120  176.7880  138.2000 C   0  0  0  0  0  0  0  0  0  0  0  0
  184.7300  177.8860  138.2390 C   0  0  2  0  0  3  0  0  0  0  0  0
  183.6380  178.9340  137.9700 C   0  0  2  0  0  3  0  0  0  0  0  0
  1 18  1  0  0  0  0
  1 14  1  0  0  0  0
  2  5  2  0  0  0  0
  3 17  1  0  0  0  0
  3 29  1  0  0  0  0
  4 17  1  0  0  0  0
  5  7  1  0  0  0  0
  6 11  2  0  0  0  0
  6  8  1  0  0  0  0
  7 22  1  0  0  0  0
  8 21  1  0  0  0  0
  8 15  1  0  0  0  0
  9 16  1  0  0  0  0
  9 13  1  0  0  0  0
 10  2  1  0  0  0  0
 11 12  1  0  0  0  0
 12  4  1  0  0  0  0
 12 15  2  0  0  0  0
 13 22  2  0  0  0  0
 14  9  1  0  0  0  0
 15 10  1  0  0  0  0
 17  1  1  0  0  0  0
 18 14  1  0  0  0  0
 18  5  1  0  0  0  0
 19 21  1  0  0  0  0
 20 10  1  0  0  0  0
 21 20  1  0  0  0  0
 23  3  1  0  0  0  0
 23 17  1  0  0  0  0
 25 28  1  0  0  0  0
 26 28  1  0  0  0  0
 26 29  1  0  0  0  0
 28 27  2  0  0  0  0
 30 25  1  0  0  0  0
 30 29  1  0  0  0  0
 30 24  1  0  0  0  0
M  END
>  <MODEL>
6

>  <REMARK>
 VINA RESULT:      -7.7      5.435      8.499
  Name = 
  1 active torsions:
  status: ('A' for Active; 'I' for Inactive)
    1  A    between atoms: C_4  and  C_25
                            x       y       z     vdW  Elec       q    Type
                         _______ _______ _______ _____ _____    ______ ____

>  <TORSDO>
F 1

$$$$
=
 OpenBabel10232408433D

 30 36  0  0  1  0  0  0  0  0999 V2000
  189.0920  177.8440  141.8400 C   0  0  1  0  0  3  0  0  0  0  0  0
  187.4610  177.9610  139.0300 N   0  0  0  0  0  0  0  0  0  0  0  0
  191.4220  176.7460  142.8030 C   0  0  1  0  0  3  0  0  0  0  0  0
  190.4820  176.1630  140.5190 N   0  0  0  0  0  2  0  0  0  0  0  0
  187.2340  178.0410  140.4380 C   0  0  0  0  0  0  0  0  0  0  0  0
  191.6410  176.9070  137.1700 N   0  0  0  0  0  0  0  0  0  0  0  0
  186.3340  178.9430  140.8660 C   0  0  0  0  0  2  0  0  0  0  0  0
  190.2500  177.1910  137.1130 C   0  0  0  0  0  0  0  0  0  0  0  0
  187.1180  177.7150  143.7110 C   0  0  2  0  0  3  0  0  0  0  0  0
  188.1850  176.8610  138.3960 C   0  0  2  0  0  3  0  0  0  0  0  0
  191.8730  176.6470  138.4220 C   0  0  0  0  0  2  0  0  0  0  0  0
  190.6370  176.7450  139.2170 C   0  0  0  0  0  0  0  0  0  0  0  0
  186.1300  178.7540  143.4170 C   0  0  0  0  0  3  0  0  0  0  0  0
  187.9830  177.3360  142.7940 C   0  0  1  0  0  3  0  0  0  0  0  0
  189.6580  177.1070  138.3940 C   0  0  0  0  0  0  0  0  0  0  0  0
  186.9820  176.9330  144.9660 C   0  0  0  0  0  1  0  0  0  0  0  0
  190.3560  176.9860  141.7250 C   0  0  1  0  0  0  0  0  0  0  0  0
  188.0210  177.1040  141.3000 C   0  0  2  0  0  3  0  0  0  0  0  0
  189.9050  176.6460  134.7320 C   0  0  0  0  0  1  0  0  0  0  0  0
  187.7200  176.8150  136.6110 S   0  0  0  0  0  0  0  0  0  0  0  0
  189.4350  177.0060  136.0970 C   0  0  1  0  0  3  0  0  0  0  0  0
  185.8260  179.2740  142.2200 C   0  0  0  0  0  3  0  0  0  0  0  0
  191.5800  177.8860  141.8230 C   0  0  0  0  0  2  0  0  0  0  0  0
  191.4870  179.9990  144.4710 Cl  0  0  0  0  0  0  0  0  0  0  0  0
  189.8050  178.4050  145.8640 C   0  0  0  0  0  2  0  0  0  0  0  0
  190.7390  176.2870  145.1410 N   0  0  0  0  0  2  0  0  0  0  0  0
  189.5060  176.3710  147.1300 O   0  0  0  0  0  0  0  0  0  0  0  0
  189.9840  176.9600  146.1260 C   0  0  0  0  0  0  0  0  0  0  0  0
  191.2370  177.2950  144.2300 C   0  0  2  0  0  3  0  0  0  0  0  0
  190.4210  178.5750  144.4790 C   0  0  2  0  0  3  0  0  0  0  0  0
  1 14  1  0  0  0  0
  2  5  2  0  0  0  0
  3 29  1  0  0  0  0
  4 17  1  0  0  0  0
  5  7  1  0  0  0  0
  5 18  1  0  0  0  0
  6 11  1  0  0  0  0
  7 22  1  0  0  0  0
  8  6  2  0  0  0  0
  8 15  1  0  0  0  0
  9 16  1  0  0  0  0
 10  2  1  0  0  0  0
 11 12  1  0  0  0  0
 12  4  1  0  0  0  0
 13  9  1  0  0  0  0
 14  9  1  0  0  0  0
 15 10  1  0  0  0  0
 15 12  2  0  0  0  0
 17 23  1  0  0  0  0
 17  1  1  0  0  0  0
 17  3  1  0  0  0  0
 18  1  1  0  0  0  0
 18 14  1  0  0  0  0
 19 21  1  0  0  0  0
 20 10  1  0  0  0  0
 21 20  1  0  0  0  0
 21  8  1  0  0  0  0
 22 13  2  0  0  0  0
 23  3  1  0  0  0  0
 24 30  1  0  0  0  0
 25 28  1  0  0  0  0
 26 28  1  0  0  0  0
 28 27  2  0  0  0  0
 29 30  1  0  0  0  0
 29 26  1  0  0  0  0
 30 25  1  0  0  0  0
M  END
>  <MODEL>
7

>  <REMARK>
 VINA RESULT:      -7.6      3.768      5.814
  Name = 
  1 active torsions:
  status: ('A' for Active; 'I' for Inactive)
    1  A    between atoms: C_4  and  C_25
                            x       y       z     vdW  Elec       q    Type
                         _______ _______ _______ _____ _____    ______ ____

>  <TORSDO>
F 1

$$$$
=
 OpenBabel10232408433D

 30 36  0  0  1  0  0  0  0  0999 V2000
  189.9930  177.5060  140.6390 C   0  0  1  0  0  3  0  0  0  0  0  0
  191.7650  177.3090  143.3580 N   0  0  0  0  0  2  0  0  0  0  0  0
  187.3490  177.3210  139.9080 C   0  0  1  0  0  3  0  0  0  0  0  0
  188.1700  176.7010  142.2280 N   0  0  0  0  0  2  0  0  0  0  0  0
  191.8880  177.1160  141.9470 C   0  0  0  0  0  0  0  0  0  0  0  0
  187.6750  178.2560  145.4600 N   0  0  0  0  0  0  0  0  0  0  0  0
  193.0310  177.5210  141.3690 C   0  0  0  0  0  3  0  0  0  0  0  0
  189.0650  177.9650  145.4390 C   0  0  2  0  0  3  0  0  0  0  0  0
  191.5960  176.3660  138.7560 C   0  0  2  0  0  3  0  0  0  0  0  0
  190.7220  176.6790  144.1640 C   0  0  2  0  0  3  0  0  0  0  0  0
  187.2570  177.9570  144.2660 C   0  0  0  0  0  3  0  0  0  0  0  0
  188.3630  177.4530  143.4330 C   0  0  0  0  0  0  0  0  0  0  0  0
  192.9340  176.9510  138.8680 C   0  0  0  0  0  3  0  0  0  0  0  0
  190.7310  176.4820  139.7410 C   0  0  1  0  0  3  0  0  0  0  0  0
  189.4700  177.4920  144.1690 C   0  0  0  0  0  0  0  0  0  0  0  0
  191.3110  175.4460  137.6260 C   0  0  0  0  0  1  0  0  0  0  0  0
  188.5080  177.2470  140.9110 C   0  0  1  0  0  0  0  0  0  0  0  0
  190.7280  176.4730  141.2530 C   0  0  2  0  0  3  0  0  0  0  0  0
  189.3640  177.6280  147.8640 C   0  0  0  0  0  1  0  0  0  0  0  0
  191.2770  176.6730  145.9250 S   0  0  0  0  0  0  0  0  0  0  0  0
  189.8230  177.5970  146.4490 C   0  0  1  0  0  3  0  0  0  0  0  0
  193.5150  177.4500  139.9670 C   0  0  0  0  0  3  0  0  0  0  0  0
  187.7320  178.5420  140.7130 C   0  0  0  0  0  2  0  0  0  0  0  0
  187.5810  175.3360  136.8460 Cl  0  0  0  0  0  0  0  0  0  0  0  0
  186.7280  177.8060  136.1510 C   0  0  0  0  0  2  0  0  0  0  0  0
  187.6100  178.9770  138.0820 N   0  0  0  0  0  2  0  0  0  0  0  0
  187.1670  180.1800  136.1230 O   0  0  0  0  0  0  0  0  0  0  0  0
  187.1750  179.0860  136.7440 C   0  0  0  0  0  0  0  0  0  0  0  0
  187.6150  177.5680  138.4110 C   0  0  2  0  0  3  0  0  0  0  0  0
  186.7830  176.8480  137.3370 C   0  0  2  0  0  3  0  0  0  0  0  0
  1 17  1  0  0  0  0
  1 18  1  0  0  0  0
  2 10  1  0  0  0  0
  3 23  1  0  0  0  0
  3 17  1  0  0  0  0
  4 12  1  0  0  0  0
  5  2  1  0  0  0  0
  7  5  2  0  0  0  0
  8  6  1  0  0  0  0
  8 21  1  0  0  0  0
  9 13  1  0  0  0  0
  9 14  1  0  0  0  0
 10 15  1  0  0  0  0
 10 20  1  0  0  0  0
 11  6  2  0  0  0  0
 12 15  2  0  0  0  0
 12 11  1  0  0  0  0
 13 22  2  0  0  0  0
 14  1  1  0  0  0  0
 14 18  1  0  0  0  0
 15  8  1  0  0  0  0
 16  9  1  0  0  0  0
 17  4  1  0  0  0  0
 18  5  1  0  0  0  0
 20 21  1  0  0  0  0
 21 19  1  0  0  0  0
 22  7  1  0  0  0  0
 23 17  1  0  0  0  0
 24 30  1  0  0  0  0
 25 28  1  0  0  0  0
 25 30  1  0  0  0  0
 26 29  1  0  0  0  0
 27 28  2  0  0  0  0
 28 26  1  0  0  0  0
 29  3  1  0  0  0  0
 30 29  1  0  0  0  0
M  END
>  <MODEL>
8

>  <REMARK>
 VINA RESULT:      -7.5      4.443      7.676
  Name = 
  1 active torsions:
  status: ('A' for Active; 'I' for Inactive)
    1  A    between atoms: C_4  and  C_25
                            x       y       z     vdW  Elec       q    Type
                         _______ _______ _______ _____ _____    ______ ____

>  <TORSDO>
F 1

$$$$
=
 OpenBabel10232408433D

 30 36  0  0  1  0  0  0  0  0999 V2000
  189.4560  176.7860  139.4620 C   0  0  1  0  0  3  0  0  0  0  0  0
  188.1310  176.1080  136.5710 N   0  0  0  0  0  0  0  0  0  0  0  0
  188.9550  178.4440  141.5970 C   0  0  1  0  0  3  0  0  0  0  0  0
  187.7060  178.6390  139.3970 N   0  0  0  0  0  2  0  0  0  0  0  0
  189.3960  176.0780  137.2370 C   0  0  0  0  0  0  0  0  0  0  0  0
  184.2670  177.9430  138.5040 N   0  0  0  0  0  0  0  0  0  0  0  0
  190.1970  175.0290  136.9870 C   0  0  0  0  0  2  0  0  0  0  0  0
  185.0120  177.3500  137.4500 C   0  0  0  0  0  0  0  0  0  0  0  0
  192.1310  176.5980  138.9920 C   0  0  2  0  0  3  0  0  0  0  0  0
  187.2820  177.2960  136.5190 C   0  0  2  0  0  3  0  0  0  0  0  0
  185.1620  178.3360  139.3600 C   0  0  0  0  0  2  0  0  0  0  0  0
  186.5200  178.0180  138.8850 C   0  0  0  0  0  0  0  0  0  0  0  0
  192.3920  175.3450  138.2810 C   0  0  0  0  0  3  0  0  0  0  0  0
  190.9140  177.0960  139.0440 C   0  0  1  0  0  3  0  0  0  0  0  0
  186.4000  177.3880  137.7200 C   0  0  0  0  0  0  0  0  0  0  0  0
  193.2840  177.4140  139.4470 C   0  0  0  0  0  1  0  0  0  0  0  0
  188.6890  177.8950  140.1890 C   0  0  1  0  0  0  0  0  0  0  0  0
  189.7030  177.2260  138.1470 C   0  0  2  0  0  3  0  0  0  0  0  0
  183.3340  177.6360  135.6650 C   0  0  0  0  0  1  0  0  0  0  0  0
  186.1160  177.1120  135.1000 S   0  0  0  0  0  0  0  0  0  0  0  0
  184.6830  177.2760  136.1780 C   0  0  1  0  0  3  0  0  0  0  0  0
  191.5630  174.6880  137.4590 C   0  0  0  0  0  3  0  0  0  0  0  0
  187.9840  177.3030  141.4010 C   0  0  0  0  0  2  0  0  0  0  0  0
  191.2930  179.8590  144.0270 Cl  0  0  0  0  0  0  0  0  0  0  0  0
  191.0820  177.2130  144.5470 C   0  0  0  0  0  2  0  0  0  0  0  0
  190.3540  176.5350  142.3360 N   0  0  0  0  0  2  0  0  0  0  0  0
  191.3480  174.9520  143.7450 O   0  0  0  0  0  0  0  0  0  0  0  0
  190.9590  176.1310  143.5450 C   0  0  0  0  0  0  0  0  0  0  0  0
  190.1730  177.9690  142.4120 C   0  0  2  0  0  3  0  0  0  0  0  0
  190.3320  178.3680  143.8890 C   0  0  2  0  0  3  0  0  0  0  0  0
  1 17  1  0  0  0  0
  2  5  2  0  0  0  0
  3 29  1  0  0  0  0
  4 17  1  0  0  0  0
  5 18  1  0  0  0  0
  6 11  1  0  0  0  0
  7  5  1  0  0  0  0
  7 22  1  0  0  0  0
  8 15  1  0  0  0  0
  8  6  2  0  0  0  0
  9 14  1  0  0  0  0
  9 16  1  0  0  0  0
 10  2  1  0  0  0  0
 10 15  1  0  0  0  0
 12 11  1  0  0  0  0
 12  4  1  0  0  0  0
 13  9  1  0  0  0  0
 14  1  1  0  0  0  0
 15 12  2  0  0  0  0
 17 23  1  0  0  0  0
 17  3  1  0  0  0  0
 18 14  1  0  0  0  0
 18  1  1  0  0  0  0
 19 21  1  0  0  0  0
 20 21  1  0  0  0  0
 20 10  1  0  0  0  0
 21  8  1  0  0  0  0
 22 13  2  0  0  0  0
 23  3  1  0  0  0  0
 26 29  1  0  0  0  0
 26 28  1  0  0  0  0
 28 27  2  0  0  0  0
 28 25  1  0  0  0  0
 29 30  1  0  0  0  0
 30 24  1  0  0  0  0
 30 25  1  0  0  0  0
M  END
>  <MODEL>
9

>  <REMARK>
 VINA RESULT:      -7.4      4.236      6.661
  Name = 
  1 active torsions:
  status: ('A' for Active; 'I' for Inactive)
    1  A    between atoms: C_4  and  C_25
                            x       y       z     vdW  Elec       q    Type
                         _______ _______ _______ _____ _____    ______ ____

>  <TORSDO>
F 1

$$$$
