=
 OpenBabel10232411443D

 27 28  0  0  1  0  0  0  0  0999 V2000
  192.3210  175.6520  143.3640 O   0  0  0  0  0  0  0  0  0  0  0  0
  189.0050  178.4350  143.8710 C   0  0  2  0  0  3  0  0  0  0  0  0
  188.8550  177.9420  142.4570 C   0  0  0  0  0  0  0  0  0  0  0  0
  186.0040  178.8890  140.3350 O   0  0  0  0  0  1  0  0  0  0  0  0
  191.4090  177.6720  144.1520 C   0  0  0  0  0  3  0  0  0  0  0  0
  188.0560  178.7750  141.5110 C   0  0  0  0  0  2  0  0  0  0  0  0
  191.2850  176.3540  143.4990 C   0  0  0  0  0  0  0  0  0  0  0  0
  190.4360  178.5770  144.3080 C   0  0  0  0  0  3  0  0  0  0  0  0
  188.2790  177.6260  144.7530 O   0  0  0  0  0  0  0  0  0  0  0  0
  187.0380  178.2620  144.9040 C   0  0  1  0  0  3  0  0  0  0  0  0
  189.2930  176.7350  142.0720 C   0  0  0  0  0  3  0  0  0  0  0  0
  185.8420  178.7460  142.7500 C   0  0  1  0  0  3  0  0  0  0  0  0
  186.0490  177.7290  143.8750 C   0  0  0  0  0  2  0  0  0  0  0  0
  186.5960  178.3270  141.4700 C   0  0  1  0  0  3  0  0  0  0  0  0
  189.9810  175.8000  143.0180 C   0  0  0  0  0  2  0  0  0  0  0  0
  184.3430  178.9770  142.5050 C   0  0  1  0  0  3  0  0  0  0  0  0
  183.7740  177.8930  141.8320 O   0  0  0  0  0  1  0  0  0  0  0  0
  183.5900  179.2320  143.8050 C   0  0  0  0  0  2  0  0  0  0  0  0
  181.4290  179.8830  143.0170 O   0  0  0  0  0  1  0  0  0  0  0  0
  182.1210  178.8610  143.6690 C   0  0  0  0  0  2  0  0  0  0  0  0
  186.4880  178.0020  146.2970 C   0  0  0  0  0  2  0  0  0  0  0  0
  187.5330  177.3360  147.1770 C   0  0  0  0  0  2  0  0  0  0  0  0
  187.8040  178.1380  148.2870 O   0  0  0  0  0  0  0  0  0  0  0  0
  189.1960  178.1930  148.3490 C   0  0  0  0  0  2  0  0  0  0  0  0
  189.7800  177.0250  147.5860 C   0  0  0  0  0  2  0  0  0  0  0  0
  191.2850  177.0090  147.7540 C   0  0  0  0  0  2  0  0  0  0  0  0
  191.8270  175.6750  147.2830 C   0  0  0  0  0  1  0  0  0  0  0  0
  1  7  2  0  0  0  0
  2  8  1  1  0  0  0
  2  9  1  0  0  0  0
  3  2  1  0  0  0  0
  5  8  2  0  0  0  0
  6  3  1  0  0  0  0
  7  5  1  0  0  0  0
  9 10  1  0  0  0  0
 10 21  1  1  0  0  0
 11  3  2  0  0  0  0
 11 15  1  0  0  0  0
 12 16  1  6  0  0  0
 12 13  1  0  0  0  0
 13 10  1  0  0  0  0
 14  4  1  6  0  0  0
 14  6  1  0  0  0  0
 14 12  1  0  0  0  0
 15  7  1  0  0  0  0
 16 17  1  1  0  0  0
 16 18  1  0  0  0  0
 19 20  1  0  0  0  0
 20 18  1  0  0  0  0
 21 22  1  0  0  0  0
 22 23  1  0  0  0  0
 23 24  1  0  0  0  0
 25 26  1  0  0  0  0
 25 24  1  0  0  0  0
 27 26  1  0  0  0  0
M  END
>  <MODEL>
1

>  <REMARK>
 VINA RESULT:      -7.2      0.000      0.000
  Name = 
  9 active torsions:
  status: ('A' for Active; 'I' for Inactive)
    1  A    between atoms: C_3  and  C_27
    2  A    between atoms: O_4  and  C_7
    3  A    between atoms: O_4  and  C_21
    4  A    between atoms: C_7  and  C_27
    5  A    between atoms: C_15  and  C_22
    6  A    between atoms: C_15  and  C_24
    7  A    between atoms: C_16  and  C_17
    8  A    between atoms: C_16  and  C_21
    9  A    between atoms: C_20  and  C_24
                            x       y       z     vdW  Elec       q    Type
                         _______ _______ _______ _____ _____    ______ ____

>  <TORSDO>
F 9

$$$$
=
 OpenBabel10232411443D

 27 28  0  0  1  0  0  0  0  0999 V2000
  191.9650  176.4690  146.3300 O   0  0  0  0  0  0  0  0  0  0  0  0
  190.5330  178.4550  142.7250 C   0  0  2  0  0  3  0  0  0  0  0  0
  191.5030  177.4230  142.2130 C   0  0  0  0  0  0  0  0  0  0  0  0
  192.0290  176.8280  138.6220 O   0  0  0  0  0  1  0  0  0  0  0  0
  191.3410  178.3920  145.1290 C   0  0  0  0  0  3  0  0  0  0  0  0
  192.0790  177.6260  140.8510 C   0  0  0  0  0  2  0  0  0  0  0  0
  191.4960  176.9310  145.2580 C   0  0  0  0  0  0  0  0  0  0  0  0
  190.9380  179.0570  144.0410 C   0  0  0  0  0  3  0  0  0  0  0  0
  189.2380  177.9270  142.7800 O   0  0  0  0  0  0  0  0  0  0  0  0
  188.6360  178.2930  141.5670 C   0  0  1  0  0  3  0  0  0  0  0  0
  191.7500  176.2850  142.8760 C   0  0  0  0  0  3  0  0  0  0  0  0
  189.9200  177.6210  139.5180 C   0  0  1  0  0  3  0  0  0  0  0  0
  188.8500  177.2000  140.5280 C   0  0  0  0  0  2  0  0  0  0  0  0
  191.2580  176.9000  139.7860 C   0  0  1  0  0  3  0  0  0  0  0  0
  191.0920  175.9690  144.1850 C   0  0  0  0  0  2  0  0  0  0  0  0
  189.4130  177.4140  138.0820 C   0  0  1  0  0  3  0  0  0  0  0  0
  188.6530  176.2450  137.9850 O   0  0  0  0  0  1  0  0  0  0  0  0
  188.5970  178.6030  137.5920 C   0  0  0  0  0  2  0  0  0  0  0  0
  186.3020  178.7730  138.2390 O   0  0  0  0  0  1  0  0  0  0  0  0
  187.1600  178.2000  137.2990 C   0  0  0  0  0  2  0  0  0  0  0  0
  187.1430  178.4940  141.7700 C   0  0  0  0  0  2  0  0  0  0  0  0
  186.6650  177.7870  143.0280 C   0  0  0  0  0  2  0  0  0  0  0  0
  185.4600  178.3410  143.4610 O   0  0  0  0  0  0  0  0  0  0  0  0
  185.6140  178.4850  144.8390 C   0  0  0  0  0  2  0  0  0  0  0  0
  186.7760  177.6370  145.3070 C   0  0  0  0  0  2  0  0  0  0  0  0
  187.0100  177.8650  146.7850 C   0  0  0  0  0  2  0  0  0  0  0  0
  188.3280  177.2350  147.1870 C   0  0  0  0  0  1  0  0  0  0  0  0
  2  9  1  0  0  0  0
  2  8  1  1  0  0  0
  3  2  1  0  0  0  0
  3 11  2  0  0  0  0
  5  7  1  0  0  0  0
  6  3  1  0  0  0  0
  7  1  2  0  0  0  0
  8  5  2  0  0  0  0
 10 21  1  1  0  0  0
 10  9  1  0  0  0  0
 11 15  1  0  0  0  0
 12 16  1  6  0  0  0
 12 14  1  0  0  0  0
 12 13  1  0  0  0  0
 13 10  1  0  0  0  0
 14  4  1  6  0  0  0
 14  6  1  0  0  0  0
 15  7  1  0  0  0  0
 16 17  1  1  0  0  0
 18 16  1  0  0  0  0
 20 18  1  0  0  0  0
 20 19  1  0  0  0  0
 21 22  1  0  0  0  0
 22 23  1  0  0  0  0
 23 24  1  0  0  0  0
 24 25  1  0  0  0  0
 25 26  1  0  0  0  0
 26 27  1  0  0  0  0
M  END
>  <MODEL>
2

>  <REMARK>
 VINA RESULT:      -7.1      2.449      4.713
  Name = 
  9 active torsions:
  status: ('A' for Active; 'I' for Inactive)
    1  A    between atoms: C_3  and  C_27
    2  A    between atoms: O_4  and  C_7
    3  A    between atoms: O_4  and  C_21
    4  A    between atoms: C_7  and  C_27
    5  A    between atoms: C_15  and  C_22
    6  A    between atoms: C_15  and  C_24
    7  A    between atoms: C_16  and  C_17
    8  A    between atoms: C_16  and  C_21
    9  A    between atoms: C_20  and  C_24
                            x       y       z     vdW  Elec       q    Type
                         _______ _______ _______ _____ _____    ______ ____

>  <TORSDO>
F 9

$$$$
=
 OpenBabel10232411443D

 27 28  0  0  1  0  0  0  0  0999 V2000
  191.9050  177.1050  144.2530 O   0  0  0  0  0  0  0  0  0  0  0  0
  187.6190  176.8940  143.4940 C   0  0  2  0  0  3  0  0  0  0  0  0
  187.7140  177.3760  144.9170 C   0  0  0  0  0  0  0  0  0  0  0  0
  184.7520  178.3410  146.8700 O   0  0  0  0  0  1  0  0  0  0  0  0
  190.0070  176.0490  143.3510 C   0  0  0  0  0  3  0  0  0  0  0  0
  186.5210  177.1930  145.7950 C   0  0  0  0  0  2  0  0  0  0  0  0
  190.6660  177.1720  144.0450 C   0  0  0  0  0  0  0  0  0  0  0  0
  188.6960  175.9160  143.1180 C   0  0  0  0  0  3  0  0  0  0  0  0
  187.5800  177.9790  142.6100 O   0  0  0  0  0  0  0  0  0  0  0  0
  186.2180  178.2220  142.3790 C   0  0  1  0  0  3  0  0  0  0  0  0
  188.7680  178.0720  145.3650 C   0  0  0  0  0  3  0  0  0  0  0  0
  184.8500  178.5570  144.4580 C   0  0  1  0  0  3  0  0  0  0  0  0
  185.6940  179.2440  143.3810 C   0  0  0  0  0  2  0  0  0  0  0  0
  185.6270  178.4330  145.7850 C   0  0  1  0  0  3  0  0  0  0  0  0
  189.9350  178.4020  144.4860 C   0  0  0  0  0  2  0  0  0  0  0  0
  183.5040  179.2790  144.6250 C   0  0  1  0  0  3  0  0  0  0  0  0
  183.5250  180.5260  143.9970 O   0  0  0  0  0  1  0  0  0  0  0  0
  182.3450  178.4480  144.0870 C   0  0  0  0  0  2  0  0  0  0  0  0
  180.2130  179.1980  143.3090 O   0  0  0  0  0  1  0  0  0  0  0  0
  181.5780  179.2070  143.0150 C   0  0  0  0  0  2  0  0  0  0  0  0
  186.0200  178.7640  140.9730 C   0  0  0  0  0  2  0  0  0  0  0  0
  184.5770  179.1920  140.7550 C   0  0  0  0  0  2  0  0  0  0  0  0
  184.4540  179.8510  139.5310 O   0  0  0  0  0  0  0  0  0  0  0  0
  183.2590  179.3750  138.9940 C   0  0  0  0  0  2  0  0  0  0  0  0
  183.5430  178.1740  138.1190 C   0  0  0  0  0  2  0  0  0  0  0  0
  182.4370  177.1540  138.2800 C   0  0  0  0  0  2  0  0  0  0  0  0
  182.4330  176.6410  139.7060 C   0  0  0  0  0  1  0  0  0  0  0  0
  2  8  1  6  0  0  0
  2  3  1  0  0  0  0
  3 11  2  0  0  0  0
  3  6  1  0  0  0  0
  5  7  1  0  0  0  0
  7  1  2  0  0  0  0
  7 15  1  0  0  0  0
  8  5  2  0  0  0  0
  9  2  1  0  0  0  0
 10 21  1  6  0  0  0
 10  9  1  0  0  0  0
 10 13  1  0  0  0  0
 12 16  1  1  0  0  0
 12 14  1  0  0  0  0
 13 12  1  0  0  0  0
 14  6  1  0  0  0  0
 14  4  1  1  0  0  0
 15 11  1  0  0  0  0
 16 17  1  6  0  0  0
 18 16  1  0  0  0  0
 20 19  1  0  0  0  0
 20 18  1  0  0  0  0
 22 21  1  0  0  0  0
 23 22  1  0  0  0  0
 24 23  1  0  0  0  0
 25 26  1  0  0  0  0
 25 24  1  0  0  0  0
 26 27  1  0  0  0  0
M  END
>  <MODEL>
3

>  <REMARK>
 VINA RESULT:      -7.0      2.185      5.855
  Name = 
  9 active torsions:
  status: ('A' for Active; 'I' for Inactive)
    1  A    between atoms: C_3  and  C_27
    2  A    between atoms: O_4  and  C_7
    3  A    between atoms: O_4  and  C_21
    4  A    between atoms: C_7  and  C_27
    5  A    between atoms: C_15  and  C_22
    6  A    between atoms: C_15  and  C_24
    7  A    between atoms: C_16  and  C_17
    8  A    between atoms: C_16  and  C_21
    9  A    between atoms: C_20  and  C_24
                            x       y       z     vdW  Elec       q    Type
                         _______ _______ _______ _____ _____    ______ ____

>  <TORSDO>
F 9

$$$$
=
 OpenBabel10232411443D

 27 28  0  0  1  0  0  0  0  0999 V2000
  191.9760  177.2100  145.8060 O   0  0  0  0  0  0  0  0  0  0  0  0
  188.8540  176.7440  142.8020 C   0  0  2  0  0  3  0  0  0  0  0  0
  188.1210  177.2510  144.0150 C   0  0  0  0  0  0  0  0  0  0  0  0
  184.5380  178.0750  143.9460 O   0  0  0  0  0  1  0  0  0  0  0  0
  190.9470  176.0350  144.0480 C   0  0  0  0  0  3  0  0  0  0  0  0
  186.6490  177.0140  144.0880 C   0  0  0  0  0  2  0  0  0  0  0  0
  191.0630  177.2030  144.9410 C   0  0  0  0  0  0  0  0  0  0  0  0
  189.9960  175.8240  143.1320 C   0  0  0  0  0  3  0  0  0  0  0  0
  189.2730  177.8110  141.9990 O   0  0  0  0  0  0  0  0  0  0  0  0
  188.2620  177.9730  141.0400 C   0  0  1  0  0  3  0  0  0  0  0  0
  188.7180  178.0130  144.9430 C   0  0  0  0  0  3  0  0  0  0  0  0
  185.9560  178.2600  141.9890 C   0  0  1  0  0  3  0  0  0  0  0  0
  187.2300  178.9780  141.5350 C   0  0  0  0  0  2  0  0  0  0  0  0
  185.8650  178.2000  143.5280 C   0  0  1  0  0  3  0  0  0  0  0  0
  190.1630  178.3950  144.8470 C   0  0  0  0  0  2  0  0  0  0  0  0
  184.7190  178.9060  141.3470 C   0  0  1  0  0  3  0  0  0  0  0  0
  185.0800  179.7090  140.2620 O   0  0  0  0  0  1  0  0  0  0  0  0
  183.7010  177.8630  140.9030 C   0  0  0  0  0  2  0  0  0  0  0  0
  181.8200  178.7780  142.0610 O   0  0  0  0  0  1  0  0  0  0  0  0
  182.3090  178.4670  140.7910 C   0  0  0  0  0  2  0  0  0  0  0  0
  188.8610  178.4820  139.7380 C   0  0  0  0  0  2  0  0  0  0  0  0
  189.6210  177.3780  139.0220 C   0  0  0  0  0  2  0  0  0  0  0  0
  189.8400  177.7340  137.6900 O   0  0  0  0  0  0  0  0  0  0  0  0
  188.6810  178.4100  137.3120 C   0  0  0  0  0  2  0  0  0  0  0  0
  188.2350  177.9210  135.9520 C   0  0  0  0  0  2  0  0  0  0  0  0
  186.7340  177.7230  135.9500 C   0  0  0  0  0  2  0  0  0  0  0  0
  186.2370  177.6440  137.3790 C   0  0  0  0  0  1  0  0  0  0  0  0
  2  8  1  1  0  0  0
  2  3  1  0  0  0  0
  3  6  1  0  0  0  0
  3 11  2  0  0  0  0
  5  7  1  0  0  0  0
  7  1  2  0  0  0  0
  8  5  2  0  0  0  0
  9  2  1  0  0  0  0
 10 21  1  6  0  0  0
 10 13  1  0  0  0  0
 10  9  1  0  0  0  0
 12 16  1  1  0  0  0
 12 14  1  0  0  0  0
 13 12  1  0  0  0  0
 14  4  1  6  0  0  0
 14  6  1  0  0  0  0
 15  7  1  0  0  0  0
 15 11  1  0  0  0  0
 16 17  1  6  0  0  0
 18 16  1  0  0  0  0
 20 18  1  0  0  0  0
 20 19  1  0  0  0  0
 22 21  1  0  0  0  0
 23 22  1  0  0  0  0
 24 23  1  0  0  0  0
 25 24  1  0  0  0  0
 26 25  1  0  0  0  0
 26 27  1  0  0  0  0
M  END
>  <MODEL>
4

>  <REMARK>
 VINA RESULT:      -6.9      2.608      5.897
  Name = 
  9 active torsions:
  status: ('A' for Active; 'I' for Inactive)
    1  A    between atoms: C_3  and  C_27
    2  A    between atoms: O_4  and  C_7
    3  A    between atoms: O_4  and  C_21
    4  A    between atoms: C_7  and  C_27
    5  A    between atoms: C_15  and  C_22
    6  A    between atoms: C_15  and  C_24
    7  A    between atoms: C_16  and  C_17
    8  A    between atoms: C_16  and  C_21
    9  A    between atoms: C_20  and  C_24
                            x       y       z     vdW  Elec       q    Type
                         _______ _______ _______ _____ _____    ______ ____

>  <TORSDO>
F 9

$$$$
=
 OpenBabel10232411443D

 27 28  0  0  1  0  0  0  0  0999 V2000
  191.9450  177.1260  143.9560 O   0  0  0  0  0  0  0  0  0  0  0  0
  187.6260  176.8850  143.4290 C   0  0  2  0  0  3  0  0  0  0  0  0
  187.7940  177.4120  144.8290 C   0  0  0  0  0  0  0  0  0  0  0  0
  184.9340  178.4360  146.9020 O   0  0  0  0  0  1  0  0  0  0  0  0
  190.0060  176.0390  143.1890 C   0  0  0  0  0  3  0  0  0  0  0  0
  186.6480  177.2560  145.7730 C   0  0  0  0  0  2  0  0  0  0  0  0
  190.6970  177.1840  143.8110 C   0  0  0  0  0  0  0  0  0  0  0  0
  188.6860  175.8970  143.0290 C   0  0  0  0  0  3  0  0  0  0  0  0
  187.5390  177.9400  142.5130 O   0  0  0  0  0  0  0  0  0  0  0  0
  186.1650  178.1740  142.3470 C   0  0  1  0  0  3  0  0  0  0  0  0
  188.8680  178.1230  145.1990 C   0  0  0  0  0  3  0  0  0  0  0  0
  184.9060  178.5740  144.4820 C   0  0  1  0  0  3  0  0  0  0  0  0
  185.6910  179.2270  143.3410 C   0  0  0  0  0  2  0  0  0  0  0  0
  185.7520  178.4940  145.7700 C   0  0  1  0  0  3  0  0  0  0  0  0
  189.9870  178.4270  144.2500 C   0  0  0  0  0  2  0  0  0  0  0  0
  183.5690  179.2990  144.6960 C   0  0  1  0  0  3  0  0  0  0  0  0
  183.5720  180.5480  144.0700 O   0  0  0  0  0  1  0  0  0  0  0  0
  182.3900  178.4730  144.1950 C   0  0  0  0  0  2  0  0  0  0  0  0
  181.6970  178.6490  141.9150 O   0  0  0  0  0  1  0  0  0  0  0  0
  181.5740  179.2460  143.1710 C   0  0  0  0  0  2  0  0  0  0  0  0
  185.8920  178.6700  140.9370 C   0  0  0  0  0  2  0  0  0  0  0  0
  187.0790  178.4010  140.0260 C   0  0  0  0  0  2  0  0  0  0  0  0
  186.7190  178.6090  138.6940 O   0  0  0  0  0  0  0  0  0  0  0  0
  187.6940  177.9400  137.9570 C   0  0  0  0  0  2  0  0  0  0  0  0
  189.0530  178.1990  138.5690 C   0  0  0  0  0  2  0  0  0  0  0  0
  190.0970  177.3590  137.8640 C   0  0  0  0  0  2  0  0  0  0  0  0
  190.7230  176.4000  138.8560 C   0  0  0  0  0  1  0  0  0  0  0  0
  2  8  1  6  0  0  0
  2  3  1  0  0  0  0
  3 11  2  0  0  0  0
  3  6  1  0  0  0  0
  5  7  1  0  0  0  0
  7  1  2  0  0  0  0
  7 15  1  0  0  0  0
  8  5  2  0  0  0  0
  9  2  1  0  0  0  0
 10 21  1  6  0  0  0
 10  9  1  0  0  0  0
 10 13  1  0  0  0  0
 12 16  1  1  0  0  0
 12 14  1  0  0  0  0
 13 12  1  0  0  0  0
 14  6  1  0  0  0  0
 14  4  1  1  0  0  0
 15 11  1  0  0  0  0
 16 17  1  6  0  0  0
 18 16  1  0  0  0  0
 19 20  1  0  0  0  0
 20 18  1  0  0  0  0
 22 21  1  0  0  0  0
 23 22  1  0  0  0  0
 24 25  1  0  0  0  0
 24 23  1  0  0  0  0
 26 25  1  0  0  0  0
 26 27  1  0  0  0  0
M  END
>  <MODEL>
5

>  <REMARK>
 VINA RESULT:      -6.9      1.978      5.175
  Name = 
  9 active torsions:
  status: ('A' for Active; 'I' for Inactive)
    1  A    between atoms: C_3  and  C_27
    2  A    between atoms: O_4  and  C_7
    3  A    between atoms: O_4  and  C_21
    4  A    between atoms: C_7  and  C_27
    5  A    between atoms: C_15  and  C_22
    6  A    between atoms: C_15  and  C_24
    7  A    between atoms: C_16  and  C_17
    8  A    between atoms: C_16  and  C_21
    9  A    between atoms: C_20  and  C_24
                            x       y       z     vdW  Elec       q    Type
                         _______ _______ _______ _____ _____    ______ ____

>  <TORSDO>
F 9

$$$$
=
 OpenBabel10232411443D

 27 28  0  0  1  0  0  0  0  0999 V2000
  191.9880  177.2200  145.7930 O   0  0  0  0  0  0  0  0  0  0  0  0
  188.8770  176.7110  142.7850 C   0  0  2  0  0  3  0  0  0  0  0  0
  188.1410  177.2490  143.9830 C   0  0  0  0  0  0  0  0  0  0  0  0
  184.5640  178.0960  143.8790 O   0  0  0  0  0  1  0  0  0  0  0  0
  190.9590  176.0140  144.0560 C   0  0  0  0  0  3  0  0  0  0  0  0
  186.6680  177.0230  144.0530 C   0  0  0  0  0  2  0  0  0  0  0  0
  191.0780  177.2010  144.9240 C   0  0  0  0  0  0  0  0  0  0  0  0
  190.0100  175.7900  143.1400 C   0  0  0  0  0  3  0  0  0  0  0  0
  189.3070  177.7580  141.9610 O   0  0  0  0  0  0  0  0  0  0  0  0
  188.3020  177.9060  140.9930 C   0  0  1  0  0  3  0  0  0  0  0  0
  188.7390  178.0260  144.8970 C   0  0  0  0  0  3  0  0  0  0  0  0
  185.9930  178.2290  141.9250 C   0  0  1  0  0  3  0  0  0  0  0  0
  187.2740  178.9280  141.4620 C   0  0  0  0  0  2  0  0  0  0  0  0
  185.8950  178.2030  143.4650 C   0  0  1  0  0  3  0  0  0  0  0  0
  190.1870  178.3970  144.8000 C   0  0  0  0  0  2  0  0  0  0  0  0
  184.7630  178.8690  141.2640 C   0  0  1  0  0  3  0  0  0  0  0  0
  185.1290  179.5950  140.1270 O   0  0  0  0  0  1  0  0  0  0  0  0
  183.7110  177.8300  140.8980 C   0  0  0  0  0  2  0  0  0  0  0  0
  181.8580  178.9620  139.8970 O   0  0  0  0  0  1  0  0  0  0  0  0
  182.3060  178.3820  141.0860 C   0  0  0  0  0  2  0  0  0  0  0  0
  188.9100  178.3830  139.6840 C   0  0  0  0  0  2  0  0  0  0  0  0
  188.1160  177.8650  138.4960 C   0  0  0  0  0  2  0  0  0  0  0  0
  188.7840  176.7920  137.9050 O   0  0  0  0  0  0  0  0  0  0  0  0
  189.6980  177.3830  137.0340 C   0  0  0  0  0  2  0  0  0  0  0  0
  190.8640  176.4440  136.8160 C   0  0  0  0  0  2  0  0  0  0  0  0
  191.3590  175.9300  138.1510 C   0  0  0  0  0  2  0  0  0  0  0  0
  192.7130  176.5390  138.4530 C   0  0  0  0  0  1  0  0  0  0  0  0
  2  8  1  1  0  0  0
  2  3  1  0  0  0  0
  3  6  1  0  0  0  0
  3 11  2  0  0  0  0
  5  7  1  0  0  0  0
  7  1  2  0  0  0  0
  8  5  2  0  0  0  0
  9  2  1  0  0  0  0
 10 21  1  6  0  0  0
 10 13  1  0  0  0  0
 10  9  1  0  0  0  0
 12 16  1  6  0  0  0
 12 14  1  0  0  0  0
 13 12  1  0  0  0  0
 14  4  1  6  0  0  0
 14  6  1  0  0  0  0
 15 11  1  0  0  0  0
 15  7  1  0  0  0  0
 16 17  1  6  0  0  0
 18 20  1  0  0  0  0
 18 16  1  0  0  0  0
 19 20  1  0  0  0  0
 22 21  1  0  0  0  0
 23 22  1  0  0  0  0
 24 23  1  0  0  0  0
 25 24  1  0  0  0  0
 25 26  1  0  0  0  0
 26 27  1  0  0  0  0
M  END
>  <MODEL>
6

>  <REMARK>
 VINA RESULT:      -6.7      2.627      5.480
  Name = 
  9 active torsions:
  status: ('A' for Active; 'I' for Inactive)
    1  A    between atoms: C_3  and  C_27
    2  A    between atoms: O_4  and  C_7
    3  A    between atoms: O_4  and  C_21
    4  A    between atoms: C_7  and  C_27
    5  A    between atoms: C_15  and  C_22
    6  A    between atoms: C_15  and  C_24
    7  A    between atoms: C_16  and  C_17
    8  A    between atoms: C_16  and  C_21
    9  A    between atoms: C_20  and  C_24
                            x       y       z     vdW  Elec       q    Type
                         _______ _______ _______ _____ _____    ______ ____

>  <TORSDO>
F 9

$$$$
=
 OpenBabel10232411443D

 27 28  0  0  1  0  0  0  0  0999 V2000
  191.9560  176.6970  146.3490 O   0  0  0  0  0  0  0  0  0  0  0  0
  190.4430  178.5480  142.7050 C   0  0  2  0  0  3  0  0  0  0  0  0
  191.4070  177.5030  142.2110 C   0  0  0  0  0  0  0  0  0  0  0  0
  191.8640  176.7830  138.6340 O   0  0  0  0  0  1  0  0  0  0  0  0
  191.3000  178.5740  145.0940 C   0  0  0  0  0  3  0  0  0  0  0  0
  191.9550  177.6590  140.8310 C   0  0  0  0  0  2  0  0  0  0  0  0
  191.4640  177.1190  145.2710 C   0  0  0  0  0  0  0  0  0  0  0  0
  190.8710  179.1990  143.9910 C   0  0  0  0  0  3  0  0  0  0  0  0
  189.1510  178.0170  142.8060 O   0  0  0  0  0  0  0  0  0  0  0  0
  188.5230  178.3370  141.5930 C   0  0  1  0  0  3  0  0  0  0  0  0
  191.6730  176.3900  142.9090 C   0  0  0  0  0  3  0  0  0  0  0  0
  189.7700  177.5980  139.5430 C   0  0  1  0  0  3  0  0  0  0  0  0
  188.7220  177.2090  140.5890 C   0  0  0  0  0  2  0  0  0  0  0  0
  191.1160  176.8930  139.8090 C   0  0  1  0  0  3  0  0  0  0  0  0
  191.0430  176.1180  144.2410 C   0  0  0  0  0  2  0  0  0  0  0  0
  189.2350  177.3380  138.1260 C   0  0  1  0  0  3  0  0  0  0  0  0
  188.3090  176.2920  138.1260 O   0  0  0  0  0  1  0  0  0  0  0  0
  188.6060  178.5860  137.5200 C   0  0  0  0  0  2  0  0  0  0  0  0
  186.2610  178.7820  137.9430 O   0  0  0  0  0  1  0  0  0  0  0  0
  187.1960  178.3040  137.0230 C   0  0  0  0  0  2  0  0  0  0  0  0
  187.0340  178.5390  141.8190 C   0  0  0  0  0  2  0  0  0  0  0  0
  186.6110  177.9930  143.1730 C   0  0  0  0  0  2  0  0  0  0  0  0
  185.2460  178.2050  143.3700 O   0  0  0  0  0  0  0  0  0  0  0  0
  184.7420  178.4600  142.0950 C   0  0  0  0  0  2  0  0  0  0  0  0
  183.2680  178.7850  142.1920 C   0  0  0  0  0  2  0  0  0  0  0  0
  182.8430  178.7900  143.6450 C   0  0  0  0  0  2  0  0  0  0  0  0
  181.3550  179.0660  143.7310 C   0  0  0  0  0  1  0  0  0  0  0  0
  2  9  1  0  0  0  0
  2  8  1  1  0  0  0
  3  2  1  0  0  0  0
  3 11  2  0  0  0  0
  5  7  1  0  0  0  0
  6  3  1  0  0  0  0
  7  1  2  0  0  0  0
  8  5  2  0  0  0  0
 10 21  1  1  0  0  0
 10  9  1  0  0  0  0
 11 15  1  0  0  0  0
 12 16  1  6  0  0  0
 12 14  1  0  0  0  0
 12 13  1  0  0  0  0
 13 10  1  0  0  0  0
 14  4  1  6  0  0  0
 14  6  1  0  0  0  0
 15  7  1  0  0  0  0
 16 17  1  1  0  0  0
 18 16  1  0  0  0  0
 20 18  1  0  0  0  0
 20 19  1  0  0  0  0
 21 22  1  0  0  0  0
 22 23  1  0  0  0  0
 24 25  1  0  0  0  0
 24 23  1  0  0  0  0
 25 26  1  0  0  0  0
 26 27  1  0  0  0  0
M  END
>  <MODEL>
7

>  <REMARK>
 VINA RESULT:      -6.4      2.436      5.704
  Name = 
  9 active torsions:
  status: ('A' for Active; 'I' for Inactive)
    1  A    between atoms: C_3  and  C_27
    2  A    between atoms: O_4  and  C_7
    3  A    between atoms: O_4  and  C_21
    4  A    between atoms: C_7  and  C_27
    5  A    between atoms: C_15  and  C_22
    6  A    between atoms: C_15  and  C_24
    7  A    between atoms: C_16  and  C_17
    8  A    between atoms: C_16  and  C_21
    9  A    between atoms: C_20  and  C_24
                            x       y       z     vdW  Elec       q    Type
                         _______ _______ _______ _____ _____    ______ ____

>  <TORSDO>
F 9

$$$$
=
 OpenBabel10232411443D

 27 28  0  0  1  0  0  0  0  0999 V2000
  182.6630  178.4380  140.3040 O   0  0  0  0  0  0  0  0  0  0  0  0
  186.2230  178.7920  142.7920 C   0  0  2  0  0  3  0  0  0  0  0  0
  185.0850  179.0380  143.7460 C   0  0  0  0  0  0  0  0  0  0  0  0
  185.6080  179.4930  147.3570 O   0  0  0  0  0  1  0  0  0  0  0  0
  184.8680  179.1630  140.6790 C   0  0  0  0  0  3  0  0  0  0  0  0
  185.3860  179.7620  145.0160 C   0  0  0  0  0  2  0  0  0  0  0  0
  183.6510  178.4340  141.0830 C   0  0  0  0  0  0  0  0  0  0  0  0
  185.9750  179.3310  141.4110 C   0  0  0  0  0  3  0  0  0  0  0  0
  186.5510  177.4320  142.7590 O   0  0  0  0  0  0  0  0  0  0  0  0
  187.5940  177.2790  143.6850 C   0  0  1  0  0  3  0  0  0  0  0  0
  183.8660  178.5150  143.5530 C   0  0  0  0  0  3  0  0  0  0  0  0
  187.0840  178.1460  145.9860 C   0  0  1  0  0  3  0  0  0  0  0  0
  187.0270  176.9310  145.0560 C   0  0  0  0  0  2  0  0  0  0  0  0
  185.6910  178.7890  146.1540 C   0  0  1  0  0  3  0  0  0  0  0  0
  183.5460  177.6640  142.3610 C   0  0  0  0  0  2  0  0  0  0  0  0
  187.7260  177.7640  147.3280 C   0  0  1  0  0  3  0  0  0  0  0  0
  187.5170  176.4120  147.6140 O   0  0  0  0  0  1  0  0  0  0  0  0
  189.2170  178.0740  147.3520 C   0  0  0  0  0  2  0  0  0  0  0  0
  191.0040  176.9140  146.2680 O   0  0  0  0  0  1  0  0  0  0  0  0
  190.0440  176.7990  147.2750 C   0  0  0  0  0  2  0  0  0  0  0  0
  188.5240  176.1630  143.2390 C   0  0  0  0  0  2  0  0  0  0  0  0
  189.8990  176.7090  142.8880 C   0  0  0  0  0  2  0  0  0  0  0  0
  190.3370  176.1640  141.6810 O   0  0  0  0  0  0  0  0  0  0  0  0
  190.8060  177.2550  140.9520 C   0  0  0  0  0  2  0  0  0  0  0  0
  190.1080  177.3010  139.6100 C   0  0  0  0  0  2  0  0  0  0  0  0
  188.9050  178.2150  139.6940 C   0  0  0  0  0  2  0  0  0  0  0  0
  188.0180  177.9880  138.4870 C   0  0  0  0  0  1  0  0  0  0  0  0
  1  7  2  0  0  0  0
  2  8  1  6  0  0  0
  2  3  1  0  0  0  0
  3  6  1  0  0  0  0
  5  7  1  0  0  0  0
  5  8  2  0  0  0  0
  6 14  1  0  0  0  0
  7 15  1  0  0  0  0
  9  2  1  0  0  0  0
  9 10  1  0  0  0  0
 10 21  1  6  0  0  0
 10 13  1  0  0  0  0
 11  3  2  0  0  0  0
 12 14  1  0  0  0  0
 12 16  1  1  0  0  0
 13 12  1  0  0  0  0
 14  4  1  1  0  0  0
 15 11  1  0  0  0  0
 16 18  1  0  0  0  0
 16 17  1  6  0  0  0
 19 20  1  0  0  0  0
 20 18  1  0  0  0  0
 22 21  1  0  0  0  0
 23 22  1  0  0  0  0
 24 23  1  0  0  0  0
 25 26  1  0  0  0  0
 25 24  1  0  0  0  0
 27 26  1  0  0  0  0
M  END
>  <MODEL>
8

>  <REMARK>
 VINA RESULT:      -6.3      1.851      6.662
  Name = 
  9 active torsions:
  status: ('A' for Active; 'I' for Inactive)
    1  A    between atoms: C_3  and  C_27
    2  A    between atoms: O_4  and  C_7
    3  A    between atoms: O_4  and  C_21
    4  A    between atoms: C_7  and  C_27
    5  A    between atoms: C_15  and  C_22
    6  A    between atoms: C_15  and  C_24
    7  A    between atoms: C_16  and  C_17
    8  A    between atoms: C_16  and  C_21
    9  A    between atoms: C_20  and  C_24
                            x       y       z     vdW  Elec       q    Type
                         _______ _______ _______ _____ _____    ______ ____

>  <TORSDO>
F 9

$$$$
=
 OpenBabel10232411443D

 27 28  0  0  1  0  0  0  0  0999 V2000
  191.9850  177.6270  145.5000 O   0  0  0  0  0  0  0  0  0  0  0  0
  189.9500  176.3120  141.8770 C   0  0  2  0  0  3  0  0  0  0  0  0
  189.1500  177.5030  142.3330 C   0  0  0  0  0  0  0  0  0  0  0  0
  186.3540  178.8630  140.3710 O   0  0  0  0  0  1  0  0  0  0  0  0
  191.1440  175.9460  144.0860 C   0  0  0  0  0  3  0  0  0  0  0  0
  187.7500  177.6320  141.8340 C   0  0  0  0  0  2  0  0  0  0  0  0
  191.4350  177.3580  144.4010 C   0  0  0  0  0  0  0  0  0  0  0  0
  190.4970  175.4870  143.0090 C   0  0  0  0  0  3  0  0  0  0  0  0
  190.9640  176.7090  140.9970 O   0  0  0  0  0  0  0  0  0  0  0  0
  190.4220  176.5510  139.7120 C   0  0  1  0  0  3  0  0  0  0  0  0
  189.6960  178.4970  143.0480 C   0  0  0  0  0  3  0  0  0  0  0  0
  188.2380  177.7330  139.3460 C   0  0  1  0  0  3  0  0  0  0  0  0
  189.7620  177.8480  139.2620 C   0  0  0  0  0  2  0  0  0  0  0  0
  187.6860  178.4910  140.5720 C   0  0  1  0  0  3  0  0  0  0  0  0
  191.1360  178.4830  143.4600 C   0  0  0  0  0  2  0  0  0  0  0  0
  187.5920  178.1880  138.0280 C   0  0  1  0  0  3  0  0  0  0  0  0
  188.2980  179.2560  137.4700 O   0  0  0  0  0  1  0  0  0  0  0  0
  187.4960  177.0480  137.0220 C   0  0  0  0  0  2  0  0  0  0  0  0
  188.5060  176.0750  135.0860 O   0  0  0  0  0  1  0  0  0  0  0  0
  188.5910  177.1510  135.9700 C   0  0  0  0  0  2  0  0  0  0  0  0
  191.5220  176.1900  138.7280 C   0  0  0  0  0  2  0  0  0  0  0  0
  192.8340  176.8550  139.1110 C   0  0  0  0  0  2  0  0  0  0  0  0
  193.6760  176.9290  138.0000 O   0  0  0  0  0  0  0  0  0  0  0  0
  193.3610  175.8000  137.2440 C   0  0  0  0  0  2  0  0  0  0  0  0
  194.6380  175.1180  136.8030 C   0  0  0  0  0  2  0  0  0  0  0  0
  194.8160  173.8270  137.5730 C   0  0  0  0  0  2  0  0  0  0  0  0
  195.5850  174.1060  138.8480 C   0  0  0  0  0  1  0  0  0  0  0  0
  2  3  1  0  0  0  0
  2  8  1  1  0  0  0
  3 11  2  0  0  0  0
  5  7  1  0  0  0  0
  6  3  1  0  0  0  0
  7  1  2  0  0  0  0
  8  5  2  0  0  0  0
  9  2  1  0  0  0  0
 10 21  1  6  0  0  0
 10  9  1  0  0  0  0
 11 15  1  0  0  0  0
 12 16  1  6  0  0  0
 12 14  1  0  0  0  0
 13 12  1  0  0  0  0
 13 10  1  0  0  0  0
 14  4  1  6  0  0  0
 14  6  1  0  0  0  0
 15  7  1  0  0  0  0
 16 17  1  6  0  0  0
 18 16  1  0  0  0  0
 19 20  1  0  0  0  0
 20 18  1  0  0  0  0
 21 22  1  0  0  0  0
 23 22  1  0  0  0  0
 24 23  1  0  0  0  0
 25 24  1  0  0  0  0
 25 26  1  0  0  0  0
 26 27  1  0  0  0  0
M  END
>  <MODEL>
9

>  <REMARK>
 VINA RESULT:      -6.0      4.024      7.105
  Name = 
  9 active torsions:
  status: ('A' for Active; 'I' for Inactive)
    1  A    between atoms: C_3  and  C_27
    2  A    between atoms: O_4  and  C_7
    3  A    between atoms: O_4  and  C_21
    4  A    between atoms: C_7  and  C_27
    5  A    between atoms: C_15  and  C_22
    6  A    between atoms: C_15  and  C_24
    7  A    between atoms: C_16  and  C_17
    8  A    between atoms: C_16  and  C_21
    9  A    between atoms: C_20  and  C_24
                            x       y       z     vdW  Elec       q    Type
                         _______ _______ _______ _____ _____    ______ ____

>  <TORSDO>
F 9

$$$$
