=
 OpenBabel10222422143D

 58 64  0  0  1  0  0  0  0  0999 V2000
  190.0910  177.0420  138.1380 C   0  0  0  0  0  0  0  0  0  0  0  0
  191.2350  176.3900  137.9820 C   0  0  0  0  0  3  0  0  0  0  0  0
  192.0780  176.5320  136.7580 C   0  0  1  0  0  3  0  0  0  0  0  0
  193.8270  176.4800  137.2310 S   0  0  0  0  0  0  0  0  0  0  0  0
  192.0380  175.2950  135.9980 N   0  0  0  0  0  2  0  0  0  0  0  0
  193.4310  174.9760  136.2690 C   0  0  1  0  0  3  0  0  0  0  0  0
  194.1930  174.8490  134.9370 C   0  0  0  0  0  2  0  0  0  0  0  0
  198.1620  174.6100  135.1750 S   0  0  0  0  0  0  0  0  0  0  0  0
  195.5110  174.2440  135.0910 N   0  0  0  0  0  0  0  0  0  0  0  0
  196.4790  175.2970  135.3670 C   0  0  0  0  0  2  0  0  0  0  0  0
  196.7080  172.5300  136.3440 C   0  0  2  0  0  3  0  0  0  0  0  0
  199.2090  172.4610  136.4470 C   0  0  0  0  0  1  0  0  0  0  0  0
  195.4670  173.4130  136.2820 C   0  0  0  0  0  2  0  0  0  0  0  0
  196.5230  171.5280  137.4800 C   0  0  0  0  0  1  0  0  0  0  0  0
  197.9950  173.3750  136.5140 C   0  0  0  0  0  0  0  0  0  0  0  0
  198.0150  174.1080  137.8490 C   0  0  0  0  0  1  0  0  0  0  0  0
  189.6720  177.3830  140.5380 C   0  0  0  0  0  3  0  0  0  0  0  0
  189.3580  176.8120  139.3900 C   0  0  0  0  0  3  0  0  0  0  0  0
  188.9110  177.0640  141.7070 C   0  0  0  0  0  0  0  0  0  0  0  0
  188.2850  176.7750  142.6980 C   0  0  0  0  0  0  0  0  0  0  0  0
  187.5760  176.4080  143.9250 C   0  0  0  0  0  2  0  0  0  0  0  0
  186.2070  177.4370  145.7720 C   0  0  0  0  0  2  0  0  0  0  0  0
  187.3300  177.6650  144.7600 C   0  0  1  0  0  3  0  0  0  0  0  0
  188.3170  177.8990  145.9190 C   0  0  1  0  0  3  0  0  0  0  0  0
  187.1680  177.6780  146.9150 C   0  0  2  0  0  0  0  0  0  0  0  0
  187.2940  176.5450  147.7180 O   0  0  0  0  0  1  0  0  0  0  0  0
  191.8530  176.5620  145.1860 C   0  0  0  0  0  3  0  0  0  0  0  0
  189.4950  176.9190  146.0210 C   0  0  2  0  0  3  0  0  0  0  0  0
  190.1450  177.0140  147.3990 C   0  0  0  0  0  2  0  0  0  0  0  0
  191.2230  175.9460  147.5150 C   0  0  0  0  0  2  0  0  0  0  0  0
  190.5550  177.3030  144.9860 C   0  0  0  0  0  2  0  0  0  0  0  0
  192.1800  175.9890  146.3520 C   0  0  0  0  0  3  0  0  0  0  0  0
  185.7650  179.7140  147.3200 O   0  0  0  0  0  0  0  0  0  0  0  0
  187.5290  179.2350  148.7020 O   0  0  0  0  0  1  0  0  0  0  0  0
  186.8330  178.9070  147.7030 C   0  0  0  0  0  0  0  0  0  0  0  0
  189.6560  177.9140  137.1200 O   0  0  0  0  0  0  0  0  0  0  0  0
  188.3030  178.3070  136.9480 C   0  0  0  0  0  2  0  0  0  0  0  0
  187.7140  177.5810  135.7590 C   0  0  0  0  0  2  0  0  0  0  0  0
  187.2860  176.1950  136.1950 C   0  0  0  0  0  2  0  0  0  0  0  0
  186.0570  175.7550  135.4270 C   0  0  0  0  0  2  0  0  0  0  0  0
  184.7900  177.0470  135.5820 S   0  0  0  0  0  0  0  0  0  0  0  0
  183.9140  176.1730  137.3380 S   0  0  0  0  0  0  0  0  0  0  0  0
  184.6080  177.9660  139.2350 O   0  0  0  0  0  0  0  0  0  0  0  0
  182.5240  178.3290  140.2060 O   0  0  0  0  0  0  0  0  0  0  0  0
  182.3010  177.7100  138.9860 C   0  0  2  0  0  3  0  0  0  0  0  0
  183.6270  177.7260  138.2730 C   0  0  2  0  0  3  0  0  0  0  0  0
  183.9000  178.1610  140.4400 C   0  0  2  0  0  3  0  0  0  0  0  0
  180.7080  179.6930  138.9110 C   0  0  0  0  0  2  0  0  0  0  0  0
  181.6710  178.8230  136.8890 N   0  0  0  0  0  2  0  0  0  0  0  0
  181.1700  180.1170  136.6300 N   0  0  0  0  0  2  0  0  0  0  0  0
  181.1930  178.4410  138.2130 C   0  0  1  0  0  3  0  0  0  0  0  0
  180.0170  181.7790  137.8850 N   0  0  0  0  0  1  0  0  0  0  0  0
  181.0600  180.7670  137.9220 C   0  0  1  0  0  3  0  0  0  0  0  0
  185.8400  179.0500  141.7330 C   0  0  0  0  0  2  0  0  0  0  0  0
  184.6490  179.1010  142.6570 C   0  0  0  0  0  0  0  0  0  0  0  0
  184.6170  180.2000  143.5140 O   0  0  0  0  0  1  0  0  0  0  0  0
  184.4510  179.3760  141.1780 C   0  0  2  0  0  3  0  0  0  0  0  0
  184.2510  177.8660  143.1760 O   0  0  0  0  0  1  0  0  0  0  0  0
  1 18  1  0  0  0  0
  2  1  2  0  0  0  0
  3  4  1  0  0  0  0
  3  2  1  1  0  0  0
  5  6  1  0  0  0  0
  5  3  1  0  0  0  0
  6  7  1  6  0  0  0
  6  4  1  0  0  0  0
  7  9  1  0  0  0  0
  8 10  1  0  0  0  0
  8 15  1  0  0  0  0
  9 10  1  0  0  0  0
  9 13  1  0  0  0  0
 11 15  1  0  0  0  0
 11 14  1  1  0  0  0
 12 15  1  0  0  0  0
 13 11  1  0  0  0  0
 15 16  1  0  0  0  0
 17 19  1  0  0  0  0
 18 17  2  0  0  0  0
 19 20  3  0  0  0  0
 20 21  1  0  0  0  0
 22 25  1  0  0  0  0
 23 21  1  1  0  0  0
 23 22  1  0  0  0  0
 23 24  1  0  0  0  0
 24 28  1  1  0  0  0
 24 25  1  0  0  0  0
 25 35  1  0  0  0  0
 25 26  1  1  0  0  0
 27 32  2  0  0  0  0
 28 31  1  6  0  0  0
 28 29  1  0  0  0  0
 29 30  1  0  0  0  0
 31 27  1  0  0  0  0
 32 30  1  0  0  0  0
 33 35  2  0  0  0  0
 35 34  1  0  0  0  0
 36  1  1  0  0  0  0
 37 36  1  0  0  0  0
 38 39  1  0  0  0  0
 38 37  1  0  0  0  0
 40 41  1  0  0  0  0
 40 39  1  0  0  0  0
 41 42  1  0  0  0  0
 44 47  1  0  0  0  0
 45 44  1  1  0  0  0
 46 42  1  1  0  0  0
 46 45  1  0  0  0  0
 46 43  1  0  0  0  0
 47 43  1  6  0  0  0
 47 57  1  0  0  0  0
 49 51  1  0  0  0  0
 50 49  1  0  0  0  0
 50 53  1  0  0  0  0
 51 48  1  1  0  0  0
 51 45  1  0  0  0  0
 53 52  1  6  0  0  0
 53 48  1  0  0  0  0
 54 55  1  0  0  0  0
 55 58  1  0  0  0  0
 55 56  1  0  0  0  0
 57 54  1  6  0  0  0
 57 55  1  0  0  0  0
M  END
>  <MODEL>
1

>  <REMARK>
 VINA RESULT:      -6.7      0.000      0.000
  Name = 
  19 active torsions:
  status: ('A' for Active; 'I' for Inactive)
    1  A    between atoms: C_1  and  C_27
    2  A    between atoms: C_1  and  C_32
    3  A    between atoms: C_5  and  C_21
    4  A    between atoms: C_6  and  C_14
    5  A    between atoms: N_7  and  C_18
    6  A    between atoms: C_8  and  C_17
    7  A    between atoms: C_12  and  O_15
    8  A    between atoms: C_12  and  C_27
    9  A    between atoms: S_13  and  C_43
   10  A    between atoms: S_13  and  S_47
   11  A    between atoms: O_15  and  C_17
   12  A    between atoms: C_16  and  C_46
   13  A    between atoms: C_18  and  C_39
   14  A    between atoms: C_24  and  C_46
   15  A    between atoms: C_26  and  C_33
   16  A    between atoms: C_29  and  C_54
   17  A    between atoms: C_32  and  S_47
   18  A    between atoms: C_40  and  C_44
   19  A    between atoms: C_48  and  C_49
                            x       y       z     vdW  Elec       q    Type
                         _______ _______ _______ _____ _____    ______ ____

>  <TORSDO>
F 19

$$$$
=
 OpenBabel10222422143D

 58 64  0  0  1  0  0  0  0  0999 V2000
  192.1010  175.8560  137.2090 C   0  0  0  0  0  0  0  0  0  0  0  0
  193.2760  175.2590  137.0590 C   0  0  0  0  0  3  0  0  0  0  0  0
  193.8100  174.8680  135.7200 C   0  0  1  0  0  3  0  0  0  0  0  0
  195.5710  175.2850  135.6360 S   0  0  0  0  0  0  0  0  0  0  0  0
  193.9420  173.4220  135.6580 N   0  0  0  0  0  2  0  0  0  0  0  0
  195.3960  173.4650  135.6290 C   0  0  1  0  0  3  0  0  0  0  0  0
  195.9010  172.7790  134.3460 C   0  0  0  0  0  2  0  0  0  0  0  0
  199.3800  170.8570  134.6010 S   0  0  0  0  0  0  0  0  0  0  0  0
  196.8360  171.6930  134.6140 N   0  0  0  0  0  0  0  0  0  0  0  0
  198.1860  172.2390  134.6590 C   0  0  0  0  0  2  0  0  0  0  0  0
  197.2930  169.8870  136.1850 C   0  0  2  0  0  3  0  0  0  0  0  0
  199.5160  168.7390  136.2830 C   0  0  0  0  0  1  0  0  0  0  0  0
  196.5550  171.2000  135.9510 C   0  0  0  0  0  2  0  0  0  0  0  0
  196.8050  169.2960  137.5050 C   0  0  0  0  0  1  0  0  0  0  0  0
  198.8280  170.0910  136.1680 C   0  0  0  0  0  0  0  0  0  0  0  0
  199.2920  170.9700  137.3220 C   0  0  0  0  0  1  0  0  0  0  0  0
  190.4830  176.5990  138.9070 C   0  0  0  0  0  3  0  0  0  0  0  0
  191.6940  176.1880  138.5810 C   0  0  0  0  0  3  0  0  0  0  0  0
  190.2010  176.9280  140.2710 C   0  0  0  0  0  0  0  0  0  0  0  0
  189.9740  177.2290  141.4180 C   0  0  0  0  0  0  0  0  0  0  0  0
  189.6890  177.6480  142.7910 C   0  0  0  0  0  2  0  0  0  0  0  0
  191.6010  177.0700  144.3240 C   0  0  0  0  0  2  0  0  0  0  0  0
  190.2550  176.6120  143.7620 C   0  0  1  0  0  3  0  0  0  0  0  0
  189.6610  176.6350  145.1830 C   0  0  1  0  0  3  0  0  0  0  0  0
  191.0270  177.0830  145.7240 C   0  0  2  0  0  0  0  0  0  0  0  0
  191.0530  178.3650  146.2710 O   0  0  0  0  0  1  0  0  0  0  0  0
  186.0040  177.8330  145.0470 C   0  0  0  0  0  3  0  0  0  0  0  0
  188.4930  177.6040  145.4190 C   0  0  2  0  0  3  0  0  0  0  0  0
  188.1360  177.6510  146.9020 C   0  0  0  0  0  2  0  0  0  0  0  0
  187.0650  178.7100  147.1220 C   0  0  0  0  0  2  0  0  0  0  0  0
  187.2610  177.0930  144.6670 C   0  0  0  0  0  2  0  0  0  0  0  0
  185.8970  178.5260  146.1890 C   0  0  0  0  0  3  0  0  0  0  0  0
  192.5080  175.0940  146.0860 O   0  0  0  0  0  0  0  0  0  0  0  0
  191.4210  176.0600  147.8570 O   0  0  0  0  0  1  0  0  0  0  0  0
  191.6640  176.0640  146.6200 C   0  0  0  0  0  0  0  0  0  0  0  0
  191.3280  176.1450  136.0680 O   0  0  0  0  0  0  0  0  0  0  0  0
  190.3350  175.2740  135.5490 C   0  0  0  0  0  2  0  0  0  0  0  0
  189.3760  176.0590  134.6830 C   0  0  0  0  0  2  0  0  0  0  0  0
  188.1240  176.3540  135.4800 C   0  0  0  0  0  2  0  0  0  0  0  0
  186.8910  175.9430  134.7010 C   0  0  0  0  0  2  0  0  0  0  0  0
  185.6260  177.2300  134.9070 S   0  0  0  0  0  0  0  0  0  0  0  0
  186.4480  177.9370  136.7610 S   0  0  0  0  0  0  0  0  0  0  0  0
  184.6380  176.0660  137.4780 O   0  0  0  0  0  0  0  0  0  0  0  0
  182.8320  177.4450  137.9810 O   0  0  0  0  0  0  0  0  0  0  0  0
  183.9580  178.2520  137.9380 C   0  0  2  0  0  3  0  0  0  0  0  0
  185.1310  177.3090  137.8740 C   0  0  2  0  0  3  0  0  0  0  0  0
  183.2410  176.2370  137.3880 C   0  0  2  0  0  3  0  0  0  0  0  0
  183.1350  178.6870  140.3060 C   0  0  0  0  0  2  0  0  0  0  0  0
  185.3640  179.3040  139.6550 N   0  0  0  0  0  2  0  0  0  0  0  0
  185.2960  179.2800  141.0650 N   0  0  0  0  0  2  0  0  0  0  0  0
  183.9970  179.1770  139.1630 C   0  0  1  0  0  3  0  0  0  0  0  0
  183.5990  178.8560  142.6810 N   0  0  0  0  0  1  0  0  0  0  0  0
  184.1460  178.4590  141.3930 C   0  0  1  0  0  3  0  0  0  0  0  0
  182.3580  173.9290  137.0470 C   0  0  0  0  0  2  0  0  0  0  0  0
  181.1770  174.7880  137.4230 C   0  0  0  0  0  0  0  0  0  0  0  0
  180.2230  174.1580  138.2210 O   0  0  0  0  0  1  0  0  0  0  0  0
  182.5270  175.0670  138.0570 C   0  0  2  0  0  3  0  0  0  0  0  0
  180.7160  175.6330  136.4100 O   0  0  0  0  0  1  0  0  0  0  0  0
  1 18  1  0  0  0  0
  2  1  2  0  0  0  0
  3  2  1  1  0  0  0
  4  3  1  0  0  0  0
  5  3  1  0  0  0  0
  6  7  1  6  0  0  0
  6  4  1  0  0  0  0
  6  5  1  0  0  0  0
  7  9  1  0  0  0  0
  8 10  1  0  0  0  0
  8 15  1  0  0  0  0
  9 10  1  0  0  0  0
  9 13  1  0  0  0  0
 11 14  1  1  0  0  0
 13 11  1  0  0  0  0
 15 11  1  0  0  0  0
 15 12  1  0  0  0  0
 15 16  1  0  0  0  0
 17 19  1  0  0  0  0
 18 17  2  0  0  0  0
 19 20  3  0  0  0  0
 20 21  1  0  0  0  0
 22 25  1  0  0  0  0
 23 21  1  6  0  0  0
 23 22  1  0  0  0  0
 23 24  1  0  0  0  0
 24 28  1  6  0  0  0
 24 25  1  0  0  0  0
 25 26  1  1  0  0  0
 25 35  1  0  0  0  0
 27 32  2  0  0  0  0
 28 31  1  6  0  0  0
 28 29  1  0  0  0  0
 29 30  1  0  0  0  0
 31 27  1  0  0  0  0
 32 30  1  0  0  0  0
 33 35  2  0  0  0  0
 35 34  1  0  0  0  0
 36  1  1  0  0  0  0
 37 36  1  0  0  0  0
 38 39  1  0  0  0  0
 38 37  1  0  0  0  0
 40 41  1  0  0  0  0
 40 39  1  0  0  0  0
 41 42  1  0  0  0  0
 43 46  1  0  0  0  0
 45 44  1  1  0  0  0
 45 51  1  0  0  0  0
 46 42  1  6  0  0  0
 46 45  1  0  0  0  0
 47 43  1  1  0  0  0
 47 44  1  0  0  0  0
 47 57  1  0  0  0  0
 48 53  1  0  0  0  0
 49 50  1  0  0  0  0
 50 53  1  0  0  0  0
 51 49  1  0  0  0  0
 51 48  1  1  0  0  0
 53 52  1  1  0  0  0
 54 55  1  0  0  0  0
 55 57  1  0  0  0  0
 55 56  1  0  0  0  0
 57 54  1  6  0  0  0
 58 55  1  0  0  0  0
M  END
>  <MODEL>
2

>  <REMARK>
 VINA RESULT:      -6.7      2.602      4.196
  Name = 
  19 active torsions:
  status: ('A' for Active; 'I' for Inactive)
    1  A    between atoms: C_1  and  C_27
    2  A    between atoms: C_1  and  C_32
    3  A    between atoms: C_5  and  C_21
    4  A    between atoms: C_6  and  C_14
    5  A    between atoms: N_7  and  C_18
    6  A    between atoms: C_8  and  C_17
    7  A    between atoms: C_12  and  O_15
    8  A    between atoms: C_12  and  C_27
    9  A    between atoms: S_13  and  C_43
   10  A    between atoms: S_13  and  S_47
   11  A    between atoms: O_15  and  C_17
   12  A    between atoms: C_16  and  C_46
   13  A    between atoms: C_18  and  C_39
   14  A    between atoms: C_24  and  C_46
   15  A    between atoms: C_26  and  C_33
   16  A    between atoms: C_29  and  C_54
   17  A    between atoms: C_32  and  S_47
   18  A    between atoms: C_40  and  C_44
   19  A    between atoms: C_48  and  C_49
                            x       y       z     vdW  Elec       q    Type
                         _______ _______ _______ _____ _____    ______ ____

>  <TORSDO>
F 19

$$$$
=
 OpenBabel10222422143D

 58 64  0  0  1  0  0  0  0  0999 V2000
  190.5620  175.9440  137.2100 C   0  0  0  0  0  0  0  0  0  0  0  0
  191.7190  175.2970  137.2030 C   0  0  0  0  0  3  0  0  0  0  0  0
  192.3020  174.7130  135.9590 C   0  0  1  0  0  3  0  0  0  0  0  0
  194.0010  175.3110  135.7580 S   0  0  0  0  0  0  0  0  0  0  0  0
  192.6080  173.3100  136.1830 N   0  0  0  0  0  2  0  0  0  0  0  0
  194.0460  173.5180  136.1160 C   0  0  1  0  0  3  0  0  0  0  0  0
  194.6350  172.6540  134.9860 C   0  0  0  0  0  2  0  0  0  0  0  0
  197.1840  170.6820  137.3260 S   0  0  0  0  0  0  0  0  0  0  0  0
  195.4500  171.5510  135.4810 N   0  0  0  0  0  0  0  0  0  0  0  0
  195.8630  171.8490  136.8450 C   0  0  0  0  0  2  0  0  0  0  0  0
  195.4350  169.1340  135.7940 C   0  0  2  0  0  3  0  0  0  0  0  0
  197.0710  167.9770  137.2940 C   0  0  0  0  0  1  0  0  0  0  0  0
  194.5910  170.3830  135.5640 C   0  0  0  0  0  2  0  0  0  0  0  0
  194.5260  167.9150  135.6600 C   0  0  0  0  0  1  0  0  0  0  0  0
  196.1510  169.1810  137.1660 C   0  0  0  0  0  0  0  0  0  0  0  0
  195.1580  169.1560  138.3210 C   0  0  0  0  0  1  0  0  0  0  0  0
  190.9100  176.7740  139.5000 C   0  0  0  0  0  3  0  0  0  0  0  0
  190.1020  176.4710  138.5020 C   0  0  0  0  0  3  0  0  0  0  0  0
  190.3540  177.2500  140.7300 C   0  0  0  0  0  0  0  0  0  0  0  0
  189.9030  177.6710  141.7670 C   0  0  0  0  0  0  0  0  0  0  0  0
  189.3700  178.2340  143.0090 C   0  0  0  0  0  2  0  0  0  0  0  0
  190.3970  177.7190  145.2500 C   0  0  0  0  0  2  0  0  0  0  0  0
  189.4990  177.1990  144.1280 C   0  0  1  0  0  3  0  0  0  0  0  0
  188.3170  177.1340  145.1130 C   0  0  1  0  0  3  0  0  0  0  0  0
  189.2440  177.6440  146.2260 C   0  0  2  0  0  0  0  0  0  0  0  0
  188.9230  178.9050  146.7280 O   0  0  0  0  0  1  0  0  0  0  0  0
  185.1030  178.1480  143.2490 C   0  0  0  0  0  3  0  0  0  0  0  0
  187.1050  178.0180  144.7860 C   0  0  2  0  0  3  0  0  0  0  0  0
  186.0680  177.9290  145.9020 C   0  0  0  0  0  2  0  0  0  0  0  0
  184.9410  178.9100  145.6140 C   0  0  0  0  0  2  0  0  0  0  0  0
  186.4440  177.5060  143.5040 C   0  0  0  0  0  2  0  0  0  0  0  0
  184.3960  178.7410  144.2200 C   0  0  0  0  0  3  0  0  0  0  0  0
  188.4360  176.3090  148.1870 O   0  0  0  0  0  1  0  0  0  0  0  0
  190.5960  176.0910  147.4530 O   0  0  0  0  0  0  0  0  0  0  0  0
  189.4680  176.6340  147.3100 C   0  0  0  0  0  0  0  0  0  0  0  0
  189.8570  176.1010  136.0010 O   0  0  0  0  0  0  0  0  0  0  0  0
  189.5420  177.3630  135.4320 C   0  0  0  0  0  2  0  0  0  0  0  0
  188.0580  177.4360  135.1540 C   0  0  0  0  0  2  0  0  0  0  0  0
  187.3110  177.4160  136.4710 C   0  0  0  0  0  2  0  0  0  0  0  0
  186.3300  176.2610  136.5060 C   0  0  0  0  0  2  0  0  0  0  0  0
  185.6500  176.0360  134.8370 S   0  0  0  0  0  0  0  0  0  0  0  0
  183.9070  177.2260  135.2350 S   0  0  0  0  0  0  0  0  0  0  0  0
  182.9650  174.9200  136.2790 O   0  0  0  0  0  0  0  0  0  0  0  0
  181.1620  175.7520  137.4940 O   0  0  0  0  0  0  0  0  0  0  0  0
  181.9740  176.8320  137.1820 C   0  0  2  0  0  3  0  0  0  0  0  0
  183.2460  176.2400  136.6350 C   0  0  2  0  0  3  0  0  0  0  0  0
  181.6250  174.7140  136.6670 C   0  0  2  0  0  3  0  0  0  0  0  0
  183.6330  177.6670  138.9220 C   0  0  0  0  0  2  0  0  0  0  0  0
  181.8640  179.0910  138.1390 N   0  0  0  0  0  2  0  0  0  0  0  0
  182.8440  179.8920  138.7660 N   0  0  0  0  0  2  0  0  0  0  0  0
  182.2040  177.7030  138.4260 C   0  0  1  0  0  3  0  0  0  0  0  0
  184.9050  179.4920  139.8880 N   0  0  0  0  0  1  0  0  0  0  0  0
  184.0590  179.0990  138.7730 C   0  0  1  0  0  3  0  0  0  0  0  0
  182.1280  172.2730  136.5460 C   0  0  0  0  0  2  0  0  0  0  0  0
  180.6260  172.3970  136.6200 C   0  0  0  0  0  0  0  0  0  0  0  0
  179.9900  171.4010  137.3580 O   0  0  0  0  0  1  0  0  0  0  0  0
  181.4900  173.3790  137.3910 C   0  0  2  0  0  3  0  0  0  0  0  0
  180.0110  172.8200  135.4390 O   0  0  0  0  0  1  0  0  0  0  0  0
  1 18  1  0  0  0  0
  2  1  2  0  0  0  0
  3  5  1  0  0  0  0
  3  2  1  1  0  0  0
  4  3  1  0  0  0  0
  4  6  1  0  0  0  0
  6  7  1  6  0  0  0
  6  5  1  0  0  0  0
  7  9  1  0  0  0  0
  9 13  1  0  0  0  0
  9 10  1  0  0  0  0
 10  8  1  0  0  0  0
 11 14  1  1  0  0  0
 11 15  1  0  0  0  0
 13 11  1  0  0  0  0
 15 12  1  0  0  0  0
 15  8  1  0  0  0  0
 15 16  1  0  0  0  0
 17 19  1  0  0  0  0
 18 17  2  0  0  0  0
 19 20  3  0  0  0  0
 20 21  1  0  0  0  0
 22 25  1  0  0  0  0
 23 21  1  6  0  0  0
 23 24  1  0  0  0  0
 23 22  1  0  0  0  0
 24 28  1  6  0  0  0
 24 25  1  0  0  0  0
 25 26  1  1  0  0  0
 25 35  1  0  0  0  0
 27 31  1  0  0  0  0
 27 32  2  0  0  0  0
 28 31  1  6  0  0  0
 28 29  1  0  0  0  0
 30 29  1  0  0  0  0
 32 30  1  0  0  0  0
 35 34  2  0  0  0  0
 35 33  1  0  0  0  0
 36  1  1  0  0  0  0
 37 36  1  0  0  0  0
 38 37  1  0  0  0  0
 38 39  1  0  0  0  0
 39 40  1  0  0  0  0
 41 42  1  0  0  0  0
 41 40  1  0  0  0  0
 43 46  1  0  0  0  0
 45 44  1  1  0  0  0
 45 51  1  0  0  0  0
 46 42  1  6  0  0  0
 46 45  1  0  0  0  0
 47 43  1  1  0  0  0
 47 57  1  0  0  0  0
 47 44  1  0  0  0  0
 49 51  1  0  0  0  0
 49 50  1  0  0  0  0
 50 53  1  0  0  0  0
 51 48  1  6  0  0  0
 53 48  1  0  0  0  0
 53 52  1  1  0  0  0
 54 55  1  0  0  0  0
 55 56  1  0  0  0  0
 55 57  1  0  0  0  0
 57 54  1  6  0  0  0
 58 55  1  0  0  0  0
M  END
>  <MODEL>
3

>  <REMARK>
 VINA RESULT:      -6.7      2.843      4.500
  Name = 
  19 active torsions:
  status: ('A' for Active; 'I' for Inactive)
    1  A    between atoms: C_1  and  C_27
    2  A    between atoms: C_1  and  C_32
    3  A    between atoms: C_5  and  C_21
    4  A    between atoms: C_6  and  C_14
    5  A    between atoms: N_7  and  C_18
    6  A    between atoms: C_8  and  C_17
    7  A    between atoms: C_12  and  O_15
    8  A    between atoms: C_12  and  C_27
    9  A    between atoms: S_13  and  C_43
   10  A    between atoms: S_13  and  S_47
   11  A    between atoms: O_15  and  C_17
   12  A    between atoms: C_16  and  C_46
   13  A    between atoms: C_18  and  C_39
   14  A    between atoms: C_24  and  C_46
   15  A    between atoms: C_26  and  C_33
   16  A    between atoms: C_29  and  C_54
   17  A    between atoms: C_32  and  S_47
   18  A    between atoms: C_40  and  C_44
   19  A    between atoms: C_48  and  C_49
                            x       y       z     vdW  Elec       q    Type
                         _______ _______ _______ _____ _____    ______ ____

>  <TORSDO>
F 19

$$$$
=
 OpenBabel10222422143D

 58 64  0  0  1  0  0  0  0  0999 V2000
  187.3070  176.1280  135.6660 C   0  0  0  0  0  0  0  0  0  0  0  0
  186.2730  175.5040  135.1190 C   0  0  0  0  0  3  0  0  0  0  0  0
  185.0510  176.2290  134.6590 C   0  0  1  0  0  3  0  0  0  0  0  0
  183.6940  175.0450  134.4640 S   0  0  0  0  0  0  0  0  0  0  0  0
  184.4970  176.9910  135.7670 N   0  0  0  0  0  2  0  0  0  0  0  0
  183.3100  176.1550  135.8660 C   0  0  1  0  0  3  0  0  0  0  0  0
  182.0560  177.0260  135.6680 C   0  0  0  0  0  2  0  0  0  0  0  0
  180.4740  176.2980  139.2500 S   0  0  0  0  0  0  0  0  0  0  0  0
  181.3360  177.2750  136.9110 N   0  0  0  0  0  0  0  0  0  0  0  0
  181.6530  176.2130  137.8570 C   0  0  0  0  0  2  0  0  0  0  0  0
  180.9770  178.9730  138.6220 C   0  0  2  0  0  3  0  0  0  0  0  0
  179.9830  178.4240  140.8530 C   0  0  0  0  0  1  0  0  0  0  0  0
  181.8710  178.4990  137.4820 C   0  0  0  0  0  2  0  0  0  0  0  0
  181.4470  180.3610  139.0490 C   0  0  0  0  0  1  0  0  0  0  0  0
  180.9800  177.9680  139.8000 C   0  0  0  0  0  0  0  0  0  0  0  0
  182.3550  177.8630  140.4470 C   0  0  0  0  0  1  0  0  0  0  0  0
  189.6720  175.4510  135.6100 C   0  0  0  0  0  3  0  0  0  0  0  0
  188.4470  175.2960  136.0750 C   0  0  0  0  0  3  0  0  0  0  0  0
  190.7040  174.5640  136.0510 C   0  0  0  0  0  0  0  0  0  0  0  0
  191.5820  173.8120  136.3980 C   0  0  0  0  0  0  0  0  0  0  0  0
  192.6790  172.9200  136.7760 C   0  0  0  0  0  2  0  0  0  0  0  0
  194.4840  174.5960  137.3040 C   0  0  0  0  0  2  0  0  0  0  0  0
  194.0050  173.5290  136.3180 C   0  0  1  0  0  3  0  0  0  0  0  0
  195.2620  172.6940  136.6220 C   0  0  1  0  0  3  0  0  0  0  0  0
  195.7280  173.7860  137.5970 C   0  0  2  0  0  0  0  0  0  0  0  0
  195.7760  173.3990  138.9360 O   0  0  0  0  0  1  0  0  0  0  0  0
  194.0170  169.0500  136.6920 C   0  0  0  0  0  3  0  0  0  0  0  0
  195.0280  171.3030  137.2300 C   0  0  2  0  0  3  0  0  0  0  0  0
  196.3450  170.5360  137.3200 C   0  0  0  0  0  2  0  0  0  0  0  0
  196.1040  169.2170  138.0410 C   0  0  0  0  0  2  0  0  0  0  0  0
  194.0960  170.5080  136.3130 C   0  0  0  0  0  2  0  0  0  0  0  0
  194.9570  168.4500  137.4350 C   0  0  0  0  0  3  0  0  0  0  0  0
  196.9330  175.7760  136.6660 O   0  0  0  0  0  0  0  0  0  0  0  0
  198.0880  173.8670  137.1860 O   0  0  0  0  0  1  0  0  0  0  0  0
  196.9830  174.4720  137.1510 C   0  0  0  0  0  0  0  0  0  0  0  0
  187.2640  177.5290  135.8100 O   0  0  0  0  0  0  0  0  0  0  0  0
  187.4520  178.1980  137.0480 C   0  0  0  0  0  2  0  0  0  0  0  0
  188.8100  178.8630  137.0620 C   0  0  0  0  0  2  0  0  0  0  0  0
  189.4520  178.6370  138.4150 C   0  0  0  0  0  2  0  0  0  0  0  0
  188.5630  177.7710  139.2840 C   0  0  0  0  0  2  0  0  0  0  0  0
  189.4570  177.3890  140.8180 S   0  0  0  0  0  0  0  0  0  0  0  0
  187.6840  177.4380  142.0290 S   0  0  0  0  0  0  0  0  0  0  0  0
  189.7760  177.5300  143.7350 O   0  0  0  0  0  0  0  0  0  0  0  0
  188.6560  177.1730  145.7430 O   0  0  0  0  0  0  0  0  0  0  0  0
  187.6980  177.5140  144.8000 C   0  0  2  0  0  3  0  0  0  0  0  0
  188.4660  177.9900  143.5950 C   0  0  2  0  0  3  0  0  0  0  0  0
  189.8070  176.8850  144.9890 C   0  0  2  0  0  3  0  0  0  0  0  0
  185.4560  178.6980  144.5880 C   0  0  0  0  0  2  0  0  0  0  0  0
  186.4110  178.2690  146.7500 N   0  0  0  0  0  2  0  0  0  0  0  0
  185.0380  178.5560  146.9130 N   0  0  0  0  0  2  0  0  0  0  0  0
  186.7480  178.5790  145.3660 C   0  0  1  0  0  3  0  0  0  0  0  0
  183.2410  179.1490  145.4680 N   0  0  0  0  0  1  0  0  0  0  0  0
  184.4280  178.3230  145.6170 C   0  0  1  0  0  3  0  0  0  0  0  0
  191.9400  176.0870  146.0060 C   0  0  0  0  0  2  0  0  0  0  0  0
  191.1160  176.6570  147.1330 C   0  0  0  0  0  0  0  0  0  0  0  0
  191.8460  177.3250  148.1150 O   0  0  0  0  0  1  0  0  0  0  0  0
  191.0500  177.3080  145.7630 C   0  0  2  0  0  3  0  0  0  0  0  0
  190.0530  175.8530  147.5520 O   0  0  0  0  0  1  0  0  0  0  0  0
  1 36  1  0  0  0  0
  1 18  1  0  0  0  0
  2  1  2  0  0  0  0
  3  2  1  1  0  0  0
  3  5  1  0  0  0  0
  4  3  1  0  0  0  0
  4  6  1  0  0  0  0
  5  6  1  0  0  0  0
  6  7  1  6  0  0  0
  7  9  1  0  0  0  0
  8 15  1  0  0  0  0
  9 13  1  0  0  0  0
  9 10  1  0  0  0  0
 10  8  1  0  0  0  0
 11 14  1  1  0  0  0
 11 15  1  0  0  0  0
 13 11  1  0  0  0  0
 15 16  1  0  0  0  0
 15 12  1  0  0  0  0
 17 19  1  0  0  0  0
 17 18  2  0  0  0  0
 19 20  3  0  0  0  0
 20 21  1  0  0  0  0
 22 25  1  0  0  0  0
 23 24  1  0  0  0  0
 23 21  1  1  0  0  0
 23 22  1  0  0  0  0
 24 28  1  1  0  0  0
 24 25  1  0  0  0  0
 25 26  1  1  0  0  0
 27 32  2  0  0  0  0
 28 31  1  6  0  0  0
 28 29  1  0  0  0  0
 29 30  1  0  0  0  0
 31 27  1  0  0  0  0
 32 30  1  0  0  0  0
 33 35  2  0  0  0  0
 35 34  1  0  0  0  0
 35 25  1  0  0  0  0
 36 37  1  0  0  0  0
 37 38  1  0  0  0  0
 38 39  1  0  0  0  0
 39 40  1  0  0  0  0
 40 41  1  0  0  0  0
 41 42  1  0  0  0  0
 45 51  1  0  0  0  0
 45 44  1  1  0  0  0
 46 42  1  6  0  0  0
 46 43  1  0  0  0  0
 46 45  1  0  0  0  0
 47 43  1  6  0  0  0
 47 44  1  0  0  0  0
 47 57  1  0  0  0  0
 48 53  1  0  0  0  0
 49 50  1  0  0  0  0
 51 48  1  6  0  0  0
 51 49  1  0  0  0  0
 53 52  1  6  0  0  0
 53 50  1  0  0  0  0
 54 55  1  0  0  0  0
 55 58  1  0  0  0  0
 55 56  1  0  0  0  0
 57 54  1  6  0  0  0
 57 55  1  0  0  0  0
M  END
>  <MODEL>
4

>  <REMARK>
 VINA RESULT:      -6.4      3.759     11.058
  Name = 
  19 active torsions:
  status: ('A' for Active; 'I' for Inactive)
    1  A    between atoms: C_1  and  C_27
    2  A    between atoms: C_1  and  C_32
    3  A    between atoms: C_5  and  C_21
    4  A    between atoms: C_6  and  C_14
    5  A    between atoms: N_7  and  C_18
    6  A    between atoms: C_8  and  C_17
    7  A    between atoms: C_12  and  O_15
    8  A    between atoms: C_12  and  C_27
    9  A    between atoms: S_13  and  C_43
   10  A    between atoms: S_13  and  S_47
   11  A    between atoms: O_15  and  C_17
   12  A    between atoms: C_16  and  C_46
   13  A    between atoms: C_18  and  C_39
   14  A    between atoms: C_24  and  C_46
   15  A    between atoms: C_26  and  C_33
   16  A    between atoms: C_29  and  C_54
   17  A    between atoms: C_32  and  S_47
   18  A    between atoms: C_40  and  C_44
   19  A    between atoms: C_48  and  C_49
                            x       y       z     vdW  Elec       q    Type
                         _______ _______ _______ _____ _____    ______ ____

>  <TORSDO>
F 19

$$$$
=
 OpenBabel10222422143D

 58 64  0  0  1  0  0  0  0  0999 V2000
  186.6290  178.2980  138.6360 C   0  0  0  0  0  0  0  0  0  0  0  0
  185.3470  178.3070  138.9740 C   0  0  0  0  0  3  0  0  0  0  0  0
  184.2510  178.2630  137.9600 C   0  0  1  0  0  3  0  0  0  0  0  0
  184.6610  177.0350  136.6920 S   0  0  0  0  0  0  0  0  0  0  0  0
  183.0960  177.5890  138.5280 N   0  0  0  0  0  2  0  0  0  0  0  0
  183.2240  176.4350  137.6510 C   0  0  1  0  0  3  0  0  0  0  0  0
  181.9310  176.2710  136.8310 C   0  0  0  0  0  2  0  0  0  0  0  0
  182.9760  172.9800  134.8470 S   0  0  0  0  0  0  0  0  0  0  0  0
  181.8030  174.9490  136.2310 N   0  0  0  0  0  0  0  0  0  0  0  0
  183.1350  174.4360  135.9390 C   0  0  0  0  0  2  0  0  0  0  0  0
  180.8130  172.7530  136.6020 C   0  0  2  0  0  3  0  0  0  0  0  0
  181.5390  170.7320  135.3130 C   0  0  0  0  0  1  0  0  0  0  0  0
  181.2430  174.0690  137.2410 C   0  0  0  0  0  2  0  0  0  0  0  0
  180.0400  171.9480  137.6420 C   0  0  0  0  0  1  0  0  0  0  0  0
  182.0290  171.9720  136.0450 C   0  0  0  0  0  0  0  0  0  0  0  0
  182.9750  171.5350  137.1570 C   0  0  0  0  0  1  0  0  0  0  0  0
  187.3070  178.0960  140.9920 C   0  0  0  0  0  3  0  0  0  0  0  0
  187.6070  178.3440  139.7320 C   0  0  0  0  0  3  0  0  0  0  0  0
  188.3300  178.2000  141.9870 C   0  0  0  0  0  0  0  0  0  0  0  0
  189.1920  178.3150  142.8250 C   0  0  0  0  0  0  0  0  0  0  0  0
  190.2100  178.5020  143.8590 C   0  0  0  0  0  2  0  0  0  0  0  0
  192.0280  177.2290  145.0500 C   0  0  0  0  0  2  0  0  0  0  0  0
  190.6590  177.1340  144.3780 C   0  0  1  0  0  3  0  0  0  0  0  0
  190.0390  176.6950  145.7170 C   0  0  1  0  0  3  0  0  0  0  0  0
  191.4280  176.7840  146.3660 C   0  0  2  0  0  0  0  0  0  0  0  0
  191.5600  177.7720  147.3420 O   0  0  0  0  0  1  0  0  0  0  0  0
  186.4720  178.0520  146.2300 C   0  0  0  0  0  3  0  0  0  0  0  0
  188.9590  177.6150  146.3060 C   0  0  2  0  0  3  0  0  0  0  0  0
  188.7150  177.2720  147.7730 C   0  0  0  0  0  2  0  0  0  0  0  0
  187.7370  178.2800  148.3620 C   0  0  0  0  0  2  0  0  0  0  0  0
  187.6450  177.3860  145.5560 C   0  0  0  0  0  2  0  0  0  0  0  0
  186.4950  178.4110  147.5200 C   0  0  0  0  0  3  0  0  0  0  0  0
  192.0650  175.1750  148.1790 O   0  0  0  0  0  1  0  0  0  0  0  0
  192.3110  174.5900  145.9770 O   0  0  0  0  0  0  0  0  0  0  0  0
  191.9490  175.4550  146.8200 C   0  0  0  0  0  0  0  0  0  0  0  0
  186.9780  178.2330  137.2730 O   0  0  0  0  0  0  0  0  0  0  0  0
  188.3130  178.3230  136.7980 C   0  0  0  0  0  2  0  0  0  0  0  0
  188.3830  177.7900  135.3840 C   0  0  0  0  0  2  0  0  0  0  0  0
  187.7130  176.4320  135.3390 C   0  0  0  0  0  2  0  0  0  0  0  0
  188.7340  175.3320  135.5450 C   0  0  0  0  0  2  0  0  0  0  0  0
  190.0880  175.5760  134.3590 S   0  0  0  0  0  0  0  0  0  0  0  0
  190.8430  173.5800  134.5970 S   0  0  0  0  0  0  0  0  0  0  0  0
  193.4460  173.0260  135.0580 O   0  0  0  0  0  0  0  0  0  0  0  0
  193.5990  173.7010  137.2800 O   0  0  0  0  0  0  0  0  0  0  0  0
  192.4290  174.2440  136.7710 C   0  0  2  0  0  3  0  0  0  0  0  0
  192.4890  174.0150  135.2840 C   0  0  2  0  0  3  0  0  0  0  0  0
  193.9830  172.7380  136.3300 C   0  0  2  0  0  3  0  0  0  0  0  0
  191.1890  176.0200  138.1060 C   0  0  0  0  0  2  0  0  0  0  0  0
  193.5630  176.1810  137.7690 N   0  0  0  0  0  2  0  0  0  0  0  0
  193.2010  177.0300  138.8360 N   0  0  0  0  0  2  0  0  0  0  0  0
  192.3230  175.7290  137.1470 C   0  0  1  0  0  3  0  0  0  0  0  0
  191.1660  177.6370  139.9140 N   0  0  0  0  0  1  0  0  0  0  0  0
  191.9170  176.5480  139.3090 C   0  0  1  0  0  3  0  0  0  0  0  0
  195.9750  171.2760  136.6740 C   0  0  0  0  0  2  0  0  0  0  0  0
  196.1350  172.4450  137.6140 C   0  0  0  0  0  0  0  0  0  0  0  0
  197.4460  172.8880  137.7830 O   0  0  0  0  0  1  0  0  0  0  0  0
  195.5040  172.6700  136.2510 C   0  0  2  0  0  3  0  0  0  0  0  0
  195.3130  172.4110  138.7430 O   0  0  0  0  0  1  0  0  0  0  0  0
  1  2  2  0  0  0  0
  1 18  1  0  0  0  0
  3  5  1  0  0  0  0
  3  2  1  1  0  0  0
  4  6  1  0  0  0  0
  4  3  1  0  0  0  0
  6  7  1  6  0  0  0
  6  5  1  0  0  0  0
  8 10  1  0  0  0  0
  8 15  1  0  0  0  0
  9  7  1  0  0  0  0
  9 13  1  0  0  0  0
 10  9  1  0  0  0  0
 11 13  1  0  0  0  0
 11 14  1  1  0  0  0
 12 15  1  0  0  0  0
 15 11  1  0  0  0  0
 15 16  1  0  0  0  0
 17 19  1  0  0  0  0
 18 17  2  0  0  0  0
 19 20  3  0  0  0  0
 20 21  1  0  0  0  0
 22 25  1  0  0  0  0
 23 21  1  1  0  0  0
 23 22  1  0  0  0  0
 23 24  1  0  0  0  0
 24 28  1  1  0  0  0
 24 25  1  0  0  0  0
 25 35  1  0  0  0  0
 25 26  1  1  0  0  0
 27 32  2  0  0  0  0
 28 31  1  6  0  0  0
 28 29  1  0  0  0  0
 29 30  1  0  0  0  0
 31 27  1  0  0  0  0
 32 30  1  0  0  0  0
 34 35  2  0  0  0  0
 35 33  1  0  0  0  0
 36  1  1  0  0  0  0
 37 36  1  0  0  0  0
 38 37  1  0  0  0  0
 39 38  1  0  0  0  0
 39 40  1  0  0  0  0
 41 42  1  0  0  0  0
 41 40  1  0  0  0  0
 43 46  1  0  0  0  0
 45 51  1  0  0  0  0
 45 44  1  1  0  0  0
 46 42  1  1  0  0  0
 46 45  1  0  0  0  0
 47 43  1  6  0  0  0
 47 44  1  0  0  0  0
 48 53  1  0  0  0  0
 49 50  1  0  0  0  0
 50 53  1  0  0  0  0
 51 49  1  0  0  0  0
 51 48  1  1  0  0  0
 53 52  1  6  0  0  0
 54 55  1  0  0  0  0
 55 56  1  0  0  0  0
 55 58  1  0  0  0  0
 57 47  1  0  0  0  0
 57 54  1  6  0  0  0
 57 55  1  0  0  0  0
M  END
>  <MODEL>
5

>  <REMARK>
 VINA RESULT:      -6.2      3.498      9.889
  Name = 
  19 active torsions:
  status: ('A' for Active; 'I' for Inactive)
    1  A    between atoms: C_1  and  C_27
    2  A    between atoms: C_1  and  C_32
    3  A    between atoms: C_5  and  C_21
    4  A    between atoms: C_6  and  C_14
    5  A    between atoms: N_7  and  C_18
    6  A    between atoms: C_8  and  C_17
    7  A    between atoms: C_12  and  O_15
    8  A    between atoms: C_12  and  C_27
    9  A    between atoms: S_13  and  C_43
   10  A    between atoms: S_13  and  S_47
   11  A    between atoms: O_15  and  C_17
   12  A    between atoms: C_16  and  C_46
   13  A    between atoms: C_18  and  C_39
   14  A    between atoms: C_24  and  C_46
   15  A    between atoms: C_26  and  C_33
   16  A    between atoms: C_29  and  C_54
   17  A    between atoms: C_32  and  S_47
   18  A    between atoms: C_40  and  C_44
   19  A    between atoms: C_48  and  C_49
                            x       y       z     vdW  Elec       q    Type
                         _______ _______ _______ _____ _____    ______ ____

>  <TORSDO>
F 19

$$$$
=
 OpenBabel10222422143D

 58 64  0  0  1  0  0  0  0  0999 V2000
  190.4580  176.9690  139.8410 C   0  0  0  0  0  0  0  0  0  0  0  0
  190.8510  176.7040  141.0790 C   0  0  0  0  0  3  0  0  0  0  0  0
  190.3660  177.4820  142.2580 C   0  0  1  0  0  3  0  0  0  0  0  0
  189.1520  176.4900  143.1670 S   0  0  0  0  0  0  0  0  0  0  0  0
  191.4030  177.5120  143.2750 N   0  0  0  0  0  2  0  0  0  0  0  0
  190.6520  176.6740  144.1960 C   0  0  1  0  0  3  0  0  0  0  0  0
  190.4330  177.4360  145.5160 C   0  0  0  0  0  2  0  0  0  0  0  0
  187.4920  177.3510  148.2010 S   0  0  0  0  0  0  0  0  0  0  0  0
  189.0870  177.2700  146.0520 N   0  0  0  0  0  0  0  0  0  0  0  0
  189.0290  177.8870  147.3700 C   0  0  0  0  0  2  0  0  0  0  0  0
  186.7420  177.6780  145.5290 C   0  0  2  0  0  3  0  0  0  0  0  0
  184.9570  177.6140  147.2840 C   0  0  0  0  0  1  0  0  0  0  0  0
  188.1880  178.0360  145.2070 C   0  0  0  0  0  2  0  0  0  0  0  0
  185.8450  178.3350  144.4840 C   0  0  0  0  0  1  0  0  0  0  0  0
  186.3640  178.1000  146.9710 C   0  0  0  0  0  0  0  0  0  0  0  0
  186.4020  179.6130  147.1440 C   0  0  0  0  0  1  0  0  0  0  0  0
  191.7940  176.5820  137.8110 C   0  0  0  0  0  3  0  0  0  0  0  0
  191.0110  176.1270  138.7710 C   0  0  0  0  0  3  0  0  0  0  0  0
  192.2530  175.6810  136.7990 C   0  0  0  0  0  0  0  0  0  0  0  0
  192.6630  174.9320  135.9450 C   0  0  0  0  0  0  0  0  0  0  0  0
  193.2130  174.0270  134.9360 C   0  0  0  0  0  2  0  0  0  0  0  0
  195.1340  175.5090  135.6090 C   0  0  0  0  0  2  0  0  0  0  0  0
  194.7070  174.3070  134.7660 C   0  0  1  0  0  3  0  0  0  0  0  0
  195.6500  173.4060  135.5850 C   0  0  1  0  0  3  0  0  0  0  0  0
  196.0730  174.6320  136.4080 C   0  0  2  0  0  0  0  0  0  0  0  0
  195.7080  174.5930  137.7530 O   0  0  0  0  0  1  0  0  0  0  0  0
  193.9020  170.0060  136.0430 C   0  0  0  0  0  3  0  0  0  0  0  0
  194.9920  172.2610  136.3690 C   0  0  2  0  0  3  0  0  0  0  0  0
  196.0450  171.4850  137.1550 C   0  0  0  0  0  2  0  0  0  0  0  0
  195.3510  170.4420  138.0200 C   0  0  0  0  0  2  0  0  0  0  0  0
  194.3450  171.2870  135.3820 C   0  0  0  0  0  2  0  0  0  0  0  0
  194.3980  169.5950  137.2170 C   0  0  0  0  0  3  0  0  0  0  0  0
  198.3740  175.0530  137.3070 O   0  0  0  0  0  1  0  0  0  0  0  0
  197.9500  175.2850  135.0670 O   0  0  0  0  0  0  0  0  0  0  0  0
  197.5130  174.9990  136.2140 C   0  0  0  0  0  0  0  0  0  0  0  0
  189.5390  178.0140  139.6230 O   0  0  0  0  0  0  0  0  0  0  0  0
  188.1340  177.8240  139.5530 C   0  0  0  0  0  2  0  0  0  0  0  0
  187.7630  177.2970  138.1850 C   0  0  0  0  0  2  0  0  0  0  0  0
  188.2470  178.2750  137.1360 C   0  0  0  0  0  2  0  0  0  0  0  0
  187.2820  178.3190  135.9680 C   0  0  0  0  0  2  0  0  0  0  0  0
  186.7210  176.6260  135.6240 S   0  0  0  0  0  0  0  0  0  0  0  0
  184.6670  177.2080  135.3800 S   0  0  0  0  0  0  0  0  0  0  0  0
  183.7650  174.7710  136.1150 O   0  0  0  0  0  0  0  0  0  0  0  0
  181.8110  175.3950  137.2140 O   0  0  0  0  0  0  0  0  0  0  0  0
  182.5850  176.5380  137.0820 C   0  0  2  0  0  3  0  0  0  0  0  0
  183.9350  176.0630  136.6130 C   0  0  2  0  0  3  0  0  0  0  0  0
  182.4080  174.4640  136.3470 C   0  0  2  0  0  3  0  0  0  0  0  0
  184.0580  177.6250  138.8500 C   0  0  0  0  0  2  0  0  0  0  0  0
  181.9050  178.5500  138.3160 N   0  0  0  0  0  2  0  0  0  0  0  0
  182.6580  179.5270  139.0020 N   0  0  0  0  0  2  0  0  0  0  0  0
  182.6450  177.2970  138.4160 C   0  0  1  0  0  3  0  0  0  0  0  0
  184.8230  179.6250  139.9890 N   0  0  0  0  0  1  0  0  0  0  0  0
  184.0460  179.1270  138.8650 C   0  0  1  0  0  3  0  0  0  0  0  0
  182.1900  172.0400  135.7950 C   0  0  0  0  0  2  0  0  0  0  0  0
  180.9570  172.4140  136.5790 C   0  0  0  0  0  0  0  0  0  0  0  0
  180.4880  171.4250  137.4420 O   0  0  0  0  0  1  0  0  0  0  0  0
  182.2840  173.0610  136.9320 C   0  0  2  0  0  3  0  0  0  0  0  0
  180.0090  173.1560  135.8700 O   0  0  0  0  0  1  0  0  0  0  0  0
  1  2  2  0  0  0  0
  3  2  1  6  0  0  0
  3  4  1  0  0  0  0
  3  5  1  0  0  0  0
  4  6  1  0  0  0  0
  5  6  1  0  0  0  0
  6  7  1  1  0  0  0
  7  9  1  0  0  0  0
  9 10  1  0  0  0  0
 10  8  1  0  0  0  0
 11 14  1  6  0  0  0
 11 15  1  0  0  0  0
 13 11  1  0  0  0  0
 13  9  1  0  0  0  0
 15 16  1  0  0  0  0
 15 12  1  0  0  0  0
 15  8  1  0  0  0  0
 17 18  2  0  0  0  0
 18  1  1  0  0  0  0
 19 17  1  0  0  0  0
 20 19  3  0  0  0  0
 21 20  1  0  0  0  0
 22 25  1  0  0  0  0
 23 21  1  1  0  0  0
 23 24  1  0  0  0  0
 23 22  1  0  0  0  0
 24 28  1  1  0  0  0
 24 25  1  0  0  0  0
 25 26  1  1  0  0  0
 27 32  2  0  0  0  0
 28 31  1  6  0  0  0
 28 29  1  0  0  0  0
 29 30  1  0  0  0  0
 31 27  1  0  0  0  0
 32 30  1  0  0  0  0
 34 35  2  0  0  0  0
 35 25  1  0  0  0  0
 35 33  1  0  0  0  0
 36  1  1  0  0  0  0
 37 36  1  0  0  0  0
 38 37  1  0  0  0  0
 39 38  1  0  0  0  0
 40 39  1  0  0  0  0
 41 40  1  0  0  0  0
 42 41  1  0  0  0  0
 43 46  1  0  0  0  0
 45 44  1  1  0  0  0
 45 51  1  0  0  0  0
 46 42  1  6  0  0  0
 46 45  1  0  0  0  0
 47 43  1  1  0  0  0
 47 57  1  0  0  0  0
 47 44  1  0  0  0  0
 48 53  1  0  0  0  0
 49 51  1  0  0  0  0
 49 50  1  0  0  0  0
 51 48  1  6  0  0  0
 53 50  1  0  0  0  0
 53 52  1  1  0  0  0
 54 55  1  0  0  0  0
 55 57  1  0  0  0  0
 55 56  1  0  0  0  0
 57 54  1  6  0  0  0
 58 55  1  0  0  0  0
M  END
>  <MODEL>
6

>  <REMARK>
 VINA RESULT:      -5.7      4.038     10.178
  Name = 
  19 active torsions:
  status: ('A' for Active; 'I' for Inactive)
    1  A    between atoms: C_1  and  C_27
    2  A    between atoms: C_1  and  C_32
    3  A    between atoms: C_5  and  C_21
    4  A    between atoms: C_6  and  C_14
    5  A    between atoms: N_7  and  C_18
    6  A    between atoms: C_8  and  C_17
    7  A    between atoms: C_12  and  O_15
    8  A    between atoms: C_12  and  C_27
    9  A    between atoms: S_13  and  C_43
   10  A    between atoms: S_13  and  S_47
   11  A    between atoms: O_15  and  C_17
   12  A    between atoms: C_16  and  C_46
   13  A    between atoms: C_18  and  C_39
   14  A    between atoms: C_24  and  C_46
   15  A    between atoms: C_26  and  C_33
   16  A    between atoms: C_29  and  C_54
   17  A    between atoms: C_32  and  S_47
   18  A    between atoms: C_40  and  C_44
   19  A    between atoms: C_48  and  C_49
                            x       y       z     vdW  Elec       q    Type
                         _______ _______ _______ _____ _____    ______ ____

>  <TORSDO>
F 19

$$$$
=
 OpenBabel10222422143D

 58 64  0  0  1  0  0  0  0  0999 V2000
  185.1180  178.8290  139.8990 C   0  0  0  0  0  0  0  0  0  0  0  0
  183.9560  178.9340  140.5280 C   0  0  0  0  0  3  0  0  0  0  0  0
  182.6500  178.9300  139.8050 C   0  0  1  0  0  3  0  0  0  0  0  0
  182.9450  178.6140  138.0450 S   0  0  0  0  0  0  0  0  0  0  0  0
  181.9320  177.7050  140.1120 N   0  0  0  0  0  2  0  0  0  0  0  0
  182.0690  177.1780  138.7630 C   0  0  1  0  0  3  0  0  0  0  0  0
  180.6710  176.9190  138.1720 C   0  0  0  0  0  2  0  0  0  0  0  0
  181.7150  174.8320  134.9450 S   0  0  0  0  0  0  0  0  0  0  0  0
  180.6600  175.8440  137.1880 N   0  0  0  0  0  0  0  0  0  0  0  0
  181.8910  175.9080  136.4110 C   0  0  0  0  0  2  0  0  0  0  0  0
  180.4100  173.4290  136.9780 C   0  0  2  0  0  3  0  0  0  0  0  0
  181.1030  172.1940  134.9120 C   0  0  0  0  0  1  0  0  0  0  0  0
  180.7090  174.5900  137.9190 C   0  0  0  0  0  2  0  0  0  0  0  0
  180.2570  172.1630  137.8170 C   0  0  0  0  0  1  0  0  0  0  0  0
  181.5070  173.2820  135.8950 C   0  0  0  0  0  0  0  0  0  0  0  0
  182.8530  172.9090  136.5030 C   0  0  0  0  0  1  0  0  0  0  0  0
  186.7060  177.8400  141.4960 C   0  0  0  0  0  3  0  0  0  0  0  0
  186.3300  178.8460  140.7300 C   0  0  0  0  0  3  0  0  0  0  0  0
  187.8880  177.9730  142.2920 C   0  0  0  0  0  0  0  0  0  0  0  0
  188.8810  178.1110  142.9640 C   0  0  0  0  0  0  0  0  0  0  0  0
  190.0600  178.3230  143.8050 C   0  0  0  0  0  2  0  0  0  0  0  0
  191.9570  177.0810  144.9020 C   0  0  0  0  0  2  0  0  0  0  0  0
  190.5310  176.9780  144.3620 C   0  0  1  0  0  3  0  0  0  0  0  0
  190.0280  176.6300  145.7750 C   0  0  1  0  0  3  0  0  0  0  0  0
  191.4720  176.7260  146.2900 C   0  0  2  0  0  0  0  0  0  0  0  0
  191.7090  177.7650  147.1900 O   0  0  0  0  0  1  0  0  0  0  0  0
  186.5410  178.0440  146.5930 C   0  0  0  0  0  3  0  0  0  0  0  0
  189.0220  177.6060  146.4020 C   0  0  2  0  0  3  0  0  0  0  0  0
  188.9620  177.4050  147.9140 C   0  0  0  0  0  2  0  0  0  0  0  0
  188.0570  178.4670  148.5220 C   0  0  0  0  0  2  0  0  0  0  0  0
  187.6270  177.3120  145.8450 C   0  0  0  0  0  2  0  0  0  0  0  0
  186.7190  178.5240  147.8300 C   0  0  0  0  0  3  0  0  0  0  0  0
  192.7470  174.6010  145.9150 O   0  0  0  0  0  0  0  0  0  0  0  0
  191.7780  175.0220  147.9490 O   0  0  0  0  0  1  0  0  0  0  0  0
  192.0100  175.4130  146.7730 C   0  0  0  0  0  0  0  0  0  0  0  0
  185.1280  178.6960  138.4960 O   0  0  0  0  0  0  0  0  0  0  0  0
  186.2770  178.3260  137.7500 C   0  0  0  0  0  2  0  0  0  0  0  0
  185.8530  177.5630  136.5150 C   0  0  0  0  0  2  0  0  0  0  0  0
  185.5380  176.1350  136.9060 C   0  0  0  0  0  2  0  0  0  0  0  0
  186.8110  175.3200  137.0040 C   0  0  0  0  0  2  0  0  0  0  0  0
  187.6120  175.3070  135.3740 S   0  0  0  0  0  0  0  0  0  0  0  0
  188.6440  173.4600  135.7390 S   0  0  0  0  0  0  0  0  0  0  0  0
  189.9840  174.5650  137.8070 O   0  0  0  0  0  0  0  0  0  0  0  0
  191.1090  176.2610  136.6800 O   0  0  0  0  0  0  0  0  0  0  0  0
  190.6520  175.3700  135.7200 C   0  0  2  0  0  3  0  0  0  0  0  0
  190.1660  174.1660  136.4830 C   0  0  2  0  0  3  0  0  0  0  0  0
  190.4130  175.9080  137.8490 C   0  0  2  0  0  3  0  0  0  0  0  0
  192.9270  176.0170  134.7810 C   0  0  0  0  0  2  0  0  0  0  0  0
  192.3020  173.7060  134.9870 N   0  0  0  0  0  2  0  0  0  0  0  0
  193.7030  173.7820  134.8300 N   0  0  0  0  0  2  0  0  0  0  0  0
  191.7730  175.0390  134.7240 C   0  0  1  0  0  3  0  0  0  0  0  0
  195.2860  175.5300  134.5030 N   0  0  0  0  0  1  0  0  0  0  0  0
  194.0700  175.1370  135.1970 C   0  0  1  0  0  3  0  0  0  0  0  0
  190.4410  176.1360  140.3330 C   0  0  0  0  0  2  0  0  0  0  0  0
  190.9700  177.4340  139.7780 C   0  0  0  0  0  0  0  0  0  0  0  0
  191.9890  178.0220  140.5260 O   0  0  0  0  0  1  0  0  0  0  0  0
  191.3010  176.1350  139.0670 C   0  0  2  0  0  3  0  0  0  0  0  0
  190.0020  178.2790  139.2290 O   0  0  0  0  0  1  0  0  0  0  0  0
  1  2  2  0  0  0  0
  1 18  1  0  0  0  0
  3  5  1  0  0  0  0
  3  2  1  1  0  0  0
  4  6  1  0  0  0  0
  4  3  1  0  0  0  0
  6  7  1  6  0  0  0
  6  5  1  0  0  0  0
  8 15  1  0  0  0  0
  8 10  1  0  0  0  0
  9 13  1  0  0  0  0
  9  7  1  0  0  0  0
 10  9  1  0  0  0  0
 11 14  1  1  0  0  0
 11 13  1  0  0  0  0
 12 15  1  0  0  0  0
 15 16  1  0  0  0  0
 15 11  1  0  0  0  0
 17 19  1  0  0  0  0
 18 17  2  0  0  0  0
 19 20  3  0  0  0  0
 20 21  1  0  0  0  0
 22 25  1  0  0  0  0
 23 21  1  1  0  0  0
 23 22  1  0  0  0  0
 23 24  1  0  0  0  0
 24 25  1  0  0  0  0
 24 28  1  1  0  0  0
 25 35  1  0  0  0  0
 25 26  1  1  0  0  0
 27 32  2  0  0  0  0
 28 31  1  6  0  0  0
 28 29  1  0  0  0  0
 29 30  1  0  0  0  0
 31 27  1  0  0  0  0
 32 30  1  0  0  0  0
 33 35  2  0  0  0  0
 35 34  1  0  0  0  0
 36  1  1  0  0  0  0
 37 36  1  0  0  0  0
 38 39  1  0  0  0  0
 38 37  1  0  0  0  0
 39 40  1  0  0  0  0
 41 42  1  0  0  0  0
 41 40  1  0  0  0  0
 43 47  1  0  0  0  0
 45 46  1  0  0  0  0
 45 44  1  1  0  0  0
 46 42  1  6  0  0  0
 46 43  1  0  0  0  0
 47 44  1  6  0  0  0
 47 57  1  0  0  0  0
 48 53  1  0  0  0  0
 50 49  1  0  0  0  0
 50 53  1  0  0  0  0
 51 48  1  1  0  0  0
 51 49  1  0  0  0  0
 51 45  1  0  0  0  0
 53 52  1  6  0  0  0
 55 54  1  0  0  0  0
 55 56  1  0  0  0  0
 57 55  1  0  0  0  0
 57 54  1  1  0  0  0
 58 55  1  0  0  0  0
M  END
>  <MODEL>
7

>  <REMARK>
 VINA RESULT:      -5.6      3.108      9.557
  Name = 
  19 active torsions:
  status: ('A' for Active; 'I' for Inactive)
    1  A    between atoms: C_1  and  C_27
    2  A    between atoms: C_1  and  C_32
    3  A    between atoms: C_5  and  C_21
    4  A    between atoms: C_6  and  C_14
    5  A    between atoms: N_7  and  C_18
    6  A    between atoms: C_8  and  C_17
    7  A    between atoms: C_12  and  O_15
    8  A    between atoms: C_12  and  C_27
    9  A    between atoms: S_13  and  C_43
   10  A    between atoms: S_13  and  S_47
   11  A    between atoms: O_15  and  C_17
   12  A    between atoms: C_16  and  C_46
   13  A    between atoms: C_18  and  C_39
   14  A    between atoms: C_24  and  C_46
   15  A    between atoms: C_26  and  C_33
   16  A    between atoms: C_29  and  C_54
   17  A    between atoms: C_32  and  S_47
   18  A    between atoms: C_40  and  C_44
   19  A    between atoms: C_48  and  C_49
                            x       y       z     vdW  Elec       q    Type
                         _______ _______ _______ _____ _____    ______ ____

>  <TORSDO>
F 19

$$$$
=
 OpenBabel10222422143D

 58 64  0  0  1  0  0  0  0  0999 V2000
  190.7290  176.8030  138.4600 C   0  0  0  0  0  0  0  0  0  0  0  0
  191.2100  176.8390  139.6950 C   0  0  0  0  0  3  0  0  0  0  0  0
  190.5740  177.6460  140.7790 C   0  0  1  0  0  3  0  0  0  0  0  0
  189.7720  176.5290  141.9600 S   0  0  0  0  0  0  0  0  0  0  0  0
  191.6050  178.1660  141.6610 N   0  0  0  0  0  2  0  0  0  0  0  0
  191.1970  177.3300  142.7800 C   0  0  1  0  0  3  0  0  0  0  0  0
  190.8260  178.2260  143.9760 C   0  0  0  0  0  2  0  0  0  0  0  0
  190.3790  176.3510  147.4610 S   0  0  0  0  0  0  0  0  0  0  0  0
  190.1650  177.4950  145.0500 N   0  0  0  0  0  0  0  0  0  0  0  0
  190.9930  177.5700  146.2460 C   0  0  0  0  0  2  0  0  0  0  0  0
  188.0580  177.3470  146.2670 C   0  0  2  0  0  3  0  0  0  0  0  0
  187.8700  176.1540  148.4600 C   0  0  0  0  0  1  0  0  0  0  0  0
  188.9370  178.2040  145.3630 C   0  0  0  0  0  2  0  0  0  0  0  0
  186.6990  178.0290  146.3950 C   0  0  0  0  0  1  0  0  0  0  0  0
  188.7260  177.1110  147.6450 C   0  0  0  0  0  0  0  0  0  0  0  0
  188.8780  178.4090  148.4260 C   0  0  0  0  0  1  0  0  0  0  0  0
  191.4510  174.6500  137.5130 C   0  0  0  0  0  3  0  0  0  0  0  0
  191.4510  175.9690  137.4890 C   0  0  0  0  0  3  0  0  0  0  0  0
  192.2150  173.9330  136.5380 C   0  0  0  0  0  0  0  0  0  0  0  0
  192.8460  173.3420  135.6960 C   0  0  0  0  0  0  0  0  0  0  0  0
  193.6090  172.6720  134.6410 C   0  0  0  0  0  2  0  0  0  0  0  0
  194.9700  174.7000  135.2550 C   0  0  0  0  0  2  0  0  0  0  0  0
  194.9130  173.4340  134.3990 C   0  0  1  0  0  3  0  0  0  0  0  0
  196.1500  172.8880  135.1350 C   0  0  1  0  0  3  0  0  0  0  0  0
  196.1950  174.1750  135.9730 C   0  0  2  0  0  0  0  0  0  0  0  0
  195.9470  174.0010  137.3340 O   0  0  0  0  0  1  0  0  0  0  0  0
  195.9400  169.0730  135.6120 C   0  0  0  0  0  3  0  0  0  0  0  0
  195.9580  171.5800  135.9180 C   0  0  2  0  0  3  0  0  0  0  0  0
  197.1610  171.3230  136.8210 C   0  0  0  0  0  2  0  0  0  0  0  0
  196.8870  170.0930  137.6760 C   0  0  0  0  0  2  0  0  0  0  0  0
  195.8680  170.4150  134.9290 C   0  0  0  0  0  2  0  0  0  0  0  0
  196.4500  168.9180  136.8400 C   0  0  0  0  0  3  0  0  0  0  0  0
  198.4530  174.4910  134.9330 O   0  0  0  0  0  0  0  0  0  0  0  0
  197.5300  176.1510  136.2160 O   0  0  0  0  0  1  0  0  0  0  0  0
  197.4170  175.0010  135.7120 C   0  0  0  0  0  0  0  0  0  0  0  0
  189.5680  177.5400  138.1540 O   0  0  0  0  0  0  0  0  0  0  0  0
  188.2530  177.0210  138.2770 C   0  0  0  0  0  2  0  0  0  0  0  0
  187.4920  177.2640  136.9930 C   0  0  0  0  0  2  0  0  0  0  0  0
  186.4070  176.2160  136.8610 C   0  0  0  0  0  2  0  0  0  0  0  0
  185.7640  176.2900  135.4910 C   0  0  0  0  0  2  0  0  0  0  0  0
  184.0650  176.8990  135.6860 S   0  0  0  0  0  0  0  0  0  0  0  0
  183.8110  175.9870  137.6140 S   0  0  0  0  0  0  0  0  0  0  0  0
  184.5690  177.8230  139.4430 O   0  0  0  0  0  0  0  0  0  0  0  0
  182.5710  178.0550  140.6130 O   0  0  0  0  0  0  0  0  0  0  0  0
  182.2700  177.4210  139.4170 C   0  0  2  0  0  3  0  0  0  0  0  0
  183.5170  177.5200  138.5790 C   0  0  2  0  0  3  0  0  0  0  0  0
  183.9710  177.9740  140.7120 C   0  0  2  0  0  3  0  0  0  0  0  0
  181.3160  179.4930  138.2900 C   0  0  0  0  0  2  0  0  0  0  0  0
  180.6180  177.2990  137.6040 N   0  0  0  0  0  2  0  0  0  0  0  0
  180.2660  178.2200  136.5930 N   0  0  0  0  0  2  0  0  0  0  0  0
  181.0490  178.0790  138.7580 C   0  0  1  0  0  3  0  0  0  0  0  0
  180.4490  180.5750  136.3000 N   0  0  0  0  0  1  0  0  0  0  0  0
  181.1080  179.3820  136.8060 C   0  0  1  0  0  3  0  0  0  0  0  0
  185.9930  179.0220  141.7300 C   0  0  0  0  0  2  0  0  0  0  0  0
  184.9560  178.9420  142.8220 C   0  0  0  0  0  0  0  0  0  0  0  0
  184.9530  180.0170  143.7090 O   0  0  0  0  0  1  0  0  0  0  0  0
  184.5120  179.2230  141.3990 C   0  0  2  0  0  3  0  0  0  0  0  0
  184.7580  177.6650  143.3540 O   0  0  0  0  0  1  0  0  0  0  0  0
  1  2  2  0  0  0  0
  3  2  1  6  0  0  0
  3  5  1  0  0  0  0
  3  4  1  0  0  0  0
  4  6  1  0  0  0  0
  5  6  1  0  0  0  0
  6  7  1  1  0  0  0
  7  9  1  0  0  0  0
  8 15  1  0  0  0  0
  9 13  1  0  0  0  0
  9 10  1  0  0  0  0
 10  8  1  0  0  0  0
 11 14  1  1  0  0  0
 11 15  1  0  0  0  0
 13 11  1  0  0  0  0
 15 16  1  0  0  0  0
 15 12  1  0  0  0  0
 18 17  2  0  0  0  0
 18  1  1  0  0  0  0
 19 17  1  0  0  0  0
 20 19  3  0  0  0  0
 21 20  1  0  0  0  0
 22 25  1  0  0  0  0
 23 21  1  1  0  0  0
 23 24  1  0  0  0  0
 23 22  1  0  0  0  0
 24 28  1  1  0  0  0
 24 25  1  0  0  0  0
 25 26  1  1  0  0  0
 27 32  2  0  0  0  0
 28 31  1  6  0  0  0
 28 29  1  0  0  0  0
 29 30  1  0  0  0  0
 31 27  1  0  0  0  0
 32 30  1  0  0  0  0
 33 35  2  0  0  0  0
 35 25  1  0  0  0  0
 35 34  1  0  0  0  0
 36 37  1  0  0  0  0
 36  1  1  0  0  0  0
 38 37  1  0  0  0  0
 39 38  1  0  0  0  0
 40 41  1  0  0  0  0
 40 39  1  0  0  0  0
 41 42  1  0  0  0  0
 44 47  1  0  0  0  0
 45 44  1  1  0  0  0
 46 42  1  1  0  0  0
 46 45  1  0  0  0  0
 46 43  1  0  0  0  0
 47 43  1  6  0  0  0
 47 57  1  0  0  0  0
 49 51  1  0  0  0  0
 50 53  1  0  0  0  0
 50 49  1  0  0  0  0
 51 48  1  6  0  0  0
 51 45  1  0  0  0  0
 53 52  1  1  0  0  0
 53 48  1  0  0  0  0
 54 55  1  0  0  0  0
 55 58  1  0  0  0  0
 55 56  1  0  0  0  0
 57 54  1  6  0  0  0
 57 55  1  0  0  0  0
M  END
>  <MODEL>
8

>  <REMARK>
 VINA RESULT:      -5.6      3.218      9.528
  Name = 
  19 active torsions:
  status: ('A' for Active; 'I' for Inactive)
    1  A    between atoms: C_1  and  C_27
    2  A    between atoms: C_1  and  C_32
    3  A    between atoms: C_5  and  C_21
    4  A    between atoms: C_6  and  C_14
    5  A    between atoms: N_7  and  C_18
    6  A    between atoms: C_8  and  C_17
    7  A    between atoms: C_12  and  O_15
    8  A    between atoms: C_12  and  C_27
    9  A    between atoms: S_13  and  C_43
   10  A    between atoms: S_13  and  S_47
   11  A    between atoms: O_15  and  C_17
   12  A    between atoms: C_16  and  C_46
   13  A    between atoms: C_18  and  C_39
   14  A    between atoms: C_24  and  C_46
   15  A    between atoms: C_26  and  C_33
   16  A    between atoms: C_29  and  C_54
   17  A    between atoms: C_32  and  S_47
   18  A    between atoms: C_40  and  C_44
   19  A    between atoms: C_48  and  C_49
                            x       y       z     vdW  Elec       q    Type
                         _______ _______ _______ _____ _____    ______ ____

>  <TORSDO>
F 19

$$$$
=
 OpenBabel10222422143D

 58 64  0  0  1  0  0  0  0  0999 V2000
  191.2360  175.5350  136.4240 C   0  0  0  0  0  0  0  0  0  0  0  0
  192.2280  175.0480  135.6910 C   0  0  0  0  0  3  0  0  0  0  0  0
  193.6150  175.5970  135.7540 C   0  0  1  0  0  3  0  0  0  0  0  0
  194.5160  174.7840  137.1010 S   0  0  0  0  0  0  0  0  0  0  0  0
  194.3930  175.0700  134.6450 N   0  0  0  0  0  2  0  0  0  0  0  0
  195.2470  174.2660  135.5070 C   0  0  1  0  0  3  0  0  0  0  0  0
  196.7140  174.6890  135.3080 C   0  0  0  0  0  2  0  0  0  0  0  0
  200.0740  172.5550  135.4370 S   0  0  0  0  0  0  0  0  0  0  0  0
  197.6110  173.5550  135.1190 N   0  0  0  0  0  0  0  0  0  0  0  0
  198.7910  173.7480  135.9520 C   0  0  0  0  0  2  0  0  0  0  0  0
  197.6860  171.1210  135.2190 C   0  0  2  0  0  3  0  0  0  0  0  0
  199.8470  169.8590  135.3070 C   0  0  0  0  0  1  0  0  0  0  0  0
  196.9360  172.3800  135.6410 C   0  0  0  0  0  2  0  0  0  0  0  0
  196.8360  169.9110  135.5970 C   0  0  0  0  0  1  0  0  0  0  0  0
  199.0980  171.0650  135.8530 C   0  0  0  0  0  0  0  0  0  0  0  0
  199.0290  170.9450  137.3700 C   0  0  0  0  0  1  0  0  0  0  0  0
  189.3770  174.1050  137.1650 C   0  0  0  0  0  3  0  0  0  0  0  0
  189.9190  174.9040  136.2660 C   0  0  0  0  0  3  0  0  0  0  0  0
  188.1000  173.5160  136.8960 C   0  0  0  0  0  0  0  0  0  0  0  0
  187.0350  173.0030  136.6530 C   0  0  0  0  0  0  0  0  0  0  0  0
  185.7710  172.3300  136.3490 C   0  0  0  0  0  2  0  0  0  0  0  0
  184.2650  174.3030  136.7740 C   0  0  0  0  0  2  0  0  0  0  0  0
  184.6680  172.9050  137.2400 C   0  0  1  0  0  3  0  0  0  0  0  0
  183.2440  172.4020  136.9430 C   0  0  1  0  0  3  0  0  0  0  0  0
  182.8590  173.8190  136.4930 C   0  0  2  0  0  0  0  0  0  0  0  0
  182.5420  173.9420  135.1400 O   0  0  0  0  0  1  0  0  0  0  0  0
  183.3990  168.8080  135.5690 C   0  0  0  0  0  3  0  0  0  0  0  0
  183.1150  171.2990  135.8820 C   0  0  2  0  0  3  0  0  0  0  0  0
  181.6450  171.0310  135.5730 C   0  0  0  0  0  2  0  0  0  0  0  0
  181.5510  170.0290  134.4310 C   0  0  0  0  0  2  0  0  0  0  0  0
  183.7120  170.0020  136.4350 C   0  0  0  0  0  2  0  0  0  0  0  0
  182.3840  168.8010  134.6950 C   0  0  0  0  0  3  0  0  0  0  0  0
  182.2170  174.9930  138.6120 O   0  0  0  0  0  1  0  0  0  0  0  0
  180.6250  174.4960  137.0400 O   0  0  0  0  0  0  0  0  0  0  0  0
  181.8380  174.4590  137.3830 C   0  0  0  0  0  0  0  0  0  0  0  0
  191.4970  176.6010  137.3070 O   0  0  0  0  0  0  0  0  0  0  0  0
  191.6250  176.4440  138.7120 C   0  0  0  0  0  2  0  0  0  0  0  0
  190.5800  177.2840  139.4110 C   0  0  0  0  0  2  0  0  0  0  0  0
  190.8660  177.2850  140.8980 C   0  0  0  0  0  2  0  0  0  0  0  0
  189.5740  177.3570  141.6860 C   0  0  0  0  0  2  0  0  0  0  0  0
  188.2670  177.9780  140.5890 S   0  0  0  0  0  0  0  0  0  0  0  0
  187.4000  179.2320  142.1020 S   0  0  0  0  0  0  0  0  0  0  0  0
  185.0080  178.3590  141.2010 O   0  0  0  0  0  0  0  0  0  0  0  0
  183.7060  178.7820  143.0830 O   0  0  0  0  0  0  0  0  0  0  0  0
  185.0310  178.8350  143.4870 C   0  0  2  0  0  3  0  0  0  0  0  0
  185.8310  178.3050  142.3260 C   0  0  2  0  0  3  0  0  0  0  0  0
  183.7630  178.8190  141.6790 C   0  0  2  0  0  3  0  0  0  0  0  0
  186.6390  177.4950  144.9340 C   0  0  0  0  0  2  0  0  0  0  0  0
  184.9240  178.8430  145.9400 N   0  0  0  0  0  2  0  0  0  0  0  0
  185.8930  178.5400  146.9210 N   0  0  0  0  0  2  0  0  0  0  0  0
  185.2300  178.0220  144.7740 C   0  0  1  0  0  3  0  0  0  0  0  0
  187.9050  177.2690  146.9900 N   0  0  0  0  0  1  0  0  0  0  0  0
  187.0940  178.1750  146.1930 C   0  0  1  0  0  3  0  0  0  0  0  0
  181.8970  178.7850  140.0240 C   0  0  0  0  0  2  0  0  0  0  0  0
  181.2710  178.5760  141.3800 C   0  0  0  0  0  0  0  0  0  0  0  0
  180.1870  177.6990  141.3980 O   0  0  0  0  0  1  0  0  0  0  0  0
  182.6350  177.9770  141.0940 C   0  0  2  0  0  3  0  0  0  0  0  0
  181.1870  179.7230  142.1740 O   0  0  0  0  0  1  0  0  0  0  0  0
  1 36  1  0  0  0  0
  2  1  2  0  0  0  0
  3  2  1  6  0  0  0
  3  4  1  0  0  0  0
  5  6  1  0  0  0  0
  5  3  1  0  0  0  0
  6  7  1  1  0  0  0
  6  4  1  0  0  0  0
  8 15  1  0  0  0  0
  8 10  1  0  0  0  0
  9  7  1  0  0  0  0
  9 13  1  0  0  0  0
  9 10  1  0  0  0  0
 11 14  1  1  0  0  0
 11 13  1  0  0  0  0
 11 15  1  0  0  0  0
 12 15  1  0  0  0  0
 15 16  1  0  0  0  0
 18  1  1  0  0  0  0
 18 17  2  0  0  0  0
 19 17  1  0  0  0  0
 20 19  3  0  0  0  0
 21 20  1  0  0  0  0
 22 23  1  0  0  0  0
 23 21  1  6  0  0  0
 24 28  1  6  0  0  0
 24 23  1  0  0  0  0
 25 26  1  6  0  0  0
 25 22  1  0  0  0  0
 25 24  1  0  0  0  0
 25 35  1  0  0  0  0
 27 31  1  0  0  0  0
 28 29  1  1  0  0  0
 28 31  1  0  0  0  0
 30 32  1  0  0  0  0
 30 29  1  0  0  0  0
 32 27  2  0  0  0  0
 34 35  2  0  0  0  0
 35 33  1  0  0  0  0
 36 37  1  0  0  0  0
 37 38  1  0  0  0  0
 38 39  1  0  0  0  0
 39 40  1  0  0  0  0
 41 40  1  0  0  0  0
 41 42  1  0  0  0  0
 43 46  1  0  0  0  0
 45 44  1  6  0  0  0
 45 51  1  0  0  0  0
 46 42  1  6  0  0  0
 46 45  1  0  0  0  0
 47 43  1  1  0  0  0
 47 44  1  0  0  0  0
 48 53  1  0  0  0  0
 49 50  1  0  0  0  0
 51 48  1  1  0  0  0
 51 49  1  0  0  0  0
 53 50  1  0  0  0  0
 53 52  1  1  0  0  0
 54 55  1  0  0  0  0
 55 56  1  0  0  0  0
 55 58  1  0  0  0  0
 57 54  1  6  0  0  0
 57 55  1  0  0  0  0
 57 47  1  0  0  0  0
M  END
>  <MODEL>
9

>  <REMARK>
 VINA RESULT:      -5.4      4.168      8.120
  Name = 
  19 active torsions:
  status: ('A' for Active; 'I' for Inactive)
    1  A    between atoms: C_1  and  C_27
    2  A    between atoms: C_1  and  C_32
    3  A    between atoms: C_5  and  C_21
    4  A    between atoms: C_6  and  C_14
    5  A    between atoms: N_7  and  C_18
    6  A    between atoms: C_8  and  C_17
    7  A    between atoms: C_12  and  O_15
    8  A    between atoms: C_12  and  C_27
    9  A    between atoms: S_13  and  C_43
   10  A    between atoms: S_13  and  S_47
   11  A    between atoms: O_15  and  C_17
   12  A    between atoms: C_16  and  C_46
   13  A    between atoms: C_18  and  C_39
   14  A    between atoms: C_24  and  C_46
   15  A    between atoms: C_26  and  C_33
   16  A    between atoms: C_29  and  C_54
   17  A    between atoms: C_32  and  S_47
   18  A    between atoms: C_40  and  C_44
   19  A    between atoms: C_48  and  C_49
                            x       y       z     vdW  Elec       q    Type
                         _______ _______ _______ _____ _____    ______ ____

>  <TORSDO>
F 19

$$$$
