=
 OpenBabel10232408153D

 32 35  0  0  1  0  0  0  0  0999 V2000
  190.4300  175.9220  142.2920 O   0  0  0  0  0  1  0  0  0  0  0  0
  189.7260  177.4170  140.5150 C   0  0  0  0  0  0  0  0  0  0  0  0
  188.8080  178.3760  140.0390 C   0  0  0  0  0  0  0  0  0  0  0  0
  189.0170  179.0320  138.8310 O   0  0  0  0  0  1  0  0  0  0  0  0
  189.4780  176.7810  141.7500 C   0  0  0  0  0  0  0  0  0  0  0  0
  188.2880  177.0530  142.4610 C   0  0  0  0  0  0  0  0  0  0  0  0
  187.6600  178.6730  140.7740 C   0  0  0  0  0  3  0  0  0  0  0  0
  187.4020  178.0150  141.9750 C   0  0  0  0  0  3  0  0  0  0  0  0
  190.8430  176.2990  138.5440 N   0  0  0  0  0  0  0  0  0  0  0  0
  191.4450  175.6070  137.3770 C   0  0  2  0  0  0  0  0  0  0  0  0
  191.9600  176.5130  136.4510 O   0  0  0  0  0  1  0  0  0  0  0  0
  190.9370  177.0900  139.7280 C   0  0  0  0  0  0  0  0  0  0  0  0
  190.0760  175.5520  137.4940 C   0  0  0  0  0  2  0  0  0  0  0  0
  192.0630  177.5290  140.0840 O   0  0  0  0  0  0  0  0  0  0  0  0
  192.2890  174.4090  137.7840 C   0  0  0  0  0  2  0  0  0  0  0  0
  194.1450  173.1690  136.6340 C   0  0  0  0  0  1  0  0  0  0  0  0
  193.7000  174.5040  137.2090 C   0  0  2  0  0  3  0  0  0  0  0  0
  194.6680  175.0260  138.1780 N   0  0  0  0  0  2  0  0  0  0  0  0
  195.4440  173.9420  138.7730 C   0  0  0  0  0  2  0  0  0  0  0  0
  196.9080  175.1230  140.3760 C   0  0  0  0  0  1  0  0  0  0  0  0
  196.8560  174.4170  139.0390 C   0  0  0  0  0  2  0  0  0  0  0  0
  187.9710  176.4080  143.7050 N   0  0  0  0  0  2  0  0  0  0  0  0
  188.1710  178.1670  147.9220 C   0  0  0  0  0  3  0  0  0  0  0  0
  188.2110  176.9230  145.0240 C   0  0  0  0  0  0  0  0  0  0  0  0
  185.9670  178.6700  147.2800 O   0  0  0  0  0  0  0  0  0  0  0  0
  187.2050  178.1240  147.0170 C   0  0  0  0  0  0  0  0  0  0  0  0
  187.2180  177.5540  145.6830 C   0  0  0  0  0  0  0  0  0  0  0  0
  185.0740  178.5220  146.1890 C   0  0  0  0  0  3  0  0  0  0  0  0
  189.5150  176.7530  145.5080 O   0  0  0  0  0  0  0  0  0  0  0  0
  190.0880  177.0530  146.7470 C   0  0  0  0  0  3  0  0  0  0  0  0
  189.5280  177.6510  147.7930 C   0  0  0  0  0  3  0  0  0  0  0  0
  185.8690  177.8170  145.0880 C   0  0  0  0  0  3  0  0  0  0  0  0
  2  5  1  0  0  0  0
  3  2  2  0  0  0  0
  3  7  1  0  0  0  0
  4  3  1  0  0  0  0
  5  1  1  0  0  0  0
  5  6  2  0  0  0  0
  6 22  1  0  0  0  0
  7  8  2  0  0  0  0
  8  6  1  0  0  0  0
  9 12  1  0  0  0  0
 10 11  1  6  0  0  0
 10 13  1  0  0  0  0
 10 15  1  0  0  0  0
 10  9  1  0  0  0  0
 12 14  2  0  0  0  0
 12  2  1  0  0  0  0
 13  9  1  0  0  0  0
 17 16  1  1  0  0  0
 17 15  1  0  0  0  0
 17 18  1  0  0  0  0
 18 19  1  0  0  0  0
 19 21  1  0  0  0  0
 21 20  1  0  0  0  0
 22 24  1  0  0  0  0
 24 29  1  0  0  0  0
 24 27  2  0  0  0  0
 26 25  1  0  0  0  0
 26 23  2  0  0  0  0
 27 26  1  0  0  0  0
 28 25  1  0  0  0  0
 29 30  1  0  0  0  0
 30 31  2  0  0  0  0
 31 23  1  0  0  0  0
 32 27  1  0  0  0  0
 32 28  2  0  0  0  0
M  END
>  <MODEL>
1

>  <REMARK>
 VINA RESULT:      -8.6      0.000      0.000
  Name = 
  8 active torsions:
  status: ('A' for Active; 'I' for Inactive)
    1  A    between atoms: N_1  and  C_13
    2  A    between atoms: N_1  and  C_30
    3  A    between atoms: C_3  and  C_8
    4  A    between atoms: C_3  and  C_30
    5  A    between atoms: C_5  and  C_22
    6  A    between atoms: C_10  and  N_24
    7  A    between atoms: C_13  and  C_23
    8  A    between atoms: C_21  and  N_24
                            x       y       z     vdW  Elec       q    Type
                         _______ _______ _______ _____ _____    ______ ____

>  <TORSDO>
F 8

$$$$
=
 OpenBabel10232408153D

 32 35  0  0  1  0  0  0  0  0999 V2000
  189.8230  177.2800  141.3310 O   0  0  0  0  0  1  0  0  0  0  0  0
  187.7540  178.1700  140.4260 C   0  0  0  0  0  0  0  0  0  0  0  0
  186.4330  178.6080  140.6460 C   0  0  0  0  0  0  0  0  0  0  0  0
  185.6840  179.1730  139.6210 O   0  0  0  0  0  1  0  0  0  0  0  0
  188.4810  177.6080  141.4980 C   0  0  0  0  0  0  0  0  0  0  0  0
  187.8620  177.4260  142.7540 C   0  0  0  0  0  0  0  0  0  0  0  0
  185.8480  178.4680  141.9050 C   0  0  0  0  0  3  0  0  0  0  0  0
  186.5580  177.8800  142.9500 C   0  0  0  0  0  3  0  0  0  0  0  0
  188.1800  177.2960  138.0940 N   0  0  0  0  0  0  0  0  0  0  0  0
  188.4090  176.7250  136.7430 C   0  0  2  0  0  0  0  0  0  0  0  0
  187.7970  177.4890  135.7510 O   0  0  0  0  0  1  0  0  0  0  0  0
  188.3710  178.3040  139.0860 C   0  0  0  0  0  0  0  0  0  0  0  0
  187.5770  176.0210  137.5830 C   0  0  0  0  0  2  0  0  0  0  0  0
  189.0510  179.3240  138.8000 O   0  0  0  0  0  0  0  0  0  0  0  0
  189.8450  176.2670  136.5420 C   0  0  0  0  0  2  0  0  0  0  0  0
  191.6590  176.3620  138.2760 C   0  0  0  0  0  1  0  0  0  0  0  0
  190.4080  175.6320  137.8110 C   0  0  2  0  0  3  0  0  0  0  0  0
  190.6450  174.1930  137.6620 N   0  0  0  0  0  2  0  0  0  0  0  0
  190.9500  173.8570  136.2740 C   0  0  0  0  0  2  0  0  0  0  0  0
  193.3670  174.1170  135.8310 C   0  0  0  0  0  1  0  0  0  0  0  0
  192.2790  173.1360  136.2090 C   0  0  0  0  0  2  0  0  0  0  0  0
  188.5450  176.8290  143.8690 N   0  0  0  0  0  2  0  0  0  0  0  0
  188.7580  177.9650  148.2940 C   0  0  0  0  0  3  0  0  0  0  0  0
  188.4330  177.2120  145.2480 C   0  0  0  0  0  0  0  0  0  0  0  0
  190.9340  177.1810  147.8790 O   0  0  0  0  0  0  0  0  0  0  0  0
  189.6500  177.4560  147.4580 C   0  0  0  0  0  0  0  0  0  0  0  0
  189.5060  177.1070  146.0580 C   0  0  0  0  0  0  0  0  0  0  0  0
  191.7340  176.6430  146.8400 C   0  0  0  0  0  3  0  0  0  0  0  0
  187.1600  177.6380  145.6530 O   0  0  0  0  0  0  0  0  0  0  0  0
  186.6990  178.1440  146.8720 C   0  0  0  0  0  3  0  0  0  0  0  0
  187.3670  178.2980  148.0090 C   0  0  0  0  0  3  0  0  0  0  0  0
  190.8200  176.5420  145.6160 C   0  0  0  0  0  3  0  0  0  0  0  0
  1  5  1  0  0  0  0
  2  3  2  0  0  0  0
  2  5  1  0  0  0  0
  3  7  1  0  0  0  0
  4  3  1  0  0  0  0
  5  6  2  0  0  0  0
  6  8  1  0  0  0  0
  6 22  1  0  0  0  0
  7  8  2  0  0  0  0
  9 12  1  0  0  0  0
 10 11  1  6  0  0  0
 10 13  1  0  0  0  0
 10  9  1  0  0  0  0
 12  2  1  0  0  0  0
 13  9  1  0  0  0  0
 14 12  2  0  0  0  0
 15 10  1  0  0  0  0
 15 17  1  0  0  0  0
 17 16  1  6  0  0  0
 18 17  1  0  0  0  0
 19 18  1  0  0  0  0
 20 21  1  0  0  0  0
 21 19  1  0  0  0  0
 22 24  1  0  0  0  0
 24 29  1  0  0  0  0
 24 27  2  0  0  0  0
 26 25  1  0  0  0  0
 26 23  2  0  0  0  0
 27 26  1  0  0  0  0
 28 25  1  0  0  0  0
 29 30  1  0  0  0  0
 30 31  2  0  0  0  0
 31 23  1  0  0  0  0
 32 27  1  0  0  0  0
 32 28  2  0  0  0  0
M  END
>  <MODEL>
2

>  <REMARK>
 VINA RESULT:      -8.2      2.260      3.496
  Name = 
  8 active torsions:
  status: ('A' for Active; 'I' for Inactive)
    1  A    between atoms: N_1  and  C_13
    2  A    between atoms: N_1  and  C_30
    3  A    between atoms: C_3  and  C_8
    4  A    between atoms: C_3  and  C_30
    5  A    between atoms: C_5  and  C_22
    6  A    between atoms: C_10  and  N_24
    7  A    between atoms: C_13  and  C_23
    8  A    between atoms: C_21  and  N_24
                            x       y       z     vdW  Elec       q    Type
                         _______ _______ _______ _____ _____    ______ ____

>  <TORSDO>
F 8

$$$$
=
 OpenBabel10232408153D

 32 35  0  0  1  0  0  0  0  0999 V2000
  187.1120  178.5590  140.8710 O   0  0  0  0  0  1  0  0  0  0  0  0
  184.7210  178.6920  141.2690 C   0  0  0  0  0  0  0  0  0  0  0  0
  183.6520  178.7100  142.1880 C   0  0  0  0  0  0  0  0  0  0  0  0
  182.3470  178.9390  141.7650 O   0  0  0  0  0  1  0  0  0  0  0  0
  186.0310  178.4630  141.7440 C   0  0  0  0  0  0  0  0  0  0  0  0
  186.2510  178.1840  143.1100 C   0  0  0  0  0  0  0  0  0  0  0  0
  183.8870  178.4830  143.5440 C   0  0  0  0  0  3  0  0  0  0  0  0
  185.1780  178.2210  144.0000 C   0  0  0  0  0  3  0  0  0  0  0  0
  183.9820  177.8620  139.0010 N   0  0  0  0  0  0  0  0  0  0  0  0
  183.5530  177.3130  137.6900 C   0  0  2  0  0  0  0  0  0  0  0  0
  182.3600  177.8910  137.2560 O   0  0  0  0  0  1  0  0  0  0  0  0
  184.4710  178.9170  139.8270 C   0  0  0  0  0  0  0  0  0  0  0  0
  183.4740  176.4690  138.7740 C   0  0  0  0  0  2  0  0  0  0  0  0
  184.6620  180.0540  139.3200 O   0  0  0  0  0  0  0  0  0  0  0  0
  184.7070  177.1800  136.7100 C   0  0  0  0  0  2  0  0  0  0  0  0
  186.8800  178.3850  137.0770 C   0  0  0  0  0  1  0  0  0  0  0  0
  186.0510  177.1610  137.4350 C   0  0  2  0  0  3  0  0  0  0  0  0
  186.7950  175.9180  137.2080 N   0  0  0  0  0  2  0  0  0  0  0  0
  185.9510  174.9190  136.5590 C   0  0  0  0  0  2  0  0  0  0  0  0
  184.9200  173.0220  137.7610 C   0  0  0  0  0  1  0  0  0  0  0  0
  186.2080  173.5620  137.1780 C   0  0  0  0  0  2  0  0  0  0  0  0
  187.5590  177.9110  143.6390 N   0  0  0  0  0  2  0  0  0  0  0  0
  189.2530  177.5240  147.8700 C   0  0  0  0  0  3  0  0  0  0  0  0
  187.9220  177.8220  145.0260 C   0  0  0  0  0  0  0  0  0  0  0  0
  191.0750  176.8590  146.5440 O   0  0  0  0  0  0  0  0  0  0  0  0
  189.7730  177.2930  146.6740 C   0  0  0  0  0  0  0  0  0  0  0  0
  189.1660  177.4280  145.3640 C   0  0  0  0  0  0  0  0  0  0  0  0
  191.4440  176.6710  145.1880 C   0  0  0  0  0  3  0  0  0  0  0  0
  186.9010  178.1270  145.9360 O   0  0  0  0  0  0  0  0  0  0  0  0
  186.9020  178.2170  147.3310 C   0  0  0  0  0  3  0  0  0  0  0  0
  187.8990  177.9700  148.1740 C   0  0  0  0  0  3  0  0  0  0  0  0
  190.1970  177.0020  144.3640 C   0  0  0  0  0  3  0  0  0  0  0  0
  1  5  1  0  0  0  0
  2  5  2  0  0  0  0
  2  3  1  0  0  0  0
  3  7  2  0  0  0  0
  4  3  1  0  0  0  0
  5  6  1  0  0  0  0
  6 22  1  0  0  0  0
  6  8  2  0  0  0  0
  7  8  1  0  0  0  0
  9 12  1  0  0  0  0
 10 11  1  6  0  0  0
 10 13  1  0  0  0  0
 10  9  1  0  0  0  0
 12  2  1  0  0  0  0
 13  9  1  0  0  0  0
 14 12  2  0  0  0  0
 15 17  1  0  0  0  0
 15 10  1  0  0  0  0
 17 16  1  6  0  0  0
 18 17  1  0  0  0  0
 19 21  1  0  0  0  0
 19 18  1  0  0  0  0
 21 20  1  0  0  0  0
 22 24  1  0  0  0  0
 23 31  1  0  0  0  0
 24 27  2  0  0  0  0
 24 29  1  0  0  0  0
 25 26  1  0  0  0  0
 26 23  2  0  0  0  0
 27 26  1  0  0  0  0
 28 25  1  0  0  0  0
 29 30  1  0  0  0  0
 30 31  2  0  0  0  0
 32 28  2  0  0  0  0
 32 27  1  0  0  0  0
M  END
>  <MODEL>
3

>  <REMARK>
 VINA RESULT:      -8.1      4.560      6.435
  Name = 
  8 active torsions:
  status: ('A' for Active; 'I' for Inactive)
    1  A    between atoms: N_1  and  C_13
    2  A    between atoms: N_1  and  C_30
    3  A    between atoms: C_3  and  C_8
    4  A    between atoms: C_3  and  C_30
    5  A    between atoms: C_5  and  C_22
    6  A    between atoms: C_10  and  N_24
    7  A    between atoms: C_13  and  C_23
    8  A    between atoms: C_21  and  N_24
                            x       y       z     vdW  Elec       q    Type
                         _______ _______ _______ _____ _____    ______ ____

>  <TORSDO>
F 8

$$$$
=
 OpenBabel10232408153D

 32 35  0  0  1  0  0  0  0  0999 V2000
  188.5100  178.9060  140.3860 O   0  0  0  0  0  1  0  0  0  0  0  0
  189.8100  177.0480  139.5210 C   0  0  0  0  0  0  0  0  0  0  0  0
  190.0360  176.1120  138.4920 C   0  0  0  0  0  0  0  0  0  0  0  0
  191.1360  175.2620  138.5250 O   0  0  0  0  0  1  0  0  0  0  0  0
  188.6840  177.8970  139.4430 C   0  0  0  0  0  0  0  0  0  0  0  0
  187.7630  177.7560  138.3830 C   0  0  0  0  0  0  0  0  0  0  0  0
  189.1450  176.0150  137.4230 C   0  0  0  0  0  3  0  0  0  0  0  0
  188.0170  176.8310  137.3700 C   0  0  0  0  0  3  0  0  0  0  0  0
  190.3610  176.6790  141.9580 N   0  0  0  0  0  0  0  0  0  0  0  0
  190.6220  176.4530  143.4020 C   0  0  2  0  0  0  0  0  0  0  0  0
  191.6010  175.4800  143.6020 O   0  0  0  0  0  1  0  0  0  0  0  0
  190.7460  177.1410  140.6650 C   0  0  0  0  0  0  0  0  0  0  0  0
  189.4110  176.0210  142.9140 C   0  0  0  0  0  2  0  0  0  0  0  0
  191.9050  177.6070  140.5000 O   0  0  0  0  0  0  0  0  0  0  0  0
  190.7020  177.7520  144.1890 C   0  0  0  0  0  2  0  0  0  0  0  0
  191.2680  176.7530  146.4220 C   0  0  0  0  0  1  0  0  0  0  0  0
  190.2450  177.5550  145.6320 C   0  0  2  0  0  3  0  0  0  0  0  0
  188.9070  176.9630  145.7230 N   0  0  0  0  0  2  0  0  0  0  0  0
  188.0900  177.6710  146.7040 C   0  0  0  0  0  2  0  0  0  0  0  0
  186.6220  177.7010  144.7160 C   0  0  0  0  0  1  0  0  0  0  0  0
  186.6540  177.7140  146.2290 C   0  0  0  0  0  2  0  0  0  0  0  0
  186.5850  178.5710  138.2740 N   0  0  0  0  0  2  0  0  0  0  0  0
  182.5330  177.7940  140.2490 C   0  0  0  0  0  3  0  0  0  0  0  0
  185.3720  178.4310  139.0300 C   0  0  0  0  0  0  0  0  0  0  0  0
  182.2330  176.8520  138.1170 O   0  0  0  0  0  0  0  0  0  0  0  0
  183.0090  177.5150  139.0440 C   0  0  0  0  0  0  0  0  0  0  0  0
  184.3120  177.8050  138.4790 C   0  0  0  0  0  0  0  0  0  0  0  0
  182.9210  176.6470  136.8930 C   0  0  0  0  0  3  0  0  0  0  0  0
  185.3870  179.0130  140.3050 O   0  0  0  0  0  0  0  0  0  0  0  0
  184.4380  179.0150  141.3320 C   0  0  0  0  0  3  0  0  0  0  0  0
  183.2160  178.4950  141.3290 C   0  0  0  0  0  3  0  0  0  0  0  0
  184.2960  177.2950  137.0710 C   0  0  0  0  0  3  0  0  0  0  0  0
  2 12  1  0  0  0  0
  3  4  1  0  0  0  0
  3  2  2  0  0  0  0
  5  2  1  0  0  0  0
  5  1  1  0  0  0  0
  6  5  2  0  0  0  0
  7  3  1  0  0  0  0
  8  7  2  0  0  0  0
  8  6  1  0  0  0  0
  9 13  1  0  0  0  0
  9 10  1  0  0  0  0
 10 11  1  1  0  0  0
 10 15  1  0  0  0  0
 12  9  1  0  0  0  0
 13 10  1  0  0  0  0
 14 12  2  0  0  0  0
 15 17  1  0  0  0  0
 17 18  1  0  0  0  0
 17 16  1  1  0  0  0
 18 19  1  0  0  0  0
 20 21  1  0  0  0  0
 21 19  1  0  0  0  0
 22  6  1  0  0  0  0
 22 24  1  0  0  0  0
 23 31  1  0  0  0  0
 24 29  1  0  0  0  0
 25 26  1  0  0  0  0
 26 23  2  0  0  0  0
 27 24  2  0  0  0  0
 27 26  1  0  0  0  0
 28 32  2  0  0  0  0
 28 25  1  0  0  0  0
 29 30  1  0  0  0  0
 31 30  2  0  0  0  0
 32 27  1  0  0  0  0
M  END
>  <MODEL>
4

>  <REMARK>
 VINA RESULT:      -8.1      3.267      7.516
  Name = 
  8 active torsions:
  status: ('A' for Active; 'I' for Inactive)
    1  A    between atoms: N_1  and  C_13
    2  A    between atoms: N_1  and  C_30
    3  A    between atoms: C_3  and  C_8
    4  A    between atoms: C_3  and  C_30
    5  A    between atoms: C_5  and  C_22
    6  A    between atoms: C_10  and  N_24
    7  A    between atoms: C_13  and  C_23
    8  A    between atoms: C_21  and  N_24
                            x       y       z     vdW  Elec       q    Type
                         _______ _______ _______ _____ _____    ______ ____

>  <TORSDO>
F 8

$$$$
=
 OpenBabel10232408153D

 32 35  0  0  1  0  0  0  0  0999 V2000
  189.4610  177.2320  141.2160 O   0  0  0  0  0  1  0  0  0  0  0  0
  187.3970  178.2710  140.4760 C   0  0  0  0  0  0  0  0  0  0  0  0
  186.1340  178.8060  140.7990 C   0  0  0  0  0  0  0  0  0  0  0  0
  185.3480  179.4240  139.8340 O   0  0  0  0  0  1  0  0  0  0  0  0
  188.1650  177.6590  141.4900 C   0  0  0  0  0  0  0  0  0  0  0  0
  187.6380  177.5240  142.7930 C   0  0  0  0  0  0  0  0  0  0  0  0
  185.6440  178.7110  142.1020 C   0  0  0  0  0  3  0  0  0  0  0  0
  186.3910  178.0730  143.0910 C   0  0  0  0  0  3  0  0  0  0  0  0
  187.2640  177.6550  138.0300 N   0  0  0  0  0  0  0  0  0  0  0  0
  187.1460  177.2440  136.6080 C   0  0  2  0  0  0  0  0  0  0  0  0
  186.8070  178.3210  135.7890 O   0  0  0  0  0  1  0  0  0  0  0  0
  187.9110  178.3570  139.0900 C   0  0  0  0  0  0  0  0  0  0  0  0
  186.1730  176.7920  137.4690 C   0  0  0  0  0  2  0  0  0  0  0  0
  188.9120  179.0750  138.8280 O   0  0  0  0  0  0  0  0  0  0  0  0
  188.2680  176.3130  136.1760 C   0  0  0  0  0  2  0  0  0  0  0  0
  189.6680  177.3310  134.3570 C   0  0  0  0  0  1  0  0  0  0  0  0
  189.5410  177.0920  135.8540 C   0  0  2  0  0  3  0  0  0  0  0  0
  190.7420  176.4570  136.4040 N   0  0  0  0  0  2  0  0  0  0  0  0
  190.5330  176.0670  137.7950 C   0  0  0  0  0  2  0  0  0  0  0  0
  192.9900  176.3130  137.8880 C   0  0  0  0  0  1  0  0  0  0  0  0
  191.6960  176.5490  138.6360 C   0  0  0  0  0  2  0  0  0  0  0  0
  188.3640  176.8790  143.8530 N   0  0  0  0  0  2  0  0  0  0  0  0
  188.8740  177.9210  148.2770 C   0  0  0  0  0  3  0  0  0  0  0  0
  188.3450  177.2340  145.2440 C   0  0  0  0  0  0  0  0  0  0  0  0
  191.0110  177.1270  147.7060 O   0  0  0  0  0  0  0  0  0  0  0  0
  189.7060  177.4220  147.3750 C   0  0  0  0  0  0  0  0  0  0  0  0
  189.4680  177.1040  145.9800 C   0  0  0  0  0  0  0  0  0  0  0  0
  191.7370  176.6040  146.6050 C   0  0  0  0  0  3  0  0  0  0  0  0
  187.1060  177.6620  145.7400 O   0  0  0  0  0  0  0  0  0  0  0  0
  186.7290  178.1470  146.9960 C   0  0  0  0  0  3  0  0  0  0  0  0
  187.4720  178.2710  148.0900 C   0  0  0  0  0  3  0  0  0  0  0  0
  190.7450  176.5360  145.4420 C   0  0  0  0  0  3  0  0  0  0  0  0
  1  5  1  0  0  0  0
  2  3  2  0  0  0  0
  2  5  1  0  0  0  0
  3  7  1  0  0  0  0
  4  3  1  0  0  0  0
  5  6  2  0  0  0  0
  6  8  1  0  0  0  0
  6 22  1  0  0  0  0
  7  8  2  0  0  0  0
  9 12  1  0  0  0  0
 10 11  1  6  0  0  0
 10 13  1  0  0  0  0
 10  9  1  0  0  0  0
 12  2  1  0  0  0  0
 13  9  1  0  0  0  0
 14 12  2  0  0  0  0
 15 10  1  0  0  0  0
 17 16  1  6  0  0  0
 17 15  1  0  0  0  0
 17 18  1  0  0  0  0
 18 19  1  0  0  0  0
 19 21  1  0  0  0  0
 20 21  1  0  0  0  0
 22 24  1  0  0  0  0
 24 29  1  0  0  0  0
 24 27  2  0  0  0  0
 26 25  1  0  0  0  0
 26 23  2  0  0  0  0
 27 26  1  0  0  0  0
 28 25  1  0  0  0  0
 29 30  1  0  0  0  0
 30 31  2  0  0  0  0
 31 23  1  0  0  0  0
 32 27  1  0  0  0  0
 32 28  2  0  0  0  0
M  END
>  <MODEL>
5

>  <REMARK>
 VINA RESULT:      -8.1      2.317      3.902
  Name = 
  8 active torsions:
  status: ('A' for Active; 'I' for Inactive)
    1  A    between atoms: N_1  and  C_13
    2  A    between atoms: N_1  and  C_30
    3  A    between atoms: C_3  and  C_8
    4  A    between atoms: C_3  and  C_30
    5  A    between atoms: C_5  and  C_22
    6  A    between atoms: C_10  and  N_24
    7  A    between atoms: C_13  and  C_23
    8  A    between atoms: C_21  and  N_24
                            x       y       z     vdW  Elec       q    Type
                         _______ _______ _______ _____ _____    ______ ____

>  <TORSDO>
F 8

$$$$
=
 OpenBabel10232408153D

 32 35  0  0  1  0  0  0  0  0999 V2000
  188.4740  178.9420  140.8570 O   0  0  0  0  0  1  0  0  0  0  0  0
  189.6960  177.1280  139.8060 C   0  0  0  0  0  0  0  0  0  0  0  0
  189.8460  176.2490  138.7140 C   0  0  0  0  0  0  0  0  0  0  0  0
  190.9370  175.3920  138.6270 O   0  0  0  0  0  1  0  0  0  0  0  0
  188.5760  177.9870  139.8500 C   0  0  0  0  0  0  0  0  0  0  0  0
  187.5860  177.9110  138.8470 C   0  0  0  0  0  0  0  0  0  0  0  0
  188.8850  176.2180  137.7020 C   0  0  0  0  0  3  0  0  0  0  0  0
  187.7640  177.0420  137.7700 C   0  0  0  0  0  3  0  0  0  0  0  0
  190.3920  176.6510  142.1870 N   0  0  0  0  0  0  0  0  0  0  0  0
  190.7390  176.3630  143.6020 C   0  0  2  0  0  0  0  0  0  0  0  0
  191.6990  175.3570  143.7010 O   0  0  0  0  0  1  0  0  0  0  0  0
  190.7070  177.1510  140.8890 C   0  0  0  0  0  0  0  0  0  0  0  0
  189.4860  175.9830  143.1780 C   0  0  0  0  0  2  0  0  0  0  0  0
  191.8660  177.5910  140.6650 O   0  0  0  0  0  0  0  0  0  0  0  0
  190.9080  177.6280  144.4280 C   0  0  0  0  0  2  0  0  0  0  0  0
  191.5760  176.4850  146.5610 C   0  0  0  0  0  1  0  0  0  0  0  0
  190.5500  177.3860  145.8920 C   0  0  2  0  0  3  0  0  0  0  0  0
  189.1870  176.8710  146.0600 N   0  0  0  0  0  2  0  0  0  0  0  0
  188.5030  177.5560  147.1530 C   0  0  0  0  0  2  0  0  0  0  0  0
  186.9430  177.7730  145.2480 C   0  0  0  0  0  1  0  0  0  0  0  0
  187.0700  177.8370  146.7550 C   0  0  0  0  0  2  0  0  0  0  0  0
  186.4110  178.7370  138.8620 N   0  0  0  0  0  2  0  0  0  0  0  0
  182.2060  177.6400  140.2860 C   0  0  0  0  0  3  0  0  0  0  0  0
  185.0680  178.3150  139.1470 C   0  0  0  0  0  0  0  0  0  0  0  0
  183.1790  178.5090  142.2410 O   0  0  0  0  0  0  0  0  0  0  0  0
  183.2500  178.1680  140.9070 C   0  0  0  0  0  0  0  0  0  0  0  0
  184.5680  178.4800  140.3880 C   0  0  0  0  0  0  0  0  0  0  0  0
  184.3960  179.0580  142.7180 C   0  0  0  0  0  3  0  0  0  0  0  0
  184.3880  177.7100  138.0810 O   0  0  0  0  0  0  0  0  0  0  0  0
  183.0740  177.2490  137.9650 C   0  0  0  0  0  3  0  0  0  0  0  0
  182.1240  177.2170  138.8940 C   0  0  0  0  0  3  0  0  0  0  0  0
  185.3640  179.0280  141.5320 C   0  0  0  0  0  3  0  0  0  0  0  0
  2  5  1  0  0  0  0
  2 12  1  0  0  0  0
  3  2  2  0  0  0  0
  4  3  1  0  0  0  0
  5  1  1  0  0  0  0
  6 22  1  0  0  0  0
  6  5  2  0  0  0  0
  7  8  2  0  0  0  0
  7  3  1  0  0  0  0
  8  6  1  0  0  0  0
  9 13  1  0  0  0  0
  9 10  1  0  0  0  0
 10 11  1  1  0  0  0
 10 15  1  0  0  0  0
 12  9  1  0  0  0  0
 13 10  1  0  0  0  0
 14 12  2  0  0  0  0
 15 17  1  0  0  0  0
 17 18  1  0  0  0  0
 17 16  1  6  0  0  0
 18 19  1  0  0  0  0
 20 21  1  0  0  0  0
 21 19  1  0  0  0  0
 22 24  1  0  0  0  0
 23 26  2  0  0  0  0
 24 27  2  0  0  0  0
 25 28  1  0  0  0  0
 26 25  1  0  0  0  0
 27 26  1  0  0  0  0
 27 32  1  0  0  0  0
 29 24  1  0  0  0  0
 30 29  1  0  0  0  0
 30 31  2  0  0  0  0
 31 23  1  0  0  0  0
 32 28  2  0  0  0  0
M  END
>  <MODEL>
6

>  <REMARK>
 VINA RESULT:      -8.1      3.269      7.272
  Name = 
  8 active torsions:
  status: ('A' for Active; 'I' for Inactive)
    1  A    between atoms: N_1  and  C_13
    2  A    between atoms: N_1  and  C_30
    3  A    between atoms: C_3  and  C_8
    4  A    between atoms: C_3  and  C_30
    5  A    between atoms: C_5  and  C_22
    6  A    between atoms: C_10  and  N_24
    7  A    between atoms: C_13  and  C_23
    8  A    between atoms: C_21  and  N_24
                            x       y       z     vdW  Elec       q    Type
                         _______ _______ _______ _____ _____    ______ ____

>  <TORSDO>
F 8

$$$$
=
 OpenBabel10232408153D

 32 35  0  0  1  0  0  0  0  0999 V2000
  190.5090  175.9160  142.2920 O   0  0  0  0  0  1  0  0  0  0  0  0
  189.7150  177.4280  140.5680 C   0  0  0  0  0  0  0  0  0  0  0  0
  188.7810  178.3990  140.1530 C   0  0  0  0  0  0  0  0  0  0  0  0
  188.9230  179.0590  138.9380 O   0  0  0  0  0  1  0  0  0  0  0  0
  189.5350  176.7890  141.8130 C   0  0  0  0  0  0  0  0  0  0  0  0
  188.3950  177.0700  142.5960 C   0  0  0  0  0  0  0  0  0  0  0  0
  187.6830  178.7050  140.9580 C   0  0  0  0  0  3  0  0  0  0  0  0
  187.4920  178.0440  142.1690 C   0  0  0  0  0  3  0  0  0  0  0  0
  190.6960  176.3160  138.5230 N   0  0  0  0  0  0  0  0  0  0  0  0
  191.2180  175.6270  137.3160 C   0  0  2  0  0  0  0  0  0  0  0  0
  191.6910  176.5370  136.3700 O   0  0  0  0  0  1  0  0  0  0  0  0
  190.8730  177.0920  139.7070 C   0  0  0  0  0  0  0  0  0  0  0  0
  189.8570  175.5920  137.5130 C   0  0  0  0  0  2  0  0  0  0  0  0
  192.0240  177.5100  140.0000 O   0  0  0  0  0  0  0  0  0  0  0  0
  192.0650  174.4130  137.6590 C   0  0  0  0  0  2  0  0  0  0  0  0
  192.4550  172.6390  135.9250 C   0  0  0  0  0  1  0  0  0  0  0  0
  192.9210  173.9800  136.4710 C   0  0  2  0  0  3  0  0  0  0  0  0
  194.3530  173.9690  136.7830 N   0  0  0  0  0  2  0  0  0  0  0  0
  194.6020  174.5480  138.1000 C   0  0  0  0  0  2  0  0  0  0  0  0
  196.0550  172.5490  138.0900 C   0  0  0  0  0  1  0  0  0  0  0  0
  195.8360  173.9140  138.7050 C   0  0  0  0  0  2  0  0  0  0  0  0
  188.1460  176.4230  143.8540 N   0  0  0  0  0  2  0  0  0  0  0  0
  187.8610  178.4080  147.9650 C   0  0  0  0  0  3  0  0  0  0  0  0
  187.8800  177.0640  145.1110 C   0  0  0  0  0  0  0  0  0  0  0  0
  190.0760  177.6230  147.9470 O   0  0  0  0  0  0  0  0  0  0  0  0
  188.8440  177.7720  147.3460 C   0  0  0  0  0  0  0  0  0  0  0  0
  188.8580  177.1520  146.0350 C   0  0  0  0  0  0  0  0  0  0  0  0
  190.9910  176.9160  147.1250 C   0  0  0  0  0  3  0  0  0  0  0  0
  186.5670  177.5230  145.2860 O   0  0  0  0  0  0  0  0  0  0  0  0
  185.9700  178.2440  146.3250 C   0  0  0  0  0  3  0  0  0  0  0  0
  186.5080  178.6370  147.4740 C   0  0  0  0  0  3  0  0  0  0  0  0
  190.2180  176.5500  145.8560 C   0  0  0  0  0  3  0  0  0  0  0  0
  2  5  1  0  0  0  0
  3  2  2  0  0  0  0
  3  7  1  0  0  0  0
  4  3  1  0  0  0  0
  5  1  1  0  0  0  0
  5  6  2  0  0  0  0
  6 22  1  0  0  0  0
  7  8  2  0  0  0  0
  8  6  1  0  0  0  0
  9 12  1  0  0  0  0
 10 11  1  6  0  0  0
 10 13  1  0  0  0  0
 10 15  1  0  0  0  0
 10  9  1  0  0  0  0
 12 14  2  0  0  0  0
 12  2  1  0  0  0  0
 13  9  1  0  0  0  0
 17 16  1  1  0  0  0
 17 18  1  0  0  0  0
 17 15  1  0  0  0  0
 18 19  1  0  0  0  0
 19 21  1  0  0  0  0
 20 21  1  0  0  0  0
 22 24  1  0  0  0  0
 24 29  1  0  0  0  0
 24 27  2  0  0  0  0
 26 25  1  0  0  0  0
 26 23  2  0  0  0  0
 27 26  1  0  0  0  0
 28 25  1  0  0  0  0
 29 30  1  0  0  0  0
 30 31  2  0  0  0  0
 31 23  1  0  0  0  0
 32 27  1  0  0  0  0
 32 28  2  0  0  0  0
M  END
>  <MODEL>
7

>  <REMARK>
 VINA RESULT:      -8.0      1.022      2.140
  Name = 
  8 active torsions:
  status: ('A' for Active; 'I' for Inactive)
    1  A    between atoms: N_1  and  C_13
    2  A    between atoms: N_1  and  C_30
    3  A    between atoms: C_3  and  C_8
    4  A    between atoms: C_3  and  C_30
    5  A    between atoms: C_5  and  C_22
    6  A    between atoms: C_10  and  N_24
    7  A    between atoms: C_13  and  C_23
    8  A    between atoms: C_21  and  N_24
                            x       y       z     vdW  Elec       q    Type
                         _______ _______ _______ _____ _____    ______ ____

>  <TORSDO>
F 8

$$$$
=
 OpenBabel10232408153D

 32 35  0  0  1  0  0  0  0  0999 V2000
  188.1320  177.2880  140.6720 O   0  0  0  0  0  1  0  0  0  0  0  0
  190.2880  177.0080  139.5930 C   0  0  0  0  0  0  0  0  0  0  0  0
  191.6930  176.9670  139.7010 C   0  0  0  0  0  0  0  0  0  0  0  0
  192.4860  176.6220  138.6130 O   0  0  0  0  0  1  0  0  0  0  0  0
  189.5210  177.3570  140.7270 C   0  0  0  0  0  0  0  0  0  0  0  0
  190.1620  177.7270  141.9290 C   0  0  0  0  0  0  0  0  0  0  0  0
  192.3140  177.2860  140.9090 C   0  0  0  0  0  3  0  0  0  0  0  0
  191.5530  177.6640  142.0140 C   0  0  0  0  0  3  0  0  0  0  0  0
  189.1710  177.7230  137.4440 N   0  0  0  0  0  0  0  0  0  0  0  0
  188.5060  178.2030  136.2060 C   0  0  2  0  0  0  0  0  0  0  0  0
  189.2630  177.9120  135.0710 O   0  0  0  0  0  1  0  0  0  0  0  0
  189.6280  176.6840  138.3080 C   0  0  0  0  0  0  0  0  0  0  0  0
  189.0080  179.1630  137.0540 C   0  0  0  0  0  2  0  0  0  0  0  0
  189.4880  175.4850  137.9510 O   0  0  0  0  0  0  0  0  0  0  0  0
  187.0150  177.9080  136.1940 C   0  0  0  0  0  2  0  0  0  0  0  0
  185.5750  176.4030  137.5960 C   0  0  0  0  0  1  0  0  0  0  0  0
  186.4980  177.6120  137.6000 C   0  0  2  0  0  3  0  0  0  0  0  0
  185.8610  178.7770  138.2210 N   0  0  0  0  0  2  0  0  0  0  0  0
  184.4710  178.4890  138.5640 C   0  0  0  0  0  2  0  0  0  0  0  0
  184.8760  178.7840  140.9840 C   0  0  0  0  0  1  0  0  0  0  0  0
  184.0800  179.2770  139.7950 C   0  0  0  0  0  2  0  0  0  0  0  0
  189.4300  178.1220  143.1010 N   0  0  0  0  0  2  0  0  0  0  0  0
  189.6340  176.7660  147.4640 C   0  0  0  0  0  3  0  0  0  0  0  0
  189.6740  177.6930  144.4490 C   0  0  0  0  0  0  0  0  0  0  0  0
  187.3570  177.2910  147.2140 O   0  0  0  0  0  0  0  0  0  0  0  0
  188.6360  177.1980  146.7080 C   0  0  0  0  0  0  0  0  0  0  0  0
  188.6490  177.6250  145.3220 C   0  0  0  0  0  0  0  0  0  0  0  0
  186.4330  177.7710  146.2510 C   0  0  0  0  0  3  0  0  0  0  0  0
  191.0120  177.4120  144.7590 O   0  0  0  0  0  0  0  0  0  0  0  0
  191.6070  176.9120  145.9210 C   0  0  0  0  0  3  0  0  0  0  0  0
  191.0340  176.6240  147.0840 C   0  0  0  0  0  3  0  0  0  0  0  0
  187.2500  178.0420  144.9860 C   0  0  0  0  0  3  0  0  0  0  0  0
  1  5  1  0  0  0  0
  2  3  2  0  0  0  0
  2  5  1  0  0  0  0
  3  7  1  0  0  0  0
  4  3  1  0  0  0  0
  5  6  2  0  0  0  0
  6  8  1  0  0  0  0
  6 22  1  0  0  0  0
  7  8  2  0  0  0  0
  9 12  1  0  0  0  0
 10 11  1  6  0  0  0
 10 13  1  0  0  0  0
 10  9  1  0  0  0  0
 12  2  1  0  0  0  0
 13  9  1  0  0  0  0
 14 12  2  0  0  0  0
 15 10  1  0  0  0  0
 15 17  1  0  0  0  0
 17 16  1  6  0  0  0
 17 18  1  0  0  0  0
 18 19  1  0  0  0  0
 19 21  1  0  0  0  0
 21 20  1  0  0  0  0
 22 24  1  0  0  0  0
 24 29  1  0  0  0  0
 24 27  2  0  0  0  0
 26 25  1  0  0  0  0
 26 23  2  0  0  0  0
 27 26  1  0  0  0  0
 28 25  1  0  0  0  0
 29 30  1  0  0  0  0
 30 31  2  0  0  0  0
 31 23  1  0  0  0  0
 32 27  1  0  0  0  0
 32 28  2  0  0  0  0
M  END
>  <MODEL>
8

>  <REMARK>
 VINA RESULT:      -7.6      2.842      5.470
  Name = 
  8 active torsions:
  status: ('A' for Active; 'I' for Inactive)
    1  A    between atoms: N_1  and  C_13
    2  A    between atoms: N_1  and  C_30
    3  A    between atoms: C_3  and  C_8
    4  A    between atoms: C_3  and  C_30
    5  A    between atoms: C_5  and  C_22
    6  A    between atoms: C_10  and  N_24
    7  A    between atoms: C_13  and  C_23
    8  A    between atoms: C_21  and  N_24
                            x       y       z     vdW  Elec       q    Type
                         _______ _______ _______ _____ _____    ______ ____

>  <TORSDO>
F 8

$$$$
=
 OpenBabel10232408153D

 32 35  0  0  1  0  0  0  0  0999 V2000
  186.9920  178.1000  141.2590 O   0  0  0  0  0  1  0  0  0  0  0  0
  184.6540  178.5050  141.7700 C   0  0  0  0  0  0  0  0  0  0  0  0
  183.6540  178.7330  142.7370 C   0  0  0  0  0  0  0  0  0  0  0  0
  182.3490  179.0330  142.3630 O   0  0  0  0  0  1  0  0  0  0  0  0
  185.9680  178.2100  142.1960 C   0  0  0  0  0  0  0  0  0  0  0  0
  186.2540  178.0780  143.5720 C   0  0  0  0  0  0  0  0  0  0  0  0
  183.9590  178.6480  144.0960 C   0  0  0  0  0  3  0  0  0  0  0  0
  185.2500  178.3220  144.5090 C   0  0  0  0  0  3  0  0  0  0  0  0
  183.5000  177.5910  139.7180 N   0  0  0  0  0  0  0  0  0  0  0  0
  182.8130  176.9970  138.5430 C   0  0  2  0  0  0  0  0  0  0  0  0
  181.7760  177.8110  138.0890 O   0  0  0  0  0  1  0  0  0  0  0  0
  184.3280  178.5790  140.3280 C   0  0  0  0  0  0  0  0  0  0  0  0
  182.6240  176.3730  139.7540 C   0  0  0  0  0  2  0  0  0  0  0  0
  184.7590  179.5340  139.6280 O   0  0  0  0  0  0  0  0  0  0  0  0
  183.7880  176.4120  137.5340 C   0  0  0  0  0  2  0  0  0  0  0  0
  183.3160  177.2930  135.2300 C   0  0  0  0  0  1  0  0  0  0  0  0
  184.1750  177.4430  136.4760 C   0  0  2  0  0  3  0  0  0  0  0  0
  185.6050  177.4090  136.1550 N   0  0  0  0  0  2  0  0  0  0  0  0
  186.4070  177.2700  137.3670 C   0  0  0  0  0  2  0  0  0  0  0  0
  188.5690  178.0540  136.4610 C   0  0  0  0  0  1  0  0  0  0  0  0
  187.4410  178.3750  137.4180 C   0  0  0  0  0  2  0  0  0  0  0  0
  187.5650  177.7470  144.0570 N   0  0  0  0  0  2  0  0  0  0  0  0
  189.4890  177.6880  148.2060 C   0  0  0  0  0  3  0  0  0  0  0  0
  188.0030  177.7620  145.4240 C   0  0  0  0  0  0  0  0  0  0  0  0
  191.2520  176.9620  146.8330 O   0  0  0  0  0  0  0  0  0  0  0  0
  189.9500  177.3820  147.0020 C   0  0  0  0  0  0  0  0  0  0  0  0
  189.2720  177.4140  145.7210 C   0  0  0  0  0  0  0  0  0  0  0  0
  191.5520  176.6850  145.4740 C   0  0  0  0  0  3  0  0  0  0  0  0
  187.0260  178.1130  146.3660 O   0  0  0  0  0  0  0  0  0  0  0  0
  187.0990  178.3020  147.7490 C   0  0  0  0  0  3  0  0  0  0  0  0
  188.1440  178.1320  148.5510 C   0  0  0  0  0  3  0  0  0  0  0  0
  190.2570  176.9360  144.6990 C   0  0  0  0  0  3  0  0  0  0  0  0
  1  5  1  0  0  0  0
  2  5  2  0  0  0  0
  2  3  1  0  0  0  0
  3  7  2  0  0  0  0
  4  3  1  0  0  0  0
  5  6  1  0  0  0  0
  6 22  1  0  0  0  0
  6  8  2  0  0  0  0
  7  8  1  0  0  0  0
  9 13  1  0  0  0  0
  9 12  1  0  0  0  0
 10 11  1  6  0  0  0
 10  9  1  0  0  0  0
 10 13  1  0  0  0  0
 12  2  1  0  0  0  0
 14 12  2  0  0  0  0
 15 10  1  0  0  0  0
 17 16  1  6  0  0  0
 17 15  1  0  0  0  0
 18 17  1  0  0  0  0
 18 19  1  0  0  0  0
 19 21  1  0  0  0  0
 20 21  1  0  0  0  0
 22 24  1  0  0  0  0
 23 31  1  0  0  0  0
 24 27  2  0  0  0  0
 24 29  1  0  0  0  0
 25 26  1  0  0  0  0
 26 23  2  0  0  0  0
 27 26  1  0  0  0  0
 28 25  1  0  0  0  0
 29 30  1  0  0  0  0
 30 31  2  0  0  0  0
 32 28  2  0  0  0  0
 32 27  1  0  0  0  0
M  END
>  <MODEL>
9

>  <REMARK>
 VINA RESULT:      -7.6      4.544      6.705
  Name = 
  8 active torsions:
  status: ('A' for Active; 'I' for Inactive)
    1  A    between atoms: N_1  and  C_13
    2  A    between atoms: N_1  and  C_30
    3  A    between atoms: C_3  and  C_8
    4  A    between atoms: C_3  and  C_30
    5  A    between atoms: C_5  and  C_22
    6  A    between atoms: C_10  and  N_24
    7  A    between atoms: C_13  and  C_23
    8  A    between atoms: C_21  and  N_24
                            x       y       z     vdW  Elec       q    Type
                         _______ _______ _______ _____ _____    ______ ____

>  <TORSDO>
F 8

$$$$
