=
 OpenBabel10232408093D

 38 40  0  0  1  0  0  0  0  0999 V2000
  188.9740  177.4340  139.1260 C   0  0  0  0  0  0  0  0  0  0  0  0
  188.1390  176.5290  138.6900 N   0  0  0  0  0  0  0  0  0  0  0  0
  188.8030  178.8580  136.9580 C   0  0  0  0  0  2  0  0  0  0  0  0
  189.5890  178.4980  138.2270 C   0  0  0  0  0  2  0  0  0  0  0  0
  187.6610  176.4160  137.3140 C   0  0  2  0  0  3  0  0  0  0  0  0
  186.7420  177.6090  136.9360 C   0  0  2  0  0  3  0  0  0  0  0  0
  187.3750  178.9070  137.2460 N   0  0  0  0  0  2  0  0  0  0  0  0
  191.0430  177.1410  142.2350 N   0  0  0  0  0  0  0  0  0  0  0  0
  190.1370  177.3320  143.1930 N   0  0  0  0  0  0  0  0  0  0  0  0
  188.4330  177.5930  141.5660 C   0  0  0  0  0  3  0  0  0  0  0  0
  189.3740  177.3950  140.5520 C   0  0  0  0  0  0  0  0  0  0  0  0
  188.8220  177.5520  142.9080 C   0  0  0  0  0  0  0  0  0  0  0  0
  190.7040  177.1590  140.9200 C   0  0  0  0  0  3  0  0  0  0  0  0
  185.9040  178.1770  146.0170 C   0  0  0  0  0  0  0  0  0  0  0  0
  188.1920  177.6550  145.4000 C   0  0  0  0  0  0  0  0  0  0  0  0
  186.5120  178.0120  143.6860 C   0  0  0  0  0  3  0  0  0  0  0  0
  185.5490  178.2390  144.6710 C   0  0  0  0  0  3  0  0  0  0  0  0
  189.5200  177.3680  145.8320 N   0  0  0  0  0  1  0  0  0  0  0  0
  187.2170  177.8810  146.3790 C   0  0  0  0  0  3  0  0  0  0  0  0
  187.8450  177.7220  144.0240 C   0  0  0  0  0  0  0  0  0  0  0  0
  184.9320  178.4340  147.0220 N   0  0  0  0  0  1  0  0  0  0  0  0
  185.3530  177.5070  137.6200 C   0  0  2  0  0  3  0  0  0  0  0  0
  184.7370  177.3230  135.4220 C   0  0  0  0  0  1  0  0  0  0  0  0
  184.3400  177.0640  136.7420 O   0  0  0  0  0  0  0  0  0  0  0  0
  184.9390  178.7420  138.4290 C   0  0  0  0  0  2  0  0  0  0  0  0
  185.5800  178.7190  139.7280 N   0  0  0  0  0  2  0  0  0  0  0  0
  184.6990  179.2470  140.6070 O   0  0  0  0  0  0  0  0  0  0  0  0
  183.8740  178.1790  140.9560 C   0  0  0  0  0  2  0  0  0  0  0  0
  182.6250  178.6930  141.5820 C   0  0  0  0  0  0  0  0  0  0  0  0
  181.5910  178.8640  140.8830 O   0  0  0  0  0  0  0  0  0  0  0  0
  182.5930  178.9470  142.9470 O   0  0  0  0  0  1  0  0  0  0  0  0
  187.0350  175.0470  137.0770 C   0  0  0  0  0  2  0  0  0  0  0  0
  188.1030  174.0100  136.7600 C   0  0  1  0  0  3  0  0  0  0  0  0
  187.2960  172.4660  134.7970 N   0  0  0  0  0  0  0  0  0  0  0  0
  187.6530  173.1460  135.6630 C   0  0  0  0  0  0  0  0  0  0  0  0
  189.3270  174.6860  136.3660 N   0  0  0  0  0  2  0  0  0  0  0  0
  190.4440  173.9260  136.9030 C   0  0  0  0  0  2  0  0  0  0  0  0
  191.0430  174.6480  138.0120 N   0  0  0  0  0  1  0  0  0  0  0  0
  1 11  1  0  0  0  0
  2  1  2  0  0  0  0
  3  7  1  0  0  0  0
  3  4  1  0  0  0  0
  4  1  1  0  0  0  0
  5 32  1  1  0  0  0
  5  2  1  0  0  0  0
  6  7  1  0  0  0  0
  6  5  1  0  0  0  0
  6 22  1  1  0  0  0
  8  9  1  0  0  0  0
 10 12  1  0  0  0  0
 11 13  1  0  0  0  0
 11 10  2  0  0  0  0
 12  9  2  0  0  0  0
 12 20  1  0  0  0  0
 13  8  2  0  0  0  0
 14 19  1  0  0  0  0
 14 21  1  0  0  0  0
 15 18  1  0  0  0  0
 15 19  2  0  0  0  0
 16 20  2  0  0  0  0
 16 17  1  0  0  0  0
 17 14  2  0  0  0  0
 20 15  1  0  0  0  0
 22 25  1  6  0  0  0
 23 24  1  0  0  0  0
 24 22  1  0  0  0  0
 25 26  1  0  0  0  0
 26 27  1  0  0  0  0
 27 28  1  0  0  0  0
 28 29  1  0  0  0  0
 29 31  1  0  0  0  0
 30 29  2  0  0  0  0
 33 35  1  6  0  0  0
 33 32  1  0  0  0  0
 34 35  3  0  0  0  0
 36 33  1  0  0  0  0
 36 37  1  0  0  0  0
 37 38  1  0  0  0  0
M  END
>  <MODEL>
1

>  <REMARK>
 VINA RESULT:      -7.1      0.000      0.000
  Name = 
  14 active torsions:
  status: ('A' for Active; 'I' for Inactive)
    1  A    between atoms: N_3  and  C_7
    2  A    between atoms: N_3  and  C_36
    3  A    between atoms: C_5  and  C_6
    4  A    between atoms: C_5  and  O_27
    5  A    between atoms: C_8  and  C_9
    6  A    between atoms: C_8  and  N_37
    7  A    between atoms: C_9  and  O_19
    8  A    between atoms: C_9  and  C_29
    9  A    between atoms: C_12  and  C_36
   10  A    between atoms: C_16  and  C_30
   11  A    between atoms: C_22  and  C_28
   12  A    between atoms: C_22  and  C_36
   13  A    between atoms: O_27  and  N_37
   14  A    between atoms: C_33  and  C_34
                            x       y       z     vdW  Elec       q    Type
                         _______ _______ _______ _____ _____    ______ ____

>  <TORSDO>
F 14

$$$$
=
 OpenBabel10232408093D

 38 40  0  0  1  0  0  0  0  0999 V2000
  188.9550  177.4460  138.4630 C   0  0  0  0  0  0  0  0  0  0  0  0
  187.9850  176.5840  138.3150 N   0  0  0  0  0  0  0  0  0  0  0  0
  188.2870  178.7950  136.3440 C   0  0  0  0  0  2  0  0  0  0  0  0
  189.3630  178.4320  137.3760 C   0  0  0  0  0  2  0  0  0  0  0  0
  187.1500  176.4510  137.1230 C   0  0  2  0  0  3  0  0  0  0  0  0
  186.2300  177.6890  136.9380 C   0  0  2  0  0  3  0  0  0  0  0  0
  186.9940  178.9510  136.9980 N   0  0  0  0  0  2  0  0  0  0  0  0
  191.7930  177.3660  140.9060 N   0  0  0  0  0  0  0  0  0  0  0  0
  191.1580  177.4240  142.0760 N   0  0  0  0  0  0  0  0  0  0  0  0
  189.0650  177.4930  140.9640 C   0  0  0  0  0  3  0  0  0  0  0  0
  189.7200  177.4350  139.7320 C   0  0  0  0  0  0  0  0  0  0  0  0
  189.7970  177.4800  142.1550 C   0  0  0  0  0  0  0  0  0  0  0  0
  191.1180  177.3630  139.7280 C   0  0  0  0  0  3  0  0  0  0  0  0
  187.7330  177.6370  145.9340 C   0  0  0  0  0  0  0  0  0  0  0  0
  189.8290  177.7270  144.7160 C   0  0  0  0  0  0  0  0  0  0  0  0
  187.7430  177.3450  143.5380 C   0  0  0  0  0  3  0  0  0  0  0  0
  187.0440  177.4110  144.7440 C   0  0  0  0  0  3  0  0  0  0  0  0
  191.2440  177.9010  144.7630 N   0  0  0  0  0  1  0  0  0  0  0  0
  189.1190  177.7880  145.9200 C   0  0  0  0  0  3  0  0  0  0  0  0
  189.1380  177.5050  143.4940 C   0  0  0  0  0  0  0  0  0  0  0  0
  187.0220  177.7310  147.1620 N   0  0  0  0  0  1  0  0  0  0  0  0
  185.0730  177.7070  137.9700 C   0  0  2  0  0  3  0  0  0  0  0  0
  182.9070  177.1290  138.4400 C   0  0  0  0  0  1  0  0  0  0  0  0
  183.8280  177.3520  137.4060 O   0  0  0  0  0  0  0  0  0  0  0  0
  184.9930  178.9730  138.8310 C   0  0  0  0  0  2  0  0  0  0  0  0
  185.6850  178.7600  140.0870 N   0  0  0  0  0  2  0  0  0  0  0  0
  185.0140  179.4650  141.0250 O   0  0  0  0  0  0  0  0  0  0  0  0
  184.3520  178.4980  141.7810 C   0  0  0  0  0  2  0  0  0  0  0  0
  184.0710  179.0300  143.1410 C   0  0  0  0  0  0  0  0  0  0  0  0
  183.1200  178.5610  143.8210 O   0  0  0  0  0  1  0  0  0  0  0  0
  184.8850  180.0210  143.6750 O   0  0  0  0  0  0  0  0  0  0  0  0
  186.4090  175.1190  137.1360 C   0  0  0  0  0  2  0  0  0  0  0  0
  187.3780  173.9580  136.9670 C   0  0  1  0  0  3  0  0  0  0  0  0
  186.1330  171.8970  135.9240 N   0  0  0  0  0  0  0  0  0  0  0  0
  186.6830  172.8060  136.3830 C   0  0  0  0  0  0  0  0  0  0  0  0
  188.4620  174.3610  136.0870 N   0  0  0  0  0  2  0  0  0  0  0  0
  189.6520  173.6260  136.4860 C   0  0  0  0  0  2  0  0  0  0  0  0
  190.5990  174.5270  137.1170 N   0  0  0  0  0  1  0  0  0  0  0  0
  1 11  1  0  0  0  0
  2  1  2  0  0  0  0
  3  7  1  0  0  0  0
  3  4  1  0  0  0  0
  4  1  1  0  0  0  0
  5 32  1  1  0  0  0
  5  2  1  0  0  0  0
  6  7  1  0  0  0  0
  6  5  1  0  0  0  0
  6 22  1  1  0  0  0
  8  9  1  0  0  0  0
  9 12  2  0  0  0  0
 10 12  1  0  0  0  0
 11 10  2  0  0  0  0
 12 20  1  0  0  0  0
 13 11  1  0  0  0  0
 13  8  2  0  0  0  0
 14 21  1  0  0  0  0
 15 18  1  0  0  0  0
 15 19  2  0  0  0  0
 16 17  1  0  0  0  0
 17 14  2  0  0  0  0
 19 14  1  0  0  0  0
 20 16  2  0  0  0  0
 20 15  1  0  0  0  0
 22 25  1  6  0  0  0
 24 22  1  0  0  0  0
 24 23  1  0  0  0  0
 25 26  1  0  0  0  0
 26 27  1  0  0  0  0
 27 28  1  0  0  0  0
 28 29  1  0  0  0  0
 29 31  2  0  0  0  0
 29 30  1  0  0  0  0
 33 35  1  6  0  0  0
 33 32  1  0  0  0  0
 34 35  3  0  0  0  0
 36 37  1  0  0  0  0
 36 33  1  0  0  0  0
 37 38  1  0  0  0  0
M  END
>  <MODEL>
2

>  <REMARK>
 VINA RESULT:      -7.1      1.238      1.497
  Name = 
  14 active torsions:
  status: ('A' for Active; 'I' for Inactive)
    1  A    between atoms: N_3  and  C_7
    2  A    between atoms: N_3  and  C_36
    3  A    between atoms: C_5  and  C_6
    4  A    between atoms: C_5  and  O_27
    5  A    between atoms: C_8  and  C_9
    6  A    between atoms: C_8  and  N_37
    7  A    between atoms: C_9  and  O_19
    8  A    between atoms: C_9  and  C_29
    9  A    between atoms: C_12  and  C_36
   10  A    between atoms: C_16  and  C_30
   11  A    between atoms: C_22  and  C_28
   12  A    between atoms: C_22  and  C_36
   13  A    between atoms: O_27  and  N_37
   14  A    between atoms: C_33  and  C_34
                            x       y       z     vdW  Elec       q    Type
                         _______ _______ _______ _____ _____    ______ ____

>  <TORSDO>
F 14

$$$$
=
 OpenBabel10232408093D

 38 40  0  0  1  0  0  0  0  0999 V2000
  189.1800  177.4650  138.8650 C   0  0  0  0  0  0  0  0  0  0  0  0
  189.0990  176.4410  138.0600 N   0  0  0  0  0  0  0  0  0  0  0  0
  188.5820  179.1750  136.9990 C   0  0  0  0  0  2  0  0  0  0  0  0
  189.2120  178.9070  138.3740 C   0  0  0  0  0  2  0  0  0  0  0  0
  189.0040  176.5180  136.6040 C   0  0  2  0  0  3  0  0  0  0  0  0
  187.6440  177.1210  136.1570 C   0  0  2  0  0  3  0  0  0  0  0  0
  187.3600  178.3960  136.8450 N   0  0  0  0  0  2  0  0  0  0  0  0
  190.5010  176.3820  142.1980 N   0  0  0  0  0  0  0  0  0  0  0  0
  189.5170  176.7430  143.0200 N   0  0  0  0  0  0  0  0  0  0  0  0
  188.2640  177.5850  141.1920 C   0  0  0  0  0  3  0  0  0  0  0  0
  189.2900  177.2120  140.3200 C   0  0  0  0  0  0  0  0  0  0  0  0
  188.3780  177.3380  142.5630 C   0  0  0  0  0  0  0  0  0  0  0  0
  190.4230  176.5910  140.8580 C   0  0  0  0  0  3  0  0  0  0  0  0
  185.1750  178.4790  145.2100 C   0  0  0  0  0  0  0  0  0  0  0  0
  187.4560  177.6980  144.9380 C   0  0  0  0  0  0  0  0  0  0  0  0
  186.0490  178.0720  142.9970 C   0  0  0  0  0  3  0  0  0  0  0  0
  184.9990  178.4660  143.8280 C   0  0  0  0  0  3  0  0  0  0  0  0
  188.6830  177.3230  145.5600 N   0  0  0  0  0  1  0  0  0  0  0  0
  186.3950  178.0920  145.7620 C   0  0  0  0  0  3  0  0  0  0  0  0
  187.2920  177.6870  143.5270 C   0  0  0  0  0  0  0  0  0  0  0  0
  184.1160  178.9050  146.0590 N   0  0  0  0  0  1  0  0  0  0  0  0
  186.4760  176.1220  136.3620 C   0  0  2  0  0  3  0  0  0  0  0  0
  185.9130  174.5300  134.8150 C   0  0  0  0  0  1  0  0  0  0  0  0
  185.7490  175.8750  135.1770 O   0  0  0  0  0  0  0  0  0  0  0  0
  185.5690  176.4250  137.5610 C   0  0  0  0  0  2  0  0  0  0  0  0
  184.2180  176.6840  137.1050 N   0  0  0  0  0  2  0  0  0  0  0  0
  183.9650  177.9880  137.3590 O   0  0  0  0  0  0  0  0  0  0  0  0
  183.7660  178.0410  138.7380 C   0  0  0  0  0  2  0  0  0  0  0  0
  184.1940  179.3690  139.2560 C   0  0  0  0  0  0  0  0  0  0  0  0
  185.2460  179.4720  139.9420 O   0  0  0  0  0  1  0  0  0  0  0  0
  183.4510  180.5010  138.9460 O   0  0  0  0  0  0  0  0  0  0  0  0
  189.3240  175.1670  135.9750 C   0  0  0  0  0  2  0  0  0  0  0  0
  189.5870  174.1180  137.0470 C   0  0  1  0  0  3  0  0  0  0  0  0
  187.8630  172.1510  136.8200 N   0  0  0  0  0  0  0  0  0  0  0  0
  188.6220  173.0200  136.9210 C   0  0  0  0  0  0  0  0  0  0  0  0
  190.9330  173.5940  136.8870 N   0  0  0  0  0  2  0  0  0  0  0  0
  191.2460  173.6060  135.4670 C   0  0  0  0  0  2  0  0  0  0  0  0
  191.6290  172.2740  135.0350 N   0  0  0  0  0  1  0  0  0  0  0  0
  1 11  1  0  0  0  0
  2  1  2  0  0  0  0
  3  4  1  0  0  0  0
  4  1  1  0  0  0  0
  5 32  1  6  0  0  0
  5  2  1  0  0  0  0
  6 22  1  1  0  0  0
  6  5  1  0  0  0  0
  6  7  1  0  0  0  0
  7  3  1  0  0  0  0
  8  9  1  0  0  0  0
 10 12  1  0  0  0  0
 11 13  1  0  0  0  0
 11 10  2  0  0  0  0
 12  9  2  0  0  0  0
 12 20  1  0  0  0  0
 13  8  2  0  0  0  0
 14 19  1  0  0  0  0
 14 21  1  0  0  0  0
 15 18  1  0  0  0  0
 15 19  2  0  0  0  0
 16 20  2  0  0  0  0
 16 17  1  0  0  0  0
 17 14  2  0  0  0  0
 20 15  1  0  0  0  0
 22 25  1  1  0  0  0
 23 24  1  0  0  0  0
 24 22  1  0  0  0  0
 26 27  1  0  0  0  0
 26 25  1  0  0  0  0
 27 28  1  0  0  0  0
 28 29  1  0  0  0  0
 29 30  1  0  0  0  0
 31 29  2  0  0  0  0
 33 32  1  6  0  0  0
 34 35  3  0  0  0  0
 35 33  1  0  0  0  0
 36 33  1  0  0  0  0
 37 36  1  0  0  0  0
 38 37  1  0  0  0  0
M  END
>  <MODEL>
3

>  <REMARK>
 VINA RESULT:      -6.9      1.568      2.012
  Name = 
  14 active torsions:
  status: ('A' for Active; 'I' for Inactive)
    1  A    between atoms: N_3  and  C_7
    2  A    between atoms: N_3  and  C_36
    3  A    between atoms: C_5  and  C_6
    4  A    between atoms: C_5  and  O_27
    5  A    between atoms: C_8  and  C_9
    6  A    between atoms: C_8  and  N_37
    7  A    between atoms: C_9  and  O_19
    8  A    between atoms: C_9  and  C_29
    9  A    between atoms: C_12  and  C_36
   10  A    between atoms: C_16  and  C_30
   11  A    between atoms: C_22  and  C_28
   12  A    between atoms: C_22  and  C_36
   13  A    between atoms: O_27  and  N_37
   14  A    between atoms: C_33  and  C_34
                            x       y       z     vdW  Elec       q    Type
                         _______ _______ _______ _____ _____    ______ ____

>  <TORSDO>
F 14

$$$$
=
 OpenBabel10232408093D

 38 40  0  0  1  0  0  0  0  0999 V2000
  189.7510  177.4320  139.4040 C   0  0  0  0  0  0  0  0  0  0  0  0
  190.3830  176.5630  138.6620 N   0  0  0  0  0  0  0  0  0  0  0  0
  188.9640  178.8340  137.3610 C   0  0  0  0  0  2  0  0  0  0  0  0
  189.2390  178.7630  138.8690 C   0  0  0  0  0  2  0  0  0  0  0  0
  190.6690  176.7190  137.2380 C   0  0  2  0  0  3  0  0  0  0  0  0
  189.3680  176.6650  136.3910 C   0  0  2  0  0  3  0  0  0  0  0  0
  188.3440  177.5970  136.9030 N   0  0  0  0  0  2  0  0  0  0  0  0
  190.3140  176.1280  142.8700 N   0  0  0  0  0  0  0  0  0  0  0  0
  189.2300  176.5610  143.5120 N   0  0  0  0  0  0  0  0  0  0  0  0
  188.4270  177.5740  141.5240 C   0  0  0  0  0  3  0  0  0  0  0  0
  189.5610  177.1270  140.8410 C   0  0  0  0  0  0  0  0  0  0  0  0
  188.2570  177.2780  142.8800 C   0  0  0  0  0  0  0  0  0  0  0  0
  190.5100  176.3820  141.5500 C   0  0  0  0  0  3  0  0  0  0  0  0
  184.7090  178.6260  144.9200 C   0  0  0  0  0  0  0  0  0  0  0  0
  187.0120  177.8750  145.0510 C   0  0  0  0  0  0  0  0  0  0  0  0
  185.8840  177.9990  142.9070 C   0  0  0  0  0  3  0  0  0  0  0  0
  184.7260  178.4570  143.5370 C   0  0  0  0  0  3  0  0  0  0  0  0
  188.1450  177.6010  145.8720 N   0  0  0  0  0  1  0  0  0  0  0  0
  185.8440  178.3310  145.6730 C   0  0  0  0  0  3  0  0  0  0  0  0
  187.0460  177.7050  143.6410 C   0  0  0  0  0  0  0  0  0  0  0  0
  183.5400  179.1170  145.5630 N   0  0  0  0  0  1  0  0  0  0  0  0
  188.7960  175.2260  136.3050 C   0  0  2  0  0  3  0  0  0  0  0  0
  189.5090  173.6760  134.7770 C   0  0  0  0  0  1  0  0  0  0  0  0
  188.6540  174.7700  134.9760 O   0  0  0  0  0  0  0  0  0  0  0  0
  187.5440  174.9750  137.1540 C   0  0  0  0  0  2  0  0  0  0  0  0
  186.4050  174.7230  136.2930 N   0  0  0  0  0  2  0  0  0  0  0  0
  185.3120  174.7080  137.0890 O   0  0  0  0  0  0  0  0  0  0  0  0
  184.6550  175.9040  136.7990 C   0  0  0  0  0  2  0  0  0  0  0  0
  183.3170  175.9110  137.4490 C   0  0  0  0  0  0  0  0  0  0  0  0
  182.3060  176.3100  136.8130 O   0  0  0  0  0  0  0  0  0  0  0  0
  183.1810  175.4390  138.7490 O   0  0  0  0  0  1  0  0  0  0  0  0
  191.7420  175.7300  136.7960 C   0  0  0  0  0  2  0  0  0  0  0  0
  192.9570  175.8050  137.7100 C   0  0  1  0  0  3  0  0  0  0  0  0
  194.2350  173.5120  137.6960 N   0  0  0  0  0  0  0  0  0  0  0  0
  193.6710  174.5240  137.7000 C   0  0  0  0  0  0  0  0  0  0  0  0
  193.8480  176.8530  137.2400 N   0  0  0  0  0  2  0  0  0  0  0  0
  194.2010  176.5480  135.8630 C   0  0  0  0  0  2  0  0  0  0  0  0
  195.4490  177.2050  135.5170 N   0  0  0  0  0  1  0  0  0  0  0  0
  1 11  1  0  0  0  0
  2  1  2  0  0  0  0
  3  4  1  0  0  0  0
  4  1  1  0  0  0  0
  5 32  1  6  0  0  0
  5  2  1  0  0  0  0
  6 22  1  1  0  0  0
  6  7  1  0  0  0  0
  6  5  1  0  0  0  0
  7  3  1  0  0  0  0
  8  9  1  0  0  0  0
 10 12  1  0  0  0  0
 11 10  2  0  0  0  0
 11 13  1  0  0  0  0
 12  9  2  0  0  0  0
 12 20  1  0  0  0  0
 13  8  2  0  0  0  0
 14 21  1  0  0  0  0
 14 19  1  0  0  0  0
 15 19  2  0  0  0  0
 15 18  1  0  0  0  0
 16 17  1  0  0  0  0
 16 20  2  0  0  0  0
 17 14  2  0  0  0  0
 20 15  1  0  0  0  0
 22 25  1  6  0  0  0
 23 24  1  0  0  0  0
 24 22  1  0  0  0  0
 26 27  1  0  0  0  0
 26 25  1  0  0  0  0
 28 27  1  0  0  0  0
 28 29  1  0  0  0  0
 29 31  1  0  0  0  0
 30 29  2  0  0  0  0
 33 32  1  6  0  0  0
 34 35  3  0  0  0  0
 35 33  1  0  0  0  0
 36 33  1  0  0  0  0
 37 36  1  0  0  0  0
 38 37  1  0  0  0  0
M  END
>  <MODEL>
4

>  <REMARK>
 VINA RESULT:      -6.8      2.367      3.798
  Name = 
  14 active torsions:
  status: ('A' for Active; 'I' for Inactive)
    1  A    between atoms: N_3  and  C_7
    2  A    between atoms: N_3  and  C_36
    3  A    between atoms: C_5  and  C_6
    4  A    between atoms: C_5  and  O_27
    5  A    between atoms: C_8  and  C_9
    6  A    between atoms: C_8  and  N_37
    7  A    between atoms: C_9  and  O_19
    8  A    between atoms: C_9  and  C_29
    9  A    between atoms: C_12  and  C_36
   10  A    between atoms: C_16  and  C_30
   11  A    between atoms: C_22  and  C_28
   12  A    between atoms: C_22  and  C_36
   13  A    between atoms: O_27  and  N_37
   14  A    between atoms: C_33  and  C_34
                            x       y       z     vdW  Elec       q    Type
                         _______ _______ _______ _____ _____    ______ ____

>  <TORSDO>
F 14

$$$$
=
 OpenBabel10232408093D

 38 40  0  0  1  0  0  0  0  0999 V2000
  188.7040  177.8110  139.2920 C   0  0  0  0  0  0  0  0  0  0  0  0
  188.8440  176.6130  138.7910 N   0  0  0  0  0  0  0  0  0  0  0  0
  189.0840  178.9800  137.0010 C   0  0  0  0  0  2  0  0  0  0  0  0
  189.0800  179.0770  138.5330 C   0  0  0  0  0  2  0  0  0  0  0  0
  189.3480  176.3120  137.4540 C   0  0  2  0  0  3  0  0  0  0  0  0
  188.3520  176.7760  136.3570 C   0  0  2  0  0  3  0  0  0  0  0  0
  187.9520  178.1850  136.5430 N   0  0  0  0  0  2  0  0  0  0  0  0
  186.4490  178.4820  142.2060 N   0  0  0  0  0  0  0  0  0  0  0  0
  187.2320  178.1810  143.2410 N   0  0  0  0  0  0  0  0  0  0  0  0
  189.0070  177.6300  141.7700 C   0  0  0  0  0  3  0  0  0  0  0  0
  188.1950  177.9420  140.6770 C   0  0  0  0  0  0  0  0  0  0  0  0
  188.5180  177.7590  143.0730 C   0  0  0  0  0  0  0  0  0  0  0  0
  186.8910  178.3830  140.9260 C   0  0  0  0  0  3  0  0  0  0  0  0
  191.0640  176.8080  146.4170 C   0  0  0  0  0  0  0  0  0  0  0  0
  188.8510  177.3680  145.5940 C   0  0  0  0  0  0  0  0  0  0  0  0
  190.7310  177.2430  144.0660 C   0  0  0  0  0  3  0  0  0  0  0  0
  191.5770  176.9130  145.1260 C   0  0  0  0  0  3  0  0  0  0  0  0
  187.4740  177.5830  145.8930 N   0  0  0  0  0  1  0  0  0  0  0  0
  189.7100  177.0400  146.6500 C   0  0  0  0  0  3  0  0  0  0  0  0
  189.3600  177.4710  144.2720 C   0  0  0  0  0  0  0  0  0  0  0  0
  191.9180  176.4470  147.4950 N   0  0  0  0  0  1  0  0  0  0  0  0
  187.1010  175.8620  136.2890 C   0  0  2  0  0  3  0  0  0  0  0  0
  186.5300  173.6950  135.8170 C   0  0  0  0  0  1  0  0  0  0  0  0
  187.2360  174.8140  135.3520 O   0  0  0  0  0  0  0  0  0  0  0  0
  185.7650  176.6030  136.1610 C   0  0  0  0  0  2  0  0  0  0  0  0
  185.0350  176.5240  137.4110 N   0  0  0  0  0  2  0  0  0  0  0  0
  185.1260  177.7420  137.9920 O   0  0  0  0  0  0  0  0  0  0  0  0
  183.8070  178.0910  138.2770 C   0  0  0  0  0  2  0  0  0  0  0  0
  183.7830  179.1500  139.3220 C   0  0  0  0  0  0  0  0  0  0  0  0
  184.3170  180.2690  139.1020 O   0  0  0  0  0  0  0  0  0  0  0  0
  183.1330  178.9130  140.5270 O   0  0  0  0  0  1  0  0  0  0  0  0
  189.7490  174.8450  137.3520 C   0  0  0  0  0  2  0  0  0  0  0  0
  191.2610  174.6890  137.4250 C   0  0  1  0  0  3  0  0  0  0  0  0
  192.0420  172.7370  135.8540 N   0  0  0  0  0  0  0  0  0  0  0  0
  191.6960  173.5990  136.5460 C   0  0  0  0  0  0  0  0  0  0  0  0
  191.8930  175.9280  137.0010 N   0  0  0  0  0  2  0  0  0  0  0  0
  193.2890  175.8720  137.4040 C   0  0  0  0  0  2  0  0  0  0  0  0
  193.4820  176.6380  138.6210 N   0  0  0  0  0  1  0  0  0  0  0  0
  1 11  1  0  0  0  0
  2  1  2  0  0  0  0
  3  4  1  0  0  0  0
  4  1  1  0  0  0  0
  5 32  1  1  0  0  0
  5  2  1  0  0  0  0
  6 22  1  1  0  0  0
  6  7  1  0  0  0  0
  6  5  1  0  0  0  0
  7  3  1  0  0  0  0
  8  9  1  0  0  0  0
 10 12  1  0  0  0  0
 11 13  1  0  0  0  0
 11 10  2  0  0  0  0
 12  9  2  0  0  0  0
 12 20  1  0  0  0  0
 13  8  2  0  0  0  0
 14 19  1  0  0  0  0
 14 21  1  0  0  0  0
 15 18  1  0  0  0  0
 15 19  2  0  0  0  0
 16 20  2  0  0  0  0
 16 17  1  0  0  0  0
 17 14  2  0  0  0  0
 20 15  1  0  0  0  0
 22 25  1  6  0  0  0
 24 23  1  0  0  0  0
 24 22  1  0  0  0  0
 25 26  1  0  0  0  0
 26 27  1  0  0  0  0
 27 28  1  0  0  0  0
 28 29  1  0  0  0  0
 29 31  1  0  0  0  0
 30 29  2  0  0  0  0
 32 33  1  0  0  0  0
 33 35  1  6  0  0  0
 34 35  3  0  0  0  0
 36 37  1  0  0  0  0
 36 33  1  0  0  0  0
 37 38  1  0  0  0  0
M  END
>  <MODEL>
5

>  <REMARK>
 VINA RESULT:      -6.8      2.078      3.264
  Name = 
  14 active torsions:
  status: ('A' for Active; 'I' for Inactive)
    1  A    between atoms: N_3  and  C_7
    2  A    between atoms: N_3  and  C_36
    3  A    between atoms: C_5  and  C_6
    4  A    between atoms: C_5  and  O_27
    5  A    between atoms: C_8  and  C_9
    6  A    between atoms: C_8  and  N_37
    7  A    between atoms: C_9  and  O_19
    8  A    between atoms: C_9  and  C_29
    9  A    between atoms: C_12  and  C_36
   10  A    between atoms: C_16  and  C_30
   11  A    between atoms: C_22  and  C_28
   12  A    between atoms: C_22  and  C_36
   13  A    between atoms: O_27  and  N_37
   14  A    between atoms: C_33  and  C_34
                            x       y       z     vdW  Elec       q    Type
                         _______ _______ _______ _____ _____    ______ ____

>  <TORSDO>
F 14

$$$$
=
 OpenBabel10232408093D

 38 40  0  0  1  0  0  0  0  0999 V2000
  189.0190  177.5020  138.8910 C   0  0  0  0  0  0  0  0  0  0  0  0
  188.5760  176.5420  138.1240 N   0  0  0  0  0  0  0  0  0  0  0  0
  188.6670  179.3260  137.0720 C   0  0  0  0  0  2  0  0  0  0  0  0
  189.3660  178.8900  138.3670 C   0  0  0  0  0  2  0  0  0  0  0  0
  188.3300  176.6550  136.6880 C   0  0  2  0  0  3  0  0  0  0  0  0
  187.1310  177.5980  136.3930 C   0  0  2  0  0  3  0  0  0  0  0  0
  187.2740  178.8960  137.0820 N   0  0  0  0  0  2  0  0  0  0  0  0
  190.5750  176.3370  142.0930 N   0  0  0  0  0  0  0  0  0  0  0  0
  189.6550  176.6810  142.9920 N   0  0  0  0  0  0  0  0  0  0  0  0
  188.2760  177.5690  141.2800 C   0  0  0  0  0  3  0  0  0  0  0  0
  189.2340  177.2140  140.3280 C   0  0  0  0  0  0  0  0  0  0  0  0
  188.4880  177.2900  142.6340 C   0  0  0  0  0  0  0  0  0  0  0  0
  190.4000  176.5780  140.7670 C   0  0  0  0  0  3  0  0  0  0  0  0
  185.4940  178.3790  145.5350 C   0  0  0  0  0  0  0  0  0  0  0  0
  187.7370  177.5750  145.0780 C   0  0  0  0  0  0  0  0  0  0  0  0
  186.2080  178.0420  143.2540 C   0  0  0  0  0  3  0  0  0  0  0  0
  185.2240  178.4200  144.1690 C   0  0  0  0  0  3  0  0  0  0  0  0
  188.9980  177.1590  145.5990 N   0  0  0  0  0  1  0  0  0  0  0  0
  186.7420  177.9540  145.9870 C   0  0  0  0  0  3  0  0  0  0  0  0
  187.4770  177.6190  143.6820 C   0  0  0  0  0  0  0  0  0  0  0  0
  184.5040  178.7890  146.4690 N   0  0  0  0  0  1  0  0  0  0  0  0
  185.7760  176.9380  136.7580 C   0  0  2  0  0  3  0  0  0  0  0  0
  185.4730  177.3630  134.5280 C   0  0  0  0  0  1  0  0  0  0  0  0
  184.9890  176.6350  135.6250 O   0  0  0  0  0  0  0  0  0  0  0  0
  184.9820  177.6550  137.8560 C   0  0  0  0  0  2  0  0  0  0  0  0
  183.5650  177.6080  137.5540 N   0  0  0  0  0  2  0  0  0  0  0  0
  182.9990  176.7900  138.4700 O   0  0  0  0  0  0  0  0  0  0  0  0
  181.9600  176.1640  137.7830 C   0  0  0  0  0  2  0  0  0  0  0  0
  182.4390  174.8730  137.2190 C   0  0  0  0  0  0  0  0  0  0  0  0
  181.8610  174.3640  136.2210 O   0  0  0  0  0  0  0  0  0  0  0  0
  183.5500  174.2490  137.7720 O   0  0  0  0  0  1  0  0  0  0  0  0
  188.2070  175.2740  136.0560 C   0  0  0  0  0  2  0  0  0  0  0  0
  189.1050  174.2710  136.7660 C   0  0  1  0  0  3  0  0  0  0  0  0
  187.8050  172.0240  137.1550 N   0  0  0  0  0  0  0  0  0  0  0  0
  188.3800  173.0140  136.9830 C   0  0  0  0  0  0  0  0  0  0  0  0
  190.2780  174.0120  135.9480 N   0  0  0  0  0  2  0  0  0  0  0  0
  191.3740  173.6720  136.8410 C   0  0  0  0  0  2  0  0  0  0  0  0
  191.4850  174.6730  137.8870 N   0  0  0  0  0  1  0  0  0  0  0  0
  1 11  1  0  0  0  0
  2  1  2  0  0  0  0
  3  7  1  0  0  0  0
  3  4  1  0  0  0  0
  4  1  1  0  0  0  0
  5 32  1  1  0  0  0
  5  2  1  0  0  0  0
  6  5  1  0  0  0  0
  6 22  1  1  0  0  0
  6  7  1  0  0  0  0
  8  9  1  0  0  0  0
 10 12  1  0  0  0  0
 11 13  1  0  0  0  0
 11 10  2  0  0  0  0
 12  9  2  0  0  0  0
 12 20  1  0  0  0  0
 13  8  2  0  0  0  0
 14 19  1  0  0  0  0
 14 21  1  0  0  0  0
 15 18  1  0  0  0  0
 15 19  2  0  0  0  0
 16 20  2  0  0  0  0
 16 17  1  0  0  0  0
 17 14  2  0  0  0  0
 20 15  1  0  0  0  0
 22 25  1  1  0  0  0
 23 24  1  0  0  0  0
 24 22  1  0  0  0  0
 26 25  1  0  0  0  0
 26 27  1  0  0  0  0
 28 27  1  0  0  0  0
 29 31  1  0  0  0  0
 29 28  1  0  0  0  0
 30 29  2  0  0  0  0
 33 32  1  6  0  0  0
 33 35  1  0  0  0  0
 35 34  3  0  0  0  0
 36 33  1  0  0  0  0
 36 37  1  0  0  0  0
 37 38  1  0  0  0  0
M  END
>  <MODEL>
6

>  <REMARK>
 VINA RESULT:      -6.7      1.717      2.267
  Name = 
  14 active torsions:
  status: ('A' for Active; 'I' for Inactive)
    1  A    between atoms: N_3  and  C_7
    2  A    between atoms: N_3  and  C_36
    3  A    between atoms: C_5  and  C_6
    4  A    between atoms: C_5  and  O_27
    5  A    between atoms: C_8  and  C_9
    6  A    between atoms: C_8  and  N_37
    7  A    between atoms: C_9  and  O_19
    8  A    between atoms: C_9  and  C_29
    9  A    between atoms: C_12  and  C_36
   10  A    between atoms: C_16  and  C_30
   11  A    between atoms: C_22  and  C_28
   12  A    between atoms: C_22  and  C_36
   13  A    between atoms: O_27  and  N_37
   14  A    between atoms: C_33  and  C_34
                            x       y       z     vdW  Elec       q    Type
                         _______ _______ _______ _____ _____    ______ ____

>  <TORSDO>
F 14

$$$$
=
 OpenBabel10232408093D

 38 40  0  0  1  0  0  0  0  0999 V2000
  188.9680  177.4860  139.1060 C   0  0  0  0  0  0  0  0  0  0  0  0
  188.2570  176.5740  138.5010 N   0  0  0  0  0  0  0  0  0  0  0  0
  188.8640  179.1240  137.0890 C   0  0  0  0  0  2  0  0  0  0  0  0
  189.5640  178.6880  138.3840 C   0  0  0  0  0  2  0  0  0  0  0  0
  187.9130  176.5760  137.0810 C   0  0  2  0  0  3  0  0  0  0  0  0
  186.9300  177.7290  136.7400 C   0  0  2  0  0  3  0  0  0  0  0  0
  187.4180  179.0290  137.2410 N   0  0  0  0  0  2  0  0  0  0  0  0
  190.7150  176.7380  142.3340 N   0  0  0  0  0  0  0  0  0  0  0  0
  189.7740  177.0220  143.2330 N   0  0  0  0  0  0  0  0  0  0  0  0
  188.2640  177.6160  141.5050 C   0  0  0  0  0  3  0  0  0  0  0  0
  189.2430  177.3220  140.5520 C   0  0  0  0  0  0  0  0  0  0  0  0
  188.5340  177.4550  142.8670 C   0  0  0  0  0  0  0  0  0  0  0  0
  190.4880  176.8680  141.0000 C   0  0  0  0  0  3  0  0  0  0  0  0
  185.4900  178.3650  145.7790 C   0  0  0  0  0  0  0  0  0  0  0  0
  187.7680  177.6710  145.3140 C   0  0  0  0  0  0  0  0  0  0  0  0
  186.2200  178.0930  143.4940 C   0  0  0  0  0  3  0  0  0  0  0  0
  185.2200  178.4130  144.4130 C   0  0  0  0  0  3  0  0  0  0  0  0
  189.0460  177.3060  145.8310 N   0  0  0  0  0  1  0  0  0  0  0  0
  186.7560  177.9900  146.2260 C   0  0  0  0  0  3  0  0  0  0  0  0
  187.5080  177.7230  143.9180 C   0  0  0  0  0  0  0  0  0  0  0  0
  184.4810  178.7160  146.7170 N   0  0  0  0  0  1  0  0  0  0  0  0
  185.5010  177.4450  137.2710 C   0  0  2  0  0  3  0  0  0  0  0  0
  184.0170  175.9920  136.3070 C   0  0  0  0  0  1  0  0  0  0  0  0
  184.5510  177.2870  136.2380 O   0  0  0  0  0  0  0  0  0  0  0  0
  185.0220  178.3930  138.3770 C   0  0  0  0  0  2  0  0  0  0  0  0
  183.8840  177.8160  139.0640 N   0  0  0  0  0  2  0  0  0  0  0  0
  183.2950  178.8200  139.7520 O   0  0  0  0  0  0  0  0  0  0  0  0
  183.2510  179.8820  138.8490 C   0  0  0  0  0  2  0  0  0  0  0  0
  181.8370  180.2810  138.6120 C   0  0  0  0  0  0  0  0  0  0  0  0
  180.9770  179.4140  138.3020 O   0  0  0  0  0  0  0  0  0  0  0  0
  181.4610  181.6090  138.7740 O   0  0  0  0  0  1  0  0  0  0  0  0
  187.4320  175.1970  136.6440 C   0  0  0  0  0  2  0  0  0  0  0  0
  188.4880  174.4960  135.8010 C   0  0  1  0  0  3  0  0  0  0  0  0
  190.4050  173.5840  137.3450 N   0  0  0  0  0  0  0  0  0  0  0  0
  189.5600  173.9850  136.6630 C   0  0  0  0  0  0  0  0  0  0  0  0
  187.8760  173.3860  135.0890 N   0  0  0  0  0  2  0  0  0  0  0  0
  187.1740  172.5690  136.0660 C   0  0  0  0  0  2  0  0  0  0  0  0
  187.4770  171.1670  135.8440 N   0  0  0  0  0  1  0  0  0  0  0  0
  1 11  1  0  0  0  0
  2  1  2  0  0  0  0
  3  7  1  0  0  0  0
  3  4  1  0  0  0  0
  4  1  1  0  0  0  0
  5 32  1  1  0  0  0
  5  2  1  0  0  0  0
  6  5  1  0  0  0  0
  6  7  1  0  0  0  0
  6 22  1  1  0  0  0
  8  9  1  0  0  0  0
 10 12  1  0  0  0  0
 11 13  1  0  0  0  0
 11 10  2  0  0  0  0
 12  9  2  0  0  0  0
 12 20  1  0  0  0  0
 13  8  2  0  0  0  0
 14 19  1  0  0  0  0
 14 21  1  0  0  0  0
 15 18  1  0  0  0  0
 15 19  2  0  0  0  0
 16 20  2  0  0  0  0
 16 17  1  0  0  0  0
 17 14  2  0  0  0  0
 20 15  1  0  0  0  0
 22 25  1  1  0  0  0
 24 23  1  0  0  0  0
 24 22  1  0  0  0  0
 25 26  1  0  0  0  0
 26 27  1  0  0  0  0
 28 27  1  0  0  0  0
 29 31  1  0  0  0  0
 29 28  1  0  0  0  0
 30 29  2  0  0  0  0
 33 32  1  1  0  0  0
 33 35  1  0  0  0  0
 35 34  3  0  0  0  0
 36 33  1  0  0  0  0
 36 37  1  0  0  0  0
 38 37  1  0  0  0  0
M  END
>  <MODEL>
7

>  <REMARK>
 VINA RESULT:      -6.5      1.243      1.914
  Name = 
  14 active torsions:
  status: ('A' for Active; 'I' for Inactive)
    1  A    between atoms: N_3  and  C_7
    2  A    between atoms: N_3  and  C_36
    3  A    between atoms: C_5  and  C_6
    4  A    between atoms: C_5  and  O_27
    5  A    between atoms: C_8  and  C_9
    6  A    between atoms: C_8  and  N_37
    7  A    between atoms: C_9  and  O_19
    8  A    between atoms: C_9  and  C_29
    9  A    between atoms: C_12  and  C_36
   10  A    between atoms: C_16  and  C_30
   11  A    between atoms: C_22  and  C_28
   12  A    between atoms: C_22  and  C_36
   13  A    between atoms: O_27  and  N_37
   14  A    between atoms: C_33  and  C_34
                            x       y       z     vdW  Elec       q    Type
                         _______ _______ _______ _____ _____    ______ ____

>  <TORSDO>
F 14

$$$$
=
 OpenBabel10232408093D

 38 40  0  0  1  0  0  0  0  0999 V2000
  184.0550  178.7330  140.3000 C   0  0  0  0  0  0  0  0  0  0  0  0
  185.0050  178.0810  139.6850 N   0  0  0  0  0  0  0  0  0  0  0  0
  182.7800  179.2580  138.0950 C   0  0  0  0  0  2  0  0  0  0  0  0
  183.0380  179.6000  139.5700 C   0  0  0  0  0  2  0  0  0  0  0  0
  185.2190  178.0650  138.2400 C   0  0  2  0  0  3  0  0  0  0  0  0
  184.0750  177.3120  137.5080 C   0  0  2  0  0  3  0  0  0  0  0  0
  182.7460  177.8130  137.9120 N   0  0  0  0  0  2  0  0  0  0  0  0
  182.7560  178.7890  143.8120 N   0  0  0  0  0  0  0  0  0  0  0  0
  183.8500  178.5150  144.5200 N   0  0  0  0  0  0  0  0  0  0  0  0
  185.1320  178.3740  142.5310 C   0  0  0  0  0  3  0  0  0  0  0  0
  183.9910  178.6590  141.7770 C   0  0  0  0  0  0  0  0  0  0  0  0
  185.0600  178.3090  143.9250 C   0  0  0  0  0  0  0  0  0  0  0  0
  182.7860  178.8750  142.4560 C   0  0  0  0  0  3  0  0  0  0  0  0
  188.5690  177.3840  146.2500 C   0  0  0  0  0  0  0  0  0  0  0  0
  186.3030  178.2480  146.1780 C   0  0  0  0  0  0  0  0  0  0  0  0
  187.3990  177.5130  144.1420 C   0  0  0  0  0  3  0  0  0  0  0  0
  188.5430  177.1840  144.8710 C   0  0  0  0  0  3  0  0  0  0  0  0
  185.1930  178.7810  146.8970 N   0  0  0  0  0  1  0  0  0  0  0  0
  187.4570  177.9190  146.8980 C   0  0  0  0  0  3  0  0  0  0  0  0
  186.2600  178.0430  144.7720 C   0  0  0  0  0  0  0  0  0  0  0  0
  189.7230  177.0270  147.0000 N   0  0  0  0  0  1  0  0  0  0  0  0
  184.1640  175.7790  137.7210 C   0  0  2  0  0  3  0  0  0  0  0  0
  185.6340  174.1620  137.0370 C   0  0  0  0  0  1  0  0  0  0  0  0
  184.6850  175.0970  136.6000 O   0  0  0  0  0  0  0  0  0  0  0  0
  182.8900  175.1270  138.2710 C   0  0  0  0  0  2  0  0  0  0  0  0
  182.0560  174.6700  137.1770 N   0  0  0  0  0  2  0  0  0  0  0  0
  181.8880  173.3390  137.3460 O   0  0  0  0  0  0  0  0  0  0  0  0
  181.8460  172.8260  136.0500 C   0  0  0  0  0  2  0  0  0  0  0  0
  182.6770  171.5940  135.9720 C   0  0  0  0  0  0  0  0  0  0  0  0
  182.5670  170.8170  134.9860 O   0  0  0  0  0  0  0  0  0  0  0  0
  183.6030  171.3230  136.9710 O   0  0  0  0  0  1  0  0  0  0  0  0
  186.6150  177.5480  137.9120 C   0  0  0  0  0  2  0  0  0  0  0  0
  187.6830  178.4570  138.5030 C   0  0  1  0  0  3  0  0  0  0  0  0
  189.2840  177.0690  140.0520 N   0  0  0  0  0  0  0  0  0  0  0  0
  188.5790  177.6820  139.3680 C   0  0  0  0  0  0  0  0  0  0  0  0
  188.4550  179.0550  137.4260 N   0  0  0  0  0  2  0  0  0  0  0  0
  189.3500  178.0340  136.9060 C   0  0  0  0  0  2  0  0  0  0  0  0
  188.9850  177.7100  135.5390 N   0  0  0  0  0  1  0  0  0  0  0  0
  1 11  1  0  0  0  0
  2  1  2  0  0  0  0
  3  4  1  0  0  0  0
  4  1  1  0  0  0  0
  5 32  1  1  0  0  0
  5  2  1  0  0  0  0
  6 22  1  1  0  0  0
  6  7  1  0  0  0  0
  6  5  1  0  0  0  0
  7  3  1  0  0  0  0
  8  9  1  0  0  0  0
 10 12  1  0  0  0  0
 11 13  1  0  0  0  0
 11 10  2  0  0  0  0
 12  9  2  0  0  0  0
 12 20  1  0  0  0  0
 13  8  2  0  0  0  0
 14 19  1  0  0  0  0
 14 21  1  0  0  0  0
 15 18  1  0  0  0  0
 15 19  2  0  0  0  0
 16 20  2  0  0  0  0
 16 17  1  0  0  0  0
 17 14  2  0  0  0  0
 20 15  1  0  0  0  0
 22 25  1  6  0  0  0
 24 23  1  0  0  0  0
 24 22  1  0  0  0  0
 26 27  1  0  0  0  0
 26 25  1  0  0  0  0
 28 27  1  0  0  0  0
 29 28  1  0  0  0  0
 29 31  1  0  0  0  0
 30 29  2  0  0  0  0
 33 32  1  6  0  0  0
 33 35  1  0  0  0  0
 35 34  3  0  0  0  0
 36 33  1  0  0  0  0
 37 36  1  0  0  0  0
 38 37  1  0  0  0  0
M  END
>  <MODEL>
8

>  <REMARK>
 VINA RESULT:      -6.4      2.761      5.433
  Name = 
  14 active torsions:
  status: ('A' for Active; 'I' for Inactive)
    1  A    between atoms: N_3  and  C_7
    2  A    between atoms: N_3  and  C_36
    3  A    between atoms: C_5  and  C_6
    4  A    between atoms: C_5  and  O_27
    5  A    between atoms: C_8  and  C_9
    6  A    between atoms: C_8  and  N_37
    7  A    between atoms: C_9  and  O_19
    8  A    between atoms: C_9  and  C_29
    9  A    between atoms: C_12  and  C_36
   10  A    between atoms: C_16  and  C_30
   11  A    between atoms: C_22  and  C_28
   12  A    between atoms: C_22  and  C_36
   13  A    between atoms: O_27  and  N_37
   14  A    between atoms: C_33  and  C_34
                            x       y       z     vdW  Elec       q    Type
                         _______ _______ _______ _____ _____    ______ ____

>  <TORSDO>
F 14

$$$$
=
 OpenBabel10232408093D

 38 40  0  0  1  0  0  0  0  0999 V2000
  188.8970  177.5060  139.0480 C   0  0  0  0  0  0  0  0  0  0  0  0
  188.2790  176.5260  138.4470 N   0  0  0  0  0  0  0  0  0  0  0  0
  188.5890  179.1330  137.0420 C   0  0  0  0  0  2  0  0  0  0  0  0
  189.3500  178.7690  138.3250 C   0  0  0  0  0  2  0  0  0  0  0  0
  187.9160  176.4980  137.0320 C   0  0  2  0  0  3  0  0  0  0  0  0
  186.8100  177.5410  136.7120 C   0  0  2  0  0  3  0  0  0  0  0  0
  187.1640  178.8840  137.2150 N   0  0  0  0  0  2  0  0  0  0  0  0
  190.7270  176.8130  142.2410 N   0  0  0  0  0  0  0  0  0  0  0  0
  189.8090  177.1090  143.1600 N   0  0  0  0  0  0  0  0  0  0  0  0
  188.2540  177.6730  141.4620 C   0  0  0  0  0  3  0  0  0  0  0  0
  189.2090  177.3660  140.4890 C   0  0  0  0  0  0  0  0  0  0  0  0
  188.5590  177.5340  142.8190 C   0  0  0  0  0  0  0  0  0  0  0  0
  190.4660  176.9200  140.9120 C   0  0  0  0  0  3  0  0  0  0  0  0
  185.7590  178.2050  146.0260 C   0  0  0  0  0  0  0  0  0  0  0  0
  186.2140  178.2010  143.6420 C   0  0  0  0  0  0  0  0  0  0  0  0
  187.9670  177.6450  145.2250 C   0  0  0  0  0  3  0  0  0  0  0  0
  187.0780  177.8350  146.2840 C   0  0  0  0  0  3  0  0  0  0  0  0
  185.7170  178.3970  142.3200 N   0  0  0  0  0  1  0  0  0  0  0  0
  185.3320  178.3920  144.7120 C   0  0  0  0  0  3  0  0  0  0  0  0
  187.5600  177.8170  143.8910 C   0  0  0  0  0  0  0  0  0  0  0  0
  184.8440  178.3730  147.1000 N   0  0  0  0  0  1  0  0  0  0  0  0
  185.4280  177.1030  137.2610 C   0  0  2  0  0  3  0  0  0  0  0  0
  185.0260  177.2090  135.0100 C   0  0  0  0  0  1  0  0  0  0  0  0
  184.5070  176.7830  136.2410 O   0  0  0  0  0  0  0  0  0  0  0  0
  184.8330  178.0300  138.3280 C   0  0  0  0  0  2  0  0  0  0  0  0
  183.4650  178.3650  137.9840 N   0  0  0  0  0  2  0  0  0  0  0  0
  183.0270  179.2280  138.9280 O   0  0  0  0  0  0  0  0  0  0  0  0
  183.1290  178.5180  140.1230 C   0  0  0  0  0  2  0  0  0  0  0  0
  181.9270  178.7740  140.9620 C   0  0  0  0  0  0  0  0  0  0  0  0
  182.0110  178.7290  142.2190 O   0  0  0  0  0  1  0  0  0  0  0  0
  180.7210  179.1010  140.3560 O   0  0  0  0  0  0  0  0  0  0  0  0
  187.5790  175.0780  136.5940 C   0  0  0  0  0  2  0  0  0  0  0  0
  187.9160  174.8690  135.1240 C   0  0  1  0  0  3  0  0  0  0  0  0
  190.4990  174.4990  134.8420 N   0  0  0  0  0  0  0  0  0  0  0  0
  189.3590  174.6620  134.9650 C   0  0  0  0  0  0  0  0  0  0  0  0
  187.2060  173.7010  134.6300 N   0  0  0  0  0  2  0  0  0  0  0  0
  186.0410  173.5010  135.4750 C   0  0  0  0  0  2  0  0  0  0  0  0
  185.7490  172.0840  135.5870 N   0  0  0  0  0  1  0  0  0  0  0  0
  1 11  1  0  0  0  0
  2  1  2  0  0  0  0
  3  7  1  0  0  0  0
  3  4  1  0  0  0  0
  4  1  1  0  0  0  0
  5 32  1  1  0  0  0
  5  2  1  0  0  0  0
  6  5  1  0  0  0  0
  6  7  1  0  0  0  0
  6 22  1  1  0  0  0
  8  9  1  0  0  0  0
 10 12  1  0  0  0  0
 11 13  1  0  0  0  0
 11 10  2  0  0  0  0
 12  9  2  0  0  0  0
 12 20  1  0  0  0  0
 13  8  2  0  0  0  0
 14 17  1  0  0  0  0
 14 21  1  0  0  0  0
 15 20  2  0  0  0  0
 15 19  1  0  0  0  0
 16 17  2  0  0  0  0
 18 15  1  0  0  0  0
 19 14  2  0  0  0  0
 20 16  1  0  0  0  0
 22 25  1  6  0  0  0
 23 24  1  0  0  0  0
 24 22  1  0  0  0  0
 26 25  1  0  0  0  0
 26 27  1  0  0  0  0
 27 28  1  0  0  0  0
 28 29  1  0  0  0  0
 29 30  1  0  0  0  0
 31 29  2  0  0  0  0
 33 35  1  1  0  0  0
 33 32  1  0  0  0  0
 34 35  3  0  0  0  0
 36 33  1  0  0  0  0
 36 37  1  0  0  0  0
 37 38  1  0  0  0  0
M  END
>  <MODEL>
9

>  <REMARK>
 VINA RESULT:      -6.3      1.181      2.156
  Name = 
  14 active torsions:
  status: ('A' for Active; 'I' for Inactive)
    1  A    between atoms: N_3  and  C_7
    2  A    between atoms: N_3  and  C_36
    3  A    between atoms: C_5  and  C_6
    4  A    between atoms: C_5  and  O_27
    5  A    between atoms: C_8  and  C_9
    6  A    between atoms: C_8  and  N_37
    7  A    between atoms: C_9  and  O_19
    8  A    between atoms: C_9  and  C_29
    9  A    between atoms: C_12  and  C_36
   10  A    between atoms: C_16  and  C_30
   11  A    between atoms: C_22  and  C_28
   12  A    between atoms: C_22  and  C_36
   13  A    between atoms: O_27  and  N_37
   14  A    between atoms: C_33  and  C_34
                            x       y       z     vdW  Elec       q    Type
                         _______ _______ _______ _____ _____    ______ ____

>  <TORSDO>
F 14

$$$$
