=
 OpenBabel10232411443D

 27 28  0  0  1  0  0  0  0  0999 V2000
  190.7840  176.8550  142.5420 C   0  0  0  0  0  0  0  0  0  0  0  0
  189.4440  176.7820  142.3490 C   0  0  0  0  0  0  0  0  0  0  0  0
  189.3710  177.5720  138.7650 O   0  0  0  0  0  0  0  0  0  0  0  0
  191.6680  177.3380  141.4570 C   0  0  0  0  0  3  0  0  0  0  0  0
  191.2060  177.6170  140.2420 C   0  0  0  0  0  3  0  0  0  0  0  0
  189.7780  177.4800  139.9520 C   0  0  0  0  0  0  0  0  0  0  0  0
  188.7950  177.2840  141.0730 C   0  0  2  0  0  3  0  0  0  0  0  0
  191.7420  175.1330  143.9380 O   0  0  0  0  0  1  0  0  0  0  0  0
  191.5320  177.3210  144.8950 C   0  0  0  0  0  0  0  0  0  0  0  0
  191.9670  176.8310  146.1200 O   0  0  0  0  0  1  0  0  0  0  0  0
  191.3840  176.4310  143.7810 N   0  0  0  0  0  0  0  0  0  0  0  0
  191.2960  178.5520  144.7730 O   0  0  0  0  0  0  0  0  0  0  0  0
  188.5470  176.1610  143.3800 C   0  0  0  0  0  2  0  0  0  0  0  0
  187.7810  177.9420  145.1480 N   0  0  0  0  0  0  0  0  0  0  0  0
  188.1180  177.1570  144.3690 C   0  0  0  0  0  0  0  0  0  0  0  0
  188.0590  178.5960  141.3390 C   0  0  0  0  0  2  0  0  0  0  0  0
  186.5480  178.4460  141.1930 C   0  0  2  0  0  3  0  0  0  0  0  0
  186.1460  178.7630  139.9080 F   0  0  0  0  0  0  0  0  0  0  0  0
  185.8110  179.3050  142.2110 C   0  0  0  0  0  2  0  0  0  0  0  0
  182.5610  178.7210  142.1780 C   0  0  0  0  0  0  0  0  0  0  0  0
  183.6830  178.1810  141.8550 N   0  0  0  0  0  0  0  0  0  0  0  0
  182.6090  179.4540  143.3430 O   0  0  0  0  0  0  0  0  0  0  0  0
  184.6780  178.5240  142.8620 C   0  0  2  0  0  3  0  0  0  0  0  0
  183.9270  179.4100  143.8650 C   0  0  2  0  0  3  0  0  0  0  0  0
  181.3300  178.5640  141.3610 C   0  0  0  0  0  1  0  0  0  0  0  0
  183.9200  178.7430  145.2280 C   0  0  0  0  0  2  0  0  0  0  0  0
  184.9210  179.2950  146.0280 O   0  0  0  0  0  1  0  0  0  0  0  0
  1 11  1  0  0  0  0
  2  1  2  0  0  0  0
  2 13  1  0  0  0  0
  3  6  2  0  0  0  0
  4  1  1  0  0  0  0
  5  4  2  0  0  0  0
  6  5  1  0  0  0  0
  6  7  1  0  0  0  0
  7 16  1  1  0  0  0
  7  2  1  0  0  0  0
  9 10  1  0  0  0  0
 11  8  1  0  0  0  0
 11  9  1  0  0  0  0
 12  9  2  0  0  0  0
 13 15  1  0  0  0  0
 15 14  3  0  0  0  0
 17 18  1  6  0  0  0
 17 16  1  0  0  0  0
 17 19  1  0  0  0  0
 20 22  1  0  0  0  0
 21 20  2  0  0  0  0
 21 23  1  0  0  0  0
 22 24  1  0  0  0  0
 23 19  1  6  0  0  0
 23 24  1  0  0  0  0
 24 26  1  1  0  0  0
 25 20  1  0  0  0  0
 26 27  1  0  0  0  0
M  END
>  <MODEL>
1

>  <REMARK>
 VINA RESULT:      -7.1      0.000      0.000
  Name = 
  8 active torsions:
  status: ('A' for Active; 'I' for Inactive)
    1  A    between atoms: C_1  and  N_20
    2  A    between atoms: C_2  and  C_5
    3  A    between atoms: C_2  and  C_19
    4  A    between atoms: C_3  and  C_23
    5  A    between atoms: C_5  and  C_21
    6  A    between atoms: C_9  and  C_17
    7  A    between atoms: C_17  and  C_22
    8  A    between atoms: C_19  and  C_24
                            x       y       z     vdW  Elec       q    Type
                         _______ _______ _______ _____ _____    ______ ____

>  <TORSDO>
F 8

$$$$
=
 OpenBabel10232411443D

 27 28  0  0  1  0  0  0  0  0999 V2000
  190.1160  176.7430  146.8750 C   0  0  0  0  0  0  0  0  0  0  0  0
  189.9100  177.3150  145.6630 C   0  0  0  0  0  0  0  0  0  0  0  0
  186.5620  178.6890  146.2780 O   0  0  0  0  0  0  0  0  0  0  0  0
  189.0230  176.6930  147.8720 C   0  0  0  0  0  3  0  0  0  0  0  0
  187.8500  177.2840  147.6630 C   0  0  0  0  0  3  0  0  0  0  0  0
  187.5970  177.9840  146.4030 C   0  0  0  0  0  0  0  0  0  0  0  0
  188.5430  177.8230  145.2450 C   0  0  2  0  0  3  0  0  0  0  0  0
  191.8540  175.0830  146.6370 O   0  0  0  0  0  1  0  0  0  0  0  0
  192.1910  176.7840  148.2920 C   0  0  0  0  0  0  0  0  0  0  0  0
  193.3490  176.1440  148.7180 O   0  0  0  0  0  0  0  0  0  0  0  0
  191.4040  176.2110  147.2400 N   0  0  0  0  0  0  0  0  0  0  0  0
  191.8600  177.8770  148.8230 O   0  0  0  0  0  1  0  0  0  0  0  0
  191.0410  177.5070  144.6960 C   0  0  0  0  0  2  0  0  0  0  0  0
  191.1760  180.0010  143.8950 N   0  0  0  0  0  0  0  0  0  0  0  0
  191.1180  178.9020  144.2480 C   0  0  0  0  0  0  0  0  0  0  0  0
  187.9260  176.8810  144.2130 C   0  0  0  0  0  2  0  0  0  0  0  0
  187.7430  177.5540  142.8570 C   0  0  2  0  0  3  0  0  0  0  0  0
  186.4040  177.6100  142.5140 F   0  0  0  0  0  0  0  0  0  0  0  0
  188.5430  176.8390  141.7770 C   0  0  0  0  0  2  0  0  0  0  0  0
  189.4040  178.1980  138.8930 C   0  0  0  0  0  0  0  0  0  0  0  0
  188.8150  178.4800  140.0010 N   0  0  0  0  0  0  0  0  0  0  0  0
  190.4840  177.3540  139.0340 O   0  0  0  0  0  0  0  0  0  0  0  0
  189.5040  177.7980  141.0880 C   0  0  2  0  0  3  0  0  0  0  0  0
  190.6350  177.0190  140.4030 C   0  0  2  0  0  3  0  0  0  0  0  0
  188.9530  178.7390  137.5840 C   0  0  0  0  0  1  0  0  0  0  0  0
  191.9760  177.5160  140.9110 C   0  0  0  0  0  2  0  0  0  0  0  0
  192.9450  177.3550  139.9200 O   0  0  0  0  0  1  0  0  0  0  0  0
  1 11  1  0  0  0  0
  1  4  1  0  0  0  0
  2  1  2  0  0  0  0
  3  6  2  0  0  0  0
  5  4  2  0  0  0  0
  6  5  1  0  0  0  0
  7 16  1  6  0  0  0
  7  2  1  0  0  0  0
  7  6  1  0  0  0  0
  8 11  1  0  0  0  0
  9 10  2  0  0  0  0
  9 12  1  0  0  0  0
 11  9  1  0  0  0  0
 13  2  1  0  0  0  0
 14 15  3  0  0  0  0
 15 13  1  0  0  0  0
 17 18  1  6  0  0  0
 17 16  1  0  0  0  0
 19 17  1  0  0  0  0
 20 22  1  0  0  0  0
 20 21  2  0  0  0  0
 21 23  1  0  0  0  0
 22 24  1  0  0  0  0
 23 19  1  6  0  0  0
 24 26  1  1  0  0  0
 24 23  1  0  0  0  0
 25 20  1  0  0  0  0
 27 26  1  0  0  0  0
M  END
>  <MODEL>
2

>  <REMARK>
 VINA RESULT:      -7.1      3.144      5.888
  Name = 
  8 active torsions:
  status: ('A' for Active; 'I' for Inactive)
    1  A    between atoms: C_1  and  N_20
    2  A    between atoms: C_2  and  C_5
    3  A    between atoms: C_2  and  C_19
    4  A    between atoms: C_3  and  C_23
    5  A    between atoms: C_5  and  C_21
    6  A    between atoms: C_9  and  C_17
    7  A    between atoms: C_17  and  C_22
    8  A    between atoms: C_19  and  C_24
                            x       y       z     vdW  Elec       q    Type
                         _______ _______ _______ _____ _____    ______ ____

>  <TORSDO>
F 8

$$$$
=
 OpenBabel10232411443D

 27 28  0  0  1  0  0  0  0  0999 V2000
  187.8150  177.4900  145.7240 C   0  0  0  0  0  0  0  0  0  0  0  0
  188.7310  177.6170  144.7320 C   0  0  0  0  0  0  0  0  0  0  0  0
  186.4420  178.4480  141.9860 O   0  0  0  0  0  0  0  0  0  0  0  0
  186.3680  177.5360  145.4130 C   0  0  0  0  0  3  0  0  0  0  0  0
  185.9180  177.8010  144.1900 C   0  0  0  0  0  3  0  0  0  0  0  0
  186.8620  178.0250  143.0950 C   0  0  0  0  0  0  0  0  0  0  0  0
  188.3200  177.7030  143.2750 C   0  0  2  0  0  3  0  0  0  0  0  0
  189.0200  176.3160  147.4560 O   0  0  0  0  0  1  0  0  0  0  0  0
  187.7220  178.2160  148.1280 C   0  0  0  0  0  0  0  0  0  0  0  0
  188.0090  177.9450  149.4600 O   0  0  0  0  0  1  0  0  0  0  0  0
  188.2180  177.3480  147.0990 N   0  0  0  0  0  0  0  0  0  0  0  0
  187.0460  179.2380  147.8380 O   0  0  0  0  0  0  0  0  0  0  0  0
  190.1960  177.7180  145.0420 C   0  0  0  0  0  2  0  0  0  0  0  0
  191.2510  179.8340  143.9030 N   0  0  0  0  0  0  0  0  0  0  0  0
  190.7860  178.9020  144.4050 C   0  0  0  0  0  0  0  0  0  0  0  0
  188.6430  176.3930  142.5590 C   0  0  0  0  0  2  0  0  0  0  0  0
  189.7800  176.5520  141.5560 C   0  0  2  0  0  3  0  0  0  0  0  0
  190.9950  176.2360  142.1370 F   0  0  0  0  0  0  0  0  0  0  0  0
  189.8120  177.9630  140.9820 C   0  0  0  0  0  2  0  0  0  0  0  0
  187.7750  177.7780  138.3910 C   0  0  0  0  0  0  0  0  0  0  0  0
  188.5140  178.6130  139.0300 N   0  0  0  0  0  0  0  0  0  0  0  0
  188.3130  176.5130  138.2980 O   0  0  0  0  0  0  0  0  0  0  0  0
  189.7280  177.9340  139.4630 C   0  0  2  0  0  3  0  0  0  0  0  0
  189.5630  176.4910  138.9650 C   0  0  2  0  0  3  0  0  0  0  0  0
  186.4600  178.1520  137.8070 C   0  0  0  0  0  1  0  0  0  0  0  0
  190.6700  176.1640  137.9790 C   0  0  0  0  0  2  0  0  0  0  0  0
  191.1330  174.8670  138.2020 O   0  0  0  0  0  1  0  0  0  0  0  0
  1 11  1  0  0  0  0
  2 13  1  0  0  0  0
  2  1  2  0  0  0  0
  3  6  2  0  0  0  0
  4  1  1  0  0  0  0
  5  4  2  0  0  0  0
  6  7  1  0  0  0  0
  6  5  1  0  0  0  0
  7 16  1  1  0  0  0
  7  2  1  0  0  0  0
  9 10  1  0  0  0  0
 11  8  1  0  0  0  0
 11  9  1  0  0  0  0
 12  9  2  0  0  0  0
 14 15  3  0  0  0  0
 15 13  1  0  0  0  0
 17 18  1  1  0  0  0
 17 16  1  0  0  0  0
 19 17  1  0  0  0  0
 20 21  2  0  0  0  0
 21 23  1  0  0  0  0
 22 20  1  0  0  0  0
 22 24  1  0  0  0  0
 23 19  1  1  0  0  0
 24 26  1  6  0  0  0
 24 23  1  0  0  0  0
 25 20  1  0  0  0  0
 26 27  1  0  0  0  0
M  END
>  <MODEL>
3

>  <REMARK>
 VINA RESULT:      -7.1      3.028      5.767
  Name = 
  8 active torsions:
  status: ('A' for Active; 'I' for Inactive)
    1  A    between atoms: C_1  and  N_20
    2  A    between atoms: C_2  and  C_5
    3  A    between atoms: C_2  and  C_19
    4  A    between atoms: C_3  and  C_23
    5  A    between atoms: C_5  and  C_21
    6  A    between atoms: C_9  and  C_17
    7  A    between atoms: C_17  and  C_22
    8  A    between atoms: C_19  and  C_24
                            x       y       z     vdW  Elec       q    Type
                         _______ _______ _______ _____ _____    ______ ____

>  <TORSDO>
F 8

$$$$
=
 OpenBabel10232411443D

 27 28  0  0  1  0  0  0  0  0999 V2000
  188.5330  178.1660  139.4670 C   0  0  0  0  0  0  0  0  0  0  0  0
  189.6200  177.5430  139.9850 C   0  0  0  0  0  0  0  0  0  0  0  0
  188.1930  176.5750  143.2260 O   0  0  0  0  0  0  0  0  0  0  0  0
  187.3350  178.3960  140.3050 C   0  0  0  0  0  3  0  0  0  0  0  0
  187.2390  177.9210  141.5440 C   0  0  0  0  0  3  0  0  0  0  0  0
  188.3520  177.1720  142.1290 C   0  0  0  0  0  0  0  0  0  0  0  0
  189.6940  177.1580  141.4500 C   0  0  2  0  0  3  0  0  0  0  0  0
  189.0390  179.7730  137.7360 O   0  0  0  0  0  1  0  0  0  0  0  0
  187.8220  177.8140  137.0820 C   0  0  0  0  0  0  0  0  0  0  0  0
  187.6740  178.3300  135.8010 O   0  0  0  0  0  0  0  0  0  0  0  0
  188.4970  178.5810  138.0880 N   0  0  0  0  0  0  0  0  0  0  0  0
  187.3790  176.6630  137.3390 O   0  0  0  0  0  1  0  0  0  0  0  0
  190.7860  177.1710  139.1160 C   0  0  0  0  0  2  0  0  0  0  0  0
  190.4460  174.7930  138.0600 N   0  0  0  0  0  0  0  0  0  0  0  0
  190.5950  175.8410  138.5250 C   0  0  0  0  0  0  0  0  0  0  0  0
  190.6480  178.0920  142.1920 C   0  0  0  0  0  2  0  0  0  0  0  0
  191.5350  177.3410  143.1780 C   0  0  2  0  0  3  0  0  0  0  0  0
  191.2590  175.9860  143.1530 F   0  0  0  0  0  0  0  0  0  0  0  0
  191.3780  177.8930  144.5890 C   0  0  0  0  0  2  0  0  0  0  0  0
  189.5230  177.2990  147.2550 C   0  0  0  0  0  0  0  0  0  0  0  0
  189.5210  177.1550  145.9770 N   0  0  0  0  0  0  0  0  0  0  0  0
  190.7560  177.1060  147.8370 O   0  0  0  0  0  0  0  0  0  0  0  0
  190.8690  176.8180  145.5390 C   0  0  2  0  0  3  0  0  0  0  0  0
  191.7040  176.8050  146.8260 C   0  0  2  0  0  3  0  0  0  0  0  0
  188.2990  177.6420  148.0260 C   0  0  0  0  0  1  0  0  0  0  0  0
  192.2730  175.4160  147.0500 C   0  0  0  0  0  2  0  0  0  0  0  0
  193.1790  175.4420  148.1110 O   0  0  0  0  0  1  0  0  0  0  0  0
  1  2  2  0  0  0  0
  1  4  1  0  0  0  0
  2  7  1  0  0  0  0
  4  5  2  0  0  0  0
  5  6  1  0  0  0  0
  6  3  2  0  0  0  0
  7  6  1  0  0  0  0
  7 16  1  1  0  0  0
  8 11  1  0  0  0  0
  9 12  1  0  0  0  0
  9 11  1  0  0  0  0
 10  9  2  0  0  0  0
 11  1  1  0  0  0  0
 13  2  1  0  0  0  0
 14 15  3  0  0  0  0
 15 13  1  0  0  0  0
 16 17  1  0  0  0  0
 17 18  1  1  0  0  0
 17 19  1  0  0  0  0
 20 22  1  0  0  0  0
 20 25  1  0  0  0  0
 21 20  2  0  0  0  0
 23 19  1  6  0  0  0
 23 21  1  0  0  0  0
 23 24  1  0  0  0  0
 24 26  1  1  0  0  0
 24 22  1  0  0  0  0
 26 27  1  0  0  0  0
M  END
>  <MODEL>
4

>  <REMARK>
 VINA RESULT:      -7.1      3.498      7.058
  Name = 
  8 active torsions:
  status: ('A' for Active; 'I' for Inactive)
    1  A    between atoms: C_1  and  N_20
    2  A    between atoms: C_2  and  C_5
    3  A    between atoms: C_2  and  C_19
    4  A    between atoms: C_3  and  C_23
    5  A    between atoms: C_5  and  C_21
    6  A    between atoms: C_9  and  C_17
    7  A    between atoms: C_17  and  C_22
    8  A    between atoms: C_19  and  C_24
                            x       y       z     vdW  Elec       q    Type
                         _______ _______ _______ _____ _____    ______ ____

>  <TORSDO>
F 8

$$$$
=
 OpenBabel10232411443D

 27 28  0  0  1  0  0  0  0  0999 V2000
  190.6750  177.0430  146.0770 C   0  0  0  0  0  0  0  0  0  0  0  0
  189.3320  176.8700  146.1420 C   0  0  0  0  0  0  0  0  0  0  0  0
  188.5940  177.0230  142.5500 O   0  0  0  0  0  0  0  0  0  0  0  0
  191.3230  177.3740  144.7880 C   0  0  0  0  0  3  0  0  0  0  0  0
  190.6420  177.4150  143.6460 C   0  0  0  0  0  3  0  0  0  0  0  0
  189.2010  177.1590  143.6440 C   0  0  0  0  0  0  0  0  0  0  0  0
  188.4400  177.1100  144.9400 C   0  0  2  0  0  3  0  0  0  0  0  0
  191.5270  177.8320  148.1950 O   0  0  0  0  0  1  0  0  0  0  0  0
  192.3930  175.7510  147.3800 C   0  0  0  0  0  0  0  0  0  0  0  0
  193.2930  175.7070  148.4370 O   0  0  0  0  0  1  0  0  0  0  0  0
  191.5080  176.8700  147.2400 N   0  0  0  0  0  0  0  0  0  0  0  0
  192.3510  174.7910  146.5660 O   0  0  0  0  0  0  0  0  0  0  0  0
  188.6740  176.3930  147.4040 C   0  0  0  0  0  2  0  0  0  0  0  0
  187.8580  178.4190  148.8580 N   0  0  0  0  0  0  0  0  0  0  0  0
  188.2170  177.5260  148.2180 C   0  0  0  0  0  0  0  0  0  0  0  0
  187.6560  178.4100  145.1180 C   0  0  0  0  0  2  0  0  0  0  0  0
  186.1510  178.1720  145.1580 C   0  0  2  0  0  3  0  0  0  0  0  0
  185.8230  177.2760  146.1600 F   0  0  0  0  0  0  0  0  0  0  0  0
  185.6370  177.6800  143.8120 C   0  0  0  0  0  2  0  0  0  0  0  0
  182.6660  178.9230  143.0810 C   0  0  0  0  0  0  0  0  0  0  0  0
  183.6950  179.1460  143.8200 N   0  0  0  0  0  0  0  0  0  0  0  0
  182.9710  178.4180  141.8360 O   0  0  0  0  0  0  0  0  0  0  0  0
  184.8950  178.7870  143.0760 C   0  0  2  0  0  3  0  0  0  0  0  0
  184.3770  178.2760  141.7250 C   0  0  2  0  0  3  0  0  0  0  0  0
  181.2770  179.1870  143.5390 C   0  0  0  0  0  1  0  0  0  0  0  0
  184.9000  179.1630  140.6100 C   0  0  0  0  0  2  0  0  0  0  0  0
  186.2060  178.7960  140.2880 O   0  0  0  0  0  1  0  0  0  0  0  0
  1  2  2  0  0  0  0
  1 11  1  0  0  0  0
  2 13  1  0  0  0  0
  3  6  2  0  0  0  0
  4  1  1  0  0  0  0
  5  4  2  0  0  0  0
  6  5  1  0  0  0  0
  6  7  1  0  0  0  0
  7 16  1  1  0  0  0
  7  2  1  0  0  0  0
  9 10  1  0  0  0  0
 11  9  1  0  0  0  0
 11  8  1  0  0  0  0
 12  9  2  0  0  0  0
 13 15  1  0  0  0  0
 15 14  3  0  0  0  0
 16 17  1  0  0  0  0
 17 18  1  1  0  0  0
 19 17  1  0  0  0  0
 20 25  1  0  0  0  0
 20 21  2  0  0  0  0
 22 20  1  0  0  0  0
 23 19  1  1  0  0  0
 23 21  1  0  0  0  0
 24 26  1  6  0  0  0
 24 22  1  0  0  0  0
 24 23  1  0  0  0  0
 27 26  1  0  0  0  0
M  END
>  <MODEL>
5

>  <REMARK>
 VINA RESULT:      -6.8      2.771      3.694
  Name = 
  8 active torsions:
  status: ('A' for Active; 'I' for Inactive)
    1  A    between atoms: C_1  and  N_20
    2  A    between atoms: C_2  and  C_5
    3  A    between atoms: C_2  and  C_19
    4  A    between atoms: C_3  and  C_23
    5  A    between atoms: C_5  and  C_21
    6  A    between atoms: C_9  and  C_17
    7  A    between atoms: C_17  and  C_22
    8  A    between atoms: C_19  and  C_24
                            x       y       z     vdW  Elec       q    Type
                         _______ _______ _______ _____ _____    ______ ____

>  <TORSDO>
F 8

$$$$
=
 OpenBabel10232411443D

 27 28  0  0  1  0  0  0  0  0999 V2000
  188.0490  177.4690  145.5550 C   0  0  0  0  0  0  0  0  0  0  0  0
  188.9890  177.7750  144.6270 C   0  0  0  0  0  0  0  0  0  0  0  0
  186.7610  178.3060  141.7580 O   0  0  0  0  0  0  0  0  0  0  0  0
  186.6360  177.2880  145.1540 C   0  0  0  0  0  3  0  0  0  0  0  0
  186.2210  177.5140  143.9100 C   0  0  0  0  0  3  0  0  0  0  0  0
  187.1790  177.9230  142.8820 C   0  0  0  0  0  0  0  0  0  0  0  0
  188.6560  177.8380  143.1490 C   0  0  2  0  0  3  0  0  0  0  0  0
  189.2540  176.3880  147.3480 O   0  0  0  0  0  1  0  0  0  0  0  0
  187.7650  178.1670  147.9520 C   0  0  0  0  0  0  0  0  0  0  0  0
  188.0020  177.9120  149.2970 O   0  0  0  0  0  1  0  0  0  0  0  0
  188.3880  177.3520  146.9500 N   0  0  0  0  0  0  0  0  0  0  0  0
  187.0220  179.1310  147.6290 O   0  0  0  0  0  0  0  0  0  0  0  0
  190.3960  178.1040  145.0310 C   0  0  0  0  0  2  0  0  0  0  0  0
  191.9060  175.9580  144.9980 N   0  0  0  0  0  0  0  0  0  0  0  0
  191.2410  176.9030  145.0120 C   0  0  0  0  0  0  0  0  0  0  0  0
  189.2330  176.6210  142.4270 C   0  0  0  0  0  2  0  0  0  0  0  0
  190.2750  177.0120  141.3850 C   0  0  2  0  0  3  0  0  0  0  0  0
  191.2330  177.8430  141.9380 F   0  0  0  0  0  0  0  0  0  0  0  0
  189.6240  177.6750  140.1790 C   0  0  0  0  0  2  0  0  0  0  0  0
  191.3810  175.9770  137.9580 C   0  0  0  0  0  0  0  0  0  0  0  0
  190.6980  175.8150  139.0350 N   0  0  0  0  0  0  0  0  0  0  0  0
  190.8600  176.9230  137.1030 O   0  0  0  0  0  0  0  0  0  0  0  0
  189.5490  176.7110  139.0040 C   0  0  2  0  0  3  0  0  0  0  0  0
  189.6870  177.4730  137.6790 C   0  0  2  0  0  3  0  0  0  0  0  0
  192.6200  175.2090  137.6700 C   0  0  0  0  0  1  0  0  0  0  0  0
  188.4900  177.1770  136.7940 C   0  0  0  0  0  2  0  0  0  0  0  0
  187.3840  176.8660  137.5850 O   0  0  0  0  0  1  0  0  0  0  0  0
  1 11  1  0  0  0  0
  2 13  1  0  0  0  0
  2  1  2  0  0  0  0
  3  6  2  0  0  0  0
  4  1  1  0  0  0  0
  5  4  2  0  0  0  0
  6  7  1  0  0  0  0
  6  5  1  0  0  0  0
  7 16  1  6  0  0  0
  7  2  1  0  0  0  0
  9 10  1  0  0  0  0
 11  8  1  0  0  0  0
 11  9  1  0  0  0  0
 12  9  2  0  0  0  0
 14 15  3  0  0  0  0
 15 13  1  0  0  0  0
 17 18  1  1  0  0  0
 17 16  1  0  0  0  0
 19 17  1  0  0  0  0
 20 21  2  0  0  0  0
 22 24  1  0  0  0  0
 22 20  1  0  0  0  0
 23 21  1  0  0  0  0
 23 19  1  1  0  0  0
 24 26  1  6  0  0  0
 24 23  1  0  0  0  0
 25 20  1  0  0  0  0
 26 27  1  0  0  0  0
M  END
>  <MODEL>
6

>  <REMARK>
 VINA RESULT:      -6.7      3.083      6.373
  Name = 
  8 active torsions:
  status: ('A' for Active; 'I' for Inactive)
    1  A    between atoms: C_1  and  N_20
    2  A    between atoms: C_2  and  C_5
    3  A    between atoms: C_2  and  C_19
    4  A    between atoms: C_3  and  C_23
    5  A    between atoms: C_5  and  C_21
    6  A    between atoms: C_9  and  C_17
    7  A    between atoms: C_17  and  C_22
    8  A    between atoms: C_19  and  C_24
                            x       y       z     vdW  Elec       q    Type
                         _______ _______ _______ _____ _____    ______ ____

>  <TORSDO>
F 8

$$$$
=
 OpenBabel10232411443D

 27 28  0  0  1  0  0  0  0  0999 V2000
  190.6380  177.1220  139.4600 C   0  0  0  0  0  0  0  0  0  0  0  0
  189.7140  177.2580  140.4440 C   0  0  0  0  0  0  0  0  0  0  0  0
  191.9620  178.2960  143.1540 O   0  0  0  0  0  0  0  0  0  0  0  0
  192.0810  177.2380  139.7710 C   0  0  0  0  0  3  0  0  0  0  0  0
  192.5170  177.5730  140.9820 C   0  0  0  0  0  3  0  0  0  0  0  0
  191.5610  177.8090  142.0650 C   0  0  0  0  0  0  0  0  0  0  0  0
  190.1170  177.4240  141.8960 C   0  0  2  0  0  3  0  0  0  0  0  0
  189.8110  177.9520  137.3490 O   0  0  0  0  0  1  0  0  0  0  0  0
  190.2080  175.5940  137.5120 C   0  0  0  0  0  0  0  0  0  0  0  0
  189.6710  175.4120  136.2440 O   0  0  0  0  0  0  0  0  0  0  0  0
  190.2450  176.9050  138.0920 N   0  0  0  0  0  0  0  0  0  0  0  0
  190.6810  174.6030  138.1300 O   0  0  0  0  0  1  0  0  0  0  0  0
  188.2470  177.2890  140.1280 C   0  0  0  0  0  2  0  0  0  0  0  0
  187.0760  179.3100  141.3230 N   0  0  0  0  0  0  0  0  0  0  0  0
  187.5910  178.4190  140.7960 C   0  0  0  0  0  0  0  0  0  0  0  0
  189.8420  176.1350  142.6690 C   0  0  0  0  0  2  0  0  0  0  0  0
  188.8510  176.3480  143.8080 C   0  0  2  0  0  3  0  0  0  0  0  0
  187.6170  175.8080  143.4920 F   0  0  0  0  0  0  0  0  0  0  0  0
  188.7160  177.8260  144.1480 C   0  0  0  0  0  2  0  0  0  0  0  0
  190.5440  176.7400  146.6740 C   0  0  0  0  0  0  0  0  0  0  0  0
  190.5190  177.6570  145.7730 N   0  0  0  0  0  0  0  0  0  0  0  0
  189.3050  176.4300  147.1910 O   0  0  0  0  0  0  0  0  0  0  0  0
  189.1420  178.0940  145.5840 C   0  0  2  0  0  3  0  0  0  0  0  0
  188.3240  177.2310  146.5540 C   0  0  2  0  0  3  0  0  0  0  0  0
  191.8010  176.0780  147.1110 C   0  0  0  0  0  1  0  0  0  0  0  0
  187.6400  178.1210  147.5760 C   0  0  0  0  0  2  0  0  0  0  0  0
  187.9190  177.6620  148.8630 O   0  0  0  0  0  1  0  0  0  0  0  0
  1  4  1  0  0  0  0
  1  2  2  0  0  0  0
  2  7  1  0  0  0  0
  4  5  2  0  0  0  0
  5  6  1  0  0  0  0
  6  3  2  0  0  0  0
  7  6  1  0  0  0  0
  7 16  1  1  0  0  0
  8 11  1  0  0  0  0
  9 11  1  0  0  0  0
  9 12  1  0  0  0  0
 10  9  2  0  0  0  0
 11  1  1  0  0  0  0
 13  2  1  0  0  0  0
 13 15  1  0  0  0  0
 15 14  3  0  0  0  0
 16 17  1  0  0  0  0
 17 18  1  6  0  0  0
 17 19  1  0  0  0  0
 20 25  1  0  0  0  0
 20 22  1  0  0  0  0
 21 20  2  0  0  0  0
 23 19  1  6  0  0  0
 23 21  1  0  0  0  0
 23 24  1  0  0  0  0
 24 22  1  0  0  0  0
 24 26  1  1  0  0  0
 26 27  1  0  0  0  0
M  END
>  <MODEL>
7

>  <REMARK>
 VINA RESULT:      -6.6      3.326      5.913
  Name = 
  8 active torsions:
  status: ('A' for Active; 'I' for Inactive)
    1  A    between atoms: C_1  and  N_20
    2  A    between atoms: C_2  and  C_5
    3  A    between atoms: C_2  and  C_19
    4  A    between atoms: C_3  and  C_23
    5  A    between atoms: C_5  and  C_21
    6  A    between atoms: C_9  and  C_17
    7  A    between atoms: C_17  and  C_22
    8  A    between atoms: C_19  and  C_24
                            x       y       z     vdW  Elec       q    Type
                         _______ _______ _______ _____ _____    ______ ____

>  <TORSDO>
F 8

$$$$
=
 OpenBabel10232411443D

 27 28  0  0  1  0  0  0  0  0999 V2000
  181.7030  179.2480  140.6170 C   0  0  0  0  0  0  0  0  0  0  0  0
  182.5230  178.5870  141.4710 C   0  0  0  0  0  0  0  0  0  0  0  0
  180.2970  178.4900  144.3880 O   0  0  0  0  0  0  0  0  0  0  0  0
  180.4210  179.8100  141.0980 C   0  0  0  0  0  3  0  0  0  0  0  0
  179.9820  179.6060  142.3370 C   0  0  0  0  0  3  0  0  0  0  0  0
  180.7890  178.8320  143.2810 C   0  0  0  0  0  0  0  0  0  0  0  0
  182.2170  178.4900  142.9530 C   0  0  2  0  0  3  0  0  0  0  0  0
  182.7730  180.4450  138.8130 O   0  0  0  0  0  1  0  0  0  0  0  0
  181.5230  178.4850  138.2290 C   0  0  0  0  0  0  0  0  0  0  0  0
  181.7340  178.7480  136.8810 O   0  0  0  0  0  0  0  0  0  0  0  0
  182.0330  179.3860  139.2210 N   0  0  0  0  0  0  0  0  0  0  0  0
  180.9050  177.4400  138.5640 O   0  0  0  0  0  1  0  0  0  0  0  0
  183.7540  177.8870  140.9740 C   0  0  0  0  0  2  0  0  0  0  0  0
  185.8360  179.4820  141.0540 N   0  0  0  0  0  0  0  0  0  0  0  0
  184.9180  178.7790  141.0180 C   0  0  0  0  0  0  0  0  0  0  0  0
  183.1520  179.4030  143.7440 C   0  0  0  0  0  2  0  0  0  0  0  0
  183.9820  178.6300  144.7620 C   0  0  2  0  0  3  0  0  0  0  0  0
  183.5510  178.8950  146.0500 F   0  0  0  0  0  0  0  0  0  0  0  0
  185.4640  178.9490  144.6180 C   0  0  0  0  0  2  0  0  0  0  0  0
  187.8710  177.5640  146.4040 C   0  0  0  0  0  0  0  0  0  0  0  0
  186.5980  177.5210  146.2290 N   0  0  0  0  0  0  0  0  0  0  0  0
  188.5880  177.7640  145.2450 O   0  0  0  0  0  0  0  0  0  0  0  0
  186.3110  177.7000  144.8120 C   0  0  2  0  0  3  0  0  0  0  0  0
  187.6870  177.8800  144.1570 C   0  0  2  0  0  3  0  0  0  0  0  0
  188.5040  177.4100  147.7400 C   0  0  0  0  0  1  0  0  0  0  0  0
  187.9290  176.7580  143.1640 C   0  0  0  0  0  2  0  0  0  0  0  0
  189.1620  176.1580  143.4210 O   0  0  0  0  0  1  0  0  0  0  0  0
  1  4  1  0  0  0  0
  1  2  2  0  0  0  0
  2  7  1  0  0  0  0
  4  5  2  0  0  0  0
  5  6  1  0  0  0  0
  6  3  2  0  0  0  0
  7  6  1  0  0  0  0
  7 16  1  1  0  0  0
  8 11  1  0  0  0  0
  9 12  1  0  0  0  0
  9 11  1  0  0  0  0
 10  9  2  0  0  0  0
 11  1  1  0  0  0  0
 13 15  1  0  0  0  0
 13  2  1  0  0  0  0
 15 14  3  0  0  0  0
 16 17  1  0  0  0  0
 17 18  1  1  0  0  0
 19 17  1  0  0  0  0
 20 25  1  0  0  0  0
 21 20  2  0  0  0  0
 22 20  1  0  0  0  0
 23 19  1  1  0  0  0
 23 21  1  0  0  0  0
 24 26  1  6  0  0  0
 24 23  1  0  0  0  0
 24 22  1  0  0  0  0
 26 27  1  0  0  0  0
M  END
>  <MODEL>
8

>  <REMARK>
 VINA RESULT:      -6.6      3.131      8.344
  Name = 
  8 active torsions:
  status: ('A' for Active; 'I' for Inactive)
    1  A    between atoms: C_1  and  N_20
    2  A    between atoms: C_2  and  C_5
    3  A    between atoms: C_2  and  C_19
    4  A    between atoms: C_3  and  C_23
    5  A    between atoms: C_5  and  C_21
    6  A    between atoms: C_9  and  C_17
    7  A    between atoms: C_17  and  C_22
    8  A    between atoms: C_19  and  C_24
                            x       y       z     vdW  Elec       q    Type
                         _______ _______ _______ _____ _____    ______ ____

>  <TORSDO>
F 8

$$$$
=
 OpenBabel10232411443D

 27 28  0  0  1  0  0  0  0  0999 V2000
  188.6160  177.6960  139.7710 C   0  0  0  0  0  0  0  0  0  0  0  0
  188.3980  178.1030  141.0460 C   0  0  0  0  0  0  0  0  0  0  0  0
  191.4380  176.7300  142.5790 O   0  0  0  0  0  0  0  0  0  0  0  0
  189.7510  176.7980  139.4590 C   0  0  0  0  0  3  0  0  0  0  0  0
  190.6440  176.4430  140.3790 C   0  0  0  0  0  3  0  0  0  0  0  0
  190.5030  176.9170  141.7560 C   0  0  0  0  0  0  0  0  0  0  0  0
  189.2290  177.5790  142.2020 C   0  0  2  0  0  3  0  0  0  0  0  0
  186.5500  177.6170  138.5250 O   0  0  0  0  0  1  0  0  0  0  0  0
  188.2540  179.0950  137.7150 C   0  0  0  0  0  0  0  0  0  0  0  0
  187.4780  179.3850  136.6000 O   0  0  0  0  0  0  0  0  0  0  0  0
  187.7840  178.1520  138.6880 N   0  0  0  0  0  0  0  0  0  0  0  0
  189.3570  179.6850  137.8700 O   0  0  0  0  0  1  0  0  0  0  0  0
  187.3450  179.1250  141.3610 C   0  0  0  0  0  2  0  0  0  0  0  0
  185.1460  177.9710  142.2100 N   0  0  0  0  0  0  0  0  0  0  0  0
  186.1150  178.4800  141.8360 C   0  0  0  0  0  0  0  0  0  0  0  0
  188.4090  176.5950  143.0340 C   0  0  0  0  0  2  0  0  0  0  0  0
  188.3060  177.0240  144.4940 C   0  0  2  0  0  3  0  0  0  0  0  0
  187.0180  177.4250  144.7970 F   0  0  0  0  0  0  0  0  0  0  0  0
  189.3000  178.1330  144.8110 C   0  0  0  0  0  2  0  0  0  0  0  0
  191.1120  176.4770  147.0190 C   0  0  0  0  0  0  0  0  0  0  0  0
  191.1060  177.5700  146.3420 N   0  0  0  0  0  0  0  0  0  0  0  0
  189.8680  176.0900  147.4680 O   0  0  0  0  0  0  0  0  0  0  0  0
  189.7390  178.0700  146.2670 C   0  0  2  0  0  3  0  0  0  0  0  0
  188.9040  177.0330  147.0310 C   0  0  2  0  0  3  0  0  0  0  0  0
  192.3550  175.7070  147.2890 C   0  0  0  0  0  1  0  0  0  0  0  0
  188.2470  177.6920  148.2300 C   0  0  0  0  0  2  0  0  0  0  0  0
  187.1140  178.3960  147.8190 O   0  0  0  0  0  1  0  0  0  0  0  0
  1  2  2  0  0  0  0
  2 13  1  0  0  0  0
  2  7  1  0  0  0  0
  4  1  1  0  0  0  0
  4  5  2  0  0  0  0
  5  6  1  0  0  0  0
  6  7  1  0  0  0  0
  6  3  2  0  0  0  0
  7 16  1  6  0  0  0
  8 11  1  0  0  0  0
  9 12  1  0  0  0  0
  9 11  1  0  0  0  0
 10  9  2  0  0  0  0
 11  1  1  0  0  0  0
 13 15  1  0  0  0  0
 15 14  3  0  0  0  0
 16 17  1  0  0  0  0
 17 18  1  6  0  0  0
 17 19  1  0  0  0  0
 20 25  1  0  0  0  0
 20 22  1  0  0  0  0
 21 20  2  0  0  0  0
 23 19  1  6  0  0  0
 23 21  1  0  0  0  0
 23 24  1  0  0  0  0
 24 22  1  0  0  0  0
 24 26  1  1  0  0  0
 27 26  1  0  0  0  0
M  END
>  <MODEL>
9

>  <REMARK>
 VINA RESULT:      -6.4      2.746      6.214
  Name = 
  8 active torsions:
  status: ('A' for Active; 'I' for Inactive)
    1  A    between atoms: C_1  and  N_20
    2  A    between atoms: C_2  and  C_5
    3  A    between atoms: C_2  and  C_19
    4  A    between atoms: C_3  and  C_23
    5  A    between atoms: C_5  and  C_21
    6  A    between atoms: C_9  and  C_17
    7  A    between atoms: C_17  and  C_22
    8  A    between atoms: C_19  and  C_24
                            x       y       z     vdW  Elec       q    Type
                         _______ _______ _______ _____ _____    ______ ____

>  <TORSDO>
F 8

$$$$
