=
 OpenBabel10232411203D

 50 54  0  0  1  0  0  0  0  0999 V2000
  188.9330  176.5050  137.1210 N   0  0  0  0  0  0  0  0  0  0  0  0
  192.3760  175.9870  135.6010 C   0  0  0  0  0  2  0  0  0  0  0  0
  190.8940  174.3700  137.0660 C   0  0  0  0  0  2  0  0  0  0  0  0
  193.4500  174.9030  135.8380 C   0  0  2  0  0  3  0  0  0  0  0  0
  190.1770  176.6630  136.4240 C   0  0  0  0  0  3  0  0  0  0  0  0
  192.8480  173.5190  135.8070 C   0  0  0  0  0  3  0  0  0  0  0  0
  191.6560  173.2720  136.3710 C   0  0  0  0  0  3  0  0  0  0  0  0
  191.0870  175.6860  136.3360 C   0  0  0  0  0  0  0  0  0  0  0  0
  194.1760  175.1950  137.1520 C   0  0  0  0  0  2  0  0  0  0  0  0
  195.6180  175.2430  136.9310 N   0  0  0  0  0  2  0  0  0  0  0  0
  196.0820  172.9320  137.6500 C   0  0  0  0  0  2  0  0  0  0  0  0
  197.3730  172.4330  137.0070 C   0  0  2  0  0  3  0  0  0  0  0  0
  197.7710  174.6520  137.8960 C   0  0  2  0  0  3  0  0  0  0  0  0
  196.2700  174.4190  137.9530 C   0  0  1  0  0  3  0  0  0  0  0  0
  198.4420  173.2920  137.6610 C   0  0  0  0  0  2  0  0  0  0  0  0
  198.2640  175.3920  139.0730 N   0  0  0  0  0  0  0  0  0  0  0  0
  197.4760  175.0830  140.2620 C   0  0  0  0  0  1  0  0  0  0  0  0
  199.6400  174.9820  139.3340 C   0  0  0  0  0  1  0  0  0  0  0  0
  198.6820  172.5790  135.1890 C   0  0  0  0  0  1  0  0  0  0  0  0
  197.3570  172.7180  135.6310 O   0  0  0  0  0  0  0  0  0  0  0  0
  188.0860  178.1590  138.7460 C   0  0  0  0  0  2  0  0  0  0  0  0
  187.7710  178.3300  140.2260 C   0  0  0  0  0  2  0  0  0  0  0  0
  190.0750  177.4420  140.6710 C   0  0  0  0  0  0  0  0  0  0  0  0
  188.8150  176.8310  138.5520 C   0  0  2  0  0  3  0  0  0  0  0  0
  190.1750  176.8950  139.2730 C   0  0  0  0  0  2  0  0  0  0  0  0
  188.9990  178.1510  141.0760 C   0  0  0  0  0  3  0  0  0  0  0  0
  191.3140  175.7160  143.6210 C   0  0  0  0  0  3  0  0  0  0  0  0
  191.2520  177.2900  141.5400 C   0  0  0  0  0  3  0  0  0  0  0  0
  191.2750  176.4990  142.5800 C   0  0  0  0  0  0  0  0  0  0  0  0
  191.7890  176.2680  144.9200 C   0  0  0  0  0  2  0  0  0  0  0  0
  190.6220  176.9030  145.6690 C   0  0  0  0  0  2  0  0  0  0  0  0
  191.0880  179.0450  144.6940 O   0  0  0  0  0  0  0  0  0  0  0  0
  188.8430  178.6240  145.0160 N   0  0  0  0  0  2  0  0  0  0  0  0
  190.2090  178.2200  145.0650 C   0  0  0  0  0  0  0  0  0  0  0  0
  184.5890  178.7950  143.5250 C   0  0  0  0  0  1  0  0  0  0  0  0
  187.6650  177.7870  145.2280 C   0  0  1  0  0  0  0  0  0  0  0  0
  186.3920  178.6200  145.2220 C   0  0  1  0  0  3  0  0  0  0  0  0
  187.5070  176.8600  144.0320 C   0  0  0  0  0  2  0  0  0  0  0  0
  185.4830  177.8430  144.2950 C   0  0  2  0  0  3  0  0  0  0  0  0
  186.2790  177.1240  143.3770 O   0  0  0  0  0  0  0  0  0  0  0  0
  185.7190  178.7630  146.5870 C   0  0  0  0  0  1  0  0  0  0  0  0
  187.8080  177.0270  146.3920 O   0  0  0  0  0  1  0  0  0  0  0  0
  186.7870  173.5280  136.7810 C   0  0  0  0  0  3  0  0  0  0  0  0
  186.2740  173.6900  135.4970 C   0  0  0  0  0  2  0  0  0  0  0  0
  188.0090  175.5500  136.5580 C   0  0  2  0  0  3  0  0  0  0  0  0
  187.6430  174.4570  137.2820 N   0  0  0  0  0  0  0  0  0  0  0  0
  187.4860  175.7160  135.2650 C   0  0  0  0  0  0  0  0  0  0  0  0
  186.6330  174.7770  134.7630 N   0  0  0  0  0  0  0  0  0  0  0  0
  186.9820  177.9880  134.4490 C   0  0  0  0  0  1  0  0  0  0  0  0
  187.8150  176.8460  134.5140 O   0  0  0  0  0  0  0  0  0  0  0  0
  2  4  1  0  0  0  0
  2  8  1  0  0  0  0
  4  9  1  1  0  0  0
  5  1  1  0  0  0  0
  6  4  1  0  0  0  0
  6  7  2  0  0  0  0
  7  3  1  0  0  0  0
  8  5  2  0  0  0  0
  8  3  1  0  0  0  0
 10  9  1  0  0  0  0
 11 14  1  0  0  0  0
 12 20  1  6  0  0  0
 12 11  1  0  0  0  0
 12 15  1  0  0  0  0
 13 14  1  0  0  0  0
 13 16  1  1  0  0  0
 14 10  1  6  0  0  0
 15 13  1  0  0  0  0
 16 18  1  0  0  0  0
 16 17  1  0  0  0  0
 19 20  1  0  0  0  0
 21 22  1  0  0  0  0
 22 26  1  0  0  0  0
 23 26  2  0  0  0  0
 23 28  1  0  0  0  0
 24  1  1  6  0  0  0
 24 21  1  0  0  0  0
 24 25  1  0  0  0  0
 25 23  1  0  0  0  0
 27 30  1  0  0  0  0
 28 29  2  0  0  0  0
 29 27  2  0  0  0  0
 30 31  1  0  0  0  0
 32 34  2  0  0  0  0
 33 34  1  0  0  0  0
 33 36  1  0  0  0  0
 34 31  1  0  0  0  0
 36 42  1  1  0  0  0
 37 36  1  0  0  0  0
 37 41  1  1  0  0  0
 38 36  1  0  0  0  0
 39 35  1  6  0  0  0
 39 37  1  0  0  0  0
 40 38  1  0  0  0  0
 40 39  1  0  0  0  0
 43 46  2  0  0  0  0
 44 43  1  0  0  0  0
 45  1  1  6  0  0  0
 45 46  1  0  0  0  0
 47 45  1  0  0  0  0
 48 47  2  0  0  0  0
 48 44  1  0  0  0  0
 49 50  1  0  0  0  0
 50 47  1  0  0  0  0
M  END
>  <MODEL>
1

>  <REMARK>
 VINA RESULT:      -7.5      0.000      0.000
  Name = 
  14 active torsions:
  status: ('A' for Active; 'I' for Inactive)
    1  A    between atoms: N_1  and  C_7
    2  A    between atoms: N_1  and  C_49
    3  A    between atoms: C_4  and  N_33
    4  A    between atoms: C_7  and  C_23
    5  A    between atoms: C_12  and  C_14
    6  A    between atoms: C_12  and  C_43
    7  A    between atoms: C_14  and  C_15
    8  A    between atoms: N_17  and  C_22
    9  A    between atoms: N_17  and  C_24
   10  A    between atoms: N_17  and  C_32
   11  A    between atoms: C_19  and  C_36
   12  A    between atoms: C_27  and  O_44
   13  A    between atoms: N_29  and  C_48
   14  A    between atoms: O_35  and  C_41
                            x       y       z     vdW  Elec       q    Type
                         _______ _______ _______ _____ _____    ______ ____

>  <TORSDO>
F 14

$$$$
=
 OpenBabel10232411203D

 50 54  0  0  1  0  0  0  0  0999 V2000
  184.1850  177.1150  137.9080 N   0  0  0  0  0  0  0  0  0  0  0  0
  187.9650  177.0490  138.2770 C   0  0  0  0  0  2  0  0  0  0  0  0
  186.4420  178.3070  136.5310 C   0  0  0  0  0  2  0  0  0  0  0  0
  189.0970  177.5180  137.3380 C   0  0  2  0  0  3  0  0  0  0  0  0
  185.5300  176.8580  138.3360 C   0  0  0  0  0  3  0  0  0  0  0  0
  188.8270  178.9060  136.8070 C   0  0  0  0  0  3  0  0  0  0  0  0
  187.5910  179.2760  136.4380 C   0  0  0  0  0  3  0  0  0  0  0  0
  186.5950  177.4250  137.7570 C   0  0  0  0  0  0  0  0  0  0  0  0
  189.2810  176.4900  136.2200 C   0  0  0  0  0  2  0  0  0  0  0  0
  190.6970  176.3450  135.8990 N   0  0  0  0  0  2  0  0  0  0  0  0
  190.6320  174.1790  137.0710 C   0  0  0  0  0  2  0  0  0  0  0  0
  191.4920  173.1570  136.3320 C   0  0  2  0  0  3  0  0  0  0  0  0
  192.7550  175.2150  136.5330 C   0  0  2  0  0  3  0  0  0  0  0  0
  191.3280  175.5340  136.9450 C   0  0  1  0  0  3  0  0  0  0  0  0
  192.9030  173.6880  136.5210 C   0  0  0  0  0  2  0  0  0  0  0  0
  193.7460  175.9270  137.3630 N   0  0  0  0  0  0  0  0  0  0  0  0
  193.0970  176.6980  138.4190 C   0  0  0  0  0  1  0  0  0  0  0  0
  194.6100  174.9400  138.0020 C   0  0  0  0  0  1  0  0  0  0  0  0
  189.8370  172.8220  134.8540 C   0  0  0  0  0  1  0  0  0  0  0  0
  191.1880  173.1880  134.9600 O   0  0  0  0  0  0  0  0  0  0  0  0
  182.5060  178.8780  138.3160 C   0  0  0  0  0  2  0  0  0  0  0  0
  181.3050  179.2070  139.1930 C   0  0  0  0  0  2  0  0  0  0  0  0
  182.7500  178.6000  141.1510 C   0  0  0  0  0  0  0  0  0  0  0  0
  183.1680  177.6090  138.8500 C   0  0  2  0  0  3  0  0  0  0  0  0
  183.7290  177.8900  140.2570 C   0  0  0  0  0  2  0  0  0  0  0  0
  181.6800  179.2520  140.6490 C   0  0  0  0  0  3  0  0  0  0  0  0
  185.5140  178.6960  143.5110 C   0  0  0  0  0  3  0  0  0  0  0  0
  183.0740  178.6690  142.5840 C   0  0  0  0  0  3  0  0  0  0  0  0
  184.2990  178.6830  143.0400 C   0  0  0  0  0  0  0  0  0  0  0  0
  185.8780  177.7410  144.5930 C   0  0  0  0  0  2  0  0  0  0  0  0
  187.3410  177.3370  144.4560 C   0  0  0  0  0  2  0  0  0  0  0  0
  187.4070  177.3660  146.8530 O   0  0  0  0  0  0  0  0  0  0  0  0
  189.4790  177.5230  145.8510 N   0  0  0  0  0  2  0  0  0  0  0  0
  188.0650  177.3650  145.7770 C   0  0  0  0  0  0  0  0  0  0  0  0
  189.1640  177.7330  141.3550 C   0  0  0  0  0  1  0  0  0  0  0  0
  190.4430  177.3800  144.7640 C   0  0  1  0  0  0  0  0  0  0  0  0
  189.8010  176.7430  143.5410 C   0  0  1  0  0  3  0  0  0  0  0  0
  190.8500  178.7670  144.2890 C   0  0  0  0  0  2  0  0  0  0  0  0
  190.2470  177.6490  142.4140 C   0  0  2  0  0  3  0  0  0  0  0  0
  190.4760  178.9420  142.9340 O   0  0  0  0  0  0  0  0  0  0  0  0
  190.2620  175.3140  143.2520 C   0  0  0  0  0  1  0  0  0  0  0  0
  191.5760  176.6870  145.2030 O   0  0  0  0  0  1  0  0  0  0  0  0
  182.8500  176.4250  134.5420 C   0  0  0  0  0  3  0  0  0  0  0  0
  182.8580  175.0330  134.5100 C   0  0  0  0  0  2  0  0  0  0  0  0
  183.7420  176.3900  136.7410 C   0  0  2  0  0  3  0  0  0  0  0  0
  183.2880  177.0720  135.6550 N   0  0  0  0  0  0  0  0  0  0  0  0
  183.7570  174.9850  136.7060 C   0  0  0  0  0  0  0  0  0  0  0  0
  183.3090  174.3400  135.5910 N   0  0  0  0  0  0  0  0  0  0  0  0
  184.6810  172.9170  137.6810 C   0  0  0  0  0  1  0  0  0  0  0  0
  184.2520  174.2610  137.7920 O   0  0  0  0  0  0  0  0  0  0  0  0
  1  5  1  0  0  0  0
  3  8  1  0  0  0  0
  4  9  1  6  0  0  0
  4  2  1  0  0  0  0
  6  4  1  0  0  0  0
  7  3  1  0  0  0  0
  7  6  2  0  0  0  0
  8  2  1  0  0  0  0
  8  5  2  0  0  0  0
 10  9  1  0  0  0  0
 12 20  1  6  0  0  0
 12 15  1  0  0  0  0
 12 11  1  0  0  0  0
 13 14  1  0  0  0  0
 13 16  1  1  0  0  0
 14 10  1  6  0  0  0
 14 11  1  0  0  0  0
 15 13  1  0  0  0  0
 16 18  1  0  0  0  0
 16 17  1  0  0  0  0
 19 20  1  0  0  0  0
 21 24  1  0  0  0  0
 21 22  1  0  0  0  0
 22 26  1  0  0  0  0
 23 28  1  0  0  0  0
 24  1  1  6  0  0  0
 24 25  1  0  0  0  0
 25 23  1  0  0  0  0
 26 23  2  0  0  0  0
 27 30  1  0  0  0  0
 28 29  2  0  0  0  0
 29 27  2  0  0  0  0
 31 30  1  0  0  0  0
 31 34  1  0  0  0  0
 34 33  1  0  0  0  0
 34 32  2  0  0  0  0
 36 42  1  1  0  0  0
 36 33  1  0  0  0  0
 37 41  1  6  0  0  0
 37 36  1  0  0  0  0
 38 36  1  0  0  0  0
 39 35  1  6  0  0  0
 39 40  1  0  0  0  0
 39 37  1  0  0  0  0
 40 38  1  0  0  0  0
 43 46  2  0  0  0  0
 44 43  1  0  0  0  0
 44 48  1  0  0  0  0
 45  1  1  1  0  0  0
 46 45  1  0  0  0  0
 47 45  1  0  0  0  0
 47 50  1  0  0  0  0
 48 47  2  0  0  0  0
 49 50  1  0  0  0  0
M  END
>  <MODEL>
2

>  <REMARK>
 VINA RESULT:      -7.3      2.729      5.541
  Name = 
  14 active torsions:
  status: ('A' for Active; 'I' for Inactive)
    1  A    between atoms: N_1  and  C_7
    2  A    between atoms: N_1  and  C_49
    3  A    between atoms: C_4  and  N_33
    4  A    between atoms: C_7  and  C_23
    5  A    between atoms: C_12  and  C_14
    6  A    between atoms: C_12  and  C_43
    7  A    between atoms: C_14  and  C_15
    8  A    between atoms: N_17  and  C_22
    9  A    between atoms: N_17  and  C_24
   10  A    between atoms: N_17  and  C_32
   11  A    between atoms: C_19  and  C_36
   12  A    between atoms: C_27  and  O_44
   13  A    between atoms: N_29  and  C_48
   14  A    between atoms: O_35  and  C_41
                            x       y       z     vdW  Elec       q    Type
                         _______ _______ _______ _____ _____    ______ ____

>  <TORSDO>
F 14

$$$$
=
 OpenBabel10232411203D

 50 54  0  0  1  0  0  0  0  0999 V2000
  187.5050  177.3140  144.9500 N   0  0  0  0  0  0  0  0  0  0  0  0
  190.2620  176.0340  142.6710 C   0  0  0  0  0  2  0  0  0  0  0  0
  189.6870  178.4890  143.4440 C   0  0  0  0  0  2  0  0  0  0  0  0
  191.2270  176.7680  141.7140 C   0  0  2  0  0  3  0  0  0  0  0  0
  188.3830  176.4970  144.1630 C   0  0  0  0  0  3  0  0  0  0  0  0
  191.8620  177.9610  142.3870 C   0  0  0  0  0  3  0  0  0  0  0  0
  191.1480  178.7580  143.1980 C   0  0  0  0  0  3  0  0  0  0  0  0
  189.4290  176.9940  143.4920 C   0  0  0  0  0  0  0  0  0  0  0  0
  190.4750  177.1480  140.4380 C   0  0  0  0  0  2  0  0  0  0  0  0
  190.6810  176.1320  139.4100 N   0  0  0  0  0  2  0  0  0  0  0  0
  192.0300  176.4130  137.3680 C   0  0  0  0  0  2  0  0  0  0  0  0
  191.6590  175.3430  136.3440 C   0  0  2  0  0  3  0  0  0  0  0  0
  189.6140  176.2930  137.2310 C   0  0  2  0  0  3  0  0  0  0  0  0
  190.7480  176.7990  138.1070 C   0  0  1  0  0  3  0  0  0  0  0  0
  190.2370  175.7120  135.9560 C   0  0  0  0  0  2  0  0  0  0  0  0
  188.5840  177.3250  137.0050 N   0  0  0  0  0  0  0  0  0  0  0  0
  189.0970  178.6600  137.2980 C   0  0  0  0  0  1  0  0  0  0  0  0
  188.2040  177.2970  135.5960 C   0  0  0  0  0  1  0  0  0  0  0  0
  192.9770  173.7220  137.1650 C   0  0  0  0  0  1  0  0  0  0  0  0
  191.6350  174.0820  136.9650 O   0  0  0  0  0  0  0  0  0  0  0  0
  185.1720  178.1210  144.9440 C   0  0  0  0  0  2  0  0  0  0  0  0
  184.3010  179.2610  144.4330 C   0  0  0  0  0  2  0  0  0  0  0  0
  185.3140  178.8330  142.1790 C   0  0  0  0  0  0  0  0  0  0  0  0
  186.5580  178.2440  144.3140 C   0  0  2  0  0  3  0  0  0  0  0  0
  186.4360  178.0400  142.7920 C   0  0  0  0  0  2  0  0  0  0  0  0
  184.3100  179.3320  142.9300 C   0  0  0  0  0  3  0  0  0  0  0  0
  183.1200  179.4610  139.3490 C   0  0  0  0  0  3  0  0  0  0  0  0
  185.2820  178.9300  140.7120 C   0  0  0  0  0  3  0  0  0  0  0  0
  184.1950  179.1970  140.0360 C   0  0  0  0  0  0  0  0  0  0  0  0
  182.7610  178.5770  138.2050 C   0  0  0  0  0  2  0  0  0  0  0  0
  183.6580  177.3440  138.2050 C   0  0  0  0  0  2  0  0  0  0  0  0
  182.0530  176.2250  139.5930 O   0  0  0  0  0  0  0  0  0  0  0  0
  183.3130  174.8080  138.2780 N   0  0  0  0  0  2  0  0  0  0  0  0
  182.9360  176.1170  138.6990 C   0  0  0  0  0  0  0  0  0  0  0  0
  183.9990  171.0020  135.9560 C   0  0  0  0  0  1  0  0  0  0  0  0
  184.1740  174.4540  137.1540 C   0  0  1  0  0  0  0  0  0  0  0  0
  184.6490  173.0130  137.2590 C   0  0  1  0  0  3  0  0  0  0  0  0
  183.3430  174.4780  135.8790 C   0  0  0  0  0  2  0  0  0  0  0  0
  184.3840  172.4670  135.8720 C   0  0  2  0  0  3  0  0  0  0  0  0
  183.3130  173.1860  135.2990 O   0  0  0  0  0  0  0  0  0  0  0  0
  186.1330  172.8550  137.5890 C   0  0  0  0  0  1  0  0  0  0  0  0
  185.2280  175.3640  137.0390 O   0  0  0  0  0  1  0  0  0  0  0  0
  187.4680  178.5050  148.4370 C   0  0  0  0  0  3  0  0  0  0  0  0
  188.7490  178.1710  148.8680 C   0  0  0  0  0  2  0  0  0  0  0  0
  187.9380  177.5930  146.2980 C   0  0  2  0  0  3  0  0  0  0  0  0
  187.0920  178.2140  147.1640 N   0  0  0  0  0  0  0  0  0  0  0  0
  189.2290  177.2490  146.7360 C   0  0  0  0  0  0  0  0  0  0  0  0
  189.6040  177.5510  148.0110 N   0  0  0  0  0  0  0  0  0  0  0  0
  191.4940  176.4880  146.1290 C   0  0  0  0  0  1  0  0  0  0  0  0
  190.1050  176.5790  145.8800 O   0  0  0  0  0  0  0  0  0  0  0  0
  2  8  1  0  0  0  0
  3  8  1  0  0  0  0
  4  9  1  6  0  0  0
  4  6  1  0  0  0  0
  4  2  1  0  0  0  0
  5  1  1  0  0  0  0
  6  7  2  0  0  0  0
  7  3  1  0  0  0  0
  8  5  2  0  0  0  0
 10  9  1  0  0  0  0
 11 14  1  0  0  0  0
 12 20  1  1  0  0  0
 12 11  1  0  0  0  0
 13 16  1  6  0  0  0
 13 14  1  0  0  0  0
 14 10  1  1  0  0  0
 15 12  1  0  0  0  0
 15 13  1  0  0  0  0
 16 17  1  0  0  0  0
 18 16  1  0  0  0  0
 20 19  1  0  0  0  0
 22 21  1  0  0  0  0
 23 25  1  0  0  0  0
 23 26  2  0  0  0  0
 24 21  1  0  0  0  0
 24  1  1  1  0  0  0
 25 24  1  0  0  0  0
 26 22  1  0  0  0  0
 27 29  2  0  0  0  0
 28 23  1  0  0  0  0
 29 28  2  0  0  0  0
 30 31  1  0  0  0  0
 30 27  1  0  0  0  0
 31 34  1  0  0  0  0
 33 34  1  0  0  0  0
 34 32  2  0  0  0  0
 36 42  1  6  0  0  0
 36 37  1  0  0  0  0
 36 33  1  0  0  0  0
 37 41  1  6  0  0  0
 38 36  1  0  0  0  0
 39 35  1  1  0  0  0
 39 37  1  0  0  0  0
 40 39  1  0  0  0  0
 40 38  1  0  0  0  0
 43 44  1  0  0  0  0
 45  1  1  6  0  0  0
 45 47  1  0  0  0  0
 45 46  1  0  0  0  0
 46 43  2  0  0  0  0
 47 48  2  0  0  0  0
 48 44  1  0  0  0  0
 50 49  1  0  0  0  0
 50 47  1  0  0  0  0
M  END
>  <MODEL>
3

>  <REMARK>
 VINA RESULT:      -7.2      3.136      9.109
  Name = 
  14 active torsions:
  status: ('A' for Active; 'I' for Inactive)
    1  A    between atoms: N_1  and  C_7
    2  A    between atoms: N_1  and  C_49
    3  A    between atoms: C_4  and  N_33
    4  A    between atoms: C_7  and  C_23
    5  A    between atoms: C_12  and  C_14
    6  A    between atoms: C_12  and  C_43
    7  A    between atoms: C_14  and  C_15
    8  A    between atoms: N_17  and  C_22
    9  A    between atoms: N_17  and  C_24
   10  A    between atoms: N_17  and  C_32
   11  A    between atoms: C_19  and  C_36
   12  A    between atoms: C_27  and  O_44
   13  A    between atoms: N_29  and  C_48
   14  A    between atoms: O_35  and  C_41
                            x       y       z     vdW  Elec       q    Type
                         _______ _______ _______ _____ _____    ______ ____

>  <TORSDO>
F 14

$$$$
=
 OpenBabel10232411203D

 50 54  0  0  1  0  0  0  0  0999 V2000
  188.6010  177.8800  141.8290 N   0  0  0  0  0  0  0  0  0  0  0  0
  189.2680  178.9240  138.2380 C   0  0  0  0  0  2  0  0  0  0  0  0
  188.0350  176.8000  139.1980 C   0  0  0  0  0  2  0  0  0  0  0  0
  189.1460  178.1540  136.9050 C   0  0  2  0  0  3  0  0  0  0  0  0
  189.0220  178.5680  140.6430 C   0  0  0  0  0  3  0  0  0  0  0  0
  187.8260  177.4260  136.8130 C   0  0  0  0  0  3  0  0  0  0  0  0
  187.3060  176.8020  137.8810 C   0  0  0  0  0  3  0  0  0  0  0  0
  188.7400  178.1270  139.4110 C   0  0  0  0  0  0  0  0  0  0  0  0
  190.3430  177.2140  136.7560 C   0  0  0  0  0  2  0  0  0  0  0  0
  189.9890  176.0790  135.9090 N   0  0  0  0  0  2  0  0  0  0  0  0
  189.3550  173.8410  136.7200 C   0  0  0  0  0  2  0  0  0  0  0  0
  189.4840  172.8190  135.5920 C   0  0  2  0  0  3  0  0  0  0  0  0
  191.4860  174.1840  135.6200 C   0  0  2  0  0  3  0  0  0  0  0  0
  190.4850  174.8550  136.5460 C   0  0  1  0  0  3  0  0  0  0  0  0
  190.9820  172.7610  135.3460 C   0  0  0  0  0  2  0  0  0  0  0  0
  192.8640  174.2650  136.1390 N   0  0  0  0  0  0  0  0  0  0  0  0
  193.5690  175.4230  135.5980 C   0  0  0  0  0  1  0  0  0  0  0  0
  192.8040  174.4220  137.5890 C   0  0  0  0  0  1  0  0  0  0  0  0
  187.5080  173.4770  134.7560 C   0  0  0  0  0  1  0  0  0  0  0  0
  188.8640  173.3150  134.4320 O   0  0  0  0  0  0  0  0  0  0  0  0
  187.2240  177.4690  143.8360 C   0  0  0  0  0  2  0  0  0  0  0  0
  186.1190  178.0930  144.6770 C   0  0  0  0  0  2  0  0  0  0  0  0
  184.8580  178.4040  142.5320 C   0  0  0  0  0  0  0  0  0  0  0  0
  187.3960  178.2960  142.5630 C   0  0  2  0  0  3  0  0  0  0  0  0
  186.1080  178.1940  141.7230 C   0  0  0  0  0  2  0  0  0  0  0  0
  184.8610  178.2930  143.8780 C   0  0  0  0  0  3  0  0  0  0  0  0
  183.0360  177.3810  139.5570 C   0  0  0  0  0  3  0  0  0  0  0  0
  183.6020  178.6030  141.7920 C   0  0  0  0  0  3  0  0  0  0  0  0
  183.3250  177.9860  140.6740 C   0  0  0  0  0  0  0  0  0  0  0  0
  182.5710  178.1910  138.3970 C   0  0  0  0  0  2  0  0  0  0  0  0
  181.5160  177.4160  137.6150 C   0  0  0  0  0  2  0  0  0  0  0  0
  180.1700  176.4930  139.3730 O   0  0  0  0  0  0  0  0  0  0  0  0
  181.3770  174.9250  138.1870 N   0  0  0  0  0  2  0  0  0  0  0  0
  180.9510  176.2670  138.4090 C   0  0  0  0  0  0  0  0  0  0  0  0
  185.4070  172.9460  137.7410 C   0  0  0  0  0  1  0  0  0  0  0  0
  182.1280  174.4130  137.0450 C   0  0  1  0  0  0  0  0  0  0  0  0
  183.6250  174.6020  137.2430 C   0  0  1  0  0  3  0  0  0  0  0  0
  181.9510  172.9020  136.9840 C   0  0  0  0  0  2  0  0  0  0  0  0
  184.1880  173.2420  136.8880 C   0  0  2  0  0  3  0  0  0  0  0  0
  183.2040  172.2630  137.1450 O   0  0  0  0  0  0  0  0  0  0  0  0
  184.2570  175.6610  136.3410 C   0  0  0  0  0  1  0  0  0  0  0  0
  181.6640  174.9840  135.8570 O   0  0  0  0  0  1  0  0  0  0  0  0
  190.6860  175.1220  143.1060 C   0  0  0  0  0  3  0  0  0  0  0  0
  191.5710  175.7960  143.9450 C   0  0  0  0  0  2  0  0  0  0  0  0
  189.6330  177.1750  142.5510 C   0  0  2  0  0  3  0  0  0  0  0  0
  189.7370  175.8230  142.4320 N   0  0  0  0  0  0  0  0  0  0  0  0
  190.5310  177.8550  143.3920 C   0  0  0  0  0  0  0  0  0  0  0  0
  191.4760  177.1470  144.0730 N   0  0  0  0  0  0  0  0  0  0  0  0
  191.3970  179.9900  144.2730 C   0  0  0  0  0  1  0  0  0  0  0  0
  190.4710  179.2460  143.5040 O   0  0  0  0  0  0  0  0  0  0  0  0
  2  8  1  0  0  0  0
  3  8  1  0  0  0  0
  4  9  1  1  0  0  0
  4  2  1  0  0  0  0
  5  1  1  0  0  0  0
  6  4  1  0  0  0  0
  6  7  2  0  0  0  0
  7  3  1  0  0  0  0
  8  5  2  0  0  0  0
 10  9  1  0  0  0  0
 12 20  1  6  0  0  0
 12 11  1  0  0  0  0
 13 16  1  1  0  0  0
 13 14  1  0  0  0  0
 14 10  1  6  0  0  0
 14 11  1  0  0  0  0
 15 12  1  0  0  0  0
 15 13  1  0  0  0  0
 16 18  1  0  0  0  0
 17 16  1  0  0  0  0
 20 19  1  0  0  0  0
 21 22  1  0  0  0  0
 23 26  2  0  0  0  0
 24  1  1  6  0  0  0
 24 21  1  0  0  0  0
 25 23  1  0  0  0  0
 25 24  1  0  0  0  0
 26 22  1  0  0  0  0
 27 29  2  0  0  0  0
 28 23  1  0  0  0  0
 29 28  2  0  0  0  0
 30 27  1  0  0  0  0
 31 30  1  0  0  0  0
 31 34  1  0  0  0  0
 33 34  1  0  0  0  0
 34 32  2  0  0  0  0
 36 42  1  6  0  0  0
 36 37  1  0  0  0  0
 36 33  1  0  0  0  0
 37 41  1  6  0  0  0
 38 36  1  0  0  0  0
 38 40  1  0  0  0  0
 39 40  1  0  0  0  0
 39 37  1  0  0  0  0
 39 35  1  1  0  0  0
 43 44  1  0  0  0  0
 44 48  1  0  0  0  0
 45  1  1  1  0  0  0
 45 47  1  0  0  0  0
 46 45  1  0  0  0  0
 46 43  2  0  0  0  0
 47 50  1  0  0  0  0
 47 48  2  0  0  0  0
 50 49  1  0  0  0  0
M  END
>  <MODEL>
4

>  <REMARK>
 VINA RESULT:      -7.1      3.240      8.155
  Name = 
  14 active torsions:
  status: ('A' for Active; 'I' for Inactive)
    1  A    between atoms: N_1  and  C_7
    2  A    between atoms: N_1  and  C_49
    3  A    between atoms: C_4  and  N_33
    4  A    between atoms: C_7  and  C_23
    5  A    between atoms: C_12  and  C_14
    6  A    between atoms: C_12  and  C_43
    7  A    between atoms: C_14  and  C_15
    8  A    between atoms: N_17  and  C_22
    9  A    between atoms: N_17  and  C_24
   10  A    between atoms: N_17  and  C_32
   11  A    between atoms: C_19  and  C_36
   12  A    between atoms: C_27  and  O_44
   13  A    between atoms: N_29  and  C_48
   14  A    between atoms: O_35  and  C_41
                            x       y       z     vdW  Elec       q    Type
                         _______ _______ _______ _____ _____    ______ ____

>  <TORSDO>
F 14

$$$$
=
 OpenBabel10232411203D

 50 54  0  0  1  0  0  0  0  0999 V2000
  182.4640  176.7810  136.9540 N   0  0  0  0  0  0  0  0  0  0  0  0
  185.7380  175.8040  135.2920 C   0  0  0  0  0  2  0  0  0  0  0  0
  184.4890  174.7440  137.3590 C   0  0  0  0  0  2  0  0  0  0  0  0
  186.8730  174.8570  135.7370 C   0  0  2  0  0  3  0  0  0  0  0  0
  183.6170  176.7070  136.1040 C   0  0  0  0  0  3  0  0  0  0  0  0
  186.3250  173.5360  136.2210 C   0  0  0  0  0  3  0  0  0  0  0  0
  185.2120  173.4820  136.9690 C   0  0  0  0  0  3  0  0  0  0  0  0
  184.5500  175.7560  136.2290 C   0  0  0  0  0  0  0  0  0  0  0  0
  187.7260  175.5580  136.7960 C   0  0  0  0  0  2  0  0  0  0  0  0
  187.9730  176.9440  136.4060 N   0  0  0  0  0  2  0  0  0  0  0  0
  189.2580  178.4680  137.8530 C   0  0  0  0  0  2  0  0  0  0  0  0
  189.4080  177.8640  139.2480 C   0  0  2  0  0  3  0  0  0  0  0  0
  189.9300  176.1520  137.6130 C   0  0  2  0  0  3  0  0  0  0  0  0
  189.3190  177.3160  136.8500 C   0  0  1  0  0  3  0  0  0  0  0  0
  190.3070  176.6610  139.0110 C   0  0  0  0  0  2  0  0  0  0  0  0
  191.0310  175.5150  136.8670 N   0  0  0  0  0  0  0  0  0  0  0  0
  192.3160  176.1250  137.1930 C   0  0  0  0  0  1  0  0  0  0  0  0
  191.0980  174.1090  137.2530 C   0  0  0  0  0  1  0  0  0  0  0  0
  187.2250  178.3770  139.3200 C   0  0  0  0  0  1  0  0  0  0  0  0
  188.1600  177.4020  139.6990 O   0  0  0  0  0  0  0  0  0  0  0  0
  182.8120  179.0940  137.7410 C   0  0  0  0  0  2  0  0  0  0  0  0
  182.5350  180.0100  138.9250 C   0  0  0  0  0  2  0  0  0  0  0  0
  183.5190  178.2070  140.3640 C   0  0  0  0  0  0  0  0  0  0  0  0
  182.4400  177.6650  138.1300 C   0  0  2  0  0  3  0  0  0  0  0  0
  183.3740  177.1950  139.2610 C   0  0  0  0  0  2  0  0  0  0  0  0
  183.1920  179.5040  140.1800 C   0  0  0  0  0  3  0  0  0  0  0  0
  183.9150  179.0120  143.8880 C   0  0  0  0  0  3  0  0  0  0  0  0
  184.1560  177.7580  141.6120 C   0  0  0  0  0  3  0  0  0  0  0  0
  184.0300  178.3910  142.7480 C   0  0  0  0  0  0  0  0  0  0  0  0
  185.1470  179.3340  144.6610 C   0  0  0  0  0  2  0  0  0  0  0  0
  185.8780  178.0470  145.0260 C   0  0  0  0  0  2  0  0  0  0  0  0
  186.1250  178.6020  147.3460 O   0  0  0  0  0  0  0  0  0  0  0  0
  188.0940  177.9980  146.3060 N   0  0  0  0  0  2  0  0  0  0  0  0
  186.6810  178.1900  146.2920 C   0  0  0  0  0  0  0  0  0  0  0  0
  191.8170  179.2560  144.0910 C   0  0  0  0  0  1  0  0  0  0  0  0
  188.9120  177.3730  145.2720 C   0  0  1  0  0  0  0  0  0  0  0  0
  189.4930  178.4140  144.3280 C   0  0  1  0  0  3  0  0  0  0  0  0
  190.1330  176.7460  145.9290 C   0  0  0  0  0  2  0  0  0  0  0  0
  190.9530  178.0200  144.2460 C   0  0  2  0  0  3  0  0  0  0  0  0
  191.3120  177.3600  145.4410 O   0  0  0  0  0  0  0  0  0  0  0  0
  188.8900  178.4080  142.9230 C   0  0  0  0  0  1  0  0  0  0  0  0
  188.1840  176.3840  144.6030 O   0  0  0  0  0  1  0  0  0  0  0  0
  180.6260  173.8090  138.1240 C   0  0  0  0  0  3  0  0  0  0  0  0
  179.9820  173.3930  136.9610 C   0  0  0  0  0  2  0  0  0  0  0  0
  181.5990  175.6250  136.9480 C   0  0  2  0  0  3  0  0  0  0  0  0
  181.4210  174.9100  138.0920 N   0  0  0  0  0  0  0  0  0  0  0  0
  180.9440  175.2090  135.7770 C   0  0  0  0  0  0  0  0  0  0  0  0
  180.1540  174.0990  135.8110 N   0  0  0  0  0  0  0  0  0  0  0  0
  180.3430  177.1260  134.3460 C   0  0  0  0  0  1  0  0  0  0  0  0
  181.0800  175.9450  134.5980 O   0  0  0  0  0  0  0  0  0  0  0  0
  2  4  1  0  0  0  0
  2  8  1  0  0  0  0
  4  6  1  0  0  0  0
  4  9  1  1  0  0  0
  5  8  2  0  0  0  0
  5  1  1  0  0  0  0
  6  7  2  0  0  0  0
  7  3  1  0  0  0  0
  8  3  1  0  0  0  0
 10  9  1  0  0  0  0
 11 12  1  0  0  0  0
 12 20  1  6  0  0  0
 13 16  1  6  0  0  0
 13 15  1  0  0  0  0
 14 10  1  1  0  0  0
 14 13  1  0  0  0  0
 14 11  1  0  0  0  0
 15 12  1  0  0  0  0
 16 17  1  0  0  0  0
 16 18  1  0  0  0  0
 19 20  1  0  0  0  0
 21 24  1  0  0  0  0
 21 22  1  0  0  0  0
 22 26  1  0  0  0  0
 23 28  1  0  0  0  0
 24  1  1  6  0  0  0
 24 25  1  0  0  0  0
 25 23  1  0  0  0  0
 26 23  2  0  0  0  0
 27 30  1  0  0  0  0
 28 29  2  0  0  0  0
 29 27  2  0  0  0  0
 30 31  1  0  0  0  0
 31 34  1  0  0  0  0
 34 33  1  0  0  0  0
 34 32  2  0  0  0  0
 36 42  1  6  0  0  0
 36 38  1  0  0  0  0
 36 33  1  0  0  0  0
 37 41  1  6  0  0  0
 37 36  1  0  0  0  0
 39 35  1  1  0  0  0
 39 37  1  0  0  0  0
 39 40  1  0  0  0  0
 40 38  1  0  0  0  0
 44 43  1  0  0  0  0
 45  1  1  6  0  0  0
 45 46  1  0  0  0  0
 46 43  2  0  0  0  0
 47 48  2  0  0  0  0
 47 45  1  0  0  0  0
 48 44  1  0  0  0  0
 49 50  1  0  0  0  0
 50 47  1  0  0  0  0
M  END
>  <MODEL>
5

>  <REMARK>
 VINA RESULT:      -6.9      3.613      6.825
  Name = 
  14 active torsions:
  status: ('A' for Active; 'I' for Inactive)
    1  A    between atoms: N_1  and  C_7
    2  A    between atoms: N_1  and  C_49
    3  A    between atoms: C_4  and  N_33
    4  A    between atoms: C_7  and  C_23
    5  A    between atoms: C_12  and  C_14
    6  A    between atoms: C_12  and  C_43
    7  A    between atoms: C_14  and  C_15
    8  A    between atoms: N_17  and  C_22
    9  A    between atoms: N_17  and  C_24
   10  A    between atoms: N_17  and  C_32
   11  A    between atoms: C_19  and  C_36
   12  A    between atoms: C_27  and  O_44
   13  A    between atoms: N_29  and  C_48
   14  A    between atoms: O_35  and  C_41
                            x       y       z     vdW  Elec       q    Type
                         _______ _______ _______ _____ _____    ______ ____

>  <TORSDO>
F 14

$$$$
=
 OpenBabel10232411203D

 50 54  0  0  1  0  0  0  0  0999 V2000
  182.2680  176.0150  136.1790 N   0  0  0  0  0  0  0  0  0  0  0  0
  185.8730  174.9850  135.5680 C   0  0  0  0  0  2  0  0  0  0  0  0
  184.2480  174.4140  137.5660 C   0  0  0  0  0  2  0  0  0  0  0  0
  186.9250  174.3330  136.4910 C   0  0  2  0  0  3  0  0  0  0  0  0
  183.5830  175.8360  135.6360 C   0  0  0  0  0  3  0  0  0  0  0  0
  186.3480  173.1480  137.2270 C   0  0  0  0  0  3  0  0  0  0  0  0
  185.1010  173.1820  137.7210 C   0  0  0  0  0  3  0  0  0  0  0  0
  184.5100  175.0680  136.2210 C   0  0  0  0  0  0  0  0  0  0  0  0
  187.4860  175.3940  137.4400 C   0  0  0  0  0  2  0  0  0  0  0  0
  187.7140  176.6430  136.7200 N   0  0  0  0  0  2  0  0  0  0  0  0
  188.9370  178.6190  137.5370 C   0  0  0  0  0  2  0  0  0  0  0  0
  188.9480  178.6340  139.0640 C   0  0  2  0  0  3  0  0  0  0  0  0
  189.5330  176.4040  138.3170 C   0  0  2  0  0  3  0  0  0  0  0  0
  189.0340  177.1590  137.0960 C   0  0  1  0  0  3  0  0  0  0  0  0
  189.8140  177.4360  139.4170 C   0  0  0  0  0  2  0  0  0  0  0  0
  190.6650  175.5140  137.9970 N   0  0  0  0  0  0  0  0  0  0  0  0
  190.3430  174.6250  136.8840 C   0  0  0  0  0  1  0  0  0  0  0  0
  191.8000  176.3380  137.5910 C   0  0  0  0  0  1  0  0  0  0  0  0
  187.7560  178.3710  140.9470 C   0  0  0  0  0  1  0  0  0  0  0  0
  187.6500  178.4000  139.5480 O   0  0  0  0  0  0  0  0  0  0  0  0
  181.4370  178.3380  136.0910 C   0  0  0  0  0  2  0  0  0  0  0  0
  180.8730  179.4410  136.9760 C   0  0  0  0  0  2  0  0  0  0  0  0
  182.8360  179.0400  138.4830 C   0  0  0  0  0  0  0  0  0  0  0  0
  181.9310  177.2010  136.9830 C   0  0  2  0  0  3  0  0  0  0  0  0
  183.1080  177.7090  137.8370 C   0  0  0  0  0  2  0  0  0  0  0  0
  181.8520  179.8520  138.0410 C   0  0  0  0  0  3  0  0  0  0  0  0
  184.3550  178.0560  141.6370 C   0  0  0  0  0  3  0  0  0  0  0  0
  183.7690  179.4830  139.5310 C   0  0  0  0  0  3  0  0  0  0  0  0
  184.0580  178.7620  140.5830 C   0  0  0  0  0  0  0  0  0  0  0  0
  184.2620  178.6930  142.9800 C   0  0  0  0  0  2  0  0  0  0  0  0
  185.3780  178.1690  143.8770 C   0  0  0  0  0  2  0  0  0  0  0  0
  184.3740  179.5400  145.5710 O   0  0  0  0  0  0  0  0  0  0  0  0
  186.3320  178.5120  146.2280 N   0  0  0  0  0  2  0  0  0  0  0  0
  185.3030  178.7420  145.2690 C   0  0  0  0  0  0  0  0  0  0  0  0
  190.4920  178.4920  144.4820 C   0  0  0  0  0  1  0  0  0  0  0  0
  187.3940  177.5130  146.1630 C   0  0  1  0  0  0  0  0  0  0  0  0
  188.1920  177.6430  144.8750 C   0  0  1  0  0  3  0  0  0  0  0  0
  188.4080  177.8090  147.2590 C   0  0  0  0  0  2  0  0  0  0  0  0
  189.6260  177.6090  145.3600 C   0  0  2  0  0  3  0  0  0  0  0  0
  189.6690  178.1000  146.6830 O   0  0  0  0  0  0  0  0  0  0  0  0
  187.9720  176.5100  143.8720 C   0  0  0  0  0  1  0  0  0  0  0  0
  186.8710  176.2290  146.3470 O   0  0  0  0  0  1  0  0  0  0  0  0
  180.7440  172.7190  135.5490 C   0  0  0  0  0  3  0  0  0  0  0  0
  180.0010  172.5200  136.7100 C   0  0  0  0  0  2  0  0  0  0  0  0
  181.4950  174.8120  136.3770 C   0  0  2  0  0  3  0  0  0  0  0  0
  181.4700  173.8590  135.4060 N   0  0  0  0  0  0  0  0  0  0  0  0
  180.7510  174.6070  137.5510 C   0  0  0  0  0  0  0  0  0  0  0  0
  180.0170  173.4660  137.6870 N   0  0  0  0  0  0  0  0  0  0  0  0
  180.6460  175.2020  139.9420 C   0  0  0  0  0  1  0  0  0  0  0  0
  180.7880  175.5520  138.5790 O   0  0  0  0  0  0  0  0  0  0  0  0
  2  8  1  0  0  0  0
  2  4  1  0  0  0  0
  3  7  1  0  0  0  0
  4  6  1  0  0  0  0
  4  9  1  1  0  0  0
  5  1  1  0  0  0  0
  5  8  2  0  0  0  0
  6  7  2  0  0  0  0
  8  3  1  0  0  0  0
 10  9  1  0  0  0  0
 11 12  1  0  0  0  0
 12 15  1  0  0  0  0
 12 20  1  1  0  0  0
 13 16  1  6  0  0  0
 13 15  1  0  0  0  0
 14 10  1  1  0  0  0
 14 11  1  0  0  0  0
 14 13  1  0  0  0  0
 17 16  1  0  0  0  0
 18 16  1  0  0  0  0
 20 19  1  0  0  0  0
 21 22  1  0  0  0  0
 21 24  1  0  0  0  0
 22 26  1  0  0  0  0
 23 28  1  0  0  0  0
 24  1  1  6  0  0  0
 24 25  1  0  0  0  0
 25 23  1  0  0  0  0
 26 23  2  0  0  0  0
 27 30  1  0  0  0  0
 28 29  2  0  0  0  0
 29 27  2  0  0  0  0
 30 31  1  0  0  0  0
 31 34  1  0  0  0  0
 34 32  2  0  0  0  0
 34 33  1  0  0  0  0
 36 33  1  0  0  0  0
 36 42  1  1  0  0  0
 36 38  1  0  0  0  0
 37 41  1  6  0  0  0
 37 39  1  0  0  0  0
 37 36  1  0  0  0  0
 39 35  1  6  0  0  0
 39 40  1  0  0  0  0
 40 38  1  0  0  0  0
 43 44  1  0  0  0  0
 44 48  1  0  0  0  0
 45  1  1  6  0  0  0
 45 47  1  0  0  0  0
 46 43  2  0  0  0  0
 46 45  1  0  0  0  0
 47 48  2  0  0  0  0
 47 50  1  0  0  0  0
 50 49  1  0  0  0  0
M  END
>  <MODEL>
6

>  <REMARK>
 VINA RESULT:      -6.8      3.900      7.254
  Name = 
  14 active torsions:
  status: ('A' for Active; 'I' for Inactive)
    1  A    between atoms: N_1  and  C_7
    2  A    between atoms: N_1  and  C_49
    3  A    between atoms: C_4  and  N_33
    4  A    between atoms: C_7  and  C_23
    5  A    between atoms: C_12  and  C_14
    6  A    between atoms: C_12  and  C_43
    7  A    between atoms: C_14  and  C_15
    8  A    between atoms: N_17  and  C_22
    9  A    between atoms: N_17  and  C_24
   10  A    between atoms: N_17  and  C_32
   11  A    between atoms: C_19  and  C_36
   12  A    between atoms: C_27  and  O_44
   13  A    between atoms: N_29  and  C_48
   14  A    between atoms: O_35  and  C_41
                            x       y       z     vdW  Elec       q    Type
                         _______ _______ _______ _____ _____    ______ ____

>  <TORSDO>
F 14

$$$$
=
 OpenBabel10232411203D

 50 54  0  0  1  0  0  0  0  0999 V2000
  184.4350  177.1120  137.9980 N   0  0  0  0  0  0  0  0  0  0  0  0
  188.1910  177.3420  138.5210 C   0  0  0  0  0  2  0  0  0  0  0  0
  186.6530  178.4330  136.6770 C   0  0  0  0  0  2  0  0  0  0  0  0
  189.3240  177.8700  137.6140 C   0  0  2  0  0  3  0  0  0  0  0  0
  185.7760  176.9690  138.4870 C   0  0  0  0  0  3  0  0  0  0  0  0
  188.9740  179.2180  137.0300 C   0  0  0  0  0  3  0  0  0  0  0  0
  187.7300  179.4830  136.6010 C   0  0  0  0  0  3  0  0  0  0  0  0
  186.8190  177.5990  137.9340 C   0  0  0  0  0  0  0  0  0  0  0  0
  189.6300  176.8290  136.5360 C   0  0  0  0  0  2  0  0  0  0  0  0
  190.6050  175.8620  137.0330 N   0  0  0  0  0  2  0  0  0  0  0  0
  192.5510  175.2680  135.6440 C   0  0  0  0  0  2  0  0  0  0  0  0
  193.3030  174.0950  136.2700 C   0  0  2  0  0  3  0  0  0  0  0  0
  190.9360  173.5760  136.2740 C   0  0  2  0  0  3  0  0  0  0  0  0
  191.0620  175.0440  135.9050 C   0  0  1  0  0  3  0  0  0  0  0  0
  192.3250  172.9410  136.1280 C   0  0  0  0  0  2  0  0  0  0  0  0
  189.8630  172.9030  135.5170 N   0  0  0  0  0  0  0  0  0  0  0  0
  188.7700  172.4950  136.3940 C   0  0  0  0  0  1  0  0  0  0  0  0
  189.3220  173.8460  134.5430 C   0  0  0  0  0  1  0  0  0  0  0  0
  194.8930  174.3170  137.8370 C   0  0  0  0  0  1  0  0  0  0  0  0
  193.5040  174.3400  137.6390 O   0  0  0  0  0  0  0  0  0  0  0  0
  182.3520  178.4100  138.2610 C   0  0  0  0  0  2  0  0  0  0  0  0
  181.1050  178.5090  139.1290 C   0  0  0  0  0  2  0  0  0  0  0  0
  182.6540  178.5180  141.1020 C   0  0  0  0  0  0  0  0  0  0  0  0
  183.3220  177.4240  138.9090 C   0  0  2  0  0  3  0  0  0  0  0  0
  183.7870  177.9940  140.2620 C   0  0  0  0  0  2  0  0  0  0  0  0
  181.4510  178.8100  140.5620 C   0  0  0  0  0  3  0  0  0  0  0  0
  185.3510  178.7990  143.5240 C   0  0  0  0  0  3  0  0  0  0  0  0
  182.9450  178.8260  142.5100 C   0  0  0  0  0  3  0  0  0  0  0  0
  184.1530  178.8110  143.0100 C   0  0  0  0  0  0  0  0  0  0  0  0
  185.5880  178.0360  144.7800 C   0  0  0  0  0  2  0  0  0  0  0  0
  187.0840  177.9640  145.0660 C   0  0  0  0  0  2  0  0  0  0  0  0
  187.1340  176.3540  143.2880 O   0  0  0  0  0  0  0  0  0  0  0  0
  189.1440  176.6010  144.3940 N   0  0  0  0  0  2  0  0  0  0  0  0
  187.7840  176.9690  144.1770 C   0  0  0  0  0  0  0  0  0  0  0  0
  191.7390  175.2970  147.8460 C   0  0  0  0  0  1  0  0  0  0  0  0
  190.1220  177.2840  145.2350 C   0  0  1  0  0  0  0  0  0  0  0  0
  190.1040  176.7360  146.6540 C   0  0  1  0  0  3  0  0  0  0  0  0
  191.5170  176.9520  144.7260 C   0  0  0  0  0  2  0  0  0  0  0  0
  191.5720  176.5070  146.9460 C   0  0  2  0  0  3  0  0  0  0  0  0
  192.2450  176.2650  145.7290 O   0  0  0  0  0  0  0  0  0  0  0  0
  189.5240  177.6900  147.6980 C   0  0  0  0  0  1  0  0  0  0  0  0
  189.9270  178.6680  145.1880 O   0  0  0  0  0  1  0  0  0  0  0  0
  183.5270  176.5510  134.4710 C   0  0  0  0  0  3  0  0  0  0  0  0
  183.5290  175.1610  134.3910 C   0  0  0  0  0  2  0  0  0  0  0  0
  184.1370  176.4320  136.7600 C   0  0  2  0  0  3  0  0  0  0  0  0
  183.8260  177.1550  135.6500 N   0  0  0  0  0  0  0  0  0  0  0  0
  184.1450  175.0290  136.6780 C   0  0  0  0  0  0  0  0  0  0  0  0
  183.8360  174.4270  135.4950 N   0  0  0  0  0  0  0  0  0  0  0  0
  184.7830  172.8800  137.7070 C   0  0  0  0  0  1  0  0  0  0  0  0
  184.4960  174.2630  137.7920 O   0  0  0  0  0  0  0  0  0  0  0  0
  1  5  1  0  0  0  0
  3  8  1  0  0  0  0
  4  9  1  6  0  0  0
  4  2  1  0  0  0  0
  6  4  1  0  0  0  0
  7  3  1  0  0  0  0
  7  6  2  0  0  0  0
  8  5  2  0  0  0  0
  8  2  1  0  0  0  0
  9 10  1  0  0  0  0
 11 14  1  0  0  0  0
 11 12  1  0  0  0  0
 12 20  1  1  0  0  0
 13 16  1  6  0  0  0
 14 13  1  0  0  0  0
 14 10  1  1  0  0  0
 15 12  1  0  0  0  0
 15 13  1  0  0  0  0
 16 17  1  0  0  0  0
 18 16  1  0  0  0  0
 20 19  1  0  0  0  0
 21 24  1  0  0  0  0
 21 22  1  0  0  0  0
 22 26  1  0  0  0  0
 23 28  1  0  0  0  0
 24  1  1  6  0  0  0
 24 25  1  0  0  0  0
 25 23  1  0  0  0  0
 26 23  2  0  0  0  0
 27 30  1  0  0  0  0
 28 29  2  0  0  0  0
 29 27  2  0  0  0  0
 30 31  1  0  0  0  0
 32 34  2  0  0  0  0
 33 36  1  0  0  0  0
 34 33  1  0  0  0  0
 34 31  1  0  0  0  0
 36 42  1  6  0  0  0
 36 37  1  0  0  0  0
 37 39  1  0  0  0  0
 37 41  1  1  0  0  0
 38 36  1  0  0  0  0
 38 40  1  0  0  0  0
 39 35  1  1  0  0  0
 40 39  1  0  0  0  0
 43 46  2  0  0  0  0
 44 43  1  0  0  0  0
 44 48  1  0  0  0  0
 45  1  1  1  0  0  0
 46 45  1  0  0  0  0
 47 45  1  0  0  0  0
 47 50  1  0  0  0  0
 48 47  2  0  0  0  0
 49 50  1  0  0  0  0
M  END
>  <MODEL>
7

>  <REMARK>
 VINA RESULT:      -6.8      2.729      5.967
  Name = 
  14 active torsions:
  status: ('A' for Active; 'I' for Inactive)
    1  A    between atoms: N_1  and  C_7
    2  A    between atoms: N_1  and  C_49
    3  A    between atoms: C_4  and  N_33
    4  A    between atoms: C_7  and  C_23
    5  A    between atoms: C_12  and  C_14
    6  A    between atoms: C_12  and  C_43
    7  A    between atoms: C_14  and  C_15
    8  A    between atoms: N_17  and  C_22
    9  A    between atoms: N_17  and  C_24
   10  A    between atoms: N_17  and  C_32
   11  A    between atoms: C_19  and  C_36
   12  A    between atoms: C_27  and  O_44
   13  A    between atoms: N_29  and  C_48
   14  A    between atoms: O_35  and  C_41
                            x       y       z     vdW  Elec       q    Type
                         _______ _______ _______ _____ _____    ______ ____

>  <TORSDO>
F 14

$$$$
=
 OpenBabel10232411203D

 50 54  0  0  1  0  0  0  0  0999 V2000
  190.7850  176.0490  136.7360 N   0  0  0  0  0  0  0  0  0  0  0  0
  187.6500  177.6220  135.2760 C   0  0  0  0  0  2  0  0  0  0  0  0
  188.0890  176.5850  137.6610 C   0  0  0  0  0  2  0  0  0  0  0  0
  186.1850  177.6360  135.7640 C   0  0  2  0  0  3  0  0  0  0  0  0
  189.8230  176.6800  135.8800 C   0  0  0  0  0  3  0  0  0  0  0  0
  186.1000  177.9930  137.2280 C   0  0  0  0  0  3  0  0  0  0  0  0
  186.9900  177.5100  138.1100 C   0  0  0  0  0  3  0  0  0  0  0  0
  188.5850  176.9870  136.2830 C   0  0  0  0  0  0  0  0  0  0  0  0
  185.5400  176.2840  135.4540 C   0  0  0  0  0  2  0  0  0  0  0  0
  184.1410  176.2870  135.8700 N   0  0  0  0  0  2  0  0  0  0  0  0
  183.2560  175.7830  138.1130 C   0  0  0  0  0  2  0  0  0  0  0  0
  181.7830  175.3890  138.0190 C   0  0  2  0  0  3  0  0  0  0  0  0
  183.0090  174.1810  136.3120 C   0  0  2  0  0  3  0  0  0  0  0  0
  183.9540  175.2320  136.8700 C   0  0  1  0  0  3  0  0  0  0  0  0
  181.8260  174.0610  137.2820 C   0  0  0  0  0  2  0  0  0  0  0  0
  183.7000  172.9120  136.0170 N   0  0  0  0  0  0  0  0  0  0  0  0
  184.6480  173.0670  134.9180 C   0  0  0  0  0  1  0  0  0  0  0  0
  184.4560  172.5110  137.2000 C   0  0  0  0  0  1  0  0  0  0  0  0
  179.9820  175.6370  136.7040 C   0  0  0  0  0  1  0  0  0  0  0  0
  181.0970  176.3180  137.2180 O   0  0  0  0  0  0  0  0  0  0  0  0
  192.7930  176.2420  138.1600 C   0  0  0  0  0  2  0  0  0  0  0  0
  193.4680  177.1740  139.1550 C   0  0  0  0  0  2  0  0  0  0  0  0
  191.2680  177.2530  140.3550 C   0  0  0  0  0  0  0  0  0  0  0  0
  191.3920  176.7740  137.8640 C   0  0  2  0  0  3  0  0  0  0  0  0
  190.5490  176.7070  139.1520 C   0  0  0  0  0  2  0  0  0  0  0  0
  192.6090  177.4030  140.3690 C   0  0  0  0  0  3  0  0  0  0  0  0
  187.8580  177.4200  141.6080 C   0  0  0  0  0  3  0  0  0  0  0  0
  190.4670  177.4940  141.5660 C   0  0  0  0  0  3  0  0  0  0  0  0
  189.1610  177.4540  141.5790 C   0  0  0  0  0  0  0  0  0  0  0  0
  187.1210  178.5610  142.2190 C   0  0  0  0  0  2  0  0  0  0  0  0
  185.9330  178.0380  143.0190 C   0  0  0  0  0  2  0  0  0  0  0  0
  184.8130  179.9470  143.9440 O   0  0  0  0  0  0  0  0  0  0  0  0
  186.1520  178.8190  145.4470 N   0  0  0  0  0  2  0  0  0  0  0  0
  185.5660  178.9570  144.1550 C   0  0  0  0  0  0  0  0  0  0  0  0
  189.6590  178.4040  148.2530 C   0  0  0  0  0  1  0  0  0  0  0  0
  186.9040  177.6780  145.9600 C   0  0  1  0  0  0  0  0  0  0  0  0
  188.3690  178.0340  146.1650 C   0  0  1  0  0  3  0  0  0  0  0  0
  186.4010  177.3540  147.3590 C   0  0  0  0  0  2  0  0  0  0  0  0
  188.6520  177.5100  147.5570 C   0  0  2  0  0  3  0  0  0  0  0  0
  187.4500  177.5160  148.2970 O   0  0  0  0  0  0  0  0  0  0  0  0
  189.3280  177.3770  145.1730 C   0  0  0  0  0  1  0  0  0  0  0  0
  186.7290  176.5650  145.1320 O   0  0  0  0  0  1  0  0  0  0  0  0
  193.2390  174.1660  134.7320 C   0  0  0  0  0  3  0  0  0  0  0  0
  192.8980  172.8480  135.0250 C   0  0  0  0  0  2  0  0  0  0  0  0
  191.5130  174.9420  136.1630 C   0  0  2  0  0  3  0  0  0  0  0  0
  192.5390  175.1820  135.3020 N   0  0  0  0  0  0  0  0  0  0  0  0
  191.1740  173.6120  136.4640 C   0  0  0  0  0  0  0  0  0  0  0  0
  191.8740  172.5960  135.8830 N   0  0  0  0  0  0  0  0  0  0  0  0
  188.8220  173.0640  136.9660 C   0  0  0  0  0  1  0  0  0  0  0  0
  190.1500  173.3370  137.3730 O   0  0  0  0  0  0  0  0  0  0  0  0
  2  4  1  0  0  0  0
  2  8  1  0  0  0  0
  3  7  1  0  0  0  0
  4  9  1  1  0  0  0
  4  6  1  0  0  0  0
  5  8  2  0  0  0  0
  5  1  1  0  0  0  0
  6  7  2  0  0  0  0
  8  3  1  0  0  0  0
  9 10  1  0  0  0  0
 12 20  1  6  0  0  0
 12 11  1  0  0  0  0
 13 16  1  1  0  0  0
 13 14  1  0  0  0  0
 13 15  1  0  0  0  0
 14 10  1  6  0  0  0
 14 11  1  0  0  0  0
 15 12  1  0  0  0  0
 16 18  1  0  0  0  0
 17 16  1  0  0  0  0
 19 20  1  0  0  0  0
 21 22  1  0  0  0  0
 22 26  1  0  0  0  0
 23 26  2  0  0  0  0
 23 28  1  0  0  0  0
 24  1  1  6  0  0  0
 24 21  1  0  0  0  0
 24 25  1  0  0  0  0
 25 23  1  0  0  0  0
 27 30  1  0  0  0  0
 28 29  2  0  0  0  0
 29 27  2  0  0  0  0
 30 31  1  0  0  0  0
 31 34  1  0  0  0  0
 32 34  2  0  0  0  0
 33 36  1  0  0  0  0
 34 33  1  0  0  0  0
 36 42  1  6  0  0  0
 36 37  1  0  0  0  0
 36 38  1  0  0  0  0
 37 41  1  6  0  0  0
 37 39  1  0  0  0  0
 38 40  1  0  0  0  0
 39 35  1  1  0  0  0
 39 40  1  0  0  0  0
 43 44  1  0  0  0  0
 43 46  2  0  0  0  0
 44 48  1  0  0  0  0
 45 47  1  0  0  0  0
 45  1  1  6  0  0  0
 46 45  1  0  0  0  0
 47 50  1  0  0  0  0
 48 47  2  0  0  0  0
 49 50  1  0  0  0  0
M  END
>  <MODEL>
8

>  <REMARK>
 VINA RESULT:      -6.5      3.139      8.297
  Name = 
  14 active torsions:
  status: ('A' for Active; 'I' for Inactive)
    1  A    between atoms: N_1  and  C_7
    2  A    between atoms: N_1  and  C_49
    3  A    between atoms: C_4  and  N_33
    4  A    between atoms: C_7  and  C_23
    5  A    between atoms: C_12  and  C_14
    6  A    between atoms: C_12  and  C_43
    7  A    between atoms: C_14  and  C_15
    8  A    between atoms: N_17  and  C_22
    9  A    between atoms: N_17  and  C_24
   10  A    between atoms: N_17  and  C_32
   11  A    between atoms: C_19  and  C_36
   12  A    between atoms: C_27  and  O_44
   13  A    between atoms: N_29  and  C_48
   14  A    between atoms: O_35  and  C_41
                            x       y       z     vdW  Elec       q    Type
                         _______ _______ _______ _____ _____    ______ ____

>  <TORSDO>
F 14

$$$$
=
 OpenBabel10232411203D

 50 54  0  0  1  0  0  0  0  0999 V2000
  183.6570  174.8210  137.1400 N   0  0  0  0  0  0  0  0  0  0  0  0
  182.6170  176.9670  140.0980 C   0  0  0  0  0  2  0  0  0  0  0  0
  183.5900  177.6570  137.7450 C   0  0  0  0  0  2  0  0  0  0  0  0
  182.8540  178.4590  140.4180 C   0  0  2  0  0  3  0  0  0  0  0  0
  183.1870  175.2940  138.4100 C   0  0  0  0  0  3  0  0  0  0  0  0
  182.5310  179.3310  139.2290 C   0  0  0  0  0  3  0  0  0  0  0  0
  182.8670  178.9560  137.9850 C   0  0  0  0  0  3  0  0  0  0  0  0
  183.0970  176.5950  138.7110 C   0  0  0  0  0  0  0  0  0  0  0  0
  184.2920  178.6450  140.9060 C   0  0  0  0  0  2  0  0  0  0  0  0
  184.4590  178.0360  142.2220 N   0  0  0  0  0  2  0  0  0  0  0  0
  185.1880  179.7430  143.8420 C   0  0  0  0  0  2  0  0  0  0  0  0
  185.2310  179.1470  145.2470 C   0  0  2  0  0  3  0  0  0  0  0  0
  186.3190  177.6030  143.7290 C   0  0  2  0  0  3  0  0  0  0  0  0
  185.6240  178.6470  142.8700 C   0  0  1  0  0  3  0  0  0  0  0  0
  186.3690  178.1430  145.1640 C   0  0  0  0  0  2  0  0  0  0  0  0
  187.6240  177.2040  143.1700 N   0  0  0  0  0  0  0  0  0  0  0  0
  188.0810  178.1510  142.1570 C   0  0  0  0  0  1  0  0  0  0  0  0
  188.6080  177.2020  144.2490 C   0  0  0  0  0  1  0  0  0  0  0  0
  183.0220  179.1640  144.8520 C   0  0  0  0  0  1  0  0  0  0  0  0
  184.0400  178.4460  145.5000 O   0  0  0  0  0  0  0  0  0  0  0  0
  184.9310  175.4580  135.1230 C   0  0  0  0  0  2  0  0  0  0  0  0
  186.2480  176.0830  134.6880 C   0  0  0  0  0  2  0  0  0  0  0  0
  187.3680  174.4360  136.2130 C   0  0  0  0  0  0  0  0  0  0  0  0
  184.9830  175.2040  136.6280 C   0  0  2  0  0  3  0  0  0  0  0  0
  186.0720  174.1540  136.9220 C   0  0  0  0  0  2  0  0  0  0  0  0
  187.4260  175.2710  135.1530 C   0  0  0  0  0  3  0  0  0  0  0  0
  190.8140  174.7600  137.3280 C   0  0  0  0  0  3  0  0  0  0  0  0
  188.5480  173.6650  136.6340 C   0  0  0  0  0  3  0  0  0  0  0  0
  189.6790  174.2210  136.9810 C   0  0  0  0  0  0  0  0  0  0  0  0
  192.0690  174.2600  136.7020 C   0  0  0  0  0  2  0  0  0  0  0  0
  193.2040  174.2980  137.7210 C   0  0  0  0  0  2  0  0  0  0  0  0
  193.8700  176.4780  136.9750 O   0  0  0  0  0  0  0  0  0  0  0  0
  195.6290  175.0420  137.3820 N   0  0  0  0  0  2  0  0  0  0  0  0
  194.2350  175.3420  137.3820 C   0  0  0  0  0  0  0  0  0  0  0  0
  198.0530  171.6480  135.6620 C   0  0  0  0  0  1  0  0  0  0  0  0
  196.2830  173.8740  137.9630 C   0  0  1  0  0  0  0  0  0  0  0  0
  196.2450  172.6920  137.0070 C   0  0  1  0  0  3  0  0  0  0  0  0
  197.7660  174.1750  138.1220 C   0  0  0  0  0  2  0  0  0  0  0  0
  197.6760  172.1960  137.0250 C   0  0  2  0  0  3  0  0  0  0  0  0
  198.5270  173.2790  137.3320 O   0  0  0  0  0  0  0  0  0  0  0  0
  195.3130  171.5580  137.4330 C   0  0  0  0  0  1  0  0  0  0  0  0
  195.7320  173.5760  139.2130 O   0  0  0  0  0  1  0  0  0  0  0  0
  180.8330  175.0790  134.7850 C   0  0  0  0  0  3  0  0  0  0  0  0
  180.6620  173.7520  134.3960 C   0  0  0  0  0  2  0  0  0  0  0  0
  182.6390  174.4450  136.1880 C   0  0  2  0  0  3  0  0  0  0  0  0
  181.8120  175.3950  135.6730 N   0  0  0  0  0  0  0  0  0  0  0  0
  182.4700  173.1080  135.7900 C   0  0  0  0  0  0  0  0  0  0  0  0
  181.4810  172.7940  134.9060 N   0  0  0  0  0  0  0  0  0  0  0  0
  183.0140  170.7400  136.2120 C   0  0  0  0  0  1  0  0  0  0  0  0
  183.3270  172.1180  136.2750 O   0  0  0  0  0  0  0  0  0  0  0  0
  1  5  1  0  0  0  0
  2  4  1  0  0  0  0
  3  7  1  0  0  0  0
  3  8  1  0  0  0  0
  4  9  1  6  0  0  0
  5  8  2  0  0  0  0
  6  4  1  0  0  0  0
  7  6  2  0  0  0  0
  8  2  1  0  0  0  0
  9 10  1  0  0  0  0
 11 12  1  0  0  0  0
 12 20  1  6  0  0  0
 13 16  1  6  0  0  0
 13 15  1  0  0  0  0
 14 10  1  1  0  0  0
 14 13  1  0  0  0  0
 14 11  1  0  0  0  0
 15 12  1  0  0  0  0
 16 18  1  0  0  0  0
 17 16  1  0  0  0  0
 19 20  1  0  0  0  0
 21 24  1  0  0  0  0
 22 21  1  0  0  0  0
 22 26  1  0  0  0  0
 23 28  1  0  0  0  0
 23 25  1  0  0  0  0
 24 25  1  0  0  0  0
 24  1  1  6  0  0  0
 26 23  2  0  0  0  0
 28 29  2  0  0  0  0
 29 27  2  0  0  0  0
 30 27  1  0  0  0  0
 30 31  1  0  0  0  0
 32 34  2  0  0  0  0
 33 34  1  0  0  0  0
 33 36  1  0  0  0  0
 34 31  1  0  0  0  0
 36 38  1  0  0  0  0
 36 42  1  1  0  0  0
 37 39  1  0  0  0  0
 37 41  1  1  0  0  0
 37 36  1  0  0  0  0
 39 35  1  6  0  0  0
 39 40  1  0  0  0  0
 40 38  1  0  0  0  0
 43 46  2  0  0  0  0
 44 43  1  0  0  0  0
 44 48  1  0  0  0  0
 45  1  1  1  0  0  0
 46 45  1  0  0  0  0
 47 45  1  0  0  0  0
 47 50  1  0  0  0  0
 48 47  2  0  0  0  0
 49 50  1  0  0  0  0
M  END
>  <MODEL>
9

>  <REMARK>
 VINA RESULT:      -6.4      3.233     10.740
  Name = 
  14 active torsions:
  status: ('A' for Active; 'I' for Inactive)
    1  A    between atoms: N_1  and  C_7
    2  A    between atoms: N_1  and  C_49
    3  A    between atoms: C_4  and  N_33
    4  A    between atoms: C_7  and  C_23
    5  A    between atoms: C_12  and  C_14
    6  A    between atoms: C_12  and  C_43
    7  A    between atoms: C_14  and  C_15
    8  A    between atoms: N_17  and  C_22
    9  A    between atoms: N_17  and  C_24
   10  A    between atoms: N_17  and  C_32
   11  A    between atoms: C_19  and  C_36
   12  A    between atoms: C_27  and  O_44
   13  A    between atoms: N_29  and  C_48
   14  A    between atoms: O_35  and  C_41
                            x       y       z     vdW  Elec       q    Type
                         _______ _______ _______ _____ _____    ______ ____

>  <TORSDO>
F 14

$$$$
