=
 OpenBabel10232409093D

 44 48  0  0  1  0  0  0  0  0999 V2000
  190.4100  177.2340  140.2440 N   0  0  0  0  0  0  0  0  0  0  0  0
  188.8610  177.3100  138.7780 C   0  0  0  0  0  0  0  0  0  0  0  0
  189.3520  177.9370  139.8640 N   0  0  0  0  0  0  0  0  0  0  0  0
  189.5410  175.2820  137.4650 N   0  0  0  0  0  2  0  0  0  0  0  0
  190.6460  176.1930  139.4610 N   0  0  0  0  0  0  0  0  0  0  0  0
  189.6750  176.2240  138.5310 C   0  0  0  0  0  0  0  0  0  0  0  0
  187.6800  177.7570  138.0210 C   0  0  0  0  0  0  0  0  0  0  0  0
  187.7220  177.7270  136.5850 N   0  0  0  0  0  2  0  0  0  0  0  0
  186.6370  178.1660  138.6850 N   0  0  0  0  0  0  0  0  0  0  0  0
  186.6920  178.1020  135.7910 O   0  0  0  0  0  1  0  0  0  0  0  0
  185.3920  178.6460  138.1030 C   0  0  0  0  0  2  0  0  0  0  0  0
  183.6920  178.8100  141.4690 C   0  0  0  0  0  0  0  0  0  0  0  0
  181.4030  178.8500  142.4540 S   0  0  0  0  0  0  0  0  0  0  0  0
  181.9710  178.7250  139.7530 C   0  0  0  0  0  3  0  0  0  0  0  0
  184.3380  178.7110  139.1500 C   0  0  0  0  0  0  0  0  0  0  0  0
  182.6820  178.9040  143.5650 C   0  0  0  0  0  3  0  0  0  0  0  0
  182.3620  178.7900  141.0870 C   0  0  0  0  0  0  0  0  0  0  0  0
  184.7010  178.7680  140.5070 C   0  0  0  0  0  3  0  0  0  0  0  0
  183.8850  178.8730  142.8510 C   0  0  0  0  0  3  0  0  0  0  0  0
  182.9790  178.6840  138.7770 C   0  0  0  0  0  3  0  0  0  0  0  0
  190.4870  174.1930  137.2720 C   0  0  0  0  0  2  0  0  0  0  0  0
  191.6550  174.6630  136.4280 C   0  0  0  0  0  2  0  0  0  0  0  0
  192.9400  174.0620  136.9630 C   0  0  0  0  0  2  0  0  0  0  0  0
  193.2620  176.5030  137.3120 C   0  0  0  0  0  1  0  0  0  0  0  0
  193.7450  175.1180  137.7020 C   0  0  2  0  0  3  0  0  0  0  0  0
  195.1520  174.9870  137.3590 N   0  0  0  0  0  2  0  0  0  0  0  0
  197.4290  174.0450  138.4040 O   0  0  0  0  0  0  0  0  0  0  0  0
  195.2500  172.7730  139.0840 O   0  0  0  0  0  1  0  0  0  0  0  0
  195.8380  175.2780  140.0790 O   0  0  0  0  0  1  0  0  0  0  0  0
  195.9690  174.2620  138.7330 P   0  0  0  0  0  0  0  0  0  0  0  0
  191.2670  177.6120  141.3550 C   0  0  0  0  0  2  0  0  0  0  0  0
  190.6070  177.2210  142.6620 C   0  0  0  0  0  2  0  0  0  0  0  0
  190.8150  178.3180  143.6840 C   0  0  0  0  0  2  0  0  0  0  0  0
  191.4480  177.7290  144.9250 C   0  0  0  0  0  2  0  0  0  0  0  0
  190.5690  176.6180  145.4660 C   0  0  0  0  0  2  0  0  0  0  0  0
  185.6650  178.2720  146.0740 C   0  0  0  0  0  3  0  0  0  0  0  0
  188.3150  177.4740  146.1390 C   0  0  0  0  0  0  0  0  0  0  0  0
  189.8340  177.5180  147.6800 C   0  0  0  0  0  3  0  0  0  0  0  0
  188.6790  178.0530  148.2600 C   0  0  0  0  0  3  0  0  0  0  0  0
  187.7330  178.0110  147.2530 C   0  0  0  0  0  0  0  0  0  0  0  0
  187.6110  177.3100  144.9450 C   0  0  0  0  0  3  0  0  0  0  0  0
  186.4040  178.4260  147.2620 C   0  0  0  0  0  3  0  0  0  0  0  0
  189.5930  177.1650  146.3960 N   0  0  0  0  0  0  0  0  0  0  0  0
  186.2660  177.7190  144.9230 C   0  0  0  0  0  3  0  0  0  0  0  0
  1 31  1  0  0  0  0
  2  3  2  0  0  0  0
  3  1  1  0  0  0  0
  4  6  1  0  0  0  0
  5  1  1  0  0  0  0
  6  2  1  0  0  0  0
  6  5  2  0  0  0  0
  7  9  2  0  0  0  0
  7  2  1  0  0  0  0
  8  7  1  0  0  0  0
 10  8  1  0  0  0  0
 11  9  1  0  0  0  0
 11 15  1  0  0  0  0
 12 19  1  0  0  0  0
 13 16  1  0  0  0  0
 14 17  2  0  0  0  0
 15 18  1  0  0  0  0
 17 12  1  0  0  0  0
 17 13  1  0  0  0  0
 18 12  2  0  0  0  0
 19 16  2  0  0  0  0
 20 15  2  0  0  0  0
 20 14  1  0  0  0  0
 21  4  1  0  0  0  0
 22 23  1  0  0  0  0
 22 21  1  0  0  0  0
 23 25  1  0  0  0  0
 25 24  1  6  0  0  0
 26 25  1  0  0  0  0
 26 30  1  0  0  0  0
 27 30  2  0  0  0  0
 30 28  1  0  0  0  0
 30 29  1  0  0  0  0
 31 32  1  0  0  0  0
 32 33  1  0  0  0  0
 33 34  1  0  0  0  0
 34 35  1  0  0  0  0
 35 43  1  0  0  0  0
 36 42  1  0  0  0  0
 37 43  1  0  0  0  0
 37 40  1  0  0  0  0
 38 39  2  0  0  0  0
 40 42  2  0  0  0  0
 40 39  1  0  0  0  0
 41 37  2  0  0  0  0
 43 38  1  0  0  0  0
 44 41  1  0  0  0  0
 44 36  2  0  0  0  0
M  END
>  <MODEL>
1

>  <REMARK>
 VINA RESULT:      -9.0      0.000      0.000
  Name = 
  15 active torsions:
  status: ('A' for Active; 'I' for Inactive)
    1  A    between atoms: C_3  and  C_16
    2  A    between atoms: C_8  and  C_12
    3  A    between atoms: C_8  and  C_24
    4  A    between atoms: N_9  and  C_24
    5  A    between atoms: C_10  and  C_21
    6  A    between atoms: C_10  and  N_23
    7  A    between atoms: C_11  and  C_25
    8  A    between atoms: C_11  and  N_38
    9  A    between atoms: C_12  and  C_22
   10  A    between atoms: N_13  and  P_39
   11  A    between atoms: N_13  and  C_42
   12  A    between atoms: C_21  and  C_33
   13  A    between atoms: C_22  and  C_36
   14  A    between atoms: C_33  and  C_42
   15  A    between atoms: C_36  and  N_40
                            x       y       z     vdW  Elec       q    Type
                         _______ _______ _______ _____ _____    ______ ____

>  <TORSDO>
F 15

$$$$
=
 OpenBabel10232409093D

 44 48  0  0  1  0  0  0  0  0999 V2000
  190.4300  177.1180  140.6370 N   0  0  0  0  0  0  0  0  0  0  0  0
  189.0870  177.3930  139.0000 C   0  0  0  0  0  0  0  0  0  0  0  0
  189.4410  177.8880  140.2020 N   0  0  0  0  0  0  0  0  0  0  0  0
  189.9040  175.4950  137.5740 N   0  0  0  0  0  2  0  0  0  0  0  0
  190.7510  176.1590  139.7820 N   0  0  0  0  0  0  0  0  0  0  0  0
  189.9110  176.3160  138.7450 C   0  0  0  0  0  0  0  0  0  0  0  0
  188.0220  177.9490  138.1510 C   0  0  0  0  0  0  0  0  0  0  0  0
  188.2560  179.1920  137.4670 N   0  0  0  0  0  2  0  0  0  0  0  0
  186.9010  177.2930  138.0520 N   0  0  0  0  0  0  0  0  0  0  0  0
  187.3530  179.7880  136.6540 O   0  0  0  0  0  1  0  0  0  0  0  0
  185.7450  177.6980  137.2660 C   0  0  0  0  0  2  0  0  0  0  0  0
  182.5090  177.0860  139.1110 C   0  0  0  0  0  0  0  0  0  0  0  0
  180.9660  178.2350  140.6950 S   0  0  0  0  0  0  0  0  0  0  0  0
  183.3020  179.3120  139.6860 C   0  0  0  0  0  3  0  0  0  0  0  0
  184.5710  177.8900  138.1590 C   0  0  0  0  0  0  0  0  0  0  0  0
  180.5070  176.6730  140.2260 C   0  0  0  0  0  3  0  0  0  0  0  0
  182.3720  178.2820  139.7930 C   0  0  0  0  0  0  0  0  0  0  0  0
  183.6090  176.8720  138.2810 C   0  0  0  0  0  3  0  0  0  0  0  0
  181.4740  176.1780  139.3440 C   0  0  0  0  0  3  0  0  0  0  0  0
  184.4140  179.1060  138.8540 C   0  0  0  0  0  3  0  0  0  0  0  0
  190.8510  174.4060  137.3880 C   0  0  0  0  0  2  0  0  0  0  0  0
  191.7550  174.7000  136.2070 C   0  0  0  0  0  2  0  0  0  0  0  0
  193.1440  174.1610  136.4860 C   0  0  0  0  0  2  0  0  0  0  0  0
  193.4630  176.5280  137.1810 C   0  0  0  0  0  1  0  0  0  0  0  0
  193.8870  175.0920  137.4300 C   0  0  2  0  0  3  0  0  0  0  0  0
  195.3190  174.9700  137.2070 N   0  0  0  0  0  2  0  0  0  0  0  0
  195.7690  175.0840  139.8440 O   0  0  0  0  0  1  0  0  0  0  0  0
  197.6820  174.0340  138.4040 O   0  0  0  0  0  0  0  0  0  0  0  0
  195.3160  172.6940  138.8720 O   0  0  0  0  0  1  0  0  0  0  0  0
  196.0160  174.2150  138.6300 P   0  0  0  0  0  0  0  0  0  0  0  0
  191.1400  177.3530  141.8820 C   0  0  0  0  0  2  0  0  0  0  0  0
  190.1950  177.1560  143.0510 C   0  0  0  0  0  2  0  0  0  0  0  0
  190.7750  177.8040  144.2890 C   0  0  0  0  0  2  0  0  0  0  0  0
  189.6480  178.2220  145.2070 C   0  0  0  0  0  2  0  0  0  0  0  0
  188.6150  177.1140  145.2810 C   0  0  0  0  0  2  0  0  0  0  0  0
  184.0390  178.8100  143.4530 C   0  0  0  0  0  3  0  0  0  0  0  0
  186.3220  177.9890  144.7870 C   0  0  0  0  0  0  0  0  0  0  0  0
  186.9090  178.0200  146.8690 C   0  0  0  0  0  3  0  0  0  0  0  0
  185.6220  178.5650  146.8220 C   0  0  0  0  0  3  0  0  0  0  0  0
  185.2790  178.5310  145.4840 C   0  0  0  0  0  0  0  0  0  0  0  0
  186.2810  177.8310  143.4010 C   0  0  0  0  0  3  0  0  0  0  0  0
  184.1130  178.9570  144.8510 C   0  0  0  0  0  3  0  0  0  0  0  0
  187.3150  177.6700  145.6270 N   0  0  0  0  0  0  0  0  0  0  0  0
  185.1170  178.2520  142.7330 C   0  0  0  0  0  3  0  0  0  0  0  0
  1 31  1  0  0  0  0
  2  3  2  0  0  0  0
  3  1  1  0  0  0  0
  4  6  1  0  0  0  0
  5  1  1  0  0  0  0
  6  2  1  0  0  0  0
  6  5  2  0  0  0  0
  7  2  1  0  0  0  0
  8  7  1  0  0  0  0
  9  7  2  0  0  0  0
 10  8  1  0  0  0  0
 11  9  1  0  0  0  0
 11 15  1  0  0  0  0
 12 19  1  0  0  0  0
 12 17  1  0  0  0  0
 14 17  2  0  0  0  0
 15 18  1  0  0  0  0
 15 20  2  0  0  0  0
 16 13  1  0  0  0  0
 17 13  1  0  0  0  0
 18 12  2  0  0  0  0
 19 16  2  0  0  0  0
 20 14  1  0  0  0  0
 21  4  1  0  0  0  0
 22 23  1  0  0  0  0
 22 21  1  0  0  0  0
 23 25  1  0  0  0  0
 25 24  1  6  0  0  0
 26 25  1  0  0  0  0
 26 30  1  0  0  0  0
 28 30  2  0  0  0  0
 30 29  1  0  0  0  0
 30 27  1  0  0  0  0
 31 32  1  0  0  0  0
 32 33  1  0  0  0  0
 33 34  1  0  0  0  0
 34 35  1  0  0  0  0
 35 43  1  0  0  0  0
 36 42  1  0  0  0  0
 37 40  1  0  0  0  0
 37 43  1  0  0  0  0
 39 38  2  0  0  0  0
 40 39  1  0  0  0  0
 41 37  2  0  0  0  0
 42 40  2  0  0  0  0
 43 38  1  0  0  0  0
 44 41  1  0  0  0  0
 44 36  2  0  0  0  0
M  END
>  <MODEL>
2

>  <REMARK>
 VINA RESULT:      -9.0      1.178      2.107
  Name = 
  15 active torsions:
  status: ('A' for Active; 'I' for Inactive)
    1  A    between atoms: C_3  and  C_16
    2  A    between atoms: C_8  and  C_12
    3  A    between atoms: C_8  and  C_24
    4  A    between atoms: N_9  and  C_24
    5  A    between atoms: C_10  and  C_21
    6  A    between atoms: C_10  and  N_23
    7  A    between atoms: C_11  and  C_25
    8  A    between atoms: C_11  and  N_38
    9  A    between atoms: C_12  and  C_22
   10  A    between atoms: N_13  and  P_39
   11  A    between atoms: N_13  and  C_42
   12  A    between atoms: C_21  and  C_33
   13  A    between atoms: C_22  and  C_36
   14  A    between atoms: C_33  and  C_42
   15  A    between atoms: C_36  and  N_40
                            x       y       z     vdW  Elec       q    Type
                         _______ _______ _______ _____ _____    ______ ____

>  <TORSDO>
F 15

$$$$
=
 OpenBabel10232409093D

 44 48  0  0  1  0  0  0  0  0999 V2000
  190.8840  177.2720  140.6740 N   0  0  0  0  0  0  0  0  0  0  0  0
  189.5170  177.0880  139.0440 C   0  0  0  0  0  0  0  0  0  0  0  0
  189.5990  177.3690  140.3590 N   0  0  0  0  0  0  0  0  0  0  0  0
  191.1930  176.5100  137.2660 N   0  0  0  0  0  2  0  0  0  0  0  0
  191.6460  176.9580  139.6370 N   0  0  0  0  0  0  0  0  0  0  0  0
  190.7990  176.8350  138.6010 C   0  0  0  0  0  0  0  0  0  0  0  0
  188.2660  177.0840  138.2690 C   0  0  0  0  0  0  0  0  0  0  0  0
  187.8980  175.8960  137.5490 N   0  0  0  0  0  2  0  0  0  0  0  0
  187.5370  178.1630  138.2630 N   0  0  0  0  0  0  0  0  0  0  0  0
  186.7670  175.7770  136.8150 O   0  0  0  0  0  1  0  0  0  0  0  0
  186.2800  178.3370  137.5500 C   0  0  0  0  0  2  0  0  0  0  0  0
  184.3410  178.6880  140.7700 C   0  0  0  0  0  0  0  0  0  0  0  0
  181.9990  178.5700  141.6130 S   0  0  0  0  0  0  0  0  0  0  0  0
  182.7650  178.2000  138.9840 C   0  0  0  0  0  3  0  0  0  0  0  0
  185.1550  178.3970  138.5210 C   0  0  0  0  0  0  0  0  0  0  0  0
  183.1830  178.9050  142.7780 C   0  0  0  0  0  3  0  0  0  0  0  0
  183.0520  178.4650  140.3200 C   0  0  0  0  0  0  0  0  0  0  0  0
  185.4130  178.6550  139.8790 C   0  0  0  0  0  3  0  0  0  0  0  0
  184.4290  178.9340  142.1420 C   0  0  0  0  0  3  0  0  0  0  0  0
  183.8360  178.1660  138.0790 C   0  0  0  0  0  3  0  0  0  0  0  0
  192.5850  176.3040  136.8980 C   0  0  0  0  0  2  0  0  0  0  0  0
  192.9420  174.8350  137.0210 C   0  0  0  0  0  2  0  0  0  0  0  0
  194.0280  174.6650  138.0650 C   0  0  0  0  0  2  0  0  0  0  0  0
  195.0830  172.9700  136.5820 C   0  0  0  0  0  1  0  0  0  0  0  0
  195.3240  174.2210  137.4060 C   0  0  2  0  0  3  0  0  0  0  0  0
  196.3190  173.9380  138.4280 N   0  0  0  0  0  2  0  0  0  0  0  0
  197.5830  175.5660  136.7200 O   0  0  0  0  0  0  0  0  0  0  0  0
  198.9340  173.4750  137.5140 O   0  0  0  0  0  1  0  0  0  0  0  0
  198.4550  175.6150  139.1880 O   0  0  0  0  0  1  0  0  0  0  0  0
  197.8260  174.6830  137.9240 P   0  0  0  0  0  0  0  0  0  0  0  0
  191.4080  177.5580  141.9980 C   0  0  0  0  0  2  0  0  0  0  0  0
  190.2760  177.9820  142.9120 C   0  0  0  0  0  2  0  0  0  0  0  0
  190.8380  178.7250  144.1060 C   0  0  0  0  0  2  0  0  0  0  0  0
  191.3330  177.7250  145.1270 C   0  0  0  0  0  2  0  0  0  0  0  0
  190.2410  176.7140  145.4190 C   0  0  0  0  0  2  0  0  0  0  0  0
  185.4070  178.4800  146.2430 C   0  0  0  0  0  3  0  0  0  0  0  0
  188.0340  177.6090  146.1940 C   0  0  0  0  0  0  0  0  0  0  0  0
  189.6040  177.5620  147.6840 C   0  0  0  0  0  3  0  0  0  0  0  0
  188.4840  178.1090  148.3190 C   0  0  0  0  0  3  0  0  0  0  0  0
  187.5050  178.1250  147.3440 C   0  0  0  0  0  0  0  0  0  0  0  0
  187.2880  177.5020  145.0200 C   0  0  0  0  0  3  0  0  0  0  0  0
  186.1880  178.5750  147.4100 C   0  0  0  0  0  3  0  0  0  0  0  0
  189.3110  177.2570  146.3990 N   0  0  0  0  0  0  0  0  0  0  0  0
  185.9550  177.9480  145.0550 C   0  0  0  0  0  3  0  0  0  0  0  0
  1 31  1  0  0  0  0
  2  3  2  0  0  0  0
  3  1  1  0  0  0  0
  4  6  1  0  0  0  0
  5  1  1  0  0  0  0
  6  2  1  0  0  0  0
  6  5  2  0  0  0  0
  7  2  1  0  0  0  0
  8  7  1  0  0  0  0
  9  7  2  0  0  0  0
 10  8  1  0  0  0  0
 11  9  1  0  0  0  0
 11 15  1  0  0  0  0
 12 19  1  0  0  0  0
 13 16  1  0  0  0  0
 14 17  2  0  0  0  0
 15 18  1  0  0  0  0
 17 12  1  0  0  0  0
 17 13  1  0  0  0  0
 18 12  2  0  0  0  0
 19 16  2  0  0  0  0
 20 15  2  0  0  0  0
 20 14  1  0  0  0  0
 21 22  1  0  0  0  0
 21  4  1  0  0  0  0
 22 23  1  0  0  0  0
 25 24  1  1  0  0  0
 25 23  1  0  0  0  0
 25 26  1  0  0  0  0
 27 30  2  0  0  0  0
 28 30  1  0  0  0  0
 30 26  1  0  0  0  0
 30 29  1  0  0  0  0
 31 32  1  0  0  0  0
 32 33  1  0  0  0  0
 33 34  1  0  0  0  0
 34 35  1  0  0  0  0
 35 43  1  0  0  0  0
 36 42  1  0  0  0  0
 37 43  1  0  0  0  0
 37 40  1  0  0  0  0
 38 39  2  0  0  0  0
 40 42  2  0  0  0  0
 40 39  1  0  0  0  0
 41 44  1  0  0  0  0
 41 37  2  0  0  0  0
 43 38  1  0  0  0  0
 44 36  2  0  0  0  0
M  END
>  <MODEL>
3

>  <REMARK>
 VINA RESULT:      -8.9      1.307      1.555
  Name = 
  15 active torsions:
  status: ('A' for Active; 'I' for Inactive)
    1  A    between atoms: C_3  and  C_16
    2  A    between atoms: C_8  and  C_12
    3  A    between atoms: C_8  and  C_24
    4  A    between atoms: N_9  and  C_24
    5  A    between atoms: C_10  and  C_21
    6  A    between atoms: C_10  and  N_23
    7  A    between atoms: C_11  and  C_25
    8  A    between atoms: C_11  and  N_38
    9  A    between atoms: C_12  and  C_22
   10  A    between atoms: N_13  and  P_39
   11  A    between atoms: N_13  and  C_42
   12  A    between atoms: C_21  and  C_33
   13  A    between atoms: C_22  and  C_36
   14  A    between atoms: C_33  and  C_42
   15  A    between atoms: C_36  and  N_40
                            x       y       z     vdW  Elec       q    Type
                         _______ _______ _______ _____ _____    ______ ____

>  <TORSDO>
F 15

$$$$
=
 OpenBabel10232409093D

 44 48  0  0  1  0  0  0  0  0999 V2000
  190.7610  177.0130  140.2560 N   0  0  0  0  0  0  0  0  0  0  0  0
  189.2950  177.3260  138.7360 C   0  0  0  0  0  0  0  0  0  0  0  0
  189.7980  177.8420  139.8750 N   0  0  0  0  0  0  0  0  0  0  0  0
  189.8250  175.3090  137.3390 N   0  0  0  0  0  2  0  0  0  0  0  0
  190.9250  175.9950  139.4250 N   0  0  0  0  0  0  0  0  0  0  0  0
  190.0050  176.1760  138.4620 C   0  0  0  0  0  0  0  0  0  0  0  0
  188.2010  177.9310  137.9600 C   0  0  0  0  0  0  0  0  0  0  0  0
  188.3900  179.2390  137.3960 N   0  0  0  0  0  2  0  0  0  0  0  0
  187.0970  177.2560  137.8150 N   0  0  0  0  0  0  0  0  0  0  0  0
  187.4580  179.8850  136.6560 O   0  0  0  0  0  1  0  0  0  0  0  0
  185.9170  177.7010  137.0880 C   0  0  0  0  0  2  0  0  0  0  0  0
  182.7160  177.0050  138.9640 C   0  0  0  0  0  0  0  0  0  0  0  0
  181.2420  178.0490  140.6800 S   0  0  0  0  0  0  0  0  0  0  0  0
  183.5760  179.1570  139.7000 C   0  0  0  0  0  3  0  0  0  0  0  0
  184.7710  177.8420  138.0250 C   0  0  0  0  0  0  0  0  0  0  0  0
  180.7350  176.5420  140.0950 C   0  0  0  0  0  3  0  0  0  0  0  0
  182.6240  178.1420  139.7460 C   0  0  0  0  0  0  0  0  0  0  0  0
  183.7890  176.8380  138.0890 C   0  0  0  0  0  3  0  0  0  0  0  0
  181.6670  176.1030  139.1490 C   0  0  0  0  0  3  0  0  0  0  0  0
  184.6600  178.9990  138.8240 C   0  0  0  0  0  3  0  0  0  0  0  0
  190.6630  174.1390  137.1230 C   0  0  0  0  0  2  0  0  0  0  0  0
  191.9560  174.5450  136.4430 C   0  0  0  0  0  2  0  0  0  0  0  0
  193.1300  173.9280  137.1780 C   0  0  0  0  0  2  0  0  0  0  0  0
  193.7150  176.3350  136.9570 C   0  0  0  0  0  1  0  0  0  0  0  0
  194.1990  174.9770  137.4330 C   0  0  2  0  0  3  0  0  0  0  0  0
  195.4120  174.6220  136.7150 N   0  0  0  0  0  2  0  0  0  0  0  0
  197.2300  172.8230  137.5040 O   0  0  0  0  0  0  0  0  0  0  0  0
  195.8680  173.9800  139.4120 O   0  0  0  0  0  1  0  0  0  0  0  0
  197.8210  175.3250  138.0010 O   0  0  0  0  0  1  0  0  0  0  0  0
  196.6130  174.1450  137.9030 P   0  0  0  0  0  0  0  0  0  0  0  0
  191.6010  177.2420  141.4190 C   0  0  0  0  0  2  0  0  0  0  0  0
  190.7420  177.2800  142.6670 C   0  0  0  0  0  2  0  0  0  0  0  0
  190.1230  175.9170  142.8990 C   0  0  0  0  0  2  0  0  0  0  0  0
  188.6330  176.0760  143.1070 C   0  0  0  0  0  2  0  0  0  0  0  0
  188.2910  177.5480  143.2330 C   0  0  0  0  0  2  0  0  0  0  0  0
  188.5750  177.8520  148.4290 C   0  0  0  0  0  3  0  0  0  0  0  0
  188.0380  177.7810  145.7140 C   0  0  0  0  0  0  0  0  0  0  0  0
  186.2170  177.9810  144.5620 C   0  0  0  0  0  3  0  0  0  0  0  0
  185.8440  178.1220  145.9020 C   0  0  0  0  0  3  0  0  0  0  0  0
  187.0250  177.9900  146.6070 C   0  0  0  0  0  0  0  0  0  0  0  0
  189.3590  177.5970  146.1240 C   0  0  0  0  0  3  0  0  0  0  0  0
  187.2530  178.0320  147.9810 C   0  0  0  0  0  3  0  0  0  0  0  0
  187.5520  177.7820  144.4650 N   0  0  0  0  0  0  0  0  0  0  0  0
  189.6210  177.6350  147.5050 C   0  0  0  0  0  3  0  0  0  0  0  0
  1 31  1  0  0  0  0
  2  3  2  0  0  0  0
  3  1  1  0  0  0  0
  4  6  1  0  0  0  0
  5  1  1  0  0  0  0
  6  2  1  0  0  0  0
  6  5  2  0  0  0  0
  7  2  1  0  0  0  0
  8  7  1  0  0  0  0
  9  7  2  0  0  0  0
 10  8  1  0  0  0  0
 11  9  1  0  0  0  0
 11 15  1  0  0  0  0
 12 19  1  0  0  0  0
 12 17  1  0  0  0  0
 14 17  2  0  0  0  0
 15 18  1  0  0  0  0
 15 20  2  0  0  0  0
 16 13  1  0  0  0  0
 17 13  1  0  0  0  0
 18 12  2  0  0  0  0
 19 16  2  0  0  0  0
 20 14  1  0  0  0  0
 21  4  1  0  0  0  0
 22 21  1  0  0  0  0
 22 23  1  0  0  0  0
 23 25  1  0  0  0  0
 25 24  1  6  0  0  0
 26 25  1  0  0  0  0
 26 30  1  0  0  0  0
 27 30  2  0  0  0  0
 30 29  1  0  0  0  0
 30 28  1  0  0  0  0
 31 32  1  0  0  0  0
 32 33  1  0  0  0  0
 33 34  1  0  0  0  0
 34 35  1  0  0  0  0
 35 43  1  0  0  0  0
 37 41  2  0  0  0  0
 37 40  1  0  0  0  0
 38 39  2  0  0  0  0
 39 40  1  0  0  0  0
 40 42  2  0  0  0  0
 41 44  1  0  0  0  0
 42 36  1  0  0  0  0
 43 38  1  0  0  0  0
 43 37  1  0  0  0  0
 44 36  2  0  0  0  0
M  END
>  <MODEL>
4

>  <REMARK>
 VINA RESULT:      -8.8      1.345      2.273
  Name = 
  15 active torsions:
  status: ('A' for Active; 'I' for Inactive)
    1  A    between atoms: C_3  and  C_16
    2  A    between atoms: C_8  and  C_12
    3  A    between atoms: C_8  and  C_24
    4  A    between atoms: N_9  and  C_24
    5  A    between atoms: C_10  and  C_21
    6  A    between atoms: C_10  and  N_23
    7  A    between atoms: C_11  and  C_25
    8  A    between atoms: C_11  and  N_38
    9  A    between atoms: C_12  and  C_22
   10  A    between atoms: N_13  and  P_39
   11  A    between atoms: N_13  and  C_42
   12  A    between atoms: C_21  and  C_33
   13  A    between atoms: C_22  and  C_36
   14  A    between atoms: C_33  and  C_42
   15  A    between atoms: C_36  and  N_40
                            x       y       z     vdW  Elec       q    Type
                         _______ _______ _______ _____ _____    ______ ____

>  <TORSDO>
F 15

$$$$
=
 OpenBabel10232409093D

 44 48  0  0  1  0  0  0  0  0999 V2000
  184.3980  178.9180  139.9680 N   0  0  0  0  0  0  0  0  0  0  0  0
  184.9020  178.8170  142.0400 C   0  0  0  0  0  0  0  0  0  0  0  0
  183.8650  178.8740  141.1820 N   0  0  0  0  0  0  0  0  0  0  0  0
  187.3970  178.7510  141.7750 N   0  0  0  0  0  2  0  0  0  0  0  0
  185.7210  178.8790  139.9850 N   0  0  0  0  0  0  0  0  0  0  0  0
  186.0560  178.8180  141.2850 C   0  0  0  0  0  0  0  0  0  0  0  0
  184.7680  178.7490  143.5040 C   0  0  0  0  0  0  0  0  0  0  0  0
  183.5750  179.2630  144.1190 N   0  0  0  0  0  2  0  0  0  0  0  0
  185.7430  178.2250  144.1920 N   0  0  0  0  0  0  0  0  0  0  0  0
  183.3420  179.2410  145.4520 O   0  0  0  0  0  1  0  0  0  0  0  0
  185.7820  178.0830  145.6400 C   0  0  0  0  0  2  0  0  0  0  0  0
  189.4350  177.1370  145.5570 C   0  0  0  0  0  0  0  0  0  0  0  0
  191.3290  176.6880  147.1130 S   0  0  0  0  0  0  0  0  0  0  0  0
  188.7660  177.3790  147.8820 C   0  0  0  0  0  3  0  0  0  0  0  0
  187.1650  177.7530  146.0770 C   0  0  0  0  0  0  0  0  0  0  0  0
  191.6850  176.5460  145.4630 C   0  0  0  0  0  3  0  0  0  0  0  0
  189.7230  177.1020  146.9090 C   0  0  0  0  0  0  0  0  0  0  0  0
  188.1510  177.4610  145.1190 C   0  0  0  0  0  3  0  0  0  0  0  0
  190.5230  176.8280  144.7370 C   0  0  0  0  0  3  0  0  0  0  0  0
  187.4710  177.7070  147.4520 C   0  0  0  0  0  3  0  0  0  0  0  0
  188.5460  178.7160  140.8830 C   0  0  0  0  0  2  0  0  0  0  0  0
  188.9540  177.2790  140.6210 C   0  0  0  0  0  2  0  0  0  0  0  0
  190.3000  177.2560  139.9230 C   0  0  0  0  0  2  0  0  0  0  0  0
  188.6980  176.6200  138.1290 C   0  0  0  0  0  1  0  0  0  0  0  0
  190.1600  176.6510  138.5350 C   0  0  2  0  0  3  0  0  0  0  0  0
  190.6850  175.2950  138.5400 N   0  0  0  0  0  2  0  0  0  0  0  0
  193.2310  175.7310  137.8370 O   0  0  0  0  0  1  0  0  0  0  0  0
  191.4480  176.1280  135.9680 O   0  0  0  0  0  0  0  0  0  0  0  0
  192.1230  173.5910  136.8130 O   0  0  0  0  0  1  0  0  0  0  0  0
  191.9220  175.1990  137.2980 P   0  0  0  0  0  0  0  0  0  0  0  0
  183.6110  178.9280  138.7480 C   0  0  0  0  0  2  0  0  0  0  0  0
  183.0210  177.5520  138.5120 C   0  0  0  0  0  2  0  0  0  0  0  0
  182.9300  177.2850  137.0250 C   0  0  0  0  0  2  0  0  0  0  0  0
  184.3200  177.0420  136.4770 C   0  0  0  0  0  2  0  0  0  0  0  0
  184.3230  175.7770  135.6420 C   0  0  0  0  0  2  0  0  0  0  0  0
  188.6500  172.9580  136.3460 C   0  0  0  0  0  3  0  0  0  0  0  0
  186.1950  174.2350  136.2650 C   0  0  0  0  0  0  0  0  0  0  0  0
  184.3240  173.9070  137.3020 C   0  0  0  0  0  3  0  0  0  0  0  0
  185.2080  172.9350  137.7830 C   0  0  0  0  0  3  0  0  0  0  0  0
  186.3870  173.1720  137.1030 C   0  0  0  0  0  0  0  0  0  0  0  0
  187.2080  174.7110  135.4320 C   0  0  0  0  0  3  0  0  0  0  0  0
  187.6070  172.5020  137.1720 C   0  0  0  0  0  3  0  0  0  0  0  0
  184.9410  174.6910  136.3890 N   0  0  0  0  0  0  0  0  0  0  0  0
  188.4510  174.0550  135.4800 C   0  0  0  0  0  3  0  0  0  0  0  0
  1  5  1  0  0  0  0
  1  3  1  0  0  0  0
  2  7  1  0  0  0  0
  3  2  2  0  0  0  0
  5  6  2  0  0  0  0
  6  4  1  0  0  0  0
  6  2  1  0  0  0  0
  7  8  1  0  0  0  0
  7  9  2  0  0  0  0
  8 10  1  0  0  0  0
  9 11  1  0  0  0  0
 11 15  1  0  0  0  0
 12 17  1  0  0  0  0
 15 20  2  0  0  0  0
 16 13  1  0  0  0  0
 17 13  1  0  0  0  0
 17 14  2  0  0  0  0
 18 12  2  0  0  0  0
 18 15  1  0  0  0  0
 19 16  2  0  0  0  0
 19 12  1  0  0  0  0
 20 14  1  0  0  0  0
 21  4  1  0  0  0  0
 22 21  1  0  0  0  0
 23 22  1  0  0  0  0
 25 24  1  1  0  0  0
 25 26  1  0  0  0  0
 25 23  1  0  0  0  0
 28 30  2  0  0  0  0
 29 30  1  0  0  0  0
 30 27  1  0  0  0  0
 30 26  1  0  0  0  0
 31  1  1  0  0  0  0
 32 31  1  0  0  0  0
 33 32  1  0  0  0  0
 34 33  1  0  0  0  0
 35 43  1  0  0  0  0
 35 34  1  0  0  0  0
 36 42  1  0  0  0  0
 37 43  1  0  0  0  0
 37 40  1  0  0  0  0
 38 39  2  0  0  0  0
 40 42  2  0  0  0  0
 40 39  1  0  0  0  0
 41 44  1  0  0  0  0
 41 37  2  0  0  0  0
 43 38  1  0  0  0  0
 44 36  2  0  0  0  0
M  END
>  <MODEL>
5

>  <REMARK>
 VINA RESULT:      -8.6      3.692      8.428
  Name = 
  15 active torsions:
  status: ('A' for Active; 'I' for Inactive)
    1  A    between atoms: C_3  and  C_16
    2  A    between atoms: C_8  and  C_12
    3  A    between atoms: C_8  and  C_24
    4  A    between atoms: N_9  and  C_24
    5  A    between atoms: C_10  and  C_21
    6  A    between atoms: C_10  and  N_23
    7  A    between atoms: C_11  and  C_25
    8  A    between atoms: C_11  and  N_38
    9  A    between atoms: C_12  and  C_22
   10  A    between atoms: N_13  and  P_39
   11  A    between atoms: N_13  and  C_42
   12  A    between atoms: C_21  and  C_33
   13  A    between atoms: C_22  and  C_36
   14  A    between atoms: C_33  and  C_42
   15  A    between atoms: C_36  and  N_40
                            x       y       z     vdW  Elec       q    Type
                         _______ _______ _______ _____ _____    ______ ____

>  <TORSDO>
F 15

$$$$
=
 OpenBabel10232409093D

 44 48  0  0  1  0  0  0  0  0999 V2000
  184.2650  178.8340  139.9170 N   0  0  0  0  0  0  0  0  0  0  0  0
  184.7900  178.7850  141.9850 C   0  0  0  0  0  0  0  0  0  0  0  0
  183.7440  178.8140  141.1360 N   0  0  0  0  0  0  0  0  0  0  0  0
  187.2830  178.7330  141.6970 N   0  0  0  0  0  2  0  0  0  0  0  0
  185.5890  178.8060  139.9210 N   0  0  0  0  0  0  0  0  0  0  0  0
  185.9370  178.7780  141.2190 C   0  0  0  0  0  0  0  0  0  0  0  0
  184.6710  178.7500  143.4520 C   0  0  0  0  0  0  0  0  0  0  0  0
  183.4360  179.1640  144.0600 N   0  0  0  0  0  2  0  0  0  0  0  0
  185.6950  178.3440  144.1470 N   0  0  0  0  0  0  0  0  0  0  0  0
  183.2130  179.1610  145.3950 O   0  0  0  0  0  1  0  0  0  0  0  0
  185.7550  178.2510  145.5980 C   0  0  0  0  0  2  0  0  0  0  0  0
  189.3770  177.1940  145.4760 C   0  0  0  0  0  0  0  0  0  0  0  0
  191.2370  176.5640  147.0100 S   0  0  0  0  0  0  0  0  0  0  0  0
  188.6890  177.2790  147.8070 C   0  0  0  0  0  3  0  0  0  0  0  0
  187.1220  177.8440  146.0210 C   0  0  0  0  0  0  0  0  0  0  0  0
  191.6070  176.5380  145.3570 C   0  0  0  0  0  3  0  0  0  0  0  0
  189.6470  177.0460  146.8250 C   0  0  0  0  0  0  0  0  0  0  0  0
  188.1090  177.5930  145.0520 C   0  0  0  0  0  3  0  0  0  0  0  0
  190.4630  176.9130  144.6450 C   0  0  0  0  0  3  0  0  0  0  0  0
  187.4100  177.6820  147.3910 C   0  0  0  0  0  3  0  0  0  0  0  0
  188.4240  178.6860  140.7950 C   0  0  0  0  0  2  0  0  0  0  0  0
  189.0890  177.3260  140.8710 C   0  0  0  0  0  2  0  0  0  0  0  0
  190.3460  177.3300  140.0230 C   0  0  0  0  0  2  0  0  0  0  0  0
  191.1960  175.6900  138.3570 C   0  0  0  0  0  1  0  0  0  0  0  0
  190.0770  176.6620  138.6840 C   0  0  2  0  0  3  0  0  0  0  0  0
  190.0000  177.6730  137.6420 N   0  0  0  0  0  2  0  0  0  0  0  0
  187.5480  176.6000  137.7190 O   0  0  0  0  0  1  0  0  0  0  0  0
  188.4220  177.2820  135.3510 O   0  0  0  0  0  0  0  0  0  0  0  0
  187.6480  179.1670  137.2110 O   0  0  0  0  0  1  0  0  0  0  0  0
  188.3660  177.6500  137.0000 P   0  0  0  0  0  0  0  0  0  0  0  0
  183.4660  178.8090  138.7040 C   0  0  0  0  0  2  0  0  0  0  0  0
  182.4190  177.7190  138.8070 C   0  0  0  0  0  2  0  0  0  0  0  0
  181.4510  177.8320  137.6490 C   0  0  0  0  0  2  0  0  0  0  0  0
  181.2900  176.4750  136.9990 C   0  0  0  0  0  2  0  0  0  0  0  0
  181.2370  175.4030  138.0690 C   0  0  0  0  0  2  0  0  0  0  0  0
  185.2930  172.4040  136.7600 C   0  0  0  0  0  3  0  0  0  0  0  0
  182.9110  173.6920  137.3330 C   0  0  0  0  0  0  0  0  0  0  0  0
  180.8350  173.1710  137.0150 C   0  0  0  0  0  3  0  0  0  0  0  0
  181.5840  172.0980  136.5190 C   0  0  0  0  0  3  0  0  0  0  0  0
  182.8990  172.4620  136.7360 C   0  0  0  0  0  0  0  0  0  0  0  0
  184.1010  174.3370  137.6710 C   0  0  0  0  0  3  0  0  0  0  0  0
  184.0750  171.7810  136.4310 C   0  0  0  0  0  3  0  0  0  0  0  0
  181.6560  174.1250  137.5120 N   0  0  0  0  0  0  0  0  0  0  0  0
  185.3060  173.6740  137.3750 C   0  0  0  0  0  3  0  0  0  0  0  0
  1  5  1  0  0  0  0
  1  3  1  0  0  0  0
  2  7  1  0  0  0  0
  3  2  2  0  0  0  0
  5  6  2  0  0  0  0
  6  4  1  0  0  0  0
  6  2  1  0  0  0  0
  7  8  1  0  0  0  0
  7  9  2  0  0  0  0
  8 10  1  0  0  0  0
  9 11  1  0  0  0  0
 11 15  1  0  0  0  0
 12 17  1  0  0  0  0
 15 20  2  0  0  0  0
 16 13  1  0  0  0  0
 17 13  1  0  0  0  0
 17 14  2  0  0  0  0
 18 12  2  0  0  0  0
 18 15  1  0  0  0  0
 19 16  2  0  0  0  0
 19 12  1  0  0  0  0
 20 14  1  0  0  0  0
 21 22  1  0  0  0  0
 21  4  1  0  0  0  0
 23 22  1  0  0  0  0
 25 24  1  6  0  0  0
 25 23  1  0  0  0  0
 26 25  1  0  0  0  0
 28 30  2  0  0  0  0
 30 29  1  0  0  0  0
 30 26  1  0  0  0  0
 30 27  1  0  0  0  0
 31 32  1  0  0  0  0
 31  1  1  0  0  0  0
 33 32  1  0  0  0  0
 34 33  1  0  0  0  0
 34 35  1  0  0  0  0
 36 44  1  0  0  0  0
 37 43  1  0  0  0  0
 37 41  1  0  0  0  0
 38 43  1  0  0  0  0
 39 40  1  0  0  0  0
 39 38  2  0  0  0  0
 40 37  2  0  0  0  0
 42 40  1  0  0  0  0
 42 36  2  0  0  0  0
 43 35  1  0  0  0  0
 44 41  2  0  0  0  0
M  END
>  <MODEL>
6

>  <REMARK>
 VINA RESULT:      -8.5      4.258      9.051
  Name = 
  15 active torsions:
  status: ('A' for Active; 'I' for Inactive)
    1  A    between atoms: C_3  and  C_16
    2  A    between atoms: C_8  and  C_12
    3  A    between atoms: C_8  and  C_24
    4  A    between atoms: N_9  and  C_24
    5  A    between atoms: C_10  and  C_21
    6  A    between atoms: C_10  and  N_23
    7  A    between atoms: C_11  and  C_25
    8  A    between atoms: C_11  and  N_38
    9  A    between atoms: C_12  and  C_22
   10  A    between atoms: N_13  and  P_39
   11  A    between atoms: N_13  and  C_42
   12  A    between atoms: C_21  and  C_33
   13  A    between atoms: C_22  and  C_36
   14  A    between atoms: C_33  and  C_42
   15  A    between atoms: C_36  and  N_40
                            x       y       z     vdW  Elec       q    Type
                         _______ _______ _______ _____ _____    ______ ____

>  <TORSDO>
F 15

$$$$
=
 OpenBabel10232409093D

 44 48  0  0  1  0  0  0  0  0999 V2000
  189.8650  177.5140  140.3580 N   0  0  0  0  0  0  0  0  0  0  0  0
  188.4450  177.3900  138.7700 C   0  0  0  0  0  0  0  0  0  0  0  0
  189.7040  177.0670  139.1200 N   0  0  0  0  0  0  0  0  0  0  0  0
  186.5380  178.5350  139.9330 N   0  0  0  0  0  2  0  0  0  0  0  0
  188.7780  178.0980  140.8400 N   0  0  0  0  0  0  0  0  0  0  0  0
  187.8730  178.0300  139.8490 C   0  0  0  0  0  0  0  0  0  0  0  0
  187.8360  177.0750  137.4670 C   0  0  0  0  0  0  0  0  0  0  0  0
  187.3850  178.1540  136.6310 N   0  0  0  0  0  2  0  0  0  0  0  0
  187.7270  175.8250  137.1190 N   0  0  0  0  0  0  0  0  0  0  0  0
  186.8230  177.9820  135.4120 O   0  0  0  0  0  1  0  0  0  0  0  0
  187.1480  175.3350  135.8770 C   0  0  0  0  0  2  0  0  0  0  0  0
  183.8090  173.5890  135.6410 C   0  0  0  0  0  0  0  0  0  0  0  0
  182.4410  171.9080  136.8710 S   0  0  0  0  0  0  0  0  0  0  0  0
  184.9500  172.7820  137.6320 C   0  0  0  0  0  3  0  0  0  0  0  0
  186.0010  174.4360  136.1750 C   0  0  0  0  0  0  0  0  0  0  0  0
  181.7390  172.5390  135.4640 C   0  0  0  0  0  3  0  0  0  0  0  0
  183.8570  172.7890  136.7690 C   0  0  0  0  0  0  0  0  0  0  0  0
  184.8790  174.4270  135.3280 C   0  0  0  0  0  3  0  0  0  0  0  0
  182.6310  173.4590  134.9030 C   0  0  0  0  0  3  0  0  0  0  0  0
  186.0320  173.6210  137.3240 C   0  0  0  0  0  3  0  0  0  0  0  0
  186.0220  179.1590  141.1420 C   0  0  0  0  0  2  0  0  0  0  0  0
  184.5650  178.7860  141.3370 C   0  0  0  0  0  2  0  0  0  0  0  0
  183.7760  179.1670  140.0990 C   0  0  0  0  0  2  0  0  0  0  0  0
  181.6250  179.0800  141.3440 C   0  0  0  0  0  1  0  0  0  0  0  0
  182.3900  178.5440  140.1490 C   0  0  2  0  0  3  0  0  0  0  0  0
  182.5090  177.1000  140.2640 N   0  0  0  0  0  2  0  0  0  0  0  0
  183.6570  176.0790  138.0720 O   0  0  0  0  0  1  0  0  0  0  0  0
  181.5360  177.5530  137.6680 O   0  0  0  0  0  0  0  0  0  0  0  0
  181.3590  175.0200  138.7470 O   0  0  0  0  0  1  0  0  0  0  0  0
  182.3050  176.4190  138.6590 P   0  0  0  0  0  0  0  0  0  0  0  0
  191.0780  177.3140  141.1320 C   0  0  0  0  0  2  0  0  0  0  0  0
  190.7180  177.0140  142.5730 C   0  0  0  0  0  2  0  0  0  0  0  0
  191.6430  177.7770  143.4980 C   0  0  0  0  0  2  0  0  0  0  0  0
  190.8910  178.1480  144.7570 C   0  0  0  0  0  2  0  0  0  0  0  0
  190.1830  176.9260  145.3060 C   0  0  0  0  0  2  0  0  0  0  0  0
  185.2180  178.4280  145.8100 C   0  0  0  0  0  3  0  0  0  0  0  0
  187.8740  177.6580  145.9400 C   0  0  0  0  0  0  0  0  0  0  0  0
  189.2920  177.5120  147.5680 C   0  0  0  0  0  3  0  0  0  0  0  0
  188.0930  177.9520  148.1380 C   0  0  0  0  0  3  0  0  0  0  0  0
  187.2130  178.0350  147.0760 C   0  0  0  0  0  0  0  0  0  0  0  0
  187.2500  177.6480  144.6920 C   0  0  0  0  0  3  0  0  0  0  0  0
  185.8770  178.4290  147.0530 C   0  0  0  0  0  3  0  0  0  0  0  0
  189.1390  177.3320  146.2360 N   0  0  0  0  0  0  0  0  0  0  0  0
  185.9010  178.0410  144.6370 C   0  0  0  0  0  3  0  0  0  0  0  0
  1  5  1  0  0  0  0
  1 31  1  0  0  0  0
  2  3  2  0  0  0  0
  2  6  1  0  0  0  0
  3  1  1  0  0  0  0
  4 21  1  0  0  0  0
  6  4  1  0  0  0  0
  6  5  2  0  0  0  0
  7  2  1  0  0  0  0
  8  7  1  0  0  0  0
  9  7  2  0  0  0  0
 10  8  1  0  0  0  0
 11 15  1  0  0  0  0
 11  9  1  0  0  0  0
 12 17  1  0  0  0  0
 15 20  2  0  0  0  0
 16 13  1  0  0  0  0
 17 13  1  0  0  0  0
 17 14  2  0  0  0  0
 18 12  2  0  0  0  0
 18 15  1  0  0  0  0
 19 16  2  0  0  0  0
 19 12  1  0  0  0  0
 20 14  1  0  0  0  0
 21 22  1  0  0  0  0
 23 25  1  0  0  0  0
 23 22  1  0  0  0  0
 25 26  1  0  0  0  0
 25 24  1  1  0  0  0
 27 30  1  0  0  0  0
 28 30  2  0  0  0  0
 30 29  1  0  0  0  0
 30 26  1  0  0  0  0
 31 32  1  0  0  0  0
 32 33  1  0  0  0  0
 33 34  1  0  0  0  0
 34 35  1  0  0  0  0
 35 43  1  0  0  0  0
 36 42  1  0  0  0  0
 37 43  1  0  0  0  0
 37 40  1  0  0  0  0
 38 39  2  0  0  0  0
 40 39  1  0  0  0  0
 41 37  2  0  0  0  0
 42 40  2  0  0  0  0
 43 38  1  0  0  0  0
 44 41  1  0  0  0  0
 44 36  2  0  0  0  0
M  END
>  <MODEL>
7

>  <REMARK>
 VINA RESULT:      -8.4      4.311      7.068
  Name = 
  15 active torsions:
  status: ('A' for Active; 'I' for Inactive)
    1  A    between atoms: C_3  and  C_16
    2  A    between atoms: C_8  and  C_12
    3  A    between atoms: C_8  and  C_24
    4  A    between atoms: N_9  and  C_24
    5  A    between atoms: C_10  and  C_21
    6  A    between atoms: C_10  and  N_23
    7  A    between atoms: C_11  and  C_25
    8  A    between atoms: C_11  and  N_38
    9  A    between atoms: C_12  and  C_22
   10  A    between atoms: N_13  and  P_39
   11  A    between atoms: N_13  and  C_42
   12  A    between atoms: C_21  and  C_33
   13  A    between atoms: C_22  and  C_36
   14  A    between atoms: C_33  and  C_42
   15  A    between atoms: C_36  and  N_40
                            x       y       z     vdW  Elec       q    Type
                         _______ _______ _______ _____ _____    ______ ____

>  <TORSDO>
F 15

$$$$
=
 OpenBabel10232409093D

 44 48  0  0  1  0  0  0  0  0999 V2000
  185.3440  178.4120  143.9400 N   0  0  0  0  0  0  0  0  0  0  0  0
  184.6260  178.6120  141.9390 C   0  0  0  0  0  0  0  0  0  0  0  0
  184.2330  178.5230  143.2250 N   0  0  0  0  0  0  0  0  0  0  0  0
  186.8550  178.6360  140.7840 N   0  0  0  0  0  2  0  0  0  0  0  0
  186.4400  178.4370  143.1960 N   0  0  0  0  0  0  0  0  0  0  0  0
  186.0050  178.5600  141.9310 C   0  0  0  0  0  0  0  0  0  0  0  0
  183.7110  178.7550  140.7960 C   0  0  0  0  0  0  0  0  0  0  0  0
  184.0230  179.7120  139.7700 N   0  0  0  0  0  2  0  0  0  0  0  0
  182.6450  178.0060  140.7580 N   0  0  0  0  0  0  0  0  0  0  0  0
  183.2600  179.9180  138.6710 O   0  0  0  0  0  1  0  0  0  0  0  0
  181.6330  178.0200  139.7110 C   0  0  0  0  0  2  0  0  0  0  0  0
  182.8060  174.9270  137.8930 C   0  0  0  0  0  0  0  0  0  0  0  0
  181.8830  172.8790  136.8130 S   0  0  0  0  0  0  0  0  0  0  0  0
  180.3800  174.8480  138.0370 C   0  0  0  0  0  3  0  0  0  0  0  0
  181.6290  176.7140  138.9990 C   0  0  0  0  0  0  0  0  0  0  0  0
  183.5690  173.0360  136.7690 C   0  0  0  0  0  3  0  0  0  0  0  0
  181.5970  174.3040  137.6380 C   0  0  0  0  0  0  0  0  0  0  0  0
  182.8410  176.1430  138.5750 C   0  0  0  0  0  3  0  0  0  0  0  0
  183.9160  174.2290  137.4120 C   0  0  0  0  0  3  0  0  0  0  0  0
  180.4040  176.0710  138.7260 C   0  0  0  0  0  3  0  0  0  0  0  0
  188.3060  178.6150  140.8940 C   0  0  0  0  0  2  0  0  0  0  0  0
  188.8530  177.3460  140.2700 C   0  0  0  0  0  2  0  0  0  0  0  0
  190.1510  177.6560  139.5490 C   0  0  0  0  0  2  0  0  0  0  0  0
  188.8410  176.5730  137.7320 C   0  0  0  0  0  1  0  0  0  0  0  0
  190.2360  176.8590  138.2580 C   0  0  2  0  0  3  0  0  0  0  0  0
  190.9210  175.6000  138.5070 N   0  0  0  0  0  2  0  0  0  0  0  0
  193.1230  174.2940  137.7230 O   0  0  0  0  0  1  0  0  0  0  0  0
  193.4520  176.8090  138.3560 O   0  0  0  0  0  1  0  0  0  0  0  0
  192.1830  176.0540  136.0260 O   0  0  0  0  0  0  0  0  0  0  0  0
  192.4500  175.6480  137.6460 P   0  0  0  0  0  0  0  0  0  0  0  0
  185.3610  178.3500  145.3910 C   0  0  0  0  0  2  0  0  0  0  0  0
  186.6090  177.6260  145.8550 C   0  0  0  0  0  2  0  0  0  0  0  0
  187.0880  178.2240  147.1600 C   0  0  0  0  0  2  0  0  0  0  0  0
  188.0910  177.2880  147.7980 C   0  0  0  0  0  2  0  0  0  0  0  0
  189.4420  177.9710  147.8820 C   0  0  0  0  0  2  0  0  0  0  0  0
  191.3770  177.3770  143.0790 C   0  0  0  0  0  3  0  0  0  0  0  0
  190.6180  177.4200  145.7410 C   0  0  0  0  0  0  0  0  0  0  0  0
  191.2260  176.2680  147.4690 C   0  0  0  0  0  3  0  0  0  0  0  0
  191.9840  175.7850  146.3970 C   0  0  0  0  0  3  0  0  0  0  0  0
  191.5730  176.5390  145.3140 C   0  0  0  0  0  0  0  0  0  0  0  0
  189.9970  178.3150  144.8700 C   0  0  0  0  0  3  0  0  0  0  0  0
  191.9820  176.4850  143.9840 C   0  0  0  0  0  3  0  0  0  0  0  0
  190.4080  177.2630  147.0550 N   0  0  0  0  0  0  0  0  0  0  0  0
  190.3900  178.2850  143.5200 C   0  0  0  0  0  3  0  0  0  0  0  0
  1 31  1  0  0  0  0
  2  3  2  0  0  0  0
  3  1  1  0  0  0  0
  4 21  1  0  0  0  0
  4  6  1  0  0  0  0
  5  1  1  0  0  0  0
  6  2  1  0  0  0  0
  6  5  2  0  0  0  0
  7  2  1  0  0  0  0
  8  7  1  0  0  0  0
  9  7  2  0  0  0  0
 10  8  1  0  0  0  0
 11  9  1  0  0  0  0
 12 18  1  0  0  0  0
 13 17  1  0  0  0  0
 14 20  2  0  0  0  0
 15 11  1  0  0  0  0
 16 13  1  0  0  0  0
 16 19  2  0  0  0  0
 17 12  2  0  0  0  0
 17 14  1  0  0  0  0
 18 15  2  0  0  0  0
 19 12  1  0  0  0  0
 20 15  1  0  0  0  0
 22 21  1  0  0  0  0
 23 22  1  0  0  0  0
 25 24  1  1  0  0  0
 25 26  1  0  0  0  0
 25 23  1  0  0  0  0
 29 30  2  0  0  0  0
 30 27  1  0  0  0  0
 30 28  1  0  0  0  0
 30 26  1  0  0  0  0
 31 32  1  0  0  0  0
 32 33  1  0  0  0  0
 33 34  1  0  0  0  0
 34 35  1  0  0  0  0
 36 44  2  0  0  0  0
 36 42  1  0  0  0  0
 37 43  1  0  0  0  0
 39 38  2  0  0  0  0
 40 37  1  0  0  0  0
 40 39  1  0  0  0  0
 41 37  2  0  0  0  0
 42 40  2  0  0  0  0
 43 38  1  0  0  0  0
 43 35  1  0  0  0  0
 44 41  1  0  0  0  0
M  END
>  <MODEL>
8

>  <REMARK>
 VINA RESULT:      -8.3      3.166      5.157
  Name = 
  15 active torsions:
  status: ('A' for Active; 'I' for Inactive)
    1  A    between atoms: C_3  and  C_16
    2  A    between atoms: C_8  and  C_12
    3  A    between atoms: C_8  and  C_24
    4  A    between atoms: N_9  and  C_24
    5  A    between atoms: C_10  and  C_21
    6  A    between atoms: C_10  and  N_23
    7  A    between atoms: C_11  and  C_25
    8  A    between atoms: C_11  and  N_38
    9  A    between atoms: C_12  and  C_22
   10  A    between atoms: N_13  and  P_39
   11  A    between atoms: N_13  and  C_42
   12  A    between atoms: C_21  and  C_33
   13  A    between atoms: C_22  and  C_36
   14  A    between atoms: C_33  and  C_42
   15  A    between atoms: C_36  and  N_40
                            x       y       z     vdW  Elec       q    Type
                         _______ _______ _______ _____ _____    ______ ____

>  <TORSDO>
F 15

$$$$
=
 OpenBabel10232409093D

 44 48  0  0  1  0  0  0  0  0999 V2000
  190.3860  177.3350  141.1430 N   0  0  0  0  0  0  0  0  0  0  0  0
  189.3220  177.4500  139.2970 C   0  0  0  0  0  0  0  0  0  0  0  0
  189.3140  177.8710  140.5760 N   0  0  0  0  0  0  0  0  0  0  0  0
  190.8610  176.0090  137.9320 N   0  0  0  0  0  2  0  0  0  0  0  0
  191.1000  176.5990  140.3050 N   0  0  0  0  0  0  0  0  0  0  0  0
  190.4400  176.6580  139.1350 C   0  0  0  0  0  0  0  0  0  0  0  0
  188.3080  177.8130  138.2940 C   0  0  0  0  0  0  0  0  0  0  0  0
  188.3420  179.1280  137.7150 N   0  0  0  0  0  2  0  0  0  0  0  0
  187.4120  176.9260  137.9690 N   0  0  0  0  0  0  0  0  0  0  0  0
  187.4680  179.5650  136.7780 O   0  0  0  0  0  1  0  0  0  0  0  0
  186.3370  177.1150  137.0050 C   0  0  0  0  0  2  0  0  0  0  0  0
  183.4680  178.1140  139.2460 C   0  0  0  0  0  0  0  0  0  0  0  0
  181.2230  177.2970  139.9550 S   0  0  0  0  0  0  0  0  0  0  0  0
  182.8960  176.0080  138.1730 C   0  0  0  0  0  3  0  0  0  0  0  0
  185.0250  177.1090  137.7060 C   0  0  0  0  0  0  0  0  0  0  0  0
  181.7230  178.7620  140.6450 C   0  0  0  0  0  3  0  0  0  0  0  0
  182.5970  177.0610  139.0340 C   0  0  0  0  0  0  0  0  0  0  0  0
  184.6970  178.1540  138.5880 C   0  0  0  0  0  3  0  0  0  0  0  0
  182.9930  179.0710  140.1450 C   0  0  0  0  0  3  0  0  0  0  0  0
  184.1300  176.0390  137.5050 C   0  0  0  0  0  3  0  0  0  0  0  0
  192.0870  175.2290  137.8630 C   0  0  0  0  0  2  0  0  0  0  0  0
  193.2690  176.1430  137.6050 C   0  0  0  0  0  2  0  0  0  0  0  0
  193.8080  175.8900  136.2110 C   0  0  0  0  0  2  0  0  0  0  0  0
  194.3810  173.4810  135.9790 C   0  0  0  0  0  1  0  0  0  0  0  0
  194.9310  174.8670  136.2610 C   0  0  2  0  0  3  0  0  0  0  0  0
  195.5440  174.8810  137.5790 N   0  0  0  0  0  2  0  0  0  0  0  0
  197.6390  175.8460  136.2210 O   0  0  0  0  0  0  0  0  0  0  0  0
  197.8260  173.3530  136.9840 O   0  0  0  0  0  1  0  0  0  0  0  0
  198.0360  175.4400  138.7770 O   0  0  0  0  0  1  0  0  0  0  0  0
  197.2850  174.9110  137.3560 P   0  0  0  0  0  0  0  0  0  0  0  0
  190.7790  177.5920  142.5180 C   0  0  0  0  0  2  0  0  0  0  0  0
  191.0000  176.2770  143.2380 C   0  0  0  0  0  2  0  0  0  0  0  0
  191.1060  176.5240  144.7280 C   0  0  0  0  0  2  0  0  0  0  0  0
  190.0490  177.5240  145.1430 C   0  0  0  0  0  2  0  0  0  0  0  0
  189.2680  176.9790  146.3220 C   0  0  0  0  0  2  0  0  0  0  0  0
  185.1520  178.4660  143.4910 C   0  0  0  0  0  3  0  0  0  0  0  0
  187.1280  177.7970  145.3110 C   0  0  0  0  0  0  0  0  0  0  0  0
  187.3160  178.0590  147.4510 C   0  0  0  0  0  3  0  0  0  0  0  0
  186.0720  178.5980  147.1030 C   0  0  0  0  0  3  0  0  0  0  0  0
  185.9850  178.4150  145.7370 C   0  0  0  0  0  0  0  0  0  0  0  0
  187.3430  177.4850  143.9690 C   0  0  0  0  0  3  0  0  0  0  0  0
  184.9680  178.7690  144.8530 C   0  0  0  0  0  3  0  0  0  0  0  0
  187.9390  177.5720  146.3540 N   0  0  0  0  0  0  0  0  0  0  0  0
  186.3330  177.8290  143.0520 C   0  0  0  0  0  3  0  0  0  0  0  0
  1 31  1  0  0  0  0
  2  3  2  0  0  0  0
  3  1  1  0  0  0  0
  4  6  1  0  0  0  0
  5  1  1  0  0  0  0
  6  2  1  0  0  0  0
  6  5  2  0  0  0  0
  7  2  1  0  0  0  0
  8  7  1  0  0  0  0
  9  7  2  0  0  0  0
 10  8  1  0  0  0  0
 11 15  1  0  0  0  0
 11  9  1  0  0  0  0
 12 19  1  0  0  0  0
 13 16  1  0  0  0  0
 14 17  2  0  0  0  0
 15 18  1  0  0  0  0
 17 12  1  0  0  0  0
 17 13  1  0  0  0  0
 18 12  2  0  0  0  0
 19 16  2  0  0  0  0
 20 15  2  0  0  0  0
 20 14  1  0  0  0  0
 21  4  1  0  0  0  0
 22 21  1  0  0  0  0
 23 25  1  0  0  0  0
 23 22  1  0  0  0  0
 25 24  1  1  0  0  0
 25 26  1  0  0  0  0
 27 30  2  0  0  0  0
 28 30  1  0  0  0  0
 30 26  1  0  0  0  0
 30 29  1  0  0  0  0
 31 32  1  0  0  0  0
 32 33  1  0  0  0  0
 33 34  1  0  0  0  0
 34 35  1  0  0  0  0
 35 43  1  0  0  0  0
 36 42  1  0  0  0  0
 37 40  1  0  0  0  0
 37 43  1  0  0  0  0
 39 38  2  0  0  0  0
 40 39  1  0  0  0  0
 41 37  2  0  0  0  0
 42 40  2  0  0  0  0
 43 38  1  0  0  0  0
 44 36  2  0  0  0  0
 44 41  1  0  0  0  0
M  END
>  <MODEL>
9

>  <REMARK>
 VINA RESULT:      -8.3      1.514      2.176
  Name = 
  15 active torsions:
  status: ('A' for Active; 'I' for Inactive)
    1  A    between atoms: C_3  and  C_16
    2  A    between atoms: C_8  and  C_12
    3  A    between atoms: C_8  and  C_24
    4  A    between atoms: N_9  and  C_24
    5  A    between atoms: C_10  and  C_21
    6  A    between atoms: C_10  and  N_23
    7  A    between atoms: C_11  and  C_25
    8  A    between atoms: C_11  and  N_38
    9  A    between atoms: C_12  and  C_22
   10  A    between atoms: N_13  and  P_39
   11  A    between atoms: N_13  and  C_42
   12  A    between atoms: C_21  and  C_33
   13  A    between atoms: C_22  and  C_36
   14  A    between atoms: C_33  and  C_42
   15  A    between atoms: C_36  and  N_40
                            x       y       z     vdW  Elec       q    Type
                         _______ _______ _______ _____ _____    ______ ____

>  <TORSDO>
F 15

$$$$
