=
 OpenBabel10232408363D

 28 34  0  0  1  0  0  0  0  0999 V2000
  184.9150  178.2170  142.2130 C   0  0  2  0  0  0  0  0  0  0  0  0
  181.2140  179.0200  142.2550 O   0  0  0  0  0  0  0  0  0  0  0  0
  183.7470  178.6450  144.6310 C   0  0  0  0  0  3  0  0  0  0  0  0
  184.7560  178.3800  143.6860 N   0  0  0  0  0  0  0  0  0  0  0  0
  182.3830  178.8840  142.7050 C   0  0  0  0  0  0  0  0  0  0  0  0
  183.5790  178.8630  141.7260 C   0  0  2  0  0  3  0  0  0  0  0  0
  185.9970  178.7160  142.9700 C   0  0  2  0  0  0  0  0  0  0  0  0
  185.8820  179.1240  141.5990 N   0  0  0  0  0  2  0  0  0  0  0  0
  182.5730  178.8640  144.1370 N   0  0  0  0  0  0  0  0  0  0  0  0
  182.4890  177.2530  137.9300 N   0  0  0  0  0  0  0  0  0  0  0  0
  183.1950  178.3080  140.3860 C   0  0  0  0  0  0  0  0  0  0  0  0
  182.6700  178.5960  138.0480 C   0  0  0  0  0  3  0  0  0  0  0  0
  183.0270  179.1500  139.2790 C   0  0  0  0  0  3  0  0  0  0  0  0
  182.6480  176.4180  138.9920 C   0  0  0  0  0  3  0  0  0  0  0  0
  183.0040  176.9320  140.2410 C   0  0  0  0  0  3  0  0  0  0  0  0
  187.0160  177.6020  143.1210 C   0  0  0  0  0  2  0  0  0  0  0  0
  187.6080  177.1270  145.5280 C   0  0  1  0  0  3  0  0  0  0  0  0
  187.8830  177.6860  147.9280 C   0  0  0  0  0  2  0  0  0  0  0  0
  187.9750  177.9020  144.2700 C   0  0  1  0  0  3  0  0  0  0  0  0
  190.2650  177.1060  145.1830 C   0  0  0  0  0  3  0  0  0  0  0  0
  189.4930  177.6160  143.9570 C   0  0  1  0  0  3  0  0  0  0  0  0
  189.7260  177.2180  146.4200 C   0  0  0  0  0  3  0  0  0  0  0  0
  188.4200  177.9590  146.5420 C   0  0  1  0  0  0  0  0  0  0  0  0
  186.9390  177.6740  146.7450 C   0  0  1  0  0  3  0  0  0  0  0  0
  189.5890  175.4480  142.9390 O   0  0  0  0  0  0  0  0  0  0  0  0
  190.0840  177.2400  141.5310 N   0  0  0  0  0  2  0  0  0  0  0  0
  190.2960  176.4110  140.4220 N   0  0  0  0  0  1  0  0  0  0  0  0
  189.7250  176.6940  142.7980 C   0  0  0  0  0  0  0  0  0  0  0  0
  1  8  1  1  0  0  0
  1  7  1  0  0  0  0
  1  4  1  0  0  0  0
  2  5  2  0  0  0  0
  4  3  1  0  0  0  0
  5  9  1  0  0  0  0
  6 11  1  6  0  0  0
  6  1  1  0  0  0  0
  6  5  1  0  0  0  0
  7 16  1  1  0  0  0
  7  4  1  0  0  0  0
  8  7  1  0  0  0  0
  9  3  2  0  0  0  0
 10 12  2  0  0  0  0
 10 14  1  0  0  0  0
 12 13  1  0  0  0  0
 13 11  2  0  0  0  0
 14 15  2  0  0  0  0
 15 11  1  0  0  0  0
 16 19  1  0  0  0  0
 17 23  1  0  0  0  0
 17 24  1  0  0  0  0
 19 17  1  0  0  0  0
 20 22  2  0  0  0  0
 21 19  1  0  0  0  0
 21 20  1  0  0  0  0
 22 23  1  0  0  0  0
 23 24  1  0  0  0  0
 23 18  1  0  0  0  0
 24 18  1  0  0  0  0
 26 28  1  0  0  0  0
 27 26  1  0  0  0  0
 28 25  2  0  0  0  0
 28 21  1  0  0  0  0
M  END
>  <MODEL>
1

>  <REMARK>
 VINA RESULT:      -9.1      0.000      0.000
  Name = 
  4 active torsions:
  status: ('A' for Active; 'I' for Inactive)
    1  A    between atoms: C_6  and  C_15
    2  A    between atoms: C_12  and  C_27
    3  A    between atoms: C_13  and  C_19
    4  A    between atoms: C_15  and  C_22
                            x       y       z     vdW  Elec       q    Type
                         _______ _______ _______ _____ _____    ______ ____

>  <TORSDO>
F 4

$$$$
=
 OpenBabel10232408363D

 28 34  0  0  1  0  0  0  0  0999 V2000
  187.4860  178.0100  145.2820 C   0  0  2  0  0  0  0  0  0  0  0  0
  190.3020  177.2100  147.6830 O   0  0  0  0  0  0  0  0  0  0  0  0
  187.0190  178.3760  147.9360 C   0  0  0  0  0  3  0  0  0  0  0  0
  186.7730  178.3330  146.5510 N   0  0  0  0  0  0  0  0  0  0  0  0
  189.1350  177.5030  147.3120 C   0  0  0  0  0  0  0  0  0  0  0  0
  188.7060  177.2220  145.8530 C   0  0  2  0  0  3  0  0  0  0  0  0
  186.0910  177.8010  145.3600 C   0  0  2  0  0  0  0  0  0  0  0  0
  186.8550  176.9670  144.4760 N   0  0  0  0  0  2  0  0  0  0  0  0
  188.1980  177.9910  148.2980 N   0  0  0  0  0  0  0  0  0  0  0  0
  191.9970  177.4910  143.1540 N   0  0  0  0  0  0  0  0  0  0  0  0
  189.8660  177.3040  144.9040 C   0  0  0  0  0  0  0  0  0  0  0  0
  191.5550  176.2610  143.5330 C   0  0  0  0  0  3  0  0  0  0  0  0
  190.4800  176.1440  144.4160 C   0  0  0  0  0  3  0  0  0  0  0  0
  191.4130  178.6290  143.6160 C   0  0  0  0  0  3  0  0  0  0  0  0
  190.3350  178.5560  144.5000 C   0  0  0  0  0  3  0  0  0  0  0  0
  185.4070  178.9180  144.5950 C   0  0  0  0  0  2  0  0  0  0  0  0
  183.0740  179.2860  143.7020 C   0  0  1  0  0  3  0  0  0  0  0  0
  180.6540  178.8010  143.4680 C   0  0  0  0  0  2  0  0  0  0  0  0
  184.2850  178.3630  143.7210 C   0  0  1  0  0  3  0  0  0  0  0  0
  183.5470  178.3460  141.2390 C   0  0  0  0  0  3  0  0  0  0  0  0
  184.6920  178.0740  142.2260 C   0  0  1  0  0  3  0  0  0  0  0  0
  182.2800  178.5010  141.6920 C   0  0  0  0  0  3  0  0  0  0  0  0
  182.0390  178.2790  143.1610 C   0  0  1  0  0  0  0  0  0  0  0  0
  181.7880  179.0800  144.4310 C   0  0  1  0  0  3  0  0  0  0  0  0
  185.8770  180.0060  141.4440 O   0  0  0  0  0  0  0  0  0  0  0  0
  187.1660  178.0840  141.7260 N   0  0  0  0  0  2  0  0  0  0  0  0
  188.3450  178.7210  141.3180 N   0  0  0  0  0  1  0  0  0  0  0  0
  185.9280  178.7890  141.7710 C   0  0  0  0  0  0  0  0  0  0  0  0
  1  8  1  1  0  0  0
  1  7  1  0  0  0  0
  1  6  1  0  0  0  0
  1  4  1  0  0  0  0
  3  9  2  0  0  0  0
  4  3  1  0  0  0  0
  5  2  2  0  0  0  0
  5  9  1  0  0  0  0
  6 11  1  6  0  0  0
  6  5  1  0  0  0  0
  7 16  1  6  0  0  0
  7  4  1  0  0  0  0
  8  7  1  0  0  0  0
 10 12  2  0  0  0  0
 10 14  1  0  0  0  0
 12 13  1  0  0  0  0
 13 11  2  0  0  0  0
 14 15  2  0  0  0  0
 15 11  1  0  0  0  0
 17 19  1  0  0  0  0
 17 24  1  0  0  0  0
 18 24  1  0  0  0  0
 19 16  1  0  0  0  0
 20 22  2  0  0  0  0
 20 21  1  0  0  0  0
 21 19  1  0  0  0  0
 22 23  1  0  0  0  0
 23 18  1  0  0  0  0
 23 17  1  0  0  0  0
 23 24  1  0  0  0  0
 25 28  2  0  0  0  0
 26 28  1  0  0  0  0
 27 26  1  0  0  0  0
 28 21  1  0  0  0  0
M  END
>  <MODEL>
2

>  <REMARK>
 VINA RESULT:      -8.9      2.562      6.994
  Name = 
  4 active torsions:
  status: ('A' for Active; 'I' for Inactive)
    1  A    between atoms: C_6  and  C_15
    2  A    between atoms: C_12  and  C_27
    3  A    between atoms: C_13  and  C_19
    4  A    between atoms: C_15  and  C_22
                            x       y       z     vdW  Elec       q    Type
                         _______ _______ _______ _____ _____    ______ ____

>  <TORSDO>
F 4

$$$$
=
 OpenBabel10232408363D

 28 34  0  0  1  0  0  0  0  0999 V2000
  190.4370  177.0610  140.8280 C   0  0  2  0  0  0  0  0  0  0  0  0
  189.4960  177.9240  137.2630 O   0  0  0  0  0  0  0  0  0  0  0  0
  188.1960  178.5520  140.4440 C   0  0  0  0  0  3  0  0  0  0  0  0
  189.2160  177.8630  141.1250 N   0  0  0  0  0  0  0  0  0  0  0  0
  189.4540  177.9620  138.5210 C   0  0  0  0  0  0  0  0  0  0  0  0
  190.6700  177.4700  139.3400 C   0  0  2  0  0  3  0  0  0  0  0  0
  190.3790  177.8070  142.0260 C   0  0  2  0  0  0  0  0  0  0  0  0
  191.6650  177.5700  141.4340 N   0  0  0  0  0  2  0  0  0  0  0  0
  188.3070  178.5700  139.1560 N   0  0  0  0  0  0  0  0  0  0  0  0
  192.8560  174.4300  137.2960 N   0  0  0  0  0  0  0  0  0  0  0  0
  191.4290  176.3930  138.6200 C   0  0  0  0  0  0  0  0  0  0  0  0
  191.5150  174.2750  137.4670 C   0  0  0  0  0  3  0  0  0  0  0  0
  190.7750  175.2550  138.1330 C   0  0  0  0  0  3  0  0  0  0  0  0
  193.5090  175.5300  137.7610 C   0  0  0  0  0  3  0  0  0  0  0  0
  192.8060  176.5320  138.4320 C   0  0  0  0  0  3  0  0  0  0  0  0
  190.1210  176.8400  143.1670 C   0  0  0  0  0  2  0  0  0  0  0  0
  188.0220  176.8660  144.5680 C   0  0  1  0  0  3  0  0  0  0  0  0
  185.8720  177.7980  145.3800 C   0  0  0  0  0  2  0  0  0  0  0  0
  189.3650  177.5320  144.2980 C   0  0  1  0  0  3  0  0  0  0  0  0
  189.2170  177.4900  146.8830 C   0  0  0  0  0  3  0  0  0  0  0  0
  190.1450  177.6110  145.6650 C   0  0  1  0  0  3  0  0  0  0  0  0
  187.8790  177.6250  146.7350 C   0  0  0  0  0  3  0  0  0  0  0  0
  187.3690  178.0100  145.3710 C   0  0  1  0  0  0  0  0  0  0  0  0
  186.6790  177.3810  144.1690 C   0  0  1  0  0  3  0  0  0  0  0  0
  191.8610  176.1990  144.7640 O   0  0  0  0  0  0  0  0  0  0  0  0
  191.6850  176.2060  147.0900 N   0  0  0  0  0  2  0  0  0  0  0  0
  192.7440  175.3030  147.2500 N   0  0  0  0  0  1  0  0  0  0  0  0
  191.2730  176.6320  145.7930 C   0  0  0  0  0  0  0  0  0  0  0  0
  1  4  1  0  0  0  0
  1  8  1  6  0  0  0
  1  7  1  0  0  0  0
  2  5  2  0  0  0  0
  3  4  1  0  0  0  0
  4  7  1  0  0  0  0
  5  9  1  0  0  0  0
  5  6  1  0  0  0  0
  6 11  1  6  0  0  0
  6  1  1  0  0  0  0
  7 16  1  1  0  0  0
  8  7  1  0  0  0  0
  9  3  2  0  0  0  0
 10 12  2  0  0  0  0
 10 14  1  0  0  0  0
 12 13  1  0  0  0  0
 13 11  2  0  0  0  0
 14 15  2  0  0  0  0
 15 11  1  0  0  0  0
 16 19  1  0  0  0  0
 17 23  1  0  0  0  0
 19 17  1  0  0  0  0
 19 21  1  0  0  0  0
 21 28  1  0  0  0  0
 21 20  1  0  0  0  0
 22 20  2  0  0  0  0
 23 18  1  0  0  0  0
 23 22  1  0  0  0  0
 24 17  1  0  0  0  0
 24 23  1  0  0  0  0
 24 18  1  0  0  0  0
 25 28  2  0  0  0  0
 26 27  1  0  0  0  0
 28 26  1  0  0  0  0
M  END
>  <MODEL>
3

>  <REMARK>
 VINA RESULT:      -8.8      4.046      6.466
  Name = 
  4 active torsions:
  status: ('A' for Active; 'I' for Inactive)
    1  A    between atoms: C_6  and  C_15
    2  A    between atoms: C_12  and  C_27
    3  A    between atoms: C_13  and  C_19
    4  A    between atoms: C_15  and  C_22
                            x       y       z     vdW  Elec       q    Type
                         _______ _______ _______ _____ _____    ______ ____

>  <TORSDO>
F 4

$$$$
=
 OpenBabel10232408363D

 28 34  0  0  1  0  0  0  0  0999 V2000
  189.2680  177.3400  141.9560 C   0  0  2  0  0  0  0  0  0  0  0  0
  192.7680  177.5870  140.5320 O   0  0  0  0  0  0  0  0  0  0  0  0
  191.2630  178.0960  143.6430 C   0  0  0  0  0  3  0  0  0  0  0  0
  189.9710  177.7460  143.2060 N   0  0  0  0  0  0  0  0  0  0  0  0
  191.8670  177.5640  141.4110 C   0  0  0  0  0  0  0  0  0  0  0  0
  190.4940  176.9340  141.0790 C   0  0  2  0  0  3  0  0  0  0  0  0
  188.7860  176.8730  143.1990 C   0  0  2  0  0  0  0  0  0  0  0  0
  188.5700  176.0590  142.0360 N   0  0  0  0  0  2  0  0  0  0  0  0
  192.1860  178.0300  142.7410 N   0  0  0  0  0  0  0  0  0  0  0  0
  189.5140  177.3430  136.9480 N   0  0  0  0  0  0  0  0  0  0  0  0
  190.1560  177.0680  139.6230 C   0  0  0  0  0  0  0  0  0  0  0  0
  190.1970  176.2400  137.3570 C   0  0  0  0  0  3  0  0  0  0  0  0
  190.5310  176.0810  138.7030 C   0  0  0  0  0  3  0  0  0  0  0  0
  189.1400  178.3130  137.8260 C   0  0  0  0  0  3  0  0  0  0  0  0
  189.4540  178.1920  139.1810 C   0  0  0  0  0  3  0  0  0  0  0  0
  187.5400  177.6660  143.5440 C   0  0  0  0  0  2  0  0  0  0  0  0
  188.0900  178.2780  145.9310 C   0  0  1  0  0  3  0  0  0  0  0  0
  188.8770  177.8370  148.2410 C   0  0  0  0  0  2  0  0  0  0  0  0
  187.1730  177.4790  145.0140 C   0  0  1  0  0  3  0  0  0  0  0  0
  185.5560  178.4630  146.7820 C   0  0  0  0  0  3  0  0  0  0  0  0
  185.6860  177.8530  145.3780 C   0  0  1  0  0  3  0  0  0  0  0  0
  186.5800  178.3660  147.6630 C   0  0  0  0  0  3  0  0  0  0  0  0
  187.7720  177.5450  147.2500 C   0  0  1  0  0  0  0  0  0  0  0  0
  189.2020  177.7370  146.7660 C   0  0  1  0  0  3  0  0  0  0  0  0
  185.0730  179.9950  144.4940 O   0  0  0  0  0  0  0  0  0  0  0  0
  184.2990  178.1540  143.2900 N   0  0  0  0  0  2  0  0  0  0  0  0
  183.6630  178.9510  142.3290 N   0  0  0  0  0  1  0  0  0  0  0  0
  185.0070  178.7410  144.3800 C   0  0  0  0  0  0  0  0  0  0  0  0
  1  8  1  1  0  0  0
  1  7  1  0  0  0  0
  1  4  1  0  0  0  0
  2  5  2  0  0  0  0
  4  3  1  0  0  0  0
  5  9  1  0  0  0  0
  6 11  1  6  0  0  0
  6  5  1  0  0  0  0
  6  1  1  0  0  0  0
  7  4  1  0  0  0  0
  7 16  1  1  0  0  0
  8  7  1  0  0  0  0
  9  3  2  0  0  0  0
 10 12  2  0  0  0  0
 10 14  1  0  0  0  0
 12 13  1  0  0  0  0
 13 11  2  0  0  0  0
 14 15  2  0  0  0  0
 15 11  1  0  0  0  0
 16 19  1  0  0  0  0
 17 24  1  0  0  0  0
 17 23  1  0  0  0  0
 19 21  1  0  0  0  0
 19 17  1  0  0  0  0
 20 22  2  0  0  0  0
 21 20  1  0  0  0  0
 23 22  1  0  0  0  0
 23 18  1  0  0  0  0
 24 23  1  0  0  0  0
 24 18  1  0  0  0  0
 26 28  1  0  0  0  0
 27 26  1  0  0  0  0
 28 25  2  0  0  0  0
 28 21  1  0  0  0  0
M  END
>  <MODEL>
4

>  <REMARK>
 VINA RESULT:      -8.5      3.159      6.164
  Name = 
  4 active torsions:
  status: ('A' for Active; 'I' for Inactive)
    1  A    between atoms: C_6  and  C_15
    2  A    between atoms: C_12  and  C_27
    3  A    between atoms: C_13  and  C_19
    4  A    between atoms: C_15  and  C_22
                            x       y       z     vdW  Elec       q    Type
                         _______ _______ _______ _____ _____    ______ ____

>  <TORSDO>
F 4

$$$$
=
 OpenBabel10232408363D

 28 34  0  0  1  0  0  0  0  0999 V2000
  187.3710  178.1250  143.4980 C   0  0  2  0  0  0  0  0  0  0  0  0
  184.6630  178.7150  146.0780 O   0  0  0  0  0  0  0  0  0  0  0  0
  185.0600  179.2850  142.6550 C   0  0  0  0  0  3  0  0  0  0  0  0
  186.3510  178.7280  142.5930 N   0  0  0  0  0  0  0  0  0  0  0  0
  185.1900  178.6480  144.9360 C   0  0  0  0  0  0  0  0  0  0  0  0
  186.4770  177.8130  144.7390 C   0  0  2  0  0  3  0  0  0  0  0  0
  187.3150  177.7080  142.1500 C   0  0  2  0  0  0  0  0  0  0  0  0
  187.7900  176.7750  143.1320 N   0  0  0  0  0  2  0  0  0  0  0  0
  184.5080  179.2660  143.8230 N   0  0  0  0  0  0  0  0  0  0  0  0
  188.8820  177.6860  148.2590 N   0  0  0  0  0  0  0  0  0  0  0  0
  187.3140  177.7740  145.9840 C   0  0  0  0  0  0  0  0  0  0  0  0
  187.6030  178.1400  148.3510 C   0  0  0  0  0  3  0  0  0  0  0  0
  186.7940  178.1930  147.2150 C   0  0  0  0  0  3  0  0  0  0  0  0
  189.4060  177.2730  147.0730 C   0  0  0  0  0  3  0  0  0  0  0  0
  188.6290  177.3100  145.9120 C   0  0  0  0  0  3  0  0  0  0  0  0
  188.4720  178.3540  141.4110 C   0  0  0  0  0  2  0  0  0  0  0  0
  189.1570  178.4030  138.9820 C   0  0  1  0  0  3  0  0  0  0  0  0
  188.8610  177.9940  136.5540 C   0  0  0  0  0  2  0  0  0  0  0  0
  188.8610  177.5250  140.1900 C   0  0  1  0  0  3  0  0  0  0  0  0
  190.9600  176.4290  139.1410 C   0  0  0  0  0  3  0  0  0  0  0  0
  190.0980  176.5720  140.4040 C   0  0  1  0  0  3  0  0  0  0  0  0
  190.4830  176.8390  137.9420 C   0  0  0  0  0  3  0  0  0  0  0  0
  189.0560  177.3170  137.8920 C   0  0  1  0  0  0  0  0  0  0  0  0
  188.2700  178.6170  137.8010 C   0  0  1  0  0  3  0  0  0  0  0  0
  191.7920  177.8880  141.4750 O   0  0  0  0  0  0  0  0  0  0  0  0
  190.8460  176.2090  142.7880 N   0  0  0  0  0  2  0  0  0  0  0  0
  191.6330  176.5290  143.9020 N   0  0  0  0  0  1  0  0  0  0  0  0
  190.9680  176.9370  141.5680 C   0  0  0  0  0  0  0  0  0  0  0  0
  1  8  1  6  0  0  0
  1  6  1  0  0  0  0
  3  9  2  0  0  0  0
  4  3  1  0  0  0  0
  4  1  1  0  0  0  0
  5  2  2  0  0  0  0
  6  5  1  0  0  0  0
  6 11  1  1  0  0  0
  7 16  1  6  0  0  0
  7  4  1  0  0  0  0
  7  8  1  0  0  0  0
  7  1  1  0  0  0  0
  9  5  1  0  0  0  0
 10 12  1  0  0  0  0
 11 13  1  0  0  0  0
 13 12  2  0  0  0  0
 14 10  2  0  0  0  0
 15 11  2  0  0  0  0
 15 14  1  0  0  0  0
 17 19  1  0  0  0  0
 18 24  1  0  0  0  0
 18 23  1  0  0  0  0
 19 21  1  0  0  0  0
 19 16  1  0  0  0  0
 20 21  1  0  0  0  0
 21 28  1  0  0  0  0
 22 20  2  0  0  0  0
 23 22  1  0  0  0  0
 23 17  1  0  0  0  0
 24 23  1  0  0  0  0
 24 17  1  0  0  0  0
 25 28  2  0  0  0  0
 26 27  1  0  0  0  0
 28 26  1  0  0  0  0
M  END
>  <MODEL>
5

>  <REMARK>
 VINA RESULT:      -8.0      3.197      6.523
  Name = 
  4 active torsions:
  status: ('A' for Active; 'I' for Inactive)
    1  A    between atoms: C_6  and  C_15
    2  A    between atoms: C_12  and  C_27
    3  A    between atoms: C_13  and  C_19
    4  A    between atoms: C_15  and  C_22
                            x       y       z     vdW  Elec       q    Type
                         _______ _______ _______ _____ _____    ______ ____

>  <TORSDO>
F 4

$$$$
=
 OpenBabel10232408363D

 28 34  0  0  1  0  0  0  0  0999 V2000
  187.8970  177.8680  140.1530 C   0  0  2  0  0  0  0  0  0  0  0  0
  185.0770  178.4210  137.6870 O   0  0  0  0  0  0  0  0  0  0  0  0
  185.5260  178.7690  141.1340 C   0  0  0  0  0  3  0  0  0  0  0  0
  186.8720  178.3570  141.1180 N   0  0  0  0  0  0  0  0  0  0  0  0
  185.6890  178.4670  138.7860 C   0  0  0  0  0  0  0  0  0  0  0  0
  187.2260  178.2970  138.8100 C   0  0  2  0  0  3  0  0  0  0  0  0
  188.3130  178.5970  141.2880 C   0  0  2  0  0  0  0  0  0  0  0  0
  189.1180  178.6680  140.1010 N   0  0  0  0  0  2  0  0  0  0  0  0
  184.9430  178.7920  139.9800 N   0  0  0  0  0  0  0  0  0  0  0  0
  188.6050  175.8420  135.6060 N   0  0  0  0  0  0  0  0  0  0  0  0
  187.7090  177.4230  137.6890 C   0  0  0  0  0  0  0  0  0  0  0  0
  188.0000  175.2540  136.6730 C   0  0  0  0  0  3  0  0  0  0  0  0
  187.5400  176.0330  137.7360 C   0  0  0  0  0  3  0  0  0  0  0  0
  188.7770  177.1900  135.5400 C   0  0  0  0  0  3  0  0  0  0  0  0
  188.3310  178.0060  136.5830 C   0  0  0  0  0  3  0  0  0  0  0  0
  188.9020  177.6160  142.2840 C   0  0  0  0  0  2  0  0  0  0  0  0
  187.5730  177.2270  144.3950 C   0  0  1  0  0  3  0  0  0  0  0  0
  185.8960  177.7920  146.1320 C   0  0  0  0  0  2  0  0  0  0  0  0
  188.6380  178.0770  143.7150 C   0  0  1  0  0  3  0  0  0  0  0  0
  189.5760  177.7250  146.1040 C   0  0  0  0  0  3  0  0  0  0  0  0
  189.9070  178.0960  144.6500 C   0  0  1  0  0  3  0  0  0  0  0  0
  188.2900  177.7120  146.5260 C   0  0  0  0  0  3  0  0  0  0  0  0
  187.2380  178.1850  145.5570 C   0  0  1  0  0  0  0  0  0  0  0  0
  186.1550  177.6160  144.6510 C   0  0  1  0  0  3  0  0  0  0  0  0
  191.9640  177.7640  143.4650 O   0  0  0  0  0  0  0  0  0  0  0  0
  191.0940  175.8710  144.5130 N   0  0  0  0  0  2  0  0  0  0  0  0
  192.1500  175.0550  144.0890 N   0  0  0  0  0  1  0  0  0  0  0  0
  191.0470  177.2530  144.1640 C   0  0  0  0  0  0  0  0  0  0  0  0
  1  8  1  6  0  0  0
  1  4  1  0  0  0  0
  1  7  1  0  0  0  0
  2  5  2  0  0  0  0
  4  3  1  0  0  0  0
  4  7  1  0  0  0  0
  5  6  1  0  0  0  0
  5  9  1  0  0  0  0
  6 11  1  6  0  0  0
  6  1  1  0  0  0  0
  7 16  1  1  0  0  0
  8  7  1  0  0  0  0
  9  3  2  0  0  0  0
 10 12  1  0  0  0  0
 11 13  1  0  0  0  0
 12 13  2  0  0  0  0
 14 10  2  0  0  0  0
 14 15  1  0  0  0  0
 15 11  2  0  0  0  0
 16 19  1  0  0  0  0
 17 24  1  0  0  0  0
 17 23  1  0  0  0  0
 19 17  1  0  0  0  0
 19 21  1  0  0  0  0
 20 22  2  0  0  0  0
 21 20  1  0  0  0  0
 23 18  1  0  0  0  0
 23 22  1  0  0  0  0
 24 23  1  0  0  0  0
 24 18  1  0  0  0  0
 25 28  2  0  0  0  0
 27 26  1  0  0  0  0
 28 26  1  0  0  0  0
 28 21  1  0  0  0  0
M  END
>  <MODEL>
6

>  <REMARK>
 VINA RESULT:      -7.9      3.453      4.141
  Name = 
  4 active torsions:
  status: ('A' for Active; 'I' for Inactive)
    1  A    between atoms: C_6  and  C_15
    2  A    between atoms: C_12  and  C_27
    3  A    between atoms: C_13  and  C_19
    4  A    between atoms: C_15  and  C_22
                            x       y       z     vdW  Elec       q    Type
                         _______ _______ _______ _____ _____    ______ ____

>  <TORSDO>
F 4

$$$$
=
 OpenBabel10232408363D

 28 34  0  0  1  0  0  0  0  0999 V2000
  190.5260  177.1500  140.0170 C   0  0  2  0  0  0  0  0  0  0  0  0
  192.8490  176.4090  137.1210 O   0  0  0  0  0  0  0  0  0  0  0  0
  193.1970  177.4360  140.4420 C   0  0  0  0  0  3  0  0  0  0  0  0
  191.8170  177.4160  140.7150 N   0  0  0  0  0  0  0  0  0  0  0  0
  192.5090  176.6630  138.3060 C   0  0  0  0  0  0  0  0  0  0  0  0
  191.0530  176.3990  138.7550 C   0  0  2  0  0  3  0  0  0  0  0  0
  190.6280  176.8840  141.4010 C   0  0  2  0  0  0  0  0  0  0  0  0
  189.7080  176.1030  140.6230 N   0  0  0  0  0  2  0  0  0  0  0  0
  193.5260  177.0900  139.2400 N   0  0  0  0  0  0  0  0  0  0  0  0
  188.2930  176.8610  135.5370 N   0  0  0  0  0  0  0  0  0  0  0  0
  190.0830  176.5490  137.6200 C   0  0  0  0  0  0  0  0  0  0  0  0
  188.7120  175.6110  135.8700 C   0  0  0  0  0  3  0  0  0  0  0  0
  189.6160  175.4300  136.9190 C   0  0  0  0  0  3  0  0  0  0  0  0
  188.7340  177.9610  136.2060 C   0  0  0  0  0  3  0  0  0  0  0  0
  189.6380  177.8240  137.2620 C   0  0  0  0  0  3  0  0  0  0  0  0
  189.9040  177.9900  142.1450 C   0  0  0  0  0  2  0  0  0  0  0  0
  189.3270  178.1220  144.5990 C   0  0  1  0  0  3  0  0  0  0  0  0
  189.2490  177.3010  146.9370 C   0  0  0  0  0  2  0  0  0  0  0  0
  189.0590  177.4140  143.2780 C   0  0  1  0  0  3  0  0  0  0  0  0
  186.7000  177.6850  144.3110 C   0  0  0  0  0  3  0  0  0  0  0  0
  187.5040  177.4420  143.0250 C   0  0  1  0  0  3  0  0  0  0  0  0
  187.2960  177.5600  145.5200 C   0  0  0  0  0  3  0  0  0  0  0  0
  188.7180  177.0640  145.5420 C   0  0  1  0  0  0  0  0  0  0  0  0
  190.1290  177.5970  145.7420 C   0  0  1  0  0  3  0  0  0  0  0  0
  187.9190  179.0610  141.3050 O   0  0  0  0  0  0  0  0  0  0  0  0
  185.6730  178.5760  141.7060 N   0  0  0  0  0  2  0  0  0  0  0  0
  185.2260  179.4610  140.7170 N   0  0  0  0  0  1  0  0  0  0  0  0
  187.0660  178.4100  141.9680 C   0  0  0  0  0  0  0  0  0  0  0  0
  1  8  1  1  0  0  0
  1  4  1  0  0  0  0
  1  7  1  0  0  0  0
  2  5  2  0  0  0  0
  3  4  1  0  0  0  0
  4  7  1  0  0  0  0
  5  6  1  0  0  0  0
  5  9  1  0  0  0  0
  6 11  1  6  0  0  0
  6  1  1  0  0  0  0
  7 16  1  1  0  0  0
  8  7  1  0  0  0  0
  9  3  2  0  0  0  0
 10 12  2  0  0  0  0
 10 14  1  0  0  0  0
 12 13  1  0  0  0  0
 13 11  2  0  0  0  0
 14 15  2  0  0  0  0
 15 11  1  0  0  0  0
 16 19  1  0  0  0  0
 17 23  1  0  0  0  0
 17 24  1  0  0  0  0
 19 17  1  0  0  0  0
 20 22  2  0  0  0  0
 21 19  1  0  0  0  0
 21 20  1  0  0  0  0
 22 23  1  0  0  0  0
 23 24  1  0  0  0  0
 23 18  1  0  0  0  0
 24 18  1  0  0  0  0
 25 28  2  0  0  0  0
 26 28  1  0  0  0  0
 27 26  1  0  0  0  0
 28 21  1  0  0  0  0
M  END
>  <MODEL>
7

>  <REMARK>
 VINA RESULT:      -7.8      3.675      6.617
  Name = 
  4 active torsions:
  status: ('A' for Active; 'I' for Inactive)
    1  A    between atoms: C_6  and  C_15
    2  A    between atoms: C_12  and  C_27
    3  A    between atoms: C_13  and  C_19
    4  A    between atoms: C_15  and  C_22
                            x       y       z     vdW  Elec       q    Type
                         _______ _______ _______ _____ _____    ______ ____

>  <TORSDO>
F 4

$$$$
=
 OpenBabel10232408363D

 28 34  0  0  1  0  0  0  0  0999 V2000
  187.4180  178.0160  143.9950 C   0  0  2  0  0  0  0  0  0  0  0  0
  187.0770  178.0610  147.7660 O   0  0  0  0  0  0  0  0  0  0  0  0
  185.1740  179.1390  145.0420 C   0  0  0  0  0  3  0  0  0  0  0  0
  186.0850  178.6790  144.0740 N   0  0  0  0  0  0  0  0  0  0  0  0
  186.7290  178.1910  146.5620 C   0  0  0  0  0  0  0  0  0  0  0  0
  187.5350  177.4740  145.4540 C   0  0  2  0  0  3  0  0  0  0  0  0
  186.4780  177.7940  142.9650 C   0  0  2  0  0  0  0  0  0  0  0  0
  187.4330  176.7610  143.2480 N   0  0  0  0  0  2  0  0  0  0  0  0
  185.5160  178.9190  146.2690 N   0  0  0  0  0  0  0  0  0  0  0  0
  191.6460  177.0170  146.4950 N   0  0  0  0  0  0  0  0  0  0  0  0
  188.9780  177.3090  145.8310 C   0  0  0  0  0  0  0  0  0  0  0  0
  190.6950  176.5380  147.3410 C   0  0  0  0  0  3  0  0  0  0  0  0
  189.3420  176.6740  147.0260 C   0  0  0  0  0  3  0  0  0  0  0  0
  191.3130  177.6350  145.3290 C   0  0  0  0  0  3  0  0  0  0  0  0
  189.9710  177.7920  144.9760 C   0  0  0  0  0  3  0  0  0  0  0  0
  186.9040  178.6100  141.7590 C   0  0  0  0  0  2  0  0  0  0  0  0
  185.3290  179.1630  139.8650 C   0  0  1  0  0  3  0  0  0  0  0  0
  183.2300  178.9740  138.5580 C   0  0  0  0  0  2  0  0  0  0  0  0
  186.2170  178.0990  140.4940 C   0  0  1  0  0  3  0  0  0  0  0  0
  186.6860  177.8600  137.9580 C   0  0  0  0  0  3  0  0  0  0  0  0
  187.1960  177.5700  139.3780 C   0  0  1  0  0  3  0  0  0  0  0  0
  185.4000  178.2370  137.7610 C   0  0  0  0  0  3  0  0  0  0  0  0
  184.4880  178.2400  138.9600 C   0  0  1  0  0  0  0  0  0  0  0  0
  183.8380  179.2240  139.9210 C   0  0  1  0  0  3  0  0  0  0  0  0
  188.9510  179.1660  139.0330 O   0  0  0  0  0  0  0  0  0  0  0  0
  189.5600  177.2420  140.2020 N   0  0  0  0  0  2  0  0  0  0  0  0
  190.8860  177.6640  140.3590 N   0  0  0  0  0  1  0  0  0  0  0  0
  188.6080  178.0510  139.5120 C   0  0  0  0  0  0  0  0  0  0  0  0
  1  8  1  1  0  0  0
  1  4  1  0  0  0  0
  1  6  1  0  0  0  0
  3  9  2  0  0  0  0
  4  3  1  0  0  0  0
  5  2  2  0  0  0  0
  6 11  1  1  0  0  0
  6  5  1  0  0  0  0
  7 16  1  6  0  0  0
  7  8  1  0  0  0  0
  7  1  1  0  0  0  0
  7  4  1  0  0  0  0
  9  5  1  0  0  0  0
 10 12  1  0  0  0  0
 11 13  1  0  0  0  0
 13 12  2  0  0  0  0
 14 10  2  0  0  0  0
 15 14  1  0  0  0  0
 15 11  2  0  0  0  0
 17 24  1  0  0  0  0
 17 19  1  0  0  0  0
 18 23  1  0  0  0  0
 18 24  1  0  0  0  0
 19 16  1  0  0  0  0
 20 21  1  0  0  0  0
 21 28  1  0  0  0  0
 21 19  1  0  0  0  0
 22 20  2  0  0  0  0
 22 23  1  0  0  0  0
 23 17  1  0  0  0  0
 23 24  1  0  0  0  0
 25 28  2  0  0  0  0
 26 27  1  0  0  0  0
 28 26  1  0  0  0  0
M  END
>  <MODEL>
8

>  <REMARK>
 VINA RESULT:      -7.4      2.814      7.019
  Name = 
  4 active torsions:
  status: ('A' for Active; 'I' for Inactive)
    1  A    between atoms: C_6  and  C_15
    2  A    between atoms: C_12  and  C_27
    3  A    between atoms: C_13  and  C_19
    4  A    between atoms: C_15  and  C_22
                            x       y       z     vdW  Elec       q    Type
                         _______ _______ _______ _____ _____    ______ ____

>  <TORSDO>
F 4

$$$$
=
 OpenBabel10232408363D

 28 34  0  0  1  0  0  0  0  0999 V2000
  189.6600  177.1480  143.6210 C   0  0  2  0  0  0  0  0  0  0  0  0
  191.1080  176.4000  147.0390 O   0  0  0  0  0  0  0  0  0  0  0  0
  191.8970  175.6050  143.7300 C   0  0  0  0  0  3  0  0  0  0  0  0
  190.8260  176.3320  143.1780 N   0  0  0  0  0  0  0  0  0  0  0  0
  191.0510  176.4440  145.7820 C   0  0  0  0  0  0  0  0  0  0  0  0
  190.0800  177.4340  145.0970 C   0  0  2  0  0  3  0  0  0  0  0  0
  190.2700  177.4380  142.3810 C   0  0  2  0  0  0  0  0  0  0  0  0
  189.6290  178.5080  143.0900 N   0  0  0  0  0  2  0  0  0  0  0  0
  191.9810  175.6440  145.0190 N   0  0  0  0  0  0  0  0  0  0  0  0
  186.6080  178.1770  147.4610 N   0  0  0  0  0  0  0  0  0  0  0  0
  188.8650  177.6960  145.9390 C   0  0  0  0  0  0  0  0  0  0  0  0
  187.8340  178.2760  148.0420 C   0  0  0  0  0  3  0  0  0  0  0  0
  188.9870  178.0380  147.2920 C   0  0  0  0  0  3  0  0  0  0  0  0
  186.4680  177.8480  146.1480 C   0  0  0  0  0  3  0  0  0  0  0  0
  187.5960  177.6020  145.3630 C   0  0  0  0  0  3  0  0  0  0  0  0
  189.3720  176.9020  141.2810 C   0  0  0  0  0  2  0  0  0  0  0  0
  190.0510  176.3080  138.9240 C   0  0  1  0  0  3  0  0  0  0  0  0
  191.6260  176.1200  137.0170 C   0  0  0  0  0  2  0  0  0  0  0  0
  189.8130  177.4340  139.9200 C   0  0  1  0  0  3  0  0  0  0  0  0
  188.7720  178.3330  137.7250 C   0  0  0  0  0  3  0  0  0  0  0  0
  188.8170  178.4590  139.2560 C   0  0  1  0  0  3  0  0  0  0  0  0
  189.7290  177.6330  137.0720 C   0  0  0  0  0  3  0  0  0  0  0  0
  190.8760  177.1010  137.8900 C   0  0  1  0  0  0  0  0  0  0  0  0
  191.3750  175.7870  138.4720 C   0  0  1  0  0  3  0  0  0  0  0  0
  186.4850  177.9190  139.1220 O   0  0  0  0  0  0  0  0  0  0  0  0
  187.1700  178.9210  141.1130 N   0  0  0  0  0  2  0  0  0  0  0  0
  185.8830  178.8840  141.6650 N   0  0  0  0  0  1  0  0  0  0  0  0
  187.4230  178.4140  139.8050 C   0  0  0  0  0  0  0  0  0  0  0  0
  1  8  1  1  0  0  0
  1  6  1  0  0  0  0
  3  9  2  0  0  0  0
  4  1  1  0  0  0  0
  4  3  1  0  0  0  0
  5  2  2  0  0  0  0
  6  5  1  0  0  0  0
  6 11  1  1  0  0  0
  7 16  1  6  0  0  0
  7  8  1  0  0  0  0
  7  4  1  0  0  0  0
  7  1  1  0  0  0  0
  9  5  1  0  0  0  0
 10 12  1  0  0  0  0
 11 13  1  0  0  0  0
 13 12  2  0  0  0  0
 14 10  2  0  0  0  0
 15 11  2  0  0  0  0
 15 14  1  0  0  0  0
 17 19  1  0  0  0  0
 18 23  1  0  0  0  0
 18 24  1  0  0  0  0
 19 16  1  0  0  0  0
 20 21  1  0  0  0  0
 21 28  1  0  0  0  0
 21 19  1  0  0  0  0
 22 20  2  0  0  0  0
 22 23  1  0  0  0  0
 23 24  1  0  0  0  0
 23 17  1  0  0  0  0
 24 17  1  0  0  0  0
 25 28  2  0  0  0  0
 26 27  1  0  0  0  0
 28 26  1  0  0  0  0
M  END
>  <MODEL>
9

>  <REMARK>
 VINA RESULT:      -7.3      3.415      7.829
  Name = 
  4 active torsions:
  status: ('A' for Active; 'I' for Inactive)
    1  A    between atoms: C_6  and  C_15
    2  A    between atoms: C_12  and  C_27
    3  A    between atoms: C_13  and  C_19
    4  A    between atoms: C_15  and  C_22
                            x       y       z     vdW  Elec       q    Type
                         _______ _______ _______ _____ _____    ______ ____

>  <TORSDO>
F 4

$$$$
