=
 OpenBabel10232409093D

 44 48  0  0  1  0  0  0  0  0999 V2000
  190.2090  177.8090  143.6750 N   0  0  0  0  0  2  0  0  0  0  0  0
  190.9320  176.9550  142.7520 C   0  0  0  0  0  2  0  0  0  0  0  0
  190.7470  177.4650  141.3360 C   0  0  0  0  0  2  0  0  0  0  0  0
  190.0980  176.4470  140.5290 N   0  0  0  0  0  2  0  0  0  0  0  0
  189.0760  177.1110  139.7330 C   0  0  0  0  0  2  0  0  0  0  0  0
  189.6180  177.4340  138.3780 C   0  0  0  0  0  3  0  0  0  0  0  0
  189.8310  177.2110  135.9750 C   0  0  0  0  0  1  0  0  0  0  0  0
  189.2250  176.8000  137.2740 C   0  0  0  0  0  0  0  0  0  0  0  0
  186.2500  176.9350  136.6960 N   0  0  0  0  0  0  0  0  0  0  0  0
  188.2600  175.7390  137.3540 N   0  0  0  0  0  2  0  0  0  0  0  0
  186.8650  175.8290  137.0450 C   0  0  0  0  0  0  0  0  0  0  0  0
  184.7420  175.2270  136.7760 C   0  0  0  0  0  0  0  0  0  0  0  0
  183.5710  174.5130  136.7210 C   0  0  0  0  0  0  0  0  0  0  0  0
  186.0590  173.3920  137.4280 N   0  0  0  0  0  0  0  0  0  0  0  0
  185.9280  174.7050  137.1110 C   0  0  0  0  0  0  0  0  0  0  0  0
  182.5170  176.6260  136.0760 C   0  0  0  0  0  3  0  0  0  0  0  0
  184.8800  176.5450  136.5190 C   0  0  0  0  0  0  0  0  0  0  0  0
  183.6610  173.1400  137.0400 C   0  0  0  0  0  0  0  0  0  0  0  0
  182.2210  172.0770  137.0140 S   0  0  0  0  0  1  0  0  0  0  0  0
  182.4150  175.2330  136.3570 C   0  0  0  0  0  3  0  0  0  0  0  0
  184.9320  172.6000  137.3960 C   0  0  0  0  0  3  0  0  0  0  0  0
  183.7640  177.3030  136.1570 C   0  0  0  0  0  3  0  0  0  0  0  0
  189.3700  176.9380  144.4790 C   0  0  0  0  0  2  0  0  0  0  0  0
  187.2960  177.5850  143.2380 C   0  0  0  0  0  3  0  0  0  0  0  0
  187.3020  177.6960  145.6570 C   0  0  0  0  0  3  0  0  0  0  0  0
  185.9740  178.1330  145.6400 C   0  0  0  0  0  3  0  0  0  0  0  0
  185.2970  178.3000  144.4220 C   0  0  0  0  0  0  0  0  0  0  0  0
  187.9650  177.4280  144.4560 C   0  0  0  0  0  0  0  0  0  0  0  0
  185.9670  178.0220  143.2210 C   0  0  0  0  0  3  0  0  0  0  0  0
  183.3410  179.1390  145.4680 O   0  0  0  0  0  0  0  0  0  0  0  0
  183.8960  178.7520  144.4030 C   0  0  0  0  0  0  0  0  0  0  0  0
  183.1570  178.7490  143.1770 N   0  0  0  0  0  2  0  0  0  0  0  0
  181.8010  179.1080  143.1280 N   0  0  0  0  0  2  0  0  0  0  0  0
  181.4340  179.2620  141.7270 C   0  0  0  0  0  2  0  0  0  0  0  0
  181.7440  177.9840  140.9430 C   0  0  2  0  0  3  0  0  0  0  0  0
  184.7370  178.9030  139.4820 C   0  0  0  0  0  0  0  0  0  0  0  0
  185.9930  178.8540  139.4880 O   0  0  0  0  0  0  0  0  0  0  0  0
  182.6040  179.7420  139.2760 C   0  0  1  0  0  3  0  0  0  0  0  0
  182.5440  178.2460  139.6620 C   0  0  1  0  0  3  0  0  0  0  0  0
  184.0160  180.0710  139.1510 N   0  0  0  0  0  2  0  0  0  0  0  0
  181.9090  179.9570  137.9450 C   0  0  0  0  0  1  0  0  0  0  0  0
  183.9240  177.7990  139.8100 N   0  0  0  0  0  2  0  0  0  0  0  0
  180.6170  176.4550  139.3250 C   0  0  0  0  0  1  0  0  0  0  0  0
  180.4580  177.2430  140.6120 C   0  0  0  0  0  2  0  0  0  0  0  0
  1 23  1  0  0  0  0
  2  1  1  0  0  0  0
  3  2  1  0  0  0  0
  4  3  1  0  0  0  0
  5  4  1  0  0  0  0
  6  5  1  0  0  0  0
  7  8  1  0  0  0  0
  8 10  1  0  0  0  0
  8  6  2  0  0  0  0
  9 11  2  0  0  0  0
 11 15  1  0  0  0  0
 11 10  1  0  0  0  0
 12 15  1  0  0  0  0
 13 12  1  0  0  0  0
 13 18  1  0  0  0  0
 15 14  2  0  0  0  0
 16 22  2  0  0  0  0
 16 20  1  0  0  0  0
 17  9  1  0  0  0  0
 17 12  2  0  0  0  0
 18 21  2  0  0  0  0
 19 18  1  0  0  0  0
 20 13  2  0  0  0  0
 21 14  1  0  0  0  0
 22 17  1  0  0  0  0
 24 28  1  0  0  0  0
 26 25  1  0  0  0  0
 27 26  2  0  0  0  0
 28 23  1  0  0  0  0
 28 25  2  0  0  0  0
 29 24  2  0  0  0  0
 29 27  1  0  0  0  0
 31 27  1  0  0  0  0
 31 30  2  0  0  0  0
 32 31  1  0  0  0  0
 33 32  1  0  0  0  0
 34 33  1  0  0  0  0
 35 44  1  6  0  0  0
 35 34  1  0  0  0  0
 36 37  2  0  0  0  0
 36 42  1  0  0  0  0
 38 41  1  6  0  0  0
 38 39  1  0  0  0  0
 39 42  1  0  0  0  0
 39 35  1  1  0  0  0
 40 38  1  0  0  0  0
 40 36  1  0  0  0  0
 43 44  1  0  0  0  0
M  END
>  <MODEL>
1

>  <REMARK>
 VINA RESULT:      -7.7      0.000      0.000
  Name = 
  14 active torsions:
  status: ('A' for Active; 'I' for Inactive)
    1  A    between atoms: C_5  and  C_12
    2  A    between atoms: C_5  and  N_31
    3  A    between atoms: N_8  and  C_33
    4  A    between atoms: C_11  and  C_44
    5  A    between atoms: C_18  and  N_27
    6  A    between atoms: C_18  and  C_44
    7  A    between atoms: C_19  and  C_44
    8  A    between atoms: C_21  and  C_29
    9  A    between atoms: N_27  and  N_34
   10  A    between atoms: N_31  and  C_38
   11  A    between atoms: C_35  and  C_42
   12  A    between atoms: C_37  and  C_38
   13  A    between atoms: C_37  and  N_40
   14  A    between atoms: N_40  and  C_42
                            x       y       z     vdW  Elec       q    Type
                         _______ _______ _______ _____ _____    ______ ____

>  <TORSDO>
F 14

$$$$
=
 OpenBabel10232409093D

 44 48  0  0  1  0  0  0  0  0999 V2000
  190.5470  176.6010  142.2610 N   0  0  0  0  0  2  0  0  0  0  0  0
  191.4250  176.8420  143.3900 C   0  0  0  0  0  2  0  0  0  0  0  0
  191.7040  175.5340  144.1050 C   0  0  0  0  0  2  0  0  0  0  0  0
  192.0140  175.7940  145.5010 N   0  0  0  0  0  2  0  0  0  0  0  0
  191.4990  177.1170  145.8200 C   0  0  0  0  0  2  0  0  0  0  0  0
  190.4970  177.0180  146.9250 C   0  0  0  0  0  3  0  0  0  0  0  0
  188.2780  177.0050  147.8980 C   0  0  0  0  0  1  0  0  0  0  0  0
  189.1830  177.1250  146.7200 C   0  0  0  0  0  0  0  0  0  0  0  0
  186.3770  177.9530  145.9210 N   0  0  0  0  0  0  0  0  0  0  0  0
  188.6760  177.3670  145.3990 N   0  0  0  0  0  2  0  0  0  0  0  0
  187.3510  177.7870  145.0570 C   0  0  0  0  0  0  0  0  0  0  0  0
  185.6030  178.3870  143.8210 C   0  0  0  0  0  0  0  0  0  0  0  0
  184.7780  178.7080  142.7720 C   0  0  0  0  0  0  0  0  0  0  0  0
  187.4940  178.0100  142.4750 N   0  0  0  0  0  0  0  0  0  0  0  0
  186.8920  178.0540  143.6910 C   0  0  0  0  0  0  0  0  0  0  0  0
  183.0300  178.9930  144.4600 C   0  0  0  0  0  3  0  0  0  0  0  0
  185.2500  178.3440  145.1230 C   0  0  0  0  0  0  0  0  0  0  0  0
  185.3630  178.6790  141.4860 C   0  0  0  0  0  0  0  0  0  0  0  0
  184.4170  179.0730  140.0180 S   0  0  0  0  0  1  0  0  0  0  0  0
  183.4440  179.0250  143.0980 C   0  0  0  0  0  3  0  0  0  0  0  0
  186.7390  178.3220  141.3650 C   0  0  0  0  0  3  0  0  0  0  0  0
  183.9390  178.6470  145.4970 C   0  0  0  0  0  3  0  0  0  0  0  0
  190.7720  177.6850  141.3200 C   0  0  0  0  0  2  0  0  0  0  0  0
  192.5940  177.1150  139.7020 C   0  0  0  0  0  3  0  0  0  0  0  0
  190.3010  176.6030  139.1190 C   0  0  0  0  0  3  0  0  0  0  0  0
  190.7310  176.0620  137.9030 C   0  0  0  0  0  3  0  0  0  0  0  0
  192.0960  176.0450  137.5780 C   0  0  0  0  0  0  0  0  0  0  0  0
  191.2310  177.1340  140.0160 C   0  0  0  0  0  0  0  0  0  0  0  0
  193.0250  176.5740  138.4860 C   0  0  0  0  0  3  0  0  0  0  0  0
  191.8060  175.5130  135.2850 O   0  0  0  0  0  0  0  0  0  0  0  0
  192.5510  175.4680  136.3010 C   0  0  0  0  0  0  0  0  0  0  0  0
  193.8400  174.8510  136.2110 N   0  0  0  0  0  2  0  0  0  0  0  0
  194.2840  174.2320  135.0330 N   0  0  0  0  0  2  0  0  0  0  0  0
  195.3600  173.3170  135.3920 C   0  0  0  0  0  2  0  0  0  0  0  0
  195.0350  172.5870  136.6980 C   0  0  2  0  0  3  0  0  0  0  0  0
  196.2620  174.5100  139.2920 C   0  0  0  0  0  0  0  0  0  0  0  0
  196.0290  175.2300  140.2970 O   0  0  0  0  0  0  0  0  0  0  0  0
  197.2310  173.7560  137.3460 C   0  0  1  0  0  3  0  0  0  0  0  0
  196.1030  172.7910  137.7790 C   0  0  1  0  0  3  0  0  0  0  0  0
  197.2900  174.7920  138.3670 N   0  0  0  0  0  2  0  0  0  0  0  0
  198.5530  173.0130  137.2980 C   0  0  0  0  0  1  0  0  0  0  0  0
  195.5170  173.3520  138.9900 N   0  0  0  0  0  2  0  0  0  0  0  0
  195.9750  170.3010  137.0360 C   0  0  0  0  0  1  0  0  0  0  0  0
  194.8350  171.1030  136.4370 C   0  0  0  0  0  2  0  0  0  0  0  0
  1  2  1  0  0  0  0
  2  3  1  0  0  0  0
  3  4  1  0  0  0  0
  4  5  1  0  0  0  0
  5  6  1  0  0  0  0
  8  6  2  0  0  0  0
  8  7  1  0  0  0  0
 10  8  1  0  0  0  0
 11 10  1  0  0  0  0
 11  9  2  0  0  0  0
 12 17  1  0  0  0  0
 13 20  1  0  0  0  0
 13 12  1  0  0  0  0
 14 15  1  0  0  0  0
 15 12  2  0  0  0  0
 15 11  1  0  0  0  0
 16 22  1  0  0  0  0
 17 22  2  0  0  0  0
 17  9  1  0  0  0  0
 18 13  2  0  0  0  0
 19 18  1  0  0  0  0
 20 16  2  0  0  0  0
 21 18  1  0  0  0  0
 21 14  2  0  0  0  0
 23  1  1  0  0  0  0
 24 28  1  0  0  0  0
 25 28  2  0  0  0  0
 26 25  1  0  0  0  0
 27 26  2  0  0  0  0
 27 29  1  0  0  0  0
 28 23  1  0  0  0  0
 29 24  2  0  0  0  0
 30 31  2  0  0  0  0
 31 27  1  0  0  0  0
 32 31  1  0  0  0  0
 33 34  1  0  0  0  0
 33 32  1  0  0  0  0
 35 34  1  6  0  0  0
 36 37  2  0  0  0  0
 38 41  1  1  0  0  0
 38 39  1  0  0  0  0
 38 40  1  0  0  0  0
 39 35  1  6  0  0  0
 39 42  1  0  0  0  0
 40 36  1  0  0  0  0
 42 36  1  0  0  0  0
 44 35  1  0  0  0  0
 44 43  1  0  0  0  0
M  END
>  <MODEL>
2

>  <REMARK>
 VINA RESULT:      -7.5      4.929     10.580
  Name = 
  14 active torsions:
  status: ('A' for Active; 'I' for Inactive)
    1  A    between atoms: C_5  and  C_12
    2  A    between atoms: C_5  and  N_31
    3  A    between atoms: N_8  and  C_33
    4  A    between atoms: C_11  and  C_44
    5  A    between atoms: C_18  and  N_27
    6  A    between atoms: C_18  and  C_44
    7  A    between atoms: C_19  and  C_44
    8  A    between atoms: C_21  and  C_29
    9  A    between atoms: N_27  and  N_34
   10  A    between atoms: N_31  and  C_38
   11  A    between atoms: C_35  and  C_42
   12  A    between atoms: C_37  and  C_38
   13  A    between atoms: C_37  and  N_40
   14  A    between atoms: N_40  and  C_42
                            x       y       z     vdW  Elec       q    Type
                         _______ _______ _______ _____ _____    ______ ____

>  <TORSDO>
F 14

$$$$
=
 OpenBabel10232409093D

 44 48  0  0  1  0  0  0  0  0999 V2000
  190.0410  177.7640  146.3310 N   0  0  0  0  0  2  0  0  0  0  0  0
  191.0350  176.7070  146.3270 C   0  0  0  0  0  2  0  0  0  0  0  0
  191.6150  176.5600  144.9330 C   0  0  0  0  0  2  0  0  0  0  0  0
  191.7350  177.8680  144.3120 N   0  0  0  0  0  2  0  0  0  0  0  0
  191.4380  177.7050  142.8970 C   0  0  0  0  0  2  0  0  0  0  0  0
  190.0130  178.0730  142.6330 C   0  0  0  0  0  3  0  0  0  0  0  0
  187.9200  178.0610  141.4130 C   0  0  0  0  0  1  0  0  0  0  0  0
  189.3390  177.6320  141.5700 C   0  0  0  0  0  0  0  0  0  0  0  0
  189.1930  177.7960  138.5450 N   0  0  0  0  0  0  0  0  0  0  0  0
  189.9830  176.7840  140.6070 N   0  0  0  0  0  2  0  0  0  0  0  0
  189.9180  176.9060  139.1820 C   0  0  0  0  0  0  0  0  0  0  0  0
  190.2680  176.4740  137.0300 C   0  0  0  0  0  0  0  0  0  0  0  0
  190.7000  175.9230  135.8490 C   0  0  0  0  0  0  0  0  0  0  0  0
  191.4660  174.9780  138.3930 N   0  0  0  0  0  0  0  0  0  0  0  0
  190.6240  176.0330  138.2420 C   0  0  0  0  0  0  0  0  0  0  0  0
  189.3180  177.6200  134.7540 C   0  0  0  0  0  3  0  0  0  0  0  0
  189.4230  177.5190  137.1560 C   0  0  0  0  0  0  0  0  0  0  0  0
  191.5800  174.8240  135.9580 C   0  0  0  0  0  0  0  0  0  0  0  0
  192.2300  173.9980  134.5090 S   0  0  0  0  0  1  0  0  0  0  0  0
  190.2120  176.5150  134.6660 C   0  0  0  0  0  3  0  0  0  0  0  0
  191.9500  174.3660  137.2580 C   0  0  0  0  0  3  0  0  0  0  0  0
  188.9090  178.1370  136.0140 C   0  0  0  0  0  3  0  0  0  0  0  0
  188.9470  177.3030  147.1680 C   0  0  0  0  0  2  0  0  0  0  0  0
  186.6840  178.3640  147.2760 C   0  0  0  0  0  3  0  0  0  0  0  0
  187.4000  177.3310  145.2070 C   0  0  0  0  0  3  0  0  0  0  0  0
  186.1880  177.6890  144.6090 C   0  0  0  0  0  3  0  0  0  0  0  0
  185.2160  178.3870  145.3400 C   0  0  0  0  0  0  0  0  0  0  0  0
  187.6460  177.6630  146.5420 C   0  0  0  0  0  0  0  0  0  0  0  0
  185.4720  178.7230  146.6770 C   0  0  0  0  0  3  0  0  0  0  0  0
  183.0430  179.3360  145.3910 O   0  0  0  0  0  0  0  0  0  0  0  0
  183.9420  178.7730  144.7080 C   0  0  0  0  0  0  0  0  0  0  0  0
  183.7180  178.5060  143.3200 N   0  0  0  0  0  2  0  0  0  0  0  0
  182.4950  178.7960  142.6970 N   0  0  0  0  0  2  0  0  0  0  0  0
  182.7720  179.1110  141.3020 C   0  0  0  0  0  2  0  0  0  0  0  0
  182.3350  177.9600  140.3910 C   0  0  2  0  0  3  0  0  0  0  0  0
  185.0430  178.1920  138.2590 C   0  0  0  0  0  0  0  0  0  0  0  0
  186.0250  178.8560  137.8400 O   0  0  0  0  0  0  0  0  0  0  0  0
  183.1930  176.8240  138.2500 C   0  0  1  0  0  3  0  0  0  0  0  0
  183.5120  177.2650  139.6970 C   0  0  1  0  0  3  0  0  0  0  0  0
  184.2200  177.4220  137.4100 N   0  0  0  0  0  2  0  0  0  0  0  0
  183.2640  175.3120  138.1470 C   0  0  0  0  0  1  0  0  0  0  0  0
  184.6660  178.1520  139.6170 N   0  0  0  0  0  2  0  0  0  0  0  0
  181.4950  179.9500  139.1420 C   0  0  0  0  0  1  0  0  0  0  0  0
  181.3390  178.4560  139.3550 C   0  0  0  0  0  2  0  0  0  0  0  0
  1 23  1  0  0  0  0
  2  1  1  0  0  0  0
  3  2  1  0  0  0  0
  4  3  1  0  0  0  0
  5  4  1  0  0  0  0
  6  5  1  0  0  0  0
  7  8  1  0  0  0  0
  8  6  2  0  0  0  0
  9 11  2  0  0  0  0
 10  8  1  0  0  0  0
 11 10  1  0  0  0  0
 12 17  1  0  0  0  0
 12 15  2  0  0  0  0
 13 18  2  0  0  0  0
 13 12  1  0  0  0  0
 15 14  1  0  0  0  0
 15 11  1  0  0  0  0
 16 22  1  0  0  0  0
 17  9  1  0  0  0  0
 18 21  1  0  0  0  0
 19 18  1  0  0  0  0
 20 16  2  0  0  0  0
 20 13  1  0  0  0  0
 21 14  2  0  0  0  0
 22 17  2  0  0  0  0
 25 28  1  0  0  0  0
 26 25  2  0  0  0  0
 26 27  1  0  0  0  0
 27 29  2  0  0  0  0
 28 23  1  0  0  0  0
 28 24  2  0  0  0  0
 29 24  1  0  0  0  0
 31 27  1  0  0  0  0
 31 30  2  0  0  0  0
 32 31  1  0  0  0  0
 33 32  1  0  0  0  0
 34 33  1  0  0  0  0
 35 44  1  6  0  0  0
 35 34  1  0  0  0  0
 36 42  1  0  0  0  0
 37 36  2  0  0  0  0
 38 41  1  1  0  0  0
 38 39  1  0  0  0  0
 39 35  1  6  0  0  0
 40 38  1  0  0  0  0
 40 36  1  0  0  0  0
 42 39  1  0  0  0  0
 43 44  1  0  0  0  0
M  END
>  <MODEL>
3

>  <REMARK>
 VINA RESULT:      -7.5      2.389      4.359
  Name = 
  14 active torsions:
  status: ('A' for Active; 'I' for Inactive)
    1  A    between atoms: C_5  and  C_12
    2  A    between atoms: C_5  and  N_31
    3  A    between atoms: N_8  and  C_33
    4  A    between atoms: C_11  and  C_44
    5  A    between atoms: C_18  and  N_27
    6  A    between atoms: C_18  and  C_44
    7  A    between atoms: C_19  and  C_44
    8  A    between atoms: C_21  and  C_29
    9  A    between atoms: N_27  and  N_34
   10  A    between atoms: N_31  and  C_38
   11  A    between atoms: C_35  and  C_42
   12  A    between atoms: C_37  and  C_38
   13  A    between atoms: C_37  and  N_40
   14  A    between atoms: N_40  and  C_42
                            x       y       z     vdW  Elec       q    Type
                         _______ _______ _______ _____ _____    ______ ____

>  <TORSDO>
F 14

$$$$
=
 OpenBabel10232409093D

 44 48  0  0  1  0  0  0  0  0999 V2000
  190.0190  178.2840  145.3220 N   0  0  0  0  0  2  0  0  0  0  0  0
  190.8390  178.5880  144.1650 C   0  0  0  0  0  2  0  0  0  0  0  0
  191.3780  177.3000  143.5730 C   0  0  0  0  0  2  0  0  0  0  0  0
  191.4440  177.4160  142.1260 N   0  0  0  0  0  2  0  0  0  0  0  0
  190.3550  176.6210  141.5770 C   0  0  0  0  0  2  0  0  0  0  0  0
  189.6440  177.3970  140.5160 C   0  0  0  0  0  3  0  0  0  0  0  0
  189.3090  178.3030  138.2940 C   0  0  0  0  0  1  0  0  0  0  0  0
  190.1070  177.5070  139.2700 C   0  0  0  0  0  0  0  0  0  0  0  0
  190.5340  175.1160  137.4520 N   0  0  0  0  0  0  0  0  0  0  0  0
  191.3490  176.8870  138.9030 N   0  0  0  0  0  2  0  0  0  0  0  0
  191.5190  175.7750  138.0170 C   0  0  0  0  0  0  0  0  0  0  0  0
  192.5190  174.1790  136.8370 C   0  0  0  0  0  0  0  0  0  0  0  0
  193.4520  173.3510  136.2640 C   0  0  0  0  0  0  0  0  0  0  0  0
  194.1000  175.5010  137.9690 N   0  0  0  0  0  0  0  0  0  0  0  0
  192.8150  175.2010  137.6480 C   0  0  0  0  0  0  0  0  0  0  0  0
  191.5480  172.1890  135.2580 C   0  0  0  0  0  3  0  0  0  0  0  0
  191.1810  174.0880  136.6880 C   0  0  0  0  0  0  0  0  0  0  0  0
  194.8030  173.6290  136.5670 C   0  0  0  0  0  0  0  0  0  0  0  0
  196.1360  172.6400  135.8970 S   0  0  0  0  0  1  0  0  0  0  0  0
  192.9540  172.3190  135.4420 C   0  0  0  0  0  3  0  0  0  0  0  0
  195.1020  174.7220  137.4340 C   0  0  0  0  0  3  0  0  0  0  0  0
  190.6380  173.0810  135.8870 C   0  0  0  0  0  3  0  0  0  0  0  0
  189.1980  177.1410  144.9630 C   0  0  0  0  0  2  0  0  0  0  0  0
  187.0810  177.9900  145.9910 C   0  0  0  0  0  3  0  0  0  0  0  0
  187.1370  177.5450  143.6120 C   0  0  0  0  0  3  0  0  0  0  0  0
  185.8050  177.9570  143.5030 C   0  0  0  0  0  3  0  0  0  0  0  0
  185.1020  178.3880  144.6380 C   0  0  0  0  0  0  0  0  0  0  0  0
  187.7730  177.5550  144.8560 C   0  0  0  0  0  0  0  0  0  0  0  0
  185.7490  178.4020  145.8830 C   0  0  0  0  0  3  0  0  0  0  0  0
  183.0810  179.2350  145.5460 O   0  0  0  0  0  0  0  0  0  0  0  0
  183.7010  178.8310  144.5240 C   0  0  0  0  0  0  0  0  0  0  0  0
  183.0390  178.7990  143.2560 N   0  0  0  0  0  2  0  0  0  0  0  0
  181.6870  179.1480  143.1180 N   0  0  0  0  0  2  0  0  0  0  0  0
  181.4110  179.2980  141.6950 C   0  0  0  0  0  2  0  0  0  0  0  0
  181.7380  178.0050  140.9420 C   0  0  2  0  0  3  0  0  0  0  0  0
  184.7290  178.9220  139.4770 C   0  0  0  0  0  0  0  0  0  0  0  0
  185.9870  178.8850  139.4900 O   0  0  0  0  0  0  0  0  0  0  0  0
  182.5890  179.7340  139.2400 C   0  0  1  0  0  3  0  0  0  0  0  0
  182.5430  178.2470  139.6600 C   0  0  1  0  0  3  0  0  0  0  0  0
  183.9990  180.0740  139.1150 N   0  0  0  0  0  2  0  0  0  0  0  0
  181.9000  179.9120  137.9010 C   0  0  0  0  0  1  0  0  0  0  0  0
  183.9260  177.8170  139.8240 N   0  0  0  0  0  2  0  0  0  0  0  0
  180.5020  176.7190  139.1980 C   0  0  0  0  0  1  0  0  0  0  0  0
  180.4620  177.2440  140.6210 C   0  0  0  0  0  2  0  0  0  0  0  0
  2  1  1  0  0  0  0
  3  2  1  0  0  0  0
  4  3  1  0  0  0  0
  5  4  1  0  0  0  0
  6  5  1  0  0  0  0
  7  8  1  0  0  0  0
  8  6  2  0  0  0  0
  9 11  2  0  0  0  0
 10  8  1  0  0  0  0
 11 10  1  0  0  0  0
 12 15  2  0  0  0  0
 13 18  2  0  0  0  0
 13 12  1  0  0  0  0
 15 14  1  0  0  0  0
 15 11  1  0  0  0  0
 16 20  2  0  0  0  0
 16 22  1  0  0  0  0
 17 12  1  0  0  0  0
 17  9  1  0  0  0  0
 18 21  1  0  0  0  0
 19 18  1  0  0  0  0
 20 13  1  0  0  0  0
 21 14  2  0  0  0  0
 22 17  2  0  0  0  0
 23  1  1  0  0  0  0
 25 28  1  0  0  0  0
 26 25  2  0  0  0  0
 26 27  1  0  0  0  0
 27 29  2  0  0  0  0
 28 23  1  0  0  0  0
 28 24  2  0  0  0  0
 29 24  1  0  0  0  0
 31 27  1  0  0  0  0
 31 30  2  0  0  0  0
 32 31  1  0  0  0  0
 33 32  1  0  0  0  0
 34 33  1  0  0  0  0
 35 44  1  6  0  0  0
 35 34  1  0  0  0  0
 36 37  2  0  0  0  0
 36 42  1  0  0  0  0
 38 41  1  6  0  0  0
 38 39  1  0  0  0  0
 39 42  1  0  0  0  0
 39 35  1  1  0  0  0
 40 38  1  0  0  0  0
 40 36  1  0  0  0  0
 43 44  1  0  0  0  0
M  END
>  <MODEL>
4

>  <REMARK>
 VINA RESULT:      -7.5      3.303      5.140
  Name = 
  14 active torsions:
  status: ('A' for Active; 'I' for Inactive)
    1  A    between atoms: C_5  and  C_12
    2  A    between atoms: C_5  and  N_31
    3  A    between atoms: N_8  and  C_33
    4  A    between atoms: C_11  and  C_44
    5  A    between atoms: C_18  and  N_27
    6  A    between atoms: C_18  and  C_44
    7  A    between atoms: C_19  and  C_44
    8  A    between atoms: C_21  and  C_29
    9  A    between atoms: N_27  and  N_34
   10  A    between atoms: N_31  and  C_38
   11  A    between atoms: C_35  and  C_42
   12  A    between atoms: C_37  and  C_38
   13  A    between atoms: C_37  and  N_40
   14  A    between atoms: N_40  and  C_42
                            x       y       z     vdW  Elec       q    Type
                         _______ _______ _______ _____ _____    ______ ____

>  <TORSDO>
F 14

$$$$
=
 OpenBabel10232409093D

 44 48  0  0  1  0  0  0  0  0999 V2000
  187.0170  178.6340  138.1510 N   0  0  0  0  0  2  0  0  0  0  0  0
  185.6770  178.2170  138.5210 C   0  0  0  0  0  2  0  0  0  0  0  0
  185.2910  178.8600  139.8390 C   0  0  0  0  0  2  0  0  0  0  0  0
  183.8450  178.8590  139.9800 N   0  0  0  0  0  2  0  0  0  0  0  0
  183.5040  177.8330  140.9530 C   0  0  0  0  0  2  0  0  0  0  0  0
  183.0270  178.4710  142.2180 C   0  0  0  0  0  3  0  0  0  0  0  0
  183.2350  179.3150  144.4800 C   0  0  0  0  0  1  0  0  0  0  0  0
  183.8190  178.6620  143.2740 C   0  0  0  0  0  0  0  0  0  0  0  0
  185.7440  178.3580  145.5990 N   0  0  0  0  0  0  0  0  0  0  0  0
  185.1880  178.2280  143.2380 N   0  0  0  0  0  2  0  0  0  0  0  0
  186.0620  178.0660  144.3600 C   0  0  0  0  0  0  0  0  0  0  0  0
  187.8970  177.6140  145.5290 C   0  0  0  0  0  0  0  0  0  0  0  0
  189.1670  177.2490  145.9010 C   0  0  0  0  0  0  0  0  0  0  0  0
  188.2320  177.1800  143.2430 N   0  0  0  0  0  0  0  0  0  0  0  0
  187.4430  177.5860  144.2710 C   0  0  0  0  0  0  0  0  0  0  0  0
  188.4770  177.8200  148.1790 C   0  0  0  0  0  3  0  0  0  0  0  0
  186.9280  178.0620  146.3540 C   0  0  0  0  0  0  0  0  0  0  0  0
  190.0220  176.8160  144.8630 C   0  0  0  0  0  0  0  0  0  0  0  0
  191.7070  176.3080  145.1880 S   0  0  0  0  0  1  0  0  0  0  0  0
  189.4730  177.3520  147.2740 C   0  0  0  0  0  3  0  0  0  0  0  0
  189.5220  176.7930  143.5270 C   0  0  0  0  0  3  0  0  0  0  0  0
  187.1820  178.1850  147.7220 C   0  0  0  0  0  3  0  0  0  0  0  0
  187.8900  178.2470  139.2450 C   0  0  0  0  0  2  0  0  0  0  0  0
  189.3140  177.5020  137.3280 C   0  0  0  0  0  3  0  0  0  0  0  0
  190.0490  177.0390  139.5870 C   0  0  0  0  0  3  0  0  0  0  0  0
  191.2020  176.4250  139.0870 C   0  0  0  0  0  3  0  0  0  0  0  0
  191.4190  176.3460  137.7030 C   0  0  0  0  0  0  0  0  0  0  0  0
  189.1030  177.5720  138.7090 C   0  0  0  0  0  0  0  0  0  0  0  0
  190.4670  176.8890  136.8270 C   0  0  0  0  0  3  0  0  0  0  0  0
  193.7510  176.2880  137.2780 O   0  0  0  0  0  0  0  0  0  0  0  0
  192.6360  175.7070  137.1740 C   0  0  0  0  0  0  0  0  0  0  0  0
  192.5570  174.4280  136.5370 N   0  0  0  0  0  2  0  0  0  0  0  0
  193.6810  173.8170  135.9610 N   0  0  0  0  0  2  0  0  0  0  0  0
  194.2500  172.9130  136.9520 C   0  0  0  0  0  2  0  0  0  0  0  0
  195.7350  172.6680  136.6710 C   0  0  2  0  0  3  0  0  0  0  0  0
  196.4340  174.6970  139.3780 C   0  0  0  0  0  0  0  0  0  0  0  0
  196.0080  175.3920  140.3360 O   0  0  0  0  0  0  0  0  0  0  0  0
  197.7120  174.0360  137.5830 C   0  0  1  0  0  3  0  0  0  0  0  0
  196.6310  172.9700  137.8780 C   0  0  1  0  0  3  0  0  0  0  0  0
  197.5420  175.0740  138.5900 N   0  0  0  0  0  2  0  0  0  0  0  0
  199.0910  173.4190  137.7130 C   0  0  0  0  0  1  0  0  0  0  0  0
  195.8440  173.4740  138.9960 N   0  0  0  0  0  2  0  0  0  0  0  0
  197.0040  172.6250  134.5230 C   0  0  0  0  0  1  0  0  0  0  0  0
  196.1870  173.4840  135.4700 C   0  0  0  0  0  2  0  0  0  0  0  0
  1  2  1  0  0  0  0
  1 23  1  0  0  0  0
  2  3  1  0  0  0  0
  3  4  1  0  0  0  0
  4  5  1  0  0  0  0
  5  6  1  0  0  0  0
  6  8  2  0  0  0  0
  8  7  1  0  0  0  0
  9 17  1  0  0  0  0
 10  8  1  0  0  0  0
 10 11  1  0  0  0  0
 11  9  2  0  0  0  0
 12 13  1  0  0  0  0
 12 17  1  0  0  0  0
 13 20  1  0  0  0  0
 14 21  2  0  0  0  0
 14 15  1  0  0  0  0
 15 11  1  0  0  0  0
 15 12  2  0  0  0  0
 17 22  2  0  0  0  0
 18 19  1  0  0  0  0
 18 13  2  0  0  0  0
 20 16  2  0  0  0  0
 21 18  1  0  0  0  0
 22 16  1  0  0  0  0
 24 28  1  0  0  0  0
 26 25  1  0  0  0  0
 27 26  2  0  0  0  0
 28 23  1  0  0  0  0
 28 25  2  0  0  0  0
 29 24  2  0  0  0  0
 29 27  1  0  0  0  0
 31 30  2  0  0  0  0
 31 27  1  0  0  0  0
 32 31  1  0  0  0  0
 33 32  1  0  0  0  0
 33 34  1  0  0  0  0
 35 44  1  6  0  0  0
 35 34  1  0  0  0  0
 36 37  2  0  0  0  0
 38 41  1  1  0  0  0
 38 39  1  0  0  0  0
 38 40  1  0  0  0  0
 39 35  1  6  0  0  0
 39 42  1  0  0  0  0
 40 36  1  0  0  0  0
 42 36  1  0  0  0  0
 43 44  1  0  0  0  0
M  END
>  <MODEL>
5

>  <REMARK>
 VINA RESULT:      -7.4      5.045     11.220
  Name = 
  14 active torsions:
  status: ('A' for Active; 'I' for Inactive)
    1  A    between atoms: C_5  and  C_12
    2  A    between atoms: C_5  and  N_31
    3  A    between atoms: N_8  and  C_33
    4  A    between atoms: C_11  and  C_44
    5  A    between atoms: C_18  and  N_27
    6  A    between atoms: C_18  and  C_44
    7  A    between atoms: C_19  and  C_44
    8  A    between atoms: C_21  and  C_29
    9  A    between atoms: N_27  and  N_34
   10  A    between atoms: N_31  and  C_38
   11  A    between atoms: C_35  and  C_42
   12  A    between atoms: C_37  and  C_38
   13  A    between atoms: C_37  and  N_40
   14  A    between atoms: N_40  and  C_42
                            x       y       z     vdW  Elec       q    Type
                         _______ _______ _______ _____ _____    ______ ____

>  <TORSDO>
F 14

$$$$
=
 OpenBabel10232409093D

 44 48  0  0  1  0  0  0  0  0999 V2000
  189.2780  175.7770  143.4270 N   0  0  0  0  0  2  0  0  0  0  0  0
  190.4620  175.8000  142.5890 C   0  0  0  0  0  2  0  0  0  0  0  0
  190.9810  177.2210  142.4820 C   0  0  0  0  0  2  0  0  0  0  0  0
  191.3020  177.5230  141.0970 N   0  0  0  0  0  2  0  0  0  0  0  0
  190.1930  177.0500  140.2820 C   0  0  0  0  0  2  0  0  0  0  0  0
  189.7360  178.1390  139.3660 C   0  0  0  0  0  3  0  0  0  0  0  0
  188.9190  179.0760  137.2870 C   0  0  0  0  0  1  0  0  0  0  0  0
  189.3620  177.9130  138.1060 C   0  0  0  0  0  0  0  0  0  0  0  0
  187.0430  176.0360  137.5550 N   0  0  0  0  0  0  0  0  0  0  0  0
  189.4100  176.5830  137.5660 N   0  0  0  0  0  2  0  0  0  0  0  0
  188.2920  175.7330  137.2900 C   0  0  0  0  0  0  0  0  0  0  0  0
  187.1340  173.9480  136.6460 C   0  0  0  0  0  0  0  0  0  0  0  0
  186.7720  172.7140  136.1660 C   0  0  0  0  0  0  0  0  0  0  0  0
  189.4350  173.6320  136.2800 N   0  0  0  0  0  0  0  0  0  0  0  0
  188.3940  174.3940  136.7050 C   0  0  0  0  0  0  0  0  0  0  0  0
  184.4760  173.3730  136.6980 C   0  0  0  0  0  3  0  0  0  0  0  0
  186.2960  174.8850  137.1360 C   0  0  0  0  0  0  0  0  0  0  0  0
  187.8240  171.8880  135.7090 C   0  0  0  0  0  0  0  0  0  0  0  0
  187.5120  170.2510  135.0560 S   0  0  0  0  0  1  0  0  0  0  0  0
  185.3960  172.4110  136.1890 C   0  0  0  0  0  3  0  0  0  0  0  0
  189.1620  172.3780  135.7800 C   0  0  0  0  0  3  0  0  0  0  0  0
  184.9230  174.6320  137.1830 C   0  0  0  0  0  3  0  0  0  0  0  0
  189.2040  177.0730  144.0790 C   0  0  0  0  0  2  0  0  0  0  0  0
  187.1010  177.7190  142.8860 C   0  0  0  0  0  3  0  0  0  0  0  0
  187.1550  177.8050  145.3050 C   0  0  0  0  0  3  0  0  0  0  0  0
  185.8240  178.2340  145.3200 C   0  0  0  0  0  3  0  0  0  0  0  0
  185.1220  178.4080  144.1170 C   0  0  0  0  0  0  0  0  0  0  0  0
  187.7960  177.5530  144.0890 C   0  0  0  0  0  0  0  0  0  0  0  0
  185.7700  178.1470  142.9000 C   0  0  0  0  0  3  0  0  0  0  0  0
  183.2240  179.3570  145.1750 O   0  0  0  0  0  0  0  0  0  0  0  0
  183.7170  178.8510  144.1300 C   0  0  0  0  0  0  0  0  0  0  0  0
  182.9070  178.7050  142.9600 N   0  0  0  0  0  2  0  0  0  0  0  0
  181.5480  179.0530  142.9520 N   0  0  0  0  0  2  0  0  0  0  0  0
  181.1380  179.2070  141.5620 C   0  0  0  0  0  2  0  0  0  0  0  0
  181.5710  177.9940  140.7330 C   0  0  2  0  0  3  0  0  0  0  0  0
  184.6170  178.9090  139.3850 C   0  0  0  0  0  0  0  0  0  0  0  0
  185.8680  178.7780  139.3740 O   0  0  0  0  0  0  0  0  0  0  0  0
  182.5430  179.9040  139.3140 C   0  0  1  0  0  3  0  0  0  0  0  0
  182.3870  178.3760  139.4930 C   0  0  1  0  0  3  0  0  0  0  0  0
  183.9740  180.1550  139.2220 N   0  0  0  0  0  2  0  0  0  0  0  0
  181.8640  180.3430  138.0300 C   0  0  0  0  0  1  0  0  0  0  0  0
  183.7340  177.8250  139.5660 N   0  0  0  0  0  2  0  0  0  0  0  0
  180.7880  175.8200  139.7890 C   0  0  0  0  0  1  0  0  0  0  0  0
  180.3570  177.1730  140.3260 C   0  0  0  0  0  2  0  0  0  0  0  0
  1 23  1  0  0  0  0
  2  1  1  0  0  0  0
  3  2  1  0  0  0  0
  4  3  1  0  0  0  0
  5  4  1  0  0  0  0
  6  5  1  0  0  0  0
  7  8  1  0  0  0  0
  8  6  2  0  0  0  0
 10  8  1  0  0  0  0
 11  9  2  0  0  0  0
 11 10  1  0  0  0  0
 12 15  2  0  0  0  0
 12 17  1  0  0  0  0
 13 20  1  0  0  0  0
 13 12  1  0  0  0  0
 14 15  1  0  0  0  0
 15 11  1  0  0  0  0
 16 22  1  0  0  0  0
 17 22  2  0  0  0  0
 17  9  1  0  0  0  0
 18 21  1  0  0  0  0
 18 13  2  0  0  0  0
 19 18  1  0  0  0  0
 20 16  2  0  0  0  0
 21 14  2  0  0  0  0
 23 28  1  0  0  0  0
 24 29  2  0  0  0  0
 24 28  1  0  0  0  0
 25 26  1  0  0  0  0
 27 31  1  0  0  0  0
 27 26  2  0  0  0  0
 28 25  2  0  0  0  0
 29 27  1  0  0  0  0
 31 30  2  0  0  0  0
 32 31  1  0  0  0  0
 33 32  1  0  0  0  0
 34 33  1  0  0  0  0
 35 44  1  6  0  0  0
 35 34  1  0  0  0  0
 36 42  1  0  0  0  0
 37 36  2  0  0  0  0
 38 41  1  6  0  0  0
 38 39  1  0  0  0  0
 39 42  1  0  0  0  0
 39 35  1  1  0  0  0
 40 38  1  0  0  0  0
 40 36  1  0  0  0  0
 43 44  1  0  0  0  0
M  END
>  <MODEL>
6

>  <REMARK>
 VINA RESULT:      -7.3      1.600      2.102
  Name = 
  14 active torsions:
  status: ('A' for Active; 'I' for Inactive)
    1  A    between atoms: C_5  and  C_12
    2  A    between atoms: C_5  and  N_31
    3  A    between atoms: N_8  and  C_33
    4  A    between atoms: C_11  and  C_44
    5  A    between atoms: C_18  and  N_27
    6  A    between atoms: C_18  and  C_44
    7  A    between atoms: C_19  and  C_44
    8  A    between atoms: C_21  and  C_29
    9  A    between atoms: N_27  and  N_34
   10  A    between atoms: N_31  and  C_38
   11  A    between atoms: C_35  and  C_42
   12  A    between atoms: C_37  and  C_38
   13  A    between atoms: C_37  and  N_40
   14  A    between atoms: N_40  and  C_42
                            x       y       z     vdW  Elec       q    Type
                         _______ _______ _______ _____ _____    ______ ____

>  <TORSDO>
F 14

$$$$
=
 OpenBabel10232409093D

 44 48  0  0  1  0  0  0  0  0999 V2000
  190.1750  178.1750  144.9660 N   0  0  0  0  0  2  0  0  0  0  0  0
  190.6520  178.5890  143.6600 C   0  0  0  0  0  2  0  0  0  0  0  0
  191.6200  177.5530  143.1210 C   0  0  0  0  0  2  0  0  0  0  0  0
  190.9650  176.7540  142.1000 N   0  0  0  0  0  2  0  0  0  0  0  0
  190.8770  177.5710  140.9000 C   0  0  0  0  0  2  0  0  0  0  0  0
  191.9300  177.1540  139.9230 C   0  0  0  0  0  3  0  0  0  0  0  0
  192.8000  176.5160  137.7540 C   0  0  0  0  0  1  0  0  0  0  0  0
  191.6690  176.9210  138.6360 C   0  0  0  0  0  0  0  0  0  0  0  0
  189.8580  174.7250  137.5870 N   0  0  0  0  0  0  0  0  0  0  0  0
  190.3280  177.0450  138.1380 N   0  0  0  0  0  2  0  0  0  0  0  0
  189.4870  175.9810  137.6760 C   0  0  0  0  0  0  0  0  0  0  0  0
  187.7110  174.9320  136.8500 C   0  0  0  0  0  0  0  0  0  0  0  0
  186.4700  174.6420  136.3380 C   0  0  0  0  0  0  0  0  0  0  0  0
  187.2900  177.2330  137.0880 N   0  0  0  0  0  0  0  0  0  0  0  0
  188.1110  176.1570  137.2080 C   0  0  0  0  0  0  0  0  0  0  0  0
  187.2560  172.3280  136.2110 C   0  0  0  0  0  3  0  0  0  0  0  0
  188.7100  174.0480  137.0560 C   0  0  0  0  0  0  0  0  0  0  0  0
  185.5820  175.7310  136.1990 C   0  0  0  0  0  0  0  0  0  0  0  0
  183.9290  175.5140  135.5470 S   0  0  0  0  0  1  0  0  0  0  0  0
  186.2290  173.2930  136.0070 C   0  0  0  0  0  3  0  0  0  0  0  0
  186.0240  177.0320  136.5860 C   0  0  0  0  0  3  0  0  0  0  0  0
  188.5210  172.7010  136.7410 C   0  0  0  0  0  3  0  0  0  0  0  0
  189.3150  177.0250  144.7500 C   0  0  0  0  0  2  0  0  0  0  0  0
  187.2760  177.9640  145.8540 C   0  0  0  0  0  3  0  0  0  0  0  0
  187.1830  177.3960  143.5020 C   0  0  0  0  0  3  0  0  0  0  0  0
  185.8540  177.8260  143.4500 C   0  0  0  0  0  3  0  0  0  0  0  0
  185.2260  178.3280  144.6000 C   0  0  0  0  0  0  0  0  0  0  0  0
  187.8930  177.4590  144.7050 C   0  0  0  0  0  0  0  0  0  0  0  0
  185.9460  178.3950  145.8020 C   0  0  0  0  0  3  0  0  0  0  0  0
  183.2430  179.1610  145.6000 O   0  0  0  0  0  0  0  0  0  0  0  0
  183.8280  178.7900  144.5460 C   0  0  0  0  0  0  0  0  0  0  0  0
  183.1280  178.8140  143.2970 N   0  0  0  0  0  2  0  0  0  0  0  0
  181.7770  179.1820  143.2130 N   0  0  0  0  0  2  0  0  0  0  0  0
  181.4360  179.2970  141.8010 C   0  0  0  0  0  2  0  0  0  0  0  0
  181.7240  177.9840  141.0670 C   0  0  2  0  0  3  0  0  0  0  0  0
  184.7760  178.8310  139.6890 C   0  0  0  0  0  0  0  0  0  0  0  0
  186.0320  178.7860  139.7520 O   0  0  0  0  0  0  0  0  0  0  0  0
  182.6540  179.6490  139.3430 C   0  0  1  0  0  3  0  0  0  0  0  0
  182.5790  178.1770  139.8090 C   0  0  1  0  0  3  0  0  0  0  0  0
  184.0700  179.9750  139.2600 N   0  0  0  0  0  2  0  0  0  0  0  0
  182.0180  179.7860  137.9720 C   0  0  0  0  0  1  0  0  0  0  0  0
  183.9510  177.7440  140.0420 N   0  0  0  0  0  2  0  0  0  0  0  0
  180.5740  176.5140  139.4110 C   0  0  0  0  0  1  0  0  0  0  0  0
  180.4230  177.2830  140.7110 C   0  0  0  0  0  2  0  0  0  0  0  0
  2  1  1  0  0  0  0
  3  2  1  0  0  0  0
  4  3  1  0  0  0  0
  5  4  1  0  0  0  0
  6  5  1  0  0  0  0
  7  8  1  0  0  0  0
  8  6  2  0  0  0  0
  9 11  2  0  0  0  0
 10  8  1  0  0  0  0
 11 10  1  0  0  0  0
 12 17  1  0  0  0  0
 12 15  2  0  0  0  0
 13 12  1  0  0  0  0
 14 15  1  0  0  0  0
 15 11  1  0  0  0  0
 16 22  1  0  0  0  0
 17  9  1  0  0  0  0
 18 13  2  0  0  0  0
 18 21  1  0  0  0  0
 19 18  1  0  0  0  0
 20 16  2  0  0  0  0
 20 13  1  0  0  0  0
 21 14  2  0  0  0  0
 22 17  2  0  0  0  0
 23  1  1  0  0  0  0
 25 28  1  0  0  0  0
 26 25  2  0  0  0  0
 26 27  1  0  0  0  0
 27 29  2  0  0  0  0
 28 23  1  0  0  0  0
 28 24  2  0  0  0  0
 29 24  1  0  0  0  0
 31 27  1  0  0  0  0
 31 30  2  0  0  0  0
 32 31  1  0  0  0  0
 33 32  1  0  0  0  0
 34 33  1  0  0  0  0
 35 44  1  6  0  0  0
 35 34  1  0  0  0  0
 36 37  2  0  0  0  0
 36 42  1  0  0  0  0
 38 41  1  6  0  0  0
 38 39  1  0  0  0  0
 39 42  1  0  0  0  0
 39 35  1  1  0  0  0
 40 38  1  0  0  0  0
 40 36  1  0  0  0  0
 43 44  1  0  0  0  0
M  END
>  <MODEL>
7

>  <REMARK>
 VINA RESULT:      -7.2      1.555      2.685
  Name = 
  14 active torsions:
  status: ('A' for Active; 'I' for Inactive)
    1  A    between atoms: C_5  and  C_12
    2  A    between atoms: C_5  and  N_31
    3  A    between atoms: N_8  and  C_33
    4  A    between atoms: C_11  and  C_44
    5  A    between atoms: C_18  and  N_27
    6  A    between atoms: C_18  and  C_44
    7  A    between atoms: C_19  and  C_44
    8  A    between atoms: C_21  and  C_29
    9  A    between atoms: N_27  and  N_34
   10  A    between atoms: N_31  and  C_38
   11  A    between atoms: C_35  and  C_42
   12  A    between atoms: C_37  and  C_38
   13  A    between atoms: C_37  and  N_40
   14  A    between atoms: N_40  and  C_42
                            x       y       z     vdW  Elec       q    Type
                         _______ _______ _______ _____ _____    ______ ____

>  <TORSDO>
F 14

$$$$
=
 OpenBabel10232409093D

 44 48  0  0  1  0  0  0  0  0999 V2000
  190.3130  177.9220  143.9080 N   0  0  0  0  0  2  0  0  0  0  0  0
  191.3720  177.2010  143.2260 C   0  0  0  0  0  2  0  0  0  0  0  0
  191.5200  177.7330  141.8140 C   0  0  0  0  0  2  0  0  0  0  0  0
  190.5590  177.0800  140.9410 N   0  0  0  0  0  2  0  0  0  0  0  0
  191.2480  176.7600  139.7000 C   0  0  0  0  0  2  0  0  0  0  0  0
  190.2540  176.3680  138.6540 C   0  0  0  0  0  3  0  0  0  0  0  0
  189.4160  175.0900  136.7740 C   0  0  0  0  0  1  0  0  0  0  0  0
  190.4830  175.3980  137.7690 C   0  0  0  0  0  0  0  0  0  0  0  0
  193.0660  176.1640  136.3740 N   0  0  0  0  0  0  0  0  0  0  0  0
  191.7340  174.6930  137.7760 N   0  0  0  0  0  2  0  0  0  0  0  0
  192.9460  175.0980  137.1300 C   0  0  0  0  0  0  0  0  0  0  0  0
  195.0590  175.0610  136.4420 C   0  0  0  0  0  0  0  0  0  0  0  0
  196.3680  174.7110  136.2210 C   0  0  0  0  0  0  0  0  0  0  0  0
  194.5930  173.2140  137.8190 N   0  0  0  0  0  0  0  0  0  0  0  0
  194.2080  174.3580  137.1980 C   0  0  0  0  0  0  0  0  0  0  0  0
  196.4890  176.7210  134.8300 C   0  0  0  0  0  3  0  0  0  0  0  0
  194.4310  176.1420  135.9330 C   0  0  0  0  0  0  0  0  0  0  0  0
  196.8130  173.5280  136.8510 C   0  0  0  0  0  0  0  0  0  0  0  0
  198.4920  172.9390  136.6590 S   0  0  0  0  0  1  0  0  0  0  0  0
  197.1140  175.5690  135.3880 C   0  0  0  0  0  3  0  0  0  0  0  0
  195.8930  172.7890  137.6540 C   0  0  0  0  0  3  0  0  0  0  0  0
  195.1260  177.0200  135.0990 C   0  0  0  0  0  3  0  0  0  0  0  0
  189.4300  176.9200  144.4800 C   0  0  0  0  0  2  0  0  0  0  0  0
  187.2810  177.4090  143.2940 C   0  0  0  0  0  3  0  0  0  0  0  0
  187.4480  177.8740  145.6640 C   0  0  0  0  0  3  0  0  0  0  0  0
  186.1240  178.3240  145.6690 C   0  0  0  0  0  3  0  0  0  0  0  0
  185.3690  178.3190  144.4860 C   0  0  0  0  0  0  0  0  0  0  0  0
  188.0290  177.4220  144.4760 C   0  0  0  0  0  0  0  0  0  0  0  0
  185.9560  177.8570  143.2980 C   0  0  0  0  0  3  0  0  0  0  0  0
  183.4350  179.1640  145.5670 O   0  0  0  0  0  0  0  0  0  0  0  0
  183.9710  178.7840  144.4910 C   0  0  0  0  0  0  0  0  0  0  0  0
  183.2160  178.8020  143.2750 N   0  0  0  0  0  2  0  0  0  0  0  0
  181.8640  179.1740  143.2480 N   0  0  0  0  0  2  0  0  0  0  0  0
  181.4690  179.3100  141.8520 C   0  0  0  0  0  2  0  0  0  0  0  0
  181.7400  178.0130  141.0850 C   0  0  2  0  0  3  0  0  0  0  0  0
  184.7440  178.8540  139.6000 C   0  0  0  0  0  0  0  0  0  0  0  0
  186.0000  178.7850  139.6050 O   0  0  0  0  0  0  0  0  0  0  0  0
  182.6240  179.7230  139.3800 C   0  0  1  0  0  3  0  0  0  0  0  0
  182.5420  178.2360  139.7970 C   0  0  1  0  0  3  0  0  0  0  0  0
  184.0420  180.0260  139.2460 N   0  0  0  0  0  2  0  0  0  0  0  0
  181.9310  179.9210  138.0460 C   0  0  0  0  0  1  0  0  0  0  0  0
  183.9140  177.7700  139.9520 N   0  0  0  0  0  2  0  0  0  0  0  0
  180.5060  176.6420  139.4050 C   0  0  0  0  0  1  0  0  0  0  0  0
  180.4330  177.3040  140.7690 C   0  0  0  0  0  2  0  0  0  0  0  0
  1 23  1  0  0  0  0
  2  1  1  0  0  0  0
  3  2  1  0  0  0  0
  4  3  1  0  0  0  0
  5  4  1  0  0  0  0
  6  5  1  0  0  0  0
  7  8  1  0  0  0  0
  8 10  1  0  0  0  0
  8  6  2  0  0  0  0
  9 11  2  0  0  0  0
 11 15  1  0  0  0  0
 11 10  1  0  0  0  0
 12 15  1  0  0  0  0
 13 12  1  0  0  0  0
 13 18  1  0  0  0  0
 15 14  2  0  0  0  0
 16 22  2  0  0  0  0
 16 20  1  0  0  0  0
 17  9  1  0  0  0  0
 17 12  2  0  0  0  0
 18 21  2  0  0  0  0
 19 18  1  0  0  0  0
 20 13  2  0  0  0  0
 21 14  1  0  0  0  0
 22 17  1  0  0  0  0
 24 29  2  0  0  0  0
 24 28  1  0  0  0  0
 25 26  1  0  0  0  0
 27 31  1  0  0  0  0
 27 26  2  0  0  0  0
 28 23  1  0  0  0  0
 28 25  2  0  0  0  0
 29 27  1  0  0  0  0
 31 30  2  0  0  0  0
 32 31  1  0  0  0  0
 33 32  1  0  0  0  0
 34 33  1  0  0  0  0
 35 44  1  6  0  0  0
 35 34  1  0  0  0  0
 36 37  2  0  0  0  0
 36 42  1  0  0  0  0
 38 41  1  6  0  0  0
 38 39  1  0  0  0  0
 39 42  1  0  0  0  0
 39 35  1  1  0  0  0
 40 38  1  0  0  0  0
 40 36  1  0  0  0  0
 43 44  1  0  0  0  0
M  END
>  <MODEL>
8

>  <REMARK>
 VINA RESULT:      -7.1      4.147      6.259
  Name = 
  14 active torsions:
  status: ('A' for Active; 'I' for Inactive)
    1  A    between atoms: C_5  and  C_12
    2  A    between atoms: C_5  and  N_31
    3  A    between atoms: N_8  and  C_33
    4  A    between atoms: C_11  and  C_44
    5  A    between atoms: C_18  and  N_27
    6  A    between atoms: C_18  and  C_44
    7  A    between atoms: C_19  and  C_44
    8  A    between atoms: C_21  and  C_29
    9  A    between atoms: N_27  and  N_34
   10  A    between atoms: N_31  and  C_38
   11  A    between atoms: C_35  and  C_42
   12  A    between atoms: C_37  and  C_38
   13  A    between atoms: C_37  and  N_40
   14  A    between atoms: N_40  and  C_42
                            x       y       z     vdW  Elec       q    Type
                         _______ _______ _______ _____ _____    ______ ____

>  <TORSDO>
F 14

$$$$
=
 OpenBabel10232409093D

 44 48  0  0  1  0  0  0  0  0999 V2000
  190.4150  177.7050  145.7560 N   0  0  0  0  0  2  0  0  0  0  0  0
  191.3450  176.5950  145.6710 C   0  0  0  0  0  2  0  0  0  0  0  0
  191.4870  176.1600  144.2250 C   0  0  0  0  0  2  0  0  0  0  0  0
  190.7810  177.0920  143.3610 N   0  0  0  0  0  2  0  0  0  0  0  0
  190.4870  176.3940  142.1190 C   0  0  0  0  0  2  0  0  0  0  0  0
  189.6680  177.2700  141.2270 C   0  0  0  0  0  3  0  0  0  0  0  0
  189.1070  178.4110  139.1640 C   0  0  0  0  0  1  0  0  0  0  0  0
  190.0030  177.5270  139.9620 C   0  0  0  0  0  0  0  0  0  0  0  0
  190.2710  175.2680  137.9540 N   0  0  0  0  0  0  0  0  0  0  0  0
  191.2080  176.9750  139.4080 N   0  0  0  0  0  2  0  0  0  0  0  0
  191.2990  175.9260  138.4370 C   0  0  0  0  0  0  0  0  0  0  0  0
  192.1900  174.4420  137.0430 C   0  0  0  0  0  0  0  0  0  0  0  0
  193.0690  173.6850  136.3090 C   0  0  0  0  0  0  0  0  0  0  0  0
  193.8610  175.7480  138.0590 N   0  0  0  0  0  0  0  0  0  0  0  0
  192.5550  175.4220  137.8770 C   0  0  0  0  0  0  0  0  0  0  0  0
  191.0880  172.5190  135.4670 C   0  0  0  0  0  3  0  0  0  0  0  0
  190.8470  174.3130  137.0520 C   0  0  0  0  0  0  0  0  0  0  0  0
  194.4390  173.9910  136.4640 C   0  0  0  0  0  0  0  0  0  0  0  0
  195.7060  173.0930  135.5740 S   0  0  0  0  0  1  0  0  0  0  0  0
  192.5030  172.6880  135.4880 C   0  0  0  0  0  3  0  0  0  0  0  0
  194.8110  175.0400  137.3580 C   0  0  0  0  0  3  0  0  0  0  0  0
  190.2380  173.3370  136.2590 C   0  0  0  0  0  3  0  0  0  0  0  0
  189.3740  177.3060  146.6860 C   0  0  0  0  0  2  0  0  0  0  0  0
  187.1070  178.3440  146.9010 C   0  0  0  0  0  3  0  0  0  0  0  0
  187.7270  177.2970  144.8080 C   0  0  0  0  0  3  0  0  0  0  0  0
  186.4820  177.6360  144.2700 C   0  0  0  0  0  3  0  0  0  0  0  0
  185.5410  178.3310  145.0430 C   0  0  0  0  0  0  0  0  0  0  0  0
  188.0380  177.6450  146.1250 C   0  0  0  0  0  0  0  0  0  0  0  0
  185.8620  178.6830  146.3630 C   0  0  0  0  0  3  0  0  0  0  0  0
  183.3260  179.1600  145.2210 O   0  0  0  0  0  0  0  0  0  0  0  0
  184.2320  178.6960  144.4750 C   0  0  0  0  0  0  0  0  0  0  0  0
  183.9810  178.5220  143.0770 N   0  0  0  0  0  2  0  0  0  0  0  0
  182.7280  178.7940  142.5090 N   0  0  0  0  0  2  0  0  0  0  0  0
  182.7050  178.1970  141.1800 C   0  0  0  0  0  2  0  0  0  0  0  0
  183.4420  179.0860  140.1750 C   0  0  2  0  0  3  0  0  0  0  0  0
  181.1890  181.2400  138.6860 C   0  0  0  0  0  0  0  0  0  0  0  0
  180.7990  182.4210  138.4940 O   0  0  0  0  0  0  0  0  0  0  0  0
  181.1200  178.9740  139.0760 C   0  0  1  0  0  3  0  0  0  0  0  0
  182.5890  179.4400  138.9510 C   0  0  1  0  0  3  0  0  0  0  0  0
  180.3010  180.1590  138.8650 N   0  0  0  0  0  2  0  0  0  0  0  0
  180.8150  177.9440  138.0040 C   0  0  0  0  0  1  0  0  0  0  0  0
  182.5520  180.8820  138.7430 N   0  0  0  0  0  2  0  0  0  0  0  0
  185.8690  178.7910  140.6730 C   0  0  0  0  0  1  0  0  0  0  0  0
  184.7370  178.4220  139.7330 C   0  0  0  0  0  2  0  0  0  0  0  0
  1 23  1  0  0  0  0
  2  1  1  0  0  0  0
  3  2  1  0  0  0  0
  4  3  1  0  0  0  0
  5  4  1  0  0  0  0
  6  5  1  0  0  0  0
  7  8  1  0  0  0  0
  8  6  2  0  0  0  0
  9 11  2  0  0  0  0
 10  8  1  0  0  0  0
 11 10  1  0  0  0  0
 12 17  1  0  0  0  0
 12 15  2  0  0  0  0
 13 18  2  0  0  0  0
 13 12  1  0  0  0  0
 15 14  1  0  0  0  0
 15 11  1  0  0  0  0
 16 20  2  0  0  0  0
 16 22  1  0  0  0  0
 17  9  1  0  0  0  0
 18 21  1  0  0  0  0
 19 18  1  0  0  0  0
 20 13  1  0  0  0  0
 21 14  2  0  0  0  0
 22 17  2  0  0  0  0
 25 28  1  0  0  0  0
 26 25  2  0  0  0  0
 26 27  1  0  0  0  0
 27 29  2  0  0  0  0
 28 23  1  0  0  0  0
 28 24  2  0  0  0  0
 29 24  1  0  0  0  0
 31 27  1  0  0  0  0
 31 30  2  0  0  0  0
 32 31  1  0  0  0  0
 33 32  1  0  0  0  0
 34 33  1  0  0  0  0
 35 44  1  6  0  0  0
 35 34  1  0  0  0  0
 36 42  1  0  0  0  0
 36 40  1  0  0  0  0
 37 36  2  0  0  0  0
 38 41  1  6  0  0  0
 39 38  1  0  0  0  0
 39 35  1  1  0  0  0
 40 38  1  0  0  0  0
 42 39  1  0  0  0  0
 44 43  1  0  0  0  0
M  END
>  <MODEL>
9

>  <REMARK>
 VINA RESULT:      -7.1      3.452      5.407
  Name = 
  14 active torsions:
  status: ('A' for Active; 'I' for Inactive)
    1  A    between atoms: C_5  and  C_12
    2  A    between atoms: C_5  and  N_31
    3  A    between atoms: N_8  and  C_33
    4  A    between atoms: C_11  and  C_44
    5  A    between atoms: C_18  and  N_27
    6  A    between atoms: C_18  and  C_44
    7  A    between atoms: C_19  and  C_44
    8  A    between atoms: C_21  and  C_29
    9  A    between atoms: N_27  and  N_34
   10  A    between atoms: N_31  and  C_38
   11  A    between atoms: C_35  and  C_42
   12  A    between atoms: C_37  and  C_38
   13  A    between atoms: C_37  and  N_40
   14  A    between atoms: N_40  and  C_42
                            x       y       z     vdW  Elec       q    Type
                         _______ _______ _______ _____ _____    ______ ____

>  <TORSDO>
F 14

$$$$
