=
 OpenBabel10232408243D

 30 31  0  0  1  0  0  0  0  0999 V2000
  190.0240  176.2980  143.2890 N   0  0  0  0  0  0  0  0  0  0  0  0
  190.0490  176.8130  141.9450 C   0  0  0  0  0  0  0  0  0  0  0  0
  190.6410  176.1720  141.0350 O   0  0  0  0  0  0  0  0  0  0  0  0
  190.8120  175.1150  143.6120 C   0  0  0  0  0  1  0  0  0  0  0  0
  185.4910  178.8730  147.0240 N   0  0  0  0  0  0  0  0  0  0  0  0
  186.7880  178.5750  147.3090 C   0  0  0  0  0  3  0  0  0  0  0  0
  189.2190  176.8930  144.3200 C   0  0  0  0  0  0  0  0  0  0  0  0
  187.0720  177.7670  145.0470 C   0  0  0  0  0  0  0  0  0  0  0  0
  185.7380  178.0820  144.7800 C   0  0  0  0  0  3  0  0  0  0  0  0
  187.8770  177.2070  144.0560 C   0  0  0  0  0  3  0  0  0  0  0  0
  183.5950  178.9700  145.5380 N   0  0  0  0  0  1  0  0  0  0  0  0
  188.9370  177.7030  146.5980 C   0  0  0  0  0  3  0  0  0  0  0  0
  187.6050  178.0160  146.3260 C   0  0  0  0  0  0  0  0  0  0  0  0
  189.7540  177.1410  145.6010 C   0  0  0  0  0  0  0  0  0  0  0  0
  184.9550  178.6420  145.7940 C   0  0  0  0  0  0  0  0  0  0  0  0
  191.0960  176.8380  145.8610 O   0  0  0  0  0  0  0  0  0  0  0  0
  191.5570  176.4070  147.1350 C   0  0  0  0  0  1  0  0  0  0  0  0
  189.4000  178.1180  141.5980 C   0  0  0  0  0  2  0  0  0  0  0  0
  188.4770  177.9700  140.3990 C   0  0  0  0  0  2  0  0  0  0  0  0
  189.2190  178.2830  139.1100 C   0  0  0  0  0  2  0  0  0  0  0  0
  188.4000  179.4380  137.2270 O   0  0  0  0  0  0  0  0  0  0  0  0
  188.2500  178.5020  137.9970 C   0  0  0  0  0  0  0  0  0  0  0  0
  187.0960  177.5710  137.8330 C   0  0  0  0  0  2  0  0  0  0  0  0
  185.8240  178.3540  137.5360 C   0  0  0  0  0  2  0  0  0  0  0  0
  183.5440  177.5810  137.6250 O   0  0  0  0  0  1  0  0  0  0  0  0
  184.6530  177.9100  138.4080 C   0  0  2  0  0  3  0  0  0  0  0  0
  185.4850  179.3900  140.7200 O   0  0  0  0  0  1  0  0  0  0  0  0
  184.2050  179.1770  139.6360 P   0  0  0  0  0  0  0  0  0  0  0  0
  183.8740  180.6440  138.8630 O   0  0  0  0  0  0  0  0  0  0  0  0
  182.9780  178.7260  140.3960 O   0  0  0  0  0  1  0  0  0  0  0  0
  1  4  1  0  0  0  0
  1  7  1  0  0  0  0
  2  1  1  0  0  0  0
  3  2  2  0  0  0  0
  5  6  1  0  0  0  0
  7 14  1  0  0  0  0
  8 13  1  0  0  0  0
  9  8  2  0  0  0  0
  9 15  1  0  0  0  0
 10  7  2  0  0  0  0
 10  8  1  0  0  0  0
 11 15  1  0  0  0  0
 13 12  1  0  0  0  0
 13  6  2  0  0  0  0
 14 16  1  0  0  0  0
 14 12  2  0  0  0  0
 15  5  2  0  0  0  0
 16 17  1  0  0  0  0
 18  2  1  0  0  0  0
 19 18  1  0  0  0  0
 20 19  1  0  0  0  0
 21 22  2  0  0  0  0
 22 20  1  0  0  0  0
 23 22  1  0  0  0  0
 24 23  1  0  0  0  0
 24 26  1  0  0  0  0
 26 25  1  6  0  0  0
 26 28  1  0  0  0  0
 28 30  1  0  0  0  0
 28 27  1  0  0  0  0
 29 28  2  0  0  0  0
M  END
>  <MODEL>
1

>  <REMARK>
 VINA RESULT:      -8.2      0.000      0.000
  Name = 
  10 active torsions:
  status: ('A' for Active; 'I' for Inactive)
    1  A    between atoms: O_2  and  C_25
    2  A    between atoms: N_5  and  C_13
    3  A    between atoms: C_7  and  C_20
    4  A    between atoms: C_7  and  C_23
    5  A    between atoms: P_8  and  C_18
    6  A    between atoms: C_10  and  C_29
    7  A    between atoms: C_18  and  C_23
    8  A    between atoms: C_20  and  C_24
    9  A    between atoms: C_24  and  C_30
   10  A    between atoms: C_29  and  C_30
                            x       y       z     vdW  Elec       q    Type
                         _______ _______ _______ _____ _____    ______ ____

>  <TORSDO>
F 10

$$$$
=
 OpenBabel10232408243D

 30 31  0  0  1  0  0  0  0  0999 V2000
  189.7620  176.3610  143.0730 N   0  0  0  0  0  0  0  0  0  0  0  0
  189.8260  176.9450  141.7590 C   0  0  0  0  0  0  0  0  0  0  0  0
  190.4120  176.3340  140.8250 O   0  0  0  0  0  0  0  0  0  0  0  0
  190.5070  175.1380  143.3440 C   0  0  0  0  0  1  0  0  0  0  0  0
  185.2420  178.8440  146.8850 N   0  0  0  0  0  0  0  0  0  0  0  0
  186.5350  178.5250  147.1620 C   0  0  0  0  0  3  0  0  0  0  0  0
  188.9600  176.9270  144.1220 C   0  0  0  0  0  0  0  0  0  0  0  0
  186.8180  177.7930  144.8740 C   0  0  0  0  0  0  0  0  0  0  0  0
  185.4870  178.1280  144.6160 C   0  0  0  0  0  3  0  0  0  0  0  0
  187.6200  177.2610  143.8660 C   0  0  0  0  0  3  0  0  0  0  0  0
  183.3500  179.0060  145.3990 N   0  0  0  0  0  1  0  0  0  0  0  0
  188.6790  177.6610  146.4260 C   0  0  0  0  0  3  0  0  0  0  0  0
  187.3500  177.9930  146.1620 C   0  0  0  0  0  0  0  0  0  0  0  0
  189.4940  177.1270  145.4120 C   0  0  0  0  0  0  0  0  0  0  0  0
  184.7070  178.6580  145.6470 C   0  0  0  0  0  0  0  0  0  0  0  0
  190.8330  176.8040  145.6640 O   0  0  0  0  0  0  0  0  0  0  0  0
  191.3340  176.5590  146.9710 C   0  0  0  0  0  1  0  0  0  0  0  0
  189.2240  178.2870  141.4720 C   0  0  0  0  0  2  0  0  0  0  0  0
  188.2470  178.2140  140.3100 C   0  0  0  0  0  2  0  0  0  0  0  0
  188.9580  178.4850  138.9950 C   0  0  0  0  0  2  0  0  0  0  0  0
  187.3750  177.0830  137.9560 O   0  0  0  0  0  0  0  0  0  0  0  0
  188.5220  177.5040  137.9590 C   0  0  0  0  0  0  0  0  0  0  0  0
  189.4960  177.0390  136.9300 C   0  0  0  0  0  2  0  0  0  0  0  0
  190.9040  177.0140  137.5080 C   0  0  0  0  0  2  0  0  0  0  0  0
  191.0020  174.6550  137.9880 O   0  0  0  0  0  1  0  0  0  0  0  0
  191.6090  175.6820  137.2630 C   0  0  2  0  0  3  0  0  0  0  0  0
  193.9800  174.2130  137.9340 O   0  0  0  0  0  1  0  0  0  0  0  0
  193.3830  175.7720  137.6610 P   0  0  0  0  0  0  0  0  0  0  0  0
  194.2310  176.4820  136.3810 O   0  0  0  0  0  0  0  0  0  0  0  0
  193.5750  176.6040  138.9080 O   0  0  0  0  0  1  0  0  0  0  0  0
  1  4  1  0  0  0  0
  1  7  1  0  0  0  0
  2  1  1  0  0  0  0
  3  2  2  0  0  0  0
  5  6  1  0  0  0  0
  7 14  1  0  0  0  0
  8 13  1  0  0  0  0
  9  8  2  0  0  0  0
  9 15  1  0  0  0  0
 10  7  2  0  0  0  0
 10  8  1  0  0  0  0
 11 15  1  0  0  0  0
 13 12  1  0  0  0  0
 13  6  2  0  0  0  0
 14 16  1  0  0  0  0
 14 12  2  0  0  0  0
 15  5  2  0  0  0  0
 16 17  1  0  0  0  0
 18  2  1  0  0  0  0
 19 18  1  0  0  0  0
 20 19  1  0  0  0  0
 21 22  2  0  0  0  0
 22 20  1  0  0  0  0
 23 24  1  0  0  0  0
 23 22  1  0  0  0  0
 26 24  1  0  0  0  0
 26 28  1  0  0  0  0
 26 25  1  1  0  0  0
 28 27  1  0  0  0  0
 28 30  1  0  0  0  0
 29 28  2  0  0  0  0
M  END
>  <MODEL>
2

>  <REMARK>
 VINA RESULT:      -8.2      2.720      4.546
  Name = 
  10 active torsions:
  status: ('A' for Active; 'I' for Inactive)
    1  A    between atoms: O_2  and  C_25
    2  A    between atoms: N_5  and  C_13
    3  A    between atoms: C_7  and  C_20
    4  A    between atoms: C_7  and  C_23
    5  A    between atoms: P_8  and  C_18
    6  A    between atoms: C_10  and  C_29
    7  A    between atoms: C_18  and  C_23
    8  A    between atoms: C_20  and  C_24
    9  A    between atoms: C_24  and  C_30
   10  A    between atoms: C_29  and  C_30
                            x       y       z     vdW  Elec       q    Type
                         _______ _______ _______ _____ _____    ______ ____

>  <TORSDO>
F 10

$$$$
=
 OpenBabel10232408243D

 30 31  0  0  1  0  0  0  0  0999 V2000
  188.6530  177.8790  147.1420 N   0  0  0  0  0  0  0  0  0  0  0  0
  187.2280  178.0800  147.1880 C   0  0  0  0  0  0  0  0  0  0  0  0
  186.6880  178.5230  148.2380 O   0  0  0  0  0  0  0  0  0  0  0  0
  189.4350  178.0500  148.3600 C   0  0  0  0  0  1  0  0  0  0  0  0
  190.7440  177.0220  141.1400 N   0  0  0  0  0  0  0  0  0  0  0  0
  191.3180  176.6660  142.3210 C   0  0  0  0  0  3  0  0  0  0  0  0
  189.3380  177.5470  145.9230 C   0  0  0  0  0  0  0  0  0  0  0  0
  189.4280  177.6120  143.4960 C   0  0  0  0  0  0  0  0  0  0  0  0
  188.8600  177.9680  142.2710 C   0  0  0  0  0  3  0  0  0  0  0  0
  188.7720  177.9070  144.6900 C   0  0  0  0  0  3  0  0  0  0  0  0
  188.9770  178.0140  139.8340 N   0  0  0  0  0  1  0  0  0  0  0  0
  191.2440  176.5950  144.7440 C   0  0  0  0  0  3  0  0  0  0  0  0
  190.6720  176.9530  143.5230 C   0  0  0  0  0  0  0  0  0  0  0  0
  190.5850  176.8870  145.9520 C   0  0  0  0  0  0  0  0  0  0  0  0
  189.5430  177.6600  141.0900 C   0  0  0  0  0  0  0  0  0  0  0  0
  191.1440  176.5190  147.1810 O   0  0  0  0  0  0  0  0  0  0  0  0
  192.3580  175.7870  147.2880 C   0  0  0  0  0  1  0  0  0  0  0  0
  186.3560  177.7520  146.0150 C   0  0  0  0  0  2  0  0  0  0  0  0
  185.5840  178.9760  145.5460 C   0  0  0  0  0  2  0  0  0  0  0  0
  184.0880  178.7180  145.6010 C   0  0  0  0  0  2  0  0  0  0  0  0
  182.2750  178.7890  144.0980 O   0  0  0  0  0  0  0  0  0  0  0  0
  183.4730  178.9570  144.2630 C   0  0  0  0  0  0  0  0  0  0  0  0
  184.3330  179.4020  143.1280 C   0  0  0  0  0  2  0  0  0  0  0  0
  184.3700  178.3340  142.0430 C   0  0  0  0  0  2  0  0  0  0  0  0
  186.2040  179.7290  141.3420 O   0  0  0  0  0  1  0  0  0  0  0  0
  185.4530  178.6010  141.0020 C   0  0  2  0  0  3  0  0  0  0  0  0
  183.6300  177.5580  139.0480 O   0  0  0  0  0  1  0  0  0  0  0  0
  184.7550  178.7880  139.3310 P   0  0  0  0  0  0  0  0  0  0  0  0
  183.9930  180.2910  139.1840 O   0  0  0  0  0  1  0  0  0  0  0  0
  185.8670  178.6910  138.3110 O   0  0  0  0  0  0  0  0  0  0  0  0
  1  2  1  0  0  0  0
  1  4  1  0  0  0  0
  2  3  2  0  0  0  0
  5  6  1  0  0  0  0
  6 13  2  0  0  0  0
  7 14  1  0  0  0  0
  7  1  1  0  0  0  0
  8 13  1  0  0  0  0
  8 10  1  0  0  0  0
  9  8  2  0  0  0  0
 10  7  2  0  0  0  0
 11 15  1  0  0  0  0
 12 14  2  0  0  0  0
 13 12  1  0  0  0  0
 14 16  1  0  0  0  0
 15  5  2  0  0  0  0
 15  9  1  0  0  0  0
 16 17  1  0  0  0  0
 18  2  1  0  0  0  0
 19 20  1  0  0  0  0
 19 18  1  0  0  0  0
 21 22  2  0  0  0  0
 22 20  1  0  0  0  0
 23 22  1  0  0  0  0
 24 23  1  0  0  0  0
 26 25  1  1  0  0  0
 26 24  1  0  0  0  0
 27 28  1  0  0  0  0
 28 26  1  0  0  0  0
 29 28  1  0  0  0  0
 30 28  2  0  0  0  0
M  END
>  <MODEL>
3

>  <REMARK>
 VINA RESULT:      -8.1      2.333      5.302
  Name = 
  10 active torsions:
  status: ('A' for Active; 'I' for Inactive)
    1  A    between atoms: O_2  and  C_25
    2  A    between atoms: N_5  and  C_13
    3  A    between atoms: C_7  and  C_20
    4  A    between atoms: C_7  and  C_23
    5  A    between atoms: P_8  and  C_18
    6  A    between atoms: C_10  and  C_29
    7  A    between atoms: C_18  and  C_23
    8  A    between atoms: C_20  and  C_24
    9  A    between atoms: C_24  and  C_30
   10  A    between atoms: C_29  and  C_30
                            x       y       z     vdW  Elec       q    Type
                         _______ _______ _______ _____ _____    ______ ____

>  <TORSDO>
F 10

$$$$
=
 OpenBabel10232408243D

 30 31  0  0  1  0  0  0  0  0999 V2000
  189.8980  178.3380  143.9720 N   0  0  0  0  0  0  0  0  0  0  0  0
  188.9130  177.9420  144.9450 C   0  0  0  0  0  0  0  0  0  0  0  0
  188.9200  178.4590  146.0950 O   0  0  0  0  0  0  0  0  0  0  0  0
  190.9810  179.2250  144.3770 C   0  0  0  0  0  1  0  0  0  0  0  0
  188.5620  177.2120  137.8010 N   0  0  0  0  0  0  0  0  0  0  0  0
  189.5990  176.7690  138.5620 C   0  0  0  0  0  3  0  0  0  0  0  0
  189.8290  177.9150  142.6000 C   0  0  0  0  0  0  0  0  0  0  0  0
  188.6960  177.9780  140.4520 C   0  0  0  0  0  0  0  0  0  0  0  0
  187.6420  178.4190  139.6500 C   0  0  0  0  0  3  0  0  0  0  0  0
  188.7720  178.3600  141.7900 C   0  0  0  0  0  3  0  0  0  0  0  0
  186.5240  178.4600  137.4810 N   0  0  0  0  0  1  0  0  0  0  0  0
  190.7430  176.6980  140.7000 C   0  0  0  0  0  3  0  0  0  0  0  0
  189.6870  177.1430  139.9030 C   0  0  0  0  0  0  0  0  0  0  0  0
  190.8230  177.0790  142.0520 C   0  0  0  0  0  0  0  0  0  0  0  0
  187.5930  178.0200  138.3110 C   0  0  0  0  0  0  0  0  0  0  0  0
  191.8700  176.6260  142.8630 O   0  0  0  0  0  0  0  0  0  0  0  0
  191.7160  175.5750  143.8070 C   0  0  0  0  0  1  0  0  0  0  0  0
  187.8820  176.9010  144.6320 C   0  0  0  0  0  2  0  0  0  0  0  0
  186.5080  177.3250  145.1250 C   0  0  0  0  0  2  0  0  0  0  0  0
  185.8110  178.1920  144.0890 C   0  0  0  0  0  2  0  0  0  0  0  0
  184.4200  179.0650  145.7790 O   0  0  0  0  0  0  0  0  0  0  0  0
  184.5080  178.6860  144.6220 C   0  0  0  0  0  0  0  0  0  0  0  0
  183.3120  178.7110  143.7310 C   0  0  0  0  0  2  0  0  0  0  0  0
  183.7350  178.5750  142.2740 C   0  0  0  0  0  2  0  0  0  0  0  0
  181.5030  178.1770  141.4590 O   0  0  0  0  0  1  0  0  0  0  0  0
  182.6290  178.9900  141.3080 C   0  0  2  0  0  3  0  0  0  0  0  0
  181.9020  179.3290  138.5530 O   0  0  0  0  0  0  0  0  0  0  0  0
  183.1970  178.9650  139.5780 P   0  0  0  0  0  0  0  0  0  0  0  0
  184.4280  180.1040  139.3540 O   0  0  0  0  0  1  0  0  0  0  0  0
  183.7250  177.5880  139.2450 O   0  0  0  0  0  1  0  0  0  0  0  0
  1  4  1  0  0  0  0
  1  2  1  0  0  0  0
  2  3  2  0  0  0  0
  5 15  2  0  0  0  0
  5  6  1  0  0  0  0
  6 13  2  0  0  0  0
  7  1  1  0  0  0  0
  8 10  1  0  0  0  0
  9  8  2  0  0  0  0
 10  7  2  0  0  0  0
 11 15  1  0  0  0  0
 12 14  2  0  0  0  0
 13  8  1  0  0  0  0
 13 12  1  0  0  0  0
 14  7  1  0  0  0  0
 14 16  1  0  0  0  0
 15  9  1  0  0  0  0
 16 17  1  0  0  0  0
 18  2  1  0  0  0  0
 18 19  1  0  0  0  0
 20 22  1  0  0  0  0
 20 19  1  0  0  0  0
 22 21  2  0  0  0  0
 23 22  1  0  0  0  0
 24 23  1  0  0  0  0
 26 25  1  6  0  0  0
 26 24  1  0  0  0  0
 27 28  2  0  0  0  0
 28 26  1  0  0  0  0
 29 28  1  0  0  0  0
 30 28  1  0  0  0  0
M  END
>  <MODEL>
4

>  <REMARK>
 VINA RESULT:      -7.8      2.559      5.572
  Name = 
  10 active torsions:
  status: ('A' for Active; 'I' for Inactive)
    1  A    between atoms: O_2  and  C_25
    2  A    between atoms: N_5  and  C_13
    3  A    between atoms: C_7  and  C_20
    4  A    between atoms: C_7  and  C_23
    5  A    between atoms: P_8  and  C_18
    6  A    between atoms: C_10  and  C_29
    7  A    between atoms: C_18  and  C_23
    8  A    between atoms: C_20  and  C_24
    9  A    between atoms: C_24  and  C_30
   10  A    between atoms: C_29  and  C_30
                            x       y       z     vdW  Elec       q    Type
                         _______ _______ _______ _____ _____    ______ ____

>  <TORSDO>
F 10

$$$$
=
 OpenBabel10232408243D

 30 31  0  0  1  0  0  0  0  0999 V2000
  189.9760  176.4350  143.1900 N   0  0  0  0  0  0  0  0  0  0  0  0
  189.8730  176.8840  141.8260 C   0  0  0  0  0  0  0  0  0  0  0  0
  190.5060  176.2840  140.9150 O   0  0  0  0  0  0  0  0  0  0  0  0
  190.9280  175.3810  143.5220 C   0  0  0  0  0  1  0  0  0  0  0  0
  185.3530  178.7980  146.9540 N   0  0  0  0  0  0  0  0  0  0  0  0
  186.6380  178.4690  147.2560 C   0  0  0  0  0  3  0  0  0  0  0  0
  189.1450  176.9670  144.2350 C   0  0  0  0  0  0  0  0  0  0  0  0
  186.9840  177.8110  144.9550 C   0  0  0  0  0  0  0  0  0  0  0  0
  185.6610  178.1560  144.6700 C   0  0  0  0  0  3  0  0  0  0  0  0
  187.8140  177.3110  143.9520 C   0  0  0  0  0  3  0  0  0  0  0  0
  183.5030  179.0120  145.4230 N   0  0  0  0  0  1  0  0  0  0  0  0
  188.8010  177.6260  146.5520 C   0  0  0  0  0  3  0  0  0  0  0  0
  187.4800  177.9690  146.2630 C   0  0  0  0  0  0  0  0  0  0  0  0
  189.6430  177.1240  145.5450 C   0  0  0  0  0  0  0  0  0  0  0  0
  184.8520  178.6540  145.6960 C   0  0  0  0  0  0  0  0  0  0  0  0
  190.9740  176.7910  145.8230 O   0  0  0  0  0  0  0  0  0  0  0  0
  191.4360  176.4870  147.1330 C   0  0  0  0  0  1  0  0  0  0  0  0
  189.0420  178.0750  141.4590 C   0  0  0  0  0  2  0  0  0  0  0  0
  188.3860  177.8880  140.1000 C   0  0  0  0  0  2  0  0  0  0  0  0
  189.1020  178.7120  139.0420 C   0  0  0  0  0  2  0  0  0  0  0  0
  187.3810  178.8070  137.4350 O   0  0  0  0  0  0  0  0  0  0  0  0
  188.5170  178.4430  137.6960 C   0  0  0  0  0  0  0  0  0  0  0  0
  189.3300  177.7250  136.6720 C   0  0  0  0  0  2  0  0  0  0  0  0
  188.8720  176.2780  136.5520 C   0  0  0  0  0  2  0  0  0  0  0  0
  189.1310  174.3920  135.0760 O   0  0  0  0  0  1  0  0  0  0  0  0
  189.8160  175.4400  135.6950 C   0  0  2  0  0  3  0  0  0  0  0  0
  191.7620  173.3490  135.9720 O   0  0  0  0  0  0  0  0  0  0  0  0
  191.2150  174.7920  136.6640 P   0  0  0  0  0  0  0  0  0  0  0  0
  192.4770  175.9180  136.6860 O   0  0  0  0  0  1  0  0  0  0  0  0
  190.7610  174.5240  138.0810 O   0  0  0  0  0  1  0  0  0  0  0  0
  1  4  1  0  0  0  0
  1  7  1  0  0  0  0
  2  1  1  0  0  0  0
  3  2  2  0  0  0  0
  5  6  1  0  0  0  0
  7 14  1  0  0  0  0
  8 13  1  0  0  0  0
  9  8  2  0  0  0  0
  9 15  1  0  0  0  0
 10  7  2  0  0  0  0
 10  8  1  0  0  0  0
 11 15  1  0  0  0  0
 13 12  1  0  0  0  0
 13  6  2  0  0  0  0
 14 16  1  0  0  0  0
 14 12  2  0  0  0  0
 15  5  2  0  0  0  0
 16 17  1  0  0  0  0
 18  2  1  0  0  0  0
 19 18  1  0  0  0  0
 20 19  1  0  0  0  0
 21 22  2  0  0  0  0
 22 20  1  0  0  0  0
 23 22  1  0  0  0  0
 24 23  1  0  0  0  0
 26 25  1  1  0  0  0
 26 24  1  0  0  0  0
 26 28  1  0  0  0  0
 27 28  2  0  0  0  0
 28 29  1  0  0  0  0
 28 30  1  0  0  0  0
M  END
>  <MODEL>
5

>  <REMARK>
 VINA RESULT:      -7.6      2.618      3.966
  Name = 
  10 active torsions:
  status: ('A' for Active; 'I' for Inactive)
    1  A    between atoms: O_2  and  C_25
    2  A    between atoms: N_5  and  C_13
    3  A    between atoms: C_7  and  C_20
    4  A    between atoms: C_7  and  C_23
    5  A    between atoms: P_8  and  C_18
    6  A    between atoms: C_10  and  C_29
    7  A    between atoms: C_18  and  C_23
    8  A    between atoms: C_20  and  C_24
    9  A    between atoms: C_24  and  C_30
   10  A    between atoms: C_29  and  C_30
                            x       y       z     vdW  Elec       q    Type
                         _______ _______ _______ _____ _____    ______ ____

>  <TORSDO>
F 10

$$$$
=
 OpenBabel10232408243D

 30 31  0  0  1  0  0  0  0  0999 V2000
  189.8810  176.4700  143.0110 N   0  0  0  0  0  0  0  0  0  0  0  0
  189.7890  176.9220  141.6470 C   0  0  0  0  0  0  0  0  0  0  0  0
  190.4200  176.3180  140.7380 O   0  0  0  0  0  0  0  0  0  0  0  0
  190.8230  175.4090  143.3450 C   0  0  0  0  0  1  0  0  0  0  0  0
  185.2400  178.7900  146.7790 N   0  0  0  0  0  0  0  0  0  0  0  0
  186.5420  178.5220  147.0670 C   0  0  0  0  0  3  0  0  0  0  0  0
  189.0500  177.0080  144.0520 C   0  0  0  0  0  0  0  0  0  0  0  0
  186.8700  177.7940  144.7840 C   0  0  0  0  0  0  0  0  0  0  0  0
  185.5300  178.0770  144.5140 C   0  0  0  0  0  3  0  0  0  0  0  0
  187.7000  177.2900  143.7840 C   0  0  0  0  0  3  0  0  0  0  0  0
  183.3550  178.8750  145.2790 N   0  0  0  0  0  1  0  0  0  0  0  0
  188.7230  177.7390  146.3510 C   0  0  0  0  0  3  0  0  0  0  0  0
  187.3840  178.0190  146.0750 C   0  0  0  0  0  0  0  0  0  0  0  0
  189.5660  177.2330  145.3450 C   0  0  0  0  0  0  0  0  0  0  0  0
  184.7220  178.5810  145.5380 C   0  0  0  0  0  0  0  0  0  0  0  0
  190.9140  176.9620  145.6080 O   0  0  0  0  0  0  0  0  0  0  0  0
  191.3780  176.5160  146.8750 C   0  0  0  0  0  1  0  0  0  0  0  0
  188.9690  178.1210  141.2770 C   0  0  0  0  0  2  0  0  0  0  0  0
  188.4080  177.9880  139.8700 C   0  0  0  0  0  2  0  0  0  0  0  0
  189.2470  178.7820  138.8820 C   0  0  0  0  0  2  0  0  0  0  0  0
  189.7280  177.6410  136.8770 O   0  0  0  0  0  0  0  0  0  0  0  0
  188.9440  178.3530  137.4860 C   0  0  0  0  0  0  0  0  0  0  0  0
  187.6780  178.8020  136.8370 C   0  0  0  0  0  2  0  0  0  0  0  0
  187.1930  177.7560  135.8430 C   0  0  0  0  0  2  0  0  0  0  0  0
  185.5190  177.5320  137.5610 O   0  0  0  0  0  1  0  0  0  0  0  0
  185.9550  177.0140  136.3400 C   0  0  2  0  0  3  0  0  0  0  0  0
  186.2220  174.5210  134.9460 O   0  0  0  0  0  0  0  0  0  0  0  0
  186.2520  175.2230  136.4840 P   0  0  0  0  0  0  0  0  0  0  0  0
  187.7570  174.9400  137.2020 O   0  0  0  0  0  1  0  0  0  0  0  0
  185.1680  174.6040  137.3370 O   0  0  0  0  0  1  0  0  0  0  0  0
  1  4  1  0  0  0  0
  1  7  1  0  0  0  0
  2  1  1  0  0  0  0
  3  2  2  0  0  0  0
  5  6  1  0  0  0  0
  7 14  1  0  0  0  0
  8 13  1  0  0  0  0
  9  8  2  0  0  0  0
  9 15  1  0  0  0  0
 10  7  2  0  0  0  0
 10  8  1  0  0  0  0
 11 15  1  0  0  0  0
 13 12  1  0  0  0  0
 13  6  2  0  0  0  0
 14 16  1  0  0  0  0
 14 12  2  0  0  0  0
 15  5  2  0  0  0  0
 16 17  1  0  0  0  0
 18  2  1  0  0  0  0
 19 18  1  0  0  0  0
 20 19  1  0  0  0  0
 21 22  2  0  0  0  0
 22 20  1  0  0  0  0
 23 22  1  0  0  0  0
 24 26  1  0  0  0  0
 24 23  1  0  0  0  0
 26 28  1  0  0  0  0
 26 25  1  1  0  0  0
 27 28  2  0  0  0  0
 28 29  1  0  0  0  0
 28 30  1  0  0  0  0
M  END
>  <MODEL>
6

>  <REMARK>
 VINA RESULT:      -7.4      1.893      2.559
  Name = 
  10 active torsions:
  status: ('A' for Active; 'I' for Inactive)
    1  A    between atoms: O_2  and  C_25
    2  A    between atoms: N_5  and  C_13
    3  A    between atoms: C_7  and  C_20
    4  A    between atoms: C_7  and  C_23
    5  A    between atoms: P_8  and  C_18
    6  A    between atoms: C_10  and  C_29
    7  A    between atoms: C_18  and  C_23
    8  A    between atoms: C_20  and  C_24
    9  A    between atoms: C_24  and  C_30
   10  A    between atoms: C_29  and  C_30
                            x       y       z     vdW  Elec       q    Type
                         _______ _______ _______ _____ _____    ______ ____

>  <TORSDO>
F 10

$$$$
=
 OpenBabel10232408243D

 30 31  0  0  1  0  0  0  0  0999 V2000
  189.9720  176.4180  143.1820 N   0  0  0  0  0  0  0  0  0  0  0  0
  189.8830  176.9990  141.8680 C   0  0  0  0  0  0  0  0  0  0  0  0
  190.4110  176.4150  140.8830 O   0  0  0  0  0  0  0  0  0  0  0  0
  190.7980  175.2340  143.3820 C   0  0  0  0  0  1  0  0  0  0  0  0
  185.7090  178.7000  147.3950 N   0  0  0  0  0  0  0  0  0  0  0  0
  187.0340  178.4360  147.5540 C   0  0  0  0  0  3  0  0  0  0  0  0
  189.2430  176.9470  144.3020 C   0  0  0  0  0  0  0  0  0  0  0  0
  187.1420  177.7210  145.2460 C   0  0  0  0  0  0  0  0  0  0  0  0
  185.7810  178.0000  145.1090 C   0  0  0  0  0  3  0  0  0  0  0  0
  187.8730  177.2250  144.1680 C   0  0  0  0  0  3  0  0  0  0  0  0
  183.6870  178.7860  146.0850 N   0  0  0  0  0  1  0  0  0  0  0  0
  189.1380  177.6650  146.6260 C   0  0  0  0  0  3  0  0  0  0  0  0
  187.7780  177.9410  146.4830 C   0  0  0  0  0  0  0  0  0  0  0  0
  189.8810  177.1670  145.5400 C   0  0  0  0  0  0  0  0  0  0  0  0
  185.0740  178.4950  146.2090 C   0  0  0  0  0  0  0  0  0  0  0  0
  191.2490  176.9000  145.6700 O   0  0  0  0  0  0  0  0  0  0  0  0
  191.7930  176.1760  146.7650 C   0  0  0  0  0  1  0  0  0  0  0  0
  189.1920  178.3090  141.6390 C   0  0  0  0  0  2  0  0  0  0  0  0
  188.2990  178.2500  140.4100 C   0  0  0  0  0  2  0  0  0  0  0  0
  186.8410  178.4290  140.7980 C   0  0  0  0  0  2  0  0  0  0  0  0
  185.1220  179.4980  139.5910 O   0  0  0  0  0  0  0  0  0  0  0  0
  186.0070  178.6570  139.5820 C   0  0  0  0  0  0  0  0  0  0  0  0
  186.2610  177.8470  138.3550 C   0  0  0  0  0  2  0  0  0  0  0  0
  186.7780  178.7360  137.2320 C   0  0  0  0  0  2  0  0  0  0  0  0
  186.5820  176.9720  135.6030 O   0  0  0  0  0  1  0  0  0  0  0  0
  187.4510  177.9360  136.1210 C   0  0  2  0  0  3  0  0  0  0  0  0
  188.6250  175.8490  137.7010 O   0  0  0  0  0  1  0  0  0  0  0  0
  188.9940  177.1530  136.6890 P   0  0  0  0  0  0  0  0  0  0  0  0
  189.8880  176.6010  135.3640 O   0  0  0  0  0  0  0  0  0  0  0  0
  189.8130  178.1640  137.4580 O   0  0  0  0  0  1  0  0  0  0  0  0
  1  4  1  0  0  0  0
  1  7  1  0  0  0  0
  2  1  1  0  0  0  0
  3  2  2  0  0  0  0
  5  6  1  0  0  0  0
  7 14  1  0  0  0  0
  8 13  1  0  0  0  0
  9  8  2  0  0  0  0
  9 15  1  0  0  0  0
 10  7  2  0  0  0  0
 10  8  1  0  0  0  0
 11 15  1  0  0  0  0
 13 12  1  0  0  0  0
 13  6  2  0  0  0  0
 14 16  1  0  0  0  0
 14 12  2  0  0  0  0
 15  5  2  0  0  0  0
 16 17  1  0  0  0  0
 18  2  1  0  0  0  0
 19 20  1  0  0  0  0
 19 18  1  0  0  0  0
 22 21  2  0  0  0  0
 22 20  1  0  0  0  0
 23 22  1  0  0  0  0
 24 23  1  0  0  0  0
 26 25  1  1  0  0  0
 26 28  1  0  0  0  0
 26 24  1  0  0  0  0
 28 30  1  0  0  0  0
 28 27  1  0  0  0  0
 29 28  2  0  0  0  0
M  END
>  <MODEL>
7

>  <REMARK>
 VINA RESULT:      -7.3      1.769      2.893
  Name = 
  10 active torsions:
  status: ('A' for Active; 'I' for Inactive)
    1  A    between atoms: O_2  and  C_25
    2  A    between atoms: N_5  and  C_13
    3  A    between atoms: C_7  and  C_20
    4  A    between atoms: C_7  and  C_23
    5  A    between atoms: P_8  and  C_18
    6  A    between atoms: C_10  and  C_29
    7  A    between atoms: C_18  and  C_23
    8  A    between atoms: C_20  and  C_24
    9  A    between atoms: C_24  and  C_30
   10  A    between atoms: C_29  and  C_30
                            x       y       z     vdW  Elec       q    Type
                         _______ _______ _______ _____ _____    ______ ____

>  <TORSDO>
F 10

$$$$
=
 OpenBabel10232408243D

 30 31  0  0  1  0  0  0  0  0999 V2000
  189.2280  177.7980  138.3190 N   0  0  0  0  0  0  0  0  0  0  0  0
  188.6350  177.9050  139.6270 C   0  0  0  0  0  0  0  0  0  0  0  0
  187.7740  178.7980  139.8570 O   0  0  0  0  0  0  0  0  0  0  0  0
  188.9340  178.8170  137.3190 C   0  0  0  0  0  1  0  0  0  0  0  0
  193.9450  173.5970  137.2070 N   0  0  0  0  0  0  0  0  0  0  0  0
  192.6090  173.4890  136.9710 C   0  0  0  0  0  3  0  0  0  0  0  0
  190.0760  176.6970  137.9540 C   0  0  0  0  0  0  0  0  0  0  0  0
  192.2970  175.7150  137.8620 C   0  0  0  0  0  0  0  0  0  0  0  0
  193.6710  175.8010  138.0960 C   0  0  0  0  0  3  0  0  0  0  0  0
  191.4580  176.7790  138.1910 C   0  0  0  0  0  3  0  0  0  0  0  0
  195.8890  174.7900  137.9870 N   0  0  0  0  0  1  0  0  0  0  0  0
  190.3860  174.4550  137.0570 C   0  0  0  0  0  3  0  0  0  0  0  0
  191.7580  174.5460  137.2930 C   0  0  0  0  0  0  0  0  0  0  0  0
  189.5350  175.5260  137.3840 C   0  0  0  0  0  0  0  0  0  0  0  0
  194.4870  174.7180  137.7570 C   0  0  0  0  0  0  0  0  0  0  0  0
  188.1590  175.4500  137.1370 O   0  0  0  0  0  0  0  0  0  0  0  0
  187.6130  174.7710  136.0140 C   0  0  0  0  0  1  0  0  0  0  0  0
  189.0340  176.9880  140.7420 C   0  0  0  0  0  2  0  0  0  0  0  0
  188.7590  177.6200  142.0970 C   0  0  0  0  0  2  0  0  0  0  0  0
  187.8790  176.7130  142.9420 C   0  0  0  0  0  2  0  0  0  0  0  0
  186.0790  178.2170  143.1690 O   0  0  0  0  0  0  0  0  0  0  0  0
  186.9110  177.5250  143.7350 C   0  0  0  0  0  0  0  0  0  0  0  0
  186.9680  177.4880  145.2250 C   0  0  0  0  0  2  0  0  0  0  0  0
  188.3000  178.0380  145.7170 C   0  0  0  0  0  2  0  0  0  0  0  0
  189.3960  176.7850  147.4590 O   0  0  0  0  0  1  0  0  0  0  0  0
  189.2890  176.9320  146.0740 C   0  0  2  0  0  3  0  0  0  0  0  0
  191.2640  176.0270  144.2000 O   0  0  0  0  0  0  0  0  0  0  0  0
  190.9300  177.2280  145.3420 P   0  0  0  0  0  0  0  0  0  0  0  0
  190.9650  178.7430  144.5900 O   0  0  0  0  0  1  0  0  0  0  0  0
  191.9780  177.1870  146.4310 O   0  0  0  0  0  1  0  0  0  0  0  0
  1  2  1  0  0  0  0
  2  3  2  0  0  0  0
  2 18  1  0  0  0  0
  4  1  1  0  0  0  0
  5 15  1  0  0  0  0
  6  5  2  0  0  0  0
  6 13  1  0  0  0  0
  7 10  1  0  0  0  0
  7  1  1  0  0  0  0
  8  9  1  0  0  0  0
  8 10  2  0  0  0  0
 12 13  2  0  0  0  0
 12 14  1  0  0  0  0
 13  8  1  0  0  0  0
 14  7  2  0  0  0  0
 15 11  1  0  0  0  0
 15  9  2  0  0  0  0
 16 14  1  0  0  0  0
 17 16  1  0  0  0  0
 18 19  1  0  0  0  0
 19 20  1  0  0  0  0
 20 22  1  0  0  0  0
 21 22  2  0  0  0  0
 22 23  1  0  0  0  0
 23 24  1  0  0  0  0
 24 26  1  0  0  0  0
 26 25  1  1  0  0  0
 27 28  2  0  0  0  0
 28 26  1  0  0  0  0
 28 30  1  0  0  0  0
 29 28  1  0  0  0  0
M  END
>  <MODEL>
8

>  <REMARK>
 VINA RESULT:      -7.2      4.045      9.044
  Name = 
  10 active torsions:
  status: ('A' for Active; 'I' for Inactive)
    1  A    between atoms: O_2  and  C_25
    2  A    between atoms: N_5  and  C_13
    3  A    between atoms: C_7  and  C_20
    4  A    between atoms: C_7  and  C_23
    5  A    between atoms: P_8  and  C_18
    6  A    between atoms: C_10  and  C_29
    7  A    between atoms: C_18  and  C_23
    8  A    between atoms: C_20  and  C_24
    9  A    between atoms: C_24  and  C_30
   10  A    between atoms: C_29  and  C_30
                            x       y       z     vdW  Elec       q    Type
                         _______ _______ _______ _____ _____    ______ ____

>  <TORSDO>
F 10

$$$$
=
 OpenBabel10232408243D

 30 31  0  0  1  0  0  0  0  0999 V2000
  183.3540  178.9410  143.6350 N   0  0  0  0  0  0  0  0  0  0  0  0
  184.0370  178.8380  144.8990 C   0  0  0  0  0  0  0  0  0  0  0  0
  183.3760  178.7890  145.9710 O   0  0  0  0  0  0  0  0  0  0  0  0
  181.9090  179.1360  143.6220 C   0  0  0  0  0  1  0  0  0  0  0  0
  187.4860  178.3150  138.7710 N   0  0  0  0  0  0  0  0  0  0  0  0
  186.1290  178.4120  138.7530 C   0  0  0  0  0  3  0  0  0  0  0  0
  184.0450  178.8240  142.3810 C   0  0  0  0  0  0  0  0  0  0  0  0
  186.1350  178.5840  141.1660 C   0  0  0  0  0  0  0  0  0  0  0  0
  187.5280  178.4820  141.1570 C   0  0  0  0  0  3  0  0  0  0  0  0
  185.4450  178.7180  142.3690 C   0  0  0  0  0  3  0  0  0  0  0  0
  189.6100  178.2440  139.9080 N   0  0  0  0  0  1  0  0  0  0  0  0
  184.0340  178.6500  139.9530 C   0  0  0  0  0  3  0  0  0  0  0  0
  185.4260  178.5490  139.9510 C   0  0  0  0  0  0  0  0  0  0  0  0
  183.3330  178.7890  141.1640 C   0  0  0  0  0  0  0  0  0  0  0  0
  188.1920  178.3470  139.9340 C   0  0  0  0  0  0  0  0  0  0  0  0
  181.9380  178.9060  141.1760 O   0  0  0  0  0  0  0  0  0  0  0  0
  181.0910  178.1210  140.3470 C   0  0  0  0  0  1  0  0  0  0  0  0
  185.5330  178.8110  144.9760 C   0  0  0  0  0  2  0  0  0  0  0  0
  186.0140  177.7170  145.9160 C   0  0  0  0  0  2  0  0  0  0  0  0
  186.8830  178.3020  147.0170 C   0  0  0  0  0  2  0  0  0  0  0  0
  188.9500  177.7160  147.9840 O   0  0  0  0  0  0  0  0  0  0  0  0
  188.2370  177.6770  146.9930 C   0  0  0  0  0  0  0  0  0  0  0  0
  188.7140  177.0040  145.7510 C   0  0  0  0  0  2  0  0  0  0  0  0
  189.1900  178.0380  144.7390 C   0  0  0  0  0  2  0  0  0  0  0  0
  191.1910  179.2140  144.0950 O   0  0  0  0  0  1  0  0  0  0  0  0
  190.6970  177.9750  144.5090 C   0  0  2  0  0  3  0  0  0  0  0  0
  191.9800  175.4430  144.0940 O   0  0  0  0  0  1  0  0  0  0  0  0
  191.1450  176.6840  143.3060 P   0  0  0  0  0  0  0  0  0  0  0  0
  189.7510  176.0530  142.5850 O   0  0  0  0  0  1  0  0  0  0  0  0
  192.0320  177.2820  142.2380 O   0  0  0  0  0  0  0  0  0  0  0  0
  1  2  1  0  0  0  0
  2 18  1  0  0  0  0
  2  3  2  0  0  0  0
  4  1  1  0  0  0  0
  5 15  1  0  0  0  0
  6  5  2  0  0  0  0
  6 13  1  0  0  0  0
  7  1  1  0  0  0  0
  8 10  2  0  0  0  0
  9  8  1  0  0  0  0
 10  7  1  0  0  0  0
 11 15  1  0  0  0  0
 12 14  1  0  0  0  0
 13 12  2  0  0  0  0
 13  8  1  0  0  0  0
 14 16  1  0  0  0  0
 14  7  2  0  0  0  0
 15  9  2  0  0  0  0
 17 16  1  0  0  0  0
 18 19  1  0  0  0  0
 19 20  1  0  0  0  0
 22 20  1  0  0  0  0
 22 21  2  0  0  0  0
 23 22  1  0  0  0  0
 24 23  1  0  0  0  0
 26 25  1  6  0  0  0
 26 24  1  0  0  0  0
 28 27  1  0  0  0  0
 28 26  1  0  0  0  0
 29 28  1  0  0  0  0
 30 28  2  0  0  0  0
M  END
>  <MODEL>
9

>  <REMARK>
 VINA RESULT:      -7.1      2.980      8.158
  Name = 
  10 active torsions:
  status: ('A' for Active; 'I' for Inactive)
    1  A    between atoms: O_2  and  C_25
    2  A    between atoms: N_5  and  C_13
    3  A    between atoms: C_7  and  C_20
    4  A    between atoms: C_7  and  C_23
    5  A    between atoms: P_8  and  C_18
    6  A    between atoms: C_10  and  C_29
    7  A    between atoms: C_18  and  C_23
    8  A    between atoms: C_20  and  C_24
    9  A    between atoms: C_24  and  C_30
   10  A    between atoms: C_29  and  C_30
                            x       y       z     vdW  Elec       q    Type
                         _______ _______ _______ _____ _____    ______ ____

>  <TORSDO>
F 10

$$$$
