=
 OpenBabel10222422093D

 47 49  0  0  1  0  0  0  0  0999 V2000
  192.9820  175.4890  137.1440 N   0  0  0  0  0  2  0  0  0  0  0  0
  190.8480  175.4560  138.4020 N   0  0  0  0  0  2  0  0  0  0  0  0
  191.8260  173.5110  137.5930 O   0  0  0  0  0  0  0  0  0  0  0  0
  191.8880  174.7630  137.7120 C   0  0  0  0  0  0  0  0  0  0  0  0
  189.4830  177.9340  140.9170 C   0  0  0  0  0  0  0  0  0  0  0  0
  191.5640  177.2550  139.8440 C   0  0  0  0  0  0  0  0  0  0  0  0
  190.8610  176.9020  138.5610 C   0  0  2  0  0  3  0  0  0  0  0  0
  188.8190  177.8650  139.6040 C   0  0  0  0  0  3  0  0  0  0  0  0
  192.8140  177.1490  139.9230 O   0  0  0  0  0  0  0  0  0  0  0  0
  190.7900  177.6750  141.0200 C   0  0  0  0  0  3  0  0  0  0  0  0
  189.4420  177.4310  138.5020 C   0  0  0  0  0  0  0  0  0  0  0  0
  188.7120  178.3720  142.0450 N   0  0  0  0  0  2  0  0  0  0  0  0
  188.5830  176.3580  143.2470 O   0  0  0  0  0  0  0  0  0  0  0  0
  188.3410  177.5930  143.1900 C   0  0  0  0  0  0  0  0  0  0  0  0
  187.6620  178.2600  144.3410 C   0  0  0  0  0  2  0  0  0  0  0  0
  185.0320  178.8420  146.0710 C   0  0  0  0  0  2  0  0  0  0  0  0
  186.5790  177.3560  144.9320 C   0  0  2  0  0  3  0  0  0  0  0  0
  185.1870  177.9690  144.8460 C   0  0  2  0  0  3  0  0  0  0  0  0
  185.9310  178.2190  147.1260 C   0  0  0  0  0  2  0  0  0  0  0  0
  186.8170  177.1990  146.4210 C   0  0  0  0  0  2  0  0  0  0  0  0
  184.8890  178.6870  143.5630 C   0  0  0  0  0  0  0  0  0  0  0  0
  184.6710  177.9820  142.3880 O   0  0  0  0  0  0  0  0  0  0  0  0
  184.7690  179.9400  143.5650 O   0  0  0  0  0  1  0  0  0  0  0  0
  188.7380  177.4770  137.2940 O   0  0  0  0  0  0  0  0  0  0  0  0
  187.4710  178.1080  137.1610 C   0  0  1  0  0  3  0  0  0  0  0  0
  187.3500  178.6640  135.8880 O   0  0  0  0  0  1  0  0  0  0  0  0
  186.3780  177.0810  137.3580 C   0  0  0  0  0  1  0  0  0  0  0  0
  193.9410  174.8610  136.2490 C   0  0  1  0  0  3  0  0  0  0  0  0
  194.0170  176.6330  134.3460 C   0  0  0  0  0  1  0  0  0  0  0  0
  197.1250  176.3440  135.9870 O   0  0  0  0  0  0  0  0  0  0  0  0
  195.9310  176.1300  135.7360 C   0  0  0  0  0  0  0  0  0  0  0  0
  194.6740  175.9040  135.4710 C   0  0  0  0  0  0  0  0  0  0  0  0
  194.9080  173.9970  137.0390 C   0  0  0  0  0  2  0  0  0  0  0  0
  196.2000  172.7310  135.4000 N   0  0  0  0  0  2  0  0  0  0  0  0
  197.3650  172.0930  136.0130 C   0  0  2  0  0  3  0  0  0  0  0  0
  196.9710  171.5650  137.3750 C   0  0  1  0  0  3  0  0  0  0  0  0
  195.1000  172.6470  136.3570 C   0  0  1  0  0  3  0  0  0  0  0  0
  195.4630  171.6090  137.3900 C   0  0  0  0  0  2  0  0  0  0  0  0
  199.6620  172.5850  135.4710 O   0  0  0  0  0  1  0  0  0  0  0  0
  198.5350  173.0740  136.1340 C   0  0  2  0  0  3  0  0  0  0  0  0
  198.8780  173.3440  137.5890 C   0  0  0  0  0  2  0  0  0  0  0  0
  198.0720  174.3660  138.0900 O   0  0  0  0  0  0  0  0  0  0  0  0
  198.7810  174.8720  139.1770 C   0  0  0  0  0  2  0  0  0  0  0  0
  198.3710  175.0590  141.5190 O   0  0  0  0  0  1  0  0  0  0  0  0
  197.8150  175.3030  140.2630 C   0  0  0  0  0  2  0  0  0  0  0  0
  197.4640  170.1390  137.5460 C   0  0  0  0  0  2  0  0  0  0  0  0
  197.8230  169.6140  136.3110 O   0  0  0  0  0  1  0  0  0  0  0  0
  1  4  1  0  0  0  0
  3  4  2  0  0  0  0
  4  2  1  0  0  0  0
  5 10  2  0  0  0  0
  5 12  1  0  0  0  0
  6  9  2  0  0  0  0
  6 10  1  0  0  0  0
  7  2  1  1  0  0  0
  7  6  1  0  0  0  0
  8  5  1  0  0  0  0
 11  7  1  0  0  0  0
 11  8  2  0  0  0  0
 12 14  1  0  0  0  0
 14 13  2  0  0  0  0
 14 15  1  0  0  0  0
 16 19  1  0  0  0  0
 17 15  1  1  0  0  0
 17 20  1  0  0  0  0
 18 21  1  6  0  0  0
 18 17  1  0  0  0  0
 18 16  1  0  0  0  0
 20 19  1  0  0  0  0
 21 23  1  0  0  0  0
 22 21  2  0  0  0  0
 24 11  1  0  0  0  0
 25 24  1  0  0  0  0
 25 27  1  6  0  0  0
 26 25  1  0  0  0  0
 28 33  1  1  0  0  0
 28  1  1  0  0  0  0
 29 32  1  0  0  0  0
 31 30  2  0  0  0  0
 32 31  2  0  0  0  0
 32 28  1  0  0  0  0
 34 35  1  0  0  0  0
 34 37  1  0  0  0  0
 35 40  1  1  0  0  0
 35 36  1  0  0  0  0
 36 38  1  0  0  0  0
 36 46  1  6  0  0  0
 37 33  1  1  0  0  0
 37 38  1  0  0  0  0
 40 39  1  6  0  0  0
 40 41  1  0  0  0  0
 41 42  1  0  0  0  0
 42 43  1  0  0  0  0
 43 45  1  0  0  0  0
 45 44  1  0  0  0  0
 47 46  1  0  0  0  0
M  END
>  <MODEL>
1

>  <REMARK>
 VINA RESULT:      -6.7      0.000      0.000
  Name = 
  17 active torsions:
  status: ('A' for Active; 'I' for Inactive)
    1  A    between atoms: C_1  and  O_24
    2  A    between atoms: N_3  and  C_8
    3  A    between atoms: N_5  and  C_12
    4  A    between atoms: C_6  and  C_37
    5  A    between atoms: N_10  and  C_23
    6  A    between atoms: C_11  and  C_12
    7  A    between atoms: C_11  and  C_32
    8  A    between atoms: C_12  and  C_31
    9  A    between atoms: C_17  and  C_18
   10  A    between atoms: C_17  and  C_19
   11  A    between atoms: C_19  and  O_41
   12  A    between atoms: C_21  and  C_34
   13  A    between atoms: O_24  and  C_44
   14  A    between atoms: C_29  and  C_45
   15  A    between atoms: C_30  and  C_45
   16  A    between atoms: C_35  and  O_41
   17  A    between atoms: C_35  and  C_47
                            x       y       z     vdW  Elec       q    Type
                         _______ _______ _______ _____ _____    ______ ____

>  <TORSDO>
F 17

$$$$
=
 OpenBabel10222422093D

 47 49  0  0  1  0  0  0  0  0999 V2000
  192.9960  175.4400  137.0730 N   0  0  0  0  0  2  0  0  0  0  0  0
  190.9750  175.3750  138.5030 N   0  0  0  0  0  2  0  0  0  0  0  0
  191.8260  173.4640  137.4940 O   0  0  0  0  0  0  0  0  0  0  0  0
  191.9330  174.7040  137.6860 C   0  0  0  0  0  0  0  0  0  0  0  0
  189.9820  177.7050  141.3170 C   0  0  0  0  0  0  0  0  0  0  0  0
  191.9010  177.0640  139.9590 C   0  0  0  0  0  0  0  0  0  0  0  0
  191.0420  176.8070  138.7510 C   0  0  2  0  0  3  0  0  0  0  0  0
  189.1630  177.7330  140.0920 C   0  0  0  0  0  3  0  0  0  0  0  0
  193.1490  176.9320  139.8800 O   0  0  0  0  0  0  0  0  0  0  0  0
  191.2850  177.4180  141.2440 C   0  0  0  0  0  3  0  0  0  0  0  0
  189.6390  177.3620  138.8980 C   0  0  0  0  0  0  0  0  0  0  0  0
  189.3620  178.0810  142.5550 N   0  0  0  0  0  2  0  0  0  0  0  0
  190.5310  176.6750  144.0300 O   0  0  0  0  0  0  0  0  0  0  0  0
  189.6940  177.6020  143.8650 C   0  0  0  0  0  0  0  0  0  0  0  0
  189.0400  178.2190  145.0580 C   0  0  0  0  0  2  0  0  0  0  0  0
  187.4050  178.3450  147.8070 C   0  0  0  0  0  2  0  0  0  0  0  0
  188.3860  177.1490  145.9340 C   0  0  2  0  0  3  0  0  0  0  0  0
  187.0610  177.6060  146.5320 C   0  0  2  0  0  3  0  0  0  0  0  0
  188.7120  177.7370  148.2850 C   0  0  0  0  0  2  0  0  0  0  0  0
  189.2620  176.8890  147.1430 C   0  0  0  0  0  2  0  0  0  0  0  0
  186.1860  178.3970  145.6050 C   0  0  0  0  0  0  0  0  0  0  0  0
  186.0060  178.0000  144.2870 O   0  0  0  0  0  0  0  0  0  0  0  0
  185.5550  179.3940  146.0430 O   0  0  0  0  0  1  0  0  0  0  0  0
  188.7980  177.4990  137.7890 O   0  0  0  0  0  0  0  0  0  0  0  0
  187.8470  178.5490  137.6650 C   0  0  1  0  0  3  0  0  0  0  0  0
  188.4750  179.7020  137.1940 O   0  0  0  0  0  1  0  0  0  0  0  0
  186.7710  178.1380  136.6850 C   0  0  0  0  0  1  0  0  0  0  0  0
  193.8580  174.8490  136.0620 C   0  0  1  0  0  3  0  0  0  0  0  0
  194.7010  177.0850  135.0340 C   0  0  0  0  0  1  0  0  0  0  0  0
  197.3690  175.1010  136.2110 O   0  0  0  0  0  0  0  0  0  0  0  0
  196.2000  175.4360  135.9740 C   0  0  0  0  0  0  0  0  0  0  0  0
  194.9690  175.7890  135.7240 C   0  0  0  0  0  0  0  0  0  0  0  0
  194.4060  173.5190  136.5510 C   0  0  0  0  0  2  0  0  0  0  0  0
  195.6870  171.7200  135.5120 N   0  0  0  0  0  2  0  0  0  0  0  0
  195.3210  170.4150  136.0620 C   0  0  2  0  0  3  0  0  0  0  0  0
  193.8230  170.3780  136.2750 C   0  0  1  0  0  3  0  0  0  0  0  0
  194.4630  172.5110  135.4100 C   0  0  1  0  0  3  0  0  0  0  0  0
  193.2910  171.5670  135.5130 C   0  0  0  0  0  2  0  0  0  0  0  0
  195.3420  170.6530  138.4610 O   0  0  0  0  0  1  0  0  0  0  0  0
  196.0580  170.1410  137.3770 C   0  0  2  0  0  3  0  0  0  0  0  0
  197.4530  170.7420  137.3610 C   0  0  0  0  0  2  0  0  0  0  0  0
  198.3140  169.9330  136.6210 O   0  0  0  0  0  0  0  0  0  0  0  0
  198.4530  168.7750  137.3840 C   0  0  0  0  0  2  0  0  0  0  0  0
  200.2320  169.1910  138.9160 O   0  0  0  0  0  1  0  0  0  0  0  0
  199.9140  168.5520  137.7180 C   0  0  0  0  0  2  0  0  0  0  0  0
  193.2480  169.0870  135.7190 C   0  0  0  0  0  2  0  0  0  0  0  0
  192.1390  169.3660  134.9300 O   0  0  0  0  0  1  0  0  0  0  0  0
  1  4  1  0  0  0  0
  3  4  2  0  0  0  0
  4  2  1  0  0  0  0
  5 12  1  0  0  0  0
  6 10  1  0  0  0  0
  7  2  1  1  0  0  0
  7 11  1  0  0  0  0
  7  6  1  0  0  0  0
  8  5  1  0  0  0  0
  9  6  2  0  0  0  0
 10  5  2  0  0  0  0
 11  8  2  0  0  0  0
 12 14  1  0  0  0  0
 14 13  2  0  0  0  0
 14 15  1  0  0  0  0
 16 19  1  0  0  0  0
 17 15  1  6  0  0  0
 17 18  1  0  0  0  0
 17 20  1  0  0  0  0
 18 21  1  6  0  0  0
 18 16  1  0  0  0  0
 20 19  1  0  0  0  0
 21 23  1  0  0  0  0
 22 21  2  0  0  0  0
 24 11  1  0  0  0  0
 25 27  1  6  0  0  0
 25 24  1  0  0  0  0
 26 25  1  0  0  0  0
 28 33  1  1  0  0  0
 28  1  1  0  0  0  0
 29 32  1  0  0  0  0
 31 30  2  0  0  0  0
 32 31  2  0  0  0  0
 32 28  1  0  0  0  0
 34 35  1  0  0  0  0
 35 36  1  0  0  0  0
 35 40  1  1  0  0  0
 36 46  1  6  0  0  0
 37 34  1  0  0  0  0
 37 38  1  0  0  0  0
 37 33  1  1  0  0  0
 38 36  1  0  0  0  0
 40 39  1  1  0  0  0
 41 40  1  0  0  0  0
 42 41  1  0  0  0  0
 42 43  1  0  0  0  0
 43 45  1  0  0  0  0
 45 44  1  0  0  0  0
 47 46  1  0  0  0  0
M  END
>  <MODEL>
2

>  <REMARK>
 VINA RESULT:      -6.4      1.828      2.857
  Name = 
  17 active torsions:
  status: ('A' for Active; 'I' for Inactive)
    1  A    between atoms: C_1  and  O_24
    2  A    between atoms: N_3  and  C_8
    3  A    between atoms: N_5  and  C_12
    4  A    between atoms: C_6  and  C_37
    5  A    between atoms: N_10  and  C_23
    6  A    between atoms: C_11  and  C_12
    7  A    between atoms: C_11  and  C_32
    8  A    between atoms: C_12  and  C_31
    9  A    between atoms: C_17  and  C_18
   10  A    between atoms: C_17  and  C_19
   11  A    between atoms: C_19  and  O_41
   12  A    between atoms: C_21  and  C_34
   13  A    between atoms: O_24  and  C_44
   14  A    between atoms: C_29  and  C_45
   15  A    between atoms: C_30  and  C_45
   16  A    between atoms: C_35  and  O_41
   17  A    between atoms: C_35  and  C_47
                            x       y       z     vdW  Elec       q    Type
                         _______ _______ _______ _____ _____    ______ ____

>  <TORSDO>
F 17

$$$$
=
 OpenBabel10222422093D

 47 49  0  0  1  0  0  0  0  0999 V2000
  182.6780  177.6110  137.6220 N   0  0  0  0  0  2  0  0  0  0  0  0
  182.6270  176.9950  140.0210 N   0  0  0  0  0  2  0  0  0  0  0  0
  182.3040  175.4220  138.3420 O   0  0  0  0  0  0  0  0  0  0  0  0
  182.5320  176.6230  138.6460 C   0  0  0  0  0  0  0  0  0  0  0  0
  184.7720  178.7120  142.6240 C   0  0  0  0  0  0  0  0  0  0  0  0
  184.3340  178.6890  140.2270 C   0  0  0  0  0  0  0  0  0  0  0  0
  182.8780  178.3680  140.4310 C   0  0  2  0  0  3  0  0  0  0  0  0
  183.3170  178.6780  142.8590 C   0  0  0  0  0  3  0  0  0  0  0  0
  184.7810  178.8640  139.0640 O   0  0  0  0  0  0  0  0  0  0  0  0
  185.2470  178.7500  141.3760 C   0  0  0  0  0  3  0  0  0  0  0  0
  182.4290  178.5590  141.8660 C   0  0  0  0  0  0  0  0  0  0  0  0
  185.6410  178.7980  143.7630 N   0  0  0  0  0  2  0  0  0  0  0  0
  187.1550  177.0800  143.2400 O   0  0  0  0  0  0  0  0  0  0  0  0
  186.8250  178.0270  144.0030 C   0  0  0  0  0  0  0  0  0  0  0  0
  187.6900  178.3570  145.1750 C   0  0  0  0  0  2  0  0  0  0  0  0
  188.0640  178.4230  148.3530 C   0  0  0  0  0  2  0  0  0  0  0  0
  187.5620  177.2910  146.2630 C   0  0  2  0  0  3  0  0  0  0  0  0
  186.9340  177.8280  147.5440 C   0  0  2  0  0  3  0  0  0  0  0  0
  189.3060  177.6510  147.9400 C   0  0  0  0  0  2  0  0  0  0  0  0
  188.9460  176.8480  146.6940 C   0  0  0  0  0  2  0  0  0  0  0  0
  185.7880  178.7740  147.3390 C   0  0  0  0  0  0  0  0  0  0  0  0
  185.9480  180.1380  147.5420 O   0  0  0  0  0  1  0  0  0  0  0  0
  184.6880  178.3370  146.9130 O   0  0  0  0  0  0  0  0  0  0  0  0
  181.0710  178.6110  142.1950 O   0  0  0  0  0  0  0  0  0  0  0  0
  180.2070  179.6480  141.7490 C   0  0  1  0  0  3  0  0  0  0  0  0
  180.2260  180.7050  142.6590 O   0  0  0  0  0  1  0  0  0  0  0  0
  180.6800  180.1490  140.4020 C   0  0  0  0  0  1  0  0  0  0  0  0
  182.3720  177.3270  136.2290 C   0  0  1  0  0  3  0  0  0  0  0  0
  180.2720  177.6430  134.7250 C   0  0  0  0  0  1  0  0  0  0  0  0
  180.8570  180.4620  136.7630 O   0  0  0  0  0  0  0  0  0  0  0  0
  181.0230  179.3300  136.2870 C   0  0  0  0  0  0  0  0  0  0  0  0
  181.1980  178.1390  135.7860 C   0  0  0  0  0  0  0  0  0  0  0  0
  183.5830  177.6100  135.3570 C   0  0  0  0  0  2  0  0  0  0  0  0
  185.3440  176.2560  134.3460 N   0  0  0  0  0  2  0  0  0  0  0  0
  185.7450  175.1560  135.2240 C   0  0  2  0  0  3  0  0  0  0  0  0
  184.5100  174.5870  135.8860 C   0  0  1  0  0  3  0  0  0  0  0  0
  183.8970  176.4110  134.4710 C   0  0  1  0  0  3  0  0  0  0  0  0
  183.3500  175.1570  135.1080 C   0  0  0  0  0  2  0  0  0  0  0  0
  186.1230  176.4100  137.2480 O   0  0  0  0  0  1  0  0  0  0  0  0
  186.7520  175.6280  136.2770 C   0  0  2  0  0  3  0  0  0  0  0  0
  187.8830  176.4180  135.6420 C   0  0  0  0  0  2  0  0  0  0  0  0
  187.8030  177.7580  136.0210 O   0  0  0  0  0  0  0  0  0  0  0  0
  189.1070  178.1040  136.3690 C   0  0  0  0  0  2  0  0  0  0  0  0
  188.7360  178.9910  138.5510 O   0  0  0  0  0  1  0  0  0  0  0  0
  189.3060  177.9220  137.8610 C   0  0  0  0  0  2  0  0  0  0  0  0
  184.5200  173.0710  135.7940 C   0  0  0  0  0  2  0  0  0  0  0  0
  183.6250  172.6520  134.8180 O   0  0  0  0  0  1  0  0  0  0  0  0
  1  4  1  0  0  0  0
  3  4  2  0  0  0  0
  4  2  1  0  0  0  0
  5  8  1  0  0  0  0
  5 12  1  0  0  0  0
  6  7  1  0  0  0  0
  6 10  1  0  0  0  0
  7  2  1  1  0  0  0
  7 11  1  0  0  0  0
  9  6  2  0  0  0  0
 10  5  2  0  0  0  0
 11 24  1  0  0  0  0
 11  8  2  0  0  0  0
 12 14  1  0  0  0  0
 13 14  2  0  0  0  0
 14 15  1  0  0  0  0
 17 15  1  6  0  0  0
 17 20  1  0  0  0  0
 17 18  1  0  0  0  0
 18 21  1  6  0  0  0
 18 16  1  0  0  0  0
 19 16  1  0  0  0  0
 20 19  1  0  0  0  0
 21 22  1  0  0  0  0
 23 21  2  0  0  0  0
 25 27  1  6  0  0  0
 25 24  1  0  0  0  0
 25 26  1  0  0  0  0
 28 33  1  6  0  0  0
 28  1  1  0  0  0  0
 29 32  1  0  0  0  0
 31 30  2  0  0  0  0
 32 28  1  0  0  0  0
 32 31  2  0  0  0  0
 34 37  1  0  0  0  0
 34 35  1  0  0  0  0
 35 36  1  0  0  0  0
 35 40  1  1  0  0  0
 36 46  1  6  0  0  0
 37 38  1  0  0  0  0
 37 33  1  1  0  0  0
 38 36  1  0  0  0  0
 40 39  1  1  0  0  0
 41 42  1  0  0  0  0
 41 40  1  0  0  0  0
 42 43  1  0  0  0  0
 43 45  1  0  0  0  0
 45 44  1  0  0  0  0
 47 46  1  0  0  0  0
M  END
>  <MODEL>
3

>  <REMARK>
 VINA RESULT:      -6.3      6.753      9.671
  Name = 
  17 active torsions:
  status: ('A' for Active; 'I' for Inactive)
    1  A    between atoms: C_1  and  O_24
    2  A    between atoms: N_3  and  C_8
    3  A    between atoms: N_5  and  C_12
    4  A    between atoms: C_6  and  C_37
    5  A    between atoms: N_10  and  C_23
    6  A    between atoms: C_11  and  C_12
    7  A    between atoms: C_11  and  C_32
    8  A    between atoms: C_12  and  C_31
    9  A    between atoms: C_17  and  C_18
   10  A    between atoms: C_17  and  C_19
   11  A    between atoms: C_19  and  O_41
   12  A    between atoms: C_21  and  C_34
   13  A    between atoms: O_24  and  C_44
   14  A    between atoms: C_29  and  C_45
   15  A    between atoms: C_30  and  C_45
   16  A    between atoms: C_35  and  O_41
   17  A    between atoms: C_35  and  C_47
                            x       y       z     vdW  Elec       q    Type
                         _______ _______ _______ _____ _____    ______ ____

>  <TORSDO>
F 17

$$$$
=
 OpenBabel10222422093D

 47 49  0  0  1  0  0  0  0  0999 V2000
  182.9340  177.5100  137.5080 N   0  0  0  0  0  2  0  0  0  0  0  0
  183.0240  176.9140  139.9100 N   0  0  0  0  0  2  0  0  0  0  0  0
  182.5880  175.3310  138.2680 O   0  0  0  0  0  0  0  0  0  0  0  0
  182.8440  176.5320  138.5470 C   0  0  0  0  0  0  0  0  0  0  0  0
  185.2570  178.6300  142.4390 C   0  0  0  0  0  0  0  0  0  0  0  0
  184.7670  178.5780  140.0520 C   0  0  0  0  0  0  0  0  0  0  0  0
  183.3100  178.2880  140.2920 C   0  0  2  0  0  3  0  0  0  0  0  0
  183.8080  178.6280  142.7060 C   0  0  0  0  0  3  0  0  0  0  0  0
  185.1920  178.7260  138.8780 O   0  0  0  0  0  0  0  0  0  0  0  0
  185.7060  178.6390  141.1810 C   0  0  0  0  0  3  0  0  0  0  0  0
  182.8960  178.5100  141.7340 C   0  0  0  0  0  0  0  0  0  0  0  0
  186.1520  178.7170  143.5580 N   0  0  0  0  0  2  0  0  0  0  0  0
  186.8790  176.4850  143.6620 O   0  0  0  0  0  0  0  0  0  0  0  0
  186.9700  177.6670  144.0900 C   0  0  0  0  0  0  0  0  0  0  0  0
  187.9550  177.9800  145.1680 C   0  0  0  0  0  2  0  0  0  0  0  0
  190.9050  177.8140  146.3990 C   0  0  0  0  0  2  0  0  0  0  0  0
  188.9480  176.8310  145.3490 C   0  0  2  0  0  3  0  0  0  0  0  0
  189.7160  176.9160  146.6620 C   0  0  2  0  0  3  0  0  0  0  0  0
  191.2090  177.6580  144.9190 C   0  0  0  0  0  2  0  0  0  0  0  0
  190.0260  176.9310  144.2880 C   0  0  0  0  0  2  0  0  0  0  0  0
  188.9000  177.3430  147.8470 C   0  0  0  0  0  0  0  0  0  0  0  0
  189.1950  178.5170  148.5260 O   0  0  0  0  0  1  0  0  0  0  0  0
  187.8970  176.6640  148.1880 O   0  0  0  0  0  0  0  0  0  0  0  0
  181.5460  178.5940  142.0910 O   0  0  0  0  0  0  0  0  0  0  0  0
  181.1020  179.2170  143.2900 C   0  0  1  0  0  3  0  0  0  0  0  0
  180.4140  180.3910  142.9860 O   0  0  0  0  0  1  0  0  0  0  0  0
  180.1740  178.2780  144.0280 C   0  0  0  0  0  1  0  0  0  0  0  0
  182.5430  177.2180  136.1380 C   0  0  1  0  0  3  0  0  0  0  0  0
  179.9960  176.7190  135.9560 C   0  0  0  0  0  1  0  0  0  0  0  0
  180.7200  180.0970  135.2440 O   0  0  0  0  0  0  0  0  0  0  0  0
  180.9250  178.9170  135.5620 C   0  0  0  0  0  0  0  0  0  0  0  0
  181.1410  177.6760  135.8970 C   0  0  0  0  0  0  0  0  0  0  0  0
  183.5020  177.8810  135.1650 C   0  0  0  0  0  2  0  0  0  0  0  0
  185.6810  177.1050  134.3880 N   0  0  0  0  0  2  0  0  0  0  0  0
  186.2810  176.1610  135.3310 C   0  0  2  0  0  3  0  0  0  0  0  0
  185.1970  175.2520  135.8670 C   0  0  1  0  0  3  0  0  0  0  0  0
  184.2470  176.8320  134.3480 C   0  0  1  0  0  3  0  0  0  0  0  0
  184.0170  175.4680  134.9510 C   0  0  0  0  0  2  0  0  0  0  0  0
  187.0530  178.2650  136.2190 O   0  0  0  0  0  1  0  0  0  0  0  0
  186.9830  176.8950  136.4780 C   0  0  2  0  0  3  0  0  0  0  0  0
  188.3820  176.3490  136.7050 C   0  0  0  0  0  2  0  0  0  0  0  0
  189.1380  177.2580  137.4440 O   0  0  0  0  0  0  0  0  0  0  0  0
  189.6360  176.5160  138.5130 C   0  0  0  0  0  2  0  0  0  0  0  0
  189.2890  177.8470  140.4600 O   0  0  0  0  0  1  0  0  0  0  0  0
  190.2550  177.4450  139.5390 C   0  0  0  0  0  2  0  0  0  0  0  0
  185.6550  173.8050  135.8130 C   0  0  0  0  0  2  0  0  0  0  0  0
  186.4860  173.5340  136.8920 O   0  0  0  0  0  1  0  0  0  0  0  0
  1  4  1  0  0  0  0
  3  4  2  0  0  0  0
  4  2  1  0  0  0  0
  5  8  1  0  0  0  0
  5 12  1  0  0  0  0
  6  7  1  0  0  0  0
  6 10  1  0  0  0  0
  7  2  1  1  0  0  0
  7 11  1  0  0  0  0
  9  6  2  0  0  0  0
 10  5  2  0  0  0  0
 11 24  1  0  0  0  0
 11  8  2  0  0  0  0
 12 14  1  0  0  0  0
 13 14  2  0  0  0  0
 14 15  1  0  0  0  0
 16 18  1  0  0  0  0
 17 15  1  6  0  0  0
 17 18  1  0  0  0  0
 18 21  1  1  0  0  0
 19 16  1  0  0  0  0
 20 19  1  0  0  0  0
 20 17  1  0  0  0  0
 21 23  2  0  0  0  0
 21 22  1  0  0  0  0
 24 25  1  0  0  0  0
 25 27  1  6  0  0  0
 26 25  1  0  0  0  0
 28 33  1  6  0  0  0
 28  1  1  0  0  0  0
 30 31  2  0  0  0  0
 31 32  2  0  0  0  0
 32 29  1  0  0  0  0
 32 28  1  0  0  0  0
 34 35  1  0  0  0  0
 35 36  1  0  0  0  0
 35 40  1  1  0  0  0
 36 46  1  6  0  0  0
 37 34  1  0  0  0  0
 37 38  1  0  0  0  0
 37 33  1  1  0  0  0
 38 36  1  0  0  0  0
 40 39  1  6  0  0  0
 40 41  1  0  0  0  0
 41 42  1  0  0  0  0
 42 43  1  0  0  0  0
 43 45  1  0  0  0  0
 45 44  1  0  0  0  0
 46 47  1  0  0  0  0
M  END
>  <MODEL>
4

>  <REMARK>
 VINA RESULT:      -6.2      6.145      9.514
  Name = 
  17 active torsions:
  status: ('A' for Active; 'I' for Inactive)
    1  A    between atoms: C_1  and  O_24
    2  A    between atoms: N_3  and  C_8
    3  A    between atoms: N_5  and  C_12
    4  A    between atoms: C_6  and  C_37
    5  A    between atoms: N_10  and  C_23
    6  A    between atoms: C_11  and  C_12
    7  A    between atoms: C_11  and  C_32
    8  A    between atoms: C_12  and  C_31
    9  A    between atoms: C_17  and  C_18
   10  A    between atoms: C_17  and  C_19
   11  A    between atoms: C_19  and  O_41
   12  A    between atoms: C_21  and  C_34
   13  A    between atoms: O_24  and  C_44
   14  A    between atoms: C_29  and  C_45
   15  A    between atoms: C_30  and  C_45
   16  A    between atoms: C_35  and  O_41
   17  A    between atoms: C_35  and  C_47
                            x       y       z     vdW  Elec       q    Type
                         _______ _______ _______ _____ _____    ______ ____

>  <TORSDO>
F 17

$$$$
=
 OpenBabel10222422093D

 47 49  0  0  1  0  0  0  0  0999 V2000
  185.2500  177.1300  136.6100 N   0  0  0  0  0  2  0  0  0  0  0  0
  187.6670  177.4810  136.1970 N   0  0  0  0  0  2  0  0  0  0  0  0
  186.0640  177.9710  134.5900 O   0  0  0  0  0  0  0  0  0  0  0  0
  186.3130  177.5510  135.7510 C   0  0  0  0  0  0  0  0  0  0  0  0
  190.7680  176.0870  137.8620 C   0  0  0  0  0  0  0  0  0  0  0  0
  189.1070  177.8560  138.0980 C   0  0  0  0  0  0  0  0  0  0  0  0
  188.0150  176.9950  137.5230 C   0  0  2  0  0  3  0  0  0  0  0  0
  189.6760  175.1440  137.5640 C   0  0  0  0  0  3  0  0  0  0  0  0
  188.8440  179.0180  138.4990 O   0  0  0  0  0  0  0  0  0  0  0  0
  190.4910  177.3630  138.1460 C   0  0  0  0  0  3  0  0  0  0  0  0
  188.4010  175.5310  137.4420 C   0  0  0  0  0  0  0  0  0  0  0  0
  192.1070  175.5760  137.9290 N   0  0  0  0  0  2  0  0  0  0  0  0
  192.6200  175.4980  135.6380 O   0  0  0  0  0  0  0  0  0  0  0  0
  193.0010  175.3560  136.8300 C   0  0  0  0  0  0  0  0  0  0  0  0
  194.4140  174.9580  137.1030 C   0  0  0  0  0  2  0  0  0  0  0  0
  196.7120  172.7690  137.5220 C   0  0  0  0  0  2  0  0  0  0  0  0
  194.4690  173.6340  137.8670 C   0  0  2  0  0  3  0  0  0  0  0  0
  195.8090  173.4050  138.5550 C   0  0  2  0  0  3  0  0  0  0  0  0
  195.7840  172.0250  136.5770 C   0  0  0  0  0  2  0  0  0  0  0  0
  194.3630  172.4850  136.8830 C   0  0  0  0  0  2  0  0  0  0  0  0
  196.4060  174.6210  139.1990 C   0  0  0  0  0  0  0  0  0  0  0  0
  197.6080  175.1470  138.7450 O   0  0  0  0  0  0  0  0  0  0  0  0
  195.7790  175.2110  140.1170 O   0  0  0  0  0  1  0  0  0  0  0  0
  187.4360  174.5410  137.2310 O   0  0  0  0  0  0  0  0  0  0  0  0
  187.6140  173.4720  136.3120 C   0  0  1  0  0  3  0  0  0  0  0  0
  187.0750  172.2990  136.8400 O   0  0  0  0  0  1  0  0  0  0  0  0
  186.9050  173.8010  135.0170 C   0  0  0  0  0  1  0  0  0  0  0  0
  183.8870  176.9740  136.1280 C   0  0  1  0  0  3  0  0  0  0  0  0
  182.7280  174.9970  134.8970 C   0  0  0  0  0  1  0  0  0  0  0  0
  184.2330  173.9560  137.9120 O   0  0  0  0  0  0  0  0  0  0  0  0
  183.8950  174.7200  136.9970 C   0  0  0  0  0  0  0  0  0  0  0  0
  183.5400  175.5240  136.0330 C   0  0  0  0  0  0  0  0  0  0  0  0
  182.9190  177.7010  137.0460 C   0  0  0  0  0  2  0  0  0  0  0  0
  183.4370  179.5880  138.5030 N   0  0  0  0  0  2  0  0  0  0  0  0
  182.4120  179.7680  139.5330 C   0  0  2  0  0  3  0  0  0  0  0  0
  181.9750  178.4060  140.0280 C   0  0  1  0  0  3  0  0  0  0  0  0
  183.6250  178.1520  138.3190 C   0  0  1  0  0  3  0  0  0  0  0  0
  183.0180  177.4480  139.5070 C   0  0  0  0  0  2  0  0  0  0  0  0
  180.4070  179.7360  138.1930 O   0  0  0  0  0  1  0  0  0  0  0  0
  181.2130  180.5530  138.9900 C   0  0  2  0  0  3  0  0  0  0  0  0
  181.6650  181.7600  138.1870 C   0  0  0  0  0  2  0  0  0  0  0  0
  180.6790  182.1230  137.2700 O   0  0  0  0  0  0  0  0  0  0  0  0
  180.3420  183.4310  137.6130 C   0  0  0  0  0  2  0  0  0  0  0  0
  181.3930  184.8970  136.0550 O   0  0  0  0  0  1  0  0  0  0  0  0
  181.5120  184.3520  137.3330 C   0  0  0  0  0  2  0  0  0  0  0  0
  181.9450  178.3880  141.5460 C   0  0  0  0  0  2  0  0  0  0  0  0
  180.9420  179.2310  142.0070 O   0  0  0  0  0  1  0  0  0  0  0  0
  3  4  2  0  0  0  0
  4  2  1  0  0  0  0
  4  1  1  0  0  0  0
  5 12  1  0  0  0  0
  5 10  2  0  0  0  0
  6 10  1  0  0  0  0
  6  9  2  0  0  0  0
  7  2  1  6  0  0  0
  7  6  1  0  0  0  0
  8  5  1  0  0  0  0
 11  7  1  0  0  0  0
 11  8  2  0  0  0  0
 13 14  2  0  0  0  0
 14 15  1  0  0  0  0
 14 12  1  0  0  0  0
 16 18  1  0  0  0  0
 17 15  1  6  0  0  0
 17 18  1  0  0  0  0
 18 21  1  6  0  0  0
 19 20  1  0  0  0  0
 19 16  1  0  0  0  0
 20 17  1  0  0  0  0
 21 23  1  0  0  0  0
 22 21  2  0  0  0  0
 24 11  1  0  0  0  0
 25 27  1  6  0  0  0
 25 26  1  0  0  0  0
 25 24  1  0  0  0  0
 28  1  1  0  0  0  0
 28 33  1  1  0  0  0
 29 32  1  0  0  0  0
 31 30  2  0  0  0  0
 32 28  1  0  0  0  0
 32 31  2  0  0  0  0
 34 35  1  0  0  0  0
 35 40  1  6  0  0  0
 35 36  1  0  0  0  0
 36 46  1  1  0  0  0
 37 33  1  6  0  0  0
 37 34  1  0  0  0  0
 37 38  1  0  0  0  0
 38 36  1  0  0  0  0
 40 39  1  6  0  0  0
 41 40  1  0  0  0  0
 42 43  1  0  0  0  0
 42 41  1  0  0  0  0
 44 45  1  0  0  0  0
 45 43  1  0  0  0  0
 46 47  1  0  0  0  0
M  END
>  <MODEL>
5

>  <REMARK>
 VINA RESULT:      -6.1      4.201     12.683
  Name = 
  17 active torsions:
  status: ('A' for Active; 'I' for Inactive)
    1  A    between atoms: C_1  and  O_24
    2  A    between atoms: N_3  and  C_8
    3  A    between atoms: N_5  and  C_12
    4  A    between atoms: C_6  and  C_37
    5  A    between atoms: N_10  and  C_23
    6  A    between atoms: C_11  and  C_12
    7  A    between atoms: C_11  and  C_32
    8  A    between atoms: C_12  and  C_31
    9  A    between atoms: C_17  and  C_18
   10  A    between atoms: C_17  and  C_19
   11  A    between atoms: C_19  and  O_41
   12  A    between atoms: C_21  and  C_34
   13  A    between atoms: O_24  and  C_44
   14  A    between atoms: C_29  and  C_45
   15  A    between atoms: C_30  and  C_45
   16  A    between atoms: C_35  and  O_41
   17  A    between atoms: C_35  and  C_47
                            x       y       z     vdW  Elec       q    Type
                         _______ _______ _______ _____ _____    ______ ____

>  <TORSDO>
F 17

$$$$
=
 OpenBabel10222422093D

 47 49  0  0  1  0  0  0  0  0999 V2000
  182.4030  178.1950  138.5440 N   0  0  0  0  0  2  0  0  0  0  0  0
  183.2220  177.2400  140.6770 N   0  0  0  0  0  2  0  0  0  0  0  0
  182.2020  175.9270  139.0560 O   0  0  0  0  0  0  0  0  0  0  0  0
  182.5970  177.0700  139.4060 C   0  0  0  0  0  0  0  0  0  0  0  0
  185.9130  178.4930  143.0260 C   0  0  0  0  0  0  0  0  0  0  0  0
  185.1250  178.7250  140.7310 C   0  0  0  0  0  0  0  0  0  0  0  0
  183.6880  178.5380  141.1380 C   0  0  2  0  0  3  0  0  0  0  0  0
  184.5150  178.5890  143.4830 C   0  0  0  0  0  3  0  0  0  0  0  0
  185.4120  178.9530  139.5280 O   0  0  0  0  0  0  0  0  0  0  0  0
  186.1990  178.5900  141.7250 C   0  0  0  0  0  3  0  0  0  0  0  0
  183.4820  178.6490  142.6360 C   0  0  0  0  0  0  0  0  0  0  0  0
  186.9450  178.3890  144.0180 N   0  0  0  0  0  2  0  0  0  0  0  0
  188.6230  177.3550  142.7410 O   0  0  0  0  0  0  0  0  0  0  0  0
  188.2720  177.8830  143.8300 C   0  0  0  0  0  0  0  0  0  0  0  0
  189.2620  177.9900  144.9430 C   0  0  0  0  0  2  0  0  0  0  0  0
  191.1440  177.0050  147.3380 C   0  0  0  0  0  2  0  0  0  0  0  0
  189.5970  176.6080  145.5080 C   0  0  2  0  0  3  0  0  0  0  0  0
  189.7190  176.6060  147.0270 C   0  0  2  0  0  3  0  0  0  0  0  0
  191.9600  176.5580  146.1370 C   0  0  0  0  0  2  0  0  0  0  0  0
  190.9760  176.1950  145.0310 C   0  0  0  0  0  2  0  0  0  0  0  0
  188.6980  177.4380  147.7460 C   0  0  0  0  0  0  0  0  0  0  0  0
  187.3410  177.2210  147.5520 O   0  0  0  0  0  0  0  0  0  0  0  0
  189.0750  178.2970  148.5850 O   0  0  0  0  0  1  0  0  0  0  0  0
  182.2020  178.8130  143.1770 O   0  0  0  0  0  0  0  0  0  0  0  0
  181.0580  179.0970  142.3820 C   0  0  1  0  0  3  0  0  0  0  0  0
  180.2940  177.9420  142.2220 O   0  0  0  0  0  1  0  0  0  0  0  0
  180.2200  180.1510  143.0710 C   0  0  0  0  0  1  0  0  0  0  0  0
  181.5800  178.1160  137.3470 C   0  0  1  0  0  3  0  0  0  0  0  0
  179.9830  179.9640  138.2420 C   0  0  0  0  0  1  0  0  0  0  0  0
  180.9040  180.5450  134.8880 O   0  0  0  0  0  0  0  0  0  0  0  0
  180.8690  179.9850  135.9920 C   0  0  0  0  0  0  0  0  0  0  0  0
  180.8320  179.3950  137.1540 C   0  0  0  0  0  0  0  0  0  0  0  0
  182.4430  177.8070  136.1360 C   0  0  0  0  0  2  0  0  0  0  0  0
  182.7430  176.1580  134.3620 N   0  0  0  0  0  2  0  0  0  0  0  0
  183.0300  174.8300  134.9070 C   0  0  2  0  0  3  0  0  0  0  0  0
  182.1710  174.6120  136.1340 C   0  0  1  0  0  3  0  0  0  0  0  0
  181.7560  176.7870  135.2360 C   0  0  1  0  0  3  0  0  0  0  0  0
  181.1330  175.7060  136.0840 C   0  0  0  0  0  2  0  0  0  0  0  0
  185.0150  173.4680  134.7860 O   0  0  0  0  0  1  0  0  0  0  0  0
  184.5140  174.6840  135.2560 C   0  0  2  0  0  3  0  0  0  0  0  0
  184.7390  174.7800  136.7560 C   0  0  0  0  0  2  0  0  0  0  0  0
  185.4540  175.9370  137.0600 O   0  0  0  0  0  0  0  0  0  0  0  0
  185.9680  176.3660  135.8380 C   0  0  0  0  0  2  0  0  0  0  0  0
  187.3750  178.0080  134.8330 O   0  0  0  0  0  1  0  0  0  0  0  0
  186.9250  177.5200  136.0600 C   0  0  0  0  0  2  0  0  0  0  0  0
  181.5100  173.2460  136.0730 C   0  0  0  0  0  2  0  0  0  0  0  0
  181.8040  172.6350  134.8600 O   0  0  0  0  0  1  0  0  0  0  0  0
  1  4  1  0  0  0  0
  3  4  2  0  0  0  0
  4  2  1  0  0  0  0
  5  8  1  0  0  0  0
  5 12  1  0  0  0  0
  6  7  1  0  0  0  0
  6 10  1  0  0  0  0
  7  2  1  1  0  0  0
  7 11  1  0  0  0  0
  9  6  2  0  0  0  0
 10  5  2  0  0  0  0
 11 24  1  0  0  0  0
 11  8  2  0  0  0  0
 13 14  2  0  0  0  0
 14 12  1  0  0  0  0
 14 15  1  0  0  0  0
 17 15  1  6  0  0  0
 17 18  1  0  0  0  0
 18 16  1  0  0  0  0
 18 21  1  1  0  0  0
 19 16  1  0  0  0  0
 20 17  1  0  0  0  0
 20 19  1  0  0  0  0
 21 23  1  0  0  0  0
 22 21  2  0  0  0  0
 25 27  1  1  0  0  0
 25 24  1  0  0  0  0
 26 25  1  0  0  0  0
 28 33  1  6  0  0  0
 28  1  1  0  0  0  0
 30 31  2  0  0  0  0
 31 32  2  0  0  0  0
 32 28  1  0  0  0  0
 32 29  1  0  0  0  0
 34 35  1  0  0  0  0
 34 37  1  0  0  0  0
 35 40  1  1  0  0  0
 35 36  1  0  0  0  0
 36 46  1  6  0  0  0
 37 38  1  0  0  0  0
 37 33  1  1  0  0  0
 38 36  1  0  0  0  0
 40 39  1  1  0  0  0
 40 41  1  0  0  0  0
 41 42  1  0  0  0  0
 43 45  1  0  0  0  0
 43 42  1  0  0  0  0
 44 45  1  0  0  0  0
 47 46  1  0  0  0  0
M  END
>  <MODEL>
6

>  <REMARK>
 VINA RESULT:      -5.9      7.504     10.733
  Name = 
  17 active torsions:
  status: ('A' for Active; 'I' for Inactive)
    1  A    between atoms: C_1  and  O_24
    2  A    between atoms: N_3  and  C_8
    3  A    between atoms: N_5  and  C_12
    4  A    between atoms: C_6  and  C_37
    5  A    between atoms: N_10  and  C_23
    6  A    between atoms: C_11  and  C_12
    7  A    between atoms: C_11  and  C_32
    8  A    between atoms: C_12  and  C_31
    9  A    between atoms: C_17  and  C_18
   10  A    between atoms: C_17  and  C_19
   11  A    between atoms: C_19  and  O_41
   12  A    between atoms: C_21  and  C_34
   13  A    between atoms: O_24  and  C_44
   14  A    between atoms: C_29  and  C_45
   15  A    between atoms: C_30  and  C_45
   16  A    between atoms: C_35  and  O_41
   17  A    between atoms: C_35  and  C_47
                            x       y       z     vdW  Elec       q    Type
                         _______ _______ _______ _____ _____    ______ ____

>  <TORSDO>
F 17

$$$$
=
 OpenBabel10222422093D

 47 49  0  0  1  0  0  0  0  0999 V2000
  189.6470  177.9020  142.7220 N   0  0  0  0  0  2  0  0  0  0  0  0
  189.5930  178.4100  145.1450 N   0  0  0  0  0  2  0  0  0  0  0  0
  190.9890  179.5530  143.6820 O   0  0  0  0  0  0  0  0  0  0  0  0
  190.1100  178.6650  143.8400 C   0  0  0  0  0  0  0  0  0  0  0  0
  186.1040  177.6680  143.8790 C   0  0  0  0  0  0  0  0  0  0  0  0
  188.3070  176.6500  144.1070 C   0  0  0  0  0  0  0  0  0  0  0  0
  188.5860  177.3890  145.3880 C   0  0  2  0  0  3  0  0  0  0  0  0
  186.2320  178.1800  145.2540 C   0  0  0  0  0  3  0  0  0  0  0  0
  189.1510  175.8330  143.6590 O   0  0  0  0  0  0  0  0  0  0  0  0
  187.0760  176.9170  143.3520 C   0  0  0  0  0  3  0  0  0  0  0  0
  187.3460  178.0310  145.9790 C   0  0  0  0  0  0  0  0  0  0  0  0
  184.8810  177.9200  143.1720 N   0  0  0  0  0  2  0  0  0  0  0  0
  185.6380  179.5090  141.6170 O   0  0  0  0  0  0  0  0  0  0  0  0
  184.7020  178.7790  142.0380 C   0  0  0  0  0  0  0  0  0  0  0  0
  183.3840  178.8030  141.3380 C   0  0  0  0  0  2  0  0  0  0  0  0
  181.3330  178.4170  138.9110 C   0  0  0  0  0  2  0  0  0  0  0  0
  183.4410  177.9950  140.0410 C   0  0  2  0  0  3  0  0  0  0  0  0
  182.8120  178.7260  138.8610 C   0  0  2  0  0  3  0  0  0  0  0  0
  181.2270  177.0600  139.5870 C   0  0  0  0  0  2  0  0  0  0  0  0
  182.5910  176.7480  140.1910 C   0  0  0  0  0  2  0  0  0  0  0  0
  183.1090  180.1960  138.7960 C   0  0  0  0  0  0  0  0  0  0  0  0
  184.4160  180.6590  138.8540 O   0  0  0  0  0  1  0  0  0  0  0  0
  182.1690  181.0130  138.6180 O   0  0  0  0  0  0  0  0  0  0  0  0
  187.3320  178.4910  147.3000 O   0  0  0  0  0  0  0  0  0  0  0  0
  187.8640  177.7420  148.3850 C   0  0  1  0  0  3  0  0  0  0  0  0
  188.1740  176.4500  147.9600 O   0  0  0  0  0  1  0  0  0  0  0  0
  189.1230  178.4120  148.8870 C   0  0  0  0  0  1  0  0  0  0  0  0
  190.2970  177.9680  141.4220 C   0  0  1  0  0  3  0  0  0  0  0  0
  192.0290  176.4740  142.6610 C   0  0  0  0  0  1  0  0  0  0  0  0
  193.2980  177.6820  139.6000 O   0  0  0  0  0  0  0  0  0  0  0  0
  192.4860  177.4940  140.5160 C   0  0  0  0  0  0  0  0  0  0  0  0
  191.6310  177.2980  141.4810 C   0  0  0  0  0  0  0  0  0  0  0  0
  189.4170  177.3270  140.3620 C   0  0  0  0  0  2  0  0  0  0  0  0
  189.7140  178.3190  138.1520 N   0  0  0  0  0  2  0  0  0  0  0  0
  188.9170  177.6230  137.1410 C   0  0  2  0  0  3  0  0  0  0  0  0
  187.5730  177.2690  137.7400 C   0  0  1  0  0  3  0  0  0  0  0  0
  188.9180  178.3750  139.3750 C   0  0  1  0  0  3  0  0  0  0  0  0
  187.4840  178.0790  139.0090 C   0  0  0  0  0  2  0  0  0  0  0  0
  188.9790  175.2140  137.0880 O   0  0  0  0  0  1  0  0  0  0  0  0
  189.6320  176.3640  136.6410 C   0  0  2  0  0  3  0  0  0  0  0  0
  191.0810  176.3370  137.0980 C   0  0  0  0  0  2  0  0  0  0  0  0
  191.3020  175.2360  137.9240 O   0  0  0  0  0  0  0  0  0  0  0  0
  192.5990  174.8250  137.6240 C   0  0  0  0  0  2  0  0  0  0  0  0
  194.2230  176.3480  136.7720 O   0  0  0  0  0  1  0  0  0  0  0  0
  193.1120  175.5840  136.4170 C   0  0  0  0  0  2  0  0  0  0  0  0
  186.4580  177.6510  136.7830 C   0  0  0  0  0  2  0  0  0  0  0  0
  186.9980  178.1130  135.5900 O   0  0  0  0  0  1  0  0  0  0  0  0
  1  4  1  0  0  0  0
  3  4  2  0  0  0  0
  4  2  1  0  0  0  0
  5  8  1  0  0  0  0
  6  7  1  0  0  0  0
  7  2  1  6  0  0  0
  7 11  1  0  0  0  0
  8 11  2  0  0  0  0
  9  6  2  0  0  0  0
 10  5  2  0  0  0  0
 10  6  1  0  0  0  0
 11 24  1  0  0  0  0
 12  5  1  0  0  0  0
 13 14  2  0  0  0  0
 14 12  1  0  0  0  0
 15 14  1  0  0  0  0
 16 19  1  0  0  0  0
 17 20  1  0  0  0  0
 17 15  1  1  0  0  0
 18 21  1  1  0  0  0
 18 16  1  0  0  0  0
 18 17  1  0  0  0  0
 19 20  1  0  0  0  0
 21 22  1  0  0  0  0
 23 21  2  0  0  0  0
 24 25  1  0  0  0  0
 25 27  1  6  0  0  0
 26 25  1  0  0  0  0
 28 33  1  6  0  0  0
 28 32  1  0  0  0  0
 28  1  1  0  0  0  0
 30 31  2  0  0  0  0
 31 32  2  0  0  0  0
 32 29  1  0  0  0  0
 34 37  1  0  0  0  0
 35 40  1  1  0  0  0
 35 36  1  0  0  0  0
 35 34  1  0  0  0  0
 36 46  1  6  0  0  0
 36 38  1  0  0  0  0
 37 33  1  1  0  0  0
 38 37  1  0  0  0  0
 40 39  1  1  0  0  0
 40 41  1  0  0  0  0
 41 42  1  0  0  0  0
 43 42  1  0  0  0  0
 45 44  1  0  0  0  0
 45 43  1  0  0  0  0
 47 46  1  0  0  0  0
M  END
>  <MODEL>
7

>  <REMARK>
 VINA RESULT:      -5.9      3.684      8.050
  Name = 
  17 active torsions:
  status: ('A' for Active; 'I' for Inactive)
    1  A    between atoms: C_1  and  O_24
    2  A    between atoms: N_3  and  C_8
    3  A    between atoms: N_5  and  C_12
    4  A    between atoms: C_6  and  C_37
    5  A    between atoms: N_10  and  C_23
    6  A    between atoms: C_11  and  C_12
    7  A    between atoms: C_11  and  C_32
    8  A    between atoms: C_12  and  C_31
    9  A    between atoms: C_17  and  C_18
   10  A    between atoms: C_17  and  C_19
   11  A    between atoms: C_19  and  O_41
   12  A    between atoms: C_21  and  C_34
   13  A    between atoms: O_24  and  C_44
   14  A    between atoms: C_29  and  C_45
   15  A    between atoms: C_30  and  C_45
   16  A    between atoms: C_35  and  O_41
   17  A    between atoms: C_35  and  C_47
                            x       y       z     vdW  Elec       q    Type
                         _______ _______ _______ _____ _____    ______ ____

>  <TORSDO>
F 17

$$$$
=
 OpenBabel10222422093D

 47 49  0  0  1  0  0  0  0  0999 V2000
  192.4970  175.4130  136.9490 N   0  0  0  0  0  2  0  0  0  0  0  0
  190.3050  175.5570  138.0920 N   0  0  0  0  0  2  0  0  0  0  0  0
  191.1640  173.5370  137.3350 O   0  0  0  0  0  0  0  0  0  0  0  0
  191.3200  174.7800  137.4580 C   0  0  0  0  0  0  0  0  0  0  0  0
  188.7100  178.2000  140.2830 C   0  0  0  0  0  0  0  0  0  0  0  0
  190.8870  177.3060  139.6510 C   0  0  0  0  0  0  0  0  0  0  0  0
  190.4260  176.9980  138.2520 C   0  0  2  0  0  3  0  0  0  0  0  0
  188.3200  178.1710  138.8620 C   0  0  0  0  0  3  0  0  0  0  0  0
  192.0800  177.0820  139.9810 O   0  0  0  0  0  0  0  0  0  0  0  0
  189.9380  177.8200  140.6470 C   0  0  0  0  0  3  0  0  0  0  0  0
  189.1060  177.6600  137.9080 C   0  0  0  0  0  0  0  0  0  0  0  0
  187.7740  178.7310  141.2320 N   0  0  0  0  0  2  0  0  0  0  0  0
  185.8420  178.7950  139.8970 O   0  0  0  0  0  0  0  0  0  0  0  0
  186.3730  178.9540  141.0290 C   0  0  0  0  0  0  0  0  0  0  0  0
  185.5220  179.3740  142.1820 C   0  0  0  0  0  2  0  0  0  0  0  0
  183.9540  179.0850  144.9580 C   0  0  0  0  0  2  0  0  0  0  0  0
  185.1480  178.1720  143.0500 C   0  0  2  0  0  3  0  0  0  0  0  0
  183.7650  178.3040  143.6770 C   0  0  2  0  0  3  0  0  0  0  0  0
  185.3760  178.7880  145.4060 C   0  0  0  0  0  2  0  0  0  0  0  0
  186.0830  178.1040  144.2410 C   0  0  0  0  0  2  0  0  0  0  0  0
  182.7140  178.8850  142.7770 C   0  0  0  0  0  0  0  0  0  0  0  0
  182.7570  178.6730  141.4060 O   0  0  0  0  0  0  0  0  0  0  0  0
  181.7460  179.5150  143.2760 O   0  0  0  0  0  1  0  0  0  0  0  0
  188.6680  177.7500  136.5830 O   0  0  0  0  0  0  0  0  0  0  0  0
  187.3910  177.2930  136.1590 C   0  0  1  0  0  3  0  0  0  0  0  0
  186.9940  177.9890  135.0170 O   0  0  0  0  0  1  0  0  0  0  0  0
  187.4700  175.8180  135.8340 C   0  0  0  0  0  1  0  0  0  0  0  0
  193.4480  174.7060  136.1050 C   0  0  1  0  0  3  0  0  0  0  0  0
  194.7880  176.5450  134.8440 C   0  0  0  0  0  1  0  0  0  0  0  0
  196.6950  175.0740  137.4210 O   0  0  0  0  0  0  0  0  0  0  0  0
  195.7160  175.2940  136.6940 C   0  0  0  0  0  0  0  0  0  0  0  0
  194.6850  175.5250  135.9300 C   0  0  0  0  0  0  0  0  0  0  0  0
  193.7790  173.3510  136.7080 C   0  0  0  0  0  2  0  0  0  0  0  0
  195.3310  172.1480  135.2590 N   0  0  0  0  0  2  0  0  0  0  0  0
  195.8150  170.9210  135.8930 C   0  0  2  0  0  3  0  0  0  0  0  0
  194.6670  170.2710  136.6350 C   0  0  1  0  0  3  0  0  0  0  0  0
  193.9220  172.2990  135.6150 C   0  0  1  0  0  3  0  0  0  0  0  0
  193.4290  170.9690  136.1290 C   0  0  0  0  0  2  0  0  0  0  0  0
  196.5120  171.7940  138.0290 O   0  0  0  0  0  1  0  0  0  0  0  0
  196.9760  171.2120  136.8480 C   0  0  2  0  0  3  0  0  0  0  0  0
  198.0040  172.1250  136.2020 C   0  0  0  0  0  2  0  0  0  0  0  0
  198.9660  172.5030  137.1380 O   0  0  0  0  0  0  0  0  0  0  0  0
  199.9380  173.1690  136.3950 C   0  0  0  0  0  2  0  0  0  0  0  0
  200.0560  174.5720  138.3190 O   0  0  0  0  0  1  0  0  0  0  0  0
  200.1140  174.5780  136.9250 C   0  0  0  0  0  2  0  0  0  0  0  0
  194.6120  168.7880  136.3150 C   0  0  0  0  0  2  0  0  0  0  0  0
  194.5300  168.0540  137.4910 O   0  0  0  0  0  1  0  0  0  0  0  0
  1  4  1  0  0  0  0
  3  4  2  0  0  0  0
  4  2  1  0  0  0  0
  5 10  2  0  0  0  0
  5 12  1  0  0  0  0
  6  9  2  0  0  0  0
  6 10  1  0  0  0  0
  7  2  1  1  0  0  0
  7  6  1  0  0  0  0
  8  5  1  0  0  0  0
 11  7  1  0  0  0  0
 11  8  2  0  0  0  0
 13 14  2  0  0  0  0
 14 12  1  0  0  0  0
 14 15  1  0  0  0  0
 16 19  1  0  0  0  0
 17 15  1  6  0  0  0
 17 18  1  0  0  0  0
 17 20  1  0  0  0  0
 18 21  1  6  0  0  0
 18 16  1  0  0  0  0
 20 19  1  0  0  0  0
 21 23  1  0  0  0  0
 22 21  2  0  0  0  0
 24 11  1  0  0  0  0
 25 27  1  6  0  0  0
 25 24  1  0  0  0  0
 26 25  1  0  0  0  0
 28 33  1  1  0  0  0
 28  1  1  0  0  0  0
 29 32  1  0  0  0  0
 31 30  2  0  0  0  0
 32 28  1  0  0  0  0
 32 31  2  0  0  0  0
 34 37  1  0  0  0  0
 34 35  1  0  0  0  0
 35 36  1  0  0  0  0
 35 40  1  1  0  0  0
 36 46  1  6  0  0  0
 37 38  1  0  0  0  0
 37 33  1  1  0  0  0
 38 36  1  0  0  0  0
 40 39  1  1  0  0  0
 41 40  1  0  0  0  0
 41 42  1  0  0  0  0
 43 45  1  0  0  0  0
 43 42  1  0  0  0  0
 45 44  1  0  0  0  0
 46 47  1  0  0  0  0
M  END
>  <MODEL>
8

>  <REMARK>
 VINA RESULT:      -5.8      1.766      2.235
  Name = 
  17 active torsions:
  status: ('A' for Active; 'I' for Inactive)
    1  A    between atoms: C_1  and  O_24
    2  A    between atoms: N_3  and  C_8
    3  A    between atoms: N_5  and  C_12
    4  A    between atoms: C_6  and  C_37
    5  A    between atoms: N_10  and  C_23
    6  A    between atoms: C_11  and  C_12
    7  A    between atoms: C_11  and  C_32
    8  A    between atoms: C_12  and  C_31
    9  A    between atoms: C_17  and  C_18
   10  A    between atoms: C_17  and  C_19
   11  A    between atoms: C_19  and  O_41
   12  A    between atoms: C_21  and  C_34
   13  A    between atoms: O_24  and  C_44
   14  A    between atoms: C_29  and  C_45
   15  A    between atoms: C_30  and  C_45
   16  A    between atoms: C_35  and  O_41
   17  A    between atoms: C_35  and  C_47
                            x       y       z     vdW  Elec       q    Type
                         _______ _______ _______ _____ _____    ______ ____

>  <TORSDO>
F 17

$$$$
=
 OpenBabel10222422093D

 47 49  0  0  1  0  0  0  0  0999 V2000
  186.6400  178.0830  142.6140 N   0  0  0  0  0  2  0  0  0  0  0  0
  188.7750  176.8400  142.7940 N   0  0  0  0  0  2  0  0  0  0  0  0
  186.7500  175.9030  143.4400 O   0  0  0  0  0  0  0  0  0  0  0  0
  187.3590  176.8980  142.9640 C   0  0  0  0  0  0  0  0  0  0  0  0
  191.6010  177.2880  140.3160 C   0  0  0  0  0  0  0  0  0  0  0  0
  189.3270  178.0360  140.7700 C   0  0  0  0  0  0  0  0  0  0  0  0
  189.5320  177.9620  142.2590 C   0  0  2  0  0  3  0  0  0  0  0  0
  191.9150  177.4740  141.7430 C   0  0  0  0  0  3  0  0  0  0  0  0
  188.2310  178.4440  140.3080 O   0  0  0  0  0  0  0  0  0  0  0  0
  190.3830  177.5860  139.8540 C   0  0  0  0  0  3  0  0  0  0  0  0
  190.9910  177.8200  142.6460 C   0  0  0  0  0  0  0  0  0  0  0  0
  192.6570  176.8720  139.4370 N   0  0  0  0  0  2  0  0  0  0  0  0
  191.5750  175.1190  138.3110 O   0  0  0  0  0  0  0  0  0  0  0  0
  192.5920  175.8520  138.4330 C   0  0  0  0  0  0  0  0  0  0  0  0
  193.7490  175.6570  137.5090 C   0  0  0  0  0  2  0  0  0  0  0  0
  195.9650  174.0380  135.8620 C   0  0  0  0  0  2  0  0  0  0  0  0
  193.8890  174.1860  137.1150 C   0  0  2  0  0  3  0  0  0  0  0  0
  195.3280  173.6910  137.1890 C   0  0  2  0  0  3  0  0  0  0  0  0
  194.8240  174.0530  134.8590 C   0  0  0  0  0  2  0  0  0  0  0  0
  193.5230  174.0240  135.6530 C   0  0  0  0  0  2  0  0  0  0  0  0
  196.1090  174.1870  138.3710 C   0  0  0  0  0  0  0  0  0  0  0  0
  197.2030  175.0230  138.1980 O   0  0  0  0  0  0  0  0  0  0  0  0
  195.7280  173.8970  139.5350 O   0  0  0  0  0  1  0  0  0  0  0  0
  191.4130  178.0410  143.9610 O   0  0  0  0  0  0  0  0  0  0  0  0
  190.9410  177.2770  145.0630 C   0  0  1  0  0  3  0  0  0  0  0  0
  191.9810  177.0580  145.9660 O   0  0  0  0  0  1  0  0  0  0  0  0
  189.8330  178.0330  145.7600 C   0  0  0  0  0  1  0  0  0  0  0  0
  185.2430  178.2710  142.9720 C   0  0  1  0  0  3  0  0  0  0  0  0
  184.4830  180.2590  144.4680 C   0  0  0  0  0  1  0  0  0  0  0  0
  186.2320  177.8230  146.3240 O   0  0  0  0  0  0  0  0  0  0  0  0
  185.7000  178.3620  145.3430 C   0  0  0  0  0  0  0  0  0  0  0  0
  185.1420  178.9290  144.3100 C   0  0  0  0  0  0  0  0  0  0  0  0
  184.5350  179.0960  141.9110 C   0  0  0  0  0  2  0  0  0  0  0  0
  182.4830  179.3110  140.6080 N   0  0  0  0  0  2  0  0  0  0  0  0
  182.4440  178.3480  139.5060 C   0  0  2  0  0  3  0  0  0  0  0  0
  183.0090  177.0310  139.9900 C   0  0  1  0  0  3  0  0  0  0  0  0
  183.0900  178.6390  141.7550 C   0  0  1  0  0  3  0  0  0  0  0  0
  183.0560  177.1540  141.4930 C   0  0  0  0  0  2  0  0  0  0  0  0
  182.6400  178.4340  137.1050 O   0  0  0  0  0  1  0  0  0  0  0  0
  183.2310  178.8600  138.2960 C   0  0  2  0  0  3  0  0  0  0  0  0
  184.6760  178.3920  138.3420 C   0  0  0  0  0  2  0  0  0  0  0  0
  184.9340  177.5290  137.2780 O   0  0  0  0  0  0  0  0  0  0  0  0
  186.3120  177.3220  137.3200 C   0  0  0  0  0  2  0  0  0  0  0  0
  187.7120  179.2360  137.0790 O   0  0  0  0  0  1  0  0  0  0  0  0
  187.0030  178.2720  136.3630 C   0  0  0  0  0  2  0  0  0  0  0  0
  182.0980  175.8880  139.5770 C   0  0  0  0  0  2  0  0  0  0  0  0
  180.8780  175.9980  140.2310 O   0  0  0  0  0  1  0  0  0  0  0  0
  1  4  1  0  0  0  0
  1 28  1  0  0  0  0
  2  4  1  0  0  0  0
  4  3  2  0  0  0  0
  5  8  1  0  0  0  0
  6  7  1  0  0  0  0
  7 11  1  0  0  0  0
  7  2  1  6  0  0  0
  8 11  2  0  0  0  0
  9  6  2  0  0  0  0
 10  5  2  0  0  0  0
 10  6  1  0  0  0  0
 11 24  1  0  0  0  0
 12  5  1  0  0  0  0
 13 14  2  0  0  0  0
 14 12  1  0  0  0  0
 15 14  1  0  0  0  0
 16 18  1  0  0  0  0
 17 18  1  0  0  0  0
 17 15  1  6  0  0  0
 18 21  1  1  0  0  0
 19 20  1  0  0  0  0
 19 16  1  0  0  0  0
 20 17  1  0  0  0  0
 21 23  1  0  0  0  0
 22 21  2  0  0  0  0
 24 25  1  0  0  0  0
 25 27  1  1  0  0  0
 25 26  1  0  0  0  0
 28 33  1  6  0  0  0
 28 32  1  0  0  0  0
 31 30  2  0  0  0  0
 32 29  1  0  0  0  0
 32 31  2  0  0  0  0
 34 37  1  0  0  0  0
 35 40  1  6  0  0  0
 35 36  1  0  0  0  0
 35 34  1  0  0  0  0
 36 46  1  1  0  0  0
 36 38  1  0  0  0  0
 37 33  1  6  0  0  0
 38 37  1  0  0  0  0
 40 39  1  6  0  0  0
 40 41  1  0  0  0  0
 42 43  1  0  0  0  0
 42 41  1  0  0  0  0
 45 44  1  0  0  0  0
 45 43  1  0  0  0  0
 46 47  1  0  0  0  0
M  END
>  <MODEL>
9

>  <REMARK>
 VINA RESULT:      -5.5      2.680     11.938
  Name = 
  17 active torsions:
  status: ('A' for Active; 'I' for Inactive)
    1  A    between atoms: C_1  and  O_24
    2  A    between atoms: N_3  and  C_8
    3  A    between atoms: N_5  and  C_12
    4  A    between atoms: C_6  and  C_37
    5  A    between atoms: N_10  and  C_23
    6  A    between atoms: C_11  and  C_12
    7  A    between atoms: C_11  and  C_32
    8  A    between atoms: C_12  and  C_31
    9  A    between atoms: C_17  and  C_18
   10  A    between atoms: C_17  and  C_19
   11  A    between atoms: C_19  and  O_41
   12  A    between atoms: C_21  and  C_34
   13  A    between atoms: O_24  and  C_44
   14  A    between atoms: C_29  and  C_45
   15  A    between atoms: C_30  and  C_45
   16  A    between atoms: C_35  and  O_41
   17  A    between atoms: C_35  and  C_47
                            x       y       z     vdW  Elec       q    Type
                         _______ _______ _______ _____ _____    ______ ____

>  <TORSDO>
F 17

$$$$
