=
 OpenBabel10232409243D

 52 55  0  0  1  0  0  0  0  0999 V2000
  185.7580  176.7180  136.2180 C   0  0  1  0  0  3  0  0  0  0  0  0
  185.5020  178.6560  140.3650 C   0  0  0  0  0  0  0  0  0  0  0  0
  187.6890  178.8920  140.2350 N   0  0  0  0  0  0  0  0  0  0  0  0
  186.9210  177.5580  135.6670 C   0  0  2  0  0  3  0  0  0  0  0  0
  183.5400  177.0010  137.3660 C   0  0  2  0  0  3  0  0  0  0  0  0
  182.5240  178.0800  137.7290 C   0  0  0  0  0  2  0  0  0  0  0  0
  187.3110  178.6890  136.6110 C   0  0  0  0  0  2  0  0  0  0  0  0
  184.1220  178.6540  140.8770 C   0  0  0  0  0  0  0  0  0  0  0  0
  185.8290  178.2940  139.1140 N   0  0  0  0  0  0  0  0  0  0  0  0
  187.1620  178.4650  139.0710 C   0  0  0  0  0  0  0  0  0  0  0  0
  186.6340  179.0220  141.0650 C   0  0  0  0  0  2  0  0  0  0  0  0
  186.6030  178.0870  134.4130 O   0  0  0  0  0  1  0  0  0  0  0  0
  182.2150  178.0490  139.1930 C   0  0  0  0  0  3  0  0  0  0  0  0
  184.4170  177.4560  136.2030 C   0  0  0  0  0  2  0  0  0  0  0  0
  187.9820  178.1490  137.8660 C   0  0  0  0  0  2  0  0  0  0  0  0
  183.1440  178.3480  140.0600 C   0  0  0  0  0  0  0  0  0  0  0  0
  182.8560  175.6940  137.0790 C   0  0  0  0  0  0  0  0  0  0  0  0
  183.0840  174.6920  137.8090 O   0  0  0  0  0  0  0  0  0  0  0  0
  181.3080  174.3450  135.7120 C   0  0  0  0  0  1  0  0  0  0  0  0
  181.9600  175.5690  136.0160 O   0  0  0  0  0  0  0  0  0  0  0  0
  185.6670  175.3510  135.5330 C   0  0  0  0  0  2  0  0  0  0  0  0
  186.9170  174.7230  135.4670 O   0  0  0  0  0  0  0  0  0  0  0  0
  187.1510  174.2310  136.7520 C   0  0  0  0  0  2  0  0  0  0  0  0
  188.4210  172.9810  136.7090 S   0  0  0  0  0  0  0  0  0  0  0  0
  188.6020  172.5100  135.2920 O   0  0  0  0  0  0  0  0  0  0  0  0
  188.0190  171.8220  137.5760 O   0  0  0  0  0  0  0  0  0  0  0  0
  189.8990  173.6670  137.2970 N   0  0  0  0  0  2  0  0  0  0  0  0
  189.8400  175.1050  137.0880 C   0  0  1  0  0  3  0  0  0  0  0  0
  192.1000  175.9090  136.2720 C   0  0  0  0  0  0  0  0  0  0  0  0
  190.6650  175.8130  138.1610 C   0  0  0  0  0  2  0  0  0  0  0  0
  193.3800  176.0150  135.5060 C   0  0  0  0  0  1  0  0  0  0  0  0
  190.5620  175.5060  135.4610 S   0  0  0  0  0  0  0  0  0  0  0  0
  193.1860  176.3980  138.4560 C   0  0  0  0  0  1  0  0  0  0  0  0
  192.0200  176.0400  137.5890 C   0  0  0  0  0  0  0  0  0  0  0  0
  183.8560  179.0480  142.2260 N   0  0  0  0  0  2  0  0  0  0  0  0
  184.7460  178.9530  144.5170 C   0  0  0  0  0  0  0  0  0  0  0  0
  184.8890  179.2970  143.1420 N   0  0  0  0  0  2  0  0  0  0  0  0
  185.7700  179.3230  145.4400 N   0  0  0  0  0  2  0  0  0  0  0  0
  183.7300  178.3120  144.9090 O   0  0  0  0  0  0  0  0  0  0  0  0
  185.7460  178.8990  146.8300 C   0  0  0  0  0  2  0  0  0  0  0  0
  186.5240  177.6030  146.9820 C   0  0  0  0  0  2  0  0  0  0  0  0
  188.0090  177.8290  147.2710 C   0  0  1  0  0  3  0  0  0  0  0  0
  189.6380  178.5880  148.8880 O   0  0  0  0  0  1  0  0  0  0  0  0
  188.2840  178.3020  148.6980 C   0  0  0  0  0  2  0  0  0  0  0  0
  188.8760  176.6350  146.8770 C   0  0  0  0  0  2  0  0  0  0  0  0
  187.8080  176.5970  143.6000 C   0  0  0  0  0  2  0  0  0  0  0  0
  189.0280  176.9240  142.9360 C   0  0  0  0  0  2  0  0  0  0  0  0
  189.6580  176.9340  145.6380 C   0  0  0  0  0  0  0  0  0  0  0  0
  189.0450  176.8480  144.4600 C   0  0  0  0  0  0  0  0  0  0  0  0
  191.0900  177.2680  145.7120 C   0  0  0  0  0  0  0  0  0  0  0  0
  191.6410  177.9280  144.7910 O   0  0  0  0  0  0  0  0  0  0  0  0
  191.8490  176.8610  146.7980 O   0  0  0  0  0  1  0  0  0  0  0  0
  1 21  1  6  0  0  0
  2  8  1  0  0  0  0
  2 11  1  0  0  0  0
  3 11  1  0  0  0  0
  4 12  1  6  0  0  0
  4  1  1  0  0  0  0
  4  7  1  0  0  0  0
  5 17  1  6  0  0  0
  5  6  1  0  0  0  0
  6 13  1  0  0  0  0
  7 15  1  0  0  0  0
  8 35  1  0  0  0  0
  9  2  2  0  0  0  0
 10  9  1  0  0  0  0
 10  3  2  0  0  0  0
 13 16  2  0  0  0  0
 14  1  1  0  0  0  0
 14  5  1  0  0  0  0
 15 10  1  0  0  0  0
 16  8  2  0  0  0  0
 17 18  2  0  0  0  0
 19 20  1  0  0  0  0
 20 17  1  0  0  0  0
 22 21  1  0  0  0  0
 22 23  1  0  0  0  0
 24 23  1  0  0  0  0
 24 27  1  0  0  0  0
 24 26  2  0  0  0  0
 25 24  2  0  0  0  0
 28 27  1  1  0  0  0
 28 30  1  0  0  0  0
 29 34  2  0  0  0  0
 31 29  1  0  0  0  0
 32 29  1  0  0  0  0
 32 28  1  0  0  0  0
 34 30  1  0  0  0  0
 34 33  1  0  0  0  0
 35 37  1  0  0  0  0
 36 39  2  0  0  0  0
 36 38  1  0  0  0  0
 37 36  1  0  0  0  0
 38 40  1  0  0  0  0
 40 41  1  0  0  0  0
 41 42  1  0  0  0  0
 42 45  1  1  0  0  0
 42 44  1  0  0  0  0
 44 43  1  0  0  0  0
 46 49  1  0  0  0  0
 47 46  1  0  0  0  0
 47 49  1  0  0  0  0
 48 50  1  0  0  0  0
 48 45  1  0  0  0  0
 49 48  2  0  0  0  0
 50 52  1  0  0  0  0
 51 50  2  0  0  0  0
M  END
>  <MODEL>
1

>  <REMARK>
 VINA RESULT:      -7.5      0.000      0.000
  Name = 
  17 active torsions:
  status: ('A' for Active; 'I' for Inactive)
    1  A    between atoms: C_1  and  N_22
    2  A    between atoms: C_1  and  C_49
    3  A    between atoms: C_2  and  N_14
    4  A    between atoms: O_4  and  C_11
    5  A    between atoms: O_4  and  C_35
    6  A    between atoms: N_5  and  N_18
    7  A    between atoms: N_5  and  C_36
    8  A    between atoms: S_6  and  N_14
    9  A    between atoms: S_6  and  C_35
   10  A    between atoms: C_8  and  C_28
   11  A    between atoms: C_8  and  C_31
   12  A    between atoms: C_10  and  C_28
   13  A    between atoms: C_11  and  C_12
   14  A    between atoms: C_26  and  C_30
   15  A    between atoms: C_26  and  O_45
   16  A    between atoms: C_31  and  C_44
   17  A    between atoms: C_31  and  C_49
                            x       y       z     vdW  Elec       q    Type
                         _______ _______ _______ _____ _____    ______ ____

>  <TORSDO>
F 17

$$$$
=
 OpenBabel10232409243D

 52 55  0  0  1  0  0  0  0  0999 V2000
  182.1650  176.8310  136.3940 C   0  0  1  0  0  3  0  0  0  0  0  0
  186.5710  177.8290  137.1740 C   0  0  0  0  0  0  0  0  0  0  0  0
  186.9500  177.1190  135.1230 N   0  0  0  0  0  0  0  0  0  0  0  0
  182.1340  177.1780  134.8980 C   0  0  2  0  0  3  0  0  0  0  0  0
  182.8890  177.8110  138.5930 C   0  0  2  0  0  3  0  0  0  0  0  0
  183.3570  179.1270  139.2060 C   0  0  0  0  0  2  0  0  0  0  0  0
  183.4350  177.8190  134.4290 C   0  0  0  0  0  2  0  0  0  0  0  0
  186.7780  178.3210  138.5450 C   0  0  0  0  0  0  0  0  0  0  0  0
  185.3590  177.6170  136.6380 N   0  0  0  0  0  0  0  0  0  0  0  0
  185.6310  177.2000  135.3890 C   0  0  0  0  0  0  0  0  0  0  0  0
  187.5560  177.5250  136.2570 C   0  0  0  0  0  2  0  0  0  0  0  0
  181.0650  178.0290  134.6050 O   0  0  0  0  0  1  0  0  0  0  0  0
  184.6510  178.9440  139.9340 C   0  0  0  0  0  3  0  0  0  0  0  0
  182.1140  178.0630  137.3030 C   0  0  0  0  0  2  0  0  0  0  0  0
  184.5720  176.8070  134.4150 C   0  0  0  0  0  2  0  0  0  0  0  0
  185.7330  178.6350  139.2700 C   0  0  0  0  0  0  0  0  0  0  0  0
  182.0880  177.0120  139.5840 C   0  0  0  0  0  0  0  0  0  0  0  0
  182.4760  175.8610  139.9210 O   0  0  0  0  0  0  0  0  0  0  0  0
  180.9170  178.2170  141.3900 C   0  0  0  0  0  1  0  0  0  0  0  0
  180.9200  177.5280  140.1480 O   0  0  0  0  0  0  0  0  0  0  0  0
  181.0920  175.8030  136.7640 C   0  0  0  0  0  2  0  0  0  0  0  0
  181.6220  174.5090  136.8390 O   0  0  0  0  0  0  0  0  0  0  0  0
  181.4690  173.9730  135.5600 C   0  0  0  0  0  2  0  0  0  0  0  0
  182.1570  172.3290  135.4970 S   0  0  0  0  0  0  0  0  0  0  0  0
  181.4320  171.5310  134.4510 O   0  0  0  0  0  0  0  0  0  0  0  0
  181.9990  171.6640  136.8350 O   0  0  0  0  0  0  0  0  0  0  0  0
  183.8380  172.4430  135.0950 N   0  0  0  0  0  2  0  0  0  0  0  0
  184.5900  171.7050  136.0980 C   0  0  1  0  0  3  0  0  0  0  0  0
  186.7590  172.9310  136.5620 C   0  0  0  0  0  0  0  0  0  0  0  0
  185.8120  171.0590  135.4490 C   0  0  0  0  0  2  0  0  0  0  0  0
  187.7440  174.0160  136.8570 C   0  0  0  0  0  1  0  0  0  0  0  0
  185.1750  172.8630  137.3810 S   0  0  0  0  0  0  0  0  0  0  0  0
  188.2200  171.8560  134.8590 C   0  0  0  0  0  1  0  0  0  0  0  0
  186.9540  171.9930  135.6450 C   0  0  0  0  0  0  0  0  0  0  0  0
  188.1040  178.5170  139.0460 N   0  0  0  0  0  2  0  0  0  0  0  0
  189.1170  177.2280  140.8800 C   0  0  0  0  0  0  0  0  0  0  0  0
  188.8940  177.4470  139.4890 N   0  0  0  0  0  2  0  0  0  0  0  0
  190.0160  176.2000  141.2890 N   0  0  0  0  0  2  0  0  0  0  0  0
  188.5100  177.9300  141.7380 O   0  0  0  0  0  0  0  0  0  0  0  0
  190.1970  175.8440  142.6870 C   0  0  0  0  0  2  0  0  0  0  0  0
  191.4170  176.5600  143.2430 C   0  0  0  0  0  2  0  0  0  0  0  0
  191.0740  177.5370  144.3690 C   0  0  1  0  0  3  0  0  0  0  0  0
  192.1240  179.7120  144.4670 O   0  0  0  0  0  1  0  0  0  0  0  0
  191.0560  178.9980  143.9200 C   0  0  0  0  0  2  0  0  0  0  0  0
  189.8060  177.1450  145.1250 C   0  0  0  0  0  2  0  0  0  0  0  0
  187.6950  178.1520  147.6570 C   0  0  0  0  0  2  0  0  0  0  0  0
  188.5370  177.9300  148.7870 C   0  0  0  0  0  2  0  0  0  0  0  0
  190.0490  177.1390  146.6010 C   0  0  0  0  0  0  0  0  0  0  0  0
  189.0910  177.5860  147.4080 C   0  0  0  0  0  0  0  0  0  0  0  0
  191.3410  176.6930  147.1490 C   0  0  0  0  0  0  0  0  0  0  0  0
  191.8870  177.3250  148.0930 O   0  0  0  0  0  1  0  0  0  0  0  0
  191.9700  175.5700  146.6360 O   0  0  0  0  0  0  0  0  0  0  0  0
  1 21  1  1  0  0  0
  1 14  1  0  0  0  0
  2  8  1  0  0  0  0
  3 10  2  0  0  0  0
  3 11  1  0  0  0  0
  4 12  1  1  0  0  0
  4  1  1  0  0  0  0
  5  6  1  0  0  0  0
  5 17  1  1  0  0  0
  6 13  1  0  0  0  0
  7  4  1  0  0  0  0
  8 35  1  0  0  0  0
  8 16  2  0  0  0  0
  9  2  2  0  0  0  0
 10  9  1  0  0  0  0
 11  2  1  0  0  0  0
 14  5  1  0  0  0  0
 15  7  1  0  0  0  0
 15 10  1  0  0  0  0
 16 13  2  0  0  0  0
 17 18  2  0  0  0  0
 17 20  1  0  0  0  0
 20 19  1  0  0  0  0
 21 22  1  0  0  0  0
 23 22  1  0  0  0  0
 24 23  1  0  0  0  0
 24 26  2  0  0  0  0
 25 24  2  0  0  0  0
 27 24  1  0  0  0  0
 28 27  1  6  0  0  0
 28 32  1  0  0  0  0
 29 31  1  0  0  0  0
 29 32  1  0  0  0  0
 30 34  1  0  0  0  0
 30 28  1  0  0  0  0
 33 34  1  0  0  0  0
 34 29  2  0  0  0  0
 35 37  1  0  0  0  0
 36 38  1  0  0  0  0
 36 39  2  0  0  0  0
 37 36  1  0  0  0  0
 38 40  1  0  0  0  0
 40 41  1  0  0  0  0
 42 41  1  6  0  0  0
 42 45  1  0  0  0  0
 44 42  1  0  0  0  0
 44 43  1  0  0  0  0
 45 48  1  0  0  0  0
 46 47  1  0  0  0  0
 48 50  1  0  0  0  0
 48 49  2  0  0  0  0
 49 46  1  0  0  0  0
 49 47  1  0  0  0  0
 50 51  1  0  0  0  0
 52 50  2  0  0  0  0
M  END
>  <MODEL>
2

>  <REMARK>
 VINA RESULT:      -7.3      3.279      5.045
  Name = 
  17 active torsions:
  status: ('A' for Active; 'I' for Inactive)
    1  A    between atoms: C_1  and  N_22
    2  A    between atoms: C_1  and  C_49
    3  A    between atoms: C_2  and  N_14
    4  A    between atoms: O_4  and  C_11
    5  A    between atoms: O_4  and  C_35
    6  A    between atoms: N_5  and  N_18
    7  A    between atoms: N_5  and  C_36
    8  A    between atoms: S_6  and  N_14
    9  A    between atoms: S_6  and  C_35
   10  A    between atoms: C_8  and  C_28
   11  A    between atoms: C_8  and  C_31
   12  A    between atoms: C_10  and  C_28
   13  A    between atoms: C_11  and  C_12
   14  A    between atoms: C_26  and  C_30
   15  A    between atoms: C_26  and  O_45
   16  A    between atoms: C_31  and  C_44
   17  A    between atoms: C_31  and  C_49
                            x       y       z     vdW  Elec       q    Type
                         _______ _______ _______ _____ _____    ______ ____

>  <TORSDO>
F 17

$$$$
=
 OpenBabel10232409243D

 52 55  0  0  1  0  0  0  0  0999 V2000
  184.9340  178.5980  139.5520 C   0  0  1  0  0  3  0  0  0  0  0  0
  184.7240  174.8620  136.9030 C   0  0  0  0  0  0  0  0  0  0  0  0
  182.6570  174.6330  137.6320 N   0  0  0  0  0  0  0  0  0  0  0  0
  183.4710  179.0430  139.4010 C   0  0  2  0  0  3  0  0  0  0  0  0
  186.9010  177.9090  138.1470 C   0  0  2  0  0  3  0  0  0  0  0  0
  187.3670  177.8800  136.6950 C   0  0  0  0  0  2  0  0  0  0  0  0
  182.7180  178.2060  138.3740 C   0  0  0  0  0  2  0  0  0  0  0  0
  186.0060  174.6060  136.2280 C   0  0  0  0  0  0  0  0  0  0  0  0
  184.4670  175.9750  137.6090 N   0  0  0  0  0  0  0  0  0  0  0  0
  183.1980  175.8030  138.0220 C   0  0  0  0  0  0  0  0  0  0  0  0
  183.6240  174.0290  136.9120 C   0  0  0  0  0  2  0  0  0  0  0  0
  183.3940  180.3930  139.0480 O   0  0  0  0  0  1  0  0  0  0  0  0
  187.8040  176.5040  136.3030 C   0  0  0  0  0  3  0  0  0  0  0  0
  185.8020  178.9490  138.3410 C   0  0  0  0  0  2  0  0  0  0  0  0
  182.4850  176.7900  138.8830 C   0  0  0  0  0  2  0  0  0  0  0  0
  186.9310  175.5340  136.2530 C   0  0  0  0  0  0  0  0  0  0  0  0
  188.0600  178.1340  139.0790 C   0  0  0  0  0  0  0  0  0  0  0  0
  188.7900  179.1510  138.9380 O   0  0  0  0  0  0  0  0  0  0  0  0
  189.3550  177.4750  141.0730 C   0  0  0  0  0  1  0  0  0  0  0  0
  188.3380  177.2360  140.1110 O   0  0  0  0  0  0  0  0  0  0  0  0
  185.5500  179.0970  140.8630 C   0  0  0  0  0  2  0  0  0  0  0  0
  185.6410  178.0730  141.8130 O   0  0  0  0  0  0  0  0  0  0  0  0
  184.4510  178.1380  142.5390 C   0  0  0  0  0  2  0  0  0  0  0  0
  184.7130  179.0130  144.0700 S   0  0  0  0  0  0  0  0  0  0  0  0
  183.8250  178.4270  145.1320 O   0  0  0  0  0  0  0  0  0  0  0  0
  184.3810  180.4670  143.8840 O   0  0  0  0  0  0  0  0  0  0  0  0
  186.3740  178.8470  144.5310 N   0  0  0  0  0  2  0  0  0  0  0  0
  186.5500  177.5190  145.0990 C   0  0  1  0  0  3  0  0  0  0  0  0
  188.3540  177.6210  146.8770 C   0  0  0  0  0  0  0  0  0  0  0  0
  187.8910  176.9430  144.6490 C   0  0  0  0  0  2  0  0  0  0  0  0
  189.1670  178.0560  148.0540 C   0  0  0  0  0  1  0  0  0  0  0  0
  186.5700  177.6440  146.9200 S   0  0  0  0  0  0  0  0  0  0  0  0
  190.3530  177.1480  145.4740 C   0  0  0  0  0  1  0  0  0  0  0  0
  188.8800  177.2560  145.7160 C   0  0  0  0  0  0  0  0  0  0  0  0
  186.2050  173.3910  135.4990 N   0  0  0  0  0  2  0  0  0  0  0  0
  188.5480  172.6730  135.2880 C   0  0  0  0  0  0  0  0  0  0  0  0
  187.3450  173.1780  134.7120 N   0  0  0  0  0  2  0  0  0  0  0  0
  189.7200  172.5760  134.4810 N   0  0  0  0  0  2  0  0  0  0  0  0
  188.5660  172.3020  136.4960 O   0  0  0  0  0  0  0  0  0  0  0  0
  190.9430  171.9600  134.9690 C   0  0  0  0  0  2  0  0  0  0  0  0
  192.0250  173.0170  135.1150 C   0  0  0  0  0  2  0  0  0  0  0  0
  193.1370  172.6020  136.0810 C   0  0  1  0  0  3  0  0  0  0  0  0
  194.2240  170.6680  137.0400 O   0  0  0  0  0  1  0  0  0  0  0  0
  193.5950  171.1560  135.8930 C   0  0  0  0  0  2  0  0  0  0  0  0
  194.3050  173.5850  136.0940 C   0  0  0  0  0  2  0  0  0  0  0  0
  192.3010  176.1890  137.1340 C   0  0  0  0  0  2  0  0  0  0  0  0
  192.8880  176.4650  138.4040 C   0  0  0  0  0  2  0  0  0  0  0  0
  194.3500  174.3390  137.3850 C   0  0  0  0  0  0  0  0  0  0  0  0
  193.4800  175.3260  137.5780 C   0  0  0  0  0  0  0  0  0  0  0  0
  195.3670  174.0290  138.4040 C   0  0  0  0  0  0  0  0  0  0  0  0
  195.2580  173.0000  139.1240 O   0  0  0  0  0  1  0  0  0  0  0  0
  196.4580  174.8650  138.5810 O   0  0  0  0  0  0  0  0  0  0  0  0
  1 21  1  1  0  0  0
  2 11  1  0  0  0  0
  2  9  2  0  0  0  0
  3 10  2  0  0  0  0
  4 12  1  6  0  0  0
  4  1  1  0  0  0  0
  5 14  1  0  0  0  0
  5 17  1  1  0  0  0
  6  5  1  0  0  0  0
  7 15  1  0  0  0  0
  7  4  1  0  0  0  0
  8 16  2  0  0  0  0
  8  2  1  0  0  0  0
  9 10  1  0  0  0  0
 10 15  1  0  0  0  0
 11  3  1  0  0  0  0
 13  6  1  0  0  0  0
 14  1  1  0  0  0  0
 16 13  2  0  0  0  0
 17 20  1  0  0  0  0
 18 17  2  0  0  0  0
 20 19  1  0  0  0  0
 21 22  1  0  0  0  0
 22 23  1  0  0  0  0
 23 24  1  0  0  0  0
 24 27  1  0  0  0  0
 24 25  2  0  0  0  0
 26 24  2  0  0  0  0
 28 27  1  6  0  0  0
 28 32  1  0  0  0  0
 29 32  1  0  0  0  0
 29 31  1  0  0  0  0
 30 28  1  0  0  0  0
 30 34  1  0  0  0  0
 33 34  1  0  0  0  0
 34 29  2  0  0  0  0
 35  8  1  0  0  0  0
 36 39  2  0  0  0  0
 37 36  1  0  0  0  0
 37 35  1  0  0  0  0
 38 40  1  0  0  0  0
 38 36  1  0  0  0  0
 40 41  1  0  0  0  0
 42 41  1  6  0  0  0
 42 45  1  0  0  0  0
 44 42  1  0  0  0  0
 44 43  1  0  0  0  0
 45 48  1  0  0  0  0
 46 49  1  0  0  0  0
 46 47  1  0  0  0  0
 48 49  2  0  0  0  0
 48 50  1  0  0  0  0
 49 47  1  0  0  0  0
 50 52  2  0  0  0  0
 50 51  1  0  0  0  0
M  END
>  <MODEL>
3

>  <REMARK>
 VINA RESULT:      -7.0      3.717      9.244
  Name = 
  17 active torsions:
  status: ('A' for Active; 'I' for Inactive)
    1  A    between atoms: C_1  and  N_22
    2  A    between atoms: C_1  and  C_49
    3  A    between atoms: C_2  and  N_14
    4  A    between atoms: O_4  and  C_11
    5  A    between atoms: O_4  and  C_35
    6  A    between atoms: N_5  and  N_18
    7  A    between atoms: N_5  and  C_36
    8  A    between atoms: S_6  and  N_14
    9  A    between atoms: S_6  and  C_35
   10  A    between atoms: C_8  and  C_28
   11  A    between atoms: C_8  and  C_31
   12  A    between atoms: C_10  and  C_28
   13  A    between atoms: C_11  and  C_12
   14  A    between atoms: C_26  and  C_30
   15  A    between atoms: C_26  and  O_45
   16  A    between atoms: C_31  and  C_44
   17  A    between atoms: C_31  and  C_49
                            x       y       z     vdW  Elec       q    Type
                         _______ _______ _______ _____ _____    ______ ____

>  <TORSDO>
F 17

$$$$
=
 OpenBabel10232409243D

 52 55  0  0  1  0  0  0  0  0999 V2000
  184.6440  177.6410  137.8400 C   0  0  1  0  0  3  0  0  0  0  0  0
  186.2200  173.5540  136.4890 C   0  0  0  0  0  0  0  0  0  0  0  0
  184.4820  172.6940  137.5360 N   0  0  0  0  0  0  0  0  0  0  0  0
  183.1430  177.3190  137.7710 C   0  0  2  0  0  3  0  0  0  0  0  0
  186.7270  177.4670  136.4440 C   0  0  2  0  0  3  0  0  0  0  0  0
  187.1740  177.1690  135.0160 C   0  0  0  0  0  2  0  0  0  0  0  0
  182.8760  175.9500  137.1580 C   0  0  0  0  0  2  0  0  0  0  0  0
  187.4850  173.6820  135.7470 C   0  0  0  0  0  0  0  0  0  0  0  0
  185.4680  174.6030  136.8570 N   0  0  0  0  0  0  0  0  0  0  0  0
  184.4160  174.0390  137.4770 C   0  0  0  0  0  0  0  0  0  0  0  0
  185.6290  172.3770  136.9010 C   0  0  0  0  0  2  0  0  0  0  0  0
  182.4560  178.2960  137.0440 O   0  0  0  0  0  1  0  0  0  0  0  0
  188.2020  176.0820  134.9970 C   0  0  0  0  0  3  0  0  0  0  0  0
  185.2690  177.9160  136.4700 C   0  0  0  0  0  2  0  0  0  0  0  0
  183.3160  174.8340  138.0950 C   0  0  0  0  0  2  0  0  0  0  0  0
  187.8760  174.8710  135.3630 C   0  0  0  0  0  0  0  0  0  0  0  0
  187.6370  178.4730  137.0930 C   0  0  0  0  0  0  0  0  0  0  0  0
  187.4930  179.7000  136.8460 O   0  0  0  0  0  0  0  0  0  0  0  0
  188.5080  178.2020  139.3850 C   0  0  0  0  0  1  0  0  0  0  0  0
  188.6400  178.0700  137.9770 O   0  0  0  0  0  0  0  0  0  0  0  0
  184.9410  178.7630  138.8400 C   0  0  0  0  0  2  0  0  0  0  0  0
  185.0600  178.2710  140.1460 O   0  0  0  0  0  0  0  0  0  0  0  0
  184.9510  179.3900  140.9720 C   0  0  0  0  0  2  0  0  0  0  0  0
  185.2550  178.9320  142.6680 S   0  0  0  0  0  0  0  0  0  0  0  0
  184.3550  177.7860  143.0380 O   0  0  0  0  0  0  0  0  0  0  0  0
  184.9710  180.1030  143.5660 O   0  0  0  0  0  0  0  0  0  0  0  0
  186.9130  178.4580  142.8300 N   0  0  0  0  0  2  0  0  0  0  0  0
  186.9480  177.1840  143.5310 C   0  0  1  0  0  3  0  0  0  0  0  0
  188.7990  177.2500  145.2610 C   0  0  0  0  0  0  0  0  0  0  0  0
  188.1990  176.4090  143.1220 C   0  0  0  0  0  2  0  0  0  0  0  0
  189.6890  177.7010  146.3740 C   0  0  0  0  0  1  0  0  0  0  0  0
  187.0310  177.4880  145.3280 S   0  0  0  0  0  0  0  0  0  0  0  0
  190.6890  176.4020  143.8850 C   0  0  0  0  0  1  0  0  0  0  0  0
  189.2460  176.7090  144.1370 C   0  0  0  0  0  0  0  0  0  0  0  0
  188.2320  172.5130  135.3950 N   0  0  0  0  0  2  0  0  0  0  0  0
  190.5820  172.9420  135.9820 C   0  0  0  0  0  0  0  0  0  0  0  0
  189.5840  172.5810  135.0310 N   0  0  0  0  0  2  0  0  0  0  0  0
  191.9310  173.1120  135.5490 N   0  0  0  0  0  2  0  0  0  0  0  0
  190.2740  173.0940  137.1980 O   0  0  0  0  0  0  0  0  0  0  0  0
  193.0160  173.3600  136.4830 C   0  0  0  0  0  2  0  0  0  0  0  0
  193.5910  174.7460  136.2430 C   0  0  0  0  0  2  0  0  0  0  0  0
  194.1960  175.3670  137.5030 C   0  0  1  0  0  3  0  0  0  0  0  0
  193.8500  177.0450  139.2070 O   0  0  0  0  0  1  0  0  0  0  0  0
  193.1980  176.1980  138.3090 C   0  0  0  0  0  2  0  0  0  0  0  0
  194.9350  174.3480  138.3680 C   0  0  0  0  0  2  0  0  0  0  0  0
  196.1750  171.3430  137.2200 C   0  0  0  0  0  2  0  0  0  0  0  0
  197.5000  171.7380  136.8680 C   0  0  0  0  0  2  0  0  0  0  0  0
  196.2870  174.0510  137.8000 C   0  0  0  0  0  0  0  0  0  0  0  0
  196.5630  172.8060  137.4240 C   0  0  0  0  0  0  0  0  0  0  0  0
  197.3100  175.1050  137.7030 C   0  0  0  0  0  0  0  0  0  0  0  0
  197.9420  175.4790  138.7280 O   0  0  0  0  0  1  0  0  0  0  0  0
  197.5940  175.6970  136.4820 O   0  0  0  0  0  0  0  0  0  0  0  0
  1 21  1  1  0  0  0
  2  9  2  0  0  0  0
  2 11  1  0  0  0  0
  4 12  1  6  0  0  0
  4  1  1  0  0  0  0
  5 14  1  0  0  0  0
  5 17  1  6  0  0  0
  6  5  1  0  0  0  0
  7  4  1  0  0  0  0
  7 15  1  0  0  0  0
  8  2  1  0  0  0  0
  9 10  1  0  0  0  0
 10  3  2  0  0  0  0
 10 15  1  0  0  0  0
 11  3  1  0  0  0  0
 13  6  1  0  0  0  0
 13 16  2  0  0  0  0
 14  1  1  0  0  0  0
 16  8  2  0  0  0  0
 17 20  1  0  0  0  0
 18 17  2  0  0  0  0
 20 19  1  0  0  0  0
 21 22  1  0  0  0  0
 22 23  1  0  0  0  0
 23 24  1  0  0  0  0
 24 27  1  0  0  0  0
 24 25  2  0  0  0  0
 24 26  2  0  0  0  0
 28 27  1  6  0  0  0
 28 32  1  0  0  0  0
 29 32  1  0  0  0  0
 29 31  1  0  0  0  0
 30 28  1  0  0  0  0
 30 34  1  0  0  0  0
 33 34  1  0  0  0  0
 34 29  2  0  0  0  0
 35  8  1  0  0  0  0
 36 39  2  0  0  0  0
 37 35  1  0  0  0  0
 37 36  1  0  0  0  0
 38 36  1  0  0  0  0
 38 40  1  0  0  0  0
 41 40  1  0  0  0  0
 42 41  1  6  0  0  0
 42 44  1  0  0  0  0
 42 45  1  0  0  0  0
 44 43  1  0  0  0  0
 46 49  1  0  0  0  0
 47 46  1  0  0  0  0
 47 49  1  0  0  0  0
 48 45  1  0  0  0  0
 49 48  2  0  0  0  0
 50 48  1  0  0  0  0
 50 51  1  0  0  0  0
 52 50  2  0  0  0  0
M  END
>  <MODEL>
4

>  <REMARK>
 VINA RESULT:      -6.5      3.760      8.912
  Name = 
  17 active torsions:
  status: ('A' for Active; 'I' for Inactive)
    1  A    between atoms: C_1  and  N_22
    2  A    between atoms: C_1  and  C_49
    3  A    between atoms: C_2  and  N_14
    4  A    between atoms: O_4  and  C_11
    5  A    between atoms: O_4  and  C_35
    6  A    between atoms: N_5  and  N_18
    7  A    between atoms: N_5  and  C_36
    8  A    between atoms: S_6  and  N_14
    9  A    between atoms: S_6  and  C_35
   10  A    between atoms: C_8  and  C_28
   11  A    between atoms: C_8  and  C_31
   12  A    between atoms: C_10  and  C_28
   13  A    between atoms: C_11  and  C_12
   14  A    between atoms: C_26  and  C_30
   15  A    between atoms: C_26  and  O_45
   16  A    between atoms: C_31  and  C_44
   17  A    between atoms: C_31  and  C_49
                            x       y       z     vdW  Elec       q    Type
                         _______ _______ _______ _____ _____    ______ ____

>  <TORSDO>
F 17

$$$$
=
 OpenBabel10232409243D

 52 55  0  0  1  0  0  0  0  0999 V2000
  190.2070  177.1120  139.9180 C   0  0  1  0  0  3  0  0  0  0  0  0
  186.3360  178.5860  141.8820 C   0  0  0  0  0  0  0  0  0  0  0  0
  185.7110  179.2030  139.8610 N   0  0  0  0  0  0  0  0  0  0  0  0
  189.6040  176.6650  138.5770 C   0  0  2  0  0  3  0  0  0  0  0  0
  189.8400  176.8420  142.3900 C   0  0  2  0  0  3  0  0  0  0  0  0
  189.0320  176.0130  143.3840 C   0  0  0  0  0  2  0  0  0  0  0  0
  188.0820  176.7430  138.5770 C   0  0  0  0  0  2  0  0  0  0  0  0
  186.3650  178.3950  143.3410 C   0  0  0  0  0  0  0  0  0  0  0  0
  187.2720  178.0990  141.0520 N   0  0  0  0  0  0  0  0  0  0  0  0
  186.8490  178.4820  139.8350 C   0  0  0  0  0  0  0  0  0  0  0  0
  185.3740  179.2680  141.1650 C   0  0  0  0  0  2  0  0  0  0  0  0
  190.0030  175.3650  138.2580 O   0  0  0  0  0  1  0  0  0  0  0  0
  188.2720  176.8970  144.3200 C   0  0  0  0  0  3  0  0  0  0  0  0
  189.9610  176.1150  141.0540 C   0  0  0  0  0  2  0  0  0  0  0  0
  187.6050  178.1890  138.5830 C   0  0  0  0  0  2  0  0  0  0  0  0
  187.3110  177.6560  143.8640 C   0  0  0  0  0  0  0  0  0  0  0  0
  191.1840  177.2030  142.9590 C   0  0  0  0  0  0  0  0  0  0  0  0
  191.9650  176.2950  143.3480 O   0  0  0  0  0  0  0  0  0  0  0  0
  191.1630  179.3840  144.1120 C   0  0  0  0  0  1  0  0  0  0  0  0
  191.5890  178.5360  143.0560 O   0  0  0  0  0  0  0  0  0  0  0  0
  191.6890  177.4740  139.7840 C   0  0  0  0  0  2  0  0  0  0  0  0
  192.1870  177.1510  138.5160 O   0  0  0  0  0  0  0  0  0  0  0  0
  193.3230  176.3760  138.7510 C   0  0  0  0  0  2  0  0  0  0  0  0
  193.7350  175.4330  137.2960 S   0  0  0  0  0  0  0  0  0  0  0  0
  193.0070  176.0080  136.1130 O   0  0  0  0  0  0  0  0  0  0  0  0
  193.3240  174.0010  137.4900 O   0  0  0  0  0  0  0  0  0  0  0  0
  195.4450  175.5220  137.0390 N   0  0  0  0  0  2  0  0  0  0  0  0
  195.8720  174.2720  136.4300 C   0  0  1  0  0  3  0  0  0  0  0  0
  198.3510  173.9570  136.8580 C   0  0  0  0  0  0  0  0  0  0  0  0
  196.7490  174.5670  135.2140 C   0  0  0  0  0  2  0  0  0  0  0  0
  199.6780  173.8890  137.5430 C   0  0  0  0  0  1  0  0  0  0  0  0
  196.8700  173.3290  137.6330 S   0  0  0  0  0  0  0  0  0  0  0  0
  199.2710  175.1020  134.8510 C   0  0  0  0  0  1  0  0  0  0  0  0
  198.1620  174.5330  135.6780 C   0  0  0  0  0  0  0  0  0  0  0  0
  185.3310  178.9520  144.1590 N   0  0  0  0  0  2  0  0  0  0  0  0
  182.8840  178.9210  143.9150 C   0  0  0  0  0  0  0  0  0  0  0  0
  184.0990  178.3060  144.3360 N   0  0  0  0  0  2  0  0  0  0  0  0
  181.6410  178.2860  144.2130 N   0  0  0  0  0  2  0  0  0  0  0  0
  182.9120  180.0070  143.2700 O   0  0  0  0  0  0  0  0  0  0  0  0
  180.3750  178.7940  143.7100 C   0  0  0  0  0  2  0  0  0  0  0  0
  179.9820  178.0330  142.4550 C   0  0  0  0  0  2  0  0  0  0  0  0
  180.1710  178.8530  141.1770 C   0  0  1  0  0  3  0  0  0  0  0  0
  180.0960  181.0550  140.1830 O   0  0  0  0  0  1  0  0  0  0  0  0
  179.9840  180.3550  141.3870 C   0  0  0  0  0  2  0  0  0  0  0  0
  181.4750  178.5250  140.4520 C   0  0  0  0  0  2  0  0  0  0  0  0
  180.4600  175.2520  140.0780 C   0  0  0  0  0  2  0  0  0  0  0  0
  180.4330  175.1600  138.6550 C   0  0  0  0  0  2  0  0  0  0  0  0
  181.2040  177.7700  139.1890 C   0  0  0  0  0  0  0  0  0  0  0  0
  180.8280  176.4970  139.2740 C   0  0  0  0  0  0  0  0  0  0  0  0
  181.3970  178.4060  137.8750 C   0  0  0  0  0  0  0  0  0  0  0  0
  180.6450  179.3470  137.5040 O   0  0  0  0  0  1  0  0  0  0  0  0
  182.4100  177.9790  137.0320 O   0  0  0  0  0  0  0  0  0  0  0  0
  1 21  1  6  0  0  0
  1 14  1  0  0  0  0
  2  8  1  0  0  0  0
  3 11  1  0  0  0  0
  4 12  1  1  0  0  0
  4  7  1  0  0  0  0
  4  1  1  0  0  0  0
  5 17  1  1  0  0  0
  5  6  1  0  0  0  0
  6 13  1  0  0  0  0
  7 15  1  0  0  0  0
  8 16  2  0  0  0  0
  8 35  1  0  0  0  0
  9  2  2  0  0  0  0
 10  3  2  0  0  0  0
 10  9  1  0  0  0  0
 11  2  1  0  0  0  0
 14  5  1  0  0  0  0
 15 10  1  0  0  0  0
 16 13  2  0  0  0  0
 17 20  1  0  0  0  0
 17 18  2  0  0  0  0
 20 19  1  0  0  0  0
 22 23  1  0  0  0  0
 22 21  1  0  0  0  0
 24 26  2  0  0  0  0
 24 23  1  0  0  0  0
 25 24  2  0  0  0  0
 27 24  1  0  0  0  0
 28 27  1  1  0  0  0
 28 32  1  0  0  0  0
 29 31  1  0  0  0  0
 29 32  1  0  0  0  0
 30 34  1  0  0  0  0
 30 28  1  0  0  0  0
 33 34  1  0  0  0  0
 34 29  2  0  0  0  0
 35 37  1  0  0  0  0
 36 38  1  0  0  0  0
 36 37  1  0  0  0  0
 39 36  2  0  0  0  0
 40 38  1  0  0  0  0
 41 40  1  0  0  0  0
 42 45  1  1  0  0  0
 42 44  1  0  0  0  0
 42 41  1  0  0  0  0
 43 44  1  0  0  0  0
 47 49  1  0  0  0  0
 47 46  1  0  0  0  0
 48 49  2  0  0  0  0
 48 45  1  0  0  0  0
 49 46  1  0  0  0  0
 50 48  1  0  0  0  0
 51 50  1  0  0  0  0
 52 50  2  0  0  0  0
M  END
>  <MODEL>
5

>  <REMARK>
 VINA RESULT:      -6.4      3.439      7.735
  Name = 
  17 active torsions:
  status: ('A' for Active; 'I' for Inactive)
    1  A    between atoms: C_1  and  N_22
    2  A    between atoms: C_1  and  C_49
    3  A    between atoms: C_2  and  N_14
    4  A    between atoms: O_4  and  C_11
    5  A    between atoms: O_4  and  C_35
    6  A    between atoms: N_5  and  N_18
    7  A    between atoms: N_5  and  C_36
    8  A    between atoms: S_6  and  N_14
    9  A    between atoms: S_6  and  C_35
   10  A    between atoms: C_8  and  C_28
   11  A    between atoms: C_8  and  C_31
   12  A    between atoms: C_10  and  C_28
   13  A    between atoms: C_11  and  C_12
   14  A    between atoms: C_26  and  C_30
   15  A    between atoms: C_26  and  O_45
   16  A    between atoms: C_31  and  C_44
   17  A    between atoms: C_31  and  C_49
                            x       y       z     vdW  Elec       q    Type
                         _______ _______ _______ _____ _____    ______ ____

>  <TORSDO>
F 17

$$$$
=
 OpenBabel10232409243D

 52 55  0  0  1  0  0  0  0  0999 V2000
  186.8800  175.2910  136.2120 C   0  0  1  0  0  3  0  0  0  0  0  0
  184.4240  177.7760  139.1790 C   0  0  0  0  0  0  0  0  0  0  0  0
  182.6480  176.8030  138.3080 N   0  0  0  0  0  0  0  0  0  0  0  0
  185.9880  174.0390  136.1990 C   0  0  2  0  0  3  0  0  0  0  0  0
  188.0140  176.8420  137.8330 C   0  0  2  0  0  3  0  0  0  0  0  0
  188.3560  176.9630  139.3140 C   0  0  0  0  0  2  0  0  0  0  0  0
  184.8750  174.1170  137.2360 C   0  0  0  0  0  2  0  0  0  0  0  0
  185.2820  178.6650  139.9780 C   0  0  0  0  0  0  0  0  0  0  0  0
  184.9010  176.8320  138.3520 N   0  0  0  0  0  0  0  0  0  0  0  0
  183.7930  176.2550  137.8540 C   0  0  0  0  0  0  0  0  0  0  0  0
  183.0440  177.7710  139.1600 C   0  0  0  0  0  2  0  0  0  0  0  0
  186.7450  172.8840  136.4140 O   0  0  0  0  0  1  0  0  0  0  0  0
  187.8630  178.2610  139.8700 C   0  0  0  0  0  3  0  0  0  0  0  0
  187.7750  175.3850  137.4510 C   0  0  0  0  0  2  0  0  0  0  0  0
  183.8320  175.1560  136.8470 C   0  0  0  0  0  2  0  0  0  0  0  0
  186.5800  178.4940  139.9410 C   0  0  0  0  0  0  0  0  0  0  0  0
  189.0770  177.4800  136.9820 C   0  0  0  0  0  0  0  0  0  0  0  0
  190.2820  177.1370  137.1220 O   0  0  0  0  0  0  0  0  0  0  0  0
  187.4250  178.9200  135.8480 C   0  0  0  0  0  1  0  0  0  0  0  0
  188.7510  178.4430  136.0250 O   0  0  0  0  0  0  0  0  0  0  0  0
  187.6830  175.4330  134.9150 C   0  0  0  0  0  2  0  0  0  0  0  0
  188.4130  174.2730  134.6300 O   0  0  0  0  0  0  0  0  0  0  0  0
  189.7530  174.6540  134.7040 C   0  0  0  0  0  2  0  0  0  0  0  0
  190.6700  173.4870  135.6920 S   0  0  0  0  0  0  0  0  0  0  0  0
  190.3490  172.0920  135.2320 O   0  0  0  0  0  0  0  0  0  0  0  0
  190.2890  173.6400  137.1370 O   0  0  0  0  0  0  0  0  0  0  0  0
  192.3630  173.7990  135.4970 N   0  0  0  0  0  2  0  0  0  0  0  0
  192.7710  174.7230  136.5420 C   0  0  1  0  0  3  0  0  0  0  0  0
  195.2690  175.1150  136.3610 C   0  0  0  0  0  0  0  0  0  0  0  0
  193.5890  173.9770  137.5950 C   0  0  0  0  0  2  0  0  0  0  0  0
  196.6260  175.4000  135.8030 C   0  0  0  0  0  1  0  0  0  0  0  0
  193.8300  176.0210  135.8170 S   0  0  0  0  0  0  0  0  0  0  0  0
  196.0890  173.2850  137.8330 C   0  0  0  0  0  1  0  0  0  0  0  0
  195.0220  174.1480  137.2330 C   0  0  0  0  0  0  0  0  0  0  0  0
  184.6950  179.6510  140.8340 N   0  0  0  0  0  2  0  0  0  0  0  0
  184.9860  178.9070  143.1610 C   0  0  0  0  0  0  0  0  0  0  0  0
  185.1690  179.8790  142.1340 N   0  0  0  0  0  2  0  0  0  0  0  0
  185.3790  179.2210  144.4960 N   0  0  0  0  0  2  0  0  0  0  0  0
  184.4950  177.7760  142.8840 O   0  0  0  0  0  0  0  0  0  0  0  0
  185.3320  178.2370  145.5650 C   0  0  0  0  0  2  0  0  0  0  0  0
  185.9910  178.8040  146.8110 C   0  0  0  0  0  2  0  0  0  0  0  0
  187.4070  178.2690  147.0330 C   0  0  1  0  0  3  0  0  0  0  0  0
  189.1770  178.7650  148.6020 O   0  0  0  0  0  1  0  0  0  0  0  0
  187.8550  178.3280  148.4930 C   0  0  0  0  0  2  0  0  0  0  0  0
  187.6200  176.8880  146.4150 C   0  0  0  0  0  2  0  0  0  0  0  0
  190.9960  176.6410  147.0650 C   0  0  0  0  0  2  0  0  0  0  0  0
  191.5160  176.7740  145.7430 C   0  0  0  0  0  2  0  0  0  0  0  0
  188.7610  176.9110  145.4480 C   0  0  0  0  0  0  0  0  0  0  0  0
  190.0000  176.8100  145.9200 C   0  0  0  0  0  0  0  0  0  0  0  0
  188.5220  177.0900  144.0060 C   0  0  0  0  0  0  0  0  0  0  0  0
  188.7100  178.2110  143.4620 O   0  0  0  0  0  1  0  0  0  0  0  0
  188.0910  176.0270  143.2290 O   0  0  0  0  0  0  0  0  0  0  0  0
  1 21  1  6  0  0  0
  1 14  1  0  0  0  0
  2  8  1  0  0  0  0
  3 11  1  0  0  0  0
  4  1  1  0  0  0  0
  4 12  1  1  0  0  0
  4  7  1  0  0  0  0
  5 17  1  6  0  0  0
  5  6  1  0  0  0  0
  6 13  1  0  0  0  0
  8 35  1  0  0  0  0
  9  2  2  0  0  0  0
 10  3  2  0  0  0  0
 10  9  1  0  0  0  0
 11  2  1  0  0  0  0
 13 16  2  0  0  0  0
 14  5  1  0  0  0  0
 15  7  1  0  0  0  0
 15 10  1  0  0  0  0
 16  8  2  0  0  0  0
 17 18  2  0  0  0  0
 19 20  1  0  0  0  0
 20 17  1  0  0  0  0
 22 23  1  0  0  0  0
 22 21  1  0  0  0  0
 23 24  1  0  0  0  0
 24 26  2  0  0  0  0
 25 24  2  0  0  0  0
 27 24  1  0  0  0  0
 28 27  1  6  0  0  0
 28 30  1  0  0  0  0
 29 34  2  0  0  0  0
 31 29  1  0  0  0  0
 32 29  1  0  0  0  0
 32 28  1  0  0  0  0
 34 30  1  0  0  0  0
 34 33  1  0  0  0  0
 35 37  1  0  0  0  0
 36 38  1  0  0  0  0
 37 36  1  0  0  0  0
 38 40  1  0  0  0  0
 39 36  2  0  0  0  0
 40 41  1  0  0  0  0
 41 42  1  0  0  0  0
 42 45  1  1  0  0  0
 42 44  1  0  0  0  0
 44 43  1  0  0  0  0
 47 49  1  0  0  0  0
 47 46  1  0  0  0  0
 48 49  2  0  0  0  0
 48 45  1  0  0  0  0
 49 46  1  0  0  0  0
 50 48  1  0  0  0  0
 51 50  1  0  0  0  0
 52 50  2  0  0  0  0
M  END
>  <MODEL>
6

>  <REMARK>
 VINA RESULT:      -6.2      2.088      3.802
  Name = 
  17 active torsions:
  status: ('A' for Active; 'I' for Inactive)
    1  A    between atoms: C_1  and  N_22
    2  A    between atoms: C_1  and  C_49
    3  A    between atoms: C_2  and  N_14
    4  A    between atoms: O_4  and  C_11
    5  A    between atoms: O_4  and  C_35
    6  A    between atoms: N_5  and  N_18
    7  A    between atoms: N_5  and  C_36
    8  A    between atoms: S_6  and  N_14
    9  A    between atoms: S_6  and  C_35
   10  A    between atoms: C_8  and  C_28
   11  A    between atoms: C_8  and  C_31
   12  A    between atoms: C_10  and  C_28
   13  A    between atoms: C_11  and  C_12
   14  A    between atoms: C_26  and  C_30
   15  A    between atoms: C_26  and  O_45
   16  A    between atoms: C_31  and  C_44
   17  A    between atoms: C_31  and  C_49
                            x       y       z     vdW  Elec       q    Type
                         _______ _______ _______ _____ _____    ______ ____

>  <TORSDO>
F 17

$$$$
=
 OpenBabel10232409243D

 52 55  0  0  1  0  0  0  0  0999 V2000
  191.3280  176.0550  138.4330 C   0  0  1  0  0  3  0  0  0  0  0  0
  188.1290  178.1520  140.9600 C   0  0  0  0  0  0  0  0  0  0  0  0
  189.4910  177.8660  142.6690 N   0  0  0  0  0  0  0  0  0  0  0  0
  192.5630  176.5790  139.1830 C   0  0  2  0  0  3  0  0  0  0  0  0
  189.2050  176.8910  137.3790 C   0  0  2  0  0  3  0  0  0  0  0  0
  188.5220  178.1900  136.9620 C   0  0  0  0  0  2  0  0  0  0  0  0
  192.1980  177.6220  140.2320 C   0  0  0  0  0  2  0  0  0  0  0  0
  186.9440  178.4910  140.1570 C   0  0  0  0  0  0  0  0  0  0  0  0
  189.2700  177.6780  140.4350 N   0  0  0  0  0  0  0  0  0  0  0  0
  190.0750  177.5310  141.5020 C   0  0  0  0  0  0  0  0  0  0  0  0
  188.2500  178.2700  142.3300 C   0  0  0  0  0  2  0  0  0  0  0  0
  193.4940  177.1220  138.2920 O   0  0  0  0  0  1  0  0  0  0  0  0
  187.1530  178.2860  137.5580 C   0  0  0  0  0  3  0  0  0  0  0  0
  190.7150  177.0850  137.4800 C   0  0  0  0  0  2  0  0  0  0  0  0
  191.4610  176.9880  141.4040 C   0  0  0  0  0  2  0  0  0  0  0  0
  187.0140  178.3920  138.8520 C   0  0  0  0  0  0  0  0  0  0  0  0
  188.8430  175.7690  136.4450 C   0  0  0  0  0  0  0  0  0  0  0  0
  189.2950  175.7610  135.2690 O   0  0  0  0  0  0  0  0  0  0  0  0
  188.3110  173.3640  136.5790 C   0  0  0  0  0  1  0  0  0  0  0  0
  188.0170  174.7240  136.8630 O   0  0  0  0  0  0  0  0  0  0  0  0
  191.6100  174.7220  137.7320 C   0  0  0  0  0  2  0  0  0  0  0  0
  192.2260  174.9140  136.4900 O   0  0  0  0  0  0  0  0  0  0  0  0
  193.4120  174.1810  136.5490 C   0  0  0  0  0  2  0  0  0  0  0  0
  194.6930  175.0130  135.6310 S   0  0  0  0  0  0  0  0  0  0  0  0
  194.1370  176.2810  135.0460 O   0  0  0  0  0  0  0  0  0  0  0  0
  195.1820  174.1210  134.5240 O   0  0  0  0  0  0  0  0  0  0  0  0
  196.0010  175.3810  136.7060 N   0  0  0  0  0  2  0  0  0  0  0  0
  196.3580  174.1610  137.4120 C   0  0  1  0  0  3  0  0  0  0  0  0
  197.3760  174.7770  139.6500 C   0  0  0  0  0  0  0  0  0  0  0  0
  197.8780  174.0200  137.4550 C   0  0  0  0  0  2  0  0  0  0  0  0
  197.6010  175.4200  140.9800 C   0  0  0  0  0  1  0  0  0  0  0  0
  195.7490  174.2610  139.1290 S   0  0  0  0  0  0  0  0  0  0  0  0
  199.7680  174.9450  138.9900 C   0  0  0  0  0  1  0  0  0  0  0  0
  198.3320  174.6020  138.7480 C   0  0  0  0  0  0  0  0  0  0  0  0
  185.7620  178.9870  140.7940 N   0  0  0  0  0  2  0  0  0  0  0  0
  183.5330  179.0280  139.7540 C   0  0  0  0  0  0  0  0  0  0  0  0
  184.5060  178.4000  140.5850 N   0  0  0  0  0  2  0  0  0  0  0  0
  182.2290  178.4600  139.6560 N   0  0  0  0  0  2  0  0  0  0  0  0
  183.8330  180.0680  139.1020 O   0  0  0  0  0  0  0  0  0  0  0  0
  181.2290  178.9790  138.7370 C   0  0  0  0  0  2  0  0  0  0  0  0
  180.2590  177.8720  138.3590 C   0  0  0  0  0  2  0  0  0  0  0  0
  180.9410  176.5140  138.1880 C   0  0  1  0  0  3  0  0  0  0  0  0
  180.1500  174.2460  138.4600 O   0  0  0  0  0  1  0  0  0  0  0  0
  180.4040  175.4420  139.1360 C   0  0  0  0  0  2  0  0  0  0  0  0
  180.9690  176.0450  136.7350 C   0  0  0  0  0  2  0  0  0  0  0  0
  183.3860  173.6120  137.0810 C   0  0  0  0  0  2  0  0  0  0  0  0
  184.4700  174.2370  136.3950 C   0  0  0  0  0  2  0  0  0  0  0  0
  182.3680  176.0370  136.2060 C   0  0  0  0  0  0  0  0  0  0  0  0
  183.1440  174.9900  136.4690 C   0  0  0  0  0  0  0  0  0  0  0  0
  182.8940  177.1870  135.4510 C   0  0  0  0  0  0  0  0  0  0  0  0
  184.0800  177.1820  135.0250 O   0  0  0  0  0  0  0  0  0  0  0  0
  182.0890  178.2870  135.1980 O   0  0  0  0  0  1  0  0  0  0  0  0
  1 21  1  6  0  0  0
  1  4  1  0  0  0  0
  2 11  1  0  0  0  0
  4 12  1  6  0  0  0
  4  7  1  0  0  0  0
  5 17  1  6  0  0  0
  5 14  1  0  0  0  0
  6  5  1  0  0  0  0
  6 13  1  0  0  0  0
  7 15  1  0  0  0  0
  8 35  1  0  0  0  0
  8  2  1  0  0  0  0
  9  2  2  0  0  0  0
  9 10  1  0  0  0  0
 10  3  2  0  0  0  0
 11  3  1  0  0  0  0
 13 16  2  0  0  0  0
 14  1  1  0  0  0  0
 15 10  1  0  0  0  0
 16  8  2  0  0  0  0
 17 20  1  0  0  0  0
 18 17  2  0  0  0  0
 19 20  1  0  0  0  0
 22 23  1  0  0  0  0
 22 21  1  0  0  0  0
 24 23  1  0  0  0  0
 24 27  1  0  0  0  0
 25 24  2  0  0  0  0
 26 24  2  0  0  0  0
 28 27  1  6  0  0  0
 28 30  1  0  0  0  0
 28 32  1  0  0  0  0
 29 31  1  0  0  0  0
 30 34  1  0  0  0  0
 32 29  1  0  0  0  0
 34 33  1  0  0  0  0
 34 29  2  0  0  0  0
 36 37  1  0  0  0  0
 37 35  1  0  0  0  0
 38 36  1  0  0  0  0
 39 36  2  0  0  0  0
 40 38  1  0  0  0  0
 41 40  1  0  0  0  0
 42 45  1  6  0  0  0
 42 41  1  0  0  0  0
 42 44  1  0  0  0  0
 43 44  1  0  0  0  0
 47 49  1  0  0  0  0
 47 46  1  0  0  0  0
 48 49  2  0  0  0  0
 48 45  1  0  0  0  0
 49 46  1  0  0  0  0
 50 48  1  0  0  0  0
 51 50  2  0  0  0  0
 52 50  1  0  0  0  0
M  END
>  <MODEL>
7

>  <REMARK>
 VINA RESULT:      -6.1      3.720      7.798
  Name = 
  17 active torsions:
  status: ('A' for Active; 'I' for Inactive)
    1  A    between atoms: C_1  and  N_22
    2  A    between atoms: C_1  and  C_49
    3  A    between atoms: C_2  and  N_14
    4  A    between atoms: O_4  and  C_11
    5  A    between atoms: O_4  and  C_35
    6  A    between atoms: N_5  and  N_18
    7  A    between atoms: N_5  and  C_36
    8  A    between atoms: S_6  and  N_14
    9  A    between atoms: S_6  and  C_35
   10  A    between atoms: C_8  and  C_28
   11  A    between atoms: C_8  and  C_31
   12  A    between atoms: C_10  and  C_28
   13  A    between atoms: C_11  and  C_12
   14  A    between atoms: C_26  and  C_30
   15  A    between atoms: C_26  and  O_45
   16  A    between atoms: C_31  and  C_44
   17  A    between atoms: C_31  and  C_49
                            x       y       z     vdW  Elec       q    Type
                         _______ _______ _______ _____ _____    ______ ____

>  <TORSDO>
F 17

$$$$
=
 OpenBabel10232409243D

 52 55  0  0  1  0  0  0  0  0999 V2000
  184.5730  175.9130  136.6020 C   0  0  1  0  0  3  0  0  0  0  0  0
  189.0210  174.9870  137.2110 C   0  0  0  0  0  0  0  0  0  0  0  0
  188.5570  172.9630  136.4710 N   0  0  0  0  0  0  0  0  0  0  0  0
  184.3420  175.0270  135.3680 C   0  0  2  0  0  3  0  0  0  0  0  0
  186.1470  177.6800  137.4490 C   0  0  2  0  0  3  0  0  0  0  0  0
  187.2700  178.5950  136.9680 C   0  0  0  0  0  2  0  0  0  0  0  0
  185.6400  174.4300  134.8390 C   0  0  0  0  0  2  0  0  0  0  0  0
  189.7390  176.1380  137.7800 C   0  0  0  0  0  0  0  0  0  0  0  0
  187.7480  175.0420  136.7890 N   0  0  0  0  0  0  0  0  0  0  0  0
  187.5090  173.7990  136.3340 C   0  0  0  0  0  0  0  0  0  0  0  0
  189.5290  173.7170  137.0250 C   0  0  0  0  0  2  0  0  0  0  0  0
  183.7120  175.7460  134.3480 O   0  0  0  0  0  1  0  0  0  0  0  0
  188.4880  178.4340  137.8220 C   0  0  0  0  0  3  0  0  0  0  0  0
  185.2770  177.2330  136.2780 C   0  0  0  0  0  2  0  0  0  0  0  0
  186.1870  173.3740  135.7900 C   0  0  0  0  0  2  0  0  0  0  0  0
  189.1380  177.3010  137.8220 C   0  0  0  0  0  0  0  0  0  0  0  0
  185.3390  178.3440  138.5290 C   0  0  0  0  0  0  0  0  0  0  0  0
  185.2920  177.8340  139.6810 O   0  0  0  0  0  0  0  0  0  0  0  0
  183.2340  179.6280  138.4380 C   0  0  0  0  0  1  0  0  0  0  0  0
  184.6420  179.5280  138.2810 O   0  0  0  0  0  0  0  0  0  0  0  0
  183.2810  176.1330  137.3960 C   0  0  0  0  0  2  0  0  0  0  0  0
  183.0220  175.0670  138.2650 O   0  0  0  0  0  0  0  0  0  0  0  0
  182.5610  175.6560  139.4430 C   0  0  0  0  0  2  0  0  0  0  0  0
  180.7990  175.9120  139.3520 S   0  0  0  0  0  0  0  0  0  0  0  0
  180.1060  174.5780  139.3520 O   0  0  0  0  0  0  0  0  0  0  0  0
  180.4610  176.6530  138.0890 O   0  0  0  0  0  0  0  0  0  0  0  0
  180.2980  176.8390  140.7260 N   0  0  0  0  0  2  0  0  0  0  0  0
  180.8560  178.1760  140.5930 C   0  0  1  0  0  3  0  0  0  0  0  0
  181.9330  178.8360  142.7910 C   0  0  0  0  0  0  0  0  0  0  0  0
  180.0260  179.1620  141.4120 C   0  0  0  0  0  2  0  0  0  0  0  0
  182.7470  178.7960  144.0440 C   0  0  0  0  0  1  0  0  0  0  0  0
  182.5580  178.1830  141.2520 S   0  0  0  0  0  0  0  0  0  0  0  0
  179.9820  179.9000  143.9100 C   0  0  0  0  0  1  0  0  0  0  0  0
  180.6880  179.2900  142.7390 C   0  0  0  0  0  0  0  0  0  0  0  0
  191.0960  175.9970  138.2130 N   0  0  0  0  0  2  0  0  0  0  0  0
  191.0680  176.9310  140.4880 C   0  0  0  0  0  0  0  0  0  0  0  0
  191.6520  176.8330  139.1910 N   0  0  0  0  0  2  0  0  0  0  0  0
  191.5930  177.8750  141.4200 N   0  0  0  0  0  2  0  0  0  0  0  0
  190.1070  176.1770  140.8100 O   0  0  0  0  0  0  0  0  0  0  0  0
  191.1260  177.9440  142.7940 C   0  0  0  0  0  2  0  0  0  0  0  0
  191.6530  176.7500  143.5730 C   0  0  0  0  0  2  0  0  0  0  0  0
  190.9650  176.5730  144.9290 C   0  0  1  0  0  3  0  0  0  0  0  0
  191.5510  176.3230  147.2600 O   0  0  0  0  0  1  0  0  0  0  0  0
  191.8450  175.8800  145.9690 C   0  0  0  0  0  2  0  0  0  0  0  0
  190.3550  177.8700  145.4560 C   0  0  0  0  0  2  0  0  0  0  0  0
  188.7840  177.9650  148.5220 C   0  0  0  0  0  2  0  0  0  0  0  0
  187.4440  177.6760  148.1260 C   0  0  0  0  0  2  0  0  0  0  0  0
  188.9040  177.6850  145.7670 C   0  0  0  0  0  0  0  0  0  0  0  0
  188.5090  177.7520  147.0360 C   0  0  0  0  0  0  0  0  0  0  0  0
  187.9360  177.3860  144.6990 C   0  0  0  0  0  0  0  0  0  0  0  0
  187.9920  176.2940  144.0730 O   0  0  0  0  0  0  0  0  0  0  0  0
  186.9490  178.3020  144.3700 O   0  0  0  0  0  1  0  0  0  0  0  0
  1 21  1  6  0  0  0
  2  8  1  0  0  0  0
  3 11  1  0  0  0  0
  4 12  1  6  0  0  0
  4  1  1  0  0  0  0
  5 17  1  1  0  0  0
  6  5  1  0  0  0  0
  6 13  1  0  0  0  0
  7  4  1  0  0  0  0
  7 15  1  0  0  0  0
  8 16  2  0  0  0  0
  8 35  1  0  0  0  0
  9  2  2  0  0  0  0
 10  3  2  0  0  0  0
 10  9  1  0  0  0  0
 11  2  1  0  0  0  0
 14  1  1  0  0  0  0
 14  5  1  0  0  0  0
 15 10  1  0  0  0  0
 16 13  2  0  0  0  0
 17 18  2  0  0  0  0
 20 19  1  0  0  0  0
 20 17  1  0  0  0  0
 21 22  1  0  0  0  0
 22 23  1  0  0  0  0
 24 25  2  0  0  0  0
 24 23  1  0  0  0  0
 24 27  1  0  0  0  0
 26 24  2  0  0  0  0
 28 27  1  1  0  0  0
 28 32  1  0  0  0  0
 28 30  1  0  0  0  0
 29 31  1  0  0  0  0
 30 34  1  0  0  0  0
 32 29  1  0  0  0  0
 34 29  2  0  0  0  0
 34 33  1  0  0  0  0
 35 37  1  0  0  0  0
 36 39  2  0  0  0  0
 36 38  1  0  0  0  0
 37 36  1  0  0  0  0
 38 40  1  0  0  0  0
 40 41  1  0  0  0  0
 42 41  1  6  0  0  0
 42 45  1  0  0  0  0
 42 44  1  0  0  0  0
 44 43  1  0  0  0  0
 45 48  1  0  0  0  0
 47 46  1  0  0  0  0
 48 49  2  0  0  0  0
 49 47  1  0  0  0  0
 49 46  1  0  0  0  0
 50 48  1  0  0  0  0
 51 50  2  0  0  0  0
 52 50  1  0  0  0  0
M  END
>  <MODEL>
8

>  <REMARK>
 VINA RESULT:      -6.1      3.326      7.098
  Name = 
  17 active torsions:
  status: ('A' for Active; 'I' for Inactive)
    1  A    between atoms: C_1  and  N_22
    2  A    between atoms: C_1  and  C_49
    3  A    between atoms: C_2  and  N_14
    4  A    between atoms: O_4  and  C_11
    5  A    between atoms: O_4  and  C_35
    6  A    between atoms: N_5  and  N_18
    7  A    between atoms: N_5  and  C_36
    8  A    between atoms: S_6  and  N_14
    9  A    between atoms: S_6  and  C_35
   10  A    between atoms: C_8  and  C_28
   11  A    between atoms: C_8  and  C_31
   12  A    between atoms: C_10  and  C_28
   13  A    between atoms: C_11  and  C_12
   14  A    between atoms: C_26  and  C_30
   15  A    between atoms: C_26  and  O_45
   16  A    between atoms: C_31  and  C_44
   17  A    between atoms: C_31  and  C_49
                            x       y       z     vdW  Elec       q    Type
                         _______ _______ _______ _____ _____    ______ ____

>  <TORSDO>
F 17

$$$$
=
 OpenBabel10232409243D

 52 55  0  0  1  0  0  0  0  0999 V2000
  187.7970  176.1130  135.9920 C   0  0  1  0  0  3  0  0  0  0  0  0
  186.6020  178.4630  139.7420 C   0  0  0  0  0  0  0  0  0  0  0  0
  188.7470  178.4750  140.2480 N   0  0  0  0  0  0  0  0  0  0  0  0
  189.1610  176.7800  135.7540 C   0  0  2  0  0  3  0  0  0  0  0  0
  185.3950  176.7200  136.4140 C   0  0  2  0  0  3  0  0  0  0  0  0
  184.4550  177.9220  136.3900 C   0  0  0  0  0  2  0  0  0  0  0  0
  189.3990  177.9540  136.6950 C   0  0  0  0  0  2  0  0  0  0  0  0
  185.1440  178.6440  139.8240 C   0  0  0  0  0  0  0  0  0  0  0  0
  187.2260  177.9510  138.6700 N   0  0  0  0  0  0  0  0  0  0  0  0
  188.5270  177.9880  139.0110 C   0  0  0  0  0  0  0  0  0  0  0  0
  187.5220  178.7860  140.7190 C   0  0  0  0  0  2  0  0  0  0  0  0
  189.2810  177.2120  134.4300 O   0  0  0  0  0  1  0  0  0  0  0  0
  183.7390  178.0640  137.6960 C   0  0  0  0  0  3  0  0  0  0  0  0
  186.6150  176.9720  135.5340 C   0  0  0  0  0  2  0  0  0  0  0  0
  189.6130  177.4790  138.1250 C   0  0  0  0  0  2  0  0  0  0  0  0
  184.4110  178.3560  138.7770 C   0  0  0  0  0  0  0  0  0  0  0  0
  184.6690  175.4620  136.0240 C   0  0  0  0  0  0  0  0  0  0  0  0
  184.1310  175.3750  134.8880 O   0  0  0  0  0  0  0  0  0  0  0  0
  183.3950  173.6250  137.0670 C   0  0  0  0  0  1  0  0  0  0  0  0
  184.5880  174.3770  136.8990 O   0  0  0  0  0  0  0  0  0  0  0  0
  187.7410  174.7010  135.4020 C   0  0  0  0  0  2  0  0  0  0  0  0
  188.9470  174.3530  134.7810 O   0  0  0  0  0  0  0  0  0  0  0  0
  189.4960  173.3490  135.5790 C   0  0  0  0  0  2  0  0  0  0  0  0
  191.2610  173.5650  135.7100 S   0  0  0  0  0  0  0  0  0  0  0  0
  191.7830  174.1500  134.4280 O   0  0  0  0  0  0  0  0  0  0  0  0
  191.9160  172.2360  135.9590 O   0  0  0  0  0  0  0  0  0  0  0  0
  191.5950  174.6380  137.0290 N   0  0  0  0  0  2  0  0  0  0  0  0
  192.7340  175.4620  136.6580 C   0  0  1  0  0  3  0  0  0  0  0  0
  194.6350  175.0070  138.2710 C   0  0  0  0  0  0  0  0  0  0  0  0
  192.9330  176.5610  137.7000 C   0  0  0  0  0  2  0  0  0  0  0  0
  195.6340  174.2960  139.1280 C   0  0  0  0  0  1  0  0  0  0  0  0
  194.2380  174.4290  136.6300 S   0  0  0  0  0  0  0  0  0  0  0  0
  194.1280  176.7130  140.0090 C   0  0  0  0  0  1  0  0  0  0  0  0
  193.9360  176.0570  138.6780 C   0  0  0  0  0  0  0  0  0  0  0  0
  184.5530  179.1930  141.0060 N   0  0  0  0  0  2  0  0  0  0  0  0
  184.8880  178.8360  143.4160 C   0  0  0  0  0  0  0  0  0  0  0  0
  185.2970  179.4050  142.1750 N   0  0  0  0  0  2  0  0  0  0  0  0
  185.6040  179.1660  144.6050 N   0  0  0  0  0  2  0  0  0  0  0  0
  183.9100  178.0360  143.4560 O   0  0  0  0  0  0  0  0  0  0  0  0
  185.3170  178.5290  145.8800 C   0  0  0  0  0  2  0  0  0  0  0  0
  186.1960  179.1340  146.9620 C   0  0  0  0  0  2  0  0  0  0  0  0
  187.4890  178.3470  147.1880 C   0  0  1  0  0  3  0  0  0  0  0  0
  189.1120  178.2040  148.9730 O   0  0  0  0  0  1  0  0  0  0  0  0
  187.7620  178.0380  148.6590 C   0  0  0  0  0  2  0  0  0  0  0  0
  187.5870  177.1050  146.3040 C   0  0  0  0  0  2  0  0  0  0  0  0
  190.8980  176.5610  147.0940 C   0  0  0  0  0  2  0  0  0  0  0  0
  191.5040  176.8330  145.8310 C   0  0  0  0  0  2  0  0  0  0  0  0
  188.7840  177.1830  145.4120 C   0  0  0  0  0  0  0  0  0  0  0  0
  189.9850  176.9420  145.9310 C   0  0  0  0  0  0  0  0  0  0  0  0
  188.6450  177.5650  143.9960 C   0  0  0  0  0  0  0  0  0  0  0  0
  187.7190  177.0810  143.2920 O   0  0  0  0  0  0  0  0  0  0  0  0
  189.5300  178.4650  143.4230 O   0  0  0  0  0  1  0  0  0  0  0  0
  1 21  1  6  0  0  0
  2  8  1  0  0  0  0
  2 11  1  0  0  0  0
  3 11  1  0  0  0  0
  4 12  1  6  0  0  0
  4  1  1  0  0  0  0
  4  7  1  0  0  0  0
  5 17  1  6  0  0  0
  6  5  1  0  0  0  0
  6 13  1  0  0  0  0
  7 15  1  0  0  0  0
  8 35  1  0  0  0  0
  9 10  1  0  0  0  0
  9  2  2  0  0  0  0
 10  3  2  0  0  0  0
 13 16  2  0  0  0  0
 14  1  1  0  0  0  0
 14  5  1  0  0  0  0
 15 10  1  0  0  0  0
 16  8  2  0  0  0  0
 17 20  1  0  0  0  0
 18 17  2  0  0  0  0
 20 19  1  0  0  0  0
 22 21  1  0  0  0  0
 22 23  1  0  0  0  0
 23 24  1  0  0  0  0
 24 26  2  0  0  0  0
 24 27  1  0  0  0  0
 25 24  2  0  0  0  0
 28 27  1  1  0  0  0
 28 30  1  0  0  0  0
 29 34  2  0  0  0  0
 29 31  1  0  0  0  0
 30 34  1  0  0  0  0
 32 28  1  0  0  0  0
 32 29  1  0  0  0  0
 34 33  1  0  0  0  0
 35 37  1  0  0  0  0
 36 39  2  0  0  0  0
 36 38  1  0  0  0  0
 37 36  1  0  0  0  0
 38 40  1  0  0  0  0
 40 41  1  0  0  0  0
 41 42  1  0  0  0  0
 42 45  1  6  0  0  0
 42 44  1  0  0  0  0
 44 43  1  0  0  0  0
 47 49  1  0  0  0  0
 47 46  1  0  0  0  0
 48 49  2  0  0  0  0
 48 45  1  0  0  0  0
 49 46  1  0  0  0  0
 50 48  1  0  0  0  0
 51 50  2  0  0  0  0
 52 50  1  0  0  0  0
M  END
>  <MODEL>
9

>  <REMARK>
 VINA RESULT:      -6.0      1.825      2.500
  Name = 
  17 active torsions:
  status: ('A' for Active; 'I' for Inactive)
    1  A    between atoms: C_1  and  N_22
    2  A    between atoms: C_1  and  C_49
    3  A    between atoms: C_2  and  N_14
    4  A    between atoms: O_4  and  C_11
    5  A    between atoms: O_4  and  C_35
    6  A    between atoms: N_5  and  N_18
    7  A    between atoms: N_5  and  C_36
    8  A    between atoms: S_6  and  N_14
    9  A    between atoms: S_6  and  C_35
   10  A    between atoms: C_8  and  C_28
   11  A    between atoms: C_8  and  C_31
   12  A    between atoms: C_10  and  C_28
   13  A    between atoms: C_11  and  C_12
   14  A    between atoms: C_26  and  C_30
   15  A    between atoms: C_26  and  O_45
   16  A    between atoms: C_31  and  C_44
   17  A    between atoms: C_31  and  C_49
                            x       y       z     vdW  Elec       q    Type
                         _______ _______ _______ _____ _____    ______ ____

>  <TORSDO>
F 17

$$$$
