=
 OpenBabel10232408223D

 30 34  0  0  1  0  0  0  0  0999 V2000
  184.3400  172.6180  136.0480 C   0  0  2  0  0  3  0  0  0  0  0  0
  185.8420  172.7820  136.2430 C   0  0  0  0  0  2  0  0  0  0  0  0
  182.7370  174.4820  136.2780 C   0  0  2  0  0  3  0  0  0  0  0  0
  188.0750  177.9430  137.9980 C   0  0  1  0  0  3  0  0  0  0  0  0
  184.7850  177.4220  137.5230 N   0  0  0  0  0  0  0  0  0  0  0  0
  182.5370  179.1430  137.5670 C   0  0  1  0  0  3  0  0  0  0  0  0
  181.7290  175.2000  135.3790 C   0  0  0  0  0  2  0  0  0  0  0  0
  183.3760  175.4350  137.2510 C   0  0  0  0  0  0  0  0  0  0  0  0
  183.6070  176.8650  136.8490 C   0  0  1  0  0  3  0  0  0  0  0  0
  187.1620  176.7530  137.7630 C   0  0  1  0  0  3  0  0  0  0  0  0
  183.7480  173.8260  135.4450 N   0  0  0  0  0  2  0  0  0  0  0  0
  186.0900  177.3110  136.8520 C   0  0  2  0  0  3  0  0  0  0  0  0
  183.4750  179.2100  138.7590 C   0  0  2  0  0  3  0  0  0  0  0  0
  182.3580  177.7160  137.0590 C   0  0  0  0  0  0  0  0  0  0  0  0
  187.4460  179.1100  137.5370 O   0  0  0  0  0  0  0  0  0  0  0  0
  184.5950  178.2150  138.7070 C   0  0  0  0  0  0  0  0  0  0  0  0
  181.2330  179.4290  139.5930 N   0  0  0  0  0  2  0  0  0  0  0  0
  183.5860  175.0760  138.3970 O   0  0  0  0  0  0  0  0  0  0  0  0
  186.1650  174.0040  137.0820 C   0  0  0  0  0  2  0  0  0  0  0  0
  187.5390  174.4740  136.7610 C   0  0  0  0  0  3  0  0  0  0  0  0
  180.6900  175.9260  136.2250 C   0  0  0  0  0  2  0  0  0  0  0  0
  186.6140  178.6840  136.4920 C   0  0  0  0  0  2  0  0  0  0  0  0
  187.9760  175.6990  137.0650 C   0  0  0  0  0  3  0  0  0  0  0  0
  182.5840  179.0180  139.9660 C   0  0  0  0  0  2  0  0  0  0  0  0
  183.6480  172.0650  137.2980 C   0  0  0  0  0  1  0  0  0  0  0  0
  181.2510  179.7110  138.1570 C   0  0  0  0  0  2  0  0  0  0  0  0
  185.3880  178.1120  139.6810 O   0  0  0  0  0  0  0  0  0  0  0  0
  181.1230  177.3020  136.6760 C   0  0  0  0  0  3  0  0  0  0  0  0
  188.6920  178.1570  140.5870 C   0  0  0  0  0  3  0  0  0  0  0  0
  188.4120  178.0700  139.4190 C   0  0  0  0  0  0  0  0  0  0  0  0
  1  2  1  0  0  0  0
  1 25  1  1  0  0  0
  2 19  1  0  0  0  0
  3  7  1  6  0  0  0
  3  8  1  0  0  0  0
  4 30  1  1  0  0  0
  5 16  1  0  0  0  0
  6 26  1  1  0  0  0
  6 13  1  0  0  0  0
  7 21  1  0  0  0  0
  8 18  2  0  0  0  0
  9 14  1  1  0  0  0
  9  8  1  0  0  0  0
  9  5  1  0  0  0  0
 10 23  1  6  0  0  0
 10  4  1  0  0  0  0
 11  1  1  0  0  0  0
 11  3  1  0  0  0  0
 12 22  1  1  0  0  0
 12  5  1  0  0  0  0
 12 10  1  0  0  0  0
 13 24  1  1  0  0  0
 14  6  1  0  0  0  0
 15  4  1  0  0  0  0
 16 13  1  0  0  0  0
 16 27  2  0  0  0  0
 17 24  1  0  0  0  0
 20 23  2  0  0  0  0
 20 19  1  0  0  0  0
 21 28  1  0  0  0  0
 22 15  1  0  0  0  0
 26 17  1  0  0  0  0
 28 14  2  0  0  0  0
 30 29  3  0  0  0  0
M  END
>  <MODEL>
1

>  <REMARK>
 VINA RESULT:      -5.2      0.000      0.000
  Name = 
  1 active torsions:
  status: ('A' for Active; 'I' for Inactive)
    1  A    between atoms: C_4  and  C_30
                            x       y       z     vdW  Elec       q    Type
                         _______ _______ _______ _____ _____    ______ ____

>  <TORSDO>
F 1

$$$$
=
 OpenBabel10232408223D

 30 34  0  0  1  0  0  0  0  0999 V2000
  186.9230  172.0860  134.7020 C   0  0  2  0  0  3  0  0  0  0  0  0
  188.2490  171.4280  134.3470 C   0  0  0  0  0  2  0  0  0  0  0  0
  186.7590  174.3300  135.7180 C   0  0  2  0  0  3  0  0  0  0  0  0
  193.3430  174.0440  135.7300 C   0  0  1  0  0  3  0  0  0  0  0  0
  190.3330  175.3690  136.4470 N   0  0  0  0  0  0  0  0  0  0  0  0
  189.5340  177.8670  137.5120 C   0  0  1  0  0  3  0  0  0  0  0  0
  186.1440  175.6800  135.3420 C   0  0  0  0  0  2  0  0  0  0  0  0
  188.0380  174.5100  136.4880 C   0  0  0  0  0  0  0  0  0  0  0  0
  188.9230  175.6890  136.1960 C   0  0  1  0  0  3  0  0  0  0  0  0
  191.8950  173.5860  135.7160 C   0  0  1  0  0  3  0  0  0  0  0  0
  186.9840  173.5460  134.5020 N   0  0  0  0  0  2  0  0  0  0  0  0
  191.1370  174.8380  135.3340 C   0  0  2  0  0  3  0  0  0  0  0  0
  190.6060  177.1090  138.2740 C   0  0  2  0  0  3  0  0  0  0  0  0
  188.4660  176.9360  136.9470 C   0  0  0  0  0  0  0  0  0  0  0  0
  193.3870  175.4460  135.6700 O   0  0  0  0  0  0  0  0  0  0  0  0
  190.9200  175.7600  137.6990 C   0  0  0  0  0  0  0  0  0  0  0  0
  189.1620  178.1380  139.8950 N   0  0  0  0  0  2  0  0  0  0  0  0
  188.2850  173.7730  137.4270 O   0  0  0  0  0  0  0  0  0  0  0  0
  189.3980  172.0220  135.1410 C   0  0  0  0  0  2  0  0  0  0  0  0
  190.6680  171.8300  134.3920 C   0  0  0  0  0  3  0  0  0  0  0  0
  185.9380  176.5320  136.5880 C   0  0  0  0  0  2  0  0  0  0  0  0
  192.2330  175.8150  134.9650 C   0  0  0  0  0  2  0  0  0  0  0  0
  191.7760  172.5310  134.6510 C   0  0  0  0  0  3  0  0  0  0  0  0
  190.0920  177.0290  139.6940 C   0  0  0  0  0  2  0  0  0  0  0  0
  186.3740  171.6000  136.0470 C   0  0  0  0  0  1  0  0  0  0  0  0
  188.9810  178.7870  138.5950 C   0  0  0  0  0  2  0  0  0  0  0  0
  191.7290  174.9990  138.2930 O   0  0  0  0  0  0  0  0  0  0  0  0
  187.1630  177.3150  137.0020 C   0  0  0  0  0  3  0  0  0  0  0  0
  194.5970  173.1820  137.9250 C   0  0  0  0  0  3  0  0  0  0  0  0
  194.0300  173.5620  136.9320 C   0  0  0  0  0  0  0  0  0  0  0  0
  1 25  1  1  0  0  0
  2  1  1  0  0  0  0
  2 19  1  0  0  0  0
  3  7  1  6  0  0  0
  3  8  1  0  0  0  0
  4 30  1  1  0  0  0
  5 16  1  0  0  0  0
  6 13  1  0  0  0  0
  6 26  1  1  0  0  0
  7 21  1  0  0  0  0
  8 18  2  0  0  0  0
  9  5  1  0  0  0  0
  9  8  1  1  0  0  0
  9 14  1  0  0  0  0
 10 23  1  6  0  0  0
 10  4  1  0  0  0  0
 11  1  1  0  0  0  0
 11  3  1  0  0  0  0
 12 22  1  1  0  0  0
 12 10  1  0  0  0  0
 12  5  1  0  0  0  0
 13 24  1  1  0  0  0
 14 28  2  0  0  0  0
 14  6  1  0  0  0  0
 15  4  1  0  0  0  0
 16 13  1  0  0  0  0
 16 27  2  0  0  0  0
 20 23  2  0  0  0  0
 20 19  1  0  0  0  0
 21 28  1  0  0  0  0
 22 15  1  0  0  0  0
 24 17  1  0  0  0  0
 26 17  1  0  0  0  0
 30 29  3  0  0  0  0
M  END
>  <MODEL>
2

>  <REMARK>
 VINA RESULT:      -5.2      4.008      6.036
  Name = 
  1 active torsions:
  status: ('A' for Active; 'I' for Inactive)
    1  A    between atoms: C_4  and  C_30
                            x       y       z     vdW  Elec       q    Type
                         _______ _______ _______ _____ _____    ______ ____

>  <TORSDO>
F 1

$$$$
=
 OpenBabel10232408223D

 30 34  0  0  1  0  0  0  0  0999 V2000
  190.7790  177.6040  142.6320 C   0  0  2  0  0  3  0  0  0  0  0  0
  189.3520  178.1350  142.6820 C   0  0  0  0  0  2  0  0  0  0  0  0
  191.8990  176.9400  140.5350 C   0  0  2  0  0  3  0  0  0  0  0  0
  186.0690  178.3300  137.7940 C   0  0  1  0  0  3  0  0  0  0  0  0
  189.2340  177.1860  137.8480 N   0  0  0  0  0  0  0  0  0  0  0  0
  191.0220  176.3740  135.8080 C   0  0  1  0  0  3  0  0  0  0  0  0
  193.1350  177.3780  139.7470 C   0  0  0  0  0  2  0  0  0  0  0  0
  190.7920  176.5080  139.6140 C   0  0  0  0  0  0  0  0  0  0  0  0
  190.6380  177.1680  138.2720 C   0  0  1  0  0  3  0  0  0  0  0  0
  187.0970  177.9540  138.8470 C   0  0  1  0  0  3  0  0  0  0  0  0
  191.4630  178.0380  141.4000 N   0  0  0  0  0  2  0  0  0  0  0  0
  188.4100  178.3510  138.2080 C   0  0  2  0  0  3  0  0  0  0  0  0
  189.6350  175.7580  135.7880 C   0  0  2  0  0  3  0  0  0  0  0  0
  191.5550  176.5380  137.2280 C   0  0  0  0  0  0  0  0  0  0  0  0
  186.7240  178.6160  136.5860 O   0  0  0  0  0  0  0  0  0  0  0  0
  188.7710  176.1700  136.9430 C   0  0  0  0  0  0  0  0  0  0  0  0
  191.1950  174.0410  135.1660 N   0  0  0  0  0  2  0  0  0  0  0  0
  190.1070  175.5420  139.9070 O   0  0  0  0  0  0  0  0  0  0  0  0
  188.5570  177.7150  141.4590 C   0  0  0  0  0  2  0  0  0  0  0  0
  187.4530  178.6850  141.2300 C   0  0  0  0  0  3  0  0  0  0  0  0
  193.5840  176.2660  138.8060 C   0  0  0  0  0  2  0  0  0  0  0  0
  187.9840  179.1000  136.9640 C   0  0  0  0  0  2  0  0  0  0  0  0
  186.8090  178.7880  140.0640 C   0  0  0  0  0  3  0  0  0  0  0  0
  189.8730  174.2650  135.7450 C   0  0  0  0  0  2  0  0  0  0  0  0
  190.8570  176.1130  142.9710 C   0  0  0  0  0  1  0  0  0  0  0  0
  191.8220  175.3540  135.0060 C   0  0  0  0  0  2  0  0  0  0  0  0
  187.6290  175.6560  137.0850 O   0  0  0  0  0  0  0  0  0  0  0  0
  192.8600  176.2600  137.4790 C   0  0  0  0  0  3  0  0  0  0  0  0
  184.2870  176.3710  137.4460 C   0  0  0  0  0  3  0  0  0  0  0  0
  185.0980  177.2480  137.6050 C   0  0  0  0  0  0  0  0  0  0  0  0
  1  2  1  0  0  0  0
  1 25  1  6  0  0  0
  3  7  1  6  0  0  0
  3 11  1  0  0  0  0
  4 30  1  6  0  0  0
  4 10  1  0  0  0  0
  5 12  1  0  0  0  0
  5  9  1  0  0  0  0
  6 26  1  6  0  0  0
  6 14  1  0  0  0  0
  8 18  2  0  0  0  0
  8  3  1  0  0  0  0
  9 14  1  6  0  0  0
  9  8  1  0  0  0  0
 10 23  1  1  0  0  0
 11  1  1  0  0  0  0
 12 22  1  6  0  0  0
 12 10  1  0  0  0  0
 13 24  1  1  0  0  0
 13  6  1  0  0  0  0
 13 16  1  0  0  0  0
 14 28  2  0  0  0  0
 15 22  1  0  0  0  0
 15  4  1  0  0  0  0
 16 27  2  0  0  0  0
 16  5  1  0  0  0  0
 17 24  1  0  0  0  0
 19  2  1  0  0  0  0
 20 19  1  0  0  0  0
 21  7  1  0  0  0  0
 23 20  2  0  0  0  0
 26 17  1  0  0  0  0
 28 21  1  0  0  0  0
 29 30  3  0  0  0  0
M  END
>  <MODEL>
3

>  <REMARK>
 VINA RESULT:      -5.1      3.545      8.109
  Name = 
  1 active torsions:
  status: ('A' for Active; 'I' for Inactive)
    1  A    between atoms: C_4  and  C_30
                            x       y       z     vdW  Elec       q    Type
                         _______ _______ _______ _____ _____    ______ ____

>  <TORSDO>
F 1

$$$$
=
 OpenBabel10232408223D

 30 34  0  0  1  0  0  0  0  0999 V2000
  187.7760  178.1390  143.7090 C   0  0  2  0  0  3  0  0  0  0  0  0
  186.5120  178.4760  142.9290 C   0  0  0  0  0  2  0  0  0  0  0  0
  189.9350  177.6290  142.6260 C   0  0  2  0  0  3  0  0  0  0  0  0
  186.4860  178.2360  137.0430 C   0  0  1  0  0  3  0  0  0  0  0  0
  189.1950  177.5200  138.9070 N   0  0  0  0  0  0  0  0  0  0  0  0
  191.8890  176.9520  138.2490 C   0  0  1  0  0  3  0  0  0  0  0  0
  191.3440  178.2270  142.6160 C   0  0  0  0  0  2  0  0  0  0  0  0
  189.5780  177.0540  141.2830 C   0  0  0  0  0  0  0  0  0  0  0  0
  190.1210  177.6880  140.0330 C   0  0  1  0  0  3  0  0  0  0  0  0
  186.7930  178.0000  138.5110 C   0  0  1  0  0  3  0  0  0  0  0  0
  188.9750  178.6600  143.0270 N   0  0  0  0  0  2  0  0  0  0  0  0
  188.1870  178.5660  138.6710 C   0  0  2  0  0  3  0  0  0  0  0  0
  190.8230  176.1580  137.5170 C   0  0  2  0  0  3  0  0  0  0  0  0
  191.5260  177.1850  139.7120 C   0  0  0  0  0  0  0  0  0  0  0  0
  187.6640  178.6060  136.3750 O   0  0  0  0  0  0  0  0  0  0  0  0
  189.4260  176.4520  137.9740 C   0  0  0  0  0  0  0  0  0  0  0  0
  192.6440  174.6620  137.9800 N   0  0  0  0  0  2  0  0  0  0  0  0
  188.9570  176.0060  141.2220 O   0  0  0  0  0  0  0  0  0  0  0  0
  186.5790  177.9550  141.5050 C   0  0  0  0  0  2  0  0  0  0  0  0
  185.6880  178.7710  140.6380 C   0  0  0  0  0  3  0  0  0  0  0  0
  192.3570  177.1830  142.1600 C   0  0  0  0  0  2  0  0  0  0  0  0
  188.4420  179.2520  137.3460 C   0  0  0  0  0  2  0  0  0  0  0  0
  185.7900  178.7880  139.3060 C   0  0  0  0  0  3  0  0  0  0  0  0
  191.2080  174.7100  137.7210 C   0  0  0  0  0  2  0  0  0  0  0  0
  187.8170  176.6710  144.1430 C   0  0  0  0  0  1  0  0  0  0  0  0
  193.1060  176.0470  138.0950 C   0  0  0  0  0  2  0  0  0  0  0  0
  188.4610  175.7920  137.5040 O   0  0  0  0  0  0  0  0  0  0  0  0
  192.4940  177.0810  140.6580 C   0  0  0  0  0  3  0  0  0  0  0  0
  185.4180  176.0570  135.9260 C   0  0  0  0  0  3  0  0  0  0  0  0
  185.9080  177.0350  136.4320 C   0  0  0  0  0  0  0  0  0  0  0  0
  1 25  1  6  0  0  0
  2  1  1  0  0  0  0
  3  7  1  6  0  0  0
  3 11  1  0  0  0  0
  4 30  1  6  0  0  0
  4 10  1  0  0  0  0
  5  9  1  0  0  0  0
  6 26  1  1  0  0  0
  6 14  1  0  0  0  0
  8  3  1  0  0  0  0
  9 14  1  6  0  0  0
  9  8  1  0  0  0  0
 10 12  1  0  0  0  0
 10 23  1  1  0  0  0
 11  1  1  0  0  0  0
 12 22  1  6  0  0  0
 12  5  1  0  0  0  0
 13 24  1  1  0  0  0
 13 16  1  0  0  0  0
 13  6  1  0  0  0  0
 14 28  2  0  0  0  0
 15  4  1  0  0  0  0
 15 22  1  0  0  0  0
 16  5  1  0  0  0  0
 17 26  1  0  0  0  0
 18  8  2  0  0  0  0
 19  2  1  0  0  0  0
 20 19  1  0  0  0  0
 21  7  1  0  0  0  0
 23 20  2  0  0  0  0
 24 17  1  0  0  0  0
 27 16  2  0  0  0  0
 28 21  1  0  0  0  0
 29 30  3  0  0  0  0
M  END
>  <MODEL>
4

>  <REMARK>
 VINA RESULT:      -4.9      3.667      8.134
  Name = 
  1 active torsions:
  status: ('A' for Active; 'I' for Inactive)
    1  A    between atoms: C_4  and  C_30
                            x       y       z     vdW  Elec       q    Type
                         _______ _______ _______ _____ _____    ______ ____

>  <TORSDO>
F 1

$$$$
=
 OpenBabel10232408223D

 30 34  0  0  1  0  0  0  0  0999 V2000
  188.1070  178.1980  140.7770 C   0  0  2  0  0  3  0  0  0  0  0  0
  188.1900  177.5810  139.3870 C   0  0  0  0  0  2  0  0  0  0  0  0
  185.9720  178.6110  141.9450 C   0  0  2  0  0  3  0  0  0  0  0  0
  183.2810  176.4060  136.3490 C   0  0  1  0  0  3  0  0  0  0  0  0
  183.2660  177.7680  139.4260 N   0  0  0  0  0  0  0  0  0  0  0  0
  181.1880  178.3830  141.2480 C   0  0  1  0  0  3  0  0  0  0  0  0
  185.3060  178.1470  143.2420 C   0  0  0  0  0  2  0  0  0  0  0  0
  184.9580  178.8180  140.8550 C   0  0  0  0  0  0  0  0  0  0  0  0
  183.7310  177.9510  140.8050 C   0  0  1  0  0  3  0  0  0  0  0  0
  184.2980  177.0100  137.3010 C   0  0  1  0  0  3  0  0  0  0  0  0
  186.9830  177.6300  141.5430 N   0  0  0  0  0  2  0  0  0  0  0  0
  183.7750  176.6160  138.6650 C   0  0  2  0  0  3  0  0  0  0  0  0
  181.0240  178.8890  139.8260 C   0  0  2  0  0  3  0  0  0  0  0  0
  182.6340  178.4770  141.7260 C   0  0  0  0  0  0  0  0  0  0  0  0
  182.1560  175.9850  137.0750 O   0  0  0  0  0  0  0  0  0  0  0  0
  182.1980  178.5980  138.9390 C   0  0  0  0  0  0  0  0  0  0  0  0
  180.1970  180.5970  141.2980 N   0  0  0  0  0  2  0  0  0  0  0  0
  185.0730  179.7650  140.0960 O   0  0  0  0  0  0  0  0  0  0  0  0
  186.8900  177.7500  138.6230 C   0  0  0  0  0  2  0  0  0  0  0  0
  186.7760  176.6800  137.5960 C   0  0  0  0  0  3  0  0  0  0  0  0
  184.2200  179.1320  143.6590 C   0  0  0  0  0  2  0  0  0  0  0  0
  182.6480  175.6570  138.3460 C   0  0  0  0  0  2  0  0  0  0  0  0
  185.6200  176.3540  137.0130 C   0  0  0  0  0  3  0  0  0  0  0  0
  180.7580  180.3700  139.9680 C   0  0  0  0  0  2  0  0  0  0  0  0
  188.2130  179.7250  140.7420 C   0  0  0  0  0  1  0  0  0  0  0  0
  180.2650  179.3230  142.0150 C   0  0  0  0  0  2  0  0  0  0  0  0
  182.2190  179.0440  137.7620 O   0  0  0  0  0  0  0  0  0  0  0  0
  182.8830  178.8830  142.9970 C   0  0  0  0  0  3  0  0  0  0  0  0
  182.5660  178.1560  134.4620 C   0  0  0  0  0  3  0  0  0  0  0  0
  182.8930  177.3740  135.3180 C   0  0  0  0  0  0  0  0  0  0  0  0
  1 25  1  6  0  0  0
  1 11  1  0  0  0  0
  2  1  1  0  0  0  0
  3  7  1  1  0  0  0
  4 30  1  6  0  0  0
  4 15  1  0  0  0  0
  4 10  1  0  0  0  0
  5  9  1  0  0  0  0
  6 14  1  0  0  0  0
  6 26  1  1  0  0  0
  7 21  1  0  0  0  0
  8  3  1  0  0  0  0
  9  8  1  6  0  0  0
  9 14  1  0  0  0  0
 10 23  1  6  0  0  0
 10 12  1  0  0  0  0
 11  3  1  0  0  0  0
 12 22  1  6  0  0  0
 12  5  1  0  0  0  0
 13 24  1  1  0  0  0
 13  6  1  0  0  0  0
 14 28  2  0  0  0  0
 15 22  1  0  0  0  0
 16  5  1  0  0  0  0
 16 13  1  0  0  0  0
 17 26  1  0  0  0  0
 18  8  2  0  0  0  0
 19  2  1  0  0  0  0
 20 19  1  0  0  0  0
 23 20  2  0  0  0  0
 24 17  1  0  0  0  0
 27 16  2  0  0  0  0
 28 21  1  0  0  0  0
 29 30  3  0  0  0  0
M  END
>  <MODEL>
5

>  <REMARK>
 VINA RESULT:      -4.8      2.372      5.656
  Name = 
  1 active torsions:
  status: ('A' for Active; 'I' for Inactive)
    1  A    between atoms: C_4  and  C_30
                            x       y       z     vdW  Elec       q    Type
                         _______ _______ _______ _____ _____    ______ ____

>  <TORSDO>
F 1

$$$$
=
 OpenBabel10232408223D

 30 34  0  0  1  0  0  0  0  0999 V2000
  183.5320  172.2260  135.5560 C   0  0  2  0  0  3  0  0  0  0  0  0
  184.9360  172.2530  134.9650 C   0  0  0  0  0  2  0  0  0  0  0  0
  182.4720  174.1930  136.6060 C   0  0  2  0  0  3  0  0  0  0  0  0
  188.2860  177.0730  135.4550 C   0  0  1  0  0  3  0  0  0  0  0  0
  185.1690  176.8580  136.7040 N   0  0  0  0  0  0  0  0  0  0  0  0
  183.4470  178.7490  137.9180 C   0  0  1  0  0  3  0  0  0  0  0  0
  181.2320  175.0550  136.3570 C   0  0  0  0  0  2  0  0  0  0  0  0
  183.6100  175.0180  137.1410 C   0  0  0  0  0  0  0  0  0  0  0  0
  183.7600  176.4490  136.7080 C   0  0  1  0  0  3  0  0  0  0  0  0
  187.2570  175.9820  135.6910 C   0  0  1  0  0  3  0  0  0  0  0  0
  182.8500  173.5200  135.3620 N   0  0  0  0  0  2  0  0  0  0  0  0
  185.9400  176.6900  135.4620 C   0  0  2  0  0  3  0  0  0  0  0  0
  184.8570  178.6520  138.4710 C   0  0  2  0  0  3  0  0  0  0  0  0
  182.8840  177.3820  137.5410 C   0  0  0  0  0  0  0  0  0  0  0  0
  187.6400  178.3180  135.4020 O   0  0  0  0  0  0  0  0  0  0  0  0
  185.6850  177.5760  137.8370 C   0  0  0  0  0  0  0  0  0  0  0  0
  183.3750  178.9920  140.3300 N   0  0  0  0  0  2  0  0  0  0  0  0
  184.3270  174.5610  138.0140 O   0  0  0  0  0  0  0  0  0  0  0  0
  185.7660  173.3800  135.5510 C   0  0  0  0  0  2  0  0  0  0  0  0
  186.8340  173.7590  134.5880 C   0  0  0  0  0  3  0  0  0  0  0  0
  180.8430  175.7990  137.6290 C   0  0  0  0  0  2  0  0  0  0  0  0
  186.3560  178.0380  134.9140 C   0  0  0  0  0  2  0  0  0  0  0  0
  187.4930  174.9190  134.6540 C   0  0  0  0  0  3  0  0  0  0  0  0
  184.6780  178.4470  139.9580 C   0  0  0  0  0  2  0  0  0  0  0  0
  183.5060  171.6430  136.9710 C   0  0  0  0  0  1  0  0  0  0  0  0
  182.7000  179.3760  139.0890 C   0  0  0  0  0  2  0  0  0  0  0  0
  186.8440  177.3380  138.2720 O   0  0  0  0  0  0  0  0  0  0  0  0
  181.5880  177.1000  137.8270 C   0  0  0  0  0  3  0  0  0  0  0  0
  190.1470  177.0540  137.3710 C   0  0  0  0  0  3  0  0  0  0  0  0
  189.3020  177.0690  136.5120 C   0  0  0  0  0  0  0  0  0  0  0  0
  1 25  1  1  0  0  0
  2 19  1  0  0  0  0
  2  1  1  0  0  0  0
  3  7  1  6  0  0  0
  3  8  1  0  0  0  0
  4 10  1  0  0  0  0
  4 30  1  1  0  0  0
  5  9  1  0  0  0  0
  5 16  1  0  0  0  0
  6 13  1  0  0  0  0
  6 26  1  1  0  0  0
  7 21  1  0  0  0  0
  8 18  2  0  0  0  0
  9  8  1  1  0  0  0
  9 14  1  0  0  0  0
 10 23  1  6  0  0  0
 11  1  1  0  0  0  0
 11  3  1  0  0  0  0
 12 22  1  1  0  0  0
 12 10  1  0  0  0  0
 12  5  1  0  0  0  0
 13 24  1  1  0  0  0
 14 28  2  0  0  0  0
 14  6  1  0  0  0  0
 15  4  1  0  0  0  0
 16 27  2  0  0  0  0
 16 13  1  0  0  0  0
 20 23  2  0  0  0  0
 20 19  1  0  0  0  0
 21 28  1  0  0  0  0
 22 15  1  0  0  0  0
 24 17  1  0  0  0  0
 26 17  1  0  0  0  0
 30 29  3  0  0  0  0
M  END
>  <MODEL>
6

>  <REMARK>
 VINA RESULT:      -4.7      1.559      1.814
  Name = 
  1 active torsions:
  status: ('A' for Active; 'I' for Inactive)
    1  A    between atoms: C_4  and  C_30
                            x       y       z     vdW  Elec       q    Type
                         _______ _______ _______ _____ _____    ______ ____

>  <TORSDO>
F 1

$$$$
=
 OpenBabel10232408223D

 30 34  0  0  1  0  0  0  0  0999 V2000
  183.4150  171.2450  136.5740 C   0  0  2  0  0  3  0  0  0  0  0  0
  182.0810  171.9530  136.7790 C   0  0  0  0  0  2  0  0  0  0  0  0
  185.5790  172.4300  136.5280 C   0  0  2  0  0  3  0  0  0  0  0  0
  181.8470  177.8300  137.1150 C   0  0  1  0  0  3  0  0  0  0  0  0
  184.7100  176.1190  136.6660 N   0  0  0  0  0  0  0  0  0  0  0  0
  187.4310  176.9020  136.6060 C   0  0  1  0  0  3  0  0  0  0  0  0
  186.8750  172.4150  137.3420 C   0  0  0  0  0  2  0  0  0  0  0  0
  185.2620  173.8150  136.0370 C   0  0  0  0  0  0  0  0  0  0  0  0
  185.6450  175.0070  136.8690 C   0  0  1  0  0  3  0  0  0  0  0  0
  182.2490  176.4020  136.7890 C   0  0  1  0  0  3  0  0  0  0  0  0
  184.4870  171.8990  137.3460 N   0  0  0  0  0  2  0  0  0  0  0  0
  183.5420  176.2210  137.5540 C   0  0  2  0  0  3  0  0  0  0  0  0
  186.4730  177.6850  135.7260 C   0  0  2  0  0  3  0  0  0  0  0  0
  187.0970  175.4130  136.6330 C   0  0  0  0  0  0  0  0  0  0  0  0
  182.9230  178.4860  137.7340 O   0  0  0  0  0  0  0  0  0  0  0  0
  185.0670  177.1640  135.7450 C   0  0  0  0  0  0  0  0  0  0  0  0
  188.5250  177.4250  134.5060 N   0  0  0  0  0  2  0  0  0  0  0  0
  184.8110  173.9690  134.9140 O   0  0  0  0  0  0  0  0  0  0  0  0
  182.1700  173.4240  136.4170 C   0  0  0  0  0  2  0  0  0  0  0  0
  181.1260  174.1790  137.1600 C   0  0  0  0  0  3  0  0  0  0  0  0
  188.0190  173.0020  136.5260 C   0  0  0  0  0  2  0  0  0  0  0  0
  183.6290  177.4730  138.3980 C   0  0  0  0  0  2  0  0  0  0  0  0
  181.1680  175.5040  137.3240 C   0  0  0  0  0  3  0  0  0  0  0  0
  187.0900  177.6410  134.3460 C   0  0  0  0  0  2  0  0  0  0  0  0
  183.7040  170.9660  135.0970 C   0  0  0  0  0  1  0  0  0  0  0  0
  188.7670  177.1800  135.9280 C   0  0  0  0  0  2  0  0  0  0  0  0
  184.2000  177.6750  134.9880 O   0  0  0  0  0  0  0  0  0  0  0  0
  188.1080  174.5090  136.5950 C   0  0  0  0  0  3  0  0  0  0  0  0
  181.1020  179.1500  134.9160 C   0  0  0  0  0  3  0  0  0  0  0  0
  181.4400  178.5460  135.9020 C   0  0  0  0  0  0  0  0  0  0  0  0
  1 25  1  6  0  0  0
  1  2  1  0  0  0  0
  1 11  1  0  0  0  0
  3  7  1  1  0  0  0
  3 11  1  0  0  0  0
  4 30  1  6  0  0  0
  4 15  1  0  0  0  0
  5  9  1  0  0  0  0
  5 12  1  0  0  0  0
  6 26  1  6  0  0  0
  6 14  1  0  0  0  0
  8  3  1  0  0  0  0
  9  8  1  6  0  0  0
 10  4  1  0  0  0  0
 10 23  1  1  0  0  0
 10 12  1  0  0  0  0
 12 22  1  1  0  0  0
 13 24  1  6  0  0  0
 13 16  1  0  0  0  0
 13  6  1  0  0  0  0
 14  9  1  0  0  0  0
 15 22  1  0  0  0  0
 16  5  1  0  0  0  0
 17 26  1  0  0  0  0
 18  8  2  0  0  0  0
 19  2  1  0  0  0  0
 19 20  1  0  0  0  0
 20 23  2  0  0  0  0
 21 28  1  0  0  0  0
 21  7  1  0  0  0  0
 24 17  1  0  0  0  0
 27 16  2  0  0  0  0
 28 14  2  0  0  0  0
 29 30  3  0  0  0  0
M  END
>  <MODEL>
7

>  <REMARK>
 VINA RESULT:      -4.6      2.269      5.523
  Name = 
  1 active torsions:
  status: ('A' for Active; 'I' for Inactive)
    1  A    between atoms: C_4  and  C_30
                            x       y       z     vdW  Elec       q    Type
                         _______ _______ _______ _____ _____    ______ ____

>  <TORSDO>
F 1

$$$$
=
 OpenBabel10232408223D

 30 34  0  0  1  0  0  0  0  0999 V2000
  190.8400  175.9260  136.7910 C   0  0  2  0  0  3  0  0  0  0  0  0
  190.1790  177.1970  137.3080 C   0  0  0  0  0  2  0  0  0  0  0  0
  189.5840  174.0940  135.7140 C   0  0  2  0  0  3  0  0  0  0  0  0
  184.3190  177.7850  137.1610 C   0  0  1  0  0  3  0  0  0  0  0  0
  185.9270  175.0420  136.0580 N   0  0  0  0  0  0  0  0  0  0  0  0
  185.0550  172.7140  134.7030 C   0  0  1  0  0  3  0  0  0  0  0  0
  189.5700  173.4080  134.3460 C   0  0  0  0  0  2  0  0  0  0  0  0
  188.2020  174.1620  136.3030 C   0  0  0  0  0  0  0  0  0  0  0  0
  187.0120  174.3090  135.3960 C   0  0  1  0  0  3  0  0  0  0  0  0
  185.7270  177.2210  137.2280 C   0  0  1  0  0  3  0  0  0  0  0  0
  190.1630  175.4320  135.5770 N   0  0  0  0  0  2  0  0  0  0  0  0
  185.8790  176.5050  135.9030 C   0  0  2  0  0  3  0  0  0  0  0  0
  184.2900  173.1060  135.9540 C   0  0  2  0  0  3  0  0  0  0  0  0
  186.5540  172.9600  134.8480 C   0  0  0  0  0  0  0  0  0  0  0  0
  183.6380  177.2090  136.0770 O   0  0  0  0  0  0  0  0  0  0  0  0
  184.8570  174.2990  136.6640 C   0  0  0  0  0  0  0  0  0  0  0  0
  184.4630  170.7110  135.9350 N   0  0  0  0  0  2  0  0  0  0  0  0
  188.0450  173.9720  137.4970 O   0  0  0  0  0  0  0  0  0  0  0  0
  188.7000  176.9880  137.5760 C   0  0  0  0  0  2  0  0  0  0  0  0
  187.9920  178.2920  137.4840 C   0  0  0  0  0  3  0  0  0  0  0  0
  188.9320  172.0280  134.4550 C   0  0  0  0  0  2  0  0  0  0  0  0
  184.6370  176.9120  135.1390 C   0  0  0  0  0  2  0  0  0  0  0  0
  186.6690  178.3890  137.3270 C   0  0  0  0  0  3  0  0  0  0  0  0
  184.2910  171.8630  136.8160 C   0  0  0  0  0  2  0  0  0  0  0  0
  191.0860  174.9040  137.9040 C   0  0  0  0  0  1  0  0  0  0  0  0
  184.7230  171.2310  134.5920 C   0  0  0  0  0  2  0  0  0  0  0  0
  184.3630  174.6670  137.7630 O   0  0  0  0  0  0  0  0  0  0  0  0
  187.4240  172.0420  134.3540 C   0  0  0  0  0  3  0  0  0  0  0  0
  183.0010  177.3410  139.4410 C   0  0  0  0  0  3  0  0  0  0  0  0
  183.5970  177.5320  138.4120 C   0  0  0  0  0  0  0  0  0  0  0  0
  1  2  1  0  0  0  0
  1 25  1  1  0  0  0
  2 19  1  0  0  0  0
  3  7  1  6  0  0  0
  3  8  1  0  0  0  0
  4 10  1  0  0  0  0
  4 30  1  1  0  0  0
  5 16  1  0  0  0  0
  6 26  1  1  0  0  0
  6 14  1  0  0  0  0
  6 13  1  0  0  0  0
  7 21  1  0  0  0  0
  8 18  2  0  0  0  0
  9 14  1  1  0  0  0
  9  5  1  0  0  0  0
  9  8  1  0  0  0  0
 10 23  1  6  0  0  0
 11  3  1  0  0  0  0
 11  1  1  0  0  0  0
 12 22  1  6  0  0  0
 12  5  1  0  0  0  0
 12 10  1  0  0  0  0
 13 16  1  0  0  0  0
 13 24  1  1  0  0  0
 15  4  1  0  0  0  0
 16 27  2  0  0  0  0
 17 24  1  0  0  0  0
 20 19  1  0  0  0  0
 22 15  1  0  0  0  0
 23 20  2  0  0  0  0
 26 17  1  0  0  0  0
 28 21  1  0  0  0  0
 28 14  2  0  0  0  0
 30 29  3  0  0  0  0
M  END
>  <MODEL>
8

>  <REMARK>
 VINA RESULT:      -4.4      2.620      6.165
  Name = 
  1 active torsions:
  status: ('A' for Active; 'I' for Inactive)
    1  A    between atoms: C_4  and  C_30
                            x       y       z     vdW  Elec       q    Type
                         _______ _______ _______ _____ _____    ______ ____

>  <TORSDO>
F 1

$$$$
=
 OpenBabel10232408223D

 30 34  0  0  1  0  0  0  0  0999 V2000
  188.3190  175.6450  136.1600 C   0  0  2  0  0  3  0  0  0  0  0  0
  188.8340  176.4790  137.3260 C   0  0  0  0  0  2  0  0  0  0  0  0
  185.9300  175.4940  135.5590 C   0  0  2  0  0  3  0  0  0  0  0  0
  185.0610  179.2390  140.9110 C   0  0  1  0  0  3  0  0  0  0  0  0
  184.0830  177.3620  138.2950 N   0  0  0  0  0  0  0  0  0  0  0  0
  181.5580  176.8820  137.1060 C   0  0  1  0  0  3  0  0  0  0  0  0
  185.0630  175.8400  134.3460 C   0  0  0  0  0  2  0  0  0  0  0  0
  185.1830  175.7210  136.8440 C   0  0  0  0  0  0  0  0  0  0  0  0
  184.1690  176.8270  136.9310 C   0  0  1  0  0  3  0  0  0  0  0  0
  185.7040  178.2610  139.9440 C   0  0  1  0  0  3  0  0  0  0  0  0
  187.1590  176.2900  135.5180 N   0  0  0  0  0  2  0  0  0  0  0  0
  184.9470  178.4980  138.6550 C   0  0  2  0  0  3  0  0  0  0  0  0
  181.6530  176.7000  138.6100 C   0  0  2  0  0  3  0  0  0  0  0  0
  182.8120  176.3890  136.3890 C   0  0  0  0  0  0  0  0  0  0  0  0
  183.8840  179.7510  140.3420 O   0  0  0  0  0  0  0  0  0  0  0  0
  183.0360  176.8900  139.1590 C   0  0  0  0  0  0  0  0  0  0  0  0
  180.2220  174.9680  137.7630 N   0  0  0  0  0  2  0  0  0  0  0  0
  185.3120  174.9300  137.7640 O   0  0  0  0  0  0  0  0  0  0  0  0
  187.7430  176.7420  138.3480 C   0  0  0  0  0  2  0  0  0  0  0  0
  188.0600  177.9840  139.1020 C   0  0  0  0  0  3  0  0  0  0  0  0
  183.7580  175.0550  134.3880 C   0  0  0  0  0  2  0  0  0  0  0  0
  184.1090  179.7210  138.9580 C   0  0  0  0  0  2  0  0  0  0  0  0
  187.1480  178.6570  139.8080 C   0  0  0  0  0  3  0  0  0  0  0  0
  181.1120  175.3120  138.8690 C   0  0  0  0  0  2  0  0  0  0  0  0
  188.1680  174.1660  136.5250 C   0  0  0  0  0  1  0  0  0  0  0  0
  180.3340  176.0390  136.7720 C   0  0  0  0  0  2  0  0  0  0  0  0
  183.2600  176.6780  140.3800 O   0  0  0  0  0  0  0  0  0  0  0  0
  182.6800  175.7070  135.2230 C   0  0  0  0  0  3  0  0  0  0  0  0
  184.5450  178.0600  143.2510 C   0  0  0  0  0  3  0  0  0  0  0  0
  184.7690  178.5890  142.1920 C   0  0  0  0  0  0  0  0  0  0  0  0
  1 25  1  1  0  0  0
  1  2  1  0  0  0  0
  2 19  1  0  0  0  0
  3  7  1  6  0  0  0
  3  8  1  0  0  0  0
  4 30  1  1  0  0  0
  5 12  1  0  0  0  0
  5 16  1  0  0  0  0
  6 26  1  6  0  0  0
  6 13  1  0  0  0  0
  7 21  1  0  0  0  0
  8  9  1  0  0  0  0
  8 18  2  0  0  0  0
  9 14  1  1  0  0  0
  9  5  1  0  0  0  0
 10 23  1  6  0  0  0
 10  4  1  0  0  0  0
 11  3  1  0  0  0  0
 11  1  1  0  0  0  0
 12 22  1  1  0  0  0
 12 10  1  0  0  0  0
 13 24  1  6  0  0  0
 13 16  1  0  0  0  0
 14  6  1  0  0  0  0
 15  4  1  0  0  0  0
 16 27  2  0  0  0  0
 17 24  1  0  0  0  0
 19 20  1  0  0  0  0
 20 23  2  0  0  0  0
 21 28  1  0  0  0  0
 22 15  1  0  0  0  0
 26 17  1  0  0  0  0
 28 14  2  0  0  0  0
 30 29  3  0  0  0  0
M  END
>  <MODEL>
9

>  <REMARK>
 VINA RESULT:      -4.3      2.182      3.622
  Name = 
  1 active torsions:
  status: ('A' for Active; 'I' for Inactive)
    1  A    between atoms: C_4  and  C_30
                            x       y       z     vdW  Elec       q    Type
                         _______ _______ _______ _____ _____    ______ ____

>  <TORSDO>
F 1

$$$$
