=
 OpenBabel10232411183D

 50 55  0  0  1  0  0  0  0  0999 V2000
  183.2200  179.8560  138.9040 N   0  0  0  0  0  2  0  0  0  0  0  0
  186.5970  177.1890  137.8250 C   0  0  1  0  0  3  0  0  0  0  0  0
  182.1950  180.6980  138.3700 C   0  0  0  0  0  0  0  0  0  0  0  0
  182.1000  181.8890  138.7590 O   0  0  0  0  0  0  0  0  0  0  0  0
  183.2000  176.9670  136.7470 N   0  0  0  0  0  2  0  0  0  0  0  0
  186.5630  178.4110  142.2650 O   0  0  0  0  0  0  0  0  0  0  0  0
  185.8070  178.2250  138.6580 C   0  0  1  0  0  3  0  0  0  0  0  0
  181.8310  179.0150  136.5570 C   0  0  2  0  0  3  0  0  0  0  0  0
  182.3460  177.9030  137.4790 C   0  0  2  0  0  3  0  0  0  0  0  0
  183.2930  178.4910  138.4860 C   0  0  1  0  0  3  0  0  0  0  0  0
  187.7040  178.2980  140.3800 C   0  0  0  0  0  0  0  0  0  0  0  0
  188.5940  178.7650  138.0620 C   0  0  0  0  0  2  0  0  0  0  0  0
  184.3020  176.8600  137.4110 C   0  0  2  0  0  3  0  0  0  0  0  0
  181.2110  180.1580  137.3710 C   0  0  0  0  0  2  0  0  0  0  0  0
  188.8780  178.1710  139.4430 C   0  0  0  0  0  2  0  0  0  0  0  0
  185.6860  178.3320  141.2870 C   0  0  0  0  0  0  0  0  0  0  0  0
  187.7740  178.3840  141.7540 C   0  0  0  0  0  0  0  0  0  0  0  0
  184.4050  177.7790  138.4820 C   0  0  1  0  0  3  0  0  0  0  0  0
  186.3510  178.2360  140.0650 C   0  0  0  0  0  0  0  0  0  0  0  0
  185.6210  176.4930  136.8530 C   0  0  2  0  0  3  0  0  0  0  0  0
  185.8070  174.9900  136.9250 C   0  0  0  0  0  1  0  0  0  0  0  0
  187.8150  177.8110  137.1350 C   0  0  1  0  0  3  0  0  0  0  0  0
  189.4220  177.3970  143.2570 C   0  0  0  0  0  3  0  0  0  0  0  0
  189.0080  178.4400  142.5430 C   0  0  0  0  0  3  0  0  0  0  0  0
  190.6820  177.4110  144.0820 C   0  0  1  0  0  0  0  0  0  0  0  0
  191.4510  178.4970  143.6540 O   0  0  0  0  0  1  0  0  0  0  0  0
  190.3600  177.6110  145.5780 C   0  0  2  0  0  3  0  0  0  0  0  0
  190.6770  176.4610  146.3070 O   0  0  0  0  0  1  0  0  0  0  0  0
  188.9070  177.9860  145.8470 C   0  0  0  0  0  1  0  0  0  0  0  0
  190.8330  175.2610  142.9950 O   0  0  0  0  0  1  0  0  0  0  0  0
  191.4930  176.1260  143.8680 C   0  0  0  0  0  2  0  0  0  0  0  0
  184.2350  178.3450  141.5000 C   0  0  0  0  0  3  0  0  0  0  0  0
  183.6940  178.9570  142.5450 C   0  0  0  0  0  2  0  0  0  0  0  0
  180.8350  178.4790  135.5370 C   0  0  0  0  0  2  0  0  0  0  0  0
  180.0290  177.4540  136.1030 O   0  0  0  0  0  0  0  0  0  0  0  0
  179.9820  175.0740  136.4580 O   0  0  0  0  0  1  0  0  0  0  0  0
  180.0720  175.9550  134.3460 O   0  0  0  0  0  0  0  0  0  0  0  0
  180.0280  176.1560  135.5900 C   0  0  0  0  0  0  0  0  0  0  0  0
  188.7340  176.7130  136.6130 C   0  0  0  0  0  2  0  0  0  0  0  0
  190.0660  177.2450  136.3780 N   0  0  0  0  0  2  0  0  0  0  0  0
  190.3910  175.0070  138.0310 O   0  0  0  0  0  1  0  0  0  0  0  0
  192.2310  176.8560  137.8910 O   0  0  0  0  0  0  0  0  0  0  0  0
  191.2190  176.1090  137.0510 P   0  0  2  0  0  0  0  0  0  0  0  0
  192.0780  175.2020  135.7230 C   0  0  0  0  0  2  0  0  0  0  0  0
  194.4310  175.3160  135.7850 C   0  0  0  0  0  2  0  0  0  0  0  0
  194.5990  172.4620  136.0470 C   0  0  0  0  0  2  0  0  0  0  0  0
  195.5400  173.3120  136.9050 C   0  0  0  0  0  2  0  0  0  0  0  0
  195.7450  174.7000  136.2930 C   0  0  0  0  0  2  0  0  0  0  0  0
  193.3270  173.2240  135.6400 C   0  0  0  0  0  2  0  0  0  0  0  0
  193.2690  174.5550  136.2480 N   0  0  0  0  0  0  0  0  0  0  0  0
  2  7  1  0  0  0  0
  3  4  2  0  0  0  0
  3  1  1  0  0  0  0
  5 13  1  0  0  0  0
  5  9  1  0  0  0  0
  7 19  1  0  0  0  0
  8 14  1  0  0  0  0
  8  9  1  0  0  0  0
  9 10  1  0  0  0  0
 10  1  1  0  0  0  0
 11 17  2  0  0  0  0
 12 15  1  0  0  0  0
 13 18  1  0  0  0  0
 14  3  1  0  0  0  0
 15 11  1  0  0  0  0
 16 32  1  0  0  0  0
 16  6  1  0  0  0  0
 17  6  1  0  0  0  0
 17 24  1  0  0  0  0
 18 10  1  0  0  0  0
 18  7  1  0  0  0  0
 19 11  1  0  0  0  0
 19 16  2  0  0  0  0
 20 21  1  0  0  0  0
 20 13  1  0  0  0  0
 20  2  1  0  0  0  0
 22  2  1  0  0  0  0
 22 12  1  0  0  0  0
 23 25  1  0  0  0  0
 24 23  2  0  0  0  0
 25 27  1  0  0  0  0
 26 25  1  0  0  0  0
 27 29  1  0  0  0  0
 27 28  1  0  0  0  0
 30 31  1  0  0  0  0
 31 25  1  0  0  0  0
 32 33  2  0  0  0  0
 34 35  1  0  0  0  0
 34  8  1  0  0  0  0
 37 38  2  0  0  0  0
 38 35  1  0  0  0  0
 38 36  1  0  0  0  0
 39 22  1  0  0  0  0
 40 39  1  0  0  0  0
 40 43  1  0  0  0  0
 43 42  2  0  0  0  0
 43 41  1  0  0  0  0
 44 50  1  0  0  0  0
 44 43  1  0  0  0  0
 45 50  1  0  0  0  0
 45 48  1  0  0  0  0
 46 47  1  0  0  0  0
 48 47  1  0  0  0  0
 49 46  1  0  0  0  0
 49 50  1  0  0  0  0
M  END
>  <MODEL>
1

>  <REMARK>
 VINA RESULT:      -6.6      0.000      0.000
  Name = 
  13 active torsions:
  status: ('A' for Active; 'I' for Inactive)
    1  A    between atoms: C_1  and  C_12
    2  A    between atoms: C_1  and  C_13
    3  A    between atoms: C_1  and  C_19
    4  A    between atoms: O_8  and  C_37
    5  A    between atoms: O_8  and  C_38
    6  A    between atoms: C_15  and  N_48
    7  A    between atoms: C_15  and  P_49
    8  A    between atoms: C_17  and  C_37
    9  A    between atoms: C_20  and  C_40
   10  A    between atoms: N_23  and  C_47
   11  A    between atoms: N_23  and  P_49
   12  A    between atoms: C_29  and  C_39
   13  A    between atoms: C_45  and  C_47
                            x       y       z     vdW  Elec       q    Type
                         _______ _______ _______ _____ _____    ______ ____

>  <TORSDO>
F 13

$$$$
=
 OpenBabel10232411183D

 50 55  0  0  1  0  0  0  0  0999 V2000
  190.4690  174.1310  136.0180 N   0  0  0  0  0  2  0  0  0  0  0  0
  187.5170  176.9380  137.7740 C   0  0  1  0  0  3  0  0  0  0  0  0
  191.7940  174.0270  135.4890 C   0  0  0  0  0  0  0  0  0  0  0  0
  191.9730  173.5340  134.3470 O   0  0  0  0  0  0  0  0  0  0  0  0
  190.8380  176.2660  138.9010 N   0  0  0  0  0  2  0  0  0  0  0  0
  185.6760  172.9380  136.4240 O   0  0  0  0  0  0  0  0  0  0  0  0
  188.0240  175.7380  136.9420 C   0  0  1  0  0  3  0  0  0  0  0  0
  192.5750  175.5860  137.2800 C   0  0  2  0  0  3  0  0  0  0  0  0
  191.4240  175.1310  138.1860 C   0  0  2  0  0  3  0  0  0  0  0  0
  190.2820  174.6550  137.3350 C   0  0  1  0  0  3  0  0  0  0  0  0
  185.6120  175.1410  136.3160 C   0  0  0  0  0  0  0  0  0  0  0  0
  186.1090  177.5480  135.7310 C   0  0  0  0  0  2  0  0  0  0  0  0
  189.5640  176.2260  138.6950 C   0  0  2  0  0  3  0  0  0  0  0  0
  192.9750  174.4750  136.3010 C   0  0  0  0  0  2  0  0  0  0  0  0
  185.0530  176.5340  136.1770 C   0  0  0  0  0  2  0  0  0  0  0  0
  186.8700  173.3770  136.7630 C   0  0  0  0  0  0  0  0  0  0  0  0
  184.9030  173.9680  136.1600 C   0  0  0  0  0  0  0  0  0  0  0  0
  189.1780  175.2570  137.7380 C   0  0  1  0  0  3  0  0  0  0  0  0
  186.8850  174.7700  136.7350 C   0  0  0  0  0  0  0  0  0  0  0  0
  188.6410  177.3790  138.7350 C   0  0  2  0  0  3  0  0  0  0  0  0
  188.0860  177.5430  140.1360 C   0  0  0  0  0  1  0  0  0  0  0  0
  186.9830  178.0690  136.8890 C   0  0  1  0  0  3  0  0  0  0  0  0
  182.5170  173.8840  136.6580 C   0  0  0  0  0  3  0  0  0  0  0  0
  183.4970  173.8690  135.7600 C   0  0  0  0  0  3  0  0  0  0  0  0
  181.0600  173.7840  136.2910 C   0  0  1  0  0  0  0  0  0  0  0  0
  180.9480  174.0940  134.9330 O   0  0  0  0  0  1  0  0  0  0  0  0
  180.5370  172.3470  136.4990 C   0  0  2  0  0  3  0  0  0  0  0  0
  180.6980  171.9530  137.8300 O   0  0  0  0  0  1  0  0  0  0  0  0
  181.2000  171.3160  135.5920 C   0  0  0  0  0  1  0  0  0  0  0  0
  180.5730  176.0990  136.7680 O   0  0  0  0  0  1  0  0  0  0  0  0
  180.2220  174.7890  137.0910 C   0  0  0  0  0  2  0  0  0  0  0  0
  187.9860  172.4920  137.1140 C   0  0  0  0  0  3  0  0  0  0  0  0
  188.2390  171.3890  136.4210 C   0  0  0  0  0  2  0  0  0  0  0  0
  193.7780  176.0450  138.0930 C   0  0  0  0  0  2  0  0  0  0  0  0
  194.8710  175.1490  137.9370 O   0  0  0  0  0  0  0  0  0  0  0  0
  195.3110  173.1010  139.1200 O   0  0  0  0  0  0  0  0  0  0  0  0
  196.0390  175.1150  139.9290 O   0  0  0  0  0  1  0  0  0  0  0  0
  195.4300  174.4800  139.0260 C   0  0  0  0  0  0  0  0  0  0  0  0
  186.2010  179.0660  137.7360 C   0  0  0  0  0  2  0  0  0  0  0  0
  185.5420  178.3800  138.8360 N   0  0  0  0  0  2  0  0  0  0  0  0
  183.0430  178.6240  137.5950 O   0  0  0  0  0  0  0  0  0  0  0  0
  183.9970  180.5420  139.0900 O   0  0  0  0  0  1  0  0  0  0  0  0
  183.9230  179.0350  138.9790 P   0  0  2  0  0  0  0  0  0  0  0  0
  183.0830  178.3560  140.4470 C   0  0  0  0  0  2  0  0  0  0  0  0
  184.7830  178.0280  142.0460 C   0  0  0  0  0  2  0  0  0  0  0  0
  183.1770  179.2840  144.0670 C   0  0  0  0  0  2  0  0  0  0  0  0
  184.6680  179.6270  144.0290 C   0  0  0  0  0  2  0  0  0  0  0  0
  185.4710  178.5280  143.3270 C   0  0  0  0  0  2  0  0  0  0  0  0
  182.6470  178.8190  142.7010 C   0  0  0  0  0  2  0  0  0  0  0  0
  183.6740  178.9010  141.6590 N   0  0  0  0  0  0  0  0  0  0  0  0
  1 10  1  0  0  0  0
  2 20  1  0  0  0  0
  3  1  1  0  0  0  0
  3 14  1  0  0  0  0
  4  3  2  0  0  0  0
  6 16  1  0  0  0  0
  7 18  1  0  0  0  0
  7  2  1  0  0  0  0
  8 34  1  0  0  0  0
  8  9  1  0  0  0  0
  9  5  1  0  0  0  0
 10 18  1  0  0  0  0
 10  9  1  0  0  0  0
 11 19  1  0  0  0  0
 12 15  1  0  0  0  0
 12 22  1  0  0  0  0
 13 20  1  0  0  0  0
 13  5  1  0  0  0  0
 14  8  1  0  0  0  0
 15 11  1  0  0  0  0
 16 32  1  0  0  0  0
 17 11  2  0  0  0  0
 17  6  1  0  0  0  0
 18 13  1  0  0  0  0
 19 16  2  0  0  0  0
 19  7  1  0  0  0  0
 20 21  1  0  0  0  0
 22 39  1  0  0  0  0
 22  2  1  0  0  0  0
 24 17  1  0  0  0  0
 24 23  2  0  0  0  0
 25 27  1  0  0  0  0
 25 23  1  0  0  0  0
 25 31  1  0  0  0  0
 26 25  1  0  0  0  0
 27 28  1  0  0  0  0
 29 27  1  0  0  0  0
 30 31  1  0  0  0  0
 33 32  2  0  0  0  0
 35 34  1  0  0  0  0
 35 38  1  0  0  0  0
 38 36  2  0  0  0  0
 38 37  1  0  0  0  0
 39 40  1  0  0  0  0
 40 43  1  0  0  0  0
 41 43  2  0  0  0  0
 43 42  1  0  0  0  0
 43 44  1  0  0  0  0
 44 50  1  0  0  0  0
 45 48  1  0  0  0  0
 47 46  1  0  0  0  0
 48 47  1  0  0  0  0
 49 46  1  0  0  0  0
 50 45  1  0  0  0  0
 50 49  1  0  0  0  0
M  END
>  <MODEL>
2

>  <REMARK>
 VINA RESULT:      -5.9      3.372     10.641
  Name = 
  13 active torsions:
  status: ('A' for Active; 'I' for Inactive)
    1  A    between atoms: C_1  and  C_12
    2  A    between atoms: C_1  and  C_13
    3  A    between atoms: C_1  and  C_19
    4  A    between atoms: O_8  and  C_37
    5  A    between atoms: O_8  and  C_38
    6  A    between atoms: C_15  and  N_48
    7  A    between atoms: C_15  and  P_49
    8  A    between atoms: C_17  and  C_37
    9  A    between atoms: C_20  and  C_40
   10  A    between atoms: N_23  and  C_47
   11  A    between atoms: N_23  and  P_49
   12  A    between atoms: C_29  and  C_39
   13  A    between atoms: C_45  and  C_47
                            x       y       z     vdW  Elec       q    Type
                         _______ _______ _______ _____ _____    ______ ____

>  <TORSDO>
F 13

$$$$
=
 OpenBabel10232411183D

 50 55  0  0  1  0  0  0  0  0999 V2000
  186.7920  173.7300  136.3610 N   0  0  0  0  0  2  0  0  0  0  0  0
  188.8340  177.1160  138.3730 C   0  0  1  0  0  3  0  0  0  0  0  0
  185.6050  172.9330  136.3570 C   0  0  0  0  0  0  0  0  0  0  0  0
  185.6930  171.6810  136.4260 O   0  0  0  0  0  0  0  0  0  0  0  0
  185.5940  177.0930  136.8720 N   0  0  0  0  0  2  0  0  0  0  0  0
  191.6220  174.6180  135.6900 O   0  0  0  0  0  0  0  0  0  0  0  0
  188.7040  175.7620  137.6390 C   0  0  1  0  0  3  0  0  0  0  0  0
  184.2780  175.0020  136.8140 C   0  0  2  0  0  3  0  0  0  0  0  0
  185.3580  175.8520  136.1320 C   0  0  2  0  0  3  0  0  0  0  0  0
  186.6820  175.1500  136.2390 C   0  0  1  0  0  3  0  0  0  0  0  0
  191.2510  175.4820  137.6860 C   0  0  0  0  0  0  0  0  0  0  0  0
  190.3630  175.8930  140.0150 C   0  0  0  0  0  2  0  0  0  0  0  0
  186.8660  177.1730  137.0820 C   0  0  2  0  0  3  0  0  0  0  0  0
  184.2540  173.5810  136.2380 C   0  0  0  0  0  2  0  0  0  0  0  0
  191.5290  176.0790  139.0410 C   0  0  0  0  0  2  0  0  0  0  0  0
  190.3280  174.8440  135.7790 C   0  0  0  0  0  0  0  0  0  0  0  0
  192.1980  174.9970  136.8080 C   0  0  0  0  0  0  0  0  0  0  0  0
  187.5720  176.0030  136.7140 C   0  0  1  0  0  3  0  0  0  0  0  0
  190.0340  175.4130  137.0170 C   0  0  0  0  0  0  0  0  0  0  0  0
  187.5200  177.9030  138.1870 C   0  0  2  0  0  3  0  0  0  0  0  0
  187.8270  179.3230  137.7530 C   0  0  0  0  0  1  0  0  0  0  0  0
  189.2470  176.9420  139.8380 C   0  0  1  0  0  3  0  0  0  0  0  0
  194.1590  173.8840  137.7380 C   0  0  0  0  0  3  0  0  0  0  0  0
  193.6370  174.9090  137.0710 C   0  0  0  0  0  3  0  0  0  0  0  0
  195.6310  173.7540  138.0310 C   0  0  1  0  0  0  0  0  0  0  0  0
  195.8050  172.6040  138.8050 O   0  0  0  0  0  1  0  0  0  0  0  0
  196.4390  173.5810  136.7280 C   0  0  2  0  0  3  0  0  0  0  0  0
  197.0350  172.3180  136.6830 O   0  0  0  0  0  1  0  0  0  0  0  0
  197.5130  174.6450  136.5270 C   0  0  0  0  0  1  0  0  0  0  0  0
  196.2980  174.6360  140.1770 O   0  0  0  0  0  1  0  0  0  0  0  0
  196.1400  174.9610  138.8290 C   0  0  0  0  0  2  0  0  0  0  0  0
  189.3770  174.5290  134.7070 C   0  0  0  0  0  3  0  0  0  0  0  0
  189.1310  173.2770  134.3460 C   0  0  0  0  0  2  0  0  0  0  0  0
  182.9040  175.6500  136.7030 C   0  0  0  0  0  2  0  0  0  0  0  0
  182.0620  175.2470  137.7750 O   0  0  0  0  0  0  0  0  0  0  0  0
  182.2250  177.4140  138.8060 O   0  0  0  0  0  0  0  0  0  0  0  0
  180.9470  175.7560  139.7330 O   0  0  0  0  0  1  0  0  0  0  0  0
  181.7150  176.1230  138.8030 C   0  0  0  0  0  0  0  0  0  0  0  0
  189.6820  178.2810  140.4190 C   0  0  0  0  0  2  0  0  0  0  0  0
  189.0910  178.4730  141.7330 N   0  0  0  0  0  2  0  0  0  0  0  0
  190.7350  179.6480  143.6720 O   0  0  0  0  0  1  0  0  0  0  0  0
  191.5710  177.6260  142.2440 O   0  0  0  0  0  0  0  0  0  0  0  0
  190.3400  178.1820  142.9270 P   0  0  2  0  0  0  0  0  0  0  0  0
  189.7590  177.0050  144.1910 C   0  0  0  0  0  2  0  0  0  0  0  0
  188.9580  177.1540  146.4030 C   0  0  0  0  0  2  0  0  0  0  0  0
  186.3000  177.6660  145.4460 C   0  0  0  0  0  2  0  0  0  0  0  0
  186.7970  178.4860  146.6390 C   0  0  0  0  0  2  0  0  0  0  0  0
  187.9330  177.7660  147.3710 C   0  0  0  0  0  2  0  0  0  0  0  0
  187.4530  177.1440  144.5720 C   0  0  0  0  0  2  0  0  0  0  0  0
  188.7540  177.6330  145.0350 N   0  0  0  0  0  0  0  0  0  0  0  0
  2 22  1  0  0  0  0
  3  1  1  0  0  0  0
  3  4  2  0  0  0  0
  5 13  1  0  0  0  0
  6 16  1  0  0  0  0
  6 17  1  0  0  0  0
  7  2  1  0  0  0  0
  9 10  1  0  0  0  0
  9  8  1  0  0  0  0
  9  5  1  0  0  0  0
 10  1  1  0  0  0  0
 10 18  1  0  0  0  0
 11 15  1  0  0  0  0
 13 20  1  0  0  0  0
 14  3  1  0  0  0  0
 14  8  1  0  0  0  0
 15 12  1  0  0  0  0
 16 19  2  0  0  0  0
 17 24  1  0  0  0  0
 17 11  2  0  0  0  0
 18 13  1  0  0  0  0
 18  7  1  0  0  0  0
 19  7  1  0  0  0  0
 19 11  1  0  0  0  0
 20  2  1  0  0  0  0
 21 20  1  0  0  0  0
 22 12  1  0  0  0  0
 22 39  1  0  0  0  0
 23 25  1  0  0  0  0
 24 23  2  0  0  0  0
 25 26  1  0  0  0  0
 25 31  1  0  0  0  0
 27 25  1  0  0  0  0
 28 27  1  0  0  0  0
 29 27  1  0  0  0  0
 31 30  1  0  0  0  0
 32 16  1  0  0  0  0
 33 32  2  0  0  0  0
 34  8  1  0  0  0  0
 34 35  1  0  0  0  0
 35 38  1  0  0  0  0
 38 36  2  0  0  0  0
 38 37  1  0  0  0  0
 39 40  1  0  0  0  0
 40 43  1  0  0  0  0
 42 43  2  0  0  0  0
 43 41  1  0  0  0  0
 43 44  1  0  0  0  0
 44 50  1  0  0  0  0
 45 48  1  0  0  0  0
 46 47  1  0  0  0  0
 47 48  1  0  0  0  0
 49 50  1  0  0  0  0
 49 46  1  0  0  0  0
 50 45  1  0  0  0  0
M  END
>  <MODEL>
3

>  <REMARK>
 VINA RESULT:      -5.2      3.112      7.842
  Name = 
  13 active torsions:
  status: ('A' for Active; 'I' for Inactive)
    1  A    between atoms: C_1  and  C_12
    2  A    between atoms: C_1  and  C_13
    3  A    between atoms: C_1  and  C_19
    4  A    between atoms: O_8  and  C_37
    5  A    between atoms: O_8  and  C_38
    6  A    between atoms: C_15  and  N_48
    7  A    between atoms: C_15  and  P_49
    8  A    between atoms: C_17  and  C_37
    9  A    between atoms: C_20  and  C_40
   10  A    between atoms: N_23  and  C_47
   11  A    between atoms: N_23  and  P_49
   12  A    between atoms: C_29  and  C_39
   13  A    between atoms: C_45  and  C_47
                            x       y       z     vdW  Elec       q    Type
                         _______ _______ _______ _____ _____    ______ ____

>  <TORSDO>
F 13

$$$$
=
 OpenBabel10232411183D

 50 55  0  0  1  0  0  0  0  0999 V2000
  185.5090  173.8240  136.6510 N   0  0  0  0  0  2  0  0  0  0  0  0
  188.6300  176.8030  137.6780 C   0  0  1  0  0  3  0  0  0  0  0  0
  184.2260  173.3150  137.0280 C   0  0  0  0  0  0  0  0  0  0  0  0
  184.0790  172.0840  137.2330 O   0  0  0  0  0  0  0  0  0  0  0  0
  185.1760  177.3970  136.9990 N   0  0  0  0  0  2  0  0  0  0  0  0
  190.0780  173.5550  134.7510 O   0  0  0  0  0  0  0  0  0  0  0  0
  188.0490  175.4630  137.1730 C   0  0  1  0  0  3  0  0  0  0  0  0
  183.5010  175.6560  137.5200 C   0  0  2  0  0  3  0  0  0  0  0  0
  184.5150  176.1900  136.5000 C   0  0  2  0  0  3  0  0  0  0  0  0
  185.6550  175.2200  136.3800 C   0  0  1  0  0  3  0  0  0  0  0  0
  190.4140  174.6240  136.6520 C   0  0  0  0  0  0  0  0  0  0  0  0
  190.2560  175.3920  139.0540 C   0  0  0  0  0  2  0  0  0  0  0  0
  186.4480  177.2060  136.8910 C   0  0  2  0  0  3  0  0  0  0  0  0
  183.0470  174.2380  137.1510 C   0  0  0  0  0  2  0  0  0  0  0  0
  191.1450  175.2400  137.8170 C   0  0  0  0  0  2  0  0  0  0  0  0
  188.9230  174.0710  135.1140 C   0  0  0  0  0  0  0  0  0  0  0  0
  190.9870  173.8760  135.6450 C   0  0  0  0  0  0  0  0  0  0  0  0
  186.7880  175.8830  136.5190 C   0  0  1  0  0  3  0  0  0  0  0  0
  189.0770  174.7810  136.3040 C   0  0  0  0  0  0  0  0  0  0  0  0
  187.4960  177.8490  137.7090 C   0  0  2  0  0  3  0  0  0  0  0  0
  187.9570  179.1280  137.0380 C   0  0  0  0  0  1  0  0  0  0  0  0
  189.3640  176.6480  139.0140 C   0  0  1  0  0  3  0  0  0  0  0  0
  193.0270  172.9530  136.6120 C   0  0  0  0  0  3  0  0  0  0  0  0
  192.3980  173.4870  135.5690 C   0  0  0  0  0  3  0  0  0  0  0  0
  194.4750  172.5410  136.5790 C   0  0  1  0  0  0  0  0  0  0  0  0
  194.9650  172.8350  135.3040 O   0  0  0  0  0  1  0  0  0  0  0  0
  195.3010  173.3420  137.6060 C   0  0  2  0  0  3  0  0  0  0  0  0
  195.0300  172.9030  138.9050 O   0  0  0  0  0  1  0  0  0  0  0  0
  195.0740  174.8490  137.5330 C   0  0  0  0  0  1  0  0  0  0  0  0
  193.8850  170.3040  135.8870 O   0  0  0  0  0  1  0  0  0  0  0  0
  194.6220  171.0330  136.8210 C   0  0  0  0  0  2  0  0  0  0  0  0
  187.6850  173.9000  134.3460 C   0  0  0  0  0  3  0  0  0  0  0  0
  187.0240  172.7500  134.3460 C   0  0  0  0  0  2  0  0  0  0  0  0
  182.3020  176.5860  137.6540 C   0  0  0  0  0  2  0  0  0  0  0  0
  182.5500  177.6010  138.6180 O   0  0  0  0  0  0  0  0  0  0  0  0
  183.3650  177.6100  140.8820 O   0  0  0  0  0  1  0  0  0  0  0  0
  181.2150  176.9870  140.4000 O   0  0  0  0  0  0  0  0  0  0  0  0
  182.3340  177.3860  139.9800 C   0  0  0  0  0  0  0  0  0  0  0  0
  190.1920  177.8950  139.3010 C   0  0  0  0  0  2  0  0  0  0  0  0
  191.1730  177.6170  140.3370 N   0  0  0  0  0  2  0  0  0  0  0  0
  190.8220  178.6220  142.9270 O   0  0  0  0  0  1  0  0  0  0  0  0
  190.6200  176.0640  142.4360 O   0  0  0  0  0  0  0  0  0  0  0  0
  190.3100  177.4230  141.8490 P   0  0  2  0  0  0  0  0  0  0  0  0
  188.5130  177.5800  141.5890 C   0  0  0  0  0  2  0  0  0  0  0  0
  187.9170  176.7740  143.7220 C   0  0  0  0  0  2  0  0  0  0  0  0
  185.6170  178.4910  143.7710 C   0  0  0  0  0  2  0  0  0  0  0  0
  186.4350  178.3620  145.0580 C   0  0  0  0  0  2  0  0  0  0  0  0
  187.2400  177.0600  145.0730 C   0  0  0  0  0  2  0  0  0  0  0  0
  186.4500  178.1880  142.5140 C   0  0  0  0  0  2  0  0  0  0  0  0
  187.8560  177.9380  142.8370 N   0  0  0  0  0  0  0  0  0  0  0  0
  1  3  1  0  0  0  0
  2 20  1  0  0  0  0
  2 22  1  0  0  0  0
  3 14  1  0  0  0  0
  3  4  2  0  0  0  0
  6 16  1  0  0  0  0
  6 17  1  0  0  0  0
  7  2  1  0  0  0  0
  8 34  1  0  0  0  0
  9  5  1  0  0  0  0
  9  8  1  0  0  0  0
 10  9  1  0  0  0  0
 10 18  1  0  0  0  0
 10  1  1  0  0  0  0
 11 15  1  0  0  0  0
 13  5  1  0  0  0  0
 13 20  1  0  0  0  0
 14  8  1  0  0  0  0
 15 12  1  0  0  0  0
 16 19  2  0  0  0  0
 17 11  2  0  0  0  0
 18 13  1  0  0  0  0
 18  7  1  0  0  0  0
 19 11  1  0  0  0  0
 19  7  1  0  0  0  0
 21 20  1  0  0  0  0
 22 12  1  0  0  0  0
 22 39  1  0  0  0  0
 24 17  1  0  0  0  0
 24 23  2  0  0  0  0
 25 23  1  0  0  0  0
 25 31  1  0  0  0  0
 25 27  1  0  0  0  0
 26 25  1  0  0  0  0
 27 28  1  0  0  0  0
 29 27  1  0  0  0  0
 30 31  1  0  0  0  0
 32 33  2  0  0  0  0
 32 16  1  0  0  0  0
 34 35  1  0  0  0  0
 35 38  1  0  0  0  0
 38 37  2  0  0  0  0
 38 36  1  0  0  0  0
 39 40  1  0  0  0  0
 40 43  1  0  0  0  0
 43 42  2  0  0  0  0
 43 41  1  0  0  0  0
 44 43  1  0  0  0  0
 44 50  1  0  0  0  0
 45 48  1  0  0  0  0
 46 47  1  0  0  0  0
 47 48  1  0  0  0  0
 49 50  1  0  0  0  0
 49 46  1  0  0  0  0
 50 45  1  0  0  0  0
M  END
>  <MODEL>
4

>  <REMARK>
 VINA RESULT:      -5.1      2.861      7.557
  Name = 
  13 active torsions:
  status: ('A' for Active; 'I' for Inactive)
    1  A    between atoms: C_1  and  C_12
    2  A    between atoms: C_1  and  C_13
    3  A    between atoms: C_1  and  C_19
    4  A    between atoms: O_8  and  C_37
    5  A    between atoms: O_8  and  C_38
    6  A    between atoms: C_15  and  N_48
    7  A    between atoms: C_15  and  P_49
    8  A    between atoms: C_17  and  C_37
    9  A    between atoms: C_20  and  C_40
   10  A    between atoms: N_23  and  C_47
   11  A    between atoms: N_23  and  P_49
   12  A    between atoms: C_29  and  C_39
   13  A    between atoms: C_45  and  C_47
                            x       y       z     vdW  Elec       q    Type
                         _______ _______ _______ _____ _____    ______ ____

>  <TORSDO>
F 13

$$$$
=
 OpenBabel10232411183D

 50 55  0  0  1  0  0  0  0  0999 V2000
  188.3850  173.5070  136.3890 N   0  0  0  0  0  2  0  0  0  0  0  0
  190.1550  176.8740  138.6710 C   0  0  1  0  0  3  0  0  0  0  0  0
  187.3570  172.5130  136.4050 C   0  0  0  0  0  0  0  0  0  0  0  0
  187.6550  171.3030  136.2420 O   0  0  0  0  0  0  0  0  0  0  0  0
  186.7610  176.4740  137.6380 N   0  0  0  0  0  2  0  0  0  0  0  0
  192.8340  175.3650  135.2420 O   0  0  0  0  0  0  0  0  0  0  0  0
  190.1270  175.6440  137.7350 C   0  0  1  0  0  3  0  0  0  0  0  0
  185.8070  174.2080  137.3920 C   0  0  2  0  0  3  0  0  0  0  0  0
  186.6100  175.3350  136.7310 C   0  0  2  0  0  3  0  0  0  0  0  0
  188.0290  174.8830  136.5350 C   0  0  1  0  0  3  0  0  0  0  0  0
  192.6590  175.8380  137.3900 C   0  0  0  0  0  0  0  0  0  0  0  0
  192.1080  175.7250  139.8520 C   0  0  0  0  0  2  0  0  0  0  0  0
  188.0200  176.7570  137.6850 C   0  0  2  0  0  3  0  0  0  0  0  0
  185.9180  172.9090  136.5850 C   0  0  0  0  0  2  0  0  0  0  0  0
  193.0540  176.2680  138.7790 C   0  0  0  0  0  2  0  0  0  0  0  0
  191.5530  175.3310  135.5420 C   0  0  0  0  0  0  0  0  0  0  0  0
  193.5160  175.6730  136.3220 C   0  0  0  0  0  0  0  0  0  0  0  0
  188.8360  175.8060  137.0270 C   0  0  1  0  0  3  0  0  0  0  0  0
  191.3760  175.6450  136.8890 C   0  0  0  0  0  0  0  0  0  0  0  0
  188.7190  177.4230  138.8040 C   0  0  2  0  0  3  0  0  0  0  0  0
  188.7190  178.9230  138.5870 C   0  0  0  0  0  1  0  0  0  0  0  0
  190.8240  176.5630  140.0140 C   0  0  1  0  0  3  0  0  0  0  0  0
  195.7800  174.7960  136.0850 C   0  0  0  0  0  3  0  0  0  0  0  0
  194.9740  175.8150  136.3690 C   0  0  0  0  0  3  0  0  0  0  0  0
  197.2820  174.8980  136.1230 C   0  0  1  0  0  0  0  0  0  0  0  0
  197.6060  176.2370  136.3580 O   0  0  0  0  0  1  0  0  0  0  0  0
  197.8640  174.0540  137.2760 C   0  0  2  0  0  3  0  0  0  0  0  0
  197.3130  172.7690  137.2720 O   0  0  0  0  0  1  0  0  0  0  0  0
  197.6620  174.6770  138.6530 C   0  0  0  0  0  1  0  0  0  0  0  0
  199.2840  174.5910  134.8090 O   0  0  0  0  0  1  0  0  0  0  0  0
  197.8940  174.4780  134.7800 C   0  0  0  0  0  2  0  0  0  0  0  0
  190.5030  175.0080  134.5700 C   0  0  0  0  0  3  0  0  0  0  0  0
  190.1250  173.7560  134.3490 C   0  0  0  0  0  2  0  0  0  0  0  0
  184.3470  174.6000  137.5810 C   0  0  0  0  0  2  0  0  0  0  0  0
  183.5060  173.4530  137.5670 O   0  0  0  0  0  0  0  0  0  0  0  0
  182.7560  171.8680  135.9200 O   0  0  0  0  0  0  0  0  0  0  0  0
  181.9510  174.0110  135.9530 O   0  0  0  0  0  1  0  0  0  0  0  0
  182.7090  173.1440  136.4640 C   0  0  0  0  0  0  0  0  0  0  0  0
  191.1270  177.8590  140.7560 C   0  0  0  0  0  2  0  0  0  0  0  0
  191.6120  177.5670  142.0950 N   0  0  0  0  0  2  0  0  0  0  0  0
  188.9320  178.3000  142.4450 O   0  0  0  0  0  0  0  0  0  0  0  0
  190.8420  179.5240  143.7390 O   0  0  0  0  0  1  0  0  0  0  0  0
  190.4210  178.1620  143.2340 P   0  0  2  0  0  0  0  0  0  0  0  0
  190.2490  177.0160  144.6410 C   0  0  0  0  0  2  0  0  0  0  0  0
  189.6460  176.9560  146.9190 C   0  0  0  0  0  2  0  0  0  0  0  0
  186.9240  177.5810  146.2540 C   0  0  0  0  0  2  0  0  0  0  0  0
  187.5370  178.2780  147.4720 C   0  0  0  0  0  2  0  0  0  0  0  0
  188.7190  177.4800  148.0290 C   0  0  0  0  0  2  0  0  0  0  0  0
  187.9880  177.1370  145.2360 C   0  0  0  0  0  2  0  0  0  0  0  0
  189.3320  177.5670  145.6270 N   0  0  0  0  0  0  0  0  0  0  0  0
  1  3  1  0  0  0  0
  1 10  1  0  0  0  0
  2 20  1  0  0  0  0
  2 22  1  0  0  0  0
  3 14  1  0  0  0  0
  4  3  2  0  0  0  0
  5 13  1  0  0  0  0
  6 16  1  0  0  0  0
  6 17  1  0  0  0  0
  7  2  1  0  0  0  0
  8 34  1  0  0  0  0
  9  8  1  0  0  0  0
  9  5  1  0  0  0  0
 10  9  1  0  0  0  0
 10 18  1  0  0  0  0
 11 15  1  0  0  0  0
 12 22  1  0  0  0  0
 13 20  1  0  0  0  0
 14  8  1  0  0  0  0
 15 12  1  0  0  0  0
 16 19  2  0  0  0  0
 17 24  1  0  0  0  0
 17 11  2  0  0  0  0
 18 13  1  0  0  0  0
 18  7  1  0  0  0  0
 19 11  1  0  0  0  0
 19  7  1  0  0  0  0
 21 20  1  0  0  0  0
 22 39  1  0  0  0  0
 23 25  1  0  0  0  0
 23 24  2  0  0  0  0
 25 26  1  0  0  0  0
 25 27  1  0  0  0  0
 27 29  1  0  0  0  0
 28 27  1  0  0  0  0
 31 30  1  0  0  0  0
 31 25  1  0  0  0  0
 32 16  1  0  0  0  0
 33 32  2  0  0  0  0
 35 34  1  0  0  0  0
 36 38  2  0  0  0  0
 37 38  1  0  0  0  0
 38 35  1  0  0  0  0
 39 40  1  0  0  0  0
 40 43  1  0  0  0  0
 41 43  2  0  0  0  0
 43 42  1  0  0  0  0
 43 44  1  0  0  0  0
 44 50  1  0  0  0  0
 45 48  1  0  0  0  0
 46 47  1  0  0  0  0
 47 48  1  0  0  0  0
 49 50  1  0  0  0  0
 49 46  1  0  0  0  0
 50 45  1  0  0  0  0
M  END
>  <MODEL>
5

>  <REMARK>
 VINA RESULT:      -5.0      3.558      8.582
  Name = 
  13 active torsions:
  status: ('A' for Active; 'I' for Inactive)
    1  A    between atoms: C_1  and  C_12
    2  A    between atoms: C_1  and  C_13
    3  A    between atoms: C_1  and  C_19
    4  A    between atoms: O_8  and  C_37
    5  A    between atoms: O_8  and  C_38
    6  A    between atoms: C_15  and  N_48
    7  A    between atoms: C_15  and  P_49
    8  A    between atoms: C_17  and  C_37
    9  A    between atoms: C_20  and  C_40
   10  A    between atoms: N_23  and  C_47
   11  A    between atoms: N_23  and  P_49
   12  A    between atoms: C_29  and  C_39
   13  A    between atoms: C_45  and  C_47
                            x       y       z     vdW  Elec       q    Type
                         _______ _______ _______ _____ _____    ______ ____

>  <TORSDO>
F 13

$$$$
=
 OpenBabel10232411183D

 50 55  0  0  1  0  0  0  0  0999 V2000
  186.2000  174.8670  136.7910 N   0  0  0  0  0  2  0  0  0  0  0  0
  189.4430  177.2490  138.6570 C   0  0  1  0  0  3  0  0  0  0  0  0
  184.8940  174.3230  137.0050 C   0  0  0  0  0  0  0  0  0  0  0  0
  184.6920  173.0960  136.8240 O   0  0  0  0  0  0  0  0  0  0  0  0
  186.0220  178.1720  138.2230 N   0  0  0  0  0  2  0  0  0  0  0  0
  190.7630  174.9970  134.8630 O   0  0  0  0  0  0  0  0  0  0  0  0
  188.8070  176.1550  137.7700 C   0  0  1  0  0  3  0  0  0  0  0  0
  184.2700  176.4290  138.1980 C   0  0  2  0  0  3  0  0  0  0  0  0
  185.3110  177.2060  137.3830 C   0  0  2  0  0  3  0  0  0  0  0  0
  186.4080  176.2710  136.9610 C   0  0  1  0  0  3  0  0  0  0  0  0
  191.1350  175.4150  136.9970 C   0  0  0  0  0  0  0  0  0  0  0  0
  190.9990  175.4140  139.5190 C   0  0  0  0  0  2  0  0  0  0  0  0
  187.2850  177.9680  138.0500 C   0  0  2  0  0  3  0  0  0  0  0  0
  183.7560  175.2140  137.4150 C   0  0  0  0  0  2  0  0  0  0  0  0
  191.8860  175.6120  138.2880 C   0  0  0  0  0  2  0  0  0  0  0  0
  189.6290  175.4260  135.3760 C   0  0  0  0  0  0  0  0  0  0  0  0
  191.6800  174.9880  135.8040 C   0  0  0  0  0  0  0  0  0  0  0  0
  187.5690  176.8100  137.2870 C   0  0  1  0  0  3  0  0  0  0  0  0
  189.8080  175.7290  136.7250 C   0  0  0  0  0  0  0  0  0  0  0  0
  188.3560  178.2830  139.0180 C   0  0  2  0  0  3  0  0  0  0  0  0
  188.8760  179.6850  138.7680 C   0  0  0  0  0  1  0  0  0  0  0  0
  190.1620  176.6600  139.8750 C   0  0  1  0  0  3  0  0  0  0  0  0
  194.0710  175.4550  135.6900 C   0  0  0  0  0  3  0  0  0  0  0  0
  193.0730  174.5810  135.6000 C   0  0  0  0  0  3  0  0  0  0  0  0
  195.5160  175.0800  135.4870 C   0  0  1  0  0  0  0  0  0  0  0  0
  195.5650  174.1500  134.4460 O   0  0  0  0  0  1  0  0  0  0  0  0
  196.3520  176.3090  135.0730 C   0  0  2  0  0  3  0  0  0  0  0  0
  197.4330  176.4840  135.9410 O   0  0  0  0  0  1  0  0  0  0  0  0
  195.5490  177.6040  135.0120 C   0  0  0  0  0  1  0  0  0  0  0  0
  196.1290  173.0400  136.6230 O   0  0  0  0  0  1  0  0  0  0  0  0
  196.0960  174.4290  136.7490 C   0  0  0  0  0  2  0  0  0  0  0  0
  188.3890  175.5530  134.6030 C   0  0  0  0  0  3  0  0  0  0  0  0
  187.8340  176.7360  134.3740 C   0  0  0  0  0  2  0  0  0  0  0  0
  183.1110  177.3240  138.6220 C   0  0  0  0  0  2  0  0  0  0  0  0
  182.7560  177.0880  139.9780 O   0  0  0  0  0  0  0  0  0  0  0  0
  183.2310  178.4190  141.9250 O   0  0  0  0  0  1  0  0  0  0  0  0
  181.3770  178.8180  140.6430 O   0  0  0  0  0  0  0  0  0  0  0  0
  182.4170  178.1330  140.8380 C   0  0  0  0  0  0  0  0  0  0  0  0
  191.0420  177.7210  140.5230 C   0  0  0  0  0  2  0  0  0  0  0  0
  191.4610  177.2850  141.8450 N   0  0  0  0  0  2  0  0  0  0  0  0
  189.1150  178.7730  142.1980 O   0  0  0  0  0  0  0  0  0  0  0  0
  191.1690  179.1040  143.7770 O   0  0  0  0  0  1  0  0  0  0  0  0
  190.4020  178.0450  143.0170 P   0  0  2  0  0  0  0  0  0  0  0  0
  189.7460  176.8100  144.1860 C   0  0  0  0  0  2  0  0  0  0  0  0
  189.5370  176.9260  146.5300 C   0  0  0  0  0  2  0  0  0  0  0  0
  186.7730  177.6640  146.2850 C   0  0  0  0  0  2  0  0  0  0  0  0
  187.6150  178.3990  147.3310 C   0  0  0  0  0  2  0  0  0  0  0  0
  188.8370  177.5710  147.7390 C   0  0  0  0  0  2  0  0  0  0  0  0
  187.6270  177.0970  145.1380 C   0  0  0  0  0  2  0  0  0  0  0  0
  189.0360  177.4730  145.2680 N   0  0  0  0  0  0  0  0  0  0  0  0
  1 10  1  0  0  0  0
  1  3  1  0  0  0  0
  2 20  1  0  0  0  0
  2 22  1  0  0  0  0
  3 14  1  0  0  0  0
  4  3  2  0  0  0  0
  6 16  1  0  0  0  0
  6 17  1  0  0  0  0
  7  2  1  0  0  0  0
  8 34  1  0  0  0  0
  9  8  1  0  0  0  0
  9  5  1  0  0  0  0
 10 18  1  0  0  0  0
 10  9  1  0  0  0  0
 11 15  1  0  0  0  0
 12 22  1  0  0  0  0
 13  5  1  0  0  0  0
 13 20  1  0  0  0  0
 14  8  1  0  0  0  0
 15 12  1  0  0  0  0
 16 19  2  0  0  0  0
 17 11  2  0  0  0  0
 18  7  1  0  0  0  0
 18 13  1  0  0  0  0
 19 11  1  0  0  0  0
 19  7  1  0  0  0  0
 21 20  1  0  0  0  0
 22 39  1  0  0  0  0
 24 23  2  0  0  0  0
 24 17  1  0  0  0  0
 25 23  1  0  0  0  0
 25 31  1  0  0  0  0
 26 25  1  0  0  0  0
 27 25  1  0  0  0  0
 27 28  1  0  0  0  0
 29 27  1  0  0  0  0
 30 31  1  0  0  0  0
 32 16  1  0  0  0  0
 33 32  2  0  0  0  0
 34 35  1  0  0  0  0
 35 38  1  0  0  0  0
 37 38  2  0  0  0  0
 38 36  1  0  0  0  0
 39 40  1  0  0  0  0
 40 43  1  0  0  0  0
 41 43  2  0  0  0  0
 43 42  1  0  0  0  0
 43 44  1  0  0  0  0
 44 50  1  0  0  0  0
 45 48  1  0  0  0  0
 46 47  1  0  0  0  0
 47 48  1  0  0  0  0
 49 50  1  0  0  0  0
 49 46  1  0  0  0  0
 50 45  1  0  0  0  0
M  END
>  <MODEL>
6

>  <REMARK>
 VINA RESULT:      -4.9      3.035      8.024
  Name = 
  13 active torsions:
  status: ('A' for Active; 'I' for Inactive)
    1  A    between atoms: C_1  and  C_12
    2  A    between atoms: C_1  and  C_13
    3  A    between atoms: C_1  and  C_19
    4  A    between atoms: O_8  and  C_37
    5  A    between atoms: O_8  and  C_38
    6  A    between atoms: C_15  and  N_48
    7  A    between atoms: C_15  and  P_49
    8  A    between atoms: C_17  and  C_37
    9  A    between atoms: C_20  and  C_40
   10  A    between atoms: N_23  and  C_47
   11  A    between atoms: N_23  and  P_49
   12  A    between atoms: C_29  and  C_39
   13  A    between atoms: C_45  and  C_47
                            x       y       z     vdW  Elec       q    Type
                         _______ _______ _______ _____ _____    ______ ____

>  <TORSDO>
F 13

$$$$
=
 OpenBabel10232411183D

 50 55  0  0  1  0  0  0  0  0999 V2000
  186.4860  174.4720  136.3620 N   0  0  0  0  0  2  0  0  0  0  0  0
  189.4980  177.2020  138.1390 C   0  0  1  0  0  3  0  0  0  0  0  0
  185.1500  173.9790  136.4960 C   0  0  0  0  0  0  0  0  0  0  0  0
  184.9430  172.7410  136.5450 O   0  0  0  0  0  0  0  0  0  0  0  0
  186.1960  178.0020  137.0400 N   0  0  0  0  0  2  0  0  0  0  0  0
  191.2770  174.2140  135.1190 O   0  0  0  0  0  0  0  0  0  0  0  0
  188.9640  175.9440  137.4160 C   0  0  1  0  0  3  0  0  0  0  0  0
  184.4200  176.2860  137.1260 C   0  0  2  0  0  3  0  0  0  0  0  0
  185.5850  176.8800  136.3250 C   0  0  2  0  0  3  0  0  0  0  0  0
  186.7060  175.8810  136.2660 C   0  0  1  0  0  3  0  0  0  0  0  0
  191.3570  175.0680  137.1520 C   0  0  0  0  0  0  0  0  0  0  0  0
  190.8680  175.5930  139.5740 C   0  0  0  0  0  2  0  0  0  0  0  0
  187.4650  177.7710  137.0950 C   0  0  2  0  0  3  0  0  0  0  0  0
  183.9900  174.9320  136.5460 C   0  0  0  0  0  2  0  0  0  0  0  0
  191.9250  175.5320  138.4680 C   0  0  0  0  0  2  0  0  0  0  0  0
  190.0940  174.7370  135.3660 C   0  0  0  0  0  0  0  0  0  0  0  0
  192.0520  174.4040  136.1630 C   0  0  0  0  0  0  0  0  0  0  0  0
  187.8230  176.4800  136.6360 C   0  0  1  0  0  3  0  0  0  0  0  0
  190.0900  175.3140  136.6340 C   0  0  0  0  0  0  0  0  0  0  0  0
  188.3990  178.2840  138.1190 C   0  0  2  0  0  3  0  0  0  0  0  0
  188.9840  179.6060  137.6610 C   0  0  0  0  0  1  0  0  0  0  0  0
  190.0240  176.8820  139.5420 C   0  0  1  0  0  3  0  0  0  0  0  0
  194.3560  174.6750  136.9160 C   0  0  0  0  0  3  0  0  0  0  0  0
  193.4490  173.9680  136.2480 C   0  0  0  0  0  3  0  0  0  0  0  0
  195.8010  174.2650  137.0280 C   0  0  1  0  0  0  0  0  0  0  0  0
  196.3050  174.8230  138.2060 O   0  0  0  0  0  1  0  0  0  0  0  0
  195.9330  172.7310  137.1300 C   0  0  2  0  0  3  0  0  0  0  0  0
  195.5980  172.2930  138.4140 O   0  0  0  0  0  1  0  0  0  0  0  0
  197.3210  172.2100  136.7730 C   0  0  0  0  0  1  0  0  0  0  0  0
  197.3700  175.9150  136.2260 O   0  0  0  0  0  1  0  0  0  0  0  0
  196.6180  174.8030  135.8470 C   0  0  0  0  0  2  0  0  0  0  0  0
  188.9780  174.6950  134.4150 C   0  0  0  0  0  3  0  0  0  0  0  0
  188.1650  173.6490  134.3470 C   0  0  0  0  0  2  0  0  0  0  0  0
  183.2380  177.2450  137.1860 C   0  0  0  0  0  2  0  0  0  0  0  0
  183.1550  177.8720  138.4590 O   0  0  0  0  0  0  0  0  0  0  0  0
  181.8250  178.4530  140.3780 O   0  0  0  0  0  1  0  0  0  0  0  0
  181.5140  176.4680  139.2800 O   0  0  0  0  0  0  0  0  0  0  0  0
  182.1420  177.5580  139.3660 C   0  0  0  0  0  0  0  0  0  0  0  0
  190.8310  178.0580  140.0750 C   0  0  0  0  0  2  0  0  0  0  0  0
  191.5840  177.6560  141.2520 N   0  0  0  0  0  2  0  0  0  0  0  0
  189.9450  175.8970  142.6890 O   0  0  0  0  0  1  0  0  0  0  0  0
  189.2520  178.3890  142.3250 O   0  0  0  0  0  0  0  0  0  0  0  0
  190.4530  177.5070  142.5820 P   0  0  2  0  0  0  0  0  0  0  0  0
  191.2410  177.9910  144.1530 C   0  0  0  0  0  2  0  0  0  0  0  0
  189.5860  178.2550  145.8100 C   0  0  0  0  0  2  0  0  0  0  0  0
  191.0170  176.4980  147.5730 C   0  0  0  0  0  2  0  0  0  0  0  0
  189.4960  176.3500  147.5030 C   0  0  0  0  0  2  0  0  0  0  0  0
  188.8360  177.6380  147.0030 C   0  0  0  0  0  2  0  0  0  0  0  0
  191.6060  177.1150  146.2930 C   0  0  0  0  0  2  0  0  0  0  0  0
  190.5820  177.3300  145.2680 N   0  0  0  0  0  0  0  0  0  0  0  0
  1  3  1  0  0  0  0
  2 22  1  0  0  0  0
  3  4  2  0  0  0  0
  3 14  1  0  0  0  0
  5 13  1  0  0  0  0
  6 16  1  0  0  0  0
  6 17  1  0  0  0  0
  7  2  1  0  0  0  0
  8 34  1  0  0  0  0
  9  5  1  0  0  0  0
  9  8  1  0  0  0  0
 10  9  1  0  0  0  0
 10  1  1  0  0  0  0
 10 18  1  0  0  0  0
 11 15  1  0  0  0  0
 13 20  1  0  0  0  0
 14  8  1  0  0  0  0
 15 12  1  0  0  0  0
 16 19  2  0  0  0  0
 17 24  1  0  0  0  0
 17 11  2  0  0  0  0
 18 13  1  0  0  0  0
 18  7  1  0  0  0  0
 19 11  1  0  0  0  0
 19  7  1  0  0  0  0
 20  2  1  0  0  0  0
 21 20  1  0  0  0  0
 22 12  1  0  0  0  0
 22 39  1  0  0  0  0
 23 25  1  0  0  0  0
 24 23  2  0  0  0  0
 25 27  1  0  0  0  0
 25 26  1  0  0  0  0
 27 28  1  0  0  0  0
 29 27  1  0  0  0  0
 31 30  1  0  0  0  0
 31 25  1  0  0  0  0
 32 16  1  0  0  0  0
 33 32  2  0  0  0  0
 34 35  1  0  0  0  0
 35 38  1  0  0  0  0
 37 38  2  0  0  0  0
 38 36  1  0  0  0  0
 39 40  1  0  0  0  0
 40 43  1  0  0  0  0
 42 43  2  0  0  0  0
 43 41  1  0  0  0  0
 43 44  1  0  0  0  0
 44 50  1  0  0  0  0
 45 48  1  0  0  0  0
 47 46  1  0  0  0  0
 48 47  1  0  0  0  0
 49 46  1  0  0  0  0
 50 45  1  0  0  0  0
 50 49  1  0  0  0  0
M  END
>  <MODEL>
7

>  <REMARK>
 VINA RESULT:      -4.9      2.979      7.748
  Name = 
  13 active torsions:
  status: ('A' for Active; 'I' for Inactive)
    1  A    between atoms: C_1  and  C_12
    2  A    between atoms: C_1  and  C_13
    3  A    between atoms: C_1  and  C_19
    4  A    between atoms: O_8  and  C_37
    5  A    between atoms: O_8  and  C_38
    6  A    between atoms: C_15  and  N_48
    7  A    between atoms: C_15  and  P_49
    8  A    between atoms: C_17  and  C_37
    9  A    between atoms: C_20  and  C_40
   10  A    between atoms: N_23  and  C_47
   11  A    between atoms: N_23  and  P_49
   12  A    between atoms: C_29  and  C_39
   13  A    between atoms: C_45  and  C_47
                            x       y       z     vdW  Elec       q    Type
                         _______ _______ _______ _____ _____    ______ ____

>  <TORSDO>
F 13

$$$$
=
 OpenBabel10232411183D

 50 55  0  0  1  0  0  0  0  0999 V2000
  187.9890  177.1200  142.7910 N   0  0  0  0  0  2  0  0  0  0  0  0
  189.9150  176.5850  138.8310 C   0  0  1  0  0  3  0  0  0  0  0  0
  188.0430  176.7300  144.1660 C   0  0  0  0  0  0  0  0  0  0  0  0
  187.0200  176.2560  144.7220 O   0  0  0  0  0  0  0  0  0  0  0  0
  191.4410  177.6340  141.8840 N   0  0  0  0  0  2  0  0  0  0  0  0
  185.7640  178.5650  138.6050 O   0  0  0  0  0  0  0  0  0  0  0  0
  188.7640  176.8060  139.8390 C   0  0  1  0  0  3  0  0  0  0  0  0
  190.5380  176.8490  144.0460 C   0  0  2  0  0  3  0  0  0  0  0  0
  190.4390  177.8870  142.9210 C   0  0  2  0  0  3  0  0  0  0  0  0
  189.1460  177.6950  142.1810 C   0  0  1  0  0  3  0  0  0  0  0  0
  187.0870  176.9440  137.9060 C   0  0  0  0  0  0  0  0  0  0  0  0
  188.4230  174.8040  137.7690 C   0  0  0  0  0  2  0  0  0  0  0  0
  190.8170  177.6010  140.7540 C   0  0  2  0  0  3  0  0  0  0  0  0
  189.3070  176.9110  144.9590 C   0  0  0  0  0  2  0  0  0  0  0  0
  187.6890  175.9040  136.9970 C   0  0  0  0  0  2  0  0  0  0  0  0
  186.7060  178.4170  139.5120 C   0  0  0  0  0  0  0  0  0  0  0  0
  185.9700  177.7060  137.6330 C   0  0  0  0  0  0  0  0  0  0  0  0
  189.4080  177.6310  140.8880 C   0  0  1  0  0  3  0  0  0  0  0  0
  187.5900  177.4160  139.1140 C   0  0  0  0  0  0  0  0  0  0  0  0
  191.2530  176.8800  139.5410 C   0  0  2  0  0  3  0  0  0  0  0  0
  192.1030  177.7940  138.6790 C   0  0  0  0  0  1  0  0  0  0  0  0
  189.8550  175.1990  138.1800 C   0  0  1  0  0  3  0  0  0  0  0  0
  184.0110  176.8650  136.4490 C   0  0  0  0  0  3  0  0  0  0  0  0
  185.1290  177.5860  136.4390 C   0  0  0  0  0  3  0  0  0  0  0  0
  183.1170  176.7140  135.2460 C   0  0  1  0  0  0  0  0  0  0  0  0
  183.4500  177.7300  134.3460 O   0  0  0  0  0  1  0  0  0  0  0  0
  183.3570  175.3590  134.5480 C   0  0  2  0  0  3  0  0  0  0  0  0
  182.3710  174.4370  134.9110 O   0  0  0  0  0  1  0  0  0  0  0  0
  184.7290  174.7570  134.8330 C   0  0  0  0  0  1  0  0  0  0  0  0
  181.5180  177.3190  136.9500 O   0  0  0  0  0  1  0  0  0  0  0  0
  181.6420  176.8710  135.6350 C   0  0  0  0  0  2  0  0  0  0  0  0
  186.7750  179.2130  140.7430 C   0  0  0  0  0  3  0  0  0  0  0  0
  185.8000  179.1840  141.6410 C   0  0  0  0  0  2  0  0  0  0  0  0
  191.8160  177.0220  144.8560 C   0  0  0  0  0  2  0  0  0  0  0  0
  191.9810  175.9550  145.7810 O   0  0  0  0  0  0  0  0  0  0  0  0
  192.7790  175.3650  147.9730 O   0  0  0  0  0  1  0  0  0  0  0  0
  191.3210  177.1050  147.6730 O   0  0  0  0  0  0  0  0  0  0  0  0
  192.0030  176.1770  147.1580 C   0  0  0  0  0  0  0  0  0  0  0  0
  190.7850  175.1490  136.9750 C   0  0  0  0  0  2  0  0  0  0  0  0
  191.9520  174.3360  137.2760 N   0  0  0  0  0  2  0  0  0  0  0  0
  191.9990  174.7420  134.5060 O   0  0  0  0  0  0  0  0  0  0  0  0
  193.4010  172.8350  135.6110 O   0  0  0  0  0  1  0  0  0  0  0  0
  192.9350  174.2580  135.8280 P   0  0  2  0  0  0  0  0  0  0  0  0
  194.3810  175.3580  135.9730 C   0  0  0  0  0  2  0  0  0  0  0  0
  195.5850  174.6350  137.8660 C   0  0  0  0  0  2  0  0  0  0  0  0
  198.0330  174.6620  136.3660 C   0  0  0  0  0  2  0  0  0  0  0  0
  197.7950  173.4860  137.3170 C   0  0  0  0  0  2  0  0  0  0  0  0
  196.7930  173.8570  138.4140 C   0  0  0  0  0  2  0  0  0  0  0  0
  196.7210  175.3150  135.9000 C   0  0  0  0  0  2  0  0  0  0  0  0
  195.5460  174.6000  136.4030 N   0  0  0  0  0  0  0  0  0  0  0  0
  1  3  1  0  0  0  0
  2 20  1  0  0  0  0
  2  7  1  0  0  0  0
  3  4  2  0  0  0  0
  3 14  1  0  0  0  0
  5  9  1  0  0  0  0
  6 16  1  0  0  0  0
  7 18  1  0  0  0  0
  8 34  1  0  0  0  0
  8 14  1  0  0  0  0
  9  8  1  0  0  0  0
 10  1  1  0  0  0  0
 10  9  1  0  0  0  0
 11 19  1  0  0  0  0
 12 22  1  0  0  0  0
 13 18  1  0  0  0  0
 13  5  1  0  0  0  0
 15 12  1  0  0  0  0
 15 11  1  0  0  0  0
 16 32  1  0  0  0  0
 17 11  2  0  0  0  0
 17  6  1  0  0  0  0
 18 10  1  0  0  0  0
 19 16  2  0  0  0  0
 19  7  1  0  0  0  0
 20 13  1  0  0  0  0
 21 20  1  0  0  0  0
 22  2  1  0  0  0  0
 24 23  2  0  0  0  0
 24 17  1  0  0  0  0
 25 31  1  0  0  0  0
 25 23  1  0  0  0  0
 26 25  1  0  0  0  0
 27 29  1  0  0  0  0
 27 28  1  0  0  0  0
 27 25  1  0  0  0  0
 31 30  1  0  0  0  0
 32 33  2  0  0  0  0
 34 35  1  0  0  0  0
 35 38  1  0  0  0  0
 38 37  2  0  0  0  0
 38 36  1  0  0  0  0
 39 40  1  0  0  0  0
 39 22  1  0  0  0  0
 41 43  2  0  0  0  0
 42 43  1  0  0  0  0
 43 44  1  0  0  0  0
 43 40  1  0  0  0  0
 44 50  1  0  0  0  0
 45 48  1  0  0  0  0
 46 47  1  0  0  0  0
 47 48  1  0  0  0  0
 49 46  1  0  0  0  0
 49 50  1  0  0  0  0
 50 45  1  0  0  0  0
M  END
>  <MODEL>
8

>  <REMARK>
 VINA RESULT:      -4.5      2.688      8.629
  Name = 
  13 active torsions:
  status: ('A' for Active; 'I' for Inactive)
    1  A    between atoms: C_1  and  C_12
    2  A    between atoms: C_1  and  C_13
    3  A    between atoms: C_1  and  C_19
    4  A    between atoms: O_8  and  C_37
    5  A    between atoms: O_8  and  C_38
    6  A    between atoms: C_15  and  N_48
    7  A    between atoms: C_15  and  P_49
    8  A    between atoms: C_17  and  C_37
    9  A    between atoms: C_20  and  C_40
   10  A    between atoms: N_23  and  C_47
   11  A    between atoms: N_23  and  P_49
   12  A    between atoms: C_29  and  C_39
   13  A    between atoms: C_45  and  C_47
                            x       y       z     vdW  Elec       q    Type
                         _______ _______ _______ _____ _____    ______ ____

>  <TORSDO>
F 13

$$$$
=
 OpenBabel10232411183D

 50 55  0  0  1  0  0  0  0  0999 V2000
  188.2770  176.2050  147.3920 N   0  0  0  0  0  2  0  0  0  0  0  0
  188.5960  178.3540  143.5250 C   0  0  1  0  0  3  0  0  0  0  0  0
  188.8270  175.1400  148.1730 C   0  0  0  0  0  0  0  0  0  0  0  0
  188.0720  174.2430  148.6250 O   0  0  0  0  0  0  0  0  0  0  0  0
  191.1610  177.8200  145.9510 N   0  0  0  0  0  2  0  0  0  0  0  0
  184.6950  179.2400  145.8060 O   0  0  0  0  0  0  0  0  0  0  0  0
  187.9030  177.7430  144.7640 C   0  0  1  0  0  3  0  0  0  0  0  0
  191.1030  175.8060  147.3820 C   0  0  2  0  0  3  0  0  0  0  0  0
  190.6180  177.2480  147.1840 C   0  0  2  0  0  3  0  0  0  0  0  0
  189.1390  177.2420  146.9180 C   0  0  1  0  0  3  0  0  0  0  0  0
  185.6340  178.5850  143.9200 C   0  0  0  0  0  0  0  0  0  0  0  0
  186.7810  177.2020  142.1450 C   0  0  0  0  0  2  0  0  0  0  0  0
  190.1640  178.2930  145.2810 C   0  0  2  0  0  3  0  0  0  0  0  0
  190.2970  175.1030  148.4810 C   0  0  0  0  0  2  0  0  0  0  0  0
  185.8370  178.3690  142.4430 C   0  0  0  0  0  2  0  0  0  0  0  0
  185.9020  178.8090  146.1050 C   0  0  0  0  0  0  0  0  0  0  0  0
  184.5110  179.1260  144.5100 C   0  0  0  0  0  0  0  0  0  0  0  0
  188.9050  177.9580  145.8340 C   0  0  1  0  0  3  0  0  0  0  0  0
  186.5560  178.4000  144.9450 C   0  0  0  0  0  0  0  0  0  0  0  0
  190.1070  178.4710  143.8150 C   0  0  2  0  0  3  0  0  0  0  0  0
  190.5980  179.8570  143.4480 C   0  0  0  0  0  1  0  0  0  0  0  0
  188.2720  177.5830  142.2420 C   0  0  1  0  0  3  0  0  0  0  0  0
  182.3940  178.6170  143.4120 C   0  0  0  0  0  3  0  0  0  0  0  0
  183.2860  179.5190  143.8090 C   0  0  0  0  0  3  0  0  0  0  0  0
  181.1230  178.9770  142.6870 C   0  0  1  0  0  0  0  0  0  0  0  0
  180.7710  180.2720  143.0760 O   0  0  0  0  0  1  0  0  0  0  0  0
  181.3400  178.9770  141.1600 C   0  0  2  0  0  3  0  0  0  0  0  0
  180.6260  180.0190  140.5610 O   0  0  0  0  0  1  0  0  0  0  0  0
  180.9590  177.6620  140.4870 C   0  0  0  0  0  1  0  0  0  0  0  0
  179.9820  177.7810  144.4470 O   0  0  0  0  0  1  0  0  0  0  0  0
  179.9830  178.0260  143.0740 C   0  0  0  0  0  2  0  0  0  0  0  0
  186.4360  178.7850  147.4710 C   0  0  0  0  0  3  0  0  0  0  0  0
  186.6350  179.9030  148.1560 C   0  0  0  0  0  2  0  0  0  0  0  0
  192.5940  175.7560  147.6930 C   0  0  0  0  0  2  0  0  0  0  0  0
  192.8270  175.8880  149.0890 O   0  0  0  0  0  0  0  0  0  0  0  0
  194.7280  176.9540  150.1080 O   0  0  0  0  0  1  0  0  0  0  0  0
  192.8050  178.1200  149.6830 O   0  0  0  0  0  0  0  0  0  0  0  0
  193.4290  177.0270  149.6260 C   0  0  0  0  0  0  0  0  0  0  0  0
  188.6910  178.3980  141.0250 C   0  0  0  0  0  2  0  0  0  0  0  0
  189.0930  177.5140  139.9440 N   0  0  0  0  0  2  0  0  0  0  0  0
  188.9590  179.3110  137.8010 O   0  0  0  0  0  0  0  0  0  0  0  0
  186.7870  178.3670  138.9030 O   0  0  0  0  0  1  0  0  0  0  0  0
  188.1960  177.9800  138.5120 P   0  0  2  0  0  0  0  0  0  0  0  0
  188.1430  176.6090  137.3130 C   0  0  0  0  0  2  0  0  0  0  0  0
  190.4720  176.6130  136.9570 C   0  0  0  0  0  2  0  0  0  0  0  0
  190.4370  173.7870  136.4470 C   0  0  0  0  0  2  0  0  0  0  0  0
  191.5800  174.3410  137.3000 C   0  0  0  0  0  2  0  0  0  0  0  0
  191.7960  175.8340  137.0340 C   0  0  0  0  0  2  0  0  0  0  0  0
  189.1840  174.6780  136.4950 C   0  0  0  0  0  2  0  0  0  0  0  0
  189.3470  175.8010  137.4220 N   0  0  0  0  0  0  0  0  0  0  0  0
  1  3  1  0  0  0  0
  2 20  1  0  0  0  0
  2  7  1  0  0  0  0
  3 14  1  0  0  0  0
  3  4  2  0  0  0  0
  5  9  1  0  0  0  0
  6 16  1  0  0  0  0
  7 19  1  0  0  0  0
  7 18  1  0  0  0  0
  8 34  1  0  0  0  0
  8 14  1  0  0  0  0
  9  8  1  0  0  0  0
 10  9  1  0  0  0  0
 10  1  1  0  0  0  0
 11 17  2  0  0  0  0
 11 19  1  0  0  0  0
 12 22  1  0  0  0  0
 12 15  1  0  0  0  0
 13 18  1  0  0  0  0
 13  5  1  0  0  0  0
 15 11  1  0  0  0  0
 16 32  1  0  0  0  0
 17  6  1  0  0  0  0
 18 10  1  0  0  0  0
 19 16  2  0  0  0  0
 20 13  1  0  0  0  0
 21 20  1  0  0  0  0
 22  2  1  0  0  0  0
 23 24  2  0  0  0  0
 24 17  1  0  0  0  0
 25 31  1  0  0  0  0
 25 26  1  0  0  0  0
 25 23  1  0  0  0  0
 27 25  1  0  0  0  0
 28 27  1  0  0  0  0
 29 27  1  0  0  0  0
 31 30  1  0  0  0  0
 32 33  2  0  0  0  0
 34 35  1  0  0  0  0
 35 38  1  0  0  0  0
 38 37  2  0  0  0  0
 38 36  1  0  0  0  0
 39 22  1  0  0  0  0
 40 39  1  0  0  0  0
 41 43  2  0  0  0  0
 43 42  1  0  0  0  0
 43 40  1  0  0  0  0
 44 50  1  0  0  0  0
 44 43  1  0  0  0  0
 45 48  1  0  0  0  0
 45 50  1  0  0  0  0
 46 49  1  0  0  0  0
 46 47  1  0  0  0  0
 48 47  1  0  0  0  0
 49 50  1  0  0  0  0
M  END
>  <MODEL>
9

>  <REMARK>
 VINA RESULT:      -4.1      3.665      9.954
  Name = 
  13 active torsions:
  status: ('A' for Active; 'I' for Inactive)
    1  A    between atoms: C_1  and  C_12
    2  A    between atoms: C_1  and  C_13
    3  A    between atoms: C_1  and  C_19
    4  A    between atoms: O_8  and  C_37
    5  A    between atoms: O_8  and  C_38
    6  A    between atoms: C_15  and  N_48
    7  A    between atoms: C_15  and  P_49
    8  A    between atoms: C_17  and  C_37
    9  A    between atoms: C_20  and  C_40
   10  A    between atoms: N_23  and  C_47
   11  A    between atoms: N_23  and  P_49
   12  A    between atoms: C_29  and  C_39
   13  A    between atoms: C_45  and  C_47
                            x       y       z     vdW  Elec       q    Type
                         _______ _______ _______ _____ _____    ______ ____

>  <TORSDO>
F 13

$$$$
