=
 OpenBabel10232410213D

 29 32  0  0  1  0  0  0  0  0999 V2000
  188.8680  177.1520  147.1170 C   0  0  0  0  0  3  0  0  0  0  0  0
  189.4950  177.9600  138.7480 N   0  0  0  0  0  2  0  0  0  0  0  0
  188.2040  178.7110  140.7130 C   0  0  0  0  0  2  0  0  0  0  0  0
  189.8960  177.3850  143.5940 C   0  0  0  0  0  0  0  0  0  0  0  0
  190.4130  177.6880  141.3900 C   0  0  1  0  0  3  0  0  0  0  0  0
  191.2270  176.8840  146.9990 C   0  0  0  0  0  3  0  0  0  0  0  0
  189.9770  177.2260  144.9720 C   0  0  0  0  0  0  0  0  0  0  0  0
  189.8910  176.6050  139.1310 C   0  0  2  0  0  3  0  0  0  0  0  0
  190.9370  177.3890  142.6850 O   0  0  0  0  0  0  0  0  0  0  0  0
  187.5380  177.4970  145.0760 C   0  0  0  0  0  0  0  0  0  0  0  0
  190.0730  176.9520  147.7160 N   0  0  0  0  0  0  0  0  0  0  0  0
  187.4830  177.6150  143.6620 C   0  0  0  0  0  0  0  0  0  0  0  0
  191.2020  177.0210  145.6110 C   0  0  0  0  0  3  0  0  0  0  0  0
  188.7820  177.2970  145.7260 C   0  0  0  0  0  0  0  0  0  0  0  0
  190.7670  176.5850  140.3930 C   0  0  0  0  0  2  0  0  0  0  0  0
  186.0490  177.5490  146.0280 Cl  0  0  0  0  0  0  0  0  0  0  0  0
  188.9590  177.8000  141.5650 N   0  0  0  0  0  0  0  0  0  0  0  0
  188.7080  177.5970  142.9550 C   0  0  0  0  0  0  0  0  0  0  0  0
  188.1530  178.1830  139.2790 C   0  0  0  0  0  2  0  0  0  0  0  0
  186.1630  177.6840  143.0020 C   0  0  0  0  0  3  0  0  0  0  0  0
  185.4240  178.7840  142.9490 C   0  0  0  0  0  2  0  0  0  0  0  0
  190.5740  175.8900  137.9710 C   0  0  0  0  0  2  0  0  0  0  0  0
  191.9980  176.3840  137.7560 C   0  0  0  0  0  2  0  0  0  0  0  0
  192.9530  175.2080  137.6860 C   0  0  0  0  0  2  0  0  0  0  0  0
  194.1720  175.5470  138.2790 O   0  0  0  0  0  0  0  0  0  0  0  0
  194.6520  173.5100  136.4530 O   0  0  0  0  0  0  0  0  0  0  0  0
  195.2630  174.3440  137.7930 P   0  0  0  0  0  0  0  0  0  0  0  0
  196.5940  174.9680  137.4340 O   0  0  0  0  0  1  0  0  0  0  0  0
  195.4890  173.2540  139.0660 O   0  0  0  0  0  1  0  0  0  0  0  0
  1 11  1  0  0  0  0
  2  8  1  0  0  0  0
  2 19  1  0  0  0  0
  3 17  1  0  0  0  0
  4  7  1  0  0  0  0
  5 15  1  6  0  0  0
  5 17  1  0  0  0  0
  5  9  1  0  0  0  0
  6 11  2  0  0  0  0
  7 13  2  0  0  0  0
  7 14  1  0  0  0  0
  8 22  1  6  0  0  0
  8 15  1  0  0  0  0
  9  4  1  0  0  0  0
 10 14  1  0  0  0  0
 10 16  1  0  0  0  0
 12 10  2  0  0  0  0
 13  6  1  0  0  0  0
 14  1  2  0  0  0  0
 17 18  1  0  0  0  0
 18  4  2  0  0  0  0
 18 12  1  0  0  0  0
 19  3  1  0  0  0  0
 20 12  1  0  0  0  0
 21 20  2  0  0  0  0
 23 22  1  0  0  0  0
 24 23  1  0  0  0  0
 24 25  1  0  0  0  0
 26 27  2  0  0  0  0
 27 25  1  0  0  0  0
 27 29  1  0  0  0  0
 28 27  1  0  0  0  0
M  END
>  <MODEL>
1

>  <REMARK>
 VINA RESULT:      -8.6      0.000      0.000
  Name = 
  6 active torsions:
  status: ('A' for Active; 'I' for Inactive)
    1  A    between atoms: O_2  and  P_16
    2  A    between atoms: O_2  and  C_26
    3  A    between atoms: C_9  and  C_25
    4  A    between atoms: C_13  and  C_21
    5  A    between atoms: C_22  and  C_25
    6  A    between atoms: C_22  and  C_26
                            x       y       z     vdW  Elec       q    Type
                         _______ _______ _______ _____ _____    ______ ____

>  <TORSDO>
F 6

$$$$
=
 OpenBabel10232410213D

 29 32  0  0  1  0  0  0  0  0999 V2000
  184.9230  178.7870  146.5920 C   0  0  0  0  0  3  0  0  0  0  0  0
  190.9080  176.0870  141.3030 N   0  0  0  0  0  2  0  0  0  0  0  0
  190.1060  175.9150  143.6300 C   0  0  0  0  0  2  0  0  0  0  0  0
  186.9790  177.6820  143.7490 C   0  0  0  0  0  0  0  0  0  0  0  0
  188.3250  176.8500  142.1020 C   0  0  1  0  0  3  0  0  0  0  0  0
  183.5750  178.7990  144.6340 C   0  0  0  0  0  3  0  0  0  0  0  0
  185.8820  178.1350  144.4710 C   0  0  0  0  0  0  0  0  0  0  0  0
  190.5230  177.4490  140.9370 C   0  0  2  0  0  3  0  0  0  0  0  0
  187.0310  177.3790  142.4020 O   0  0  0  0  0  0  0  0  0  0  0  0
  187.2910  178.1240  146.4830 C   0  0  0  0  0  0  0  0  0  0  0  0
  183.7320  179.0010  145.9700 N   0  0  0  0  0  0  0  0  0  0  0  0
  188.4040  177.7010  145.7110 C   0  0  0  0  0  0  0  0  0  0  0  0
  184.6480  178.3600  143.8570 C   0  0  0  0  0  3  0  0  0  0  0  0
  186.0350  178.3460  145.8620 C   0  0  0  0  0  0  0  0  0  0  0  0
  189.0030  177.6660  141.0020 C   0  0  0  0  0  2  0  0  0  0  0  0
  187.4760  178.4250  148.2160 Cl  0  0  0  0  0  0  0  0  0  0  0  0
  189.0830  176.9170  143.3590 N   0  0  0  0  0  0  0  0  0  0  0  0
  188.1890  177.4460  144.3370 C   0  0  0  0  0  0  0  0  0  0  0  0
  191.3090  176.1140  142.7060 C   0  0  0  0  0  2  0  0  0  0  0  0
  189.7290  177.6120  146.3580 C   0  0  0  0  0  3  0  0  0  0  0  0
  190.0920  176.6170  147.1570 C   0  0  0  0  0  2  0  0  0  0  0  0
  191.0770  177.8220  139.5670 C   0  0  0  0  0  2  0  0  0  0  0  0
  190.9360  176.6830  138.5660 C   0  0  0  0  0  2  0  0  0  0  0  0
  190.1080  177.1320  137.3770 C   0  0  0  0  0  2  0  0  0  0  0  0
  188.7540  176.8970  137.6220 O   0  0  0  0  0  0  0  0  0  0  0  0
  186.6540  178.5970  138.2690 O   0  0  0  0  0  1  0  0  0  0  0  0
  187.9620  178.3430  137.2250 P   0  0  0  0  0  0  0  0  0  0  0  0
  188.9250  179.5050  137.3320 O   0  0  0  0  0  1  0  0  0  0  0  0
  187.3900  178.2430  135.6380 O   0  0  0  0  0  0  0  0  0  0  0  0
  2 19  1  0  0  0  0
  4 18  2  0  0  0  0
  4  7  1  0  0  0  0
  5 15  1  6  0  0  0
  5  9  1  0  0  0  0
  5 17  1  0  0  0  0
  6 11  2  0  0  0  0
  7 14  1  0  0  0  0
  8 22  1  6  0  0  0
  8 15  1  0  0  0  0
  8  2  1  0  0  0  0
  9  4  1  0  0  0  0
 10 16  1  0  0  0  0
 11  1  1  0  0  0  0
 12 20  1  0  0  0  0
 12 10  2  0  0  0  0
 13  7  2  0  0  0  0
 13  6  1  0  0  0  0
 14 10  1  0  0  0  0
 14  1  2  0  0  0  0
 17  3  1  0  0  0  0
 17 18  1  0  0  0  0
 18 12  1  0  0  0  0
 19  3  1  0  0  0  0
 20 21  2  0  0  0  0
 23 22  1  0  0  0  0
 24 25  1  0  0  0  0
 24 23  1  0  0  0  0
 27 28  1  0  0  0  0
 27 25  1  0  0  0  0
 27 26  1  0  0  0  0
 29 27  2  0  0  0  0
M  END
>  <MODEL>
2

>  <REMARK>
 VINA RESULT:      -8.5      3.564      5.221
  Name = 
  6 active torsions:
  status: ('A' for Active; 'I' for Inactive)
    1  A    between atoms: O_2  and  P_16
    2  A    between atoms: O_2  and  C_26
    3  A    between atoms: C_9  and  C_25
    4  A    between atoms: C_13  and  C_21
    5  A    between atoms: C_22  and  C_25
    6  A    between atoms: C_22  and  C_26
                            x       y       z     vdW  Elec       q    Type
                         _______ _______ _______ _____ _____    ______ ____

>  <TORSDO>
F 6

$$$$
=
 OpenBabel10232410213D

 29 32  0  0  1  0  0  0  0  0999 V2000
  186.4790  178.3530  147.1530 C   0  0  0  0  0  3  0  0  0  0  0  0
  189.8120  176.8780  139.5500 N   0  0  0  0  0  2  0  0  0  0  0  0
  189.9790  176.2580  141.9330 C   0  0  0  0  0  2  0  0  0  0  0  0
  187.2160  177.8570  143.5840 C   0  0  0  0  0  0  0  0  0  0  0  0
  187.7780  177.3880  141.4210 C   0  0  1  0  0  3  0  0  0  0  0  0
  184.4730  178.6690  145.9160 C   0  0  0  0  0  3  0  0  0  0  0  0
  186.5060  178.1310  144.7470 C   0  0  0  0  0  0  0  0  0  0  0  0
  189.3660  178.2690  139.6170 C   0  0  2  0  0  3  0  0  0  0  0  0
  186.7260  177.8050  142.2930 O   0  0  0  0  0  0  0  0  0  0  0  0
  188.5890  177.8090  146.0090 C   0  0  0  0  0  0  0  0  0  0  0  0
  185.1480  178.6320  147.0960 N   0  0  0  0  0  0  0  0  0  0  0  0
  189.2940  177.5740  144.8000 C   0  0  0  0  0  0  0  0  0  0  0  0
  185.1400  178.4180  144.7160 C   0  0  0  0  0  3  0  0  0  0  0  0
  187.1990  178.0930  145.9790 C   0  0  0  0  0  0  0  0  0  0  0  0
  188.0020  178.4140  140.3100 C   0  0  0  0  0  2  0  0  0  0  0  0
  189.4490  177.7980  147.5540 Cl  0  0  0  0  0  0  0  0  0  0  0  0
  188.9690  177.2550  142.2700 N   0  0  0  0  0  0  0  0  0  0  0  0
  188.5490  177.5640  143.5980 C   0  0  0  0  0  0  0  0  0  0  0  0
  190.7300  176.6660  140.6650 C   0  0  0  0  0  2  0  0  0  0  0  0
  190.7620  177.4190  144.8490 C   0  0  0  0  0  3  0  0  0  0  0  0
  191.6150  178.3580  144.4590 C   0  0  0  0  0  2  0  0  0  0  0  0
  189.3530  178.9030  138.2310 C   0  0  0  0  0  2  0  0  0  0  0  0
  189.4860  177.8630  137.1270 C   0  0  0  0  0  2  0  0  0  0  0  0
  188.2860  177.9280  136.2010 C   0  0  0  0  0  2  0  0  0  0  0  0
  187.2240  178.5710  136.8410 O   0  0  0  0  0  0  0  0  0  0  0  0
  186.7200  175.8860  137.3440 O   0  0  0  0  0  1  0  0  0  0  0  0
  186.0190  177.3910  137.0160 P   0  0  0  0  0  0  0  0  0  0  0  0
  185.0850  177.7690  138.1450 O   0  0  0  0  0  1  0  0  0  0  0  0
  185.1350  177.2860  135.5790 O   0  0  0  0  0  0  0  0  0  0  0  0
  2  8  1  0  0  0  0
  2 19  1  0  0  0  0
  3 17  1  0  0  0  0
  4 18  2  0  0  0  0
  4  7  1  0  0  0  0
  5 15  1  6  0  0  0
  5 17  1  0  0  0  0
  5  9  1  0  0  0  0
  6 11  2  0  0  0  0
  7 14  1  0  0  0  0
  8 22  1  6  0  0  0
  8 15  1  0  0  0  0
  9  4  1  0  0  0  0
 10 16  1  0  0  0  0
 11  1  1  0  0  0  0
 12 20  1  0  0  0  0
 12 10  2  0  0  0  0
 13  7  2  0  0  0  0
 13  6  1  0  0  0  0
 14 10  1  0  0  0  0
 14  1  2  0  0  0  0
 17 18  1  0  0  0  0
 18 12  1  0  0  0  0
 19  3  1  0  0  0  0
 21 20  2  0  0  0  0
 23 22  1  0  0  0  0
 24 25  1  0  0  0  0
 24 23  1  0  0  0  0
 25 27  1  0  0  0  0
 27 26  1  0  0  0  0
 27 28  1  0  0  0  0
 29 27  2  0  0  0  0
M  END
>  <MODEL>
3

>  <REMARK>
 VINA RESULT:      -8.5      4.246      5.411
  Name = 
  6 active torsions:
  status: ('A' for Active; 'I' for Inactive)
    1  A    between atoms: O_2  and  P_16
    2  A    between atoms: O_2  and  C_26
    3  A    between atoms: C_9  and  C_25
    4  A    between atoms: C_13  and  C_21
    5  A    between atoms: C_22  and  C_25
    6  A    between atoms: C_22  and  C_26
                            x       y       z     vdW  Elec       q    Type
                         _______ _______ _______ _____ _____    ______ ____

>  <TORSDO>
F 6

$$$$
=
 OpenBabel10232410213D

 29 32  0  0  1  0  0  0  0  0999 V2000
  186.5950  178.3880  147.3830 C   0  0  0  0  0  3  0  0  0  0  0  0
  189.9250  176.8120  139.8000 N   0  0  0  0  0  2  0  0  0  0  0  0
  190.1380  176.2760  142.1990 C   0  0  0  0  0  2  0  0  0  0  0  0
  187.3230  177.8090  143.8250 C   0  0  0  0  0  0  0  0  0  0  0  0
  187.8870  177.2950  141.6720 C   0  0  1  0  0  3  0  0  0  0  0  0
  184.5680  178.5780  146.1570 C   0  0  0  0  0  3  0  0  0  0  0  0
  186.6120  178.0900  144.9850 C   0  0  0  0  0  0  0  0  0  0  0  0
  189.4200  178.1840  139.8260 C   0  0  2  0  0  3  0  0  0  0  0  0
  186.8240  177.6940  142.5410 O   0  0  0  0  0  0  0  0  0  0  0  0
  188.7170  177.8970  146.2370 C   0  0  0  0  0  0  0  0  0  0  0  0
  185.2540  178.6070  147.3310 N   0  0  0  0  0  0  0  0  0  0  0  0
  189.4220  177.6540  145.0290 C   0  0  0  0  0  0  0  0  0  0  0  0
  185.2340  178.3170  144.9590 C   0  0  0  0  0  3  0  0  0  0  0  0
  187.3160  178.1210  146.2110 C   0  0  0  0  0  0  0  0  0  0  0  0
  188.0570  178.2930  140.5280 C   0  0  0  0  0  2  0  0  0  0  0  0
  189.5890  177.9730  147.7730 Cl  0  0  0  0  0  0  0  0  0  0  0  0
  189.0890  177.2390  142.5140 N   0  0  0  0  0  0  0  0  0  0  0  0
  188.6680  177.5730  143.8360 C   0  0  0  0  0  0  0  0  0  0  0  0
  190.8610  176.6750  140.9110 C   0  0  0  0  0  2  0  0  0  0  0  0
  190.8950  177.5630  145.0690 C   0  0  0  0  0  3  0  0  0  0  0  0
  191.5550  176.5040  145.5200 C   0  0  0  0  0  2  0  0  0  0  0  0
  189.3680  178.7720  138.4210 C   0  0  0  0  0  2  0  0  0  0  0  0
  188.1810  178.2460  137.6260 C   0  0  0  0  0  2  0  0  0  0  0  0
  188.6640  177.3950  136.4670 C   0  0  0  0  0  2  0  0  0  0  0  0
  188.4050  176.0470  136.7240 O   0  0  0  0  0  0  0  0  0  0  0  0
  190.1190  174.0270  137.5620 O   0  0  0  0  0  1  0  0  0  0  0  0
  189.8610  175.2370  136.4060 P   0  0  0  0  0  0  0  0  0  0  0  0
  189.8150  174.6150  135.0270 O   0  0  0  0  0  0  0  0  0  0  0  0
  191.1360  176.3440  136.4710 O   0  0  0  0  0  1  0  0  0  0  0  0
  2  8  1  0  0  0  0
  2 19  1  0  0  0  0
  3 17  1  0  0  0  0
  4 18  2  0  0  0  0
  4  7  1  0  0  0  0
  5 15  1  6  0  0  0
  5 17  1  0  0  0  0
  5  9  1  0  0  0  0
  6 11  2  0  0  0  0
  7 14  1  0  0  0  0
  8 22  1  6  0  0  0
  8 15  1  0  0  0  0
  9  4  1  0  0  0  0
 10 16  1  0  0  0  0
 11  1  1  0  0  0  0
 12 20  1  0  0  0  0
 12 10  2  0  0  0  0
 13  7  2  0  0  0  0
 13  6  1  0  0  0  0
 14 10  1  0  0  0  0
 14  1  2  0  0  0  0
 17 18  1  0  0  0  0
 18 12  1  0  0  0  0
 19  3  1  0  0  0  0
 20 21  2  0  0  0  0
 23 22  1  0  0  0  0
 24 25  1  0  0  0  0
 24 23  1  0  0  0  0
 27 29  1  0  0  0  0
 27 25  1  0  0  0  0
 27 26  1  0  0  0  0
 28 27  2  0  0  0  0
M  END
>  <MODEL>
4

>  <REMARK>
 VINA RESULT:      -8.4      2.942      4.301
  Name = 
  6 active torsions:
  status: ('A' for Active; 'I' for Inactive)
    1  A    between atoms: O_2  and  P_16
    2  A    between atoms: O_2  and  C_26
    3  A    between atoms: C_9  and  C_25
    4  A    between atoms: C_13  and  C_21
    5  A    between atoms: C_22  and  C_25
    6  A    between atoms: C_22  and  C_26
                            x       y       z     vdW  Elec       q    Type
                         _______ _______ _______ _____ _____    ______ ____

>  <TORSDO>
F 6

$$$$
=
 OpenBabel10232410213D

 29 32  0  0  1  0  0  0  0  0999 V2000
  186.4720  178.5510  147.5780 C   0  0  0  0  0  3  0  0  0  0  0  0
  190.4360  176.2110  140.5150 N   0  0  0  0  0  2  0  0  0  0  0  0
  190.4170  175.9010  142.9630 C   0  0  0  0  0  2  0  0  0  0  0  0
  187.5050  177.6270  144.1720 C   0  0  0  0  0  0  0  0  0  0  0  0
  188.2490  176.9020  142.1370 C   0  0  1  0  0  3  0  0  0  0  0  0
  184.5700  178.6590  146.1560 C   0  0  0  0  0  3  0  0  0  0  0  0
  186.6990  178.0280  145.2300 C   0  0  0  0  0  0  0  0  0  0  0  0
  189.9650  177.5870  140.3670 C   0  0  2  0  0  3  0  0  0  0  0  0
  187.1230  177.4000  142.8630 O   0  0  0  0  0  0  0  0  0  0  0  0
  188.6760  177.9200  146.6840 C   0  0  0  0  0  0  0  0  0  0  0  0
  185.1470  178.7870  147.3810 N   0  0  0  0  0  0  0  0  0  0  0  0
  189.4820  177.5510  145.5740 C   0  0  0  0  0  0  0  0  0  0  0  0
  185.3360  178.2750  145.0550 C   0  0  0  0  0  3  0  0  0  0  0  0
  187.2900  178.1630  146.5080 C   0  0  0  0  0  0  0  0  0  0  0  0
  188.5480  177.7850  140.9260 C   0  0  0  0  0  2  0  0  0  0  0  0
  189.4070  178.1260  148.2810 Cl  0  0  0  0  0  0  0  0  0  0  0  0
  189.3690  176.9070  143.0880 N   0  0  0  0  0  0  0  0  0  0  0  0
  188.8370  177.3710  144.3290 C   0  0  0  0  0  0  0  0  0  0  0  0
  191.2630  176.1640  141.7160 C   0  0  0  0  0  2  0  0  0  0  0  0
  190.9430  177.4400  145.7590 C   0  0  0  0  0  3  0  0  0  0  0  0
  191.5350  176.4000  146.3310 C   0  0  0  0  0  2  0  0  0  0  0  0
  190.0570  178.0410  138.9150 C   0  0  0  0  0  2  0  0  0  0  0  0
  189.9640  176.8700  137.9450 C   0  0  0  0  0  2  0  0  0  0  0  0
  191.2310  176.7770  137.1180 C   0  0  0  0  0  2  0  0  0  0  0  0
  191.8280  175.5270  137.2980 O   0  0  0  0  0  0  0  0  0  0  0  0
  193.4840  176.9130  139.0460 O   0  0  0  0  0  1  0  0  0  0  0  0
  193.4360  175.8500  137.7300 P   0  0  0  0  0  0  0  0  0  0  0  0
  194.1410  174.5620  138.0960 O   0  0  0  0  0  1  0  0  0  0  0  0
  194.2300  176.5600  136.4170 O   0  0  0  0  0  0  0  0  0  0  0  0
  2 19  1  0  0  0  0
  3 17  1  0  0  0  0
  4 18  2  0  0  0  0
  4  7  1  0  0  0  0
  5 15  1  6  0  0  0
  5  9  1  0  0  0  0
  5 17  1  0  0  0  0
  6 11  2  0  0  0  0
  7 14  1  0  0  0  0
  8 22  1  6  0  0  0
  8  2  1  0  0  0  0
  8 15  1  0  0  0  0
  9  4  1  0  0  0  0
 10 16  1  0  0  0  0
 11  1  1  0  0  0  0
 12 20  1  0  0  0  0
 12 10  2  0  0  0  0
 13  7  2  0  0  0  0
 13  6  1  0  0  0  0
 14 10  1  0  0  0  0
 14  1  2  0  0  0  0
 17 18  1  0  0  0  0
 18 12  1  0  0  0  0
 19  3  1  0  0  0  0
 20 21  2  0  0  0  0
 23 22  1  0  0  0  0
 24 25  1  0  0  0  0
 24 23  1  0  0  0  0
 25 27  1  0  0  0  0
 27 28  1  0  0  0  0
 27 26  1  0  0  0  0
 29 27  2  0  0  0  0
M  END
>  <MODEL>
5

>  <REMARK>
 VINA RESULT:      -8.3      2.145      3.750
  Name = 
  6 active torsions:
  status: ('A' for Active; 'I' for Inactive)
    1  A    between atoms: O_2  and  P_16
    2  A    between atoms: O_2  and  C_26
    3  A    between atoms: C_9  and  C_25
    4  A    between atoms: C_13  and  C_21
    5  A    between atoms: C_22  and  C_25
    6  A    between atoms: C_22  and  C_26
                            x       y       z     vdW  Elec       q    Type
                         _______ _______ _______ _____ _____    ______ ____

>  <TORSDO>
F 6

$$$$
=
 OpenBabel10232410213D

 29 32  0  0  1  0  0  0  0  0999 V2000
  189.0100  177.1950  147.1120 C   0  0  0  0  0  3  0  0  0  0  0  0
  188.8760  177.9360  138.7150 N   0  0  0  0  0  2  0  0  0  0  0  0
  187.7880  178.7260  140.7840 C   0  0  0  0  0  2  0  0  0  0  0  0
  189.7120  177.3840  143.5070 C   0  0  0  0  0  0  0  0  0  0  0  0
  190.0290  177.6620  141.2620 C   0  0  1  0  0  3  0  0  0  0  0  0
  191.3420  176.8770  146.7790 C   0  0  0  0  0  3  0  0  0  0  0  0
  189.9180  177.2320  144.8730 C   0  0  0  0  0  0  0  0  0  0  0  0
  189.2790  176.5760  139.0700 C   0  0  2  0  0  3  0  0  0  0  0  0
  190.6650  177.3610  142.5060 O   0  0  0  0  0  0  0  0  0  0  0  0
  187.5040  177.5540  145.1990 C   0  0  0  0  0  0  0  0  0  0  0  0
  190.2610  176.9740  147.5980 N   0  0  0  0  0  0  0  0  0  0  0  0
  187.3210  177.6640  143.7960 C   0  0  0  0  0  0  0  0  0  0  0  0
  191.1920  177.0060  145.3980 C   0  0  0  0  0  3  0  0  0  0  0  0
  188.7990  177.3320  145.7330 C   0  0  0  0  0  0  0  0  0  0  0  0
  190.2680  176.5460  140.2460 C   0  0  0  0  0  2  0  0  0  0  0  0
  186.1110  177.6420  146.2850 Cl  0  0  0  0  0  0  0  0  0  0  0  0
  188.6000  177.8050  141.5700 N   0  0  0  0  0  0  0  0  0  0  0  0
  188.4750  177.6170  142.9790 C   0  0  0  0  0  0  0  0  0  0  0  0
  187.5940  178.1900  139.3650 C   0  0  0  0  0  2  0  0  0  0  0  0
  185.9480  177.7550  143.2600 C   0  0  0  0  0  3  0  0  0  0  0  0
  185.1770  178.8270  143.3910 C   0  0  0  0  0  2  0  0  0  0  0  0
  189.8380  175.8400  137.8580 C   0  0  0  0  0  2  0  0  0  0  0  0
  190.6770  176.7520  136.9740 C   0  0  0  0  0  2  0  0  0  0  0  0
  191.6980  175.9370  136.2030 C   0  0  0  0  0  2  0  0  0  0  0  0
  192.3450  175.0460  137.0630 O   0  0  0  0  0  0  0  0  0  0  0  0
  193.4500  176.8460  138.8680 O   0  0  0  0  0  1  0  0  0  0  0  0
  193.7660  175.8350  137.5480 P   0  0  0  0  0  0  0  0  0  0  0  0
  194.8160  174.8160  137.9330 O   0  0  0  0  0  1  0  0  0  0  0  0
  194.3460  176.7690  136.2640 O   0  0  0  0  0  0  0  0  0  0  0  0
  1 11  1  0  0  0  0
  2  8  1  0  0  0  0
  2 19  1  0  0  0  0
  3 17  1  0  0  0  0
  4  7  1  0  0  0  0
  5 15  1  6  0  0  0
  5 17  1  0  0  0  0
  5  9  1  0  0  0  0
  6 11  2  0  0  0  0
  7 13  2  0  0  0  0
  7 14  1  0  0  0  0
  8 22  1  6  0  0  0
  8 15  1  0  0  0  0
  9  4  1  0  0  0  0
 10 14  1  0  0  0  0
 10 16  1  0  0  0  0
 12 10  2  0  0  0  0
 13  6  1  0  0  0  0
 14  1  2  0  0  0  0
 17 18  1  0  0  0  0
 18  4  2  0  0  0  0
 18 12  1  0  0  0  0
 19  3  1  0  0  0  0
 20 21  2  0  0  0  0
 20 12  1  0  0  0  0
 23 22  1  0  0  0  0
 24 23  1  0  0  0  0
 24 25  1  0  0  0  0
 25 27  1  0  0  0  0
 27 28  1  0  0  0  0
 27 26  1  0  0  0  0
 29 27  2  0  0  0  0
M  END
>  <MODEL>
6

>  <REMARK>
 VINA RESULT:      -8.2      0.969      1.474
  Name = 
  6 active torsions:
  status: ('A' for Active; 'I' for Inactive)
    1  A    between atoms: O_2  and  P_16
    2  A    between atoms: O_2  and  C_26
    3  A    between atoms: C_9  and  C_25
    4  A    between atoms: C_13  and  C_21
    5  A    between atoms: C_22  and  C_25
    6  A    between atoms: C_22  and  C_26
                            x       y       z     vdW  Elec       q    Type
                         _______ _______ _______ _____ _____    ______ ____

>  <TORSDO>
F 6

$$$$
=
 OpenBabel10232410213D

 29 32  0  0  1  0  0  0  0  0999 V2000
  188.8530  177.2120  147.2950 C   0  0  0  0  0  3  0  0  0  0  0  0
  189.1710  177.9700  138.9050 N   0  0  0  0  0  2  0  0  0  0  0  0
  187.9740  178.7570  140.9140 C   0  0  0  0  0  2  0  0  0  0  0  0
  189.7480  177.4080  143.7340 C   0  0  0  0  0  0  0  0  0  0  0  0
  190.1850  177.6900  141.5100 C   0  0  1  0  0  3  0  0  0  0  0  0
  191.2000  176.8930  147.0870 C   0  0  0  0  0  3  0  0  0  0  0  0
  189.8790  177.2530  145.1080 C   0  0  0  0  0  0  0  0  0  0  0  0
  189.5530  176.6090  139.2780 C   0  0  2  0  0  3  0  0  0  0  0  0
  190.7530  177.3860  142.7850 O   0  0  0  0  0  0  0  0  0  0  0  0
  187.4520  177.5760  145.3050 C   0  0  0  0  0  0  0  0  0  0  0  0
  190.0760  176.9890  147.8480 N   0  0  0  0  0  0  0  0  0  0  0  0
  187.3450  177.6890  143.8940 C   0  0  0  0  0  0  0  0  0  0  0  0
  191.1230  177.0250  145.7000 C   0  0  0  0  0  3  0  0  0  0  0  0
  188.7170  177.3520  145.9080 C   0  0  0  0  0  0  0  0  0  0  0  0
  190.4770  176.5760  140.5060 C   0  0  0  0  0  2  0  0  0  0  0  0
  186.0030  177.6630  146.3150 Cl  0  0  0  0  0  0  0  0  0  0  0  0
  188.7420  177.8340  141.7410 N   0  0  0  0  0  0  0  0  0  0  0  0
  188.5400  177.6420  143.1410 C   0  0  0  0  0  0  0  0  0  0  0  0
  187.8560  178.2230  139.4850 C   0  0  0  0  0  2  0  0  0  0  0  0
  186.0020  177.7820  143.2860 C   0  0  0  0  0  3  0  0  0  0  0  0
  185.2980  178.9050  143.2270 C   0  0  0  0  0  2  0  0  0  0  0  0
  190.1750  175.8750  138.0970 C   0  0  0  0  0  2  0  0  0  0  0  0
  190.6490  176.8350  137.0140 C   0  0  0  0  0  2  0  0  0  0  0  0
  189.7350  176.7510  135.8060 C   0  0  0  0  0  2  0  0  0  0  0  0
  188.8570  175.6740  135.9460 O   0  0  0  0  0  0  0  0  0  0  0  0
  187.3980  178.0230  135.6860 O   0  0  0  0  0  1  0  0  0  0  0  0
  187.3010  176.3420  135.8570 P   0  0  0  0  0  0  0  0  0  0  0  0
  186.5540  175.7560  134.6790 O   0  0  0  0  0  0  0  0  0  0  0  0
  186.4620  175.9800  137.2800 O   0  0  0  0  0  1  0  0  0  0  0  0
  1 11  1  0  0  0  0
  2  8  1  0  0  0  0
  2 19  1  0  0  0  0
  3 17  1  0  0  0  0
  4  7  1  0  0  0  0
  5 15  1  6  0  0  0
  5 17  1  0  0  0  0
  5  9  1  0  0  0  0
  6 11  2  0  0  0  0
  7 13  2  0  0  0  0
  7 14  1  0  0  0  0
  8 22  1  6  0  0  0
  8 15  1  0  0  0  0
  9  4  1  0  0  0  0
 10 14  1  0  0  0  0
 10 16  1  0  0  0  0
 12 10  2  0  0  0  0
 13  6  1  0  0  0  0
 14  1  2  0  0  0  0
 17 18  1  0  0  0  0
 18  4  2  0  0  0  0
 18 12  1  0  0  0  0
 19  3  1  0  0  0  0
 20 12  1  0  0  0  0
 21 20  2  0  0  0  0
 23 22  1  0  0  0  0
 24 25  1  0  0  0  0
 24 23  1  0  0  0  0
 26 27  1  0  0  0  0
 27 25  1  0  0  0  0
 27 29  1  0  0  0  0
 28 27  2  0  0  0  0
M  END
>  <MODEL>
7

>  <REMARK>
 VINA RESULT:      -7.9      3.192      3.714
  Name = 
  6 active torsions:
  status: ('A' for Active; 'I' for Inactive)
    1  A    between atoms: O_2  and  P_16
    2  A    between atoms: O_2  and  C_26
    3  A    between atoms: C_9  and  C_25
    4  A    between atoms: C_13  and  C_21
    5  A    between atoms: C_22  and  C_25
    6  A    between atoms: C_22  and  C_26
                            x       y       z     vdW  Elec       q    Type
                         _______ _______ _______ _____ _____    ______ ____

>  <TORSDO>
F 6

$$$$
=
 OpenBabel10232410213D

 29 32  0  0  1  0  0  0  0  0999 V2000
  187.8910  177.4950  147.1610 C   0  0  0  0  0  3  0  0  0  0  0  0
  189.6870  177.9170  138.9340 N   0  0  0  0  0  2  0  0  0  0  0  0
  188.1960  178.8250  140.6780 C   0  0  0  0  0  2  0  0  0  0  0  0
  189.3960  177.5200  143.8050 C   0  0  0  0  0  0  0  0  0  0  0  0
  190.2230  177.7000  141.6840 C   0  0  1  0  0  3  0  0  0  0  0  0
  190.2220  177.0820  147.3750 C   0  0  0  0  0  3  0  0  0  0  0  0
  189.2810  177.4130  145.1850 C   0  0  0  0  0  0  0  0  0  0  0  0
  189.9400  176.5580  139.4110 C   0  0  2  0  0  3  0  0  0  0  0  0
  190.5480  177.4250  143.0470 O   0  0  0  0  0  0  0  0  0  0  0  0
  186.8730  177.8330  144.9460 C   0  0  0  0  0  0  0  0  0  0  0  0
  188.9890  177.2480  147.9240 N   0  0  0  0  0  0  0  0  0  0  0  0
  187.0160  177.8960  143.5350 C   0  0  0  0  0  0  0  0  0  0  0  0
  190.3930  177.1620  145.9920 C   0  0  0  0  0  3  0  0  0  0  0  0
  188.0030  177.5860  145.7660 C   0  0  0  0  0  0  0  0  0  0  0  0
  190.6360  176.5380  140.7810 C   0  0  0  0  0  2  0  0  0  0  0  0
  185.2760  178.0140  145.6840 Cl  0  0  0  0  0  0  0  0  0  0  0  0
  188.7690  177.9060  141.6550 N   0  0  0  0  0  0  0  0  0  0  0  0
  188.3200  177.7760  143.0040 C   0  0  0  0  0  0  0  0  0  0  0  0
  188.3040  178.2410  139.2680 C   0  0  0  0  0  2  0  0  0  0  0  0
  185.8040  178.0160  142.6990 C   0  0  0  0  0  3  0  0  0  0  0  0
  185.1470  179.1540  142.5150 C   0  0  0  0  0  2  0  0  0  0  0  0
  190.7250  175.7560  138.3800 C   0  0  0  0  0  2  0  0  0  0  0  0
  190.3020  176.0920  136.9550 C   0  0  0  0  0  2  0  0  0  0  0  0
  190.0120  174.8180  136.1840 C   0  0  0  0  0  2  0  0  0  0  0  0
  189.5470  173.8290  137.0540 O   0  0  0  0  0  0  0  0  0  0  0  0
  187.7430  171.7660  136.5980 O   0  0  0  0  0  1  0  0  0  0  0  0
  187.9900  173.4380  136.5050 P   0  0  0  0  0  0  0  0  0  0  0  0
  186.9530  174.1490  137.3460 O   0  0  0  0  0  1  0  0  0  0  0  0
  187.8300  173.9310  134.8960 O   0  0  0  0  0  0  0  0  0  0  0  0
  1 11  1  0  0  0  0
  2 19  1  0  0  0  0
  2  8  1  0  0  0  0
  3 17  1  0  0  0  0
  4  7  1  0  0  0  0
  5 15  1  6  0  0  0
  5  9  1  0  0  0  0
  6 11  2  0  0  0  0
  7 14  1  0  0  0  0
  7 13  2  0  0  0  0
  8 22  1  6  0  0  0
  8 15  1  0  0  0  0
  9  4  1  0  0  0  0
 10 16  1  0  0  0  0
 10 14  1  0  0  0  0
 12 10  2  0  0  0  0
 13  6  1  0  0  0  0
 14  1  2  0  0  0  0
 17  5  1  0  0  0  0
 17 18  1  0  0  0  0
 18 12  1  0  0  0  0
 18  4  2  0  0  0  0
 19  3  1  0  0  0  0
 20 12  1  0  0  0  0
 21 20  2  0  0  0  0
 23 22  1  0  0  0  0
 24 23  1  0  0  0  0
 24 25  1  0  0  0  0
 27 26  1  0  0  0  0
 27 25  1  0  0  0  0
 27 28  1  0  0  0  0
 29 27  2  0  0  0  0
M  END
>  <MODEL>
8

>  <REMARK>
 VINA RESULT:      -7.7      2.945      3.356
  Name = 
  6 active torsions:
  status: ('A' for Active; 'I' for Inactive)
    1  A    between atoms: O_2  and  P_16
    2  A    between atoms: O_2  and  C_26
    3  A    between atoms: C_9  and  C_25
    4  A    between atoms: C_13  and  C_21
    5  A    between atoms: C_22  and  C_25
    6  A    between atoms: C_22  and  C_26
                            x       y       z     vdW  Elec       q    Type
                         _______ _______ _______ _____ _____    ______ ____

>  <TORSDO>
F 6

$$$$
=
 OpenBabel10232410213D

 29 32  0  0  1  0  0  0  0  0999 V2000
  189.4550  177.2480  146.4230 C   0  0  0  0  0  3  0  0  0  0  0  0
  186.6870  178.6670  138.5860 N   0  0  0  0  0  2  0  0  0  0  0  0
  186.2290  179.1580  140.9610 C   0  0  0  0  0  2  0  0  0  0  0  0
  188.9970  177.8130  142.8180 C   0  0  0  0  0  0  0  0  0  0  0  0
  188.5860  178.3100  140.6270 C   0  0  1  0  0  3  0  0  0  0  0  0
  191.5890  177.2160  145.3760 C   0  0  0  0  0  3  0  0  0  0  0  0
  189.6240  177.5700  144.0340 C   0  0  0  0  0  0  0  0  0  0  0  0
  187.2860  177.3340  138.6500 C   0  0  2  0  0  3  0  0  0  0  0  0
  189.5950  177.9770  141.5820 O   0  0  0  0  0  0  0  0  0  0  0  0
  187.4100  177.5970  145.0990 C   0  0  0  0  0  0  0  0  0  0  0  0
  190.8080  177.1250  146.4860 N   0  0  0  0  0  0  0  0  0  0  0  0
  186.7960  177.8040  143.8350 C   0  0  0  0  0  0  0  0  0  0  0  0
  191.0110  177.4420  144.1270 C   0  0  0  0  0  3  0  0  0  0  0  0
  188.8200  177.4750  145.1940 C   0  0  0  0  0  0  0  0  0  0  0  0
  188.5880  177.3150  139.4670 C   0  0  0  0  0  2  0  0  0  0  0  0
  186.4160  177.4420  146.5530 Cl  0  0  0  0  0  0  0  0  0  0  0  0
  187.3140  178.2690  141.3610 N   0  0  0  0  0  0  0  0  0  0  0  0
  187.6430  177.9510  142.7130 C   0  0  0  0  0  0  0  0  0  0  0  0
  185.6510  178.7240  139.6130 C   0  0  0  0  0  2  0  0  0  0  0  0
  185.3220  177.7880  143.7470 C   0  0  0  0  0  3  0  0  0  0  0  0
  184.5510  178.7920  144.1450 C   0  0  0  0  0  2  0  0  0  0  0  0
  187.5010  176.7670  137.2520 C   0  0  0  0  0  2  0  0  0  0  0  0
  188.3790  177.6730  136.3980 C   0  0  0  0  0  2  0  0  0  0  0  0
  189.5900  176.9060  135.9010 C   0  0  0  0  0  2  0  0  0  0  0  0
  189.6610  175.6630  136.5330 O   0  0  0  0  0  0  0  0  0  0  0  0
  191.8280  176.8050  137.8440 O   0  0  0  0  0  1  0  0  0  0  0  0
  191.2900  175.4640  136.9620 P   0  0  0  0  0  0  0  0  0  0  0  0
  191.4550  174.2130  137.7960 O   0  0  0  0  0  1  0  0  0  0  0  0
  192.2180  175.3180  135.5570 O   0  0  0  0  0  0  0  0  0  0  0  0
  1 11  1  0  0  0  0
  2  8  1  0  0  0  0
  2 19  1  0  0  0  0
  3 17  1  0  0  0  0
  4  7  1  0  0  0  0
  5 15  1  6  0  0  0
  5 17  1  0  0  0  0
  5  9  1  0  0  0  0
  6 11  2  0  0  0  0
  7 13  2  0  0  0  0
  7 14  1  0  0  0  0
  8 22  1  6  0  0  0
  8 15  1  0  0  0  0
  9  4  1  0  0  0  0
 10 14  1  0  0  0  0
 10 16  1  0  0  0  0
 12 10  2  0  0  0  0
 13  6  1  0  0  0  0
 14  1  2  0  0  0  0
 17 18  1  0  0  0  0
 18  4  2  0  0  0  0
 18 12  1  0  0  0  0
 19  3  1  0  0  0  0
 20 12  1  0  0  0  0
 20 21  2  0  0  0  0
 23 22  1  0  0  0  0
 24 23  1  0  0  0  0
 24 25  1  0  0  0  0
 25 27  1  0  0  0  0
 27 28  1  0  0  0  0
 27 26  1  0  0  0  0
 29 27  2  0  0  0  0
M  END
>  <MODEL>
9

>  <REMARK>
 VINA RESULT:      -7.7      2.274      2.764
  Name = 
  6 active torsions:
  status: ('A' for Active; 'I' for Inactive)
    1  A    between atoms: O_2  and  P_16
    2  A    between atoms: O_2  and  C_26
    3  A    between atoms: C_9  and  C_25
    4  A    between atoms: C_13  and  C_21
    5  A    between atoms: C_22  and  C_25
    6  A    between atoms: C_22  and  C_26
                            x       y       z     vdW  Elec       q    Type
                         _______ _______ _______ _____ _____    ______ ____

>  <TORSDO>
F 6

$$$$
