=
 OpenBabel10232408593D

 46 49  0  0  1  0  0  0  0  0999 V2000
  188.8020  177.5200  140.0970 C   0  0  2  0  0  3  0  0  0  0  0  0
  189.6490  177.7130  141.3090 C   0  0  0  0  0  3  0  0  0  0  0  0
  189.1070  177.6660  142.5160 C   0  0  0  0  0  3  0  0  0  0  0  0
  189.9190  177.8630  143.6720 N   0  0  0  0  0  2  0  0  0  0  0  0
  189.4480  177.6190  145.0000 C   0  0  0  0  0  0  0  0  0  0  0  0
  190.3490  177.1760  145.9750 C   0  0  0  0  0  3  0  0  0  0  0  0
  188.5660  177.1090  147.6140 C   0  0  0  0  0  3  0  0  0  0  0  0
  187.6590  177.5540  146.6450 C   0  0  0  0  0  3  0  0  0  0  0  0
  188.0990  177.8100  145.3430 C   0  0  0  0  0  3  0  0  0  0  0  0
  189.9100  176.9210  147.2790 C   0  0  0  0  0  3  0  0  0  0  0  0
  189.5200  176.5810  139.1470 C   0  0  0  0  0  2  0  0  0  0  0  0
  191.0210  176.6630  139.3640 C   0  0  0  0  0  2  0  0  0  0  0  0
  191.7230  176.2150  138.1700 N   0  0  0  0  0  2  0  0  0  0  0  0
  193.1360  176.3500  138.0110 C   0  0  0  0  0  0  0  0  0  0  0  0
  193.8400  176.8630  138.9220 O   0  0  0  0  0  0  0  0  0  0  0  0
  193.7910  175.8360  136.7790 C   0  0  0  0  0  2  0  0  0  0  0  0
  195.1030  175.4550  137.0690 O   0  0  0  0  0  0  0  0  0  0  0  0
  194.3790  173.1850  136.8080 C   0  0  0  0  0  1  0  0  0  0  0  0
  195.3100  174.2870  136.3280 C   0  0  2  0  0  3  0  0  0  0  0  0
  196.7760  173.8500  136.3960 C   0  0  0  0  0  2  0  0  0  0  0  0
  197.3450  173.8740  137.8130 C   0  0  0  0  0  2  0  0  0  0  0  0
  199.8000  173.5400  137.8280 C   0  0  0  0  0  1  0  0  0  0  0  0
  198.7960  175.3320  139.0230 O   0  0  0  0  0  1  0  0  0  0  0  0
  198.6930  174.5740  137.8560 C   0  0  2  0  0  3  0  0  0  0  0  0
  188.5900  178.7720  139.4500 O   0  0  0  0  0  0  0  0  0  0  0  0
  188.9310  179.4300  137.2620 O   0  0  0  0  0  0  0  0  0  0  0  0
  188.1840  178.8800  138.1150 C   0  0  0  0  0  0  0  0  0  0  0  0
  184.5850  177.8520  138.3170 C   0  0  0  0  0  0  0  0  0  0  0  0
  184.2760  177.3710  137.1120 C   0  0  0  0  0  3  0  0  0  0  0  0
  185.2970  177.3060  136.0660 C   0  0  0  0  0  0  0  0  0  0  0  0
  186.8760  178.3510  137.7160 C   0  0  0  0  0  0  0  0  0  0  0  0
  185.0050  176.8270  134.9390 O   0  0  0  0  0  0  0  0  0  0  0  0
  186.6860  177.8140  136.3160 C   0  0  0  0  0  2  0  0  0  0  0  0
  185.9030  178.3520  138.5840 N   0  0  0  0  0  0  0  0  0  0  0  0
  183.9480  178.8350  140.4770 C   0  0  1  0  0  3  0  0  0  0  0  0
  183.5120  177.9930  139.3650 C   0  0  1  0  0  3  0  0  0  0  0  0
  182.9880  179.3750  139.5040 N   0  0  0  0  0  0  0  0  0  0  0  0
  183.6870  180.2570  138.7510 F   0  0  0  0  0  0  0  0  0  0  0  0
  183.2410  178.4390  141.6860 N   0  0  0  0  0  2  0  0  0  0  0  0
  185.3960  179.3780  142.4510 C   0  0  0  0  0  2  0  0  0  0  0  0
  185.4160  177.8990  142.8290 C   0  0  0  0  0  2  0  0  0  0  0  0
  184.1130  178.6730  142.8320 C   0  0  0  0  0  0  0  0  0  0  0  0
  183.2950  180.4660  144.1880 F   0  0  0  0  0  0  0  0  0  0  0  0
  184.4230  178.7240  145.3190 C   0  0  0  0  0  1  0  0  0  0  0  0
  182.2710  178.4720  144.3730 F   0  0  0  0  0  0  0  0  0  0  0  0
  183.4930  179.0950  144.1750 C   0  0  0  0  0  0  0  0  0  0  0  0
  1 11  1  6  0  0  0
  1  2  1  0  0  0  0
  2  3  2  0  0  0  0
  3  4  1  0  0  0  0
  4  5  1  0  0  0  0
  5  9  2  0  0  0  0
  5  6  1  0  0  0  0
  6 10  2  0  0  0  0
  8  7  2  0  0  0  0
  9  8  1  0  0  0  0
 10  7  1  0  0  0  0
 11 12  1  0  0  0  0
 13 12  1  0  0  0  0
 14 13  1  0  0  0  0
 14 15  2  0  0  0  0
 16 17  1  0  0  0  0
 16 14  1  0  0  0  0
 19 20  1  0  0  0  0
 19 18  1  1  0  0  0
 19 17  1  0  0  0  0
 20 21  1  0  0  0  0
 21 24  1  0  0  0  0
 24 22  1  1  0  0  0
 24 23  1  0  0  0  0
 25  1  1  0  0  0  0
 26 27  2  0  0  0  0
 27 25  1  0  0  0  0
 28 34  1  0  0  0  0
 29 28  2  0  0  0  0
 30 33  1  0  0  0  0
 30 29  1  0  0  0  0
 31 27  1  0  0  0  0
 31 34  2  0  0  0  0
 32 30  2  0  0  0  0
 33 31  1  0  0  0  0
 35 39  1  1  0  0  0
 36 28  1  6  0  0  0
 36 37  1  0  0  0  0
 36 35  1  0  0  0  0
 37 35  1  0  0  0  0
 38 37  1  0  0  0  0
 39 42  1  0  0  0  0
 40 41  1  0  0  0  0
 40 42  1  0  0  0  0
 41 42  1  0  0  0  0
 42 46  1  0  0  0  0
 46 43  1  0  0  0  0
 46 45  1  0  0  0  0
 46 44  1  0  0  0  0
M  END
>  <MODEL>
1

>  <REMARK>
 VINA RESULT:      -7.8      0.000      0.000
  Name = 
  19 active torsions:
  status: ('A' for Active; 'I' for Inactive)
    1  A    between atoms: C_2  and  C_22
    2  A    between atoms: C_2  and  O_38
    3  A    between atoms: C_3  and  N_40
    4  A    between atoms: C_7  and  C_21
    5  A    between atoms: C_8  and  C_35
    6  A    between atoms: C_8  and  C_39
    7  A    between atoms: C_12  and  N_17
    8  A    between atoms: C_12  and  C_36
    9  A    between atoms: C_14  and  C_35
   10  A    between atoms: C_14  and  O_38
   11  A    between atoms: C_16  and  N_42
   12  A    between atoms: C_18  and  C_29
   13  A    between atoms: C_18  and  N_42
   14  A    between atoms: O_19  and  C_43
   15  A    between atoms: O_19  and  C_44
   16  A    between atoms: C_24  and  C_44
   17  A    between atoms: C_27  and  C_43
   18  A    between atoms: C_31  and  N_40
   19  A    between atoms: C_36  and  C_44
                            x       y       z     vdW  Elec       q    Type
                         _______ _______ _______ _____ _____    ______ ____

>  <TORSDO>
F 19

$$$$
=
 OpenBabel10232408593D

 46 49  0  0  1  0  0  0  0  0999 V2000
  190.1570  177.4620  138.1860 C   0  0  2  0  0  3  0  0  0  0  0  0
  190.8890  176.5640  137.2490 C   0  0  0  0  0  3  0  0  0  0  0  0
  192.1760  176.3120  137.4330 C   0  0  0  0  0  3  0  0  0  0  0  0
  192.8760  175.4620  136.5280 N   0  0  0  0  0  2  0  0  0  0  0  0
  194.1750  174.9340  136.8070 C   0  0  0  0  0  0  0  0  0  0  0  0
  194.3370  174.0490  137.8810 C   0  0  0  0  0  3  0  0  0  0  0  0
  196.7080  173.8870  137.4070 C   0  0  0  0  0  3  0  0  0  0  0  0
  196.5530  174.7690  136.3320 C   0  0  0  0  0  3  0  0  0  0  0  0
  195.2900  175.2890  136.0320 C   0  0  0  0  0  3  0  0  0  0  0  0
  195.6000  173.5270  138.1800 C   0  0  0  0  0  3  0  0  0  0  0  0
  190.5750  177.1290  139.6060 C   0  0  0  0  0  2  0  0  0  0  0  0
  189.3870  177.2530  140.5440 C   0  0  0  0  0  2  0  0  0  0  0  0
  189.8360  177.6720  141.8640 N   0  0  0  0  0  2  0  0  0  0  0  0
  190.3010  176.7480  142.8480 C   0  0  0  0  0  0  0  0  0  0  0  0
  190.3510  175.5130  142.6000 O   0  0  0  0  0  0  0  0  0  0  0  0
  190.7790  177.2510  144.1640 C   0  0  0  0  0  2  0  0  0  0  0  0
  191.3260  176.1970  144.8990 O   0  0  0  0  0  0  0  0  0  0  0  0
  192.1780  175.6800  147.0770 C   0  0  0  0  0  1  0  0  0  0  0  0
  191.6380  176.7510  146.1440 C   0  0  2  0  0  3  0  0  0  0  0  0
  190.4220  177.4580  146.7480 C   0  0  0  0  0  2  0  0  0  0  0  0
  189.4690  176.5060  147.4670 C   0  0  0  0  0  2  0  0  0  0  0  0
  187.5940  177.8480  146.5590 C   0  0  0  0  0  1  0  0  0  0  0  0
  188.3610  178.1560  148.7870 O   0  0  0  0  0  1  0  0  0  0  0  0
  188.1540  177.1890  147.8030 C   0  0  2  0  0  3  0  0  0  0  0  0
  188.7520  177.2630  138.0510 O   0  0  0  0  0  0  0  0  0  0  0  0
  188.3400  179.3360  137.1180 O   0  0  0  0  0  0  0  0  0  0  0  0
  187.9000  178.2070  137.4680 C   0  0  0  0  0  0  0  0  0  0  0  0
  184.2730  177.6380  138.2240 C   0  0  0  0  0  0  0  0  0  0  0  0
  183.7140  177.2730  137.0690 C   0  0  0  0  0  3  0  0  0  0  0  0
  184.5380  177.1390  135.8660 C   0  0  0  0  0  0  0  0  0  0  0  0
  186.4850  177.8740  137.2710 C   0  0  0  0  0  0  0  0  0  0  0  0
  184.0080  176.7680  134.7870 O   0  0  0  0  0  0  0  0  0  0  0  0
  186.0050  177.4480  135.9030 C   0  0  0  0  0  2  0  0  0  0  0  0
  185.6720  177.9490  138.2870 N   0  0  0  0  0  0  0  0  0  0  0  0
  184.0780  178.6830  140.4390 C   0  0  1  0  0  3  0  0  0  0  0  0
  183.4090  177.8540  139.4380 C   0  0  1  0  0  3  0  0  0  0  0  0
  182.9940  179.2660  139.6370 N   0  0  0  0  0  0  0  0  0  0  0  0
  183.5990  180.0970  138.7540 F   0  0  0  0  0  0  0  0  0  0  0  0
  183.5730  178.3430  141.7600 N   0  0  0  0  0  2  0  0  0  0  0  0
  185.8160  179.3120  142.1340 C   0  0  0  0  0  2  0  0  0  0  0  0
  185.8140  177.9560  142.8340 C   0  0  0  0  0  2  0  0  0  0  0  0
  184.5450  178.7800  142.7570 C   0  0  0  0  0  0  0  0  0  0  0  0
  184.7590  180.7070  144.1580 F   0  0  0  0  0  0  0  0  0  0  0  0
  184.2750  178.6660  145.2460 C   0  0  0  0  0  1  0  0  0  0  0  0
  182.7050  179.8240  143.9110 F   0  0  0  0  0  0  0  0  0  0  0  0
  184.0550  179.5240  144.0110 C   0  0  0  0  0  0  0  0  0  0  0  0
  1  2  1  6  0  0  0
  1 11  1  0  0  0  0
  2  3  2  0  0  0  0
  4  5  1  0  0  0  0
  4  3  1  0  0  0  0
  5  6  1  0  0  0  0
  6 10  2  0  0  0  0
  7 10  1  0  0  0  0
  8  7  2  0  0  0  0
  9  8  1  0  0  0  0
  9  5  2  0  0  0  0
 11 12  1  0  0  0  0
 12 13  1  0  0  0  0
 13 14  1  0  0  0  0
 14 16  1  0  0  0  0
 15 14  2  0  0  0  0
 16 17  1  0  0  0  0
 17 19  1  0  0  0  0
 19 20  1  0  0  0  0
 19 18  1  1  0  0  0
 20 21  1  0  0  0  0
 21 24  1  0  0  0  0
 24 22  1  6  0  0  0
 24 23  1  0  0  0  0
 25  1  1  0  0  0  0
 26 27  2  0  0  0  0
 27 25  1  0  0  0  0
 28 34  1  0  0  0  0
 29 28  2  0  0  0  0
 30 33  1  0  0  0  0
 30 29  1  0  0  0  0
 31 27  1  0  0  0  0
 31 34  2  0  0  0  0
 32 30  2  0  0  0  0
 33 31  1  0  0  0  0
 35 39  1  1  0  0  0
 36 28  1  6  0  0  0
 36 37  1  0  0  0  0
 36 35  1  0  0  0  0
 37 35  1  0  0  0  0
 38 37  1  0  0  0  0
 39 42  1  0  0  0  0
 40 42  1  0  0  0  0
 40 41  1  0  0  0  0
 42 41  1  0  0  0  0
 42 46  1  0  0  0  0
 45 46  1  0  0  0  0
 46 43  1  0  0  0  0
 46 44  1  0  0  0  0
M  END
>  <MODEL>
2

>  <REMARK>
 VINA RESULT:      -7.5      2.137      7.269
  Name = 
  19 active torsions:
  status: ('A' for Active; 'I' for Inactive)
    1  A    between atoms: C_2  and  C_22
    2  A    between atoms: C_2  and  O_38
    3  A    between atoms: C_3  and  N_40
    4  A    between atoms: C_7  and  C_21
    5  A    between atoms: C_8  and  C_35
    6  A    between atoms: C_8  and  C_39
    7  A    between atoms: C_12  and  N_17
    8  A    between atoms: C_12  and  C_36
    9  A    between atoms: C_14  and  C_35
   10  A    between atoms: C_14  and  O_38
   11  A    between atoms: C_16  and  N_42
   12  A    between atoms: C_18  and  C_29
   13  A    between atoms: C_18  and  N_42
   14  A    between atoms: O_19  and  C_43
   15  A    between atoms: O_19  and  C_44
   16  A    between atoms: C_24  and  C_44
   17  A    between atoms: C_27  and  C_43
   18  A    between atoms: C_31  and  N_40
   19  A    between atoms: C_36  and  C_44
                            x       y       z     vdW  Elec       q    Type
                         _______ _______ _______ _____ _____    ______ ____

>  <TORSDO>
F 19

$$$$
=
 OpenBabel10232408593D

 46 49  0  0  1  0  0  0  0  0999 V2000
  189.7960  177.1090  137.8050 C   0  0  2  0  0  3  0  0  0  0  0  0
  189.6030  175.8800  136.9840 C   0  0  0  0  0  3  0  0  0  0  0  0
  189.5940  175.9540  135.6620 C   0  0  0  0  0  3  0  0  0  0  0  0
  189.3970  174.7780  134.8810 N   0  0  0  0  0  2  0  0  0  0  0  0
  188.3840  173.8120  135.1770 C   0  0  0  0  0  0  0  0  0  0  0  0
  188.7620  172.5390  135.6210 C   0  0  0  0  0  3  0  0  0  0  0  0
  186.4350  171.8770  135.7500 C   0  0  0  0  0  3  0  0  0  0  0  0
  186.0490  173.1480  135.3080 C   0  0  0  0  0  3  0  0  0  0  0  0
  187.0210  174.1130  135.0230 C   0  0  0  0  0  3  0  0  0  0  0  0
  187.7900  171.5740  135.9070 C   0  0  0  0  0  3  0  0  0  0  0  0
  190.7540  176.7930  138.9370 C   0  0  0  0  0  2  0  0  0  0  0  0
  189.9960  176.6790  140.2480 C   0  0  0  0  0  2  0  0  0  0  0  0
  190.8480  177.0880  141.3550 N   0  0  0  0  0  2  0  0  0  0  0  0
  190.6750  176.5940  142.6840 C   0  0  0  0  0  0  0  0  0  0  0  0
  189.7650  175.7640  142.9490 O   0  0  0  0  0  0  0  0  0  0  0  0
  191.6070  177.0280  143.7590 C   0  0  0  0  0  2  0  0  0  0  0  0
  191.7590  176.0010  144.6910 O   0  0  0  0  0  0  0  0  0  0  0  0
  192.1350  175.6750  147.0350 C   0  0  0  0  0  1  0  0  0  0  0  0
  191.7030  176.6340  145.9370 C   0  0  2  0  0  3  0  0  0  0  0  0
  190.3040  177.1950  146.2020 C   0  0  0  0  0  2  0  0  0  0  0  0
  189.7070  176.7220  147.5250 C   0  0  0  0  0  2  0  0  0  0  0  0
  187.7530  177.7680  146.4170 C   0  0  0  0  0  1  0  0  0  0  0  0
  188.3810  178.3720  148.6280 O   0  0  0  0  0  1  0  0  0  0  0  0
  188.3170  177.2960  147.7420 C   0  0  2  0  0  3  0  0  0  0  0  0
  188.5480  177.5300  138.3490 O   0  0  0  0  0  0  0  0  0  0  0  0
  188.0230  179.4970  137.2580 O   0  0  0  0  0  0  0  0  0  0  0  0
  187.6570  178.3610  137.6610 C   0  0  0  0  0  0  0  0  0  0  0  0
  184.0570  177.5150  138.2760 C   0  0  0  0  0  0  0  0  0  0  0  0
  183.5890  177.0500  137.1170 C   0  0  0  0  0  3  0  0  0  0  0  0
  184.4810  176.9330  135.9610 C   0  0  0  0  0  0  0  0  0  0  0  0
  186.2860  177.8980  137.4160 C   0  0  0  0  0  0  0  0  0  0  0  0
  184.0390  176.4690  134.8790 O   0  0  0  0  0  0  0  0  0  0  0  0
  185.9130  177.3700  136.0500 C   0  0  0  0  0  2  0  0  0  0  0  0
  185.4200  177.9480  138.3880 N   0  0  0  0  0  0  0  0  0  0  0  0
  183.6750  178.6190  140.4380 C   0  0  1  0  0  3  0  0  0  0  0  0
  183.1180  177.7110  139.4370 C   0  0  1  0  0  3  0  0  0  0  0  0
  182.5970  179.0950  139.5610 N   0  0  0  0  0  0  0  0  0  0  0  0
  183.1870  179.9370  138.6780 F   0  0  0  0  0  0  0  0  0  0  0  0
  183.1270  178.2900  141.7440 N   0  0  0  0  0  2  0  0  0  0  0  0
  185.3280  179.3240  142.1850 C   0  0  0  0  0  2  0  0  0  0  0  0
  185.4280  177.8810  142.6730 C   0  0  0  0  0  2  0  0  0  0  0  0
  184.1150  178.6300  142.7630 C   0  0  0  0  0  0  0  0  0  0  0  0
  183.4750  180.5240  144.0780 F   0  0  0  0  0  0  0  0  0  0  0  0
  184.6640  178.8180  145.2010 C   0  0  0  0  0  1  0  0  0  0  0  0
  182.4260  178.5760  144.4810 F   0  0  0  0  0  0  0  0  0  0  0  0
  183.6380  179.1500  144.1300 C   0  0  0  0  0  0  0  0  0  0  0  0
  1  2  1  1  0  0  0
  1 25  1  0  0  0  0
  1 11  1  0  0  0  0
  3  2  2  0  0  0  0
  4  5  1  0  0  0  0
  4  3  1  0  0  0  0
  5  6  1  0  0  0  0
  6 10  2  0  0  0  0
  7 10  1  0  0  0  0
  8  7  2  0  0  0  0
  9  5  2  0  0  0  0
  9  8  1  0  0  0  0
 11 12  1  0  0  0  0
 12 13  1  0  0  0  0
 13 14  1  0  0  0  0
 14 15  2  0  0  0  0
 14 16  1  0  0  0  0
 16 17  1  0  0  0  0
 17 19  1  0  0  0  0
 19 20  1  0  0  0  0
 19 18  1  1  0  0  0
 20 21  1  0  0  0  0
 21 24  1  0  0  0  0
 24 22  1  6  0  0  0
 24 23  1  0  0  0  0
 26 27  2  0  0  0  0
 27 25  1  0  0  0  0
 28 34  1  0  0  0  0
 29 28  2  0  0  0  0
 30 33  1  0  0  0  0
 30 29  1  0  0  0  0
 31 27  1  0  0  0  0
 31 34  2  0  0  0  0
 32 30  2  0  0  0  0
 33 31  1  0  0  0  0
 35 39  1  1  0  0  0
 36 28  1  6  0  0  0
 36 37  1  0  0  0  0
 36 35  1  0  0  0  0
 37 35  1  0  0  0  0
 38 37  1  0  0  0  0
 39 42  1  0  0  0  0
 40 41  1  0  0  0  0
 40 42  1  0  0  0  0
 41 42  1  0  0  0  0
 42 46  1  0  0  0  0
 43 46  1  0  0  0  0
 46 45  1  0  0  0  0
 46 44  1  0  0  0  0
M  END
>  <MODEL>
3

>  <REMARK>
 VINA RESULT:      -7.5      3.473      7.260
  Name = 
  19 active torsions:
  status: ('A' for Active; 'I' for Inactive)
    1  A    between atoms: C_2  and  C_22
    2  A    between atoms: C_2  and  O_38
    3  A    between atoms: C_3  and  N_40
    4  A    between atoms: C_7  and  C_21
    5  A    between atoms: C_8  and  C_35
    6  A    between atoms: C_8  and  C_39
    7  A    between atoms: C_12  and  N_17
    8  A    between atoms: C_12  and  C_36
    9  A    between atoms: C_14  and  C_35
   10  A    between atoms: C_14  and  O_38
   11  A    between atoms: C_16  and  N_42
   12  A    between atoms: C_18  and  C_29
   13  A    between atoms: C_18  and  N_42
   14  A    between atoms: O_19  and  C_43
   15  A    between atoms: O_19  and  C_44
   16  A    between atoms: C_24  and  C_44
   17  A    between atoms: C_27  and  C_43
   18  A    between atoms: C_31  and  N_40
   19  A    between atoms: C_36  and  C_44
                            x       y       z     vdW  Elec       q    Type
                         _______ _______ _______ _____ _____    ______ ____

>  <TORSDO>
F 19

$$$$
=
 OpenBabel10232408593D

 46 49  0  0  1  0  0  0  0  0999 V2000
  189.6370  176.9350  139.0500 C   0  0  2  0  0  3  0  0  0  0  0  0
  189.6810  177.8420  140.2320 C   0  0  0  0  0  3  0  0  0  0  0  0
  189.9240  177.3550  141.4390 C   0  0  0  0  0  3  0  0  0  0  0  0
  189.9530  178.2240  142.5680 N   0  0  0  0  0  2  0  0  0  0  0  0
  190.1450  177.7520  143.9040 C   0  0  0  0  0  0  0  0  0  0  0  0
  189.1130  177.9010  144.8380 C   0  0  0  0  0  3  0  0  0  0  0  0
  190.4840  176.8610  146.5430 C   0  0  0  0  0  3  0  0  0  0  0  0
  191.5200  176.7070  145.6150 C   0  0  0  0  0  3  0  0  0  0  0  0
  191.3510  177.1500  144.3000 C   0  0  0  0  0  3  0  0  0  0  0  0
  189.2810  177.4570  146.1540 C   0  0  0  0  0  3  0  0  0  0  0  0
  190.8860  176.0740  139.0500 C   0  0  0  0  0  2  0  0  0  0  0  0
  190.9890  175.3020  137.7460 C   0  0  0  0  0  2  0  0  0  0  0  0
  192.3320  174.7590  137.5930 N   0  0  0  0  0  2  0  0  0  0  0  0
  193.4900  175.5880  137.4870 C   0  0  0  0  0  0  0  0  0  0  0  0
  193.3900  176.8430  137.5330 O   0  0  0  0  0  0  0  0  0  0  0  0
  194.8340  174.9630  137.3690 C   0  0  0  0  0  2  0  0  0  0  0  0
  195.3300  174.6730  138.6410 O   0  0  0  0  0  0  0  0  0  0  0  0
  197.6630  174.4750  138.1330 C   0  0  0  0  0  1  0  0  0  0  0  0
  196.3590  173.7510  138.4250 C   0  0  2  0  0  3  0  0  0  0  0  0
  195.9950  172.7800  137.2990 C   0  0  0  0  0  2  0  0  0  0  0  0
  195.6880  171.3690  137.7980 C   0  0  0  0  0  2  0  0  0  0  0  0
  195.0430  169.6120  136.1740 C   0  0  0  0  0  1  0  0  0  0  0  0
  193.9340  171.7130  136.2160 O   0  0  0  0  0  1  0  0  0  0  0  0
  194.5300  170.7510  137.0320 C   0  0  2  0  0  3  0  0  0  0  0  0
  189.5960  177.7030  137.8500 O   0  0  0  0  0  0  0  0  0  0  0  0
  188.8830  179.8850  137.5880 O   0  0  0  0  0  0  0  0  0  0  0  0
  188.6060  178.6550  137.5870 C   0  0  0  0  0  0  0  0  0  0  0  0
  184.9960  177.8050  138.1390 C   0  0  0  0  0  0  0  0  0  0  0  0
  184.5360  177.3890  136.9590 C   0  0  0  0  0  3  0  0  0  0  0  0
  185.4370  177.3130  135.8070 C   0  0  0  0  0  0  0  0  0  0  0  0
  187.2350  178.2100  137.3130 C   0  0  0  0  0  0  0  0  0  0  0  0
  185.0010  176.8940  134.7030 O   0  0  0  0  0  0  0  0  0  0  0  0
  186.8700  177.7380  135.9240 C   0  0  0  0  0  2  0  0  0  0  0  0
  186.3610  178.2260  138.2790 N   0  0  0  0  0  0  0  0  0  0  0  0
  184.6140  178.8030  140.3520 C   0  0  1  0  0  3  0  0  0  0  0  0
  184.0490  177.9600  139.3000 C   0  0  1  0  0  3  0  0  0  0  0  0
  183.5550  179.3470  139.4900 N   0  0  0  0  0  0  0  0  0  0  0  0
  184.1730  180.2200  138.6590 F   0  0  0  0  0  0  0  0  0  0  0  0
  184.0450  178.4180  141.6340 N   0  0  0  0  0  2  0  0  0  0  0  0
  186.3320  179.2150  142.1250 C   0  0  0  0  0  2  0  0  0  0  0  0
  186.2720  177.7670  142.6050 C   0  0  0  0  0  2  0  0  0  0  0  0
  185.0420  178.6480  142.6740 C   0  0  0  0  0  0  0  0  0  0  0  0
  185.3870  178.6830  145.0420 F   0  0  0  0  0  0  0  0  0  0  0  0
  183.1470  178.8270  144.3040 C   0  0  0  0  0  1  0  0  0  0  0  0
  184.7030  180.5890  144.0620 F   0  0  0  0  0  0  0  0  0  0  0  0
  184.5930  179.2080  144.0350 C   0  0  0  0  0  0  0  0  0  0  0  0
  1 11  1  6  0  0  0
  1  2  1  0  0  0  0
  2  3  2  0  0  0  0
  3  4  1  0  0  0  0
  4  5  1  0  0  0  0
  5  9  2  0  0  0  0
  5  6  1  0  0  0  0
  6 10  2  0  0  0  0
  8  7  2  0  0  0  0
  9  8  1  0  0  0  0
 10  7  1  0  0  0  0
 12 11  1  0  0  0  0
 13 12  1  0  0  0  0
 14 15  2  0  0  0  0
 14 13  1  0  0  0  0
 16 14  1  0  0  0  0
 16 17  1  0  0  0  0
 19 18  1  6  0  0  0
 19 17  1  0  0  0  0
 20 21  1  0  0  0  0
 20 19  1  0  0  0  0
 23 24  1  0  0  0  0
 24 22  1  6  0  0  0
 24 21  1  0  0  0  0
 25  1  1  0  0  0  0
 27 26  2  0  0  0  0
 27 25  1  0  0  0  0
 28 34  1  0  0  0  0
 29 28  2  0  0  0  0
 30 33  1  0  0  0  0
 30 29  1  0  0  0  0
 31 27  1  0  0  0  0
 31 34  2  0  0  0  0
 32 30  2  0  0  0  0
 33 31  1  0  0  0  0
 35 39  1  1  0  0  0
 36 28  1  6  0  0  0
 36 37  1  0  0  0  0
 36 35  1  0  0  0  0
 37 35  1  0  0  0  0
 38 37  1  0  0  0  0
 39 42  1  0  0  0  0
 40 41  1  0  0  0  0
 40 42  1  0  0  0  0
 41 42  1  0  0  0  0
 42 46  1  0  0  0  0
 46 45  1  0  0  0  0
 46 44  1  0  0  0  0
 46 43  1  0  0  0  0
M  END
>  <MODEL>
4

>  <REMARK>
 VINA RESULT:      -7.4      1.441      2.326
  Name = 
  19 active torsions:
  status: ('A' for Active; 'I' for Inactive)
    1  A    between atoms: C_2  and  C_22
    2  A    between atoms: C_2  and  O_38
    3  A    between atoms: C_3  and  N_40
    4  A    between atoms: C_7  and  C_21
    5  A    between atoms: C_8  and  C_35
    6  A    between atoms: C_8  and  C_39
    7  A    between atoms: C_12  and  N_17
    8  A    between atoms: C_12  and  C_36
    9  A    between atoms: C_14  and  C_35
   10  A    between atoms: C_14  and  O_38
   11  A    between atoms: C_16  and  N_42
   12  A    between atoms: C_18  and  C_29
   13  A    between atoms: C_18  and  N_42
   14  A    between atoms: O_19  and  C_43
   15  A    between atoms: O_19  and  C_44
   16  A    between atoms: C_24  and  C_44
   17  A    between atoms: C_27  and  C_43
   18  A    between atoms: C_31  and  N_40
   19  A    between atoms: C_36  and  C_44
                            x       y       z     vdW  Elec       q    Type
                         _______ _______ _______ _____ _____    ______ ____

>  <TORSDO>
F 19

$$$$
=
 OpenBabel10232408593D

 46 49  0  0  1  0  0  0  0  0999 V2000
  188.8380  176.5120  137.1140 C   0  0  2  0  0  3  0  0  0  0  0  0
  188.3140  175.4560  136.2030 C   0  0  0  0  0  3  0  0  0  0  0  0
  187.5820  174.4630  136.6830 C   0  0  0  0  0  3  0  0  0  0  0  0
  187.0930  173.4480  135.8100 N   0  0  0  0  0  2  0  0  0  0  0  0
  185.8960  172.7100  136.0720 C   0  0  0  0  0  0  0  0  0  0  0  0
  185.0020  173.1790  137.0420 C   0  0  0  0  0  3  0  0  0  0  0  0
  183.5450  171.2860  136.6350 C   0  0  0  0  0  3  0  0  0  0  0  0
  184.4340  170.8120  135.6630 C   0  0  0  0  0  3  0  0  0  0  0  0
  185.6050  171.5230  135.3810 C   0  0  0  0  0  3  0  0  0  0  0  0
  183.8290  172.4690  137.3230 C   0  0  0  0  0  3  0  0  0  0  0  0
  189.9020  175.9010  138.0070 C   0  0  0  0  0  2  0  0  0  0  0  0
  190.8960  176.9650  138.4410 C   0  0  0  0  0  2  0  0  0  0  0  0
  190.8060  177.1740  139.8790 N   0  0  0  0  0  2  0  0  0  0  0  0
  191.9560  177.3830  140.7000 C   0  0  0  0  0  0  0  0  0  0  0  0
  193.1110  177.4040  140.1960 O   0  0  0  0  0  0  0  0  0  0  0  0
  191.7870  177.6260  142.1570 C   0  0  0  0  0  2  0  0  0  0  0  0
  190.4320  177.7870  142.4510 O   0  0  0  0  0  0  0  0  0  0  0  0
  188.8810  176.0800  143.0970 C   0  0  0  0  0  1  0  0  0  0  0  0
  190.1600  176.8290  143.4320 C   0  0  2  0  0  3  0  0  0  0  0  0
  190.0840  177.4720  144.8190 C   0  0  0  0  0  2  0  0  0  0  0  0
  191.3410  177.2480  145.6560 C   0  0  0  0  0  2  0  0  0  0  0  0
  189.6450  177.0500  147.4510 C   0  0  0  0  0  1  0  0  0  0  0  0
  191.9690  176.9420  147.9380 O   0  0  0  0  0  1  0  0  0  0  0  0
  191.0120  176.5900  146.9850 C   0  0  2  0  0  3  0  0  0  0  0  0
  187.7830  177.0220  137.9240 O   0  0  0  0  0  0  0  0  0  0  0  0
  187.1210  178.9900  136.9100 O   0  0  0  0  0  0  0  0  0  0  0  0
  186.8000  177.8910  137.4380 C   0  0  0  0  0  0  0  0  0  0  0  0
  183.4010  177.3580  138.9280 C   0  0  0  0  0  0  0  0  0  0  0  0
  182.6520  176.8480  137.9500 C   0  0  0  0  0  3  0  0  0  0  0  0
  183.2420  176.5840  136.6360 C   0  0  0  0  0  0  0  0  0  0  0  0
  185.3870  177.5140  137.5530 C   0  0  0  0  0  0  0  0  0  0  0  0
  182.5350  176.0770  135.7270 O   0  0  0  0  0  0  0  0  0  0  0  0
  184.6760  176.9190  136.3580 C   0  0  0  0  0  2  0  0  0  0  0  0
  184.7750  177.6970  138.6890 N   0  0  0  0  0  0  0  0  0  0  0  0
  183.5350  178.7260  140.9650 C   0  0  1  0  0  3  0  0  0  0  0  0
  182.7710  177.7040  140.2510 C   0  0  1  0  0  3  0  0  0  0  0  0
  182.2640  179.0970  140.3280 N   0  0  0  0  0  0  0  0  0  0  0  0
  182.6010  179.8180  139.2320 F   0  0  0  0  0  0  0  0  0  0  0  0
  183.3310  178.5660  142.3960 N   0  0  0  0  0  2  0  0  0  0  0  0
  185.6370  179.4450  142.2420 C   0  0  0  0  0  2  0  0  0  0  0  0
  185.7660  177.9340  142.4140 C   0  0  0  0  0  2  0  0  0  0  0  0
  184.6220  178.6830  143.0670 C   0  0  0  0  0  0  0  0  0  0  0  0
  184.9500  180.2790  144.8190 F   0  0  0  0  0  0  0  0  0  0  0  0
  185.7380  178.0890  145.2300 C   0  0  0  0  0  1  0  0  0  0  0  0
  183.4420  178.6470  145.1670 F   0  0  0  0  0  0  0  0  0  0  0  0
  184.6630  178.9450  144.5820 C   0  0  0  0  0  0  0  0  0  0  0  0
  1  2  1  6  0  0  0
  1 25  1  0  0  0  0
  1 11  1  0  0  0  0
  2  3  2  0  0  0  0
  4  5  1  0  0  0  0
  4  3  1  0  0  0  0
  5  6  1  0  0  0  0
  6 10  2  0  0  0  0
  7 10  1  0  0  0  0
  8  7  2  0  0  0  0
  9  8  1  0  0  0  0
  9  5  2  0  0  0  0
 11 12  1  0  0  0  0
 12 13  1  0  0  0  0
 13 14  1  0  0  0  0
 14 16  1  0  0  0  0
 15 14  2  0  0  0  0
 16 17  1  0  0  0  0
 17 19  1  0  0  0  0
 19 18  1  6  0  0  0
 19 20  1  0  0  0  0
 20 21  1  0  0  0  0
 21 24  1  0  0  0  0
 24 22  1  1  0  0  0
 24 23  1  0  0  0  0
 26 27  2  0  0  0  0
 27 31  1  0  0  0  0
 27 25  1  0  0  0  0
 29 28  2  0  0  0  0
 30 29  1  0  0  0  0
 31 34  2  0  0  0  0
 32 30  2  0  0  0  0
 33 30  1  0  0  0  0
 33 31  1  0  0  0  0
 34 28  1  0  0  0  0
 35 39  1  1  0  0  0
 36 28  1  6  0  0  0
 36 37  1  0  0  0  0
 36 35  1  0  0  0  0
 37 35  1  0  0  0  0
 38 37  1  0  0  0  0
 39 42  1  0  0  0  0
 40 41  1  0  0  0  0
 40 42  1  0  0  0  0
 41 42  1  0  0  0  0
 42 46  1  0  0  0  0
 46 43  1  0  0  0  0
 46 45  1  0  0  0  0
 46 44  1  0  0  0  0
M  END
>  <MODEL>
5

>  <REMARK>
 VINA RESULT:      -7.4      3.195      6.799
  Name = 
  19 active torsions:
  status: ('A' for Active; 'I' for Inactive)
    1  A    between atoms: C_2  and  C_22
    2  A    between atoms: C_2  and  O_38
    3  A    between atoms: C_3  and  N_40
    4  A    between atoms: C_7  and  C_21
    5  A    between atoms: C_8  and  C_35
    6  A    between atoms: C_8  and  C_39
    7  A    between atoms: C_12  and  N_17
    8  A    between atoms: C_12  and  C_36
    9  A    between atoms: C_14  and  C_35
   10  A    between atoms: C_14  and  O_38
   11  A    between atoms: C_16  and  N_42
   12  A    between atoms: C_18  and  C_29
   13  A    between atoms: C_18  and  N_42
   14  A    between atoms: O_19  and  C_43
   15  A    between atoms: O_19  and  C_44
   16  A    between atoms: C_24  and  C_44
   17  A    between atoms: C_27  and  C_43
   18  A    between atoms: C_31  and  N_40
   19  A    between atoms: C_36  and  C_44
                            x       y       z     vdW  Elec       q    Type
                         _______ _______ _______ _____ _____    ______ ____

>  <TORSDO>
F 19

$$$$
=
 OpenBabel10232408593D

 46 49  0  0  1  0  0  0  0  0999 V2000
  189.3880  177.4910  141.8030 C   0  0  2  0  0  3  0  0  0  0  0  0
  188.3380  178.1080  140.9430 C   0  0  0  0  0  3  0  0  0  0  0  0
  188.3610  177.9310  139.6310 C   0  0  0  0  0  3  0  0  0  0  0  0
  187.3620  178.5330  138.8110 N   0  0  0  0  0  2  0  0  0  0  0  0
  186.3910  177.7720  138.0880 C   0  0  0  0  0  0  0  0  0  0  0  0
  185.0460  178.1590  138.1340 C   0  0  0  0  0  3  0  0  0  0  0  0
  184.4460  176.2990  136.7030 C   0  0  0  0  0  3  0  0  0  0  0  0
  185.7890  175.9070  136.6510 C   0  0  0  0  0  3  0  0  0  0  0  0
  186.7580  176.6420  137.3400 C   0  0  0  0  0  3  0  0  0  0  0  0
  184.0760  177.4250  137.4430 C   0  0  0  0  0  3  0  0  0  0  0  0
  190.1330  176.4500  140.9890 C   0  0  0  0  0  2  0  0  0  0  0  0
  191.4040  177.0490  140.4110 C   0  0  0  0  0  2  0  0  0  0  0  0
  191.5390  176.6770  139.0100 N   0  0  0  0  0  2  0  0  0  0  0  0
  192.8070  176.5520  138.3650 C   0  0  0  0  0  0  0  0  0  0  0  0
  193.8760  176.7530  139.0010 O   0  0  0  0  0  0  0  0  0  0  0  0
  192.8700  176.1330  136.9400 C   0  0  0  0  0  2  0  0  0  0  0  0
  193.1620  174.7700  136.8640 O   0  0  0  0  0  0  0  0  0  0  0  0
  194.2080  173.2430  135.3430 C   0  0  0  0  0  1  0  0  0  0  0  0
  194.1410  174.6660  135.8710 C   0  0  2  0  0  3  0  0  0  0  0  0
  195.5020  175.1330  136.3960 C   0  0  0  0  0  2  0  0  0  0  0  0
  196.4840  173.9860  136.6250 C   0  0  0  0  0  2  0  0  0  0  0  0
  196.3140  174.1620  139.0900 C   0  0  0  0  0  1  0  0  0  0  0  0
  197.9440  175.3960  137.8790 O   0  0  0  0  0  1  0  0  0  0  0  0
  197.2670  174.1770  137.9120 C   0  0  2  0  0  3  0  0  0  0  0  0
  188.7840  176.8620  142.9300 O   0  0  0  0  0  0  0  0  0  0  0  0
  190.4770  176.5920  144.4790 O   0  0  0  0  0  0  0  0  0  0  0  0
  189.2990  176.9640  144.2270 C   0  0  0  0  0  0  0  0  0  0  0  0
  186.4770  178.7530  145.9270 C   0  0  0  0  0  0  0  0  0  0  0  0
  186.6950  178.6150  147.2350 C   0  0  0  0  0  3  0  0  0  0  0  0
  187.8850  177.9050  147.7090 C   0  0  0  0  0  0  0  0  0  0  0  0
  188.4520  177.5050  145.2960 C   0  0  0  0  0  0  0  0  0  0  0  0
  188.0980  177.8030  148.9450 O   0  0  0  0  0  0  0  0  0  0  0  0
  188.8480  177.2890  146.7390 C   0  0  0  0  0  2  0  0  0  0  0  0
  187.3770  178.1670  144.9750 N   0  0  0  0  0  0  0  0  0  0  0  0
  184.4270  178.5200  144.5930 C   0  0  1  0  0  3  0  0  0  0  0  0
  185.2120  179.4120  145.4440 C   0  0  1  0  0  3  0  0  0  0  0  0
  183.9720  178.7840  145.9650 N   0  0  0  0  0  0  0  0  0  0  0  0
  184.2340  177.6520  146.6620 F   0  0  0  0  0  0  0  0  0  0  0  0
  183.6400  179.3140  143.6610 N   0  0  0  0  0  2  0  0  0  0  0  0
  185.0280  177.8500  142.2320 C   0  0  0  0  0  2  0  0  0  0  0  0
  185.1130  179.2470  141.6240 C   0  0  0  0  0  2  0  0  0  0  0  0
  183.8460  178.7890  142.3150 C   0  0  0  0  0  0  0  0  0  0  0  0
  182.9210  177.2840  140.7010 F   0  0  0  0  0  0  0  0  0  0  0  0
  182.2510  179.5440  140.5340 C   0  0  0  0  0  1  0  0  0  0  0  0
  181.5350  178.1070  142.2690 F   0  0  0  0  0  0  0  0  0  0  0  0
  182.6240  178.4010  141.4640 C   0  0  0  0  0  0  0  0  0  0  0  0
  1  2  1  6  0  0  0
  1 25  1  0  0  0  0
  3  2  2  0  0  0  0
  4  3  1  0  0  0  0
  5  6  1  0  0  0  0
  5  4  1  0  0  0  0
  7 10  1  0  0  0  0
  8  7  2  0  0  0  0
  8  9  1  0  0  0  0
  9  5  2  0  0  0  0
 10  6  2  0  0  0  0
 11  1  1  0  0  0  0
 12 11  1  0  0  0  0
 13 12  1  0  0  0  0
 14 15  2  0  0  0  0
 14 13  1  0  0  0  0
 16 14  1  0  0  0  0
 17 16  1  0  0  0  0
 19 18  1  1  0  0  0
 19 20  1  0  0  0  0
 19 17  1  0  0  0  0
 20 21  1  0  0  0  0
 21 24  1  0  0  0  0
 23 24  1  0  0  0  0
 24 22  1  1  0  0  0
 25 27  1  0  0  0  0
 27 26  2  0  0  0  0
 27 31  1  0  0  0  0
 28 29  2  0  0  0  0
 29 30  1  0  0  0  0
 30 32  2  0  0  0  0
 31 33  1  0  0  0  0
 33 30  1  0  0  0  0
 34 31  2  0  0  0  0
 34 28  1  0  0  0  0
 35 39  1  6  0  0  0
 35 36  1  0  0  0  0
 35 37  1  0  0  0  0
 36 28  1  1  0  0  0
 36 37  1  0  0  0  0
 37 38  1  0  0  0  0
 40 42  1  0  0  0  0
 41 40  1  0  0  0  0
 41 42  1  0  0  0  0
 42 39  1  0  0  0  0
 43 46  1  0  0  0  0
 44 46  1  0  0  0  0
 46 45  1  0  0  0  0
 46 42  1  0  0  0  0
M  END
>  <MODEL>
6

>  <REMARK>
 VINA RESULT:      -7.1      2.336      6.220
  Name = 
  19 active torsions:
  status: ('A' for Active; 'I' for Inactive)
    1  A    between atoms: C_2  and  C_22
    2  A    between atoms: C_2  and  O_38
    3  A    between atoms: C_3  and  N_40
    4  A    between atoms: C_7  and  C_21
    5  A    between atoms: C_8  and  C_35
    6  A    between atoms: C_8  and  C_39
    7  A    between atoms: C_12  and  N_17
    8  A    between atoms: C_12  and  C_36
    9  A    between atoms: C_14  and  C_35
   10  A    between atoms: C_14  and  O_38
   11  A    between atoms: C_16  and  N_42
   12  A    between atoms: C_18  and  C_29
   13  A    between atoms: C_18  and  N_42
   14  A    between atoms: O_19  and  C_43
   15  A    between atoms: O_19  and  C_44
   16  A    between atoms: C_24  and  C_44
   17  A    between atoms: C_27  and  C_43
   18  A    between atoms: C_31  and  N_40
   19  A    between atoms: C_36  and  C_44
                            x       y       z     vdW  Elec       q    Type
                         _______ _______ _______ _____ _____    ______ ____

>  <TORSDO>
F 19

$$$$
=
 OpenBabel10232408593D

 46 49  0  0  1  0  0  0  0  0999 V2000
  189.9930  176.6190  139.3180 C   0  0  2  0  0  3  0  0  0  0  0  0
  189.4520  177.3110  140.5220 C   0  0  0  0  0  3  0  0  0  0  0  0
  189.8840  176.9840  141.7300 C   0  0  0  0  0  3  0  0  0  0  0  0
  189.3550  177.6400  142.8800 N   0  0  0  0  0  2  0  0  0  0  0  0
  189.8140  177.3690  144.2070 C   0  0  0  0  0  0  0  0  0  0  0  0
  188.9480  177.5760  145.2870 C   0  0  0  0  0  3  0  0  0  0  0  0
  190.6770  176.8710  146.8300 C   0  0  0  0  0  3  0  0  0  0  0  0
  191.5490  176.6600  145.7550 C   0  0  0  0  0  3  0  0  0  0  0  0
  191.1180  176.9070  144.4480 C   0  0  0  0  0  3  0  0  0  0  0  0
  189.3780  177.3280  146.5950 C   0  0  0  0  0  3  0  0  0  0  0  0
  191.5030  176.5320  139.4440 C   0  0  0  0  0  2  0  0  0  0  0  0
  192.1560  176.7870  138.0960 C   0  0  0  0  0  2  0  0  0  0  0  0
  192.3270  175.5320  137.3790 N   0  0  0  0  0  2  0  0  0  0  0  0
  193.5630  174.8160  137.3630 C   0  0  0  0  0  0  0  0  0  0  0  0
  194.5660  175.2500  137.9900 O   0  0  0  0  0  0  0  0  0  0  0  0
  193.6550  173.5210  136.6390 C   0  0  0  0  0  2  0  0  0  0  0  0
  192.4010  172.9080  136.6120 O   0  0  0  0  0  0  0  0  0  0  0  0
  193.0360  173.3550  134.3460 C   0  0  0  0  0  1  0  0  0  0  0  0
  192.2420  172.4710  135.2940 C   0  0  2  0  0  3  0  0  0  0  0  0
  190.7610  172.4270  134.9080 C   0  0  0  0  0  2  0  0  0  0  0  0
  189.8760  173.2750  135.8190 C   0  0  0  0  0  2  0  0  0  0  0  0
  187.5600  173.9040  136.4370 C   0  0  0  0  0  1  0  0  0  0  0  0
  188.1640  171.6330  136.0840 O   0  0  0  0  0  1  0  0  0  0  0  0
  188.4070  172.9330  135.6390 C   0  0  2  0  0  3  0  0  0  0  0  0
  189.6620  177.3550  138.1440 O   0  0  0  0  0  0  0  0  0  0  0  0
  189.0030  179.5470  138.4570 O   0  0  0  0  0  0  0  0  0  0  0  0
  188.6980  178.3700  138.1270 C   0  0  0  0  0  0  0  0  0  0  0  0
  184.9930  177.8410  138.3430 C   0  0  0  0  0  0  0  0  0  0  0  0
  184.6060  177.4740  137.1210 C   0  0  0  0  0  3  0  0  0  0  0  0
  185.5970  177.3250  136.0530 C   0  0  0  0  0  0  0  0  0  0  0  0
  187.3240  178.0500  137.7260 C   0  0  0  0  0  0  0  0  0  0  0  0
  185.2280  176.9530  134.9090 O   0  0  0  0  0  0  0  0  0  0  0  0
  187.0460  177.6210  136.3030 C   0  0  0  0  0  2  0  0  0  0  0  0
  186.3710  178.1380  138.6100 N   0  0  0  0  0  0  0  0  0  0  0  0
  184.4490  178.9880  140.4470 C   0  0  1  0  0  3  0  0  0  0  0  0
  183.9620  178.0720  139.4160 C   0  0  1  0  0  3  0  0  0  0  0  0
  183.4580  179.4670  139.4730 N   0  0  0  0  0  0  0  0  0  0  0  0
  184.1370  180.2830  138.6320 F   0  0  0  0  0  0  0  0  0  0  0  0
  183.7850  178.6900  141.7060 N   0  0  0  0  0  2  0  0  0  0  0  0
  186.1180  179.2480  142.3030 C   0  0  0  0  0  2  0  0  0  0  0  0
  185.9310  177.7720  142.6430 C   0  0  0  0  0  2  0  0  0  0  0  0
  184.7740  178.7410  142.7780 C   0  0  0  0  0  0  0  0  0  0  0  0
  184.2630  180.5900  144.2080 F   0  0  0  0  0  0  0  0  0  0  0  0
  185.3590  178.7540  145.2150 C   0  0  0  0  0  1  0  0  0  0  0  0
  183.1030  178.6870  144.5130 F   0  0  0  0  0  0  0  0  0  0  0  0
  184.3430  179.2070  144.1790 C   0  0  0  0  0  0  0  0  0  0  0  0
  1 11  1  1  0  0  0
  1  2  1  0  0  0  0
  2  3  2  0  0  0  0
  3  4  1  0  0  0  0
  4  5  1  0  0  0  0
  5  9  2  0  0  0  0
  5  6  1  0  0  0  0
  6 10  2  0  0  0  0
  8  7  2  0  0  0  0
  9  8  1  0  0  0  0
 10  7  1  0  0  0  0
 12 11  1  0  0  0  0
 13 12  1  0  0  0  0
 14 13  1  0  0  0  0
 14 15  2  0  0  0  0
 16 14  1  0  0  0  0
 17 16  1  0  0  0  0
 19 18  1  6  0  0  0
 19 17  1  0  0  0  0
 20 19  1  0  0  0  0
 20 21  1  0  0  0  0
 24 21  1  0  0  0  0
 24 23  1  0  0  0  0
 24 22  1  1  0  0  0
 25  1  1  0  0  0  0
 27 25  1  0  0  0  0
 27 26  2  0  0  0  0
 28 34  1  0  0  0  0
 29 28  2  0  0  0  0
 30 33  1  0  0  0  0
 30 29  1  0  0  0  0
 31 27  1  0  0  0  0
 31 34  2  0  0  0  0
 32 30  2  0  0  0  0
 33 31  1  0  0  0  0
 35 39  1  1  0  0  0
 36 28  1  6  0  0  0
 36 37  1  0  0  0  0
 36 35  1  0  0  0  0
 37 35  1  0  0  0  0
 38 37  1  0  0  0  0
 39 42  1  0  0  0  0
 40 41  1  0  0  0  0
 40 42  1  0  0  0  0
 41 42  1  0  0  0  0
 42 46  1  0  0  0  0
 46 43  1  0  0  0  0
 46 45  1  0  0  0  0
 46 44  1  0  0  0  0
M  END
>  <MODEL>
7

>  <REMARK>
 VINA RESULT:      -7.0      1.975      3.656
  Name = 
  19 active torsions:
  status: ('A' for Active; 'I' for Inactive)
    1  A    between atoms: C_2  and  C_22
    2  A    between atoms: C_2  and  O_38
    3  A    between atoms: C_3  and  N_40
    4  A    between atoms: C_7  and  C_21
    5  A    between atoms: C_8  and  C_35
    6  A    between atoms: C_8  and  C_39
    7  A    between atoms: C_12  and  N_17
    8  A    between atoms: C_12  and  C_36
    9  A    between atoms: C_14  and  C_35
   10  A    between atoms: C_14  and  O_38
   11  A    between atoms: C_16  and  N_42
   12  A    between atoms: C_18  and  C_29
   13  A    between atoms: C_18  and  N_42
   14  A    between atoms: O_19  and  C_43
   15  A    between atoms: O_19  and  C_44
   16  A    between atoms: C_24  and  C_44
   17  A    between atoms: C_27  and  C_43
   18  A    between atoms: C_31  and  N_40
   19  A    between atoms: C_36  and  C_44
                            x       y       z     vdW  Elec       q    Type
                         _______ _______ _______ _____ _____    ______ ____

>  <TORSDO>
F 19

$$$$
=
 OpenBabel10232408593D

 46 49  0  0  1  0  0  0  0  0999 V2000
  184.3690  178.1100  138.6080 C   0  0  2  0  0  3  0  0  0  0  0  0
  183.5750  176.8490  138.6120 C   0  0  0  0  0  3  0  0  0  0  0  0
  182.3320  176.8410  138.1560 C   0  0  0  0  0  3  0  0  0  0  0  0
  181.5710  175.6350  138.1730 N   0  0  0  0  0  2  0  0  0  0  0  0
  181.7280  174.6060  137.1930 C   0  0  0  0  0  0  0  0  0  0  0  0
  182.5920  174.8170  136.1110 C   0  0  0  0  0  3  0  0  0  0  0  0
  182.0530  172.6250  135.2330 C   0  0  0  0  0  3  0  0  0  0  0  0
  181.1880  172.4060  136.3110 C   0  0  0  0  0  3  0  0  0  0  0  0
  181.0280  173.3930  137.2890 C   0  0  0  0  0  3  0  0  0  0  0  0
  182.7550  173.8290  135.1340 C   0  0  0  0  0  3  0  0  0  0  0  0
  185.5200  177.9570  137.6320 C   0  0  0  0  0  2  0  0  0  0  0  0
  185.7030  176.4950  137.2630 C   0  0  0  0  0  2  0  0  0  0  0  0
  187.1080  176.2190  136.9990 N   0  0  0  0  0  2  0  0  0  0  0  0
  187.5500  175.0200  136.3600 C   0  0  0  0  0  0  0  0  0  0  0  0
  186.7220  174.1470  135.9860 O   0  0  0  0  0  0  0  0  0  0  0  0
  188.9990  174.8220  136.0890 C   0  0  0  0  0  2  0  0  0  0  0  0
  189.6760  176.0320  136.2450 O   0  0  0  0  0  0  0  0  0  0  0  0
  190.9970  174.1990  137.0400 C   0  0  0  0  0  1  0  0  0  0  0  0
  190.9540  175.6760  136.6850 C   0  0  2  0  0  3  0  0  0  0  0  0
  191.3890  176.5480  137.8660 C   0  0  0  0  0  2  0  0  0  0  0  0
  190.2570  177.4010  138.4320 C   0  0  0  0  0  2  0  0  0  0  0  0
  188.6060  177.6590  140.2610 C   0  0  0  0  0  1  0  0  0  0  0  0
  190.9080  177.2970  140.7250 O   0  0  0  0  0  1  0  0  0  0  0  0
  189.8840  176.9640  139.8380 C   0  0  2  0  0  3  0  0  0  0  0  0
  184.8880  178.3610  139.9110 O   0  0  0  0  0  0  0  0  0  0  0  0
  182.9570  179.2970  140.7660 O   0  0  0  0  0  0  0  0  0  0  0  0
  184.0950  178.7980  140.9770 C   0  0  0  0  0  0  0  0  0  0  0  0
  186.4760  178.2550  143.8220 C   0  0  0  0  0  0  0  0  0  0  0  0
  185.7550  178.4060  144.9330 C   0  0  0  0  0  3  0  0  0  0  0  0
  184.3200  178.6840  144.8440 C   0  0  0  0  0  0  0  0  0  0  0  0
  184.6020  178.6740  142.3480 C   0  0  0  0  0  0  0  0  0  0  0  0
  183.6410  178.7990  145.8970 O   0  0  0  0  0  0  0  0  0  0  0  0
  183.6520  178.8450  143.5110 C   0  0  0  0  0  2  0  0  0  0  0  0
  185.8650  178.4120  142.5330 N   0  0  0  0  0  0  0  0  0  0  0  0
  188.3310  177.2750  145.1010 C   0  0  1  0  0  3  0  0  0  0  0  0
  187.9650  178.0510  143.9180 C   0  0  1  0  0  3  0  0  0  0  0  0
  188.3860  176.6340  143.7800 N   0  0  0  0  0  0  0  0  0  0  0  0
  187.3230  175.7940  143.7360 F   0  0  0  0  0  0  0  0  0  0  0  0
  189.6760  177.6400  145.5180 N   0  0  0  0  0  2  0  0  0  0  0  0
  188.5930  176.7070  147.5350 C   0  0  0  0  0  2  0  0  0  0  0  0
  189.1990  178.0440  147.9550 C   0  0  0  0  0  2  0  0  0  0  0  0
  189.8730  177.1970  146.8950 C   0  0  0  0  0  0  0  0  0  0  0  0
  191.9030  177.1370  148.1590 F   0  0  0  0  0  0  0  0  0  0  0  0
  191.9740  176.1580  146.0100 C   0  0  0  0  0  1  0  0  0  0  0  0
  190.8230  175.1910  147.8330 F   0  0  0  0  0  0  0  0  0  0  0  0
  191.1440  176.4100  147.2570 C   0  0  0  0  0  0  0  0  0  0  0  0
  1 11  1  6  0  0  0
  1  2  1  0  0  0  0
  1 25  1  0  0  0  0
  3  4  1  0  0  0  0
  3  2  2  0  0  0  0
  5  9  1  0  0  0  0
  5  4  1  0  0  0  0
  6  5  2  0  0  0  0
  7  8  1  0  0  0  0
  8  9  2  0  0  0  0
 10  7  2  0  0  0  0
 10  6  1  0  0  0  0
 12 11  1  0  0  0  0
 13 12  1  0  0  0  0
 14 13  1  0  0  0  0
 15 14  2  0  0  0  0
 16 17  1  0  0  0  0
 16 14  1  0  0  0  0
 17 19  1  0  0  0  0
 19 18  1  1  0  0  0
 19 20  1  0  0  0  0
 20 21  1  0  0  0  0
 21 24  1  0  0  0  0
 24 22  1  1  0  0  0
 24 23  1  0  0  0  0
 25 27  1  0  0  0  0
 26 27  2  0  0  0  0
 27 31  1  0  0  0  0
 28 29  2  0  0  0  0
 30 29  1  0  0  0  0
 30 32  2  0  0  0  0
 31 34  2  0  0  0  0
 31 33  1  0  0  0  0
 33 30  1  0  0  0  0
 34 28  1  0  0  0  0
 35 39  1  6  0  0  0
 36 28  1  1  0  0  0
 36 35  1  0  0  0  0
 37 36  1  0  0  0  0
 37 35  1  0  0  0  0
 38 37  1  0  0  0  0
 39 42  1  0  0  0  0
 40 41  1  0  0  0  0
 42 46  1  0  0  0  0
 42 40  1  0  0  0  0
 42 41  1  0  0  0  0
 44 46  1  0  0  0  0
 46 45  1  0  0  0  0
 46 43  1  0  0  0  0
M  END
>  <MODEL>
8

>  <REMARK>
 VINA RESULT:      -6.9      3.680      8.284
  Name = 
  19 active torsions:
  status: ('A' for Active; 'I' for Inactive)
    1  A    between atoms: C_2  and  C_22
    2  A    between atoms: C_2  and  O_38
    3  A    between atoms: C_3  and  N_40
    4  A    between atoms: C_7  and  C_21
    5  A    between atoms: C_8  and  C_35
    6  A    between atoms: C_8  and  C_39
    7  A    between atoms: C_12  and  N_17
    8  A    between atoms: C_12  and  C_36
    9  A    between atoms: C_14  and  C_35
   10  A    between atoms: C_14  and  O_38
   11  A    between atoms: C_16  and  N_42
   12  A    between atoms: C_18  and  C_29
   13  A    between atoms: C_18  and  N_42
   14  A    between atoms: O_19  and  C_43
   15  A    between atoms: O_19  and  C_44
   16  A    between atoms: C_24  and  C_44
   17  A    between atoms: C_27  and  C_43
   18  A    between atoms: C_31  and  N_40
   19  A    between atoms: C_36  and  C_44
                            x       y       z     vdW  Elec       q    Type
                         _______ _______ _______ _____ _____    ______ ____

>  <TORSDO>
F 19

$$$$
=
 OpenBabel10232408593D

 46 49  0  0  1  0  0  0  0  0999 V2000
  191.6100  177.6630  140.4820 C   0  0  2  0  0  3  0  0  0  0  0  0
  192.8730  177.0590  139.9720 C   0  0  0  0  0  3  0  0  0  0  0  0
  192.9070  176.4900  138.7770 C   0  0  0  0  0  3  0  0  0  0  0  0
  194.1140  175.9020  138.2990 N   0  0  0  0  0  2  0  0  0  0  0  0
  194.1610  174.6000  137.7090 C   0  0  0  0  0  0  0  0  0  0  0  0
  195.1990  173.7270  138.0580 C   0  0  0  0  0  3  0  0  0  0  0  0
  194.3070  172.0440  136.5610 C   0  0  0  0  0  3  0  0  0  0  0  0
  193.2660  172.9100  136.2080 C   0  0  0  0  0  3  0  0  0  0  0  0
  193.1930  174.1830  136.7810 C   0  0  0  0  0  3  0  0  0  0  0  0
  195.2720  172.4520  137.4860 C   0  0  0  0  0  3  0  0  0  0  0  0
  191.6200  177.6060  141.9980 C   0  0  0  0  0  2  0  0  0  0  0  0
  190.7580  176.4530  142.4830 C   0  0  0  0  0  2  0  0  0  0  0  0
  190.7340  176.4270  143.9390 N   0  0  0  0  0  2  0  0  0  0  0  0
  190.1210  177.4550  144.7180 C   0  0  0  0  0  0  0  0  0  0  0  0
  189.5600  178.4370  144.1610 O   0  0  0  0  0  0  0  0  0  0  0  0
  190.1030  177.3440  146.2000 C   0  0  0  0  0  2  0  0  0  0  0  0
  188.8460  176.9070  146.6230 O   0  0  0  0  0  0  0  0  0  0  0  0
  188.5170  178.1980  148.6140 C   0  0  0  0  0  1  0  0  0  0  0  0
  188.2190  178.0490  147.1310 C   0  0  2  0  0  3  0  0  0  0  0  0
  186.7120  178.0090  146.8650 C   0  0  0  0  0  2  0  0  0  0  0  0
  186.3660  177.6700  145.4170 C   0  0  0  0  0  2  0  0  0  0  0  0
  184.1480  178.7740  145.4490 C   0  0  0  0  0  1  0  0  0  0  0  0
  185.3560  178.5010  143.4210 O   0  0  0  0  0  1  0  0  0  0  0  0
  185.5090  178.7540  144.7840 C   0  0  2  0  0  3  0  0  0  0  0  0
  190.4890  176.9320  139.9920 O   0  0  0  0  0  0  0  0  0  0  0  0
  189.2880  178.6980  139.1100 O   0  0  0  0  0  0  0  0  0  0  0  0
  189.5650  177.4680  139.0880 C   0  0  0  0  0  0  0  0  0  0  0  0
  186.8890  175.9110  136.9740 C   0  0  0  0  0  0  0  0  0  0  0  0
  187.4960  174.9620  136.2600 C   0  0  0  0  0  3  0  0  0  0  0  0
  188.9260  174.7090  136.4440 C   0  0  0  0  0  0  0  0  0  0  0  0
  188.9150  176.5840  138.1150 C   0  0  0  0  0  0  0  0  0  0  0  0
  189.4860  173.7940  135.7860 O   0  0  0  0  0  0  0  0  0  0  0  0
  189.7340  175.5330  137.4010 C   0  0  0  0  0  2  0  0  0  0  0  0
  187.6390  176.7210  137.8910 N   0  0  0  0  0  0  0  0  0  0  0  0
  185.0900  177.5750  137.1610 C   0  0  1  0  0  3  0  0  0  0  0  0
  185.4380  176.2240  136.7230 C   0  0  1  0  0  3  0  0  0  0  0  0
  185.2200  177.2990  135.7230 N   0  0  0  0  0  0  0  0  0  0  0  0
  186.3840  177.8780  135.3430 F   0  0  0  0  0  0  0  0  0  0  0  0
  183.6810  177.6160  137.5210 N   0  0  0  0  0  2  0  0  0  0  0  0
  183.2170  179.6540  138.8400 C   0  0  0  0  0  2  0  0  0  0  0  0
  184.6180  179.1970  139.2380 C   0  0  0  0  0  2  0  0  0  0  0  0
  183.5590  178.1810  138.8610 C   0  0  0  0  0  0  0  0  0  0  0  0
  183.7110  177.2870  141.0750 F   0  0  0  0  0  0  0  0  0  0  0  0
  182.6110  175.9430  139.4720 C   0  0  0  0  0  1  0  0  0  0  0  0
  181.6810  177.9310  140.3500 F   0  0  0  0  0  0  0  0  0  0  0  0
  182.8820  177.3540  139.9670 C   0  0  0  0  0  0  0  0  0  0  0  0
  1  2  1  6  0  0  0
  1 11  1  0  0  0  0
  3  2  2  0  0  0  0
  4  3  1  0  0  0  0
  5  6  1  0  0  0  0
  5  4  1  0  0  0  0
  7 10  1  0  0  0  0
  8  7  2  0  0  0  0
  8  9  1  0  0  0  0
  9  5  2  0  0  0  0
 10  6  2  0  0  0  0
 11 12  1  0  0  0  0
 12 13  1  0  0  0  0
 13 14  1  0  0  0  0
 14 16  1  0  0  0  0
 15 14  2  0  0  0  0
 16 17  1  0  0  0  0
 17 19  1  0  0  0  0
 19 18  1  1  0  0  0
 20 19  1  0  0  0  0
 21 20  1  0  0  0  0
 23 24  1  0  0  0  0
 24 21  1  0  0  0  0
 24 22  1  1  0  0  0
 25  1  1  0  0  0  0
 27 26  2  0  0  0  0
 27 25  1  0  0  0  0
 28 34  1  0  0  0  0
 29 30  1  0  0  0  0
 29 28  2  0  0  0  0
 30 33  1  0  0  0  0
 31 27  1  0  0  0  0
 32 30  2  0  0  0  0
 33 31  1  0  0  0  0
 34 31  2  0  0  0  0
 35 39  1  6  0  0  0
 36 28  1  1  0  0  0
 36 35  1  0  0  0  0
 37 36  1  0  0  0  0
 37 35  1  0  0  0  0
 38 37  1  0  0  0  0
 39 42  1  0  0  0  0
 40 42  1  0  0  0  0
 40 41  1  0  0  0  0
 42 41  1  0  0  0  0
 42 46  1  0  0  0  0
 44 46  1  0  0  0  0
 46 45  1  0  0  0  0
 46 43  1  0  0  0  0
M  END
>  <MODEL>
9

>  <REMARK>
 VINA RESULT:      -6.9      2.749      8.382
  Name = 
  19 active torsions:
  status: ('A' for Active; 'I' for Inactive)
    1  A    between atoms: C_2  and  C_22
    2  A    between atoms: C_2  and  O_38
    3  A    between atoms: C_3  and  N_40
    4  A    between atoms: C_7  and  C_21
    5  A    between atoms: C_8  and  C_35
    6  A    between atoms: C_8  and  C_39
    7  A    between atoms: C_12  and  N_17
    8  A    between atoms: C_12  and  C_36
    9  A    between atoms: C_14  and  C_35
   10  A    between atoms: C_14  and  O_38
   11  A    between atoms: C_16  and  N_42
   12  A    between atoms: C_18  and  C_29
   13  A    between atoms: C_18  and  N_42
   14  A    between atoms: O_19  and  C_43
   15  A    between atoms: O_19  and  C_44
   16  A    between atoms: C_24  and  C_44
   17  A    between atoms: C_27  and  C_43
   18  A    between atoms: C_31  and  N_40
   19  A    between atoms: C_36  and  C_44
                            x       y       z     vdW  Elec       q    Type
                         _______ _______ _______ _____ _____    ______ ____

>  <TORSDO>
F 19

$$$$
