=
 OpenBabel10222421463D

 31 34  0  0  1  0  0  0  0  0999 V2000
  183.7950  179.1030  145.1960 N   0  0  0  0  0  0  0  0  0  0  0  0
  186.3850  177.9560  143.9500 C   0  0  0  0  0  0  0  0  0  0  0  0
  187.6200  177.3400  143.7270 C   0  0  0  0  0  3  0  0  0  0  0  0
  187.7130  178.2130  141.4730 C   0  0  0  0  0  0  0  0  0  0  0  0
  184.8810  178.7790  145.8210 C   0  0  0  0  0  3  0  0  0  0  0  0
  186.4470  178.7820  141.6670 C   0  0  0  0  0  3  0  0  0  0  0  0
  185.7480  178.6190  142.8640 C   0  0  0  0  0  0  0  0  0  0  0  0
  183.4480  178.6330  143.8670 C   0  0  0  0  0  2  0  0  0  0  0  0
  188.2830  177.4250  142.4950 C   0  0  0  0  0  0  0  0  0  0  0  0
  185.9980  178.0140  145.2340 C   0  0  0  0  0  2  0  0  0  0  0  0
  184.4700  179.0070  142.8470 C   0  0  0  0  0  2  0  0  0  0  0  0
  188.4230  178.4400  140.2510 N   0  0  0  0  0  0  0  0  0  0  0  0
  187.8320  178.4770  139.1240 N   0  0  0  0  0  0  0  0  0  0  0  0
  189.6710  177.6720  137.7760 C   0  0  0  0  0  3  0  0  0  0  0  0
  188.7310  176.8560  135.6880 C   0  0  0  0  0  0  0  0  0  0  0  0
  187.6440  178.7710  136.7170 C   0  0  0  0  0  3  0  0  0  0  0  0
  188.5830  178.7150  137.9020 C   0  0  1  0  0  3  0  0  0  0  0  0
  188.7700  176.0200  134.7480 O   0  0  0  0  0  0  0  0  0  0  0  0
  189.7300  176.8070  136.7620 C   0  0  0  0  0  3  0  0  0  0  0  0
  187.7060  177.9040  135.7020 C   0  0  0  0  0  3  0  0  0  0  0  0
  189.5540  176.7620  142.3270 N   0  0  0  0  0  0  0  0  0  0  0  0
  190.1830  176.6610  141.0190 C   0  0  0  0  0  1  0  0  0  0  0  0
  190.1330  175.9720  143.4040 C   0  0  0  0  0  2  0  0  0  0  0  0
  191.5490  176.4410  143.6900 C   0  0  0  0  0  2  0  0  0  0  0  0
  191.5160  177.6030  144.6160 C   0  0  0  0  0  0  0  0  0  0  0  0
  191.3110  178.7570  144.1560 O   0  0  0  0  0  0  0  0  0  0  0  0
  191.6850  177.3950  145.9870 O   0  0  0  0  0  0  0  0  0  0  0  0
  190.7040  176.7520  146.7890 C   0  0  0  0  0  2  0  0  0  0  0  0
  189.2330  178.0990  148.2390 C   0  0  0  0  0  2  0  0  0  0  0  0
  189.4340  177.5830  146.8300 C   0  0  0  0  0  3  0  0  0  0  0  0
  188.4360  176.9120  147.7500 C   0  0  0  0  0  2  0  0  0  0  0  0
  1  5  2  0  0  0  0
  2 10  1  0  0  0  0
  3  2  1  0  0  0  0
  4  6  2  0  0  0  0
  4  9  1  0  0  0  0
  6  7  1  0  0  0  0
  7  2  2  0  0  0  0
  8  1  1  0  0  0  0
  9  3  2  0  0  0  0
 10  5  1  0  0  0  0
 11  7  1  0  0  0  0
 11  8  1  0  0  0  0
 12  4  1  0  0  0  0
 13 12  2  0  0  0  0
 14 17  1  0  0  0  0
 15 20  1  0  0  0  0
 15 19  1  0  0  0  0
 16 17  1  0  0  0  0
 17 13  1  1  0  0  0
 18 15  2  0  0  0  0
 19 14  2  0  0  0  0
 20 16  2  0  0  0  0
 21  9  1  0  0  0  0
 21 23  1  0  0  0  0
 22 21  1  0  0  0  0
 23 24  1  0  0  0  0
 24 25  1  0  0  0  0
 25 27  1  0  0  0  0
 26 25  2  0  0  0  0
 27 28  1  0  0  0  0
 28 30  1  0  0  0  0
 30 31  1  0  0  0  0
 30 29  1  0  0  0  0
 31 29  1  0  0  0  0
M  END
>  <MODEL>
1

>  <REMARK>
 VINA RESULT:      -9.1      0.000      0.000
  Name = 
  9 active torsions:
  status: ('A' for Active; 'I' for Inactive)
    1  A    between atoms: C_1  and  C_7
    2  A    between atoms: C_1  and  N_9
    3  A    between atoms: C_7  and  C_11
    4  A    between atoms: N_8  and  C_12
    5  A    between atoms: N_9  and  C_23
    6  A    between atoms: C_11  and  O_30
    7  A    between atoms: C_15  and  N_17
    8  A    between atoms: C_16  and  C_24
    9  A    between atoms: C_24  and  O_30
                            x       y       z     vdW  Elec       q    Type
                         _______ _______ _______ _____ _____    ______ ____

>  <TORSDO>
F 9

$$$$
=
 OpenBabel10222421463D

 31 34  0  0  1  0  0  0  0  0999 V2000
  190.6350  176.3920  147.1690 N   0  0  0  0  0  0  0  0  0  0  0  0
  189.1890  177.3400  144.6030 C   0  0  0  0  0  0  0  0  0  0  0  0
  188.2690  177.8380  143.6760 C   0  0  0  0  0  3  0  0  0  0  0  0
  189.6420  177.0930  141.8290 C   0  0  0  0  0  0  0  0  0  0  0  0
  189.3620  176.5670  147.0140 C   0  0  0  0  0  3  0  0  0  0  0  0
  190.5980  176.6460  142.7510 C   0  0  0  0  0  3  0  0  0  0  0  0
  190.4200  176.8090  144.1250 C   0  0  0  0  0  0  0  0  0  0  0  0
  191.6490  176.9720  146.3070 C   0  0  0  0  0  2  0  0  0  0  0  0
  188.4880  177.7590  142.2930 C   0  0  0  0  0  0  0  0  0  0  0  0
  188.7360  177.2460  145.8630 C   0  0  0  0  0  2  0  0  0  0  0  0
  191.4900  176.5560  144.8830 C   0  0  0  0  0  2  0  0  0  0  0  0
  189.8340  176.8670  140.4280 N   0  0  0  0  0  0  0  0  0  0  0  0
  190.9040  177.2100  139.8300 N   0  0  0  0  0  0  0  0  0  0  0  0
  192.4250  176.3400  138.1630 C   0  0  0  0  0  3  0  0  0  0  0  0
  191.4110  174.3340  137.2380 C   0  0  0  0  0  0  0  0  0  0  0  0
  189.9120  176.1340  137.8870 C   0  0  0  0  0  3  0  0  0  0  0  0
  191.0680  176.9600  138.4070 C   0  0  1  0  0  3  0  0  0  0  0  0
  191.5570  173.1750  136.7700 O   0  0  0  0  0  0  0  0  0  0  0  0
  192.5810  175.1230  137.6370 C   0  0  0  0  0  3  0  0  0  0  0  0
  190.0710  174.9170  137.3600 C   0  0  0  0  0  3  0  0  0  0  0  0
  187.5020  178.2970  141.3870 N   0  0  0  0  0  0  0  0  0  0  0  0
  187.7210  178.2940  139.9490 C   0  0  0  0  0  1  0  0  0  0  0  0
  186.3720  179.0690  141.8840 C   0  0  0  0  0  2  0  0  0  0  0  0
  185.0700  178.3830  141.5140 C   0  0  0  0  0  2  0  0  0  0  0  0
  183.9740  178.8780  142.3890 C   0  0  0  0  0  0  0  0  0  0  0  0
  182.7820  178.5810  142.1160 O   0  0  0  0  0  0  0  0  0  0  0  0
  184.2860  179.6420  143.5150 O   0  0  0  0  0  0  0  0  0  0  0  0
  183.9900  179.2120  144.8360 C   0  0  0  0  0  2  0  0  0  0  0  0
  184.8930  178.1540  146.8730 C   0  0  0  0  0  2  0  0  0  0  0  0
  185.1650  178.4410  145.4120 C   0  0  0  0  0  3  0  0  0  0  0  0
  185.8250  179.2790  146.4860 C   0  0  0  0  0  2  0  0  0  0  0  0
  2 10  1  0  0  0  0
  3  2  2  0  0  0  0
  4  9  2  0  0  0  0
  4  6  1  0  0  0  0
  5  1  2  0  0  0  0
  6  7  2  0  0  0  0
  7  2  1  0  0  0  0
  7 11  1  0  0  0  0
  8  1  1  0  0  0  0
  9  3  1  0  0  0  0
 10  5  1  0  0  0  0
 11  8  1  0  0  0  0
 12  4  1  0  0  0  0
 13 12  2  0  0  0  0
 14 17  1  0  0  0  0
 15 20  1  0  0  0  0
 15 19  1  0  0  0  0
 16 17  1  0  0  0  0
 17 13  1  1  0  0  0
 18 15  2  0  0  0  0
 19 14  2  0  0  0  0
 20 16  2  0  0  0  0
 21 23  1  0  0  0  0
 21  9  1  0  0  0  0
 22 21  1  0  0  0  0
 24 23  1  0  0  0  0
 24 25  1  0  0  0  0
 25 27  1  0  0  0  0
 26 25  2  0  0  0  0
 27 28  1  0  0  0  0
 28 30  1  0  0  0  0
 30 31  1  0  0  0  0
 30 29  1  0  0  0  0
 31 29  1  0  0  0  0
M  END
>  <MODEL>
2

>  <REMARK>
 VINA RESULT:      -7.9      2.826      5.133
  Name = 
  9 active torsions:
  status: ('A' for Active; 'I' for Inactive)
    1  A    between atoms: C_1  and  C_7
    2  A    between atoms: C_1  and  N_9
    3  A    between atoms: C_7  and  C_11
    4  A    between atoms: N_8  and  C_12
    5  A    between atoms: N_9  and  C_23
    6  A    between atoms: C_11  and  O_30
    7  A    between atoms: C_15  and  N_17
    8  A    between atoms: C_16  and  C_24
    9  A    between atoms: C_24  and  O_30
                            x       y       z     vdW  Elec       q    Type
                         _______ _______ _______ _____ _____    ______ ____

>  <TORSDO>
F 9

$$$$
=
 OpenBabel10222421463D

 31 34  0  0  1  0  0  0  0  0999 V2000
  189.2980  177.2840  145.3620 N   0  0  0  0  0  0  0  0  0  0  0  0
  188.9600  177.6220  142.3050 C   0  0  0  0  0  0  0  0  0  0  0  0
  188.4680  177.8550  141.0170 C   0  0  0  0  0  3  0  0  0  0  0  0
  190.4810  176.9510  140.0250 C   0  0  0  0  0  0  0  0  0  0  0  0
  188.1850  177.2970  144.7000 C   0  0  0  0  0  3  0  0  0  0  0  0
  191.0060  176.7710  141.3120 C   0  0  0  0  0  3  0  0  0  0  0  0
  190.2930  177.1480  142.4510 C   0  0  0  0  0  0  0  0  0  0  0  0
  190.5530  177.8090  144.8580 C   0  0  0  0  0  2  0  0  0  0  0  0
  189.2190  177.5630  139.8700 C   0  0  0  0  0  0  0  0  0  0  0  0
  188.0480  177.7000  143.2870 C   0  0  0  0  0  2  0  0  0  0  0  0
  190.9820  177.1410  143.5950 C   0  0  0  0  0  2  0  0  0  0  0  0
  191.2180  176.5080  138.8800 N   0  0  0  0  0  0  0  0  0  0  0  0
  191.0050  175.3770  138.3370 N   0  0  0  0  0  0  0  0  0  0  0  0
  192.4470  176.1680  136.5640 C   0  0  0  0  0  3  0  0  0  0  0  0
  194.6440  175.1950  136.9340 C   0  0  0  0  0  0  0  0  0  0  0  0
  192.7180  173.8440  137.5440 C   0  0  0  0  0  3  0  0  0  0  0  0
  191.7680  174.9610  137.1710 C   0  0  1  0  0  3  0  0  0  0  0  0
  195.8950  175.3140  136.8710 O   0  0  0  0  0  0  0  0  0  0  0  0
  193.7740  176.2800  136.4680 C   0  0  0  0  0  3  0  0  0  0  0  0
  194.0460  173.9580  137.4450 C   0  0  0  0  0  3  0  0  0  0  0  0
  188.6580  177.8320  138.5680 N   0  0  0  0  0  0  0  0  0  0  0  0
  189.0660  178.9970  137.7980 C   0  0  0  0  0  1  0  0  0  0  0  0
  187.5030  177.0890  138.0830 C   0  0  0  0  0  2  0  0  0  0  0  0
  186.5020  178.0380  137.4480 C   0  0  0  0  0  2  0  0  0  0  0  0
  185.3580  178.2550  138.3720 C   0  0  0  0  0  0  0  0  0  0  0  0
  184.2350  177.7580  138.0950 O   0  0  0  0  0  0  0  0  0  0  0  0
  185.5520  178.9830  139.5480 O   0  0  0  0  0  0  0  0  0  0  0  0
  184.5160  179.1940  140.4960 C   0  0  0  0  0  2  0  0  0  0  0  0
  183.6320  178.5810  142.7150 C   0  0  0  0  0  2  0  0  0  0  0  0
  184.7890  178.3940  141.7570 C   0  0  0  0  0  3  0  0  0  0  0  0
  184.9170  179.3470  142.9270 C   0  0  0  0  0  2  0  0  0  0  0  0
  2  7  1  0  0  0  0
  2 10  1  0  0  0  0
  3  2  2  0  0  0  0
  4  6  1  0  0  0  0
  5  1  2  0  0  0  0
  6  7  2  0  0  0  0
  7 11  1  0  0  0  0
  8  1  1  0  0  0  0
  9  4  2  0  0  0  0
  9  3  1  0  0  0  0
 10  5  1  0  0  0  0
 11  8  1  0  0  0  0
 12  4  1  0  0  0  0
 13 12  2  0  0  0  0
 14 17  1  0  0  0  0
 15 20  1  0  0  0  0
 17 16  1  0  0  0  0
 17 13  1  1  0  0  0
 18 15  2  0  0  0  0
 19 14  2  0  0  0  0
 19 15  1  0  0  0  0
 20 16  2  0  0  0  0
 21  9  1  0  0  0  0
 22 21  1  0  0  0  0
 23 21  1  0  0  0  0
 24 23  1  0  0  0  0
 24 25  1  0  0  0  0
 25 27  1  0  0  0  0
 26 25  2  0  0  0  0
 27 28  1  0  0  0  0
 28 30  1  0  0  0  0
 29 31  1  0  0  0  0
 30 29  1  0  0  0  0
 30 31  1  0  0  0  0
M  END
>  <MODEL>
3

>  <REMARK>
 VINA RESULT:      -7.8      3.196      6.090
  Name = 
  9 active torsions:
  status: ('A' for Active; 'I' for Inactive)
    1  A    between atoms: C_1  and  C_7
    2  A    between atoms: C_1  and  N_9
    3  A    between atoms: C_7  and  C_11
    4  A    between atoms: N_8  and  C_12
    5  A    between atoms: N_9  and  C_23
    6  A    between atoms: C_11  and  O_30
    7  A    between atoms: C_15  and  N_17
    8  A    between atoms: C_16  and  C_24
    9  A    between atoms: C_24  and  O_30
                            x       y       z     vdW  Elec       q    Type
                         _______ _______ _______ _____ _____    ______ ____

>  <TORSDO>
F 9

$$$$
=
 OpenBabel10222421463D

 31 34  0  0  1  0  0  0  0  0999 V2000
  181.0280  179.2480  142.1470 N   0  0  0  0  0  0  0  0  0  0  0  0
  184.0040  178.5660  142.6490 C   0  0  0  0  0  0  0  0  0  0  0  0
  185.2490  178.2910  143.2210 C   0  0  0  0  0  3  0  0  0  0  0  0
  186.3330  178.4290  141.0620 C   0  0  0  0  0  0  0  0  0  0  0  0
  181.6990  179.4530  143.2350 C   0  0  0  0  0  3  0  0  0  0  0  0
  185.0800  178.6430  140.4730 C   0  0  0  0  0  3  0  0  0  0  0  0
  183.9090  178.6590  141.2320 C   0  0  0  0  0  0  0  0  0  0  0  0
  181.4260  178.3200  141.1050 C   0  0  0  0  0  2  0  0  0  0  0  0
  186.4150  178.1840  142.4500 C   0  0  0  0  0  0  0  0  0  0  0  0
  183.0370  178.8980  143.5190 C   0  0  0  0  0  2  0  0  0  0  0  0
  182.7680  178.6420  140.5390 C   0  0  0  0  0  2  0  0  0  0  0  0
  187.5200  178.4670  140.2620 N   0  0  0  0  0  0  0  0  0  0  0  0
  187.4790  178.3940  138.9920 N   0  0  0  0  0  0  0  0  0  0  0  0
  189.8540  177.9480  139.0540 C   0  0  0  0  0  3  0  0  0  0  0  0
  190.2860  176.1210  137.5100 C   0  0  0  0  0  0  0  0  0  0  0  0
  188.5210  177.6810  136.9130 C   0  0  0  0  0  3  0  0  0  0  0  0
  188.7030  178.4410  138.2080 C   0  0  1  0  0  3  0  0  0  0  0  0
  190.9450  175.0870  137.2290 O   0  0  0  0  0  0  0  0  0  0  0  0
  190.5740  176.8690  138.7390 C   0  0  0  0  0  3  0  0  0  0  0  0
  189.2440  176.6020  136.5990 C   0  0  0  0  0  3  0  0  0  0  0  0
  187.6700  177.8930  143.0990 N   0  0  0  0  0  0  0  0  0  0  0  0
  188.9280  178.3930  142.5660 C   0  0  0  0  0  1  0  0  0  0  0  0
  187.7500  176.9020  144.1630 C   0  0  0  0  0  2  0  0  0  0  0  0
  188.8500  177.2740  145.1400 C   0  0  0  0  0  2  0  0  0  0  0  0
  188.2700  177.5010  146.4900 C   0  0  0  0  0  0  0  0  0  0  0  0
  187.0830  177.9080  146.5940 O   0  0  0  0  0  0  0  0  0  0  0  0
  189.0390  177.2330  147.6230 O   0  0  0  0  0  0  0  0  0  0  0  0
  190.4600  177.2360  147.6010 C   0  0  0  0  0  2  0  0  0  0  0  0
  192.4560  175.8040  147.8130 C   0  0  0  0  0  2  0  0  0  0  0  0
  190.9850  175.8180  147.4590 C   0  0  0  0  0  3  0  0  0  0  0  0
  192.0290  175.7870  146.3630 C   0  0  0  0  0  2  0  0  0  0  0  0
  1  5  2  0  0  0  0
  2  3  1  0  0  0  0
  2 10  1  0  0  0  0
  4  9  1  0  0  0  0
  5 10  1  0  0  0  0
  6  4  2  0  0  0  0
  6  7  1  0  0  0  0
  7  2  2  0  0  0  0
  8  1  1  0  0  0  0
  9 21  1  0  0  0  0
  9  3  2  0  0  0  0
 11  8  1  0  0  0  0
 11  7  1  0  0  0  0
 12  4  1  0  0  0  0
 13 12  2  0  0  0  0
 15 19  1  0  0  0  0
 16 17  1  0  0  0  0
 17 13  1  1  0  0  0
 17 14  1  0  0  0  0
 18 15  2  0  0  0  0
 19 14  2  0  0  0  0
 20 16  2  0  0  0  0
 20 15  1  0  0  0  0
 21 23  1  0  0  0  0
 22 21  1  0  0  0  0
 23 24  1  0  0  0  0
 24 25  1  0  0  0  0
 25 26  2  0  0  0  0
 25 27  1  0  0  0  0
 28 27  1  0  0  0  0
 30 28  1  0  0  0  0
 30 29  1  0  0  0  0
 31 30  1  0  0  0  0
 31 29  1  0  0  0  0
M  END
>  <MODEL>
4

>  <REMARK>
 VINA RESULT:      -7.5      2.005      2.817
  Name = 
  9 active torsions:
  status: ('A' for Active; 'I' for Inactive)
    1  A    between atoms: C_1  and  C_7
    2  A    between atoms: C_1  and  N_9
    3  A    between atoms: C_7  and  C_11
    4  A    between atoms: N_8  and  C_12
    5  A    between atoms: N_9  and  C_23
    6  A    between atoms: C_11  and  O_30
    7  A    between atoms: C_15  and  N_17
    8  A    between atoms: C_16  and  C_24
    9  A    between atoms: C_24  and  O_30
                            x       y       z     vdW  Elec       q    Type
                         _______ _______ _______ _____ _____    ______ ____

>  <TORSDO>
F 9

$$$$
=
 OpenBabel10222421463D

 31 34  0  0  1  0  0  0  0  0999 V2000
  188.5310  177.8150  148.3700 N   0  0  0  0  0  0  0  0  0  0  0  0
  188.7040  177.5890  145.2890 C   0  0  0  0  0  0  0  0  0  0  0  0
  189.1350  177.4600  143.9660 C   0  0  0  0  0  3  0  0  0  0  0  0
  186.9400  178.0450  143.1350 C   0  0  0  0  0  0  0  0  0  0  0  0
  189.5820  177.9930  147.6360 C   0  0  0  0  0  3  0  0  0  0  0  0
  186.4850  178.1170  144.4580 C   0  0  0  0  0  3  0  0  0  0  0  0
  187.3260  177.8390  145.5360 C   0  0  0  0  0  0  0  0  0  0  0  0
  187.3430  177.1030  147.9350 C   0  0  0  0  0  2  0  0  0  0  0  0
  188.2700  177.6480  142.8790 C   0  0  0  0  0  0  0  0  0  0  0  0
  189.6830  177.6420  146.2060 C   0  0  0  0  0  2  0  0  0  0  0  0
  186.7260  177.7160  146.7230 C   0  0  0  0  0  2  0  0  0  0  0  0
  186.0640  178.3830  142.0530 N   0  0  0  0  0  0  0  0  0  0  0  0
  184.7980  178.3520  142.1770 N   0  0  0  0  0  0  0  0  0  0  0  0
  184.7930  179.0950  139.8760 C   0  0  0  0  0  3  0  0  0  0  0  0
  183.8700  177.2890  138.5360 C   0  0  0  0  0  0  0  0  0  0  0  0
  182.9670  177.5810  140.7730 C   0  0  0  0  0  3  0  0  0  0  0  0
  183.9370  178.7060  141.0600 C   0  0  1  0  0  3  0  0  0  0  0  0
  183.8720  176.6460  137.4550 O   0  0  0  0  0  0  0  0  0  0  0  0
  184.7720  178.4320  138.7180 C   0  0  0  0  0  3  0  0  0  0  0  0
  182.9460  176.9200  139.6120 C   0  0  0  0  0  3  0  0  0  0  0  0
  188.7740  177.4950  141.5360 N   0  0  0  0  0  0  0  0  0  0  0  0
  189.8180  176.5280  141.2290 C   0  0  0  0  0  1  0  0  0  0  0  0
  188.4330  178.4540  140.4950 C   0  0  0  0  0  2  0  0  0  0  0  0
  188.2530  177.7400  139.1670 C   0  0  0  0  0  2  0  0  0  0  0  0
  189.1560  178.3370  138.1490 C   0  0  0  0  0  0  0  0  0  0  0  0
  188.8280  179.4130  137.5830 O   0  0  0  0  0  0  0  0  0  0  0  0
  190.3680  177.7100  137.8530 O   0  0  0  0  0  0  0  0  0  0  0  0
  190.4380  176.3910  137.3280 C   0  0  0  0  0  2  0  0  0  0  0  0
  192.6630  176.5200  138.3820 C   0  0  0  0  0  2  0  0  0  0  0  0
  191.5110  175.5960  138.0500 C   0  0  0  0  0  3  0  0  0  0  0  0
  192.7660  175.5790  137.2030 C   0  0  0  0  0  2  0  0  0  0  0  0
  2  7  1  0  0  0  0
  2 10  1  0  0  0  0
  3  2  2  0  0  0  0
  4  6  1  0  0  0  0
  5  1  2  0  0  0  0
  6  7  2  0  0  0  0
  7 11  1  0  0  0  0
  8  1  1  0  0  0  0
  9  4  2  0  0  0  0
  9  3  1  0  0  0  0
 10  5  1  0  0  0  0
 11  8  1  0  0  0  0
 12 13  2  0  0  0  0
 12  4  1  0  0  0  0
 14 17  1  0  0  0  0
 15 19  1  0  0  0  0
 15 20  1  0  0  0  0
 16 17  1  0  0  0  0
 17 13  1  1  0  0  0
 18 15  2  0  0  0  0
 19 14  2  0  0  0  0
 20 16  2  0  0  0  0
 21  9  1  0  0  0  0
 22 21  1  0  0  0  0
 23 21  1  0  0  0  0
 24 23  1  0  0  0  0
 25 24  1  0  0  0  0
 26 25  2  0  0  0  0
 27 25  1  0  0  0  0
 28 27  1  0  0  0  0
 28 30  1  0  0  0  0
 30 29  1  0  0  0  0
 31 30  1  0  0  0  0
 31 29  1  0  0  0  0
M  END
>  <MODEL>
5

>  <REMARK>
 VINA RESULT:      -7.5      2.752      5.851
  Name = 
  9 active torsions:
  status: ('A' for Active; 'I' for Inactive)
    1  A    between atoms: C_1  and  C_7
    2  A    between atoms: C_1  and  N_9
    3  A    between atoms: C_7  and  C_11
    4  A    between atoms: N_8  and  C_12
    5  A    between atoms: N_9  and  C_23
    6  A    between atoms: C_11  and  O_30
    7  A    between atoms: C_15  and  N_17
    8  A    between atoms: C_16  and  C_24
    9  A    between atoms: C_24  and  O_30
                            x       y       z     vdW  Elec       q    Type
                         _______ _______ _______ _____ _____    ______ ____

>  <TORSDO>
F 9

$$$$
=
 OpenBabel10222421463D

 31 34  0  0  1  0  0  0  0  0999 V2000
  180.2480  179.2050  138.9490 N   0  0  0  0  0  0  0  0  0  0  0  0
  182.6360  178.6790  140.8470 C   0  0  0  0  0  0  0  0  0  0  0  0
  183.4580  178.4650  141.9560 C   0  0  0  0  0  3  0  0  0  0  0  0
  185.4460  178.6900  140.5960 C   0  0  0  0  0  0  0  0  0  0  0  0
  180.2930  179.4310  140.2230 C   0  0  0  0  0  3  0  0  0  0  0  0
  184.6280  178.8440  139.4690 C   0  0  0  0  0  3  0  0  0  0  0  0
  183.2380  178.7860  139.5620 C   0  0  0  0  0  0  0  0  0  0  0  0
  181.1530  178.3130  138.2470 C   0  0  0  0  0  2  0  0  0  0  0  0
  184.8550  178.4310  141.8520 C   0  0  0  0  0  0  0  0  0  0  0  0
  181.3510  178.9460  141.1310 C   0  0  0  0  0  2  0  0  0  0  0  0
  182.5810  178.7160  138.4010 C   0  0  0  0  0  2  0  0  0  0  0  0
  186.8680  178.8040  140.4740 N   0  0  0  0  0  0  0  0  0  0  0  0
  187.5000  178.3180  139.4820 N   0  0  0  0  0  0  0  0  0  0  0  0
  189.5980  177.5910  140.4390 C   0  0  0  0  0  3  0  0  0  0  0  0
  190.7530  176.2900  138.7420 C   0  0  0  0  0  0  0  0  0  0  0  0
  189.4030  178.1590  137.9750 C   0  0  0  0  0  3  0  0  0  0  0  0
  188.9450  178.4560  139.3860 C   0  0  1  0  0  3  0  0  0  0  0  0
  191.5050  175.3210  138.4590 O   0  0  0  0  0  0  0  0  0  0  0  0
  190.4210  176.5830  140.1400 C   0  0  0  0  0  3  0  0  0  0  0  0
  190.2280  177.1510  137.6780 C   0  0  0  0  0  3  0  0  0  0  0  0
  185.6500  178.2000  143.0340 N   0  0  0  0  0  0  0  0  0  0  0  0
  185.1080  178.4360  144.3630 C   0  0  0  0  0  1  0  0  0  0  0  0
  187.0820  177.9540  142.9370 C   0  0  0  0  0  2  0  0  0  0  0  0
  187.5550  177.1520  144.1350 C   0  0  0  0  0  2  0  0  0  0  0  0
  188.9520  177.5300  144.4750 C   0  0  0  0  0  0  0  0  0  0  0  0
  189.5480  178.3910  143.7760 O   0  0  0  0  0  0  0  0  0  0  0  0
  189.5730  176.9460  145.5800 O   0  0  0  0  0  0  0  0  0  0  0  0
  188.9200  176.7950  146.8330 C   0  0  0  0  0  2  0  0  0  0  0  0
  188.2730  177.9130  148.9330 C   0  0  0  0  0  2  0  0  0  0  0  0
  188.8380  178.1330  147.5460 C   0  0  0  0  0  3  0  0  0  0  0  0
  187.3860  178.4500  147.8330 C   0  0  0  0  0  2  0  0  0  0  0  0
  1  5  2  0  0  0  0
  2 10  1  0  0  0  0
  2  3  1  0  0  0  0
  4  9  1  0  0  0  0
  5 10  1  0  0  0  0
  6  7  1  0  0  0  0
  6  4  2  0  0  0  0
  7  2  2  0  0  0  0
  8 11  1  0  0  0  0
  8  1  1  0  0  0  0
  9  3  2  0  0  0  0
  9 21  1  0  0  0  0
 11  7  1  0  0  0  0
 12  4  1  0  0  0  0
 13 12  2  0  0  0  0
 15 19  1  0  0  0  0
 16 17  1  0  0  0  0
 17 13  1  6  0  0  0
 17 14  1  0  0  0  0
 18 15  2  0  0  0  0
 19 14  2  0  0  0  0
 20 16  2  0  0  0  0
 20 15  1  0  0  0  0
 21 22  1  0  0  0  0
 23 21  1  0  0  0  0
 23 24  1  0  0  0  0
 24 25  1  0  0  0  0
 25 27  1  0  0  0  0
 26 25  2  0  0  0  0
 27 28  1  0  0  0  0
 28 30  1  0  0  0  0
 30 31  1  0  0  0  0
 30 29  1  0  0  0  0
 31 29  1  0  0  0  0
M  END
>  <MODEL>
6

>  <REMARK>
 VINA RESULT:      -7.4      2.787      3.945
  Name = 
  9 active torsions:
  status: ('A' for Active; 'I' for Inactive)
    1  A    between atoms: C_1  and  C_7
    2  A    between atoms: C_1  and  N_9
    3  A    between atoms: C_7  and  C_11
    4  A    between atoms: N_8  and  C_12
    5  A    between atoms: N_9  and  C_23
    6  A    between atoms: C_11  and  O_30
    7  A    between atoms: C_15  and  N_17
    8  A    between atoms: C_16  and  C_24
    9  A    between atoms: C_24  and  O_30
                            x       y       z     vdW  Elec       q    Type
                         _______ _______ _______ _____ _____    ______ ____

>  <TORSDO>
F 9

$$$$
=
 OpenBabel10222421463D

 31 34  0  0  1  0  0  0  0  0999 V2000
  191.1570  175.1260  135.4160 N   0  0  0  0  0  0  0  0  0  0  0  0
  190.5070  176.1890  138.2480 C   0  0  0  0  0  0  0  0  0  0  0  0
  190.4720  176.4370  139.6230 C   0  0  0  0  0  3  0  0  0  0  0  0
  188.4380  177.7270  139.3950 C   0  0  0  0  0  0  0  0  0  0  0  0
  191.4600  174.5680  136.5440 C   0  0  0  0  0  3  0  0  0  0  0  0
  188.5000  177.5340  138.0080 C   0  0  0  0  0  3  0  0  0  0  0  0
  189.5450  176.8250  137.4150 C   0  0  0  0  0  0  0  0  0  0  0  0
  190.8070  176.5270  135.2670 C   0  0  0  0  0  2  0  0  0  0  0  0
  189.4740  177.2270  140.2120 C   0  0  0  0  0  0  0  0  0  0  0  0
  191.3500  175.2170  137.8640 C   0  0  0  0  0  2  0  0  0  0  0  0
  189.6170  176.9050  136.0840 C   0  0  0  0  0  2  0  0  0  0  0  0
  187.3260  178.4180  139.9760 N   0  0  0  0  0  0  0  0  0  0  0  0
  186.2270  178.5710  139.3520 N   0  0  0  0  0  0  0  0  0  0  0  0
  184.0100  179.4530  138.9600 C   0  0  0  0  0  3  0  0  0  0  0  0
  182.4680  178.1600  140.3220 C   0  0  0  0  0  0  0  0  0  0  0  0
  184.6860  178.5540  141.2330 C   0  0  0  0  0  3  0  0  0  0  0  0
  185.1170  179.2740  139.9740 C   0  0  1  0  0  3  0  0  0  0  0  0
  181.3300  177.6380  140.4530 O   0  0  0  0  0  0  0  0  0  0  0  0
  182.7940  178.9270  139.1140 C   0  0  0  0  0  3  0  0  0  0  0  0
  183.4670  178.0300  141.3870 C   0  0  0  0  0  3  0  0  0  0  0  0
  189.4960  177.4510  141.6370 N   0  0  0  0  0  0  0  0  0  0  0  0
  190.3490  178.4710  142.2260 C   0  0  0  0  0  1  0  0  0  0  0  0
  188.8530  176.5160  142.5510 C   0  0  0  0  0  2  0  0  0  0  0  0
  187.8880  177.2560  143.4590 C   0  0  0  0  0  2  0  0  0  0  0  0
  188.3780  177.2060  144.8610 C   0  0  0  0  0  0  0  0  0  0  0  0
  189.5770  176.8970  145.0890 O   0  0  0  0  0  0  0  0  0  0  0  0
  187.5080  177.5270  145.9050 O   0  0  0  0  0  0  0  0  0  0  0  0
  186.0950  177.5000  145.7590 C   0  0  0  0  0  2  0  0  0  0  0  0
  184.0400  178.8550  145.6230 C   0  0  0  0  0  2  0  0  0  0  0  0
  185.5270  178.9010  145.8990 C   0  0  0  0  0  3  0  0  0  0  0  0
  184.9900  179.3510  144.5560 C   0  0  0  0  0  2  0  0  0  0  0  0
  1  5  2  0  0  0  0
  2  3  1  0  0  0  0
  3  9  2  0  0  0  0
  4 12  1  0  0  0  0
  4  9  1  0  0  0  0
  5 10  1  0  0  0  0
  6  4  2  0  0  0  0
  7  6  1  0  0  0  0
  7  2  2  0  0  0  0
  8  1  1  0  0  0  0
  8 11  1  0  0  0  0
  9 21  1  0  0  0  0
 10  2  1  0  0  0  0
 11  7  1  0  0  0  0
 13 12  2  0  0  0  0
 14 19  2  0  0  0  0
 14 17  1  0  0  0  0
 15 18  2  0  0  0  0
 15 20  1  0  0  0  0
 16 20  2  0  0  0  0
 17 13  1  6  0  0  0
 17 16  1  0  0  0  0
 19 15  1  0  0  0  0
 21 22  1  0  0  0  0
 21 23  1  0  0  0  0
 23 24  1  0  0  0  0
 24 25  1  0  0  0  0
 25 26  2  0  0  0  0
 25 27  1  0  0  0  0
 28 30  1  0  0  0  0
 28 27  1  0  0  0  0
 29 30  1  0  0  0  0
 31 29  1  0  0  0  0
 31 30  1  0  0  0  0
M  END
>  <MODEL>
7

>  <REMARK>
 VINA RESULT:      -7.3      2.836      6.420
  Name = 
  9 active torsions:
  status: ('A' for Active; 'I' for Inactive)
    1  A    between atoms: C_1  and  C_7
    2  A    between atoms: C_1  and  N_9
    3  A    between atoms: C_7  and  C_11
    4  A    between atoms: N_8  and  C_12
    5  A    between atoms: N_9  and  C_23
    6  A    between atoms: C_11  and  O_30
    7  A    between atoms: C_15  and  N_17
    8  A    between atoms: C_16  and  C_24
    9  A    between atoms: C_24  and  O_30
                            x       y       z     vdW  Elec       q    Type
                         _______ _______ _______ _____ _____    ______ ____

>  <TORSDO>
F 9

$$$$
=
 OpenBabel10222421463D

 31 34  0  0  1  0  0  0  0  0999 V2000
  191.0730  174.8440  135.5800 N   0  0  0  0  0  0  0  0  0  0  0  0
  190.4760  176.2110  138.2910 C   0  0  0  0  0  0  0  0  0  0  0  0
  190.4690  176.6100  139.6300 C   0  0  0  0  0  3  0  0  0  0  0  0
  188.4170  177.8510  139.3080 C   0  0  0  0  0  0  0  0  0  0  0  0
  191.4070  174.4170  136.7560 C   0  0  0  0  0  3  0  0  0  0  0  0
  188.4500  177.5050  137.9500 C   0  0  0  0  0  3  0  0  0  0  0  0
  189.4880  176.7430  137.4150 C   0  0  0  0  0  0  0  0  0  0  0  0
  190.7050  176.2170  135.2840 C   0  0  0  0  0  2  0  0  0  0  0  0
  189.4760  177.4530  140.1510 C   0  0  0  0  0  0  0  0  0  0  0  0
  191.3190  175.2090  137.9980 C   0  0  0  0  0  2  0  0  0  0  0  0
  189.5300  176.6740  136.0820 C   0  0  0  0  0  2  0  0  0  0  0  0
  187.3110  178.5930  139.8340 N   0  0  0  0  0  0  0  0  0  0  0  0
  186.1210  178.4130  139.4230 N   0  0  0  0  0  0  0  0  0  0  0  0
  183.9010  179.2580  138.9700 C   0  0  0  0  0  3  0  0  0  0  0  0
  182.3740  178.1200  140.4790 C   0  0  0  0  0  0  0  0  0  0  0  0
  184.6050  178.5980  141.3150 C   0  0  0  0  0  3  0  0  0  0  0  0
  185.0200  179.1810  139.9830 C   0  0  1  0  0  3  0  0  0  0  0  0
  181.2370  177.6190  140.6790 O   0  0  0  0  0  0  0  0  0  0  0  0
  182.6850  178.7550  139.1940 C   0  0  0  0  0  3  0  0  0  0  0  0
  183.3860  178.0970  141.5390 C   0  0  0  0  0  3  0  0  0  0  0  0
  189.5270  177.8340  141.5420 N   0  0  0  0  0  0  0  0  0  0  0  0
  190.7800  177.8170  142.2810 C   0  0  0  0  0  1  0  0  0  0  0  0
  188.3050  178.0190  142.3120 C   0  0  0  0  0  2  0  0  0  0  0  0
  187.9820  176.7540  143.0870 C   0  0  0  0  0  2  0  0  0  0  0  0
  187.7710  177.0830  144.5210 C   0  0  0  0  0  0  0  0  0  0  0  0
  186.6940  177.6250  144.8810 O   0  0  0  0  0  0  0  0  0  0  0  0
  188.7600  176.7600  145.4530 O   0  0  0  0  0  0  0  0  0  0  0  0
  189.4110  177.7420  146.2470 C   0  0  0  0  0  2  0  0  0  0  0  0
  188.0620  177.2550  148.2530 C   0  0  0  0  0  2  0  0  0  0  0  0
  189.4690  177.2900  147.6950 C   0  0  0  0  0  3  0  0  0  0  0  0
  188.9750  178.4140  148.5820 C   0  0  0  0  0  2  0  0  0  0  0  0
  1  5  2  0  0  0  0
  2  3  1  0  0  0  0
  3  9  2  0  0  0  0
  4 12  1  0  0  0  0
  4  9  1  0  0  0  0
  5 10  1  0  0  0  0
  6  4  2  0  0  0  0
  7  6  1  0  0  0  0
  7  2  2  0  0  0  0
  8  1  1  0  0  0  0
  8 11  1  0  0  0  0
  9 21  1  0  0  0  0
 10  2  1  0  0  0  0
 11  7  1  0  0  0  0
 13 12  2  0  0  0  0
 14 19  2  0  0  0  0
 14 17  1  0  0  0  0
 15 18  2  0  0  0  0
 15 20  1  0  0  0  0
 16 20  2  0  0  0  0
 17 13  1  6  0  0  0
 17 16  1  0  0  0  0
 19 15  1  0  0  0  0
 21 22  1  0  0  0  0
 21 23  1  0  0  0  0
 23 24  1  0  0  0  0
 24 25  1  0  0  0  0
 25 26  2  0  0  0  0
 25 27  1  0  0  0  0
 27 28  1  0  0  0  0
 28 30  1  0  0  0  0
 29 31  1  0  0  0  0
 30 29  1  0  0  0  0
 30 31  1  0  0  0  0
M  END
>  <MODEL>
8

>  <REMARK>
 VINA RESULT:      -7.3      2.893      6.234
  Name = 
  9 active torsions:
  status: ('A' for Active; 'I' for Inactive)
    1  A    between atoms: C_1  and  C_7
    2  A    between atoms: C_1  and  N_9
    3  A    between atoms: C_7  and  C_11
    4  A    between atoms: N_8  and  C_12
    5  A    between atoms: N_9  and  C_23
    6  A    between atoms: C_11  and  O_30
    7  A    between atoms: C_15  and  N_17
    8  A    between atoms: C_16  and  C_24
    9  A    between atoms: C_24  and  O_30
                            x       y       z     vdW  Elec       q    Type
                         _______ _______ _______ _____ _____    ______ ____

>  <TORSDO>
F 9

$$$$
=
 OpenBabel10222421463D

 31 34  0  0  1  0  0  0  0  0999 V2000
  190.3150  177.0970  147.3660 N   0  0  0  0  0  0  0  0  0  0  0  0
  189.9160  177.1670  144.2980 C   0  0  0  0  0  0  0  0  0  0  0  0
  190.0900  177.1340  142.9120 C   0  0  0  0  0  3  0  0  0  0  0  0
  187.8570  177.9920  142.5550 C   0  0  0  0  0  0  0  0  0  0  0  0
  191.2330  177.2540  146.4660 C   0  0  0  0  0  3  0  0  0  0  0  0
  187.6520  177.9700  143.9410 C   0  0  0  0  0  3  0  0  0  0  0  0
  188.6370  177.5130  144.8170 C   0  0  0  0  0  0  0  0  0  0  0  0
  189.0010  176.5400  147.1020 C   0  0  0  0  0  2  0  0  0  0  0  0
  189.0710  177.5060  142.0240 C   0  0  0  0  0  0  0  0  0  0  0  0
  191.0420  177.0410  145.0180 C   0  0  0  0  0  2  0  0  0  0  0  0
  188.2470  177.3240  146.0800 C   0  0  0  0  0  2  0  0  0  0  0  0
  186.8440  178.5130  141.6870 N   0  0  0  0  0  0  0  0  0  0  0  0
  185.6050  178.4280  141.9690 N   0  0  0  0  0  0  0  0  0  0  0  0
  185.1060  178.8750  139.6450 C   0  0  0  0  0  3  0  0  0  0  0  0
  183.2450  177.4430  139.0190 C   0  0  0  0  0  0  0  0  0  0  0  0
  183.2720  178.2890  141.2970 C   0  0  0  0  0  3  0  0  0  0  0  0
  184.6030  178.9720  141.0680 C   0  0  1  0  0  3  0  0  0  0  0  0
  182.6790  176.7420  138.1400 O   0  0  0  0  0  0  0  0  0  0  0  0
  184.4870  178.1580  138.7060 C   0  0  0  0  0  3  0  0  0  0  0  0
  182.6530  177.5730  140.3530 C   0  0  0  0  0  3  0  0  0  0  0  0
  189.3110  177.4450  140.6030 N   0  0  0  0  0  0  0  0  0  0  0  0
  190.2900  176.5260  140.0430 C   0  0  0  0  0  1  0  0  0  0  0  0
  188.7620  178.4550  139.7080 C   0  0  0  0  0  2  0  0  0  0  0  0
  189.3230  178.2710  138.3090 C   0  0  0  0  0  2  0  0  0  0  0  0
  188.2120  178.2190  137.3240 C   0  0  0  0  0  0  0  0  0  0  0  0
  187.5050  179.2430  137.1330 O   0  0  0  0  0  0  0  0  0  0  0  0
  187.9850  177.0440  136.6040 O   0  0  0  0  0  0  0  0  0  0  0  0
  187.6170  175.8230  137.2310 C   0  0  0  0  0  2  0  0  0  0  0  0
  185.4740  175.8680  136.0130 C   0  0  0  0  0  2  0  0  0  0  0  0
  186.6930  175.0280  136.3260 C   0  0  0  0  0  3  0  0  0  0  0  0
  185.3900  174.7750  137.0540 C   0  0  0  0  0  2  0  0  0  0  0  0
  2  7  1  0  0  0  0
  2 10  1  0  0  0  0
  3  2  2  0  0  0  0
  4  6  1  0  0  0  0
  5  1  2  0  0  0  0
  6  7  2  0  0  0  0
  7 11  1  0  0  0  0
  8  1  1  0  0  0  0
  9  4  2  0  0  0  0
  9  3  1  0  0  0  0
 10  5  1  0  0  0  0
 11  8  1  0  0  0  0
 12 13  2  0  0  0  0
 12  4  1  0  0  0  0
 14 17  1  0  0  0  0
 15 20  1  0  0  0  0
 17 16  1  0  0  0  0
 17 13  1  1  0  0  0
 18 15  2  0  0  0  0
 19 15  1  0  0  0  0
 19 14  2  0  0  0  0
 20 16  2  0  0  0  0
 21  9  1  0  0  0  0
 22 21  1  0  0  0  0
 23 21  1  0  0  0  0
 24 23  1  0  0  0  0
 25 24  1  0  0  0  0
 26 25  2  0  0  0  0
 27 28  1  0  0  0  0
 27 25  1  0  0  0  0
 29 30  1  0  0  0  0
 29 31  1  0  0  0  0
 30 31  1  0  0  0  0
 30 28  1  0  0  0  0
M  END
>  <MODEL>
9

>  <REMARK>
 VINA RESULT:      -7.2      2.888      6.560
  Name = 
  9 active torsions:
  status: ('A' for Active; 'I' for Inactive)
    1  A    between atoms: C_1  and  C_7
    2  A    between atoms: C_1  and  N_9
    3  A    between atoms: C_7  and  C_11
    4  A    between atoms: N_8  and  C_12
    5  A    between atoms: N_9  and  C_23
    6  A    between atoms: C_11  and  O_30
    7  A    between atoms: C_15  and  N_17
    8  A    between atoms: C_16  and  C_24
    9  A    between atoms: C_24  and  O_30
                            x       y       z     vdW  Elec       q    Type
                         _______ _______ _______ _____ _____    ______ ____

>  <TORSDO>
F 9

$$$$
