=
 OpenBabel10232412493D

 40 44  0  0  1  0  0  0  0  0999 V2000
  190.0610  173.4700  136.8990 C   0  0  0  0  0  1  0  0  0  0  0  0
  189.4300  176.5120  138.3710 C   0  0  1  0  0  3  0  0  0  0  0  0
  188.7740  178.9250  138.5930 C   0  0  0  0  0  3  0  0  0  0  0  0
  191.4540  175.5190  137.1670 C   0  0  0  0  0  0  0  0  0  0  0  0
  189.2580  175.6190  136.0900 N   0  0  0  0  0  0  0  0  0  0  0  0
  191.7060  176.9800  139.0320 O   0  0  0  0  0  0  0  0  0  0  0  0
  187.8240  178.5570  136.3320 N   0  0  0  0  0  2  0  0  0  0  0  0
  187.5170  177.1680  136.7100 C   0  0  0  0  0  2  0  0  0  0  0  0
  188.9990  177.7330  139.1740 C   0  0  0  0  0  0  0  0  0  0  0  0
  188.7500  176.3680  137.0150 C   0  0  0  0  0  0  0  0  0  0  0  0
  190.4500  174.8080  136.2870 C   0  0  2  0  0  3  0  0  0  0  0  0
  188.9160  179.1600  137.1150 C   0  0  0  0  0  2  0  0  0  0  0  0
  192.7750  175.3600  137.0130 C   0  0  0  0  0  3  0  0  0  0  0  0
  190.9280  176.3900  138.2340 C   0  0  0  0  0  0  0  0  0  0  0  0
  189.9010  175.4520  143.3540 O   0  0  0  0  0  0  0  0  0  0  0  0
  186.4840  178.5520  145.8030 C   0  0  0  0  0  1  0  0  0  0  0  0
  186.3610  178.5210  143.3140 C   0  0  2  0  0  3  0  0  0  0  0  0
  189.3090  176.3810  142.7430 C   0  0  0  0  0  0  0  0  0  0  0  0
  188.3130  177.1710  143.3930 N   0  0  0  0  0  0  0  0  0  0  0  0
  189.5920  176.6350  141.3680 N   0  0  0  0  0  2  0  0  0  0  0  0
  187.5070  176.7000  144.4990 C   0  0  0  0  0  2  0  0  0  0  0  0
  187.9590  178.4070  141.2840 C   0  0  0  0  0  3  0  0  0  0  0  0
  188.8310  177.6140  140.6400 C   0  0  0  0  0  0  0  0  0  0  0  0
  187.7920  178.3800  142.7850 C   0  0  1  0  0  3  0  0  0  0  0  0
  186.3230  177.6610  144.5860 C   0  0  1  0  0  3  0  0  0  0  0  0
  185.2670  178.1140  142.3030 C   0  0  1  0  0  3  0  0  0  0  0  0
  183.8450  178.1560  142.8600 C   0  0  0  0  0  1  0  0  0  0  0  0
  185.3760  178.8450  141.0590 N   0  0  0  0  0  0  0  0  0  0  0  0
  184.6510  178.5710  140.0320 C   0  0  0  0  0  3  0  0  0  0  0  0
  184.1920  180.6030  138.9140 O   0  0  0  0  0  1  0  0  0  0  0  0
  184.8050  179.3570  138.7730 C   0  0  0  0  0  2  0  0  0  0  0  0
  193.3960  174.4920  135.9600 C   0  0  0  0  0  2  0  0  0  0  0  0
  193.7220  173.1040  136.4990 C   0  0  0  0  0  2  0  0  0  0  0  0
  196.5720  174.0080  138.7150 C   0  0  2  0  0  3  0  0  0  0  0  0
  196.2060  174.1700  136.1110 S   0  0  0  0  0  0  0  0  0  0  0  0
  196.5920  174.8590  139.9730 C   0  0  0  0  0  1  0  0  0  0  0  0
  195.1400  173.0420  137.0460 C   0  0  1  0  0  3  0  0  0  0  0  0
  198.4210  174.5740  137.3940 C   0  0  0  0  0  1  0  0  0  0  0  0
  196.9960  174.8020  137.5680 N   0  0  0  0  0  0  0  0  0  0  0  0
  195.1700  173.5080  138.4750 C   0  0  0  0  0  2  0  0  0  0  0  0
  2 10  1  6  0  0  0
  2  9  1  0  0  0  0
  3  9  2  0  0  0  0
  4 14  1  0  0  0  0
  5 11  1  0  0  0  0
  5 10  2  0  0  0  0
  7  8  1  0  0  0  0
  7 12  1  0  0  0  0
  8 10  1  0  0  0  0
  9 23  1  0  0  0  0
 11  1  1  1  0  0  0
 11  4  1  0  0  0  0
 12  3  1  0  0  0  0
 13  4  2  0  0  0  0
 14  2  1  0  0  0  0
 14  6  2  0  0  0  0
 17 26  1  6  0  0  0
 17 25  1  0  0  0  0
 18 15  2  0  0  0  0
 18 19  1  0  0  0  0
 19 21  1  0  0  0  0
 20 18  1  0  0  0  0
 21 25  1  0  0  0  0
 23 22  2  0  0  0  0
 23 20  1  0  0  0  0
 24 22  1  6  0  0  0
 24 17  1  0  0  0  0
 24 19  1  0  0  0  0
 25 16  1  1  0  0  0
 26 27  1  1  0  0  0
 28 26  1  0  0  0  0
 29 28  2  0  0  0  0
 31 30  1  0  0  0  0
 31 29  1  0  0  0  0
 32 33  1  0  0  0  0
 32 13  1  0  0  0  0
 34 36  1  1  0  0  0
 35 37  1  0  0  0  0
 35 39  1  0  0  0  0
 37 33  1  6  0  0  0
 37 40  1  0  0  0  0
 38 39  1  0  0  0  0
 39 34  1  0  0  0  0
 40 34  1  0  0  0  0
M  END
>  <MODEL>
1

>  <REMARK>
 VINA RESULT:      -8.2      0.000      0.000
  Name = 
  7 active torsions:
  status: ('A' for Active; 'I' for Inactive)
    1  A    between atoms: C_10  and  C_20
    2  A    between atoms: N_15  and  C_20
    3  A    between atoms: C_21  and  C_26
    4  A    between atoms: C_22  and  C_31
    5  A    between atoms: C_22  and  C_38
    6  A    between atoms: C_27  and  C_31
    7  A    between atoms: C_33  and  C_35
                            x       y       z     vdW  Elec       q    Type
                         _______ _______ _______ _____ _____    ______ ____

>  <TORSDO>
F 7

$$$$
=
 OpenBabel10232412493D

 40 44  0  0  1  0  0  0  0  0999 V2000
  191.7590  173.7540  137.3810 C   0  0  0  0  0  1  0  0  0  0  0  0
  190.6210  176.4810  139.1390 C   0  0  1  0  0  3  0  0  0  0  0  0
  189.3600  178.5920  139.6450 C   0  0  0  0  0  3  0  0  0  0  0  0
  192.5210  176.1260  137.4670 C   0  0  0  0  0  0  0  0  0  0  0  0
  190.2070  175.5640  136.8980 N   0  0  0  0  0  0  0  0  0  0  0  0
  192.7500  177.6060  139.3190 O   0  0  0  0  0  0  0  0  0  0  0  0
  188.0750  177.9460  137.6250 N   0  0  0  0  0  2  0  0  0  0  0  0
  188.2770  176.5310  137.9740 C   0  0  0  0  0  2  0  0  0  0  0  0
  190.0450  177.5240  140.0890 C   0  0  0  0  0  0  0  0  0  0  0  0
  189.7250  176.1340  137.9560 C   0  0  0  0  0  0  0  0  0  0  0  0
  191.5950  175.1440  136.7820 C   0  0  2  0  0  3  0  0  0  0  0  0
  189.0920  178.8510  138.1890 C   0  0  0  0  0  2  0  0  0  0  0  0
  193.7610  176.3650  137.0210 C   0  0  0  0  0  3  0  0  0  0  0  0
  192.0180  176.8080  138.6730 C   0  0  0  0  0  0  0  0  0  0  0  0
  192.0240  175.1850  143.8450 O   0  0  0  0  0  0  0  0  0  0  0  0
  189.2510  178.1240  147.1570 C   0  0  0  0  0  1  0  0  0  0  0  0
  188.5090  178.1410  144.7780 C   0  0  2  0  0  3  0  0  0  0  0  0
  191.2740  176.1080  143.4280 C   0  0  0  0  0  0  0  0  0  0  0  0
  190.4530  176.8520  144.3280 N   0  0  0  0  0  0  0  0  0  0  0  0
  191.1970  176.4000  142.0340 N   0  0  0  0  0  2  0  0  0  0  0  0
  189.9620  176.3330  145.5870 C   0  0  0  0  0  2  0  0  0  0  0  0
  189.5510  178.1200  142.4100 C   0  0  0  0  0  3  0  0  0  0  0  0
  190.2530  177.3690  141.5460 C   0  0  0  0  0  0  0  0  0  0  0  0
  189.7660  178.0570  143.9040 C   0  0  1  0  0  3  0  0  0  0  0  0
  188.8130  177.2530  145.9930 C   0  0  1  0  0  3  0  0  0  0  0  0
  187.2080  177.7200  144.0610 C   0  0  1  0  0  3  0  0  0  0  0  0
  187.1400  176.2390  143.6930 C   0  0  0  0  0  1  0  0  0  0  0  0
  186.0270  178.1470  144.7810 N   0  0  0  0  0  0  0  0  0  0  0  0
  184.9550  178.5310  144.1830 C   0  0  0  0  0  3  0  0  0  0  0  0
  184.0640  178.9190  146.3380 O   0  0  0  0  0  1  0  0  0  0  0  0
  183.7660  178.9620  144.9750 C   0  0  0  0  0  2  0  0  0  0  0  0
  194.3530  175.7140  135.8080 C   0  0  0  0  0  2  0  0  0  0  0  0
  195.6740  175.0240  136.1300 C   0  0  0  0  0  2  0  0  0  0  0  0
  194.1560  171.8090  135.0290 C   0  0  2  0  0  3  0  0  0  0  0  0
  195.5130  172.5070  137.1770 S   0  0  0  0  0  0  0  0  0  0  0  0
  192.7440  171.5150  134.5520 C   0  0  0  0  0  1  0  0  0  0  0  0
  195.6510  173.5620  135.7110 C   0  0  1  0  0  3  0  0  0  0  0  0
  194.8290  170.1040  136.4870 C   0  0  0  0  0  1  0  0  0  0  0  0
  194.2920  171.4540  136.4360 N   0  0  0  0  0  0  0  0  0  0  0  0
  194.4400  173.2800  134.8640 C   0  0  0  0  0  2  0  0  0  0  0  0
  2 10  1  6  0  0  0
  2  9  1  0  0  0  0
  3  9  2  0  0  0  0
  4 14  1  0  0  0  0
  5 10  2  0  0  0  0
  7  8  1  0  0  0  0
  7 12  1  0  0  0  0
  9 23  1  0  0  0  0
 10  8  1  0  0  0  0
 11  5  1  0  0  0  0
 11  1  1  1  0  0  0
 11  4  1  0  0  0  0
 12  3  1  0  0  0  0
 13  4  2  0  0  0  0
 14  2  1  0  0  0  0
 14  6  2  0  0  0  0
 17 26  1  6  0  0  0
 17 25  1  0  0  0  0
 18 15  2  0  0  0  0
 18 19  1  0  0  0  0
 19 21  1  0  0  0  0
 20 18  1  0  0  0  0
 21 25  1  0  0  0  0
 23 20  1  0  0  0  0
 23 22  2  0  0  0  0
 24 22  1  6  0  0  0
 24 19  1  0  0  0  0
 24 17  1  0  0  0  0
 25 16  1  1  0  0  0
 26 27  1  1  0  0  0
 26 28  1  0  0  0  0
 29 28  2  0  0  0  0
 29 31  1  0  0  0  0
 31 30  1  0  0  0  0
 32 33  1  0  0  0  0
 32 13  1  0  0  0  0
 34 36  1  1  0  0  0
 34 39  1  0  0  0  0
 37 33  1  1  0  0  0
 37 35  1  0  0  0  0
 39 38  1  0  0  0  0
 39 35  1  0  0  0  0
 40 34  1  0  0  0  0
 40 37  1  0  0  0  0
M  END
>  <MODEL>
2

>  <REMARK>
 VINA RESULT:      -8.1      2.457      3.179
  Name = 
  7 active torsions:
  status: ('A' for Active; 'I' for Inactive)
    1  A    between atoms: C_10  and  C_20
    2  A    between atoms: N_15  and  C_20
    3  A    between atoms: C_21  and  C_26
    4  A    between atoms: C_22  and  C_31
    5  A    between atoms: C_22  and  C_38
    6  A    between atoms: C_27  and  C_31
    7  A    between atoms: C_33  and  C_35
                            x       y       z     vdW  Elec       q    Type
                         _______ _______ _______ _____ _____    ______ ____

>  <TORSDO>
F 7

$$$$
=
 OpenBabel10232412493D

 40 44  0  0  1  0  0  0  0  0999 V2000
  191.6680  173.7700  137.3290 C   0  0  0  0  0  1  0  0  0  0  0  0
  190.5520  176.4950  139.1040 C   0  0  1  0  0  3  0  0  0  0  0  0
  189.3000  178.6070  139.6280 C   0  0  0  0  0  3  0  0  0  0  0  0
  192.4340  176.1400  137.4120 C   0  0  0  0  0  0  0  0  0  0  0  0
  190.1130  175.5830  136.8660 N   0  0  0  0  0  0  0  0  0  0  0  0
  192.6850  177.6160  139.2650 O   0  0  0  0  0  0  0  0  0  0  0  0
  187.9920  177.9680  137.6200 N   0  0  0  0  0  2  0  0  0  0  0  0
  188.1960  176.5510  137.9640 C   0  0  0  0  0  2  0  0  0  0  0  0
  189.9880  177.5360  140.0630 C   0  0  0  0  0  0  0  0  0  0  0  0
  189.6430  176.1520  137.9300 C   0  0  0  0  0  0  0  0  0  0  0  0
  191.4990  175.1610  136.7350 C   0  0  2  0  0  3  0  0  0  0  0  0
  189.0170  178.8690  138.1750 C   0  0  0  0  0  2  0  0  0  0  0  0
  193.6690  176.3780  136.9530 C   0  0  0  0  0  3  0  0  0  0  0  0
  191.9450  176.8200  138.6250 C   0  0  0  0  0  0  0  0  0  0  0  0
  192.0180  175.1990  143.7920 O   0  0  0  0  0  0  0  0  0  0  0  0
  189.2570  178.1060  147.1400 C   0  0  0  0  0  1  0  0  0  0  0  0
  188.4920  178.1260  144.7680 C   0  0  2  0  0  3  0  0  0  0  0  0
  191.2590  176.1180  143.3850 C   0  0  0  0  0  0  0  0  0  0  0  0
  190.4410  176.8530  144.2950 N   0  0  0  0  0  0  0  0  0  0  0  0
  191.1660  176.4140  141.9930 N   0  0  0  0  0  2  0  0  0  0  0  0
  189.9650  176.3260  145.5570 C   0  0  0  0  0  2  0  0  0  0  0  0
  189.5110  178.1200  142.3900 C   0  0  0  0  0  3  0  0  0  0  0  0
  190.2110  177.3780  141.5170 C   0  0  0  0  0  0  0  0  0  0  0  0
  189.7410  178.0540  143.8820 C   0  0  1  0  0  3  0  0  0  0  0  0
  188.8140  177.2370  145.9770 C   0  0  1  0  0  3  0  0  0  0  0  0
  187.1870  177.6990  144.0620 C   0  0  1  0  0  3  0  0  0  0  0  0
  187.1300  176.2200  143.6810 C   0  0  0  0  0  1  0  0  0  0  0  0
  186.0110  178.1070  144.7990 N   0  0  0  0  0  0  0  0  0  0  0  0
  184.9440  178.5300  144.2170 C   0  0  0  0  0  3  0  0  0  0  0  0
  184.0770  178.9050  146.3850 O   0  0  0  0  0  1  0  0  0  0  0  0
  183.7590  178.9390  145.0260 C   0  0  0  0  0  2  0  0  0  0  0  0
  194.2480  175.7290  135.7330 C   0  0  0  0  0  2  0  0  0  0  0  0
  195.7580  175.9200  135.6590 C   0  0  0  0  0  2  0  0  0  0  0  0
  196.4000  172.3550  136.5130 C   0  0  2  0  0  3  0  0  0  0  0  0
  197.7930  174.5620  136.8720 S   0  0  0  0  0  0  0  0  0  0  0  0
  195.5240  171.3620  137.2570 C   0  0  0  0  0  1  0  0  0  0  0  0
  196.4840  174.5830  135.6200 C   0  0  1  0  0  3  0  0  0  0  0  0
  198.6030  172.1330  137.2750 C   0  0  0  0  0  1  0  0  0  0  0  0
  197.3920  172.9220  137.4180 N   0  0  0  0  0  0  0  0  0  0  0  0
  195.5400  173.4660  135.9680 C   0  0  0  0  0  2  0  0  0  0  0  0
  2 10  1  6  0  0  0
  2  9  1  0  0  0  0
  3  9  2  0  0  0  0
  4 14  1  0  0  0  0
  5 10  2  0  0  0  0
  7  8  1  0  0  0  0
  7 12  1  0  0  0  0
  9 23  1  0  0  0  0
 10  8  1  0  0  0  0
 11  5  1  0  0  0  0
 11  1  1  1  0  0  0
 11  4  1  0  0  0  0
 12  3  1  0  0  0  0
 13  4  2  0  0  0  0
 14  2  1  0  0  0  0
 14  6  2  0  0  0  0
 17 26  1  6  0  0  0
 17 25  1  0  0  0  0
 18 15  2  0  0  0  0
 18 19  1  0  0  0  0
 19 21  1  0  0  0  0
 20 18  1  0  0  0  0
 21 25  1  0  0  0  0
 23 20  1  0  0  0  0
 23 22  2  0  0  0  0
 24 22  1  6  0  0  0
 24 19  1  0  0  0  0
 24 17  1  0  0  0  0
 25 16  1  1  0  0  0
 26 27  1  1  0  0  0
 26 28  1  0  0  0  0
 29 28  2  0  0  0  0
 29 31  1  0  0  0  0
 31 30  1  0  0  0  0
 32 13  1  0  0  0  0
 33 32  1  0  0  0  0
 34 36  1  1  0  0  0
 34 39  1  0  0  0  0
 35 39  1  0  0  0  0
 37 33  1  1  0  0  0
 37 40  1  0  0  0  0
 37 35  1  0  0  0  0
 38 39  1  0  0  0  0
 40 34  1  0  0  0  0
M  END
>  <MODEL>
3

>  <REMARK>
 VINA RESULT:      -8.1      2.342      2.775
  Name = 
  7 active torsions:
  status: ('A' for Active; 'I' for Inactive)
    1  A    between atoms: C_10  and  C_20
    2  A    between atoms: N_15  and  C_20
    3  A    between atoms: C_21  and  C_26
    4  A    between atoms: C_22  and  C_31
    5  A    between atoms: C_22  and  C_38
    6  A    between atoms: C_27  and  C_31
    7  A    between atoms: C_33  and  C_35
                            x       y       z     vdW  Elec       q    Type
                         _______ _______ _______ _____ _____    ______ ____

>  <TORSDO>
F 7

$$$$
=
 OpenBabel10232412493D

 40 44  0  0  1  0  0  0  0  0999 V2000
  185.7440  178.7890  139.1700 C   0  0  0  0  0  1  0  0  0  0  0  0
  182.7350  177.3120  138.4040 C   0  0  1  0  0  3  0  0  0  0  0  0
  180.2860  177.0900  137.9000 C   0  0  0  0  0  3  0  0  0  0  0  0
  183.8500  178.0150  140.5930 C   0  0  0  0  0  0  0  0  0  0  0  0
  183.4900  179.6180  138.7790 N   0  0  0  0  0  0  0  0  0  0  0  0
  182.5180  176.0450  140.4490 O   0  0  0  0  0  0  0  0  0  0  0  0
  180.4460  179.5420  137.5630 N   0  0  0  0  0  2  0  0  0  0  0  0
  181.8180  179.3620  137.0600 C   0  0  0  0  0  2  0  0  0  0  0  0
  181.5220  176.5610  137.8690 C   0  0  0  0  0  0  0  0  0  0  0  0
  182.7450  178.8050  138.1010 C   0  0  0  0  0  0  0  0  0  0  0  0
  184.4180  179.1780  139.8090 C   0  0  2  0  0  3  0  0  0  0  0  0
  179.9900  178.4570  138.4490 C   0  0  0  0  0  2  0  0  0  0  0  0
  184.1240  177.8300  141.8920 C   0  0  0  0  0  3  0  0  0  0  0  0
  182.9900  177.0610  139.8700 C   0  0  0  0  0  0  0  0  0  0  0  0
  180.3270  171.8660  137.7200 O   0  0  0  0  0  0  0  0  0  0  0  0
  184.2940  170.9430  134.4480 C   0  0  0  0  0  1  0  0  0  0  0  0
  184.3520  173.1140  135.6710 C   0  0  2  0  0  3  0  0  0  0  0  0
  181.0600  172.8020  137.3020 C   0  0  0  0  0  0  0  0  0  0  0  0
  182.1940  172.5370  136.4780 N   0  0  0  0  0  0  0  0  0  0  0  0
  180.7950  174.1510  137.6840 N   0  0  0  0  0  2  0  0  0  0  0  0
  182.9300  171.2900  136.4970 C   0  0  0  0  0  2  0  0  0  0  0  0
  182.7120  174.9510  136.4630 C   0  0  0  0  0  3  0  0  0  0  0  0
  181.7000  175.2030  137.3070 C   0  0  0  0  0  0  0  0  0  0  0  0
  182.9060  173.6050  135.8040 C   0  0  1  0  0  3  0  0  0  0  0  0
  184.2670  171.5890  135.8210 C   0  0  1  0  0  3  0  0  0  0  0  0
  185.3330  173.7450  136.6830 C   0  0  1  0  0  3  0  0  0  0  0  0
  186.2830  172.7490  137.3460 C   0  0  0  0  0  1  0  0  0  0  0  0
  186.0470  174.8710  136.1200 N   0  0  0  0  0  0  0  0  0  0  0  0
  186.9520  175.5110  136.7730 C   0  0  0  0  0  3  0  0  0  0  0  0
  186.7430  177.6830  135.8620 O   0  0  0  0  0  1  0  0  0  0  0  0
  187.6570  176.6660  136.1450 C   0  0  0  0  0  2  0  0  0  0  0  0
  184.9920  178.7440  142.7020 C   0  0  0  0  0  2  0  0  0  0  0  0
  186.4190  178.2180  142.8060 C   0  0  0  0  0  2  0  0  0  0  0  0
  186.7210  177.9460  146.5050 C   0  0  2  0  0  3  0  0  0  0  0  0
  188.4260  177.5560  144.5350 S   0  0  0  0  0  0  0  0  0  0  0  0
  186.3550  178.9480  147.5860 C   0  0  0  0  0  1  0  0  0  0  0  0
  186.6580  177.5280  144.1400 C   0  0  1  0  0  3  0  0  0  0  0  0
  188.7920  176.9890  147.0370 C   0  0  0  0  0  1  0  0  0  0  0  0
  188.1510  178.0110  146.2270 N   0  0  0  0  0  0  0  0  0  0  0  0
  185.9600  178.2720  145.2450 C   0  0  0  0  0  2  0  0  0  0  0  0
  2  9  1  1  0  0  0
  2 14  1  0  0  0  0
  3 12  1  0  0  0  0
  4 13  2  0  0  0  0
  5 11  1  0  0  0  0
  7 12  1  0  0  0  0
  8  7  1  0  0  0  0
  8 10  1  0  0  0  0
  9  3  2  0  0  0  0
 10  2  1  0  0  0  0
 10  5  2  0  0  0  0
 11  1  1  6  0  0  0
 11  4  1  0  0  0  0
 13 32  1  0  0  0  0
 14  6  2  0  0  0  0
 14  4  1  0  0  0  0
 17 24  1  0  0  0  0
 17 25  1  0  0  0  0
 17 26  1  1  0  0  0
 18 20  1  0  0  0  0
 18 15  2  0  0  0  0
 19 21  1  0  0  0  0
 19 18  1  0  0  0  0
 22 23  2  0  0  0  0
 23 20  1  0  0  0  0
 23  9  1  0  0  0  0
 24 22  1  1  0  0  0
 24 19  1  0  0  0  0
 25 16  1  6  0  0  0
 25 21  1  0  0  0  0
 26 27  1  6  0  0  0
 28 26  1  0  0  0  0
 28 29  2  0  0  0  0
 30 31  1  0  0  0  0
 31 29  1  0  0  0  0
 32 33  1  0  0  0  0
 34 36  1  1  0  0  0
 35 39  1  0  0  0  0
 37 33  1  6  0  0  0
 37 35  1  0  0  0  0
 37 40  1  0  0  0  0
 39 34  1  0  0  0  0
 39 38  1  0  0  0  0
 40 34  1  0  0  0  0
M  END
>  <MODEL>
4

>  <REMARK>
 VINA RESULT:      -7.4      5.393      9.658
  Name = 
  7 active torsions:
  status: ('A' for Active; 'I' for Inactive)
    1  A    between atoms: C_10  and  C_20
    2  A    between atoms: N_15  and  C_20
    3  A    between atoms: C_21  and  C_26
    4  A    between atoms: C_22  and  C_31
    5  A    between atoms: C_22  and  C_38
    6  A    between atoms: C_27  and  C_31
    7  A    between atoms: C_33  and  C_35
                            x       y       z     vdW  Elec       q    Type
                         _______ _______ _______ _____ _____    ______ ____

>  <TORSDO>
F 7

$$$$
=
 OpenBabel10232412493D

 40 44  0  0  1  0  0  0  0  0999 V2000
  188.4290  173.1630  136.7840 C   0  0  0  0  0  1  0  0  0  0  0  0
  188.5840  176.2840  138.2180 C   0  0  1  0  0  3  0  0  0  0  0  0
  188.6320  178.7870  138.4000 C   0  0  0  0  0  3  0  0  0  0  0  0
  190.3260  174.7320  137.1740 C   0  0  0  0  0  0  0  0  0  0  0  0
  188.3410  175.4370  135.9250 N   0  0  0  0  0  0  0  0  0  0  0  0
  190.8380  176.0920  139.0610 O   0  0  0  0  0  0  0  0  0  0  0  0
  187.7960  178.6670  136.0680 N   0  0  0  0  0  2  0  0  0  0  0  0
  187.0750  177.4310  136.4120 C   0  0  0  0  0  2  0  0  0  0  0  0
  188.4590  177.5910  138.9900 C   0  0  0  0  0  0  0  0  0  0  0  0
  187.9990  176.3170  136.8110 C   0  0  0  0  0  0  0  0  0  0  0  0
  189.2310  174.3230  136.2120 C   0  0  2  0  0  3  0  0  0  0  0  0
  188.9510  178.9460  136.9400 C   0  0  0  0  0  2  0  0  0  0  0  0
  191.5530  174.1990  137.1240 C   0  0  0  0  0  3  0  0  0  0  0  0
  189.9890  175.7360  138.2000 C   0  0  0  0  0  0  0  0  0  0  0  0
  185.6170  178.7750  142.7340 O   0  0  0  0  0  0  0  0  0  0  0  0
  189.1310  176.7910  146.0510 C   0  0  0  0  0  1  0  0  0  0  0  0
  189.9240  177.2190  143.7270 C   0  0  2  0  0  3  0  0  0  0  0  0
  186.6670  178.2170  142.3160 C   0  0  0  0  0  0  0  0  0  0  0  0
  187.6650  177.7530  143.2240 N   0  0  0  0  0  0  0  0  0  0  0  0
  186.9010  178.0780  140.9160 N   0  0  0  0  0  2  0  0  0  0  0  0
  187.8830  178.3180  144.5390 C   0  0  0  0  0  2  0  0  0  0  0  0
  189.0420  177.0410  141.3020 C   0  0  0  0  0  3  0  0  0  0  0  0
  188.1510  177.5510  140.4370 C   0  0  0  0  0  0  0  0  0  0  0  0
  188.7590  176.9110  142.7800 C   0  0  1  0  0  3  0  0  0  0  0  0
  189.2700  177.8440  144.9680 C   0  0  1  0  0  3  0  0  0  0  0  0
  191.0120  178.1320  143.1200 C   0  0  1  0  0  3  0  0  0  0  0  0
  191.6240  179.1260  144.1050 C   0  0  0  0  0  1  0  0  0  0  0  0
  192.0290  177.3760  142.4210 N   0  0  0  0  0  0  0  0  0  0  0  0
  192.4860  177.7310  141.2720 C   0  0  0  0  0  3  0  0  0  0  0  0
  193.7700  177.4130  139.3130 O   0  0  0  0  0  1  0  0  0  0  0  0
  193.5350  176.9140  140.5950 C   0  0  0  0  0  2  0  0  0  0  0  0
  191.9790  173.1710  136.1200 C   0  0  0  0  0  2  0  0  0  0  0  0
  193.0130  173.7290  135.1500 C   0  0  0  0  0  2  0  0  0  0  0  0
  195.8320  173.8040  137.5790 C   0  0  2  0  0  3  0  0  0  0  0  0
  195.4780  174.9020  135.2110 S   0  0  0  0  0  0  0  0  0  0  0  0
  195.8280  174.1350  139.0610 C   0  0  0  0  0  1  0  0  0  0  0  0
  194.4290  173.4940  135.6530 C   0  0  1  0  0  3  0  0  0  0  0  0
  197.6770  174.8430  136.5800 C   0  0  0  0  0  1  0  0  0  0  0  0
  196.2480  174.9690  136.8070 N   0  0  0  0  0  0  0  0  0  0  0  0
  194.4410  173.4050  137.1550 C   0  0  0  0  0  2  0  0  0  0  0  0
  2 10  1  6  0  0  0
  2  9  1  0  0  0  0
  3  9  2  0  0  0  0
  4 14  1  0  0  0  0
  5 11  1  0  0  0  0
  5 10  2  0  0  0  0
  7  8  1  0  0  0  0
  7 12  1  0  0  0  0
  8 10  1  0  0  0  0
  9 23  1  0  0  0  0
 11  1  1  1  0  0  0
 11  4  1  0  0  0  0
 12  3  1  0  0  0  0
 13  4  2  0  0  0  0
 14  2  1  0  0  0  0
 14  6  2  0  0  0  0
 17 26  1  6  0  0  0
 17 25  1  0  0  0  0
 18 15  2  0  0  0  0
 18 19  1  0  0  0  0
 19 21  1  0  0  0  0
 20 18  1  0  0  0  0
 21 25  1  0  0  0  0
 23 20  1  0  0  0  0
 23 22  2  0  0  0  0
 24 22  1  6  0  0  0
 24 19  1  0  0  0  0
 24 17  1  0  0  0  0
 25 16  1  1  0  0  0
 26 27  1  1  0  0  0
 28 26  1  0  0  0  0
 29 28  2  0  0  0  0
 30 31  1  0  0  0  0
 31 29  1  0  0  0  0
 32 13  1  0  0  0  0
 33 32  1  0  0  0  0
 34 36  1  1  0  0  0
 35 37  1  0  0  0  0
 35 39  1  0  0  0  0
 37 33  1  1  0  0  0
 37 40  1  0  0  0  0
 38 39  1  0  0  0  0
 39 34  1  0  0  0  0
 40 34  1  0  0  0  0
M  END
>  <MODEL>
5

>  <REMARK>
 VINA RESULT:      -7.1      1.775      3.622
  Name = 
  7 active torsions:
  status: ('A' for Active; 'I' for Inactive)
    1  A    between atoms: C_10  and  C_20
    2  A    between atoms: N_15  and  C_20
    3  A    between atoms: C_21  and  C_26
    4  A    between atoms: C_22  and  C_31
    5  A    between atoms: C_22  and  C_38
    6  A    between atoms: C_27  and  C_31
    7  A    between atoms: C_33  and  C_35
                            x       y       z     vdW  Elec       q    Type
                         _______ _______ _______ _____ _____    ______ ____

>  <TORSDO>
F 7

$$$$
=
 OpenBabel10232412493D

 40 44  0  0  1  0  0  0  0  0999 V2000
  186.6680  178.4160  140.6770 C   0  0  0  0  0  1  0  0  0  0  0  0
  183.4880  177.9720  139.4490 C   0  0  1  0  0  3  0  0  0  0  0  0
  181.1840  178.5390  138.6270 C   0  0  0  0  0  3  0  0  0  0  0  0
  184.4490  178.2460  141.8010 C   0  0  0  0  0  0  0  0  0  0  0  0
  184.8560  179.9180  140.0590 N   0  0  0  0  0  0  0  0  0  0  0  0
  182.6090  176.7970  141.3670 O   0  0  0  0  0  0  0  0  0  0  0  0
  182.1370  180.8240  138.4660 N   0  0  0  0  0  2  0  0  0  0  0  0
  183.4430  180.2330  138.1300 C   0  0  0  0  0  2  0  0  0  0  0  0
  182.1890  177.6500  138.7190 C   0  0  0  0  0  0  0  0  0  0  0  0
  183.9990  179.3930  139.2430 C   0  0  0  0  0  0  0  0  0  0  0  0
  185.4510  179.1880  141.1680 C   0  0  2  0  0  3  0  0  0  0  0  0
  181.2500  179.9200  139.2190 C   0  0  0  0  0  2  0  0  0  0  0  0
  184.4690  177.9590  143.1090 C   0  0  0  0  0  3  0  0  0  0  0  0
  183.4460  177.6250  140.9160 C   0  0  0  0  0  0  0  0  0  0  0  0
  179.9940  173.3330  138.5420 O   0  0  0  0  0  0  0  0  0  0  0  0
  183.3550  171.7550  134.8700 C   0  0  0  0  0  1  0  0  0  0  0  0
  183.9940  173.7970  136.1470 C   0  0  2  0  0  3  0  0  0  0  0  0
  180.8720  174.1120  138.0840 C   0  0  0  0  0  0  0  0  0  0  0  0
  181.8430  173.6530  137.1440 N   0  0  0  0  0  0  0  0  0  0  0  0
  180.9420  175.4640  138.5320 N   0  0  0  0  0  2  0  0  0  0  0  0
  182.2880  172.2780  137.0520 C   0  0  0  0  0  2  0  0  0  0  0  0
  182.8700  175.8990  137.1530 C   0  0  0  0  0  3  0  0  0  0  0  0
  182.0160  176.3170  138.1010 C   0  0  0  0  0  0  0  0  0  0  0  0
  182.7070  174.5780  136.4370 C   0  0  1  0  0  3  0  0  0  0  0  0
  183.5930  172.3190  136.2580 C   0  0  1  0  0  3  0  0  0  0  0  0
  185.1750  174.1500  137.0770 C   0  0  1  0  0  3  0  0  0  0  0  0
  185.8850  172.9410  137.6840 C   0  0  0  0  0  1  0  0  0  0  0  0
  186.1090  175.0590  136.4480 N   0  0  0  0  0  0  0  0  0  0  0  0
  186.4730  176.1650  136.9980 C   0  0  0  0  0  3  0  0  0  0  0  0
  188.7460  176.7140  136.6490 O   0  0  0  0  0  1  0  0  0  0  0  0
  187.4390  177.0660  136.3060 C   0  0  0  0  0  2  0  0  0  0  0  0
  185.4550  178.5390  144.0770 C   0  0  0  0  0  2  0  0  0  0  0  0
  186.3840  177.4700  144.6400 C   0  0  0  0  0  2  0  0  0  0  0  0
  189.8770  176.7320  143.5900 C   0  0  2  0  0  3  0  0  0  0  0  0
  188.8370  177.6650  145.8240 S   0  0  0  0  0  0  0  0  0  0  0  0
  190.4620  175.4690  142.9820 C   0  0  0  0  0  1  0  0  0  0  0  0
  187.8390  177.7750  144.3160 C   0  0  1  0  0  3  0  0  0  0  0  0
  191.3540  177.5360  145.2210 C   0  0  0  0  0  1  0  0  0  0  0  0
  190.1390  176.7640  145.0240 N   0  0  0  0  0  0  0  0  0  0  0  0
  188.3870  176.7500  143.3630 C   0  0  0  0  0  2  0  0  0  0  0  0
  2  9  1  1  0  0  0
  2 14  1  0  0  0  0
  3  9  2  0  0  0  0
  3 12  1  0  0  0  0
  4 13  2  0  0  0  0
  5 11  1  0  0  0  0
  7 12  1  0  0  0  0
  8  7  1  0  0  0  0
  8 10  1  0  0  0  0
 10  2  1  0  0  0  0
 10  5  2  0  0  0  0
 11  1  1  6  0  0  0
 11  4  1  0  0  0  0
 13 32  1  0  0  0  0
 14  6  2  0  0  0  0
 14  4  1  0  0  0  0
 17 25  1  0  0  0  0
 17 24  1  0  0  0  0
 17 26  1  1  0  0  0
 18 20  1  0  0  0  0
 18 15  2  0  0  0  0
 19 18  1  0  0  0  0
 21 19  1  0  0  0  0
 22 23  2  0  0  0  0
 23 20  1  0  0  0  0
 23  9  1  0  0  0  0
 24 19  1  0  0  0  0
 24 22  1  1  0  0  0
 25 16  1  6  0  0  0
 25 21  1  0  0  0  0
 26 27  1  6  0  0  0
 28 29  2  0  0  0  0
 28 26  1  0  0  0  0
 31 30  1  0  0  0  0
 31 29  1  0  0  0  0
 32 33  1  0  0  0  0
 34 36  1  1  0  0  0
 34 39  1  0  0  0  0
 37 33  1  1  0  0  0
 37 35  1  0  0  0  0
 39 38  1  0  0  0  0
 39 35  1  0  0  0  0
 40 34  1  0  0  0  0
 40 37  1  0  0  0  0
M  END
>  <MODEL>
6

>  <REMARK>
 VINA RESULT:      -7.0      4.908      8.798
  Name = 
  7 active torsions:
  status: ('A' for Active; 'I' for Inactive)
    1  A    between atoms: C_10  and  C_20
    2  A    between atoms: N_15  and  C_20
    3  A    between atoms: C_21  and  C_26
    4  A    between atoms: C_22  and  C_31
    5  A    between atoms: C_22  and  C_38
    6  A    between atoms: C_27  and  C_31
    7  A    between atoms: C_33  and  C_35
                            x       y       z     vdW  Elec       q    Type
                         _______ _______ _______ _____ _____    ______ ____

>  <TORSDO>
F 7

$$$$
=
 OpenBabel10232412493D

 40 44  0  0  1  0  0  0  0  0999 V2000
  189.6410  175.4370  142.5960 C   0  0  0  0  0  1  0  0  0  0  0  0
  188.3730  177.4500  140.1150 C   0  0  1  0  0  3  0  0  0  0  0  0
  188.2460  178.7190  137.9510 C   0  0  0  0  0  3  0  0  0  0  0  0
  189.9090  177.8680  142.1140 C   0  0  0  0  0  0  0  0  0  0  0  0
  190.4510  176.1800  140.4260 N   0  0  0  0  0  0  0  0  0  0  0  0
  188.3080  179.4860  141.4120 O   0  0  0  0  0  0  0  0  0  0  0  0
  190.1760  177.2820  137.3510 N   0  0  0  0  0  2  0  0  0  0  0  0
  189.6020  176.2030  138.1690 C   0  0  0  0  0  2  0  0  0  0  0  0
  187.6170  178.1860  139.0150 C   0  0  0  0  0  0  0  0  0  0  0  0
  189.5120  176.5660  139.6230 C   0  0  0  0  0  0  0  0  0  0  0  0
  190.4570  176.4820  141.8490 C   0  0  2  0  0  3  0  0  0  0  0  0
  189.7320  178.6300  137.7450 C   0  0  0  0  0  2  0  0  0  0  0  0
  190.3490  178.6260  143.1270 C   0  0  0  0  0  3  0  0  0  0  0  0
  188.8410  178.3590  141.2240 C   0  0  0  0  0  0  0  0  0  0  0  0
  183.6370  179.0290  141.6480 O   0  0  0  0  0  0  0  0  0  0  0  0
  180.6440  177.8640  137.5290 C   0  0  0  0  0  1  0  0  0  0  0  0
  183.0300  177.1570  137.3960 C   0  0  2  0  0  3  0  0  0  0  0  0
  184.1460  178.7450  140.5310 C   0  0  0  0  0  0  0  0  0  0  0  0
  183.3300  178.3430  139.4320 N   0  0  0  0  0  0  0  0  0  0  0  0
  185.5610  178.7750  140.3550 N   0  0  0  0  0  2  0  0  0  0  0  0
  182.0410  177.7000  139.5780 C   0  0  0  0  0  2  0  0  0  0  0  0
  185.3660  178.0420  138.0680 C   0  0  0  0  0  3  0  0  0  0  0  0
  186.1490  178.3350  139.1190 C   0  0  0  0  0  0  0  0  0  0  0  0
  183.8680  178.2370  138.0890 C   0  0  1  0  0  3  0  0  0  0  0  0
  181.7370  177.0700  138.2200 C   0  0  1  0  0  3  0  0  0  0  0  0
  183.7340  175.7880  137.2720 C   0  0  1  0  0  3  0  0  0  0  0  0
  182.8980  174.6030  137.7500 C   0  0  0  0  0  1  0  0  0  0  0  0
  184.2660  175.5680  135.9440 N   0  0  0  0  0  0  0  0  0  0  0  0
  185.4460  175.0960  135.7420 C   0  0  0  0  0  3  0  0  0  0  0  0
  187.1400  174.1680  134.3790 O   0  0  0  0  0  1  0  0  0  0  0  0
  185.9450  174.8890  134.3520 C   0  0  0  0  0  2  0  0  0  0  0  0
  191.4250  178.2040  144.0810 C   0  0  0  0  0  2  0  0  0  0  0  0
  190.8490  177.4670  145.2840 C   0  0  0  0  0  2  0  0  0  0  0  0
  188.0690  178.1510  147.6620 C   0  0  2  0  0  3  0  0  0  0  0  0
  188.1250  177.3260  145.1600 S   0  0  0  0  0  0  0  0  0  0  0  0
  187.8580  177.6490  149.0800 C   0  0  0  0  0  1  0  0  0  0  0  0
  189.5980  178.1560  145.8090 C   0  0  1  0  0  3  0  0  0  0  0  0
  186.0310  178.0370  146.5130 C   0  0  0  0  0  1  0  0  0  0  0  0
  187.2920  177.3460  146.7260 N   0  0  0  0  0  0  0  0  0  0  0  0
  189.5300  178.0420  147.3070 C   0  0  0  0  0  2  0  0  0  0  0  0
  2  9  1  6  0  0  0
  2 14  1  0  0  0  0
  3  9  2  0  0  0  0
  4 13  2  0  0  0  0
  5 11  1  0  0  0  0
  7 12  1  0  0  0  0
  7  8  1  0  0  0  0
  8 10  1  0  0  0  0
  9 23  1  0  0  0  0
 10  2  1  0  0  0  0
 10  5  2  0  0  0  0
 11  4  1  0  0  0  0
 11  1  1  1  0  0  0
 12  3  1  0  0  0  0
 13 32  1  0  0  0  0
 14  6  2  0  0  0  0
 14  4  1  0  0  0  0
 17 26  1  1  0  0  0
 17 24  1  0  0  0  0
 17 25  1  0  0  0  0
 18 15  2  0  0  0  0
 19 21  1  0  0  0  0
 19 18  1  0  0  0  0
 20 18  1  0  0  0  0
 22 23  2  0  0  0  0
 23 20  1  0  0  0  0
 24 22  1  1  0  0  0
 24 19  1  0  0  0  0
 25 16  1  6  0  0  0
 25 21  1  0  0  0  0
 26 27  1  6  0  0  0
 28 26  1  0  0  0  0
 29 28  2  0  0  0  0
 31 30  1  0  0  0  0
 31 29  1  0  0  0  0
 32 33  1  0  0  0  0
 34 36  1  1  0  0  0
 35 37  1  0  0  0  0
 35 39  1  0  0  0  0
 37 33  1  6  0  0  0
 37 40  1  0  0  0  0
 38 39  1  0  0  0  0
 39 34  1  0  0  0  0
 40 34  1  0  0  0  0
M  END
>  <MODEL>
7

>  <REMARK>
 VINA RESULT:      -6.9      4.158      7.699
  Name = 
  7 active torsions:
  status: ('A' for Active; 'I' for Inactive)
    1  A    between atoms: C_10  and  C_20
    2  A    between atoms: N_15  and  C_20
    3  A    between atoms: C_21  and  C_26
    4  A    between atoms: C_22  and  C_31
    5  A    between atoms: C_22  and  C_38
    6  A    between atoms: C_27  and  C_31
    7  A    between atoms: C_33  and  C_35
                            x       y       z     vdW  Elec       q    Type
                         _______ _______ _______ _____ _____    ______ ____

>  <TORSDO>
F 7

$$$$
=
 OpenBabel10232412493D

 40 44  0  0  1  0  0  0  0  0999 V2000
  186.4730  176.0960  144.1160 C   0  0  0  0  0  1  0  0  0  0  0  0
  189.3860  177.3230  142.7650 C   0  0  1  0  0  3  0  0  0  0  0  0
  191.6450  178.4110  142.6410 C   0  0  0  0  0  3  0  0  0  0  0  0
  187.1420  178.3810  143.3810 C   0  0  0  0  0  0  0  0  0  0  0  0
  188.4640  177.1500  145.0340 N   0  0  0  0  0  0  0  0  0  0  0  0
  188.3690  179.0850  141.4640 O   0  0  0  0  0  0  0  0  0  0  0  0
  191.6210  178.0340  145.0930 N   0  0  0  0  0  2  0  0  0  0  0  0
  190.8450  176.8020  144.8740 C   0  0  0  0  0  2  0  0  0  0  0  0
  190.7050  177.6390  142.0690 C   0  0  0  0  0  0  0  0  0  0  0  0
  189.5000  177.0690  144.2630 C   0  0  0  0  0  0  0  0  0  0  0  0
  187.1200  177.4070  144.5390 C   0  0  2  0  0  3  0  0  0  0  0  0
  191.4890  179.0210  144.0070 C   0  0  0  0  0  2  0  0  0  0  0  0
  186.1450  179.2460  143.1580 C   0  0  0  0  0  3  0  0  0  0  0  0
  188.3040  178.3330  142.4740 C   0  0  0  0  0  0  0  0  0  0  0  0
  193.7130  176.7620  138.3720 O   0  0  0  0  0  0  0  0  0  0  0  0
  189.6980  175.0900  135.4790 C   0  0  0  0  0  1  0  0  0  0  0  0
  189.1200  176.3900  137.5250 C   0  0  2  0  0  3  0  0  0  0  0  0
  192.5480  176.6990  138.8480 C   0  0  0  0  0  0  0  0  0  0  0  0
  191.4400  176.3240  138.0300 N   0  0  0  0  0  0  0  0  0  0  0  0
  192.3050  177.0470  140.2090 N   0  0  0  0  0  2  0  0  0  0  0  0
  191.3900  176.5260  136.5970 C   0  0  0  0  0  2  0  0  0  0  0  0
  189.9400  176.6550  139.9640 C   0  0  0  0  0  3  0  0  0  0  0  0
  190.9610  177.0920  140.7180 C   0  0  0  0  0  0  0  0  0  0  0  0
  190.1430  176.0250  138.6060 C   0  0  1  0  0  3  0  0  0  0  0  0
  189.9170  176.4000  136.2130 C   0  0  1  0  0  3  0  0  0  0  0  0
  188.3870  177.7270  137.7700 C   0  0  1  0  0  3  0  0  0  0  0  0
  188.9780  178.9190  137.0190 C   0  0  0  0  0  1  0  0  0  0  0  0
  186.9600  177.6130  137.5540 N   0  0  0  0  0  0  0  0  0  0  0  0
  186.4100  176.5270  137.1390 C   0  0  0  0  0  3  0  0  0  0  0  0
  184.5270  175.1330  136.8220 O   0  0  0  0  0  1  0  0  0  0  0  0
  184.9340  176.4630  136.9330 C   0  0  0  0  0  2  0  0  0  0  0  0
  184.9260  179.3580  144.0240 C   0  0  0  0  0  2  0  0  0  0  0  0
  183.7910  178.4800  143.5110 C   0  0  0  0  0  2  0  0  0  0  0  0
  181.3460  178.7640  140.7190 C   0  0  2  0  0  3  0  0  0  0  0  0
  183.9160  178.1890  140.7990 S   0  0  0  0  0  0  0  0  0  0  0  0
  179.9830  178.1160  140.5530 C   0  0  0  0  0  1  0  0  0  0  0  0
  183.1960  179.0390  142.2270 C   0  0  1  0  0  3  0  0  0  0  0  0
  182.4920  178.6390  138.6800 C   0  0  0  0  0  1  0  0  0  0  0  0
  182.3520  178.0080  139.9820 N   0  0  0  0  0  0  0  0  0  0  0  0
  181.7160  178.7780  142.1810 C   0  0  0  0  0  2  0  0  0  0  0  0
  2  9  1  1  0  0  0
  2 10  1  0  0  0  0
  3 12  1  0  0  0  0
  4 11  1  0  0  0  0
  6 14  2  0  0  0  0
  8  7  1  0  0  0  0
  9  3  2  0  0  0  0
 10  8  1  0  0  0  0
 10  5  2  0  0  0  0
 11  1  1  6  0  0  0
 11  5  1  0  0  0  0
 12  7  1  0  0  0  0
 13  4  2  0  0  0  0
 13 32  1  0  0  0  0
 14  2  1  0  0  0  0
 14  4  1  0  0  0  0
 15 18  2  0  0  0  0
 17 26  1  1  0  0  0
 17 24  1  0  0  0  0
 18 20  1  0  0  0  0
 19 24  1  0  0  0  0
 19 18  1  0  0  0  0
 20 23  1  0  0  0  0
 21 19  1  0  0  0  0
 22 23  2  0  0  0  0
 23  9  1  0  0  0  0
 24 22  1  1  0  0  0
 25 16  1  1  0  0  0
 25 21  1  0  0  0  0
 25 17  1  0  0  0  0
 26 27  1  6  0  0  0
 28 26  1  0  0  0  0
 29 28  2  0  0  0  0
 30 31  1  0  0  0  0
 31 29  1  0  0  0  0
 33 32  1  0  0  0  0
 34 36  1  1  0  0  0
 34 40  1  0  0  0  0
 35 37  1  0  0  0  0
 37 33  1  1  0  0  0
 38 39  1  0  0  0  0
 39 34  1  0  0  0  0
 39 35  1  0  0  0  0
 40 37  1  0  0  0  0
M  END
>  <MODEL>
8

>  <REMARK>
 VINA RESULT:      -6.8      3.552      9.289
  Name = 
  7 active torsions:
  status: ('A' for Active; 'I' for Inactive)
    1  A    between atoms: C_10  and  C_20
    2  A    between atoms: N_15  and  C_20
    3  A    between atoms: C_21  and  C_26
    4  A    between atoms: C_22  and  C_31
    5  A    between atoms: C_22  and  C_38
    6  A    between atoms: C_27  and  C_31
    7  A    between atoms: C_33  and  C_35
                            x       y       z     vdW  Elec       q    Type
                         _______ _______ _______ _____ _____    ______ ____

>  <TORSDO>
F 7

$$$$
=
 OpenBabel10232412493D

 40 44  0  0  1  0  0  0  0  0999 V2000
  184.9940  175.0120  137.2790 C   0  0  0  0  0  1  0  0  0  0  0  0
  184.0810  177.5760  139.3800 C   0  0  1  0  0  3  0  0  0  0  0  0
  182.8110  179.5550  140.2610 C   0  0  0  0  0  3  0  0  0  0  0  0
  185.5690  177.4370  137.3070 C   0  0  0  0  0  0  0  0  0  0  0  0
  183.2370  176.6950  137.2490 N   0  0  0  0  0  0  0  0  0  0  0  0
  186.1020  178.8740  139.1310 O   0  0  0  0  0  0  0  0  0  0  0  0
  181.1510  178.8620  138.5540 N   0  0  0  0  0  2  0  0  0  0  0  0
  181.5370  177.4590  138.7780 C   0  0  0  0  0  2  0  0  0  0  0  0
  183.6600  178.5360  140.4860 C   0  0  0  0  0  0  0  0  0  0  0  0
  182.9680  177.1890  138.4140 C   0  0  0  0  0  0  0  0  0  0  0  0
  184.5900  176.4000  136.8020 C   0  0  2  0  0  3  0  0  0  0  0  0
  182.1980  179.8330  138.9170 C   0  0  0  0  0  2  0  0  0  0  0  0
  186.6520  177.7960  136.6050 C   0  0  0  0  0  3  0  0  0  0  0  0
  185.3050  178.0360  138.6280 C   0  0  0  0  0  0  0  0  0  0  0  0
  183.5950  179.5410  145.2270 O   0  0  0  0  0  0  0  0  0  0  0  0
  188.0220  176.8460  145.8760 C   0  0  0  0  0  1  0  0  0  0  0  0
  187.4400  177.4670  143.5340 C   0  0  2  0  0  3  0  0  0  0  0  0
  184.1380  178.9370  144.2640 C   0  0  0  0  0  0  0  0  0  0  0  0
  185.3920  178.2740  144.4250 N   0  0  0  0  0  0  0  0  0  0  0  0
  183.5300  178.9420  142.9740 N   0  0  0  0  0  2  0  0  0  0  0  0
  186.3850  178.6560  145.4070 C   0  0  0  0  0  2  0  0  0  0  0  0
  185.3430  177.6630  142.0320 C   0  0  0  0  0  3  0  0  0  0  0  0
  184.2080  178.3560  141.8490 C   0  0  0  0  0  0  0  0  0  0  0  0
  185.9150  177.3870  143.4030 C   0  0  1  0  0  3  0  0  0  0  0  0
  187.6890  178.0020  144.9510 C   0  0  1  0  0  3  0  0  0  0  0  0
  188.1260  178.3340  142.4560 C   0  0  1  0  0  3  0  0  0  0  0  0
  189.4420  178.9700  142.9000 C   0  0  0  0  0  1  0  0  0  0  0  0
  188.2700  177.6290  141.2000 N   0  0  0  0  0  0  0  0  0  0  0  0
  189.3460  177.6830  140.4980 C   0  0  0  0  0  3  0  0  0  0  0  0
  190.4850  176.0110  139.2740 O   0  0  0  0  0  1  0  0  0  0  0  0
  189.4410  176.9350  139.2100 C   0  0  0  0  0  2  0  0  0  0  0  0
  187.0000  177.2350  135.2600 C   0  0  0  0  0  2  0  0  0  0  0  0
  188.5020  177.2780  135.0050 C   0  0  0  0  0  2  0  0  0  0  0  0
  189.0520  173.6850  135.8030 C   0  0  2  0  0  3  0  0  0  0  0  0
  190.6710  175.7590  135.6720 S   0  0  0  0  0  0  0  0  0  0  0  0
  188.3350  172.7910  136.8000 C   0  0  0  0  0  1  0  0  0  0  0  0
  189.0730  175.8790  134.8260 C   0  0  1  0  0  3  0  0  0  0  0  0
  191.3530  173.2730  135.9420 C   0  0  0  0  0  1  0  0  0  0  0  0
  190.2990  174.1740  136.3770 N   0  0  0  0  0  0  0  0  0  0  0  0
  188.1710  174.8610  135.4670 C   0  0  0  0  0  2  0  0  0  0  0  0
  2 10  1  6  0  0  0
  2  9  1  0  0  0  0
  3  9  2  0  0  0  0
  4 14  1  0  0  0  0
  5 10  2  0  0  0  0
  7  8  1  0  0  0  0
  7 12  1  0  0  0  0
  9 23  1  0  0  0  0
 10  8  1  0  0  0  0
 11  5  1  0  0  0  0
 11  1  1  1  0  0  0
 11  4  1  0  0  0  0
 12  3  1  0  0  0  0
 13  4  2  0  0  0  0
 14  6  2  0  0  0  0
 14  2  1  0  0  0  0
 17 26  1  6  0  0  0
 17 25  1  0  0  0  0
 18 19  1  0  0  0  0
 18 15  2  0  0  0  0
 19 21  1  0  0  0  0
 20 18  1  0  0  0  0
 23 22  2  0  0  0  0
 23 20  1  0  0  0  0
 24 22  1  6  0  0  0
 24 17  1  0  0  0  0
 24 19  1  0  0  0  0
 25 21  1  0  0  0  0
 25 16  1  1  0  0  0
 26 27  1  1  0  0  0
 28 26  1  0  0  0  0
 29 28  2  0  0  0  0
 31 30  1  0  0  0  0
 31 29  1  0  0  0  0
 32 13  1  0  0  0  0
 33 32  1  0  0  0  0
 34 39  1  0  0  0  0
 34 36  1  1  0  0  0
 35 39  1  0  0  0  0
 37 33  1  1  0  0  0
 37 40  1  0  0  0  0
 37 35  1  0  0  0  0
 38 39  1  0  0  0  0
 40 34  1  0  0  0  0
M  END
>  <MODEL>
9

>  <REMARK>
 VINA RESULT:      -6.8      3.133      5.877
  Name = 
  7 active torsions:
  status: ('A' for Active; 'I' for Inactive)
    1  A    between atoms: C_10  and  C_20
    2  A    between atoms: N_15  and  C_20
    3  A    between atoms: C_21  and  C_26
    4  A    between atoms: C_22  and  C_31
    5  A    between atoms: C_22  and  C_38
    6  A    between atoms: C_27  and  C_31
    7  A    between atoms: C_33  and  C_35
                            x       y       z     vdW  Elec       q    Type
                         _______ _______ _______ _____ _____    ______ ____

>  <TORSDO>
F 7

$$$$
