=
 OpenBabel10232410353D

 50 55  0  0  1  0  0  0  0  0999 V2000
  190.3970  176.1400  138.7510 C   0  0  2  0  0  3  0  0  0  0  0  0
  190.1610  173.5080  136.1010 N   0  0  0  0  0  0  0  0  0  0  0  0
  187.8730  176.3390  138.2040 C   0  0  0  0  0  2  0  0  0  0  0  0
  189.2050  175.8240  136.2020 N   0  0  0  0  0  0  0  0  0  0  0  0
  189.2020  177.0480  138.3810 C   0  0  2  0  0  0  0  0  0  0  0  0
  189.9460  174.7440  136.8040 C   0  0  0  0  0  0  0  0  0  0  0  0
  191.7200  176.8790  138.5700 C   0  0  0  0  0  1  0  0  0  0  0  0
  189.1590  175.9490  134.7520 C   0  0  0  0  0  1  0  0  0  0  0  0
  190.4420  174.8930  137.9950 N   0  0  0  0  0  0  0  0  0  0  0  0
  188.6040  176.9100  136.9850 C   0  0  2  0  0  3  0  0  0  0  0  0
  189.3000  171.5540  134.8490 C   0  0  0  0  0  3  0  0  0  0  0  0
  186.6770  172.4750  135.1360 C   0  0  0  0  0  3  0  0  0  0  0  0
  188.2330  170.8020  134.3460 C   0  0  0  0  0  3  0  0  0  0  0  0
  186.9220  171.2610  134.4910 C   0  0  0  0  0  3  0  0  0  0  0  0
  187.7450  173.2290  135.6350 C   0  0  0  0  0  3  0  0  0  0  0  0
  189.0700  172.7810  135.4970 C   0  0  0  0  0  0  0  0  0  0  0  0
  189.0520  179.4250  138.4050 O   0  0  0  0  0  0  0  0  0  0  0  0
  189.0790  178.3720  139.0970 C   0  0  0  0  0  0  0  0  0  0  0  0
  188.9620  178.5000  140.5210 N   0  0  0  0  0  2  0  0  0  0  0  0
  189.1360  178.0340  146.6050 O   0  0  0  0  0  0  0  0  0  0  0  0
  186.8930  177.4150  146.0850 C   0  0  0  0  0  2  0  0  0  0  0  0
  188.3050  177.7420  145.7020 C   0  0  0  0  0  0  0  0  0  0  0  0
  186.2880  178.5300  146.8790 C   0  0  0  0  0  3  0  0  0  0  0  0
  184.0790  178.2690  145.7430 C   0  0  0  0  0  2  0  0  0  0  0  0
  190.2510  178.5260  142.5940 C   0  0  0  0  0  2  0  0  0  0  0  0
  183.8730  179.1750  144.5340 C   0  0  0  0  0  2  0  0  0  0  0  0
  185.5810  178.1820  143.1740 O   0  0  0  0  0  0  0  0  0  0  0  0
  186.9130  178.4190  142.8450 C   0  0  0  0  0  2  0  0  0  0  0  0
  185.0090  178.9000  146.7420 C   0  0  0  0  0  3  0  0  0  0  0  0
  188.7250  177.6870  144.3290 N   0  0  0  0  0  0  0  0  0  0  0  0
  187.7900  177.2500  143.2810 C   0  0  2  0  0  3  0  0  0  0  0  0
  188.5560  176.6700  142.0810 C   0  0  0  0  0  2  0  0  0  0  0  0
  190.1320  177.9360  144.0010 C   0  0  0  0  0  2  0  0  0  0  0  0
  185.1570  179.3840  143.7420 C   0  0  0  0  0  2  0  0  0  0  0  0
  189.6000  177.6460  141.5160 C   0  0  1  0  0  3  0  0  0  0  0  0
  191.4540  172.8490  136.2610 C   0  0  0  0  0  2  0  0  0  0  0  0
  192.3690  173.2010  135.0980 C   0  0  0  0  0  2  0  0  0  0  0  0
  193.2230  171.9980  134.7430 C   0  0  0  0  0  2  0  0  0  0  0  0
  195.9160  172.0140  137.4240 C   0  0  0  0  0  0  0  0  0  0  0  0
  195.9670  170.5410  137.7780 C   0  0  0  0  0  2  0  0  0  0  0  0
  194.6890  169.8840  137.4910 N   0  0  0  0  0  0  0  0  0  0  0  0
  195.0460  172.4580  136.5090 C   0  0  0  0  0  3  0  0  0  0  0  0
  193.8640  170.3350  136.4130 C   0  0  0  0  0  3  0  0  0  0  0  0
  194.0590  171.5500  135.8940 C   0  0  0  0  0  0  0  0  0  0  0  0
  194.3810  168.6260  138.1410 C   0  0  0  0  0  1  0  0  0  0  0  0
  196.7480  172.9300  138.0640 O   0  0  0  0  0  0  0  0  0  0  0  0
  196.2360  173.9790  138.8880 C   0  0  0  0  0  2  0  0  0  0  0  0
  197.3280  174.9120  139.3260 C   0  0  0  0  0  0  0  0  0  0  0  0
  197.4010  175.3340  140.7540 C   0  0  0  0  0  1  0  0  0  0  0  0
  198.1330  175.3610  138.5270 O   0  0  0  0  0  0  0  0  0  0  0  0
  1  7  1  6  0  0  0
  2 36  1  0  0  0  0
  2  6  1  0  0  0  0
  3  5  1  0  0  0  0
  4  6  1  0  0  0  0
  4 10  1  0  0  0  0
  5  1  1  0  0  0  0
  5 18  1  1  0  0  0
  6  9  2  0  0  0  0
  8  4  1  0  0  0  0
  9  1  1  0  0  0  0
 10  3  1  1  0  0  0
 10  5  1  0  0  0  0
 11 16  1  0  0  0  0
 12 15  1  0  0  0  0
 13 14  1  0  0  0  0
 13 11  2  0  0  0  0
 14 12  2  0  0  0  0
 16 15  2  0  0  0  0
 16  2  1  0  0  0  0
 17 18  2  0  0  0  0
 18 19  1  0  0  0  0
 21 23  1  0  0  0  0
 22 21  1  0  0  0  0
 22 20  2  0  0  0  0
 24 29  1  0  0  0  0
 25 33  1  0  0  0  0
 26 24  1  0  0  0  0
 27 34  1  0  0  0  0
 28 27  1  0  0  0  0
 28 31  1  0  0  0  0
 29 23  2  0  0  0  0
 30 22  1  0  0  0  0
 31 32  1  6  0  0  0
 31 30  1  0  0  0  0
 33 30  1  0  0  0  0
 34 26  1  0  0  0  0
 35 19  1  6  0  0  0
 35 32  1  0  0  0  0
 35 25  1  0  0  0  0
 37 36  1  0  0  0  0
 38 37  1  0  0  0  0
 38 44  1  0  0  0  0
 39 40  1  0  0  0  0
 39 46  1  0  0  0  0
 41 40  1  0  0  0  0
 41 45  1  0  0  0  0
 42 39  2  0  0  0  0
 43 41  1  0  0  0  0
 44 43  2  0  0  0  0
 44 42  1  0  0  0  0
 46 47  1  0  0  0  0
 47 48  1  0  0  0  0
 48 49  1  0  0  0  0
 50 48  2  0  0  0  0
M  END
>  <MODEL>
1

>  <REMARK>
 VINA RESULT:      -8.5      0.000      0.000
  Name = 
  10 active torsions:
  status: ('A' for Active; 'I' for Inactive)
    1  A    between atoms: C_2  and  C_7
    2  A    between atoms: C_2  and  O_42
    3  A    between atoms: C_5  and  O_42
    4  A    between atoms: C_9  and  C_44
    5  A    between atoms: C_9  and  C_50
    6  A    between atoms: N_10  and  C_26
    7  A    between atoms: N_10  and  C_38
    8  A    between atoms: C_22  and  C_30
    9  A    between atoms: C_26  and  C_50
   10  A    between atoms: C_47  and  N_49
                            x       y       z     vdW  Elec       q    Type
                         _______ _______ _______ _____ _____    ______ ____

>  <TORSDO>
F 10

$$$$
=
 OpenBabel10232410353D

 50 55  0  0  1  0  0  0  0  0999 V2000
  188.1410  177.4690  140.9160 C   0  0  2  0  0  3  0  0  0  0  0  0
  188.8010  177.4520  144.5990 N   0  0  0  0  0  0  0  0  0  0  0  0
  190.6510  176.8300  140.8760 C   0  0  0  0  0  2  0  0  0  0  0  0
  190.1340  178.3990  142.6990 N   0  0  0  0  0  0  0  0  0  0  0  0
  189.5560  177.7430  140.3590 C   0  0  2  0  0  0  0  0  0  0  0  0
  188.9940  177.6680  143.1910 C   0  0  0  0  0  0  0  0  0  0  0  0
  187.1990  178.6300  140.6080 C   0  0  0  0  0  1  0  0  0  0  0  0
  190.7730  179.3950  143.5470 C   0  0  0  0  0  1  0  0  0  0  0  0
  188.1170  177.2070  142.3510 N   0  0  0  0  0  0  0  0  0  0  0  0
  190.6070  178.2980  141.3140 C   0  0  2  0  0  3  0  0  0  0  0  0
  190.9240  176.2080  144.8640 C   0  0  0  0  0  3  0  0  0  0  0  0
  190.9320  176.7270  147.6100 C   0  0  0  0  0  3  0  0  0  0  0  0
  191.9870  175.7650  145.6590 C   0  0  0  0  0  3  0  0  0  0  0  0
  191.9920  176.0260  147.0320 C   0  0  0  0  0  3  0  0  0  0  0  0
  189.8670  177.1660  146.8150 C   0  0  0  0  0  3  0  0  0  0  0  0
  189.8470  176.9110  145.4340 C   0  0  0  0  0  0  0  0  0  0  0  0
  189.3440  179.1890  138.4770 O   0  0  0  0  0  0  0  0  0  0  0  0
  189.6820  178.0450  138.8840 C   0  0  0  0  0  0  0  0  0  0  0  0
  190.1930  177.1120  137.9210 N   0  0  0  0  0  2  0  0  0  0  0  0
  192.0550  172.2890  134.6750 O   0  0  0  0  0  0  0  0  0  0  0  0
  194.0630  173.0390  135.7190 C   0  0  0  0  0  2  0  0  0  0  0  0
  192.5760  173.0550  135.5320 C   0  0  0  0  0  0  0  0  0  0  0  0
  194.7620  173.3090  134.4230 C   0  0  0  0  0  3  0  0  0  0  0  0
  196.4980  174.7140  135.5410 C   0  0  0  0  0  2  0  0  0  0  0  0
  189.6510  175.1770  136.5350 C   0  0  0  0  0  2  0  0  0  0  0  0
  196.1970  176.2090  135.5550 C   0  0  0  0  0  2  0  0  0  0  0  0
  194.2650  176.0690  136.9690 O   0  0  0  0  0  0  0  0  0  0  0  0
  192.8800  176.0180  136.8300 C   0  0  0  0  0  2  0  0  0  0  0  0
  195.8770  174.0460  134.3460 C   0  0  0  0  0  3  0  0  0  0  0  0
  191.7420  173.8990  136.3430 N   0  0  0  0  0  0  0  0  0  0  0  0
  192.3300  174.7190  137.4130 C   0  0  2  0  0  3  0  0  0  0  0  0
  191.2880  175.0120  138.5030 C   0  0  0  0  0  2  0  0  0  0  0  0
  190.2860  173.8290  136.1860 C   0  0  0  0  0  2  0  0  0  0  0  0
  194.7100  176.4980  135.7180 C   0  0  0  0  0  2  0  0  0  0  0  0
  190.0130  175.6660  137.9450 C   0  0  1  0  0  3  0  0  0  0  0  0
  187.4360  177.5120  145.1180 C   0  0  0  0  0  2  0  0  0  0  0  0
  186.6560  178.6110  144.4130 C   0  0  0  0  0  2  0  0  0  0  0  0
  185.3190  178.8060  145.1050 C   0  0  0  0  0  2  0  0  0  0  0  0
  183.4070  178.1630  141.8850 C   0  0  0  0  0  0  0  0  0  0  0  0
  182.0610  178.7660  142.2330 C   0  0  0  0  0  2  0  0  0  0  0  0
  181.8340  178.7520  143.6810 N   0  0  0  0  0  0  0  0  0  0  0  0
  184.3950  178.1530  142.7870 C   0  0  0  0  0  3  0  0  0  0  0  0
  182.9320  178.8720  144.5910 C   0  0  0  0  0  3  0  0  0  0  0  0
  184.1750  178.6390  144.1620 C   0  0  0  0  0  0  0  0  0  0  0  0
  180.4810  178.8670  144.1840 C   0  0  0  0  0  1  0  0  0  0  0  0
  183.6270  177.5840  140.6360 O   0  0  0  0  0  0  0  0  0  0  0  0
  183.1710  178.1900  139.4250 C   0  0  0  0  0  2  0  0  0  0  0  0
  184.2520  179.0120  138.7850 C   0  0  0  0  0  0  0  0  0  0  0  0
  185.1650  178.3750  137.7940 C   0  0  0  0  0  1  0  0  0  0  0  0
  184.4200  180.1810  139.0890 O   0  0  0  0  0  0  0  0  0  0  0  0
  1  7  1  1  0  0  0
  1  9  1  0  0  0  0
  2 36  1  0  0  0  0
  2 16  1  0  0  0  0
  4  6  1  0  0  0  0
  4  8  1  0  0  0  0
  5 18  1  6  0  0  0
  5  3  1  0  0  0  0
  5  1  1  0  0  0  0
  5 10  1  0  0  0  0
  6  2  1  0  0  0  0
  9  6  2  0  0  0  0
 10  3  1  1  0  0  0
 10  4  1  0  0  0  0
 11 16  2  0  0  0  0
 11 13  1  0  0  0  0
 13 14  2  0  0  0  0
 14 12  1  0  0  0  0
 15 12  2  0  0  0  0
 16 15  1  0  0  0  0
 17 18  2  0  0  0  0
 19 18  1  0  0  0  0
 20 22  2  0  0  0  0
 22 21  1  0  0  0  0
 22 30  1  0  0  0  0
 23 21  1  0  0  0  0
 24 26  1  0  0  0  0
 25 35  1  0  0  0  0
 26 34  1  0  0  0  0
 28 27  1  0  0  0  0
 29 23  2  0  0  0  0
 29 24  1  0  0  0  0
 30 31  1  0  0  0  0
 31 28  1  6  0  0  0
 31 32  1  0  0  0  0
 33 30  1  0  0  0  0
 33 25  1  0  0  0  0
 34 27  1  0  0  0  0
 35 19  1  6  0  0  0
 35 32  1  0  0  0  0
 37 38  1  0  0  0  0
 37 36  1  0  0  0  0
 39 40  1  0  0  0  0
 39 42  2  0  0  0  0
 40 41  1  0  0  0  0
 41 45  1  0  0  0  0
 41 43  1  0  0  0  0
 42 44  1  0  0  0  0
 44 43  2  0  0  0  0
 44 38  1  0  0  0  0
 46 39  1  0  0  0  0
 47 46  1  0  0  0  0
 48 50  2  0  0  0  0
 48 47  1  0  0  0  0
 49 48  1  0  0  0  0
M  END
>  <MODEL>
2

>  <REMARK>
 VINA RESULT:      -8.2      2.804     11.669
  Name = 
  10 active torsions:
  status: ('A' for Active; 'I' for Inactive)
    1  A    between atoms: C_2  and  C_7
    2  A    between atoms: C_2  and  O_42
    3  A    between atoms: C_5  and  O_42
    4  A    between atoms: C_9  and  C_44
    5  A    between atoms: C_9  and  C_50
    6  A    between atoms: N_10  and  C_26
    7  A    between atoms: N_10  and  C_38
    8  A    between atoms: C_22  and  C_30
    9  A    between atoms: C_26  and  C_50
   10  A    between atoms: C_47  and  N_49
                            x       y       z     vdW  Elec       q    Type
                         _______ _______ _______ _____ _____    ______ ____

>  <TORSDO>
F 10

$$$$
=
 OpenBabel10232410353D

 50 55  0  0  1  0  0  0  0  0999 V2000
  187.7660  178.7590  137.1370 C   0  0  2  0  0  3  0  0  0  0  0  0
  184.3440  177.8850  138.3730 N   0  0  0  0  0  0  0  0  0  0  0  0
  186.8390  177.6250  135.0000 C   0  0  0  0  0  2  0  0  0  0  0  0
  185.9990  176.5490  137.0450 N   0  0  0  0  0  0  0  0  0  0  0  0
  187.9590  177.7090  136.0190 C   0  0  2  0  0  0  0  0  0  0  0  0
  185.6070  177.7740  137.6950 C   0  0  0  0  0  0  0  0  0  0  0  0
  188.7550  178.5310  138.2760 C   0  0  0  0  0  1  0  0  0  0  0  0
  185.4620  175.2790  137.5140 C   0  0  0  0  0  1  0  0  0  0  0  0
  186.4130  178.7920  137.6820 N   0  0  0  0  0  0  0  0  0  0  0  0
  187.0400  176.4930  136.0120 C   0  0  2  0  0  3  0  0  0  0  0  0
  182.0190  177.0440  138.4940 C   0  0  0  0  0  3  0  0  0  0  0  0
  181.6900  177.4440  135.7470 C   0  0  0  0  0  3  0  0  0  0  0  0
  180.7880  176.7730  137.8870 C   0  0  0  0  0  3  0  0  0  0  0  0
  180.6220  176.9750  136.5150 C   0  0  0  0  0  3  0  0  0  0  0  0
  182.9220  177.7110  136.3530 C   0  0  0  0  0  3  0  0  0  0  0  0
  183.1050  177.5120  137.7320 C   0  0  0  0  0  0  0  0  0  0  0  0
  189.5740  178.2270  134.3460 O   0  0  0  0  0  0  0  0  0  0  0  0
  189.3330  177.5850  135.4040 C   0  0  0  0  0  0  0  0  0  0  0  0
  190.3910  176.8000  135.9700 N   0  0  0  0  0  2  0  0  0  0  0  0
  193.1100  171.3360  136.1030 O   0  0  0  0  0  0  0  0  0  0  0  0
  194.7700  172.7820  137.0180 C   0  0  0  0  0  2  0  0  0  0  0  0
  193.3800  172.4880  136.5400 C   0  0  0  0  0  0  0  0  0  0  0  0
  195.7720  172.4850  135.9470 C   0  0  0  0  0  3  0  0  0  0  0  0
  197.1380  174.4910  136.5350 C   0  0  0  0  0  2  0  0  0  0  0  0
  190.2580  174.3790  135.6820 C   0  0  0  0  0  2  0  0  0  0  0  0
  196.8160  175.7420  135.7220 C   0  0  0  0  0  2  0  0  0  0  0  0
  194.5890  176.0290  136.5660 O   0  0  0  0  0  0  0  0  0  0  0  0
  193.2870  175.7160  136.1840 C   0  0  0  0  0  2  0  0  0  0  0  0
  196.8560  173.2440  135.7440 C   0  0  0  0  0  3  0  0  0  0  0  0
  192.3510  173.4890  136.6120 N   0  0  0  0  0  0  0  0  0  0  0  0
  192.6310  174.8020  137.2140 C   0  0  2  0  0  3  0  0  0  0  0  0
  191.3390  175.4340  137.7550 C   0  0  0  0  0  2  0  0  0  0  0  0
  190.9850  173.1410  136.2090 C   0  0  0  0  0  2  0  0  0  0  0  0
  195.3320  175.8540  135.3980 C   0  0  0  0  0  2  0  0  0  0  0  0
  190.2380  175.5400  136.6880 C   0  0  1  0  0  3  0  0  0  0  0  0
  184.3010  178.6550  139.6130 C   0  0  0  0  0  2  0  0  0  0  0  0
  184.6420  177.7630  140.7970 C   0  0  0  0  0  2  0  0  0  0  0  0
  184.2180  178.4450  142.0850 C   0  0  0  0  0  2  0  0  0  0  0  0
  187.5070  177.6080  143.7940 C   0  0  0  0  0  0  0  0  0  0  0  0
  187.0600  177.5320  145.2400 C   0  0  0  0  0  2  0  0  0  0  0  0
  185.8670  178.3530  145.4680 N   0  0  0  0  0  0  0  0  0  0  0  0
  186.6310  177.9190  142.8320 C   0  0  0  0  0  3  0  0  0  0  0  0
  184.9040  178.5420  144.4270 C   0  0  0  0  0  3  0  0  0  0  0  0
  185.2400  178.2860  143.1600 C   0  0  0  0  0  0  0  0  0  0  0  0
  185.5420  178.7660  146.8180 C   0  0  0  0  0  1  0  0  0  0  0  0
  188.8380  177.3850  143.4480 O   0  0  0  0  0  0  0  0  0  0  0  0
  189.4130  177.9110  142.2490 C   0  0  0  0  0  2  0  0  0  0  0  0
  190.7640  177.3150  141.9840 C   0  0  0  0  0  0  0  0  0  0  0  0
  191.5970  176.8510  143.1300 C   0  0  0  0  0  1  0  0  0  0  0  0
  191.2090  177.2380  140.8510 O   0  0  0  0  0  0  0  0  0  0  0  0
  1  9  1  0  0  0  0
  1  7  1  1  0  0  0
  2 36  1  0  0  0  0
  3  5  1  0  0  0  0
  4  8  1  0  0  0  0
  4  6  1  0  0  0  0
  5 18  1  6  0  0  0
  5  1  1  0  0  0  0
  6  2  1  0  0  0  0
  9  6  2  0  0  0  0
 10  3  1  6  0  0  0
 10  5  1  0  0  0  0
 10  4  1  0  0  0  0
 12 15  2  0  0  0  0
 12 14  1  0  0  0  0
 13 11  1  0  0  0  0
 14 13  2  0  0  0  0
 15 16  1  0  0  0  0
 16  2  1  0  0  0  0
 16 11  2  0  0  0  0
 17 18  2  0  0  0  0
 18 19  1  0  0  0  0
 20 22  2  0  0  0  0
 22 30  1  0  0  0  0
 22 21  1  0  0  0  0
 23 21  1  0  0  0  0
 25 33  1  0  0  0  0
 25 35  1  0  0  0  0
 26 24  1  0  0  0  0
 28 27  1  0  0  0  0
 29 23  2  0  0  0  0
 29 24  1  0  0  0  0
 30 31  1  0  0  0  0
 31 28  1  6  0  0  0
 31 32  1  0  0  0  0
 33 30  1  0  0  0  0
 34 26  1  0  0  0  0
 34 27  1  0  0  0  0
 35 19  1  6  0  0  0
 35 32  1  0  0  0  0
 36 37  1  0  0  0  0
 37 38  1  0  0  0  0
 38 44  1  0  0  0  0
 39 40  1  0  0  0  0
 40 41  1  0  0  0  0
 41 45  1  0  0  0  0
 42 44  1  0  0  0  0
 42 39  2  0  0  0  0
 43 41  1  0  0  0  0
 44 43  2  0  0  0  0
 46 39  1  0  0  0  0
 47 46  1  0  0  0  0
 48 47  1  0  0  0  0
 48 49  1  0  0  0  0
 50 48  2  0  0  0  0
M  END
>  <MODEL>
3

>  <REMARK>
 VINA RESULT:      -8.1      3.254     10.054
  Name = 
  10 active torsions:
  status: ('A' for Active; 'I' for Inactive)
    1  A    between atoms: C_2  and  C_7
    2  A    between atoms: C_2  and  O_42
    3  A    between atoms: C_5  and  O_42
    4  A    between atoms: C_9  and  C_44
    5  A    between atoms: C_9  and  C_50
    6  A    between atoms: N_10  and  C_26
    7  A    between atoms: N_10  and  C_38
    8  A    between atoms: C_22  and  C_30
    9  A    between atoms: C_26  and  C_50
   10  A    between atoms: C_47  and  N_49
                            x       y       z     vdW  Elec       q    Type
                         _______ _______ _______ _____ _____    ______ ____

>  <TORSDO>
F 10

$$$$
=
 OpenBabel10232410353D

 50 55  0  0  1  0  0  0  0  0999 V2000
  190.2030  176.0140  138.3080 C   0  0  2  0  0  3  0  0  0  0  0  0
  189.2820  173.2590  135.9490 N   0  0  0  0  0  0  0  0  0  0  0  0
  187.6390  176.3750  138.2430 C   0  0  0  0  0  2  0  0  0  0  0  0
  188.5160  175.6430  136.0650 N   0  0  0  0  0  0  0  0  0  0  0  0
  189.0190  176.9870  138.1100 C   0  0  2  0  0  0  0  0  0  0  0  0
  189.2900  174.5470  136.5890 C   0  0  0  0  0  0  0  0  0  0  0  0
  191.5090  176.6370  137.8230 C   0  0  0  0  0  1  0  0  0  0  0  0
  188.1930  175.6870  134.6460 C   0  0  0  0  0  1  0  0  0  0  0  0
  190.0180  174.7250  137.6490 N   0  0  0  0  0  0  0  0  0  0  0  0
  188.1510  176.8160  136.8680 C   0  0  2  0  0  3  0  0  0  0  0  0
  188.0160  171.6110  134.6040 C   0  0  0  0  0  3  0  0  0  0  0  0
  185.7150  172.0820  136.1200 C   0  0  0  0  0  3  0  0  0  0  0  0
  186.8450  170.8890  134.3470 C   0  0  0  0  0  3  0  0  0  0  0  0
  185.6960  171.1220  135.1050 C   0  0  0  0  0  3  0  0  0  0  0  0
  186.8840  172.8070  136.3740 C   0  0  0  0  0  3  0  0  0  0  0  0
  188.0490  172.5850  135.6190 C   0  0  0  0  0  0  0  0  0  0  0  0
  189.2110  179.3590  137.9790 O   0  0  0  0  0  0  0  0  0  0  0  0
  189.1250  178.3570  138.7390 C   0  0  0  0  0  0  0  0  0  0  0  0
  189.1050  178.5860  140.1550 N   0  0  0  0  0  2  0  0  0  0  0  0
  188.8670  178.0210  146.2290 O   0  0  0  0  0  0  0  0  0  0  0  0
  186.6590  177.4320  145.5500 C   0  0  0  0  0  2  0  0  0  0  0  0
  188.0960  177.7520  145.2680 C   0  0  0  0  0  0  0  0  0  0  0  0
  186.0120  178.5400  146.3200 C   0  0  0  0  0  3  0  0  0  0  0  0
  183.8820  178.3170  145.0350 C   0  0  0  0  0  2  0  0  0  0  0  0
  190.2530  178.5670  142.3100 C   0  0  0  0  0  2  0  0  0  0  0  0
  183.7640  179.2450  143.8300 C   0  0  0  0  0  2  0  0  0  0  0  0
  185.5510  178.2580  142.5710 O   0  0  0  0  0  0  0  0  0  0  0  0
  186.9050  178.4880  142.3360 C   0  0  0  0  0  2  0  0  0  0  0  0
  184.7470  178.9240  146.1040 C   0  0  0  0  0  3  0  0  0  0  0  0
  188.6070  177.7150  143.9250 N   0  0  0  0  0  0  0  0  0  0  0  0
  187.7400  177.3030  142.8090 C   0  0  2  0  0  3  0  0  0  0  0  0
  188.5800  176.7350  141.6550 C   0  0  0  0  0  2  0  0  0  0  0  0
  190.0350  177.9560  143.6960 C   0  0  0  0  0  2  0  0  0  0  0  0
  185.1000  179.4540  143.1290 C   0  0  0  0  0  2  0  0  0  0  0  0
  189.6680  177.7110  141.1770 C   0  0  1  0  0  3  0  0  0  0  0  0
  190.5360  172.5120  135.9040 C   0  0  0  0  0  2  0  0  0  0  0  0
  191.3940  172.9980  134.7460 C   0  0  0  0  0  2  0  0  0  0  0  0
  192.7640  172.3490  134.8230 C   0  0  0  0  0  2  0  0  0  0  0  0
  195.6280  173.5180  137.0300 C   0  0  0  0  0  0  0  0  0  0  0  0
  195.3990  175.0150  137.0160 C   0  0  0  0  0  2  0  0  0  0  0  0
  194.6930  175.4310  135.8010 N   0  0  0  0  0  0  0  0  0  0  0  0
  194.8290  172.7070  136.3280 C   0  0  0  0  0  3  0  0  0  0  0  0
  193.7540  174.5550  135.1690 C   0  0  0  0  0  3  0  0  0  0  0  0
  193.7720  173.2500  135.4540 C   0  0  0  0  0  0  0  0  0  0  0  0
  194.7600  176.8160  135.3830 C   0  0  0  0  0  1  0  0  0  0  0  0
  196.6870  172.9660  137.7480 O   0  0  0  0  0  0  0  0  0  0  0  0
  197.9800  172.7730  137.1720 C   0  0  0  0  0  2  0  0  0  0  0  0
  198.7080  174.0770  137.0170 C   0  0  0  0  0  0  0  0  0  0  0  0
  199.0130  174.5860  135.6490 C   0  0  0  0  0  1  0  0  0  0  0  0
  199.0890  174.7070  137.9890 O   0  0  0  0  0  0  0  0  0  0  0  0
  1  7  1  6  0  0  0
  2  6  1  0  0  0  0
  4  6  1  0  0  0  0
  4 10  1  0  0  0  0
  5  3  1  0  0  0  0
  5  1  1  0  0  0  0
  5 18  1  1  0  0  0
  6  9  2  0  0  0  0
  8  4  1  0  0  0  0
  9  1  1  0  0  0  0
 10  5  1  0  0  0  0
 10  3  1  1  0  0  0
 11 16  1  0  0  0  0
 12 15  1  0  0  0  0
 13 11  2  0  0  0  0
 13 14  1  0  0  0  0
 14 12  2  0  0  0  0
 16  2  1  0  0  0  0
 16 15  2  0  0  0  0
 17 18  2  0  0  0  0
 18 19  1  0  0  0  0
 21 23  1  0  0  0  0
 22 21  1  0  0  0  0
 22 20  2  0  0  0  0
 24 29  1  0  0  0  0
 25 33  1  0  0  0  0
 26 24  1  0  0  0  0
 27 34  1  0  0  0  0
 28 27  1  0  0  0  0
 28 31  1  0  0  0  0
 29 23  2  0  0  0  0
 30 22  1  0  0  0  0
 31 32  1  6  0  0  0
 31 30  1  0  0  0  0
 33 30  1  0  0  0  0
 34 26  1  0  0  0  0
 35 19  1  6  0  0  0
 35 32  1  0  0  0  0
 35 25  1  0  0  0  0
 36  2  1  0  0  0  0
 37 38  1  0  0  0  0
 37 36  1  0  0  0  0
 38 44  1  0  0  0  0
 39 46  1  0  0  0  0
 40 39  1  0  0  0  0
 41 40  1  0  0  0  0
 42 39  2  0  0  0  0
 43 44  2  0  0  0  0
 43 41  1  0  0  0  0
 44 42  1  0  0  0  0
 45 41  1  0  0  0  0
 47 46  1  0  0  0  0
 48 47  1  0  0  0  0
 48 50  2  0  0  0  0
 49 48  1  0  0  0  0
M  END
>  <MODEL>
4

>  <REMARK>
 VINA RESULT:      -8.1      1.563      2.113
  Name = 
  10 active torsions:
  status: ('A' for Active; 'I' for Inactive)
    1  A    between atoms: C_2  and  C_7
    2  A    between atoms: C_2  and  O_42
    3  A    between atoms: C_5  and  O_42
    4  A    between atoms: C_9  and  C_44
    5  A    between atoms: C_9  and  C_50
    6  A    between atoms: N_10  and  C_26
    7  A    between atoms: N_10  and  C_38
    8  A    between atoms: C_22  and  C_30
    9  A    between atoms: C_26  and  C_50
   10  A    between atoms: C_47  and  N_49
                            x       y       z     vdW  Elec       q    Type
                         _______ _______ _______ _____ _____    ______ ____

>  <TORSDO>
F 10

$$$$
=
 OpenBabel10232410353D

 50 55  0  0  1  0  0  0  0  0999 V2000
  187.9560  178.7680  136.8650 C   0  0  2  0  0  3  0  0  0  0  0  0
  184.5490  177.8570  138.1150 N   0  0  0  0  0  0  0  0  0  0  0  0
  187.1750  177.2970  134.8810 C   0  0  0  0  0  2  0  0  0  0  0  0
  186.3250  176.4600  137.0310 N   0  0  0  0  0  0  0  0  0  0  0  0
  188.2500  177.5900  135.9090 C   0  0  2  0  0  0  0  0  0  0  0  0
  185.8400  177.7350  137.4940 C   0  0  0  0  0  0  0  0  0  0  0  0
  188.9150  178.7600  138.0520 C   0  0  0  0  0  1  0  0  0  0  0  0
  185.8470  175.2340  137.6570 C   0  0  0  0  0  1  0  0  0  0  0  0
  186.5850  178.7900  137.3630 N   0  0  0  0  0  0  0  0  0  0  0  0
  187.4040  176.3280  136.0460 C   0  0  2  0  0  3  0  0  0  0  0  0
  182.6180  176.3080  138.1300 C   0  0  0  0  0  3  0  0  0  0  0  0
  181.6470  177.4330  135.7630 C   0  0  0  0  0  3  0  0  0  0  0  0
  181.4130  175.8560  137.5810 C   0  0  0  0  0  3  0  0  0  0  0  0
  180.9260  176.4190  136.3990 C   0  0  0  0  0  3  0  0  0  0  0  0
  182.8530  177.8810  136.3100 C   0  0  0  0  0  3  0  0  0  0  0  0
  183.3570  177.3240  137.4980 C   0  0  0  0  0  0  0  0  0  0  0  0
  189.9590  178.1700  134.3530 O   0  0  0  0  0  0  0  0  0  0  0  0
  189.6500  177.4690  135.3550 C   0  0  0  0  0  0  0  0  0  0  0  0
  190.6610  176.6240  135.9220 N   0  0  0  0  0  2  0  0  0  0  0  0
  193.2700  171.1050  135.8700 O   0  0  0  0  0  0  0  0  0  0  0  0
  194.8990  172.4570  136.9670 C   0  0  0  0  0  2  0  0  0  0  0  0
  193.5340  172.2220  136.3930 C   0  0  0  0  0  0  0  0  0  0  0  0
  195.9560  172.2040  135.9380 C   0  0  0  0  0  3  0  0  0  0  0  0
  197.3210  174.1410  136.7260 C   0  0  0  0  0  2  0  0  0  0  0  0
  190.5010  174.2280  135.4760 C   0  0  0  0  0  2  0  0  0  0  0  0
  197.0700  175.4450  135.9760 C   0  0  0  0  0  2  0  0  0  0  0  0
  194.8030  175.7290  136.7080 O   0  0  0  0  0  0  0  0  0  0  0  0
  193.5200  175.4670  136.2330 C   0  0  0  0  0  2  0  0  0  0  0  0
  197.0640  172.9510  135.8450 C   0  0  0  0  0  3  0  0  0  0  0  0
  192.5210  173.2390  136.4680 N   0  0  0  0  0  0  0  0  0  0  0  0
  192.7880  174.5060  137.1650 C   0  0  2  0  0  3  0  0  0  0  0  0
  191.4790  175.1320  137.6700 C   0  0  0  0  0  2  0  0  0  0  0  0
  191.1750  172.9450  135.9670 C   0  0  0  0  0  2  0  0  0  0  0  0
  195.6090  175.6090  135.5760 C   0  0  0  0  0  2  0  0  0  0  0  0
  190.4430  175.3260  136.5500 C   0  0  1  0  0  3  0  0  0  0  0  0
  184.4150  178.7860  139.2350 C   0  0  0  0  0  2  0  0  0  0  0  0
  184.8000  178.0960  140.5360 C   0  0  0  0  0  2  0  0  0  0  0  0
  185.5670  179.0660  141.4150 C   0  0  0  0  0  2  0  0  0  0  0  0
  187.6120  177.4580  144.1850 C   0  0  0  0  0  0  0  0  0  0  0  0
  189.0060  177.5570  143.5980 C   0  0  0  0  0  2  0  0  0  0  0  0
  188.9610  177.6020  142.1340 N   0  0  0  0  0  0  0  0  0  0  0  0
  186.5560  177.8980  143.4920 C   0  0  0  0  0  3  0  0  0  0  0  0
  187.8520  178.2030  141.4580 C   0  0  0  0  0  3  0  0  0  0  0  0
  186.7060  178.4010  142.1140 C   0  0  0  0  0  0  0  0  0  0  0  0
  190.1500  177.2610  141.3800 C   0  0  0  0  0  1  0  0  0  0  0  0
  187.4060  176.8820  145.4370 O   0  0  0  0  0  0  0  0  0  0  0  0
  187.1470  177.6660  146.6030 C   0  0  0  0  0  2  0  0  0  0  0  0
  188.2810  177.5790  147.5820 C   0  0  0  0  0  0  0  0  0  0  0  0
  189.4980  176.7960  147.2240 C   0  0  0  0  0  1  0  0  0  0  0  0
  188.2090  178.1050  148.6800 O   0  0  0  0  0  0  0  0  0  0  0  0
  1  9  1  0  0  0  0
  1  7  1  1  0  0  0
  2 36  1  0  0  0  0
  3  5  1  0  0  0  0
  4  6  1  0  0  0  0
  4  8  1  0  0  0  0
  5 18  1  6  0  0  0
  5 10  1  0  0  0  0
  5  1  1  0  0  0  0
  6  2  1  0  0  0  0
  9  6  2  0  0  0  0
 10  3  1  6  0  0  0
 10  4  1  0  0  0  0
 12 15  2  0  0  0  0
 12 14  1  0  0  0  0
 13 11  1  0  0  0  0
 14 13  2  0  0  0  0
 15 16  1  0  0  0  0
 16  2  1  0  0  0  0
 16 11  2  0  0  0  0
 17 18  2  0  0  0  0
 18 19  1  0  0  0  0
 20 22  2  0  0  0  0
 22 30  1  0  0  0  0
 22 21  1  0  0  0  0
 23 21  1  0  0  0  0
 25 33  1  0  0  0  0
 25 35  1  0  0  0  0
 26 24  1  0  0  0  0
 28 27  1  0  0  0  0
 29 23  2  0  0  0  0
 29 24  1  0  0  0  0
 30 31  1  0  0  0  0
 31 28  1  6  0  0  0
 31 32  1  0  0  0  0
 33 30  1  0  0  0  0
 34 26  1  0  0  0  0
 34 27  1  0  0  0  0
 35 19  1  6  0  0  0
 35 32  1  0  0  0  0
 36 37  1  0  0  0  0
 37 38  1  0  0  0  0
 38 44  1  0  0  0  0
 39 46  1  0  0  0  0
 40 39  1  0  0  0  0
 41 40  1  0  0  0  0
 42 39  2  0  0  0  0
 43 44  2  0  0  0  0
 43 41  1  0  0  0  0
 44 42  1  0  0  0  0
 45 41  1  0  0  0  0
 46 47  1  0  0  0  0
 47 48  1  0  0  0  0
 48 50  2  0  0  0  0
 49 48  1  0  0  0  0
M  END
>  <MODEL>
5

>  <REMARK>
 VINA RESULT:      -7.9      3.097     10.072
  Name = 
  10 active torsions:
  status: ('A' for Active; 'I' for Inactive)
    1  A    between atoms: C_2  and  C_7
    2  A    between atoms: C_2  and  O_42
    3  A    between atoms: C_5  and  O_42
    4  A    between atoms: C_9  and  C_44
    5  A    between atoms: C_9  and  C_50
    6  A    between atoms: N_10  and  C_26
    7  A    between atoms: N_10  and  C_38
    8  A    between atoms: C_22  and  C_30
    9  A    between atoms: C_26  and  C_50
   10  A    between atoms: C_47  and  N_49
                            x       y       z     vdW  Elec       q    Type
                         _______ _______ _______ _____ _____    ______ ____

>  <TORSDO>
F 10

$$$$
=
 OpenBabel10232410353D

 50 55  0  0  1  0  0  0  0  0999 V2000
  188.5230  177.5080  137.4890 C   0  0  2  0  0  3  0  0  0  0  0  0
  190.4220  175.0970  135.3490 N   0  0  0  0  0  0  0  0  0  0  0  0
  190.9070  177.9450  138.4020 C   0  0  0  0  0  2  0  0  0  0  0  0
  190.5740  175.5830  137.8040 N   0  0  0  0  0  0  0  0  0  0  0  0
  189.4580  177.6240  138.7140 C   0  0  2  0  0  0  0  0  0  0  0  0
  190.0110  175.8480  136.5040 C   0  0  0  0  0  0  0  0  0  0  0  0
  187.1970  176.8590  137.8750 C   0  0  0  0  0  1  0  0  0  0  0  0
  191.0920  174.2570  138.1100 C   0  0  0  0  0  1  0  0  0  0  0  0
  189.1070  176.7700  136.3740 N   0  0  0  0  0  0  0  0  0  0  0  0
  190.5230  176.5500  138.9060 C   0  0  2  0  0  3  0  0  0  0  0  0
  192.6160  176.0480  134.7110 C   0  0  0  0  0  3  0  0  0  0  0  0
  193.7960  173.5180  134.8410 C   0  0  0  0  0  3  0  0  0  0  0  0
  193.9870  175.9000  134.4740 C   0  0  0  0  0  3  0  0  0  0  0  0
  194.5780  174.6360  134.5410 C   0  0  0  0  0  3  0  0  0  0  0  0
  192.4240  173.6660  135.0740 C   0  0  0  0  0  3  0  0  0  0  0  0
  191.8150  174.9310  135.0090 C   0  0  0  0  0  0  0  0  0  0  0  0
  188.4560  179.5100  139.7700 O   0  0  0  0  0  0  0  0  0  0  0  0
  188.9360  178.3550  139.9280 C   0  0  0  0  0  0  0  0  0  0  0  0
  188.9270  177.7990  141.2500 N   0  0  0  0  0  2  0  0  0  0  0  0
  191.9190  177.1420  146.5310 O   0  0  0  0  0  0  0  0  0  0  0  0
  189.6760  176.5790  147.1120 C   0  0  0  0  0  2  0  0  0  0  0  0
  190.7530  176.8930  146.1180 C   0  0  0  0  0  0  0  0  0  0  0  0
  189.5480  177.6810  148.1190 C   0  0  0  0  0  3  0  0  0  0  0  0
  187.0580  177.4940  148.1480 C   0  0  0  0  0  2  0  0  0  0  0  0
  191.0380  177.7370  142.4750 C   0  0  0  0  0  2  0  0  0  0  0  0
  186.3360  178.4410  147.1950 C   0  0  0  0  0  2  0  0  0  0  0  0
  187.1760  177.4600  145.1740 O   0  0  0  0  0  0  0  0  0  0  0  0
  188.2050  177.6830  144.2620 C   0  0  0  0  0  2  0  0  0  0  0  0
  188.3650  178.0770  148.6050 C   0  0  0  0  0  3  0  0  0  0  0  0
  190.4780  176.8730  144.7070 N   0  0  0  0  0  0  0  0  0  0  0  0
  189.1480  176.4850  144.2130 C   0  0  2  0  0  3  0  0  0  0  0  0
  189.2440  175.9290  142.7840 C   0  0  0  0  0  2  0  0  0  0  0  0
  191.5740  177.1070  143.7620 C   0  0  0  0  0  2  0  0  0  0  0  0
  187.1050  178.6510  145.8960 C   0  0  0  0  0  2  0  0  0  0  0  0
  189.9310  176.9040  141.8130 C   0  0  1  0  0  3  0  0  0  0  0  0
  189.4030  174.7520  134.3610 C   0  0  0  0  0  2  0  0  0  0  0  0
  188.4190  173.7520  134.9500 C   0  0  0  0  0  2  0  0  0  0  0  0
  187.0450  173.9780  134.3460 C   0  0  0  0  0  2  0  0  0  0  0  0
  184.3180  173.5330  136.9550 C   0  0  0  0  0  0  0  0  0  0  0  0
  184.2430  172.0210  137.0260 C   0  0  0  0  0  2  0  0  0  0  0  0
  184.6890  171.4100  135.7710 N   0  0  0  0  0  0  0  0  0  0  0  0
  185.1630  174.1270  136.1050 C   0  0  0  0  0  3  0  0  0  0  0  0
  185.6920  172.0420  134.9690 C   0  0  0  0  0  3  0  0  0  0  0  0
  185.9690  173.3350  135.1560 C   0  0  0  0  0  0  0  0  0  0  0  0
  184.2940  170.0490  135.4690 C   0  0  0  0  0  1  0  0  0  0  0  0
  183.4920  174.3260  137.7490 O   0  0  0  0  0  0  0  0  0  0  0  0
  183.6060  175.7500  137.7830 C   0  0  0  0  0  2  0  0  0  0  0  0
  182.8610  176.3290  138.9510 C   0  0  0  0  0  0  0  0  0  0  0  0
  183.1150  177.7420  139.3520 C   0  0  0  0  0  1  0  0  0  0  0  0
  182.0810  175.6530  139.6010 O   0  0  0  0  0  0  0  0  0  0  0  0
  1  7  1  1  0  0  0
  1  5  1  0  0  0  0
  2  6  1  0  0  0  0
  3  5  1  0  0  0  0
  4  8  1  0  0  0  0
  4 10  1  0  0  0  0
  5 10  1  0  0  0  0
  5 18  1  1  0  0  0
  6  4  1  0  0  0  0
  9  6  2  0  0  0  0
  9  1  1  0  0  0  0
 10  3  1  6  0  0  0
 11 16  1  0  0  0  0
 12 15  1  0  0  0  0
 13 14  1  0  0  0  0
 13 11  2  0  0  0  0
 14 12  2  0  0  0  0
 16 15  2  0  0  0  0
 16  2  1  0  0  0  0
 17 18  2  0  0  0  0
 18 19  1  0  0  0  0
 21 23  1  0  0  0  0
 22 20  2  0  0  0  0
 22 21  1  0  0  0  0
 23 29  2  0  0  0  0
 24 29  1  0  0  0  0
 25 33  1  0  0  0  0
 26 24  1  0  0  0  0
 27 34  1  0  0  0  0
 28 27  1  0  0  0  0
 30 22  1  0  0  0  0
 31 32  1  6  0  0  0
 31 28  1  0  0  0  0
 31 30  1  0  0  0  0
 33 30  1  0  0  0  0
 34 26  1  0  0  0  0
 35 19  1  1  0  0  0
 35 25  1  0  0  0  0
 35 32  1  0  0  0  0
 36 37  1  0  0  0  0
 36  2  1  0  0  0  0
 38 37  1  0  0  0  0
 38 44  1  0  0  0  0
 39 40  1  0  0  0  0
 39 46  1  0  0  0  0
 41 40  1  0  0  0  0
 42 39  2  0  0  0  0
 43 44  2  0  0  0  0
 43 41  1  0  0  0  0
 44 42  1  0  0  0  0
 45 41  1  0  0  0  0
 46 47  1  0  0  0  0
 47 48  1  0  0  0  0
 48 49  1  0  0  0  0
 48 50  2  0  0  0  0
M  END
>  <MODEL>
6

>  <REMARK>
 VINA RESULT:      -7.0      3.365      6.750
  Name = 
  10 active torsions:
  status: ('A' for Active; 'I' for Inactive)
    1  A    between atoms: C_2  and  C_7
    2  A    between atoms: C_2  and  O_42
    3  A    between atoms: C_5  and  O_42
    4  A    between atoms: C_9  and  C_44
    5  A    between atoms: C_9  and  C_50
    6  A    between atoms: N_10  and  C_26
    7  A    between atoms: N_10  and  C_38
    8  A    between atoms: C_22  and  C_30
    9  A    between atoms: C_26  and  C_50
   10  A    between atoms: C_47  and  N_49
                            x       y       z     vdW  Elec       q    Type
                         _______ _______ _______ _____ _____    ______ ____

>  <TORSDO>
F 10

$$$$
=
 OpenBabel10232410353D

 50 55  0  0  1  0  0  0  0  0999 V2000
  185.9040  177.3600  137.7990 C   0  0  2  0  0  3  0  0  0  0  0  0
  184.0650  175.0660  135.4860 N   0  0  0  0  0  0  0  0  0  0  0  0
  183.7340  177.0500  139.1770 C   0  0  0  0  0  2  0  0  0  0  0  0
  183.2870  177.0810  136.7590 N   0  0  0  0  0  0  0  0  0  0  0  0
  184.7340  178.0130  138.5700 C   0  0  2  0  0  0  0  0  0  0  0  0
  184.3170  176.1330  136.4160 C   0  0  0  0  0  0  0  0  0  0  0  0
  186.6450  178.3930  136.9550 C   0  0  0  0  0  1  0  0  0  0  0  0
  182.2160  177.3580  135.8120 C   0  0  0  0  0  1  0  0  0  0  0  0
  185.4970  176.2510  136.9440 N   0  0  0  0  0  0  0  0  0  0  0  0
  183.3360  177.9070  137.9710 C   0  0  2  0  0  3  0  0  0  0  0  0
  182.1040  173.8980  134.5280 C   0  0  0  0  0  3  0  0  0  0  0  0
  181.6440  172.5940  136.9570 C   0  0  0  0  0  3  0  0  0  0  0  0
  181.0590  172.9740  134.6420 C   0  0  0  0  0  3  0  0  0  0  0  0
  180.8300  172.3200  135.8550 C   0  0  0  0  0  3  0  0  0  0  0  0
  182.6860  173.5210  136.8430 C   0  0  0  0  0  3  0  0  0  0  0  0
  182.9280  174.1880  135.6300 C   0  0  0  0  0  0  0  0  0  0  0  0
  184.4840  180.2860  139.2390 O   0  0  0  0  0  0  0  0  0  0  0  0
  185.0530  179.1840  139.4680 C   0  0  0  0  0  0  0  0  0  0  0  0
  185.9460  179.1090  140.5880 N   0  0  0  0  0  2  0  0  0  0  0  0
  190.4870  178.1880  144.5630 O   0  0  0  0  0  0  0  0  0  0  0  0
  188.5990  177.2590  145.6830 C   0  0  0  0  0  2  0  0  0  0  0  0
  189.2780  177.8390  144.4800 C   0  0  0  0  0  0  0  0  0  0  0  0
  188.6960  178.1950  146.8480 C   0  0  0  0  0  3  0  0  0  0  0  0
  186.3670  177.6730  147.5840 C   0  0  0  0  0  2  0  0  0  0  0  0
  188.3320  179.1750  141.1050 C   0  0  0  0  0  2  0  0  0  0  0  0
  185.3020  178.6300  147.0550 C   0  0  0  0  0  2  0  0  0  0  0  0
  185.5500  178.0380  144.7440 O   0  0  0  0  0  0  0  0  0  0  0  0
  186.2180  178.5120  143.6180 C   0  0  0  0  0  2  0  0  0  0  0  0
  187.6950  178.3640  147.7210 C   0  0  0  0  0  3  0  0  0  0  0  0
  188.5780  177.9640  143.2300 N   0  0  0  0  0  0  0  0  0  0  0  0
  187.2000  177.4680  143.0960 C   0  0  2  0  0  3  0  0  0  0  0  0
  186.8920  177.1170  141.6320 C   0  0  0  0  0  2  0  0  0  0  0  0
  189.2980  178.4620  142.0540 C   0  0  0  0  0  2  0  0  0  0  0  0
  185.6040  179.1050  145.6400 C   0  0  0  0  0  2  0  0  0  0  0  0
  187.1510  178.2920  140.6740 C   0  0  1  0  0  3  0  0  0  0  0  0
  185.1350  174.7000  134.5620 C   0  0  0  0  0  2  0  0  0  0  0  0
  185.5820  173.2680  134.8200 C   0  0  0  0  0  2  0  0  0  0  0  0
  186.4690  173.2280  136.0510 C   0  0  0  0  0  2  0  0  0  0  0  0
  189.6890  175.1790  135.5410 C   0  0  0  0  0  0  0  0  0  0  0  0
  190.4640  174.2170  134.6640 C   0  0  0  0  0  2  0  0  0  0  0  0
  190.0250  172.8360  134.8780 N   0  0  0  0  0  0  0  0  0  0  0  0
  188.4710  174.8530  135.9880 C   0  0  0  0  0  3  0  0  0  0  0  0
  188.6690  172.5500  135.2350 C   0  0  0  0  0  3  0  0  0  0  0  0
  187.8930  173.5230  135.7200 C   0  0  0  0  0  0  0  0  0  0  0  0
  190.8990  171.7480  134.4880 C   0  0  0  0  0  1  0  0  0  0  0  0
  190.2420  176.4010  135.9200 O   0  0  0  0  0  0  0  0  0  0  0  0
  190.1180  176.9150  137.2480 C   0  0  0  0  0  2  0  0  0  0  0  0
  191.1210  176.2890  138.1720 C   0  0  0  0  0  0  0  0  0  0  0  0
  192.5540  176.2330  137.7660 C   0  0  0  0  0  1  0  0  0  0  0  0
  190.7790  175.7900  139.2310 O   0  0  0  0  0  0  0  0  0  0  0  0
  1  7  1  6  0  0  0
  1  5  1  0  0  0  0
  2 16  1  0  0  0  0
  2  6  1  0  0  0  0
  4 10  1  0  0  0  0
  5  3  1  0  0  0  0
  5 18  1  1  0  0  0
  6  4  1  0  0  0  0
  6  9  2  0  0  0  0
  8  4  1  0  0  0  0
  9  1  1  0  0  0  0
 10  5  1  0  0  0  0
 10  3  1  1  0  0  0
 11 13  2  0  0  0  0
 11 16  1  0  0  0  0
 13 14  1  0  0  0  0
 14 12  2  0  0  0  0
 15 12  1  0  0  0  0
 16 15  2  0  0  0  0
 17 18  2  0  0  0  0
 18 19  1  0  0  0  0
 21 23  1  0  0  0  0
 22 20  2  0  0  0  0
 22 21  1  0  0  0  0
 23 29  2  0  0  0  0
 24 29  1  0  0  0  0
 25 33  1  0  0  0  0
 26 24  1  0  0  0  0
 27 34  1  0  0  0  0
 28 27  1  0  0  0  0
 30 22  1  0  0  0  0
 31 32  1  6  0  0  0
 31 30  1  0  0  0  0
 31 28  1  0  0  0  0
 33 30  1  0  0  0  0
 34 26  1  0  0  0  0
 35 19  1  1  0  0  0
 35 25  1  0  0  0  0
 35 32  1  0  0  0  0
 36 37  1  0  0  0  0
 36  2  1  0  0  0  0
 37 38  1  0  0  0  0
 39 46  1  0  0  0  0
 39 42  2  0  0  0  0
 40 41  1  0  0  0  0
 40 39  1  0  0  0  0
 41 43  1  0  0  0  0
 43 44  2  0  0  0  0
 44 42  1  0  0  0  0
 44 38  1  0  0  0  0
 45 41  1  0  0  0  0
 46 47  1  0  0  0  0
 47 48  1  0  0  0  0
 48 50  2  0  0  0  0
 49 48  1  0  0  0  0
M  END
>  <MODEL>
7

>  <REMARK>
 VINA RESULT:      -6.9      3.157      5.226
  Name = 
  10 active torsions:
  status: ('A' for Active; 'I' for Inactive)
    1  A    between atoms: C_2  and  C_7
    2  A    between atoms: C_2  and  O_42
    3  A    between atoms: C_5  and  O_42
    4  A    between atoms: C_9  and  C_44
    5  A    between atoms: C_9  and  C_50
    6  A    between atoms: N_10  and  C_26
    7  A    between atoms: N_10  and  C_38
    8  A    between atoms: C_22  and  C_30
    9  A    between atoms: C_26  and  C_50
   10  A    between atoms: C_47  and  N_49
                            x       y       z     vdW  Elec       q    Type
                         _______ _______ _______ _____ _____    ______ ____

>  <TORSDO>
F 10

$$$$
=
 OpenBabel10232410353D

 50 55  0  0  1  0  0  0  0  0999 V2000
  187.6090  177.8900  136.1310 C   0  0  2  0  0  3  0  0  0  0  0  0
  184.3150  176.2950  136.9060 N   0  0  0  0  0  0  0  0  0  0  0  0
  187.6820  175.9530  134.4140 C   0  0  0  0  0  2  0  0  0  0  0  0
  186.5730  175.2830  136.5040 N   0  0  0  0  0  0  0  0  0  0  0  0
  188.3870  176.6980  135.5310 C   0  0  2  0  0  0  0  0  0  0  0  0
  185.7070  176.4330  136.5750 C   0  0  0  0  0  0  0  0  0  0  0  0
  188.2380  178.3450  137.4460 C   0  0  0  0  0  1  0  0  0  0  0  0
  186.2620  174.0950  137.2860 C   0  0  0  0  0  1  0  0  0  0  0  0
  186.1940  177.6160  136.3520 N   0  0  0  0  0  0  0  0  0  0  0  0
  187.8530  175.2930  135.7860 C   0  0  2  0  0  3  0  0  0  0  0  0
  183.8520  174.8120  134.9790 C   0  0  0  0  0  3  0  0  0  0  0  0
  181.4960  173.9130  136.1860 C   0  0  0  0  0  3  0  0  0  0  0  0
  183.0710  173.8340  134.3530 C   0  0  0  0  0  3  0  0  0  0  0  0
  181.8950  173.3830  134.9570 C   0  0  0  0  0  3  0  0  0  0  0  0
  182.2750  174.8940  136.8090 C   0  0  0  0  0  3  0  0  0  0  0  0
  183.4610  175.3590  136.2150 C   0  0  0  0  0  0  0  0  0  0  0  0
  190.2270  177.6410  134.3460 O   0  0  0  0  0  0  0  0  0  0  0  0
  189.8670  176.8790  135.2830 C   0  0  0  0  0  0  0  0  0  0  0  0
  190.8880  176.2550  136.0740 N   0  0  0  0  0  2  0  0  0  0  0  0
  193.9810  170.9990  135.7980 O   0  0  0  0  0  0  0  0  0  0  0  0
  195.5270  172.4750  136.8540 C   0  0  0  0  0  2  0  0  0  0  0  0
  194.1660  172.1270  136.3320 C   0  0  0  0  0  0  0  0  0  0  0  0
  196.5580  172.3380  135.7770 C   0  0  0  0  0  3  0  0  0  0  0  0
  197.7750  174.3780  136.5480 C   0  0  0  0  0  2  0  0  0  0  0  0
  190.9270  173.8630  135.5850 C   0  0  0  0  0  2  0  0  0  0  0  0
  197.3730  175.6660  135.8360 C   0  0  0  0  0  2  0  0  0  0  0  0
  195.1240  175.7290  136.6670 O   0  0  0  0  0  0  0  0  0  0  0  0
  193.8510  175.3590  136.2410 C   0  0  0  0  0  2  0  0  0  0  0  0
  197.5880  173.1840  135.6530 C   0  0  0  0  0  3  0  0  0  0  0  0
  193.0690  173.0450  136.4710 N   0  0  0  0  0  0  0  0  0  0  0  0
  193.2500  174.3200  137.1820 C   0  0  2  0  0  3  0  0  0  0  0  0
  191.9130  174.8140  137.7540 C   0  0  0  0  0  2  0  0  0  0  0  0
  191.7350  172.6380  136.0200 C   0  0  0  0  0  2  0  0  0  0  0  0
  195.8880  175.7030  135.5000 C   0  0  0  0  0  2  0  0  0  0  0  0
  190.8170  174.9320  136.6830 C   0  0  1  0  0  3  0  0  0  0  0  0
  183.7090  177.3230  137.7490 C   0  0  0  0  0  2  0  0  0  0  0  0
  183.4790  176.7820  139.1520 C   0  0  0  0  0  2  0  0  0  0  0  0
  182.1710  177.3250  139.6960 C   0  0  0  0  0  2  0  0  0  0  0  0
  183.8850  178.7320  142.7820 C   0  0  0  0  0  0  0  0  0  0  0  0
  182.6940  178.9320  143.6980 C   0  0  0  0  0  2  0  0  0  0  0  0
  181.4620  179.1230  142.9280 N   0  0  0  0  0  0  0  0  0  0  0  0
  183.7110  178.2650  141.5410 C   0  0  0  0  0  3  0  0  0  0  0  0
  181.2920  178.4890  141.6560 C   0  0  0  0  0  3  0  0  0  0  0  0
  182.3590  178.0220  141.0020 C   0  0  0  0  0  0  0  0  0  0  0  0
  180.3210  179.7500  143.5640 C   0  0  0  0  0  1  0  0  0  0  0  0
  185.1710  179.0580  143.2060 O   0  0  0  0  0  0  0  0  0  0  0  0
  186.1310  178.0620  143.5660 C   0  0  0  0  0  2  0  0  0  0  0  0
  186.4250  178.0940  145.0380 C   0  0  0  0  0  0  0  0  0  0  0  0
  187.7550  177.6300  145.5280 C   0  0  0  0  0  1  0  0  0  0  0  0
  185.5840  178.4560  145.8430 O   0  0  0  0  0  0  0  0  0  0  0  0
  1  9  1  0  0  0  0
  1  7  1  1  0  0  0
  2 36  1  0  0  0  0
  3  5  1  0  0  0  0
  4  6  1  0  0  0  0
  4  8  1  0  0  0  0
  5 18  1  6  0  0  0
  5 10  1  0  0  0  0
  5  1  1  0  0  0  0
  6  2  1  0  0  0  0
  9  6  2  0  0  0  0
 10  3  1  6  0  0  0
 10  4  1  0  0  0  0
 11 16  1  0  0  0  0
 12 15  1  0  0  0  0
 13 14  1  0  0  0  0
 13 11  2  0  0  0  0
 14 12  2  0  0  0  0
 16 15  2  0  0  0  0
 16  2  1  0  0  0  0
 17 18  2  0  0  0  0
 18 19  1  0  0  0  0
 20 22  2  0  0  0  0
 22 30  1  0  0  0  0
 22 21  1  0  0  0  0
 23 21  1  0  0  0  0
 25 33  1  0  0  0  0
 25 35  1  0  0  0  0
 26 24  1  0  0  0  0
 28 27  1  0  0  0  0
 29 23  2  0  0  0  0
 29 24  1  0  0  0  0
 30 31  1  0  0  0  0
 31 28  1  6  0  0  0
 31 32  1  0  0  0  0
 33 30  1  0  0  0  0
 34 26  1  0  0  0  0
 34 27  1  0  0  0  0
 35 19  1  6  0  0  0
 35 32  1  0  0  0  0
 36 37  1  0  0  0  0
 37 38  1  0  0  0  0
 38 44  1  0  0  0  0
 39 46  1  0  0  0  0
 39 40  1  0  0  0  0
 41 45  1  0  0  0  0
 41 40  1  0  0  0  0
 42 39  2  0  0  0  0
 43 41  1  0  0  0  0
 44 42  1  0  0  0  0
 44 43  2  0  0  0  0
 46 47  1  0  0  0  0
 47 48  1  0  0  0  0
 48 49  1  0  0  0  0
 48 50  2  0  0  0  0
M  END
>  <MODEL>
8

>  <REMARK>
 VINA RESULT:      -6.6      3.240     10.917
  Name = 
  10 active torsions:
  status: ('A' for Active; 'I' for Inactive)
    1  A    between atoms: C_2  and  C_7
    2  A    between atoms: C_2  and  O_42
    3  A    between atoms: C_5  and  O_42
    4  A    between atoms: C_9  and  C_44
    5  A    between atoms: C_9  and  C_50
    6  A    between atoms: N_10  and  C_26
    7  A    between atoms: N_10  and  C_38
    8  A    between atoms: C_22  and  C_30
    9  A    between atoms: C_26  and  C_50
   10  A    between atoms: C_47  and  N_49
                            x       y       z     vdW  Elec       q    Type
                         _______ _______ _______ _____ _____    ______ ____

>  <TORSDO>
F 10

$$$$
=
 OpenBabel10232410353D

 50 55  0  0  1  0  0  0  0  0999 V2000
  186.9270  176.9100  137.4360 C   0  0  2  0  0  3  0  0  0  0  0  0
  183.6360  178.4990  138.2410 N   0  0  0  0  0  0  0  0  0  0  0  0
  185.4850  175.8190  135.5820 C   0  0  0  0  0  2  0  0  0  0  0  0
  184.2160  176.1280  137.6660 N   0  0  0  0  0  0  0  0  0  0  0  0
  186.4700  175.6200  136.7170 C   0  0  2  0  0  0  0  0  0  0  0  0
  184.6010  177.5040  137.8590 C   0  0  0  0  0  0  0  0  0  0  0  0
  187.6300  176.5820  138.7500 C   0  0  0  0  0  1  0  0  0  0  0  0
  183.0600  175.5960  138.3740 C   0  0  0  0  0  1  0  0  0  0  0  0
  185.8430  177.8500  137.7000 N   0  0  0  0  0  0  0  0  0  0  0  0
  185.0230  175.1760  136.8940 C   0  0  2  0  0  3  0  0  0  0  0  0
  181.2690  179.2160  138.1610 C   0  0  0  0  0  3  0  0  0  0  0  0
  181.1440  178.6380  135.4300 C   0  0  0  0  0  3  0  0  0  0  0  0
  180.0940  179.4670  137.4430 C   0  0  0  0  0  3  0  0  0  0  0  0
  180.0320  179.1800  136.0770 C   0  0  0  0  0  3  0  0  0  0  0  0
  182.3170  178.3840  136.1490 C   0  0  0  0  0  3  0  0  0  0  0  0
  182.3950  178.6660  137.5230 C   0  0  0  0  0  0  0  0  0  0  0  0
  187.2390  173.3670  136.6370 O   0  0  0  0  0  0  0  0  0  0  0  0
  187.5200  174.5760  136.4170 C   0  0  0  0  0  0  0  0  0  0  0  0
  188.8100  174.8780  135.8680 N   0  0  0  0  0  2  0  0  0  0  0  0
  194.3240  176.1970  138.1310 O   0  0  0  0  0  0  0  0  0  0  0  0
  194.8360  175.1410  136.0560 C   0  0  0  0  0  2  0  0  0  0  0  0
  193.8820  175.7520  137.0360 C   0  0  0  0  0  0  0  0  0  0  0  0
  195.6050  174.0250  136.6920 C   0  0  0  0  0  3  0  0  0  0  0  0
  195.4870  172.6350  134.6200 C   0  0  0  0  0  2  0  0  0  0  0  0
  190.1760  175.9830  137.5640 C   0  0  0  0  0  2  0  0  0  0  0  0
  194.3220  171.6510  134.5780 C   0  0  0  0  0  2  0  0  0  0  0  0
  192.5890  173.3070  134.5160 O   0  0  0  0  0  0  0  0  0  0  0  0
  191.7290  173.9430  135.4090 C   0  0  0  0  0  2  0  0  0  0  0  0
  195.9210  172.9020  136.0350 C   0  0  0  0  0  3  0  0  0  0  0  0
  192.4840  175.8710  136.7250 N   0  0  0  0  0  0  0  0  0  0  0  0
  191.9750  175.4480  135.4110 C   0  0  2  0  0  3  0  0  0  0  0  0
  190.6870  176.2090  135.0600 C   0  0  0  0  0  2  0  0  0  0  0  0
  191.5940  176.5470  137.6740 C   0  0  0  0  0  2  0  0  0  0  0  0
  193.0680  172.2120  135.2350 C   0  0  0  0  0  2  0  0  0  0  0  0
  189.6030  176.0710  136.1410 C   0  0  1  0  0  3  0  0  0  0  0  0
  184.0590  179.5330  139.1820 C   0  0  0  0  0  2  0  0  0  0  0  0
  184.9520  178.9310  140.2570 C   0  0  0  0  0  2  0  0  0  0  0  0
  184.1430  178.7090  141.5210 C   0  0  0  0  0  2  0  0  0  0  0  0
  187.2000  177.7280  143.5530 C   0  0  0  0  0  0  0  0  0  0  0  0
  186.5670  177.4700  144.9050 C   0  0  0  0  0  2  0  0  0  0  0  0
  185.3280  178.2370  145.0630 N   0  0  0  0  0  0  0  0  0  0  0  0
  186.4500  178.1380  142.5240 C   0  0  0  0  0  3  0  0  0  0  0  0
  184.5060  178.5340  143.9300 C   0  0  0  0  0  3  0  0  0  0  0  0
  185.0170  178.4390  142.7000 C   0  0  0  0  0  0  0  0  0  0  0  0
  184.8130  178.4780  146.3960 C   0  0  0  0  0  1  0  0  0  0  0  0
  188.5730  177.5720  143.3670 O   0  0  0  0  0  0  0  0  0  0  0  0
  189.1590  176.3100  143.0400 C   0  0  0  0  0  2  0  0  0  0  0  0
  190.4770  176.4850  142.3430 C   0  0  0  0  0  0  0  0  0  0  0  0
  191.6390  177.0270  143.1020 C   0  0  0  0  0  1  0  0  0  0  0  0
  190.6040  176.2270  141.1580 O   0  0  0  0  0  0  0  0  0  0  0  0
  1  9  1  0  0  0  0
  1  7  1  1  0  0  0
  2 36  1  0  0  0  0
  3  5  1  0  0  0  0
  4  6  1  0  0  0  0
  4  8  1  0  0  0  0
  5 18  1  6  0  0  0
  5 10  1  0  0  0  0
  5  1  1  0  0  0  0
  6  2  1  0  0  0  0
  9  6  2  0  0  0  0
 10  3  1  6  0  0  0
 10  4  1  0  0  0  0
 12 14  2  0  0  0  0
 12 15  1  0  0  0  0
 13 11  2  0  0  0  0
 14 13  1  0  0  0  0
 15 16  2  0  0  0  0
 16 11  1  0  0  0  0
 16  2  1  0  0  0  0
 18 17  2  0  0  0  0
 19 18  1  0  0  0  0
 21 23  1  0  0  0  0
 21 22  1  0  0  0  0
 22 20  2  0  0  0  0
 24 29  1  0  0  0  0
 25 33  1  0  0  0  0
 26 24  1  0  0  0  0
 26 34  1  0  0  0  0
 27 34  1  0  0  0  0
 27 28  1  0  0  0  0
 28 31  1  0  0  0  0
 29 23  2  0  0  0  0
 30 22  1  0  0  0  0
 30 33  1  0  0  0  0
 31 32  1  1  0  0  0
 31 30  1  0  0  0  0
 32 35  1  0  0  0  0
 35 19  1  6  0  0  0
 35 25  1  0  0  0  0
 36 37  1  0  0  0  0
 37 38  1  0  0  0  0
 38 44  1  0  0  0  0
 39 40  1  0  0  0  0
 40 41  1  0  0  0  0
 41 45  1  0  0  0  0
 42 44  1  0  0  0  0
 42 39  2  0  0  0  0
 43 41  1  0  0  0  0
 44 43  2  0  0  0  0
 46 39  1  0  0  0  0
 47 46  1  0  0  0  0
 48 47  1  0  0  0  0
 48 49  1  0  0  0  0
 50 48  2  0  0  0  0
M  END
>  <MODEL>
9

>  <REMARK>
 VINA RESULT:      -6.6      3.729     10.242
  Name = 
  10 active torsions:
  status: ('A' for Active; 'I' for Inactive)
    1  A    between atoms: C_2  and  C_7
    2  A    between atoms: C_2  and  O_42
    3  A    between atoms: C_5  and  O_42
    4  A    between atoms: C_9  and  C_44
    5  A    between atoms: C_9  and  C_50
    6  A    between atoms: N_10  and  C_26
    7  A    between atoms: N_10  and  C_38
    8  A    between atoms: C_22  and  C_30
    9  A    between atoms: C_26  and  C_50
   10  A    between atoms: C_47  and  N_49
                            x       y       z     vdW  Elec       q    Type
                         _______ _______ _______ _____ _____    ______ ____

>  <TORSDO>
F 10

$$$$
