=
 OpenBabel10232410103D

 62 69  0  0  1  0  0  0  0  0999 V2000
  191.3790  176.3240  140.6780 C   0  0  0  0  0  3  0  0  0  0  0  0
  187.7740  178.8150  137.9290 N   0  0  0  0  0  2  0  0  0  0  0  0
  188.0770  177.5930  141.8440 C   0  0  0  0  0  0  0  0  0  0  0  0
  191.2360  176.3150  139.2660 C   0  0  0  0  0  0  0  0  0  0  0  0
  193.0730  175.1510  137.6990 C   0  0  0  0  0  3  0  0  0  0  0  0
  186.9470  178.0410  141.2710 N   0  0  0  0  0  0  0  0  0  0  0  0
  186.7930  178.1680  139.8960 N   0  0  0  0  0  0  0  0  0  0  0  0
  189.1170  177.4640  139.6020 C   0  0  2  0  0  3  0  0  0  0  0  0
  188.9890  176.8410  140.9360 C   0  0  1  0  0  3  0  0  0  0  0  0
  187.7650  177.9780  139.0570 C   0  0  0  0  0  0  0  0  0  0  0  0
  189.9190  176.6830  138.6610 C   0  0  0  0  0  2  0  0  0  0  0  0
  188.4290  177.9590  143.1850 N   0  0  0  0  0  2  0  0  0  0  0  0
  190.3180  176.5800  141.4070 N   0  0  0  0  0  0  0  0  0  0  0  0
  192.2480  175.8190  138.4890 C   0  0  0  0  0  0  0  0  0  0  0  0
  188.5430  177.8490  146.9160 C   0  0  0  0  0  0  0  0  0  0  0  0
  187.4700  177.8010  149.1140 C   0  0  0  0  0  1  0  0  0  0  0  0
  186.2840  178.6690  147.2290 C   0  0  0  0  0  3  0  0  0  0  0  0
  186.6110  178.7860  144.7280 C   0  0  0  0  0  3  0  0  0  0  0  0
  186.0240  179.1260  145.8700 C   0  0  0  0  0  3  0  0  0  0  0  0
  189.7400  177.4270  147.4590 N   0  0  0  0  0  0  0  0  0  0  0  0
  187.7000  177.8160  144.4940 C   0  0  2  0  0  3  0  0  0  0  0  0
  188.7220  177.8070  145.5350 N   0  0  0  0  0  0  0  0  0  0  0  0
  187.3650  178.0890  147.6900 C   0  0  0  0  0  0  0  0  0  0  0  0
  189.9240  177.4180  145.2310 N   0  0  0  0  0  0  0  0  0  0  0  0
  190.5400  177.1850  146.4000 C   0  0  0  0  0  3  0  0  0  0  0  0
  194.4680  175.1090  137.0100 C   0  0  0  0  0  0  0  0  0  0  0  0
  194.3790  175.5010  135.8130 O   0  0  0  0  0  0  0  0  0  0  0  0
  195.7650  174.6460  137.5360 N   0  0  0  0  0  2  0  0  0  0  0  0
  198.4820  172.5140  136.3200 C   0  0  0  0  0  0  0  0  0  0  0  0
  196.3410  171.2750  134.8090 C   0  0  0  0  0  3  0  0  0  0  0  0
  197.8420  169.3000  134.3460 C   0  0  0  0  0  1  0  0  0  0  0  0
  197.0490  174.6130  136.6810 C   0  0  2  0  0  0  0  0  0  0  0  0
  197.7720  170.8520  134.5150 C   0  0  2  0  0  3  0  0  0  0  0  0
  198.6820  171.2830  135.6350 C   0  0  0  0  0  0  0  0  0  0  0  0
  199.7910  170.7400  135.7590 O   0  0  0  0  0  0  0  0  0  0  0  0
  199.5770  174.4180  137.2910 C   0  0  0  0  0  3  0  0  0  0  0  0
  196.1540  172.3450  135.6530 C   0  0  0  0  0  3  0  0  0  0  0  0
  197.2710  173.1470  136.2760 C   0  0  0  0  0  0  0  0  0  0  0  0
  198.2520  175.0300  137.5880 C   0  0  0  0  0  2  0  0  0  0  0  0
  199.7290  173.1990  136.7780 C   0  0  0  0  0  3  0  0  0  0  0  0
  197.1390  175.0170  134.3460 O   0  0  0  0  0  0  0  0  0  0  0  0
  196.9700  175.5690  135.4920 C   0  0  0  0  0  0  0  0  0  0  0  0
  197.2560  176.9280  135.5710 O   0  0  0  0  0  1  0  0  0  0  0  0
  186.7260  178.9160  136.9500 C   0  0  0  0  0  2  0  0  0  0  0  0
  187.2210  178.4710  135.5320 C   0  0  0  0  0  2  0  0  0  0  0  0
  186.0950  176.1770  135.6090 N   0  0  0  0  0  2  0  0  0  0  0  0
  188.3890  176.4820  135.7830 O   0  0  0  0  0  0  0  0  0  0  0  0
  187.2870  176.9840  135.6560 C   0  0  0  0  0  0  0  0  0  0  0  0
  184.1860  174.6150  134.4650 O   0  0  0  0  0  1  0  0  0  0  0  0
  186.6430  171.9530  134.8140 O   0  0  0  0  0  1  0  0  0  0  0  0
  185.4130  172.6130  134.7310 C   0  0  1  0  0  3  0  0  0  0  0  0
  185.2890  174.3340  137.1370 C   0  0  0  0  0  2  0  0  0  0  0  0
  185.1880  172.7750  137.2480 C   0  0  0  0  0  2  0  0  0  0  0  0
  186.1000  174.7390  135.8550 C   0  0  1  0  0  3  0  0  0  0  0  0
  184.5870  172.2520  135.9450 C   0  0  2  0  0  3  0  0  0  0  0  0
  185.4720  174.1180  134.6140 C   0  0  2  0  0  3  0  0  0  0  0  0
  184.0540  170.8640  135.9180 N   0  0  1  0  0  0  0  0  0  0  0  0
  182.6920  170.8520  135.7840 O   0  0  0  0  0  0  0  0  0  0  0  0
  184.3320  168.4360  135.4090 C   0  0  0  0  0  2  0  0  0  0  0  0
  184.8420  169.8430  135.1910 C   0  0  0  0  0  2  0  0  0  0  0  0
  182.7610  168.4520  135.4620 C   0  0  0  0  0  2  0  0  0  0  0  0
  182.2830  169.7700  134.9600 C   0  0  0  0  0  2  0  0  0  0  0  0
  1 13  2  0  0  0  0
  2 10  1  0  0  0  0
  3 12  1  0  0  0  0
  4  1  1  0  0  0  0
  5 14  2  0  0  0  0
  6  3  2  0  0  0  0
  7  6  1  0  0  0  0
  8 11  1  6  0  0  0
  8  9  1  0  0  0  0
  9 13  1  1  0  0  0
  9  3  1  0  0  0  0
 10  8  1  0  0  0  0
 10  7  2  0  0  0  0
 11  4  1  0  0  0  0
 14  4  2  0  0  0  0
 15 20  2  0  0  0  0
 15 23  1  0  0  0  0
 17 23  2  0  0  0  0
 18 19  2  0  0  0  0
 19 17  1  0  0  0  0
 21 12  1  6  0  0  0
 21 18  1  0  0  0  0
 21 22  1  0  0  0  0
 22 15  1  0  0  0  0
 23 16  1  0  0  0  0
 24 22  1  0  0  0  0
 24 25  2  0  0  0  0
 25 20  1  0  0  0  0
 26 28  1  0  0  0  0
 26  5  1  0  0  0  0
 27 26  2  0  0  0  0
 29 40  1  0  0  0  0
 30 37  2  0  0  0  0
 32 42  1  6  0  0  0
 32 28  1  0  0  0  0
 32 39  1  0  0  0  0
 33 31  1  1  0  0  0
 33 30  1  0  0  0  0
 33 34  1  0  0  0  0
 34 35  2  0  0  0  0
 34 29  1  0  0  0  0
 36 39  1  0  0  0  0
 37 38  1  0  0  0  0
 38 29  2  0  0  0  0
 38 32  1  0  0  0  0
 40 36  2  0  0  0  0
 41 42  2  0  0  0  0
 42 43  1  0  0  0  0
 44  2  1  0  0  0  0
 45 48  1  0  0  0  0
 45 44  1  0  0  0  0
 46 48  1  0  0  0  0
 48 47  2  0  0  0  0
 51 50  1  1  0  0  0
 51 55  1  0  0  0  0
 52 53  1  0  0  0  0
 54 46  1  6  0  0  0
 54 52  1  0  0  0  0
 55 53  1  1  0  0  0
 56 49  1  1  0  0  0
 56 51  1  0  0  0  0
 56 54  1  0  0  0  0
 57 60  1  6  0  0  0
 57 55  1  0  0  0  0
 58 57  1  0  0  0  0
 59 61  1  0  0  0  0
 60 59  1  0  0  0  0
 62 61  1  0  0  0  0
 62 58  1  0  0  0  0
M  END
>  <MODEL>
1

>  <REMARK>
 VINA RESULT:      -8.1      0.000      0.000
  Name = 
  9 active torsions:
  status: ('A' for Active; 'I' for Inactive)
    1  A    between atoms: N_5  and  C_51
    2  A    between atoms: C_7  and  N_33
    3  A    between atoms: C_7  and  C_52
    4  A    between atoms: C_10  and  C_18
    5  A    between atoms: N_16  and  C_41
    6  A    between atoms: N_21  and  C_50
    7  A    between atoms: N_43  and  C_56
    8  A    between atoms: C_49  and  C_53
    9  A    between atoms: C_51  and  C_53
                            x       y       z     vdW  Elec       q    Type
                         _______ _______ _______ _____ _____    ______ ____

>  <TORSDO>
F 9

$$$$
=
 OpenBabel10232410103D

 62 69  0  0  1  0  0  0  0  0999 V2000
  191.6000  176.2110  140.4550 C   0  0  0  0  0  3  0  0  0  0  0  0
  188.3090  179.0930  137.6940 N   0  0  0  0  0  2  0  0  0  0  0  0
  188.3230  177.6170  141.5320 C   0  0  0  0  0  0  0  0  0  0  0  0
  191.5340  176.2980  139.0410 C   0  0  0  0  0  0  0  0  0  0  0  0
  193.3790  175.1160  137.4960 C   0  0  0  0  0  3  0  0  0  0  0  0
  187.2550  178.1710  140.9330 N   0  0  0  0  0  0  0  0  0  0  0  0
  187.1850  178.3920  139.5630 N   0  0  0  0  0  0  0  0  0  0  0  0
  189.4740  177.5590  139.3420 C   0  0  2  0  0  3  0  0  0  0  0  0
  189.2360  176.8650  140.6250 C   0  0  1  0  0  3  0  0  0  0  0  0
  188.1880  178.1910  138.7640 C   0  0  0  0  0  0  0  0  0  0  0  0
  190.2760  176.7870  138.3940 C   0  0  0  0  0  2  0  0  0  0  0  0
  188.6230  177.8770  142.9110 N   0  0  0  0  0  2  0  0  0  0  0  0
  190.5180  176.4910  141.1440 N   0  0  0  0  0  0  0  0  0  0  0  0
  192.5550  175.7870  138.2850 C   0  0  0  0  0  0  0  0  0  0  0  0
  188.4940  177.7820  146.6410 C   0  0  0  0  0  0  0  0  0  0  0  0
  187.2800  177.6870  148.7630 C   0  0  0  0  0  1  0  0  0  0  0  0
  186.1820  178.4900  146.7980 C   0  0  0  0  0  3  0  0  0  0  0  0
  186.6680  178.6170  144.3240 C   0  0  0  0  0  3  0  0  0  0  0  0
  185.9910  178.9310  145.4220 C   0  0  0  0  0  3  0  0  0  0  0  0
  189.6720  177.4210  147.2650 N   0  0  0  0  0  0  0  0  0  0  0  0
  187.8160  177.7020  144.1690 C   0  0  2  0  0  3  0  0  0  0  0  0
  188.7670  177.7460  145.2750 N   0  0  0  0  0  0  0  0  0  0  0  0
  187.2570  177.9660  147.3340 C   0  0  0  0  0  0  0  0  0  0  0  0
  190.0030  177.4160  145.0540 N   0  0  0  0  0  0  0  0  0  0  0  0
  190.5510  177.2170  146.2620 C   0  0  0  0  0  3  0  0  0  0  0  0
  194.8050  175.0260  136.8770 C   0  0  0  0  0  0  0  0  0  0  0  0
  194.7680  175.3090  135.6470 O   0  0  0  0  0  0  0  0  0  0  0  0
  196.0780  174.6260  137.5010 N   0  0  0  0  0  2  0  0  0  0  0  0
  198.7300  172.3560  136.3930 C   0  0  0  0  0  0  0  0  0  0  0  0
  196.6020  171.2570  134.7610 C   0  0  0  0  0  3  0  0  0  0  0  0
  198.0110  169.2050  134.3460 C   0  0  0  0  0  1  0  0  0  0  0  0
  197.4000  174.5290  136.7100 C   0  0  2  0  0  0  0  0  0  0  0  0
  198.0200  170.7570  134.5330 C   0  0  2  0  0  3  0  0  0  0  0  0
  198.8940  171.1230  135.7030 C   0  0  0  0  0  0  0  0  0  0  0  0
  199.9640  170.5170  135.8740 O   0  0  0  0  0  0  0  0  0  0  0  0
  199.8790  174.1840  137.4440 C   0  0  0  0  0  3  0  0  0  0  0  0
  196.4330  172.3270  135.6080 C   0  0  0  0  0  3  0  0  0  0  0  0
  197.5600  173.0570  136.2980 C   0  0  0  0  0  0  0  0  0  0  0  0
  198.5770  174.8670  137.6830 C   0  0  0  0  0  2  0  0  0  0  0  0
  199.9890  172.9640  136.9230 C   0  0  0  0  0  3  0  0  0  0  0  0
  198.0860  175.0820  134.5090 O   0  0  0  0  0  0  0  0  0  0  0  0
  197.4360  175.5010  135.5330 C   0  0  0  0  0  0  0  0  0  0  0  0
  197.3120  176.8810  135.6620 O   0  0  0  0  0  1  0  0  0  0  0  0
  187.3240  179.3220  136.6720 C   0  0  0  0  0  2  0  0  0  0  0  0
  187.4200  178.2490  135.5340 C   0  0  0  0  0  2  0  0  0  0  0  0
  185.2330  177.5820  136.6760 N   0  0  0  0  0  2  0  0  0  0  0  0
  185.6080  177.3490  134.3990 O   0  0  0  0  0  0  0  0  0  0  0  0
  186.0350  177.6920  135.4860 C   0  0  0  0  0  0  0  0  0  0  0  0
  185.0980  174.8670  136.7680 O   0  0  0  0  0  1  0  0  0  0  0  0
  181.8300  175.4240  138.2700 O   0  0  0  0  0  1  0  0  0  0  0  0
  182.8660  174.8280  137.5460 C   0  0  1  0  0  3  0  0  0  0  0  0
  183.3630  176.6430  135.2600 C   0  0  0  0  0  2  0  0  0  0  0  0
  182.0530  175.7900  135.3490 C   0  0  0  0  0  2  0  0  0  0  0  0
  183.9280  176.9270  136.6970 C   0  0  1  0  0  3  0  0  0  0  0  0
  182.3700  174.5280  136.1490 C   0  0  2  0  0  3  0  0  0  0  0  0
  184.1500  175.6190  137.4460 C   0  0  2  0  0  3  0  0  0  0  0  0
  181.4180  173.3880  136.0800 N   0  0  1  0  0  0  0  0  0  0  0  0
  181.1710  173.0160  134.7870 O   0  0  0  0  0  0  0  0  0  0  0  0
  180.4060  171.3360  137.0800 C   0  0  0  0  0  2  0  0  0  0  0  0
  181.5480  172.3260  137.1060 C   0  0  0  0  0  2  0  0  0  0  0  0
  179.9830  171.0650  135.5910 C   0  0  0  0  0  2  0  0  0  0  0  0
  181.0390  171.6060  134.6910 C   0  0  0  0  0  2  0  0  0  0  0  0
  1 13  2  0  0  0  0
  2 10  1  0  0  0  0
  3 12  1  0  0  0  0
  4  1  1  0  0  0  0
  5 14  2  0  0  0  0
  6  3  2  0  0  0  0
  7  6  1  0  0  0  0
  8 11  1  6  0  0  0
  8  9  1  0  0  0  0
  9 13  1  1  0  0  0
  9  3  1  0  0  0  0
 10  8  1  0  0  0  0
 10  7  2  0  0  0  0
 11  4  1  0  0  0  0
 14  4  2  0  0  0  0
 15 20  2  0  0  0  0
 15 23  1  0  0  0  0
 17 23  2  0  0  0  0
 18 19  2  0  0  0  0
 19 17  1  0  0  0  0
 21 12  1  6  0  0  0
 21 18  1  0  0  0  0
 21 22  1  0  0  0  0
 22 15  1  0  0  0  0
 23 16  1  0  0  0  0
 24 22  1  0  0  0  0
 24 25  2  0  0  0  0
 25 20  1  0  0  0  0
 26  5  1  0  0  0  0
 26 28  1  0  0  0  0
 27 26  2  0  0  0  0
 29 40  1  0  0  0  0
 30 37  2  0  0  0  0
 32 42  1  6  0  0  0
 32 28  1  0  0  0  0
 32 39  1  0  0  0  0
 33 31  1  1  0  0  0
 33 30  1  0  0  0  0
 33 34  1  0  0  0  0
 34 35  2  0  0  0  0
 34 29  1  0  0  0  0
 36 39  1  0  0  0  0
 37 38  1  0  0  0  0
 38 29  2  0  0  0  0
 38 32  1  0  0  0  0
 40 36  2  0  0  0  0
 41 42  2  0  0  0  0
 42 43  1  0  0  0  0
 44  2  1  0  0  0  0
 45 44  1  0  0  0  0
 47 48  2  0  0  0  0
 48 45  1  0  0  0  0
 48 46  1  0  0  0  0
 51 50  1  1  0  0  0
 52 53  1  0  0  0  0
 52 54  1  0  0  0  0
 54 46  1  6  0  0  0
 54 56  1  0  0  0  0
 55 53  1  1  0  0  0
 55 51  1  0  0  0  0
 56 49  1  6  0  0  0
 56 51  1  0  0  0  0
 57 55  1  0  0  0  0
 57 60  1  1  0  0  0
 58 57  1  0  0  0  0
 59 60  1  0  0  0  0
 61 59  1  0  0  0  0
 62 58  1  0  0  0  0
 62 61  1  0  0  0  0
M  END
>  <MODEL>
2

>  <REMARK>
 VINA RESULT:      -8.0      1.700      2.017
  Name = 
  9 active torsions:
  status: ('A' for Active; 'I' for Inactive)
    1  A    between atoms: N_5  and  C_51
    2  A    between atoms: C_7  and  N_33
    3  A    between atoms: C_7  and  C_52
    4  A    between atoms: C_10  and  C_18
    5  A    between atoms: N_16  and  C_41
    6  A    between atoms: N_21  and  C_50
    7  A    between atoms: N_43  and  C_56
    8  A    between atoms: C_49  and  C_53
    9  A    between atoms: C_51  and  C_53
                            x       y       z     vdW  Elec       q    Type
                         _______ _______ _______ _____ _____    ______ ____

>  <TORSDO>
F 9

$$$$
=
 OpenBabel10232410103D

 62 69  0  0  1  0  0  0  0  0999 V2000
  190.2730  173.6120  135.4890 C   0  0  0  0  0  3  0  0  0  0  0  0
  192.4360  176.9970  138.7470 N   0  0  0  0  0  2  0  0  0  0  0  0
  193.8880  174.0550  136.2680 C   0  0  0  0  0  0  0  0  0  0  0  0
  189.6310  174.2780  136.5640 C   0  0  0  0  0  0  0  0  0  0  0  0
  186.9840  174.0720  136.9360 C   0  0  0  0  0  3  0  0  0  0  0  0
  194.6130  174.6860  137.2080 N   0  0  0  0  0  0  0  0  0  0  0  0
  194.0430  175.4520  138.2170 N   0  0  0  0  0  0  0  0  0  0  0  0
  191.8400  175.0530  137.2330 C   0  0  2  0  0  3  0  0  0  0  0  0
  192.4490  173.8630  136.6050 C   0  0  1  0  0  3  0  0  0  0  0  0
  192.7740  175.7210  138.2670 C   0  0  0  0  0  0  0  0  0  0  0  0
  190.4600  174.8480  137.6720 C   0  0  0  0  0  2  0  0  0  0  0  0
  194.4430  173.7430  134.9830 N   0  0  0  0  0  2  0  0  0  0  0  0
  191.5740  173.4520  135.5460 N   0  0  0  0  0  0  0  0  0  0  0  0
  188.2660  174.2510  136.6570 C   0  0  0  0  0  0  0  0  0  0  0  0
  198.1650  173.4890  134.8040 C   0  0  0  0  0  0  0  0  0  0  0  0
  200.2310  172.2620  134.3490 C   0  0  0  0  0  1  0  0  0  0  0  0
  198.2210  171.0670  134.8440 C   0  0  0  0  0  3  0  0  0  0  0  0
  195.7710  171.6020  135.1340 C   0  0  0  0  0  3  0  0  0  0  0  0
  196.8390  170.8200  135.2340 C   0  0  0  0  0  3  0  0  0  0  0  0
  198.8390  174.6940  134.7740 N   0  0  0  0  0  0  0  0  0  0  0  0
  195.6650  172.9640  134.5740 C   0  0  2  0  0  3  0  0  0  0  0  0
  196.8120  173.8180  134.8630 N   0  0  0  0  0  0  0  0  0  0  0  0
  198.8020  172.2220  134.6300 C   0  0  0  0  0  0  0  0  0  0  0  0
  196.6440  175.1060  134.8900 N   0  0  0  0  0  0  0  0  0  0  0  0
  197.8760  175.6370  134.8340 C   0  0  0  0  0  3  0  0  0  0  0  0
  185.5110  174.4120  136.5660 C   0  0  0  0  0  0  0  0  0  0  0  0
  185.4750  175.1470  135.5390 O   0  0  0  0  0  0  0  0  0  0  0  0
  184.2600  174.0510  137.2560 N   0  0  0  0  0  2  0  0  0  0  0  0
  181.3960  176.1750  138.0910 C   0  0  0  0  0  0  0  0  0  0  0  0
  183.3150  178.3030  137.6540 C   0  0  0  0  0  3  0  0  0  0  0  0
  181.7570  179.9150  138.8130 C   0  0  0  0  0  1  0  0  0  0  0  0
  182.8740  174.5370  136.7790 C   0  0  2  0  0  0  0  0  0  0  0  0
  181.8560  178.6780  137.8640 C   0  0  2  0  0  3  0  0  0  0  0  0
  181.1030  177.5180  138.4600 C   0  0  0  0  0  0  0  0  0  0  0  0
  180.0170  177.7250  139.0240 O   0  0  0  0  0  0  0  0  0  0  0  0
  180.4470  174.0280  137.5860 C   0  0  0  0  0  3  0  0  0  0  0  0
  183.6160  176.9690  137.5110 C   0  0  0  0  0  3  0  0  0  0  0  0
  182.5940  175.8580  137.5140 C   0  0  0  0  0  0  0  0  0  0  0  0
  181.8030  173.5040  137.2590 C   0  0  0  0  0  2  0  0  0  0  0  0
  180.2230  175.2490  138.0670 C   0  0  0  0  0  3  0  0  0  0  0  0
  182.2350  175.7250  134.8300 O   0  0  0  0  0  1  0  0  0  0  0  0
  182.8020  174.6570  135.2580 C   0  0  0  0  0  0  0  0  0  0  0  0
  182.7950  173.5660  134.3940 O   0  0  0  0  0  0  0  0  0  0  0  0
  192.7700  177.5210  140.0440 C   0  0  0  0  0  2  0  0  0  0  0  0
  192.0660  176.7130  141.1870 C   0  0  0  0  0  2  0  0  0  0  0  0
  190.1710  177.4950  142.7140 N   0  0  0  0  0  2  0  0  0  0  0  0
  190.3780  178.1470  140.4970 O   0  0  0  0  0  0  0  0  0  0  0  0
  190.8180  177.4970  141.4280 C   0  0  0  0  0  0  0  0  0  0  0  0
  187.9430  175.9660  143.0190 O   0  0  0  0  0  1  0  0  0  0  0  0
  186.6690  178.8080  144.9020 O   0  0  0  0  0  1  0  0  0  0  0  0
  186.7050  177.6710  144.0900 C   0  0  1  0  0  3  0  0  0  0  0  0
  188.1260  178.5120  141.6330 C   0  0  0  0  0  2  0  0  0  0  0  0
  186.6880  179.0380  141.9590 C   0  0  0  0  0  2  0  0  0  0  0  0
  188.8840  178.1400  142.9570 C   0  0  1  0  0  3  0  0  0  0  0  0
  185.9810  177.9760  142.7980 C   0  0  2  0  0  3  0  0  0  0  0  0
  188.0770  177.1300  143.7630 C   0  0  2  0  0  3  0  0  0  0  0  0
  184.5030  178.0540  142.9400 N   0  0  1  0  0  0  0  0  0  0  0  0
  184.1340  178.2930  144.2360 O   0  0  0  0  0  0  0  0  0  0  0  0
  182.2500  178.5590  141.9890 C   0  0  0  0  0  2  0  0  0  0  0  0
  183.7470  178.7260  141.8580 C   0  0  0  0  0  2  0  0  0  0  0  0
  181.8480  178.6270  143.5080 C   0  0  0  0  0  2  0  0  0  0  0  0
  183.0060  179.1540  144.2820 C   0  0  0  0  0  2  0  0  0  0  0  0
  1 13  2  0  0  0  0
  1  4  1  0  0  0  0
  2 44  1  0  0  0  0
  3  9  1  0  0  0  0
  3  6  2  0  0  0  0
  4 14  2  0  0  0  0
  4 11  1  0  0  0  0
  6  7  1  0  0  0  0
  7 10  2  0  0  0  0
  8 11  1  1  0  0  0
  8 10  1  0  0  0  0
  9 13  1  6  0  0  0
  9  8  1  0  0  0  0
 10  2  1  0  0  0  0
 12  3  1  0  0  0  0
 14  5  2  0  0  0  0
 15 22  1  0  0  0  0
 16 23  1  0  0  0  0
 17 19  1  0  0  0  0
 18 19  2  0  0  0  0
 20 15  2  0  0  0  0
 20 25  1  0  0  0  0
 21 22  1  0  0  0  0
 21 12  1  1  0  0  0
 21 18  1  0  0  0  0
 22 24  1  0  0  0  0
 23 15  1  0  0  0  0
 23 17  2  0  0  0  0
 25 24  2  0  0  0  0
 26  5  1  0  0  0  0
 26 28  1  0  0  0  0
 27 26  2  0  0  0  0
 29 34  1  0  0  0  0
 30 33  1  0  0  0  0
 32 42  1  6  0  0  0
 32 28  1  0  0  0  0
 32 39  1  0  0  0  0
 32 38  1  0  0  0  0
 33 34  1  0  0  0  0
 33 31  1  1  0  0  0
 34 35  2  0  0  0  0
 36 40  2  0  0  0  0
 37 38  1  0  0  0  0
 37 30  2  0  0  0  0
 38 29  2  0  0  0  0
 39 36  1  0  0  0  0
 40 29  1  0  0  0  0
 41 42  1  0  0  0  0
 43 42  2  0  0  0  0
 44 45  1  0  0  0  0
 45 48  1  0  0  0  0
 47 48  2  0  0  0  0
 48 46  1  0  0  0  0
 51 50  1  1  0  0  0
 52 53  1  0  0  0  0
 52 54  1  0  0  0  0
 54 46  1  6  0  0  0
 54 56  1  0  0  0  0
 55 53  1  1  0  0  0
 55 57  1  0  0  0  0
 55 51  1  0  0  0  0
 56 49  1  6  0  0  0
 56 51  1  0  0  0  0
 57 60  1  6  0  0  0
 57 58  1  0  0  0  0
 58 62  1  0  0  0  0
 59 61  1  0  0  0  0
 60 59  1  0  0  0  0
 61 62  1  0  0  0  0
M  END
>  <MODEL>
3

>  <REMARK>
 VINA RESULT:      -7.0      3.715     12.657
  Name = 
  9 active torsions:
  status: ('A' for Active; 'I' for Inactive)
    1  A    between atoms: N_5  and  C_51
    2  A    between atoms: C_7  and  N_33
    3  A    between atoms: C_7  and  C_52
    4  A    between atoms: C_10  and  C_18
    5  A    between atoms: N_16  and  C_41
    6  A    between atoms: N_21  and  C_50
    7  A    between atoms: N_43  and  C_56
    8  A    between atoms: C_49  and  C_53
    9  A    between atoms: C_51  and  C_53
                            x       y       z     vdW  Elec       q    Type
                         _______ _______ _______ _____ _____    ______ ____

>  <TORSDO>
F 9

$$$$
=
 OpenBabel10232410103D

 62 69  0  0  1  0  0  0  0  0999 V2000
  191.3790  176.2040  136.7600 C   0  0  0  0  0  3  0  0  0  0  0  0
  190.5990  175.7090  141.8490 N   0  0  0  0  0  2  0  0  0  0  0  0
  188.3710  177.1860  138.7250 C   0  0  0  0  0  0  0  0  0  0  0  0
  192.3770  176.0570  137.7580 C   0  0  0  0  0  0  0  0  0  0  0  0
  194.9550  175.7330  137.0980 C   0  0  0  0  0  3  0  0  0  0  0  0
  188.0650  177.3500  140.0230 N   0  0  0  0  0  0  0  0  0  0  0  0
  188.9670  177.1040  141.0510 N   0  0  0  0  0  0  0  0  0  0  0  0
  190.6000  176.3460  139.3960 C   0  0  2  0  0  3  0  0  0  0  0  0
  189.8290  177.1450  138.4200 C   0  0  1  0  0  3  0  0  0  0  0  0
  190.1390  176.5830  140.8520 C   0  0  0  0  0  0  0  0  0  0  0  0
  192.0460  176.3850  139.1800 C   0  0  0  0  0  2  0  0  0  0  0  0
  187.3560  176.9130  137.7480 N   0  0  0  0  0  2  0  0  0  0  0  0
  190.2180  176.7010  137.1140 N   0  0  0  0  0  0  0  0  0  0  0  0
  193.6650  175.7730  137.3890 C   0  0  0  0  0  0  0  0  0  0  0  0
  183.8320  176.8050  136.5170 C   0  0  0  0  0  0  0  0  0  0  0  0
  181.6780  177.8540  136.0280 C   0  0  0  0  0  1  0  0  0  0  0  0
  183.1500  178.8480  137.6260 C   0  0  0  0  0  3  0  0  0  0  0  0
  185.5260  178.5180  138.4130 C   0  0  0  0  0  3  0  0  0  0  0  0
  184.2990  179.0170  138.5060 C   0  0  0  0  0  3  0  0  0  0  0  0
  183.5140  175.7150  135.7310 N   0  0  0  0  0  0  0  0  0  0  0  0
  186.1000  177.6500  137.3660 C   0  0  2  0  0  3  0  0  0  0  0  0
  185.1760  176.6450  136.8530 N   0  0  0  0  0  0  0  0  0  0  0  0
  182.9480  177.9050  136.7400 C   0  0  0  0  0  0  0  0  0  0  0  0
  185.6570  175.5490  136.3480 N   0  0  0  0  0  0  0  0  0  0  0  0
  184.6480  174.9860  135.6650 C   0  0  0  0  0  3  0  0  0  0  0  0
  196.1430  174.8820  136.5600 C   0  0  0  0  0  0  0  0  0  0  0  0
  196.0740  174.7770  135.3040 O   0  0  0  0  0  0  0  0  0  0  0  0
  197.2170  174.1940  137.2980 N   0  0  0  0  0  2  0  0  0  0  0  0
  198.2770  170.7620  136.5850 C   0  0  0  0  0  0  0  0  0  0  0  0
  195.8800  170.7510  134.9550 C   0  0  0  0  0  3  0  0  0  0  0  0
  196.0000  168.2330  134.8370 C   0  0  0  0  0  1  0  0  0  0  0  0
  198.2880  173.3290  136.5990 C   0  0  2  0  0  0  0  0  0  0  0  0
  196.8230  169.5610  134.8620 C   0  0  2  0  0  3  0  0  0  0  0  0
  197.7660  169.5530  136.0370 C   0  0  0  0  0  0  0  0  0  0  0  0
  198.3590  168.5030  136.3310 O   0  0  0  0  0  0  0  0  0  0  0  0
  200.2210  171.8310  137.5060 C   0  0  0  0  0  3  0  0  0  0  0  0
  196.3020  171.8430  135.6770 C   0  0  0  0  0  3  0  0  0  0  0  0
  197.6480  171.9530  136.3500 C   0  0  0  0  0  0  0  0  0  0  0  0
  199.4720  173.1160  137.5970 C   0  0  0  0  0  2  0  0  0  0  0  0
  199.6700  170.6820  137.1210 C   0  0  0  0  0  3  0  0  0  0  0  0
  199.0150  173.1930  134.3460 O   0  0  0  0  0  0  0  0  0  0  0  0
  198.8210  173.9920  135.3310 C   0  0  0  0  0  0  0  0  0  0  0  0
  199.5650  175.1680  135.3250 O   0  0  0  0  0  1  0  0  0  0  0  0
  190.7980  176.0440  143.2330 C   0  0  0  0  0  2  0  0  0  0  0  0
  191.4180  177.4740  143.3930 C   0  0  0  0  0  2  0  0  0  0  0  0
  188.8950  177.7690  143.6700 N   0  0  0  0  0  2  0  0  0  0  0  0
  190.4010  179.5330  143.7170 O   0  0  0  0  0  0  0  0  0  0  0  0
  190.2160  178.3360  143.5980 C   0  0  0  0  0  0  0  0  0  0  0  0
  186.4700  176.5520  143.8560 O   0  0  0  0  0  1  0  0  0  0  0  0
  185.4080  179.6690  145.4050 O   0  0  0  0  0  1  0  0  0  0  0  0
  185.3700  178.4740  144.6810 C   0  0  1  0  0  3  0  0  0  0  0  0
  187.1030  178.9370  142.3250 C   0  0  0  0  0  2  0  0  0  0  0  0
  185.7210  179.6580  142.4700 C   0  0  0  0  0  2  0  0  0  0  0  0
  187.6850  178.5830  143.7400 C   0  0  1  0  0  3  0  0  0  0  0  0
  184.8100  178.7600  143.3060 C   0  0  2  0  0  3  0  0  0  0  0  0
  186.6850  177.7460  144.5280 C   0  0  2  0  0  3  0  0  0  0  0  0
  183.3480  179.0290  143.2950 N   0  0  1  0  0  0  0  0  0  0  0  0
  182.8880  179.2600  142.0270 O   0  0  0  0  0  0  0  0  0  0  0  0
  181.0750  178.7350  144.2860 C   0  0  0  0  0  2  0  0  0  0  0  0
  182.5010  178.2370  144.2170 C   0  0  0  0  0  2  0  0  0  0  0  0
  180.6130  179.1980  142.8570 C   0  0  0  0  0  2  0  0  0  0  0  0
  181.5960  178.6970  141.8560 C   0  0  0  0  0  2  0  0  0  0  0  0
  1 13  2  0  0  0  0
  1  4  1  0  0  0  0
  2 44  1  0  0  0  0
  3  6  2  0  0  0  0
  4 11  1  0  0  0  0
  5 14  2  0  0  0  0
  6  7  1  0  0  0  0
  8 11  1  1  0  0  0
  8 10  1  0  0  0  0
  9 13  1  6  0  0  0
  9  3  1  0  0  0  0
  9  8  1  0  0  0  0
 10  7  2  0  0  0  0
 10  2  1  0  0  0  0
 12  3  1  0  0  0  0
 14  4  2  0  0  0  0
 15 23  1  0  0  0  0
 15 22  1  0  0  0  0
 16 23  1  0  0  0  0
 17 19  1  0  0  0  0
 18 19  2  0  0  0  0
 20 15  2  0  0  0  0
 21 12  1  1  0  0  0
 21 18  1  0  0  0  0
 22 21  1  0  0  0  0
 23 17  2  0  0  0  0
 24 22  1  0  0  0  0
 25 20  1  0  0  0  0
 25 24  2  0  0  0  0
 26  5  1  0  0  0  0
 26 28  1  0  0  0  0
 27 26  2  0  0  0  0
 29 40  1  0  0  0  0
 30 37  2  0  0  0  0
 32 42  1  6  0  0  0
 32 28  1  0  0  0  0
 32 39  1  0  0  0  0
 33 31  1  1  0  0  0
 33 30  1  0  0  0  0
 33 34  1  0  0  0  0
 34 35  2  0  0  0  0
 34 29  1  0  0  0  0
 36 39  1  0  0  0  0
 37 38  1  0  0  0  0
 38 29  2  0  0  0  0
 38 32  1  0  0  0  0
 40 36  2  0  0  0  0
 41 42  2  0  0  0  0
 43 42  1  0  0  0  0
 44 45  1  0  0  0  0
 45 48  1  0  0  0  0
 48 46  1  0  0  0  0
 48 47  2  0  0  0  0
 51 50  1  6  0  0  0
 52 53  1  0  0  0  0
 52 54  1  0  0  0  0
 54 46  1  6  0  0  0
 54 56  1  0  0  0  0
 55 53  1  1  0  0  0
 55 51  1  0  0  0  0
 56 49  1  6  0  0  0
 56 51  1  0  0  0  0
 57 55  1  0  0  0  0
 57 60  1  6  0  0  0
 58 57  1  0  0  0  0
 60 59  1  0  0  0  0
 61 59  1  0  0  0  0
 62 58  1  0  0  0  0
 62 61  1  0  0  0  0
M  END
>  <MODEL>
4

>  <REMARK>
 VINA RESULT:      -5.6      3.390      7.580
  Name = 
  9 active torsions:
  status: ('A' for Active; 'I' for Inactive)
    1  A    between atoms: N_5  and  C_51
    2  A    between atoms: C_7  and  N_33
    3  A    between atoms: C_7  and  C_52
    4  A    between atoms: C_10  and  C_18
    5  A    between atoms: N_16  and  C_41
    6  A    between atoms: N_21  and  C_50
    7  A    between atoms: N_43  and  C_56
    8  A    between atoms: C_49  and  C_53
    9  A    between atoms: C_51  and  C_53
                            x       y       z     vdW  Elec       q    Type
                         _______ _______ _______ _____ _____    ______ ____

>  <TORSDO>
F 9

$$$$
=
 OpenBabel10232410103D

 62 69  0  0  1  0  0  0  0  0999 V2000
  193.1140  176.2970  140.3210 C   0  0  0  0  0  3  0  0  0  0  0  0
  189.5840  176.7530  136.5680 N   0  0  0  0  0  2  0  0  0  0  0  0
  193.5760  175.7740  136.6620 C   0  0  0  0  0  0  0  0  0  0  0  0
  191.8990  177.0270  140.3870 C   0  0  0  0  0  0  0  0  0  0  0  0
  191.0740  178.1330  142.6860 C   0  0  0  0  0  3  0  0  0  0  0  0
  192.8860  176.0500  135.5430 N   0  0  0  0  0  0  0  0  0  0  0  0
  191.6360  176.6550  135.5530 N   0  0  0  0  0  0  0  0  0  0  0  0
  191.6720  176.6170  137.9990 C   0  0  2  0  0  3  0  0  0  0  0  0
  193.1420  176.5260  137.8730 C   0  0  1  0  0  3  0  0  0  0  0  0
  190.9790  176.8980  136.6460 C   0  0  0  0  0  0  0  0  0  0  0  0
  191.2250  177.4450  139.1180 C   0  0  0  0  0  2  0  0  0  0  0  0
  194.5460  174.7170  136.6990 N   0  0  0  0  0  2  0  0  0  0  0  0
  193.6450  176.0820  139.1400 N   0  0  0  0  0  0  0  0  0  0  0  0
  191.4460  177.4760  141.5990 C   0  0  0  0  0  0  0  0  0  0  0  0
  198.2020  173.9730  136.5360 C   0  0  0  0  0  0  0  0  0  0  0  0
  200.2310  173.3480  135.3220 C   0  0  0  0  0  1  0  0  0  0  0  0
  198.0880  172.7780  134.4310 C   0  0  0  0  0  3  0  0  0  0  0  0
  195.6710  173.2950  134.9440 C   0  0  0  0  0  3  0  0  0  0  0  0
  196.6420  172.6150  134.3460 C   0  0  0  0  0  3  0  0  0  0  0  0
  198.9470  174.4290  137.6050 N   0  0  0  0  0  0  0  0  0  0  0  0
  195.7710  174.4430  135.8680 C   0  0  2  0  0  3  0  0  0  0  0  0
  196.8900  174.3610  136.8010 N   0  0  0  0  0  0  0  0  0  0  0  0
  198.7760  173.3870  135.3650 C   0  0  0  0  0  0  0  0  0  0  0  0
  196.8060  174.9830  137.9380 N   0  0  0  0  0  0  0  0  0  0  0  0
  198.0560  175.0260  138.4240 C   0  0  0  0  0  3  0  0  0  0  0  0
  190.4620  178.0450  144.1140 C   0  0  0  0  0  0  0  0  0  0  0  0
  190.0440  179.1780  144.4830 O   0  0  0  0  0  0  0  0  0  0  0  0
  190.3740  176.8950  145.0320 N   0  0  0  0  0  2  0  0  0  0  0  0
  187.9230  178.6420  147.1180 C   0  0  0  0  0  0  0  0  0  0  0  0
  186.0320  177.2090  145.4540 C   0  0  0  0  0  3  0  0  0  0  0  0
  184.1970  178.7440  146.2560 C   0  0  0  0  0  1  0  0  0  0  0  0
  189.7860  177.0060  146.4550 C   0  0  2  0  0  0  0  0  0  0  0  0
  185.5000  177.9790  146.6520 C   0  0  2  0  0  3  0  0  0  0  0  0
  186.5360  178.9570  147.1420 C   0  0  0  0  0  0  0  0  0  0  0  0
  186.1830  179.9040  147.8620 O   0  0  0  0  0  0  0  0  0  0  0  0
  189.9950  178.8170  148.3200 C   0  0  0  0  0  3  0  0  0  0  0  0
  187.3960  177.0920  145.3250 C   0  0  0  0  0  3  0  0  0  0  0  0
  188.3970  177.6460  146.3090 C   0  0  0  0  0  0  0  0  0  0  0  0
  190.6720  178.0010  147.2740 C   0  0  0  0  0  2  0  0  0  0  0  0
  188.7280  179.2160  148.2390 C   0  0  0  0  0  3  0  0  0  0  0  0
  188.7490  175.4680  147.9320 O   0  0  0  0  0  1  0  0  0  0  0  0
  189.7650  175.6570  147.1720 C   0  0  0  0  0  0  0  0  0  0  0  0
  190.9070  174.9220  147.4750 O   0  0  0  0  0  0  0  0  0  0  0  0
  188.7130  177.4800  135.6840 C   0  0  0  0  0  2  0  0  0  0  0  0
  187.5600  176.5700  135.1390 C   0  0  0  0  0  2  0  0  0  0  0  0
  186.0510  177.1880  137.1070 N   0  0  0  0  0  2  0  0  0  0  0  0
  185.5960  177.7830  134.9110 O   0  0  0  0  0  0  0  0  0  0  0  0
  186.3350  177.2180  135.6960 C   0  0  0  0  0  0  0  0  0  0  0  0
  186.0360  178.1620  139.6460 O   0  0  0  0  0  1  0  0  0  0  0  0
  183.1450  180.0700  138.5300 O   0  0  0  0  0  1  0  0  0  0  0  0
  184.0240  179.3690  139.3600 C   0  0  1  0  0  3  0  0  0  0  0  0
  183.9570  176.5750  138.3820 C   0  0  0  0  0  2  0  0  0  0  0  0
  182.7280  177.2080  139.1170 C   0  0  0  0  0  2  0  0  0  0  0  0
  184.8050  177.6930  137.6760 C   0  0  1  0  0  3  0  0  0  0  0  0
  183.2530  178.2800  140.0700 C   0  0  2  0  0  3  0  0  0  0  0  0
  185.2280  178.7530  138.6860 C   0  0  2  0  0  3  0  0  0  0  0  0
  182.3500  178.7800  141.1400 N   0  0  1  0  0  0  0  0  0  0  0  0
  181.0420  178.4760  140.8770 O   0  0  0  0  0  0  0  0  0  0  0  0
  181.9390  179.4130  143.5200 C   0  0  0  0  0  2  0  0  0  0  0  0
  182.8290  178.6830  142.5390 C   0  0  0  0  0  2  0  0  0  0  0  0
  180.4360  179.2340  143.0960 C   0  0  0  0  0  2  0  0  0  0  0  0
  180.3560  178.1510  142.0770 C   0  0  0  0  0  2  0  0  0  0  0  0
  1  4  1  0  0  0  0
  2 10  1  0  0  0  0
  3 12  1  0  0  0  0
  4 14  2  0  0  0  0
  5 26  1  0  0  0  0
  6  7  1  0  0  0  0
  6  3  2  0  0  0  0
  7 10  2  0  0  0  0
  8 11  1  1  0  0  0
  9  3  1  6  0  0  0
  9  8  1  0  0  0  0
  9 13  1  0  0  0  0
 10  8  1  0  0  0  0
 11  4  1  0  0  0  0
 13  1  2  0  0  0  0
 14  5  2  0  0  0  0
 15 22  1  0  0  0  0
 15 20  2  0  0  0  0
 16 23  1  0  0  0  0
 17 23  2  0  0  0  0
 18 21  1  0  0  0  0
 19 17  1  0  0  0  0
 19 18  2  0  0  0  0
 20 25  1  0  0  0  0
 21 12  1  1  0  0  0
 21 22  1  0  0  0  0
 22 24  1  0  0  0  0
 23 15  1  0  0  0  0
 24 25  2  0  0  0  0
 26 27  2  0  0  0  0
 26 28  1  0  0  0  0
 29 34  1  0  0  0  0
 29 40  1  0  0  0  0
 30 33  1  0  0  0  0
 32 28  1  6  0  0  0
 32 42  1  0  0  0  0
 32 39  1  0  0  0  0
 33 31  1  6  0  0  0
 33 34  1  0  0  0  0
 34 35  2  0  0  0  0
 37 30  2  0  0  0  0
 37 38  1  0  0  0  0
 38 32  1  0  0  0  0
 38 29  2  0  0  0  0
 39 36  1  0  0  0  0
 40 36  2  0  0  0  0
 42 43  2  0  0  0  0
 42 41  1  0  0  0  0
 44  2  1  0  0  0  0
 45 44  1  0  0  0  0
 45 48  1  0  0  0  0
 47 48  2  0  0  0  0
 48 46  1  0  0  0  0
 51 50  1  6  0  0  0
 51 55  1  0  0  0  0
 52 53  1  0  0  0  0
 54 46  1  1  0  0  0
 54 52  1  0  0  0  0
 54 56  1  0  0  0  0
 55 53  1  6  0  0  0
 55 57  1  0  0  0  0
 56 51  1  0  0  0  0
 56 49  1  1  0  0  0
 57 60  1  1  0  0  0
 58 57  1  0  0  0  0
 58 62  1  0  0  0  0
 60 59  1  0  0  0  0
 61 59  1  0  0  0  0
 62 61  1  0  0  0  0
M  END
>  <MODEL>
5

>  <REMARK>
 VINA RESULT:      -5.5      4.534     11.513
  Name = 
  9 active torsions:
  status: ('A' for Active; 'I' for Inactive)
    1  A    between atoms: N_5  and  C_51
    2  A    between atoms: C_7  and  N_33
    3  A    between atoms: C_7  and  C_52
    4  A    between atoms: C_10  and  C_18
    5  A    between atoms: N_16  and  C_41
    6  A    between atoms: N_21  and  C_50
    7  A    between atoms: N_43  and  C_56
    8  A    between atoms: C_49  and  C_53
    9  A    between atoms: C_51  and  C_53
                            x       y       z     vdW  Elec       q    Type
                         _______ _______ _______ _____ _____    ______ ____

>  <TORSDO>
F 9

$$$$
=
 OpenBabel10232410103D

 62 69  0  0  1  0  0  0  0  0999 V2000
  191.1580  175.0460  137.7430 C   0  0  0  0  0  3  0  0  0  0  0  0
  188.2910  171.0610  136.1150 N   0  0  0  0  0  2  0  0  0  0  0  0
  192.1770  172.2570  135.4960 C   0  0  0  0  0  0  0  0  0  0  0  0
  189.7410  174.9830  137.7070 C   0  0  0  0  0  0  0  0  0  0  0  0
  188.2430  176.9300  138.7810 C   0  0  0  0  0  3  0  0  0  0  0  0
  191.5560  171.2920  134.7960 N   0  0  0  0  0  0  0  0  0  0  0  0
  190.1790  171.1070  134.8170 N   0  0  0  0  0  0  0  0  0  0  0  0
  189.9940  172.9070  136.4630 C   0  0  2  0  0  3  0  0  0  0  0  0
  191.2990  173.3720  135.9480 C   0  0  1  0  0  3  0  0  0  0  0  0
  189.3900  171.7710  135.6050 C   0  0  0  0  0  0  0  0  0  0  0  0
  189.0740  173.9910  136.8070 C   0  0  0  0  0  2  0  0  0  0  0  0
  193.5470  172.1210  135.9000 N   0  0  0  0  0  2  0  0  0  0  0  0
  191.8340  174.2790  136.9210 N   0  0  0  0  0  0  0  0  0  0  0  0
  189.0060  175.9300  138.3680 C   0  0  0  0  0  0  0  0  0  0  0  0
  197.2120  172.6900  135.4660 C   0  0  0  0  0  0  0  0  0  0  0  0
  199.3620  172.2270  134.3950 C   0  0  0  0  0  1  0  0  0  0  0  0
  197.6300  170.5820  134.3460 C   0  0  0  0  0  3  0  0  0  0  0  0
  195.1840  170.4470  134.9590 C   0  0  0  0  0  3  0  0  0  0  0  0
  196.3600  169.9250  134.6290 C   0  0  0  0  0  3  0  0  0  0  0  0
  197.6920  173.8760  135.9840 N   0  0  0  0  0  0  0  0  0  0  0  0
  194.8080  171.8660  135.1190 C   0  0  2  0  0  3  0  0  0  0  0  0
  195.8440  172.6910  135.7310 N   0  0  0  0  0  0  0  0  0  0  0  0
  198.0020  171.7920  134.6830 C   0  0  0  0  0  0  0  0  0  0  0  0
  195.4930  173.7630  136.3750 N   0  0  0  0  0  0  0  0  0  0  0  0
  196.6150  174.4840  136.5260 C   0  0  0  0  0  3  0  0  0  0  0  0
  187.6320  177.6850  139.9970 C   0  0  0  0  0  0  0  0  0  0  0  0
  187.0780  178.7540  139.6160 O   0  0  0  0  0  0  0  0  0  0  0  0
  187.6730  177.3500  141.4310 N   0  0  0  0  0  2  0  0  0  0  0  0
  186.9760  177.6570  145.0130 C   0  0  0  0  0  0  0  0  0  0  0  0
  189.8640  177.8290  145.1860 C   0  0  0  0  0  3  0  0  0  0  0  0
  189.7180  177.3900  147.6670 C   0  0  0  0  0  1  0  0  0  0  0  0
  187.0630  178.2590  142.5190 C   0  0  2  0  0  0  0  0  0  0  0  0
  189.0480  178.0920  146.4420 C   0  0  2  0  0  3  0  0  0  0  0  0
  187.6440  177.5760  146.2660 C   0  0  0  0  0  0  0  0  0  0  0  0
  186.9410  177.3740  147.2700 O   0  0  0  0  0  0  0  0  0  0  0  0
  184.8770  178.1040  143.9340 C   0  0  0  0  0  3  0  0  0  0  0  0
  189.1820  177.6940  144.0000 C   0  0  0  0  0  3  0  0  0  0  0  0
  187.6850  177.8240  143.8560 C   0  0  0  0  0  0  0  0  0  0  0  0
  185.5300  177.9610  142.6030 C   0  0  0  0  0  2  0  0  0  0  0  0
  185.5000  177.8800  145.0890 C   0  0  0  0  0  3  0  0  0  0  0  0
  186.1850  180.4350  142.1760 O   0  0  0  0  0  1  0  0  0  0  0  0
  187.2640  179.7400  142.2060 C   0  0  0  0  0  0  0  0  0  0  0  0
  188.3390  180.2400  141.4770 O   0  0  0  0  0  0  0  0  0  0  0  0
  187.2590  170.4360  135.3320 C   0  0  0  0  0  2  0  0  0  0  0  0
  186.5910  171.4560  134.3480 C   0  0  0  0  0  2  0  0  0  0  0  0
  185.1090  173.3800  135.1450 N   0  0  0  0  0  2  0  0  0  0  0  0
  184.7860  171.1710  135.7770 O   0  0  0  0  0  0  0  0  0  0  0  0
  185.4400  171.9780  135.1430 C   0  0  0  0  0  0  0  0  0  0  0  0
  184.7690  176.0770  135.2210 O   0  0  0  0  0  1  0  0  0  0  0  0
  181.3710  175.2740  136.2470 O   0  0  0  0  0  1  0  0  0  0  0  0
  182.5850  175.9540  136.1160 C   0  0  1  0  0  3  0  0  0  0  0  0
  184.5880  174.2400  137.4630 C   0  0  0  0  0  2  0  0  0  0  0  0
  183.4940  175.0060  138.2800 C   0  0  0  0  0  2  0  0  0  0  0  0
  184.0780  173.9510  136.0060 C   0  0  1  0  0  3  0  0  0  0  0  0
  183.1190  176.2620  137.4960 C   0  0  2  0  0  3  0  0  0  0  0  0
  183.6610  175.2480  135.3250 C   0  0  2  0  0  3  0  0  0  0  0  0
  182.3780  177.3410  138.2010 N   0  0  1  0  0  0  0  0  0  0  0  0
  181.5570  176.8370  139.1730 O   0  0  0  0  0  0  0  0  0  0  0  0
  182.2090  179.7020  138.9960 C   0  0  0  0  0  2  0  0  0  0  0  0
  183.1070  178.6010  138.4790 C   0  0  0  0  0  2  0  0  0  0  0  0
  181.1290  179.0880  139.9580 C   0  0  0  0  0  2  0  0  0  0  0  0
  181.5360  177.6970  140.3020 C   0  0  0  0  0  2  0  0  0  0  0  0
  3 12  1  0  0  0  0
  4  1  1  0  0  0  0
  4 14  2  0  0  0  0
  5 26  1  0  0  0  0
  6  7  1  0  0  0  0
  6  3  2  0  0  0  0
  7 10  2  0  0  0  0
  8 11  1  6  0  0  0
  9  3  1  1  0  0  0
  9  8  1  0  0  0  0
  9 13  1  0  0  0  0
 10  2  1  0  0  0  0
 10  8  1  0  0  0  0
 11  4  1  0  0  0  0
 13  1  2  0  0  0  0
 14  5  2  0  0  0  0
 15 22  1  0  0  0  0
 15 20  2  0  0  0  0
 16 23  1  0  0  0  0
 17 19  1  0  0  0  0
 17 23  2  0  0  0  0
 18 21  1  0  0  0  0
 19 18  2  0  0  0  0
 20 25  1  0  0  0  0
 21 22  1  0  0  0  0
 21 12  1  1  0  0  0
 22 24  1  0  0  0  0
 23 15  1  0  0  0  0
 24 25  2  0  0  0  0
 26 28  1  0  0  0  0
 27 26  2  0  0  0  0
 29 40  1  0  0  0  0
 29 34  1  0  0  0  0
 30 33  1  0  0  0  0
 32 28  1  6  0  0  0
 32 39  1  0  0  0  0
 32 38  1  0  0  0  0
 33 31  1  1  0  0  0
 34 33  1  0  0  0  0
 34 35  2  0  0  0  0
 36 40  2  0  0  0  0
 37 30  2  0  0  0  0
 38 37  1  0  0  0  0
 38 29  2  0  0  0  0
 39 36  1  0  0  0  0
 41 42  1  0  0  0  0
 42 32  1  0  0  0  0
 43 42  2  0  0  0  0
 44  2  1  0  0  0  0
 45 48  1  0  0  0  0
 45 44  1  0  0  0  0
 48 46  1  0  0  0  0
 48 47  2  0  0  0  0
 51 50  1  1  0  0  0
 51 55  1  0  0  0  0
 52 53  1  0  0  0  0
 54 46  1  6  0  0  0
 54 52  1  0  0  0  0
 55 57  1  0  0  0  0
 55 53  1  1  0  0  0
 56 49  1  1  0  0  0
 56 54  1  0  0  0  0
 56 51  1  0  0  0  0
 57 60  1  1  0  0  0
 57 58  1  0  0  0  0
 58 62  1  0  0  0  0
 59 61  1  0  0  0  0
 60 59  1  0  0  0  0
 61 62  1  0  0  0  0
M  END
>  <MODEL>
6

>  <REMARK>
 VINA RESULT:      -5.2      3.838     11.218
  Name = 
  9 active torsions:
  status: ('A' for Active; 'I' for Inactive)
    1  A    between atoms: N_5  and  C_51
    2  A    between atoms: C_7  and  N_33
    3  A    between atoms: C_7  and  C_52
    4  A    between atoms: C_10  and  C_18
    5  A    between atoms: N_16  and  C_41
    6  A    between atoms: N_21  and  C_50
    7  A    between atoms: N_43  and  C_56
    8  A    between atoms: C_49  and  C_53
    9  A    between atoms: C_51  and  C_53
                            x       y       z     vdW  Elec       q    Type
                         _______ _______ _______ _____ _____    ______ ____

>  <TORSDO>
F 9

$$$$
