=
 OpenBabel10232410073D

 65 71  0  0  1  0  0  0  0  0999 V2000
  190.9830  175.4330  138.1890 C   0  0  1  0  0  3  0  0  0  0  0  0
  192.8380  175.5680  136.8540 C   0  0  1  0  0  3  0  0  0  0  0  0
  191.8520  174.7170  136.0410 C   0  0  1  0  0  3  0  0  0  0  0  0
  192.3130  173.4110  135.8310 O   0  0  0  0  0  1  0  0  0  0  0  0
  189.5460  174.1720  136.6820 N   0  0  0  0  0  0  0  0  0  0  0  0
  190.6930  174.7000  136.9410 C   0  0  0  0  0  0  0  0  0  0  0  0
  192.3170  175.8870  138.1330 O   0  0  0  0  0  0  0  0  0  0  0  0
  188.4700  178.2030  137.4770 C   0  0  0  0  0  3  0  0  0  0  0  0
  188.9140  178.1730  139.8560 C   0  0  0  0  0  3  0  0  0  0  0  0
  188.2420  178.7120  138.7570 C   0  0  0  0  0  3  0  0  0  0  0  0
  190.0410  176.5880  138.3950 C   0  0  0  0  0  0  0  0  0  0  0  0
  189.3650  177.1460  137.2970 C   0  0  0  0  0  3  0  0  0  0  0  0
  189.8180  177.1160  139.6850 C   0  0  0  0  0  0  0  0  0  0  0  0
  190.5560  176.6100  140.8900 C   0  0  0  0  0  2  0  0  0  0  0  0
  190.3210  177.4890  142.1190 C   0  0  0  0  0  2  0  0  0  0  0  0
  189.7010  176.7080  143.2740 C   0  0  1  0  0  3  0  0  0  0  0  0
  189.9530  177.3940  144.4980 O   0  0  0  0  0  0  0  0  0  0  0  0
  187.7540  177.4200  144.2480 C   0  0  0  0  0  0  0  0  0  0  0  0
  188.2770  176.7290  143.1700 O   0  0  0  0  0  0  0  0  0  0  0  0
  188.7370  177.7970  145.0310 C   0  0  0  0  0  0  0  0  0  0  0  0
  186.3290  177.6840  144.4600 C   0  0  0  0  0  3  0  0  0  0  0  0
  185.5560  178.0610  143.4510 C   0  0  0  0  0  3  0  0  0  0  0  0
  184.1120  178.3330  143.6720 C   0  0  0  0  0  2  0  0  0  0  0  0
  183.5760  179.1510  142.5170 C   0  0  0  0  0  1  0  0  0  0  0  0
  188.5850  178.5280  146.2480 N   0  0  0  0  0  2  0  0  0  0  0  0
  188.1830  176.8080  148.1440 C   0  0  0  0  0  2  0  0  0  0  0  0
  189.3670  176.5180  147.2610 C   0  0  1  0  0  3  0  0  0  0  0  0
  190.2370  178.2820  148.0230 O   0  0  0  0  0  0  0  0  0  0  0  0
  188.9630  177.9530  147.5290 C   0  0  1  0  0  0  0  0  0  0  0  0
  190.6650  176.9580  147.8750 C   0  0  0  0  0  2  0  0  0  0  0  0
  194.2630  175.0160  136.9610 C   0  0  0  0  0  2  0  0  0  0  0  0
  194.8430  175.2270  138.3550 C   0  0  0  0  0  2  0  0  0  0  0  0
  197.0680  174.2220  139.0340 C   0  0  0  0  0  2  0  0  0  0  0  0
  197.3970  173.5960  136.6660 O   0  0  0  0  0  0  0  0  0  0  0  0
  197.8430  174.4250  137.7180 C   0  0  0  0  0  2  0  0  0  0  0  0
  197.5560  172.2610  137.0760 C   0  0  0  0  0  2  0  0  0  0  0  0
  195.7530  170.5470  137.0310 C   0  0  0  0  0  1  0  0  0  0  0  0
  195.1990  172.7950  137.9400 C   0  0  0  0  0  2  0  0  0  0  0  0
  196.3000  171.7340  137.7970 C   0  0  2  0  0  3  0  0  0  0  0  0
  195.5580  173.9810  138.8540 C   0  0  2  0  0  3  0  0  0  0  0  0
  189.2750  173.4680  135.4540 C   0  0  0  0  0  2  0  0  0  0  0  0
  188.9370  174.4520  134.3460 C   0  0  0  0  0  2  0  0  0  0  0  0
  187.5440  175.0450  134.5280 C   0  0  0  0  0  2  0  0  0  0  0  0
  186.4880  173.9620  134.7000 C   0  0  0  0  0  2  0  0  0  0  0  0
  185.8560  174.0260  136.0820 C   0  0  2  0  0  3  0  0  0  0  0  0
  185.4070  172.6360  136.5160 C   0  0  0  0  0  2  0  0  0  0  0  0
  186.0450  171.5730  135.6340 C   0  0  0  0  0  2  0  0  0  0  0  0
  184.9760  170.7720  134.9070 C   0  0  0  0  0  2  0  0  0  0  0  0
  183.6430  171.5060  134.9140 C   0  0  0  0  0  2  0  0  0  0  0  0
  182.6120  170.7150  135.6560 C   0  0  0  0  0  0  0  0  0  0  0  0
  181.6040  171.3580  136.4380 N   0  0  0  0  0  2  0  0  0  0  0  0
  182.6520  169.4590  135.6120 O   0  0  0  0  0  0  0  0  0  0  0  0
  180.5420  174.5220  138.0480 C   0  0  0  0  0  1  0  0  0  0  0  0
  181.4930  172.8020  136.5550 C   0  0  2  0  0  3  0  0  0  0  0  0
  180.3280  173.1390  137.4670 C   0  0  2  0  0  3  0  0  0  0  0  0
  180.1720  173.2500  135.9660 C   0  0  0  0  0  2  0  0  0  0  0  0
  184.7520  174.8960  136.0510 O   0  0  0  0  0  0  0  0  0  0  0  0
  185.0430  176.0550  136.8070 C   0  0  1  0  0  0  0  0  0  0  0  0
  186.2420  175.9370  137.4990 F   0  0  0  0  0  0  0  0  0  0  0  0
  185.1020  177.2790  135.9060 C   0  0  0  0  0  1  0  0  0  0  0  0
  183.9250  176.2820  137.8140 C   0  0  0  0  0  2  0  0  0  0  0  0
  183.2090  177.6010  137.5700 C   0  0  0  0  0  2  0  0  0  0  0  0
  182.0160  177.2410  139.7280 O   0  0  0  0  0  1  0  0  0  0  0  0
  182.6380  178.1130  138.8430 C   0  0  0  0  0  0  0  0  0  0  0  0
  182.6970  179.3420  139.1090 O   0  0  0  0  0  0  0  0  0  0  0  0
  1 11  1  6  0  0  0
  2 31  1  1  0  0  0
  2  7  1  0  0  0  0
  3  4  1  1  0  0  0
  3  2  1  0  0  0  0
  3  6  1  0  0  0  0
  5  6  2  0  0  0  0
  6  1  1  0  0  0  0
  7  1  1  0  0  0  0
  8 10  1  0  0  0  0
 10  9  2  0  0  0  0
 11 13  2  0  0  0  0
 12  8  2  0  0  0  0
 12 11  1  0  0  0  0
 13  9  1  0  0  0  0
 13 14  1  0  0  0  0
 14 15  1  0  0  0  0
 16 15  1  6  0  0  0
 16 17  1  0  0  0  0
 17 20  1  0  0  0  0
 18 21  1  0  0  0  0
 18 20  2  0  0  0  0
 19 16  1  0  0  0  0
 19 18  1  0  0  0  0
 20 25  1  0  0  0  0
 22 23  1  0  0  0  0
 22 21  2  0  0  0  0
 24 23  1  0  0  0  0
 27 29  1  0  0  0  0
 27 30  1  1  0  0  0
 27 26  1  0  0  0  0
 29 25  1  6  0  0  0
 29 28  1  0  0  0  0
 29 26  1  0  0  0  0
 30 28  1  0  0  0  0
 31 32  1  0  0  0  0
 34 36  1  0  0  0  0
 34 35  1  0  0  0  0
 35 33  1  0  0  0  0
 36 39  1  0  0  0  0
 38 40  1  0  0  0  0
 39 37  1  6  0  0  0
 39 38  1  0  0  0  0
 40 32  1  6  0  0  0
 40 33  1  0  0  0  0
 41  5  1  0  0  0  0
 42 43  1  0  0  0  0
 42 41  1  0  0  0  0
 43 44  1  0  0  0  0
 45 44  1  6  0  0  0
 45 46  1  0  0  0  0
 47 46  1  0  0  0  0
 48 49  1  0  0  0  0
 48 47  1  0  0  0  0
 49 50  1  0  0  0  0
 50 51  1  0  0  0  0
 52 50  2  0  0  0  0
 54 51  1  6  0  0  0
 54 55  1  0  0  0  0
 55 53  1  1  0  0  0
 56 54  1  0  0  0  0
 56 55  1  0  0  0  0
 57 45  1  0  0  0  0
 57 58  1  0  0  0  0
 58 60  1  6  0  0  0
 58 59  1  0  0  0  0
 58 61  1  0  0  0  0
 62 61  1  0  0  0  0
 62 64  1  0  0  0  0
 64 65  2  0  0  0  0
 64 63  1  0  0  0  0
M  END
>  <MODEL>
1

>  <REMARK>
 VINA RESULT:      -5.7      0.000      0.000
  Name = 
  27 active torsions:
  status: ('A' for Active; 'I' for Inactive)
    1  A    between atoms: C_1  and  C_5
    2  A    between atoms: C_1  and  C_52
    3  A    between atoms: C_3  and  C_21
    4  A    between atoms: O_4  and  C_7
    5  A    between atoms: O_4  and  C_20
    6  A    between atoms: C_5  and  C_12
    7  A    between atoms: C_6  and  C_16
    8  A    between atoms: C_7  and  C_61
    9  A    between atoms: C_7  and  C_65
   10  A    between atoms: C_8  and  C_25
   11  A    between atoms: C_9  and  C_33
   12  A    between atoms: C_10  and  C_30
   13  A    between atoms: C_11  and  C_27
   14  A    between atoms: C_11  and  N_40
   15  A    between atoms: C_12  and  C_65
   16  A    between atoms: C_20  and  C_60
   17  A    between atoms: C_21  and  C_58
   18  A    between atoms: C_23  and  C_28
   19  A    between atoms: C_26  and  N_54
   20  A    between atoms: C_27  and  C_29
   21  A    between atoms: C_28  and  C_60
   22  A    between atoms: C_29  and  C_61
   23  A    between atoms: C_33  and  C_35
   24  A    between atoms: C_35  and  C_63
   25  A    between atoms: C_43  and  N_49
   26  A    between atoms: N_49  and  C_50
   27  A    between atoms: C_55  and  C_58
                            x       y       z     vdW  Elec       q    Type
                         _______ _______ _______ _____ _____    ______ ____

>  <TORSDO>
F 27

$$$$
=
 OpenBabel10232410073D

 65 71  0  0  1  0  0  0  0  0999 V2000
  190.3870  175.9950  136.8320 C   0  0  1  0  0  3  0  0  0  0  0  0
  192.5670  175.2950  136.8490 C   0  0  1  0  0  3  0  0  0  0  0  0
  192.3680  175.9310  138.2310 C   0  0  1  0  0  3  0  0  0  0  0  0
  193.1700  177.0630  138.4240 O   0  0  0  0  0  1  0  0  0  0  0  0
  190.2650  176.8430  139.1110 N   0  0  0  0  0  0  0  0  0  0  0  0
  190.9560  176.3260  138.1540 C   0  0  0  0  0  0  0  0  0  0  0  0
  191.4110  175.4340  136.0410 O   0  0  0  0  0  0  0  0  0  0  0  0
  188.3870  172.7690  137.1260 C   0  0  0  0  0  3  0  0  0  0  0  0
  186.8370  174.6270  137.1270 C   0  0  0  0  0  3  0  0  0  0  0  0
  187.0790  173.2530  137.1940 C   0  0  0  0  0  3  0  0  0  0  0  0
  189.2250  175.0450  136.9410 C   0  0  0  0  0  0  0  0  0  0  0  0
  189.4550  173.6610  137.0010 C   0  0  0  0  0  3  0  0  0  0  0  0
  187.9010  175.5290  136.9960 C   0  0  0  0  0  0  0  0  0  0  0  0
  187.5820  176.9910  136.8710 C   0  0  0  0  0  2  0  0  0  0  0  0
  187.1850  177.3730  135.4450 C   0  0  0  0  0  2  0  0  0  0  0  0
  185.7480  177.8790  135.3640 C   0  0  1  0  0  3  0  0  0  0  0  0
  184.9320  176.8890  134.7430 O   0  0  0  0  0  0  0  0  0  0  0  0
  184.1530  177.0880  136.8050 C   0  0  0  0  0  0  0  0  0  0  0  0
  185.1940  177.9890  136.6760 O   0  0  0  0  0  0  0  0  0  0  0  0
  183.9930  176.4540  135.6670 C   0  0  0  0  0  0  0  0  0  0  0  0
  183.3710  176.8840  138.0260 C   0  0  0  0  0  3  0  0  0  0  0  0
  182.0540  177.0410  138.0170 C   0  0  0  0  0  3  0  0  0  0  0  0
  181.2650  176.8380  139.2600 C   0  0  0  0  0  2  0  0  0  0  0  0
  181.1390  175.3540  139.5320 C   0  0  0  0  0  1  0  0  0  0  0  0
  183.0080  175.4510  135.4150 N   0  0  0  0  0  2  0  0  0  0  0  0
  183.0400  173.3070  136.8700 C   0  0  0  0  0  2  0  0  0  0  0  0
  181.9890  173.3310  135.7930 C   0  0  1  0  0  3  0  0  0  0  0  0
  183.5680  173.3110  134.3940 O   0  0  0  0  0  0  0  0  0  0  0  0
  183.3100  174.0370  135.5690 C   0  0  1  0  0  0  0  0  0  0  0  0
  182.3990  172.5610  134.5700 C   0  0  0  0  0  2  0  0  0  0  0  0
  193.8260  175.7290  136.0910 C   0  0  0  0  0  2  0  0  0  0  0  0
  194.7420  174.5460  135.8030 C   0  0  0  0  0  2  0  0  0  0  0  0
  195.2680  173.6330  138.1080 C   0  0  0  0  0  2  0  0  0  0  0  0
  197.2320  172.5140  137.1090 O   0  0  0  0  0  0  0  0  0  0  0  0
  196.8010  173.5300  137.9890 C   0  0  0  0  0  2  0  0  0  0  0  0
  196.7380  171.2900  137.5940 C   0  0  0  0  0  2  0  0  0  0  0  0
  195.4240  169.6650  136.2430 C   0  0  0  0  0  1  0  0  0  0  0  0
  194.8120  172.0710  136.0880 C   0  0  0  0  0  2  0  0  0  0  0  0
  195.3480  170.9680  137.0120 C   0  0  2  0  0  3  0  0  0  0  0  0
  194.5100  173.4090  136.7860 C   0  0  2  0  0  3  0  0  0  0  0  0
  190.8320  177.1510  140.3990 C   0  0  0  0  0  2  0  0  0  0  0  0
  189.7350  177.5280  141.3810 C   0  0  0  0  0  2  0  0  0  0  0  0
  189.1050  176.2940  142.0190 C   0  0  0  0  0  2  0  0  0  0  0  0
  188.2940  176.6510  143.2570 C   0  0  0  0  0  2  0  0  0  0  0  0
  187.4400  177.8860  143.0160 C   0  0  2  0  0  3  0  0  0  0  0  0
  186.5140  178.1190  144.2030 C   0  0  0  0  0  2  0  0  0  0  0  0
  187.1940  177.6960  145.4970 C   0  0  0  0  0  2  0  0  0  0  0  0
  186.7610  178.5950  146.6460 C   0  0  0  0  0  2  0  0  0  0  0  0
  187.8060  178.6100  147.7510 C   0  0  0  0  0  2  0  0  0  0  0  0
  188.1930  177.2150  148.1280 C   0  0  0  0  0  0  0  0  0  0  0  0
  189.4730  176.6810  147.7850 N   0  0  0  0  0  2  0  0  0  0  0  0
  187.3640  176.4890  148.7320 O   0  0  0  0  0  0  0  0  0  0  0  0
  191.3770  177.7640  144.7970 C   0  0  0  0  0  1  0  0  0  0  0  0
  190.4860  177.4450  147.0760 C   0  0  2  0  0  3  0  0  0  0  0  0
  190.8060  176.7500  145.7660 C   0  0  2  0  0  3  0  0  0  0  0  0
  191.7420  176.6090  146.9470 C   0  0  0  0  0  2  0  0  0  0  0  0
  186.6800  177.7080  141.8470 O   0  0  0  0  0  0  0  0  0  0  0  0
  185.5620  178.5740  141.8740 C   0  0  1  0  0  0  0  0  0  0  0  0
  185.8080  179.7170  142.6250 F   0  0  0  0  0  0  0  0  0  0  0  0
  185.1630  178.9760  140.4630 C   0  0  0  0  0  1  0  0  0  0  0  0
  184.3810  177.8370  142.4910 C   0  0  0  0  0  2  0  0  0  0  0  0
  183.0560  178.4580  142.0780 C   0  0  0  0  0  2  0  0  0  0  0  0
  183.0550  179.1640  144.4680 O   0  0  0  0  0  1  0  0  0  0  0  0
  182.5000  179.2600  143.1980 C   0  0  0  0  0  0  0  0  0  0  0  0
  181.5080  180.0090  143.0020 O   0  0  0  0  0  0  0  0  0  0  0  0
  1 11  1  1  0  0  0
  1  6  1  0  0  0  0
  2 31  1  6  0  0  0
  2  3  1  0  0  0  0
  3  4  1  6  0  0  0
  5 41  1  0  0  0  0
  6  3  1  0  0  0  0
  6  5  2  0  0  0  0
  7  1  1  0  0  0  0
  7  2  1  0  0  0  0
  8 10  1  0  0  0  0
  9 10  2  0  0  0  0
 11 13  2  0  0  0  0
 11 12  1  0  0  0  0
 12  8  2  0  0  0  0
 13  9  1  0  0  0  0
 14 13  1  0  0  0  0
 15 14  1  0  0  0  0
 16 15  1  1  0  0  0
 16 19  1  0  0  0  0
 17 16  1  0  0  0  0
 17 20  1  0  0  0  0
 18 21  1  0  0  0  0
 19 18  1  0  0  0  0
 20 18  2  0  0  0  0
 22 21  2  0  0  0  0
 22 23  1  0  0  0  0
 23 24  1  0  0  0  0
 25 20  1  0  0  0  0
 27 30  1  6  0  0  0
 27 26  1  0  0  0  0
 28 30  1  0  0  0  0
 28 29  1  0  0  0  0
 29 25  1  6  0  0  0
 29 27  1  0  0  0  0
 29 26  1  0  0  0  0
 32 31  1  0  0  0  0
 34 36  1  0  0  0  0
 34 35  1  0  0  0  0
 35 33  1  0  0  0  0
 38 40  1  0  0  0  0
 38 39  1  0  0  0  0
 39 37  1  6  0  0  0
 39 36  1  0  0  0  0
 40 32  1  6  0  0  0
 40 33  1  0  0  0  0
 41 42  1  0  0  0  0
 42 43  1  0  0  0  0
 43 44  1  0  0  0  0
 45 44  1  1  0  0  0
 45 46  1  0  0  0  0
 46 47  1  0  0  0  0
 47 48  1  0  0  0  0
 48 49  1  0  0  0  0
 49 50  1  0  0  0  0
 50 52  2  0  0  0  0
 51 50  1  0  0  0  0
 54 51  1  1  0  0  0
 55 53  1  6  0  0  0
 55 56  1  0  0  0  0
 55 54  1  0  0  0  0
 56 54  1  0  0  0  0
 57 58  1  0  0  0  0
 57 45  1  0  0  0  0
 58 60  1  6  0  0  0
 58 61  1  0  0  0  0
 58 59  1  0  0  0  0
 62 61  1  0  0  0  0
 62 64  1  0  0  0  0
 64 63  1  0  0  0  0
 65 64  2  0  0  0  0
M  END
>  <MODEL>
2

>  <REMARK>
 VINA RESULT:      -5.6      2.160      8.645
  Name = 
  27 active torsions:
  status: ('A' for Active; 'I' for Inactive)
    1  A    between atoms: C_1  and  C_5
    2  A    between atoms: C_1  and  C_52
    3  A    between atoms: C_3  and  C_21
    4  A    between atoms: O_4  and  C_7
    5  A    between atoms: O_4  and  C_20
    6  A    between atoms: C_5  and  C_12
    7  A    between atoms: C_6  and  C_16
    8  A    between atoms: C_7  and  C_61
    9  A    between atoms: C_7  and  C_65
   10  A    between atoms: C_8  and  C_25
   11  A    between atoms: C_9  and  C_33
   12  A    between atoms: C_10  and  C_30
   13  A    between atoms: C_11  and  C_27
   14  A    between atoms: C_11  and  N_40
   15  A    between atoms: C_12  and  C_65
   16  A    between atoms: C_20  and  C_60
   17  A    between atoms: C_21  and  C_58
   18  A    between atoms: C_23  and  C_28
   19  A    between atoms: C_26  and  N_54
   20  A    between atoms: C_27  and  C_29
   21  A    between atoms: C_28  and  C_60
   22  A    between atoms: C_29  and  C_61
   23  A    between atoms: C_33  and  C_35
   24  A    between atoms: C_35  and  C_63
   25  A    between atoms: C_43  and  N_49
   26  A    between atoms: N_49  and  C_50
   27  A    between atoms: C_55  and  C_58
                            x       y       z     vdW  Elec       q    Type
                         _______ _______ _______ _____ _____    ______ ____

>  <TORSDO>
F 27

$$$$
=
 OpenBabel10232410073D

 65 71  0  0  1  0  0  0  0  0999 V2000
  186.1910  175.0220  136.9390 C   0  0  1  0  0  3  0  0  0  0  0  0
  184.9310  176.3210  135.5370 C   0  0  1  0  0  3  0  0  0  0  0  0
  186.1550  177.1900  135.8530 C   0  0  1  0  0  3  0  0  0  0  0  0
  185.8210  178.3580  136.5500 O   0  0  0  0  0  1  0  0  0  0  0  0
  188.0910  176.5200  137.2050 N   0  0  0  0  0  0  0  0  0  0  0  0
  186.9190  176.2880  136.7230 C   0  0  0  0  0  0  0  0  0  0  0  0
  184.9570  175.1030  136.2610 O   0  0  0  0  0  0  0  0  0  0  0  0
  187.6210  171.5010  136.7220 C   0  0  0  0  0  3  0  0  0  0  0  0
  188.4760  172.7840  134.8570 C   0  0  0  0  0  3  0  0  0  0  0  0
  188.3970  171.5820  135.5640 C   0  0  0  0  0  3  0  0  0  0  0  0
  186.9780  173.8320  136.4600 C   0  0  0  0  0  0  0  0  0  0  0  0
  186.9150  172.6200  137.1680 C   0  0  0  0  0  3  0  0  0  0  0  0
  187.7750  173.9140  135.2990 C   0  0  0  0  0  0  0  0  0  0  0  0
  187.9380  175.1960  134.5350 C   0  0  0  0  0  2  0  0  0  0  0  0
  189.4060  175.6020  134.4010 C   0  0  0  0  0  2  0  0  0  0  0  0
  190.3440  174.6020  135.0700 C   0  0  1  0  0  3  0  0  0  0  0  0
  191.6780  174.8310  134.6230 O   0  0  0  0  0  0  0  0  0  0  0  0
  191.7020  175.2550  136.7950 C   0  0  0  0  0  0  0  0  0  0  0  0
  190.4160  174.8640  136.4730 O   0  0  0  0  0  0  0  0  0  0  0  0
  192.4430  175.2230  135.7120 C   0  0  0  0  0  0  0  0  0  0  0  0
  192.1470  175.6470  138.1350 C   0  0  0  0  0  3  0  0  0  0  0  0
  191.9040  176.8670  138.5950 C   0  0  0  0  0  3  0  0  0  0  0  0
  192.3610  177.2610  139.9530 C   0  0  0  0  0  2  0  0  0  0  0  0
  193.8610  177.0820  140.0440 C   0  0  0  0  0  1  0  0  0  0  0  0
  193.8300  175.5560  135.6530 N   0  0  0  0  0  2  0  0  0  0  0  0
  196.3220  174.9010  135.9310 C   0  0  0  0  0  2  0  0  0  0  0  0
  195.4660  174.6810  137.1490 C   0  0  1  0  0  3  0  0  0  0  0  0
  194.4290  173.2240  136.0300 O   0  0  0  0  0  0  0  0  0  0  0  0
  194.8590  174.5350  135.7680 C   0  0  1  0  0  0  0  0  0  0  0  0
  195.0270  173.2520  137.2950 C   0  0  0  0  0  2  0  0  0  0  0  0
  183.5710  177.0130  135.6690 C   0  0  0  0  0  2  0  0  0  0  0  0
  182.7960  176.5000  136.8770 C   0  0  0  0  0  2  0  0  0  0  0  0
  182.7210  176.5670  139.4100 C   0  0  0  0  0  2  0  0  0  0  0  0
  180.4350  177.4850  139.2200 O   0  0  0  0  0  0  0  0  0  0  0  0
  181.2070  176.3720  139.6170 C   0  0  0  0  0  2  0  0  0  0  0  0
  180.8520  178.5900  139.9820 C   0  0  0  0  0  2  0  0  0  0  0  0
  181.5530  180.7790  139.0280 C   0  0  0  0  0  1  0  0  0  0  0  0
  182.4460  178.7100  137.9750 C   0  0  0  0  0  2  0  0  0  0  0  0
  181.9980  179.3560  139.2940 C   0  0  2  0  0  3  0  0  0  0  0  0
  183.0960  177.3220  138.1210 C   0  0  2  0  0  3  0  0  0  0  0  0
  188.7930  177.7580  136.9780 C   0  0  0  0  0  2  0  0  0  0  0  0
  188.8790  178.5590  138.2670 C   0  0  0  0  0  2  0  0  0  0  0  0
  187.9580  177.9910  139.3420 C   0  0  0  0  0  2  0  0  0  0  0  0
  188.7110  177.7010  140.6340 C   0  0  0  0  0  2  0  0  0  0  0  0
  187.8840  178.0920  141.8490 C   0  0  2  0  0  3  0  0  0  0  0  0
  186.7030  178.9540  141.4220 C   0  0  0  0  0  2  0  0  0  0  0  0
  185.4510  178.1020  141.2730 C   0  0  0  0  0  2  0  0  0  0  0  0
  184.7430  177.9570  142.6110 C   0  0  0  0  0  2  0  0  0  0  0  0
  184.8420  179.2380  143.4240 C   0  0  0  0  0  2  0  0  0  0  0  0
  183.9540  179.1680  144.6260 C   0  0  0  0  0  0  0  0  0  0  0  0
  184.4940  179.0270  145.9420 N   0  0  0  0  0  2  0  0  0  0  0  0
  182.7070  179.2060  144.4720 O   0  0  0  0  0  0  0  0  0  0  0  0
  187.5570  177.6250  147.4840 C   0  0  0  0  0  1  0  0  0  0  0  0
  185.9210  178.9620  146.2090 C   0  0  2  0  0  3  0  0  0  0  0  0
  186.1510  178.1880  147.4940 C   0  0  2  0  0  3  0  0  0  0  0  0
  186.2200  179.6990  147.4970 C   0  0  0  0  0  2  0  0  0  0  0  0
  188.6920  178.8040  142.7540 O   0  0  0  0  0  0  0  0  0  0  0  0
  189.0150  177.9750  143.8520 C   0  0  1  0  0  0  0  0  0  0  0  0
  188.7010  178.5750  145.0660 F   0  0  0  0  0  0  0  0  0  0  0  0
  188.2880  176.6430  143.7490 C   0  0  0  0  0  1  0  0  0  0  0  0
  190.5080  177.6840  143.8300 C   0  0  0  0  0  2  0  0  0  0  0  0
  190.8100  176.2630  144.2790 C   0  0  0  0  0  2  0  0  0  0  0  0
  192.2080  175.0940  145.9790 O   0  0  0  0  0  0  0  0  0  0  0  0
  191.7230  176.2840  145.4520 C   0  0  0  0  0  0  0  0  0  0  0  0
  192.0360  177.3810  145.9840 O   0  0  0  0  0  1  0  0  0  0  0  0
  1 11  1  6  0  0  0
  2 31  1  1  0  0  0
  2  3  1  0  0  0  0
  2  7  1  0  0  0  0
  3  4  1  1  0  0  0
  3  6  1  0  0  0  0
  6  1  1  0  0  0  0
  6  5  2  0  0  0  0
  7  1  1  0  0  0  0
  8 12  1  0  0  0  0
  9 13  2  0  0  0  0
  9 10  1  0  0  0  0
 10  8  2  0  0  0  0
 11 12  2  0  0  0  0
 13 11  1  0  0  0  0
 14 13  1  0  0  0  0
 15 14  1  0  0  0  0
 16 15  1  6  0  0  0
 16 19  1  0  0  0  0
 17 16  1  0  0  0  0
 17 20  1  0  0  0  0
 18 21  1  0  0  0  0
 19 18  1  0  0  0  0
 20 18  2  0  0  0  0
 21 22  2  0  0  0  0
 22 23  1  0  0  0  0
 23 24  1  0  0  0  0
 25 20  1  0  0  0  0
 27 26  1  6  0  0  0
 27 30  1  0  0  0  0
 28 30  1  0  0  0  0
 29 25  1  6  0  0  0
 29 26  1  0  0  0  0
 29 28  1  0  0  0  0
 29 27  1  0  0  0  0
 31 32  1  0  0  0  0
 33 35  1  0  0  0  0
 34 35  1  0  0  0  0
 34 36  1  0  0  0  0
 38 40  1  0  0  0  0
 38 39  1  0  0  0  0
 39 37  1  6  0  0  0
 39 36  1  0  0  0  0
 40 32  1  6  0  0  0
 40 33  1  0  0  0  0
 41  5  1  0  0  0  0
 41 42  1  0  0  0  0
 42 43  1  0  0  0  0
 43 44  1  0  0  0  0
 45 44  1  6  0  0  0
 45 57  1  0  0  0  0
 46 45  1  0  0  0  0
 47 46  1  0  0  0  0
 47 48  1  0  0  0  0
 48 49  1  0  0  0  0
 49 50  1  0  0  0  0
 50 51  1  0  0  0  0
 52 50  2  0  0  0  0
 54 51  1  1  0  0  0
 54 55  1  0  0  0  0
 54 56  1  0  0  0  0
 55 53  1  6  0  0  0
 55 56  1  0  0  0  0
 57 58  1  0  0  0  0
 58 60  1  6  0  0  0
 58 59  1  0  0  0  0
 61 58  1  0  0  0  0
 61 62  1  0  0  0  0
 62 64  1  0  0  0  0
 64 63  2  0  0  0  0
 64 65  1  0  0  0  0
M  END
>  <MODEL>
3

>  <REMARK>
 VINA RESULT:      -4.8      2.695     10.656
  Name = 
  27 active torsions:
  status: ('A' for Active; 'I' for Inactive)
    1  A    between atoms: C_1  and  C_5
    2  A    between atoms: C_1  and  C_52
    3  A    between atoms: C_3  and  C_21
    4  A    between atoms: O_4  and  C_7
    5  A    between atoms: O_4  and  C_20
    6  A    between atoms: C_5  and  C_12
    7  A    between atoms: C_6  and  C_16
    8  A    between atoms: C_7  and  C_61
    9  A    between atoms: C_7  and  C_65
   10  A    between atoms: C_8  and  C_25
   11  A    between atoms: C_9  and  C_33
   12  A    between atoms: C_10  and  C_30
   13  A    between atoms: C_11  and  C_27
   14  A    between atoms: C_11  and  N_40
   15  A    between atoms: C_12  and  C_65
   16  A    between atoms: C_20  and  C_60
   17  A    between atoms: C_21  and  C_58
   18  A    between atoms: C_23  and  C_28
   19  A    between atoms: C_26  and  N_54
   20  A    between atoms: C_27  and  C_29
   21  A    between atoms: C_28  and  C_60
   22  A    between atoms: C_29  and  C_61
   23  A    between atoms: C_33  and  C_35
   24  A    between atoms: C_35  and  C_63
   25  A    between atoms: C_43  and  N_49
   26  A    between atoms: N_49  and  C_50
   27  A    between atoms: C_55  and  C_58
                            x       y       z     vdW  Elec       q    Type
                         _______ _______ _______ _____ _____    ______ ____

>  <TORSDO>
F 27

$$$$
=
 OpenBabel10232410073D

 65 71  0  0  1  0  0  0  0  0999 V2000
  189.7670  176.0940  137.1270 C   0  0  1  0  0  3  0  0  0  0  0  0
  188.3800  177.8320  136.5790 C   0  0  1  0  0  3  0  0  0  0  0  0
  188.6500  178.0260  138.0770 C   0  0  1  0  0  3  0  0  0  0  0  0
  187.4920  177.8990  138.8550 O   0  0  0  0  0  1  0  0  0  0  0  0
  190.1500  176.6620  139.4620 N   0  0  0  0  0  0  0  0  0  0  0  0
  189.5580  176.9040  138.3430 C   0  0  0  0  0  0  0  0  0  0  0  0
  188.9820  176.6450  136.0920 O   0  0  0  0  0  0  0  0  0  0  0  0
  193.5100  176.7810  137.0610 C   0  0  0  0  0  3  0  0  0  0  0  0
  193.0020  175.1730  135.3260 C   0  0  0  0  0  3  0  0  0  0  0  0
  193.9320  175.9490  136.0220 C   0  0  0  0  0  3  0  0  0  0  0  0
  191.2160  176.0490  136.7230 C   0  0  0  0  0  0  0  0  0  0  0  0
  192.1590  176.8310  137.4090 C   0  0  0  0  0  3  0  0  0  0  0  0
  191.6440  175.2200  135.6640 C   0  0  0  0  0  0  0  0  0  0  0  0
  190.6790  174.4100  134.8480 C   0  0  0  0  0  2  0  0  0  0  0  0
  191.3030  173.1070  134.3460 C   0  0  0  0  0  2  0  0  0  0  0  0
  191.5650  172.1210  135.4810 C   0  0  1  0  0  3  0  0  0  0  0  0
  192.3470  171.0340  134.9910 O   0  0  0  0  0  0  0  0  0  0  0  0
  193.6150  172.0410  136.5010 C   0  0  0  0  0  0  0  0  0  0  0  0
  192.4110  172.7210  136.4630 O   0  0  0  0  0  0  0  0  0  0  0  0
  193.5700  171.0450  135.6470 C   0  0  0  0  0  0  0  0  0  0  0  0
  194.7480  172.3940  137.3590 C   0  0  0  0  0  3  0  0  0  0  0  0
  195.8660  172.8760  136.8320 C   0  0  0  0  0  3  0  0  0  0  0  0
  197.0150  173.2280  137.7060 C   0  0  0  0  0  2  0  0  0  0  0  0
  196.5020  173.9260  138.9470 C   0  0  0  0  0  1  0  0  0  0  0  0
  194.6260  170.1140  135.4120 N   0  0  0  0  0  2  0  0  0  0  0  0
  195.3800  168.1790  136.9610 C   0  0  0  0  0  2  0  0  0  0  0  0
  194.0200  168.7460  137.2660 C   0  0  1  0  0  3  0  0  0  0  0  0
  193.4040  168.0060  135.3890 O   0  0  0  0  0  0  0  0  0  0  0  0
  194.5230  168.7280  135.8370 C   0  0  1  0  0  0  0  0  0  0  0  0
  192.9070  167.9150  136.6940 C   0  0  0  0  0  2  0  0  0  0  0  0
  186.9120  177.9220  136.1500 C   0  0  0  0  0  2  0  0  0  0  0  0
  186.2510  176.5490  136.1230 C   0  0  0  0  0  2  0  0  0  0  0  0
  184.4800  175.1200  137.2400 C   0  0  0  0  0  2  0  0  0  0  0  0
  183.3280  175.0150  135.0570 O   0  0  0  0  0  0  0  0  0  0  0  0
  184.0410  174.2780  136.0270 C   0  0  0  0  0  2  0  0  0  0  0  0
  182.1790  175.5400  135.6760 C   0  0  0  0  0  2  0  0  0  0  0  0
  181.5280  177.9410  135.6360 C   0  0  0  0  0  1  0  0  0  0  0  0
  183.9030  177.3880  136.1210 C   0  0  0  0  0  2  0  0  0  0  0  0
  182.4470  176.9290  136.2870 C   0  0  2  0  0  3  0  0  0  0  0  0
  184.9380  176.5480  136.8920 C   0  0  2  0  0  3  0  0  0  0  0  0
  189.9430  177.4680  140.6390 C   0  0  0  0  0  2  0  0  0  0  0  0
  188.6650  177.0470  141.3460 C   0  0  0  0  0  2  0  0  0  0  0  0
  188.7900  177.1850  142.8600 C   0  0  0  0  0  2  0  0  0  0  0  0
  187.6620  176.4670  143.5870 C   0  0  0  0  0  2  0  0  0  0  0  0
  186.9910  177.3830  144.5990 C   0  0  2  0  0  3  0  0  0  0  0  0
  185.8680  178.1660  143.9300 C   0  0  0  0  0  2  0  0  0  0  0  0
  185.6510  177.6720  142.5070 C   0  0  0  0  0  2  0  0  0  0  0  0
  184.2640  178.0570  142.0150 C   0  0  0  0  0  2  0  0  0  0  0  0
  183.6540  179.1390  142.8920 C   0  0  0  0  0  2  0  0  0  0  0  0
  182.1930  178.8920  143.0930 C   0  0  0  0  0  0  0  0  0  0  0  0
  181.2730  178.9470  142.0000 N   0  0  0  0  0  2  0  0  0  0  0  0
  181.7610  178.6580  144.2500 O   0  0  0  0  0  0  0  0  0  0  0  0
  180.7380  179.9680  138.4790 C   0  0  0  0  0  1  0  0  0  0  0  0
  181.6830  179.2240  140.6340 C   0  0  2  0  0  3  0  0  0  0  0  0
  180.4690  179.1520  139.7260 C   0  0  2  0  0  3  0  0  0  0  0  0
  181.4420  177.9940  139.7830 C   0  0  0  0  0  2  0  0  0  0  0  0
  187.9420  178.2720  145.1280 O   0  0  0  0  0  0  0  0  0  0  0  0
  188.0430  178.0790  146.5250 C   0  0  1  0  0  0  0  0  0  0  0  0
  187.4250  179.1010  147.2370 F   0  0  0  0  0  0  0  0  0  0  0  0
  187.4300  176.7460  146.9270 C   0  0  0  0  0  1  0  0  0  0  0  0
  189.5140  178.0420  146.9150 C   0  0  0  0  0  2  0  0  0  0  0  0
  189.8850  176.7260  147.5810 C   0  0  0  0  0  2  0  0  0  0  0  0
  191.9370  177.0490  146.2040 O   0  0  0  0  0  0  0  0  0  0  0  0
  191.2370  176.2960  147.1380 C   0  0  0  0  0  0  0  0  0  0  0  0
  191.7380  175.2340  147.5910 O   0  0  0  0  0  1  0  0  0  0  0  0
  1 11  1  6  0  0  0
  1  6  1  0  0  0  0
  2 31  1  1  0  0  0
  2  3  1  0  0  0  0
  3  6  1  0  0  0  0
  3  4  1  1  0  0  0
  5 41  1  0  0  0  0
  6  5  2  0  0  0  0
  7  2  1  0  0  0  0
  7  1  1  0  0  0  0
  8 12  1  0  0  0  0
  9 13  2  0  0  0  0
  9 10  1  0  0  0  0
 10  8  2  0  0  0  0
 11 12  2  0  0  0  0
 13 11  1  0  0  0  0
 14 13  1  0  0  0  0
 15 14  1  0  0  0  0
 16 15  1  6  0  0  0
 16 19  1  0  0  0  0
 17 16  1  0  0  0  0
 17 20  1  0  0  0  0
 18 21  1  0  0  0  0
 19 18  1  0  0  0  0
 20 18  2  0  0  0  0
 22 21  2  0  0  0  0
 22 23  1  0  0  0  0
 23 24  1  0  0  0  0
 25 20  1  0  0  0  0
 26 27  1  0  0  0  0
 27 30  1  6  0  0  0
 28 29  1  0  0  0  0
 28 30  1  0  0  0  0
 29 25  1  6  0  0  0
 29 26  1  0  0  0  0
 29 27  1  0  0  0  0
 32 31  1  0  0  0  0
 34 36  1  0  0  0  0
 34 35  1  0  0  0  0
 35 33  1  0  0  0  0
 36 39  1  0  0  0  0
 38 39  1  0  0  0  0
 38 40  1  0  0  0  0
 39 37  1  6  0  0  0
 40 32  1  6  0  0  0
 40 33  1  0  0  0  0
 41 42  1  0  0  0  0
 42 43  1  0  0  0  0
 43 44  1  0  0  0  0
 45 44  1  6  0  0  0
 45 57  1  0  0  0  0
 46 45  1  0  0  0  0
 47 46  1  0  0  0  0
 48 47  1  0  0  0  0
 48 49  1  0  0  0  0
 49 50  1  0  0  0  0
 50 52  2  0  0  0  0
 51 50  1  0  0  0  0
 54 51  1  1  0  0  0
 55 53  1  6  0  0  0
 55 56  1  0  0  0  0
 55 54  1  0  0  0  0
 56 54  1  0  0  0  0
 57 58  1  0  0  0  0
 58 61  1  0  0  0  0
 58 60  1  1  0  0  0
 58 59  1  0  0  0  0
 61 62  1  0  0  0  0
 63 64  2  0  0  0  0
 64 62  1  0  0  0  0
 64 65  1  0  0  0  0
M  END
>  <MODEL>
4

>  <REMARK>
 VINA RESULT:      -4.3      2.979     10.609
  Name = 
  27 active torsions:
  status: ('A' for Active; 'I' for Inactive)
    1  A    between atoms: C_1  and  C_5
    2  A    between atoms: C_1  and  C_52
    3  A    between atoms: C_3  and  C_21
    4  A    between atoms: O_4  and  C_7
    5  A    between atoms: O_4  and  C_20
    6  A    between atoms: C_5  and  C_12
    7  A    between atoms: C_6  and  C_16
    8  A    between atoms: C_7  and  C_61
    9  A    between atoms: C_7  and  C_65
   10  A    between atoms: C_8  and  C_25
   11  A    between atoms: C_9  and  C_33
   12  A    between atoms: C_10  and  C_30
   13  A    between atoms: C_11  and  C_27
   14  A    between atoms: C_11  and  N_40
   15  A    between atoms: C_12  and  C_65
   16  A    between atoms: C_20  and  C_60
   17  A    between atoms: C_21  and  C_58
   18  A    between atoms: C_23  and  C_28
   19  A    between atoms: C_26  and  N_54
   20  A    between atoms: C_27  and  C_29
   21  A    between atoms: C_28  and  C_60
   22  A    between atoms: C_29  and  C_61
   23  A    between atoms: C_33  and  C_35
   24  A    between atoms: C_35  and  C_63
   25  A    between atoms: C_43  and  N_49
   26  A    between atoms: N_49  and  C_50
   27  A    between atoms: C_55  and  C_58
                            x       y       z     vdW  Elec       q    Type
                         _______ _______ _______ _____ _____    ______ ____

>  <TORSDO>
F 27

$$$$
=
 OpenBabel10232410073D

 65 71  0  0  1  0  0  0  0  0999 V2000
  186.6540  175.3450  136.8200 C   0  0  1  0  0  3  0  0  0  0  0  0
  185.7170  176.7100  135.2390 C   0  0  1  0  0  3  0  0  0  0  0  0
  187.0510  177.3900  135.5790 C   0  0  1  0  0  3  0  0  0  0  0  0
  186.8780  178.6510  136.1630 O   0  0  0  0  0  1  0  0  0  0  0  0
  188.7610  176.5270  137.1150 N   0  0  0  0  0  0  0  0  0  0  0  0
  187.5960  176.4510  136.5660 C   0  0  0  0  0  0  0  0  0  0  0  0
  185.4940  175.5700  136.0500 O   0  0  0  0  0  0  0  0  0  0  0  0
  187.3900  171.6100  136.8890 C   0  0  0  0  0  3  0  0  0  0  0  0
  188.7350  172.6180  135.1480 C   0  0  0  0  0  3  0  0  0  0  0  0
  188.3240  171.4870  135.8590 C   0  0  0  0  0  3  0  0  0  0  0  0
  187.2550  174.0050  136.4890 C   0  0  0  0  0  0  0  0  0  0  0  0
  186.8570  172.8630  137.2030 C   0  0  0  0  0  3  0  0  0  0  0  0
  188.2110  173.8790  135.4580 C   0  0  0  0  0  0  0  0  0  0  0  0
  188.7270  175.0690  134.7020 C   0  0  0  0  0  2  0  0  0  0  0  0
  190.2090  174.9280  134.3510 C   0  0  0  0  0  2  0  0  0  0  0  0
  191.0520  174.5410  135.5620 C   0  0  1  0  0  3  0  0  0  0  0  0
  191.8230  173.3820  135.2510 O   0  0  0  0  0  0  0  0  0  0  0  0
  193.2980  174.9940  135.6080 C   0  0  0  0  0  0  0  0  0  0  0  0
  192.0430  175.5410  135.8070 O   0  0  0  0  0  0  0  0  0  0  0  0
  193.1660  173.7260  135.2950 C   0  0  0  0  0  0  0  0  0  0  0  0
  194.5590  175.7290  135.7260 C   0  0  0  0  0  3  0  0  0  0  0  0
  195.1250  176.2700  134.6560 C   0  0  0  0  0  3  0  0  0  0  0  0
  196.4080  177.0110  134.7800 C   0  0  0  0  0  2  0  0  0  0  0  0
  196.1700  178.4740  134.4730 C   0  0  0  0  0  1  0  0  0  0  0  0
  194.2440  172.8290  135.0240 N   0  0  0  0  0  2  0  0  0  0  0  0
  195.9320  171.0420  135.8410 C   0  0  0  0  0  2  0  0  0  0  0  0
  196.4700  172.4460  135.7830 C   0  0  1  0  0  3  0  0  0  0  0  0
  195.0920  172.9270  137.3060 O   0  0  0  0  0  0  0  0  0  0  0  0
  195.0060  172.2150  136.0990 C   0  0  1  0  0  0  0  0  0  0  0  0
  196.4660  173.1210  137.1240 C   0  0  0  0  0  2  0  0  0  0  0  0
  184.4890  177.6240  135.2210 C   0  0  0  0  0  2  0  0  0  0  0  0
  183.2000  176.8280  135.0490 C   0  0  0  0  0  2  0  0  0  0  0  0
  180.7660  177.0930  135.7010 C   0  0  0  0  0  2  0  0  0  0  0  0
  180.9920  179.4990  135.1870 O   0  0  0  0  0  0  0  0  0  0  0  0
  180.3950  178.2820  134.7940 C   0  0  0  0  0  2  0  0  0  0  0  0
  180.5620  179.7850  136.4950 C   0  0  0  0  0  2  0  0  0  0  0  0
  182.0810  180.2920  138.4000 C   0  0  0  0  0  1  0  0  0  0  0  0
  182.6590  178.3700  136.9310 C   0  0  0  0  0  2  0  0  0  0  0  0
  181.5080  179.1780  137.5490 C   0  0  2  0  0  3  0  0  0  0  0  0
  182.2270  177.0940  136.1870 C   0  0  2  0  0  3  0  0  0  0  0  0
  189.6740  177.6100  136.8500 C   0  0  0  0  0  2  0  0  0  0  0  0
  190.4760  177.9390  138.0990 C   0  0  0  0  0  2  0  0  0  0  0  0
  189.5690  178.3360  139.2590 C   0  0  0  0  0  2  0  0  0  0  0  0
  189.4110  177.2040  140.2640 C   0  0  0  0  0  2  0  0  0  0  0  0
  188.3790  177.5540  141.3260 C   0  0  2  0  0  3  0  0  0  0  0  0
  187.6240  178.8150  140.9240 C   0  0  0  0  0  2  0  0  0  0  0  0
  187.0720  178.6760  139.5130 C   0  0  0  0  0  2  0  0  0  0  0  0
  185.6090  178.2610  139.5520 C   0  0  0  0  0  2  0  0  0  0  0  0
  184.8310  179.0930  140.5600 C   0  0  0  0  0  2  0  0  0  0  0  0
  183.8000  178.2560  141.2480 C   0  0  0  0  0  0  0  0  0  0  0  0
  183.7640  178.1440  142.6730 N   0  0  0  0  0  2  0  0  0  0  0  0
  182.9670  177.6150  140.5580 O   0  0  0  0  0  0  0  0  0  0  0  0
  185.7110  178.6410  145.7860 C   0  0  0  0  0  1  0  0  0  0  0  0
  184.6960  178.8390  143.5450 C   0  0  2  0  0  3  0  0  0  0  0  0
  184.4500  178.4070  144.9790 C   0  0  2  0  0  3  0  0  0  0  0  0
  183.9220  179.7370  144.4870 C   0  0  0  0  0  2  0  0  0  0  0  0
  189.0260  177.7570  142.5570 O   0  0  0  0  0  0  0  0  0  0  0  0
  188.9360  176.5820  143.3380 C   0  0  1  0  0  0  0  0  0  0  0  0
  187.8990  175.7560  142.9160 F   0  0  0  0  0  0  0  0  0  0  0  0
  190.2440  175.8070  143.2910 C   0  0  0  0  0  1  0  0  0  0  0  0
  188.6840  176.9690  144.7880 C   0  0  0  0  0  2  0  0  0  0  0  0
  189.6460  178.0500  145.2550 C   0  0  0  0  0  2  0  0  0  0  0  0
  191.9750  177.2510  145.6390 O   0  0  0  0  0  0  0  0  0  0  0  0
  190.6920  177.4570  146.1280 C   0  0  0  0  0  0  0  0  0  0  0  0
  190.4060  177.1170  147.3060 O   0  0  0  0  0  1  0  0  0  0  0  0
  1 11  1  6  0  0  0
  2 31  1  1  0  0  0
  2  3  1  0  0  0  0
  2  7  1  0  0  0  0
  3  4  1  1  0  0  0
  3  6  1  0  0  0  0
  6  1  1  0  0  0  0
  6  5  2  0  0  0  0
  7  1  1  0  0  0  0
  8 12  1  0  0  0  0
  9 13  2  0  0  0  0
  9 10  1  0  0  0  0
 10  8  2  0  0  0  0
 11 12  2  0  0  0  0
 13 11  1  0  0  0  0
 14 13  1  0  0  0  0
 15 14  1  0  0  0  0
 16 15  1  6  0  0  0
 16 19  1  0  0  0  0
 17 20  1  0  0  0  0
 17 16  1  0  0  0  0
 18 21  1  0  0  0  0
 18 19  1  0  0  0  0
 20 18  2  0  0  0  0
 22 23  1  0  0  0  0
 22 21  2  0  0  0  0
 24 23  1  0  0  0  0
 25 20  1  0  0  0  0
 26 29  1  0  0  0  0
 27 26  1  1  0  0  0
 27 29  1  0  0  0  0
 27 30  1  0  0  0  0
 29 25  1  6  0  0  0
 29 28  1  0  0  0  0
 30 28  1  0  0  0  0
 32 31  1  0  0  0  0
 33 40  1  0  0  0  0
 34 36  1  0  0  0  0
 35 34  1  0  0  0  0
 35 33  1  0  0  0  0
 36 39  1  0  0  0  0
 38 39  1  0  0  0  0
 39 37  1  6  0  0  0
 40 32  1  6  0  0  0
 40 38  1  0  0  0  0
 41  5  1  0  0  0  0
 41 42  1  0  0  0  0
 42 43  1  0  0  0  0
 43 44  1  0  0  0  0
 45 44  1  6  0  0  0
 45 57  1  0  0  0  0
 46 45  1  0  0  0  0
 47 48  1  0  0  0  0
 47 46  1  0  0  0  0
 48 49  1  0  0  0  0
 49 50  1  0  0  0  0
 50 51  1  0  0  0  0
 52 50  2  0  0  0  0
 54 51  1  6  0  0  0
 54 56  1  0  0  0  0
 54 55  1  0  0  0  0
 55 53  1  1  0  0  0
 56 55  1  0  0  0  0
 57 58  1  0  0  0  0
 58 60  1  6  0  0  0
 58 61  1  0  0  0  0
 59 58  1  0  0  0  0
 61 62  1  0  0  0  0
 62 64  1  0  0  0  0
 63 64  2  0  0  0  0
 64 65  1  0  0  0  0
M  END
>  <MODEL>
5

>  <REMARK>
 VINA RESULT:      -3.9      2.679     10.698
  Name = 
  27 active torsions:
  status: ('A' for Active; 'I' for Inactive)
    1  A    between atoms: C_1  and  C_5
    2  A    between atoms: C_1  and  C_52
    3  A    between atoms: C_3  and  C_21
    4  A    between atoms: O_4  and  C_7
    5  A    between atoms: O_4  and  C_20
    6  A    between atoms: C_5  and  C_12
    7  A    between atoms: C_6  and  C_16
    8  A    between atoms: C_7  and  C_61
    9  A    between atoms: C_7  and  C_65
   10  A    between atoms: C_8  and  C_25
   11  A    between atoms: C_9  and  C_33
   12  A    between atoms: C_10  and  C_30
   13  A    between atoms: C_11  and  C_27
   14  A    between atoms: C_11  and  N_40
   15  A    between atoms: C_12  and  C_65
   16  A    between atoms: C_20  and  C_60
   17  A    between atoms: C_21  and  C_58
   18  A    between atoms: C_23  and  C_28
   19  A    between atoms: C_26  and  N_54
   20  A    between atoms: C_27  and  C_29
   21  A    between atoms: C_28  and  C_60
   22  A    between atoms: C_29  and  C_61
   23  A    between atoms: C_33  and  C_35
   24  A    between atoms: C_35  and  C_63
   25  A    between atoms: C_43  and  N_49
   26  A    between atoms: N_49  and  C_50
   27  A    between atoms: C_55  and  C_58
                            x       y       z     vdW  Elec       q    Type
                         _______ _______ _______ _____ _____    ______ ____

>  <TORSDO>
F 27

$$$$
=
 OpenBabel10232410073D

 65 71  0  0  1  0  0  0  0  0999 V2000
  189.5830  176.6800  139.0030 C   0  0  1  0  0  3  0  0  0  0  0  0
  188.3880  178.2380  137.8260 C   0  0  1  0  0  3  0  0  0  0  0  0
  187.9530  178.4530  139.2820 C   0  0  1  0  0  3  0  0  0  0  0  0
  186.5940  178.1800  139.4850 O   0  0  0  0  0  1  0  0  0  0  0  0
  188.8400  177.2730  141.2440 N   0  0  0  0  0  0  0  0  0  0  0  0
  188.7730  177.4490  139.9690 C   0  0  0  0  0  0  0  0  0  0  0  0
  189.2730  177.1380  137.7060 O   0  0  0  0  0  0  0  0  0  0  0  0
  192.8700  177.7410  140.6040 C   0  0  0  0  0  3  0  0  0  0  0  0
  193.3680  176.2490  138.7650 C   0  0  0  0  0  3  0  0  0  0  0  0
  193.8000  177.0500  139.8250 C   0  0  0  0  0  3  0  0  0  0  0  0
  191.0580  176.8160  139.2710 C   0  0  0  0  0  0  0  0  0  0  0  0
  191.5060  177.6250  140.3290 C   0  0  0  0  0  3  0  0  0  0  0  0
  192.0020  176.1300  138.4780 C   0  0  0  0  0  0  0  0  0  0  0  0
  191.5940  175.3030  137.2930 C   0  0  0  0  0  2  0  0  0  0  0  0
  192.7700  175.0170  136.3590 C   0  0  0  0  0  2  0  0  0  0  0  0
  193.4670  173.7020  136.6970 C   0  0  1  0  0  3  0  0  0  0  0  0
  194.5520  173.4970  135.7950 O   0  0  0  0  0  0  0  0  0  0  0  0
  195.4760  173.6990  137.7970 C   0  0  0  0  0  0  0  0  0  0  0  0
  194.1080  173.8020  137.9690 O   0  0  0  0  0  0  0  0  0  0  0  0
  195.7330  173.5070  136.5240 C   0  0  0  0  0  0  0  0  0  0  0  0
  196.4640  173.7970  138.8730 C   0  0  0  0  0  3  0  0  0  0  0  0
  197.0670  174.9500  139.1300 C   0  0  0  0  0  3  0  0  0  0  0  0
  198.0730  175.0440  140.2200 C   0  0  0  0  0  2  0  0  0  0  0  0
  197.3810  175.4500  141.5030 C   0  0  0  0  0  1  0  0  0  0  0  0
  197.0360  173.3470  135.9620 N   0  0  0  0  0  2  0  0  0  0  0  0
  198.7550  174.5200  134.4200 C   0  0  0  0  0  2  0  0  0  0  0  0
  197.3580  175.0720  134.3500 C   0  0  1  0  0  3  0  0  0  0  0  0
  197.6090  175.6820  136.3530 O   0  0  0  0  0  0  0  0  0  0  0  0
  197.8730  174.4940  135.6520 C   0  0  1  0  0  0  0  0  0  0  0  0
  197.1860  176.3130  135.1780 C   0  0  0  0  0  2  0  0  0  0  0  0
  187.2550  178.1500  136.7990 C   0  0  0  0  0  2  0  0  0  0  0  0
  186.0760  177.3460  137.3320 C   0  0  0  0  0  2  0  0  0  0  0  0
  184.0900  176.6740  135.9080 C   0  0  0  0  0  2  0  0  0  0  0  0
  183.3590  175.2360  137.7800 O   0  0  0  0  0  0  0  0  0  0  0  0
  183.0680  176.3940  137.0260 C   0  0  0  0  0  2  0  0  0  0  0  0
  183.3670  174.1410  136.8980 C   0  0  0  0  0  2  0  0  0  0  0  0
  185.2370  172.5120  136.6900 C   0  0  0  0  0  1  0  0  0  0  0  0
  185.8050  174.9320  136.7730 C   0  0  0  0  0  2  0  0  0  0  0  0
  184.7680  173.9000  136.3050 C   0  0  2  0  0  3  0  0  0  0  0  0
  185.5500  176.3710  136.2890 C   0  0  2  0  0  3  0  0  0  0  0  0
  188.0500  178.0390  142.1750 C   0  0  0  0  0  2  0  0  0  0  0  0
  187.4870  177.1320  143.2570 C   0  0  0  0  0  2  0  0  0  0  0  0
  187.3600  177.8620  144.5900 C   0  0  0  0  0  2  0  0  0  0  0  0
  185.9780  177.6800  145.2030 C   0  0  0  0  0  2  0  0  0  0  0  0
  185.4720  178.9790  145.8100 C   0  0  2  0  0  3  0  0  0  0  0  0
  185.6740  178.9630  147.3200 C   0  0  0  0  0  2  0  0  0  0  0  0
  186.4230  177.7080  147.7420 C   0  0  0  0  0  2  0  0  0  0  0  0
  187.8490  178.0480  148.1470 C   0  0  0  0  0  2  0  0  0  0  0  0
  188.8550  177.2710  147.3120 C   0  0  0  0  0  2  0  0  0  0  0  0
  190.2370  177.4480  147.8560 C   0  0  0  0  0  0  0  0  0  0  0  0
  191.3360  176.6840  147.3540 N   0  0  0  0  0  2  0  0  0  0  0  0
  190.4300  178.2650  148.7920 O   0  0  0  0  0  0  0  0  0  0  0  0
  192.5600  174.1150  144.9820 C   0  0  0  0  0  1  0  0  0  0  0  0
  191.2000  175.7100  146.2840 C   0  0  2  0  0  3  0  0  0  0  0  0
  192.5600  175.4730  145.6530 C   0  0  2  0  0  3  0  0  0  0  0  0
  191.5510  176.3670  144.9650 C   0  0  0  0  0  2  0  0  0  0  0  0
  184.1060  179.1320  145.5140 O   0  0  0  0  0  0  0  0  0  0  0  0
  183.9460  179.3510  144.1260 C   0  0  1  0  0  0  0  0  0  0  0  0
  184.4990  180.5620  143.7240 F   0  0  0  0  0  0  0  0  0  0  0  0
  184.5790  178.2210  143.3300 C   0  0  0  0  0  1  0  0  0  0  0  0
  182.4600  179.3670  143.7960 C   0  0  0  0  0  2  0  0  0  0  0  0
  182.2100  179.0970  142.3210 C   0  0  0  0  0  2  0  0  0  0  0  0
  180.0080  177.9910  141.9470 O   0  0  0  0  0  1  0  0  0  0  0  0
  180.7540  179.1600  142.0330 C   0  0  0  0  0  0  0  0  0  0  0  0
  180.2000  180.2740  141.8400 O   0  0  0  0  0  0  0  0  0  0  0  0
  1 11  1  1  0  0  0
  1  6  1  0  0  0  0
  2 31  1  6  0  0  0
  2  3  1  0  0  0  0
  3  4  1  6  0  0  0
  3  6  1  0  0  0  0
  5 41  1  0  0  0  0
  6  5  2  0  0  0  0
  7  2  1  0  0  0  0
  7  1  1  0  0  0  0
  9 10  1  0  0  0  0
 10  8  2  0  0  0  0
 11 12  2  0  0  0  0
 12  8  1  0  0  0  0
 13  9  2  0  0  0  0
 13 11  1  0  0  0  0
 14 13  1  0  0  0  0
 15 14  1  0  0  0  0
 16 15  1  6  0  0  0
 16 19  1  0  0  0  0
 17 20  1  0  0  0  0
 17 16  1  0  0  0  0
 18 19  1  0  0  0  0
 18 21  1  0  0  0  0
 20 18  2  0  0  0  0
 21 22  2  0  0  0  0
 22 23  1  0  0  0  0
 23 24  1  0  0  0  0
 25 20  1  0  0  0  0
 26 29  1  0  0  0  0
 27 26  1  6  0  0  0
 27 30  1  0  0  0  0
 27 29  1  0  0  0  0
 29 25  1  1  0  0  0
 29 28  1  0  0  0  0
 30 28  1  0  0  0  0
 31 32  1  0  0  0  0
 33 40  1  0  0  0  0
 33 35  1  0  0  0  0
 35 34  1  0  0  0  0
 36 34  1  0  0  0  0
 39 37  1  1  0  0  0
 39 38  1  0  0  0  0
 39 36  1  0  0  0  0
 40 38  1  0  0  0  0
 40 32  1  1  0  0  0
 41 42  1  0  0  0  0
 42 43  1  0  0  0  0
 43 44  1  0  0  0  0
 45 44  1  1  0  0  0
 45 46  1  0  0  0  0
 46 47  1  0  0  0  0
 47 48  1  0  0  0  0
 49 50  1  0  0  0  0
 49 48  1  0  0  0  0
 50 52  2  0  0  0  0
 51 50  1  0  0  0  0
 54 51  1  1  0  0  0
 55 53  1  6  0  0  0
 55 54  1  0  0  0  0
 56 55  1  0  0  0  0
 56 54  1  0  0  0  0
 57 45  1  0  0  0  0
 58 60  1  6  0  0  0
 58 57  1  0  0  0  0
 59 58  1  0  0  0  0
 61 58  1  0  0  0  0
 62 61  1  0  0  0  0
 63 64  1  0  0  0  0
 64 62  1  0  0  0  0
 65 64  2  0  0  0  0
M  END
>  <MODEL>
6

>  <REMARK>
 VINA RESULT:      -3.7      2.824     10.918
  Name = 
  27 active torsions:
  status: ('A' for Active; 'I' for Inactive)
    1  A    between atoms: C_1  and  C_5
    2  A    between atoms: C_1  and  C_52
    3  A    between atoms: C_3  and  C_21
    4  A    between atoms: O_4  and  C_7
    5  A    between atoms: O_4  and  C_20
    6  A    between atoms: C_5  and  C_12
    7  A    between atoms: C_6  and  C_16
    8  A    between atoms: C_7  and  C_61
    9  A    between atoms: C_7  and  C_65
   10  A    between atoms: C_8  and  C_25
   11  A    between atoms: C_9  and  C_33
   12  A    between atoms: C_10  and  C_30
   13  A    between atoms: C_11  and  C_27
   14  A    between atoms: C_11  and  N_40
   15  A    between atoms: C_12  and  C_65
   16  A    between atoms: C_20  and  C_60
   17  A    between atoms: C_21  and  C_58
   18  A    between atoms: C_23  and  C_28
   19  A    between atoms: C_26  and  N_54
   20  A    between atoms: C_27  and  C_29
   21  A    between atoms: C_28  and  C_60
   22  A    between atoms: C_29  and  C_61
   23  A    between atoms: C_33  and  C_35
   24  A    between atoms: C_35  and  C_63
   25  A    between atoms: C_43  and  N_49
   26  A    between atoms: N_49  and  C_50
   27  A    between atoms: C_55  and  C_58
                            x       y       z     vdW  Elec       q    Type
                         _______ _______ _______ _____ _____    ______ ____

>  <TORSDO>
F 27

$$$$
=
 OpenBabel10232410073D

 65 71  0  0  1  0  0  0  0  0999 V2000
  185.9890  176.2940  135.5550 C   0  0  1  0  0  3  0  0  0  0  0  0
  188.2540  176.6260  135.5030 C   0  0  1  0  0  3  0  0  0  0  0  0
  187.7440  177.6740  136.5020 C   0  0  1  0  0  3  0  0  0  0  0  0
  187.9650  178.9870  136.0660 O   0  0  0  0  0  1  0  0  0  0  0  0
  185.4220  177.9440  137.2530 N   0  0  0  0  0  0  0  0  0  0  0  0
  186.3060  177.3820  136.5010 C   0  0  0  0  0  0  0  0  0  0  0  0
  187.1840  175.9060  134.9150 O   0  0  0  0  0  0  0  0  0  0  0  0
  185.5810  173.0930  137.5760 C   0  0  0  0  0  3  0  0  0  0  0  0
  183.3830  173.8580  136.9110 C   0  0  0  0  0  3  0  0  0  0  0  0
  184.1930  172.9360  137.5790 C   0  0  0  0  0  3  0  0  0  0  0  0
  185.3540  175.1160  136.2440 C   0  0  0  0  0  0  0  0  0  0  0  0
  186.1580  174.1780  136.9120 C   0  0  0  0  0  3  0  0  0  0  0  0
  183.9530  174.9460  136.2380 C   0  0  0  0  0  0  0  0  0  0  0  0
  183.0430  175.8740  135.4880 C   0  0  0  0  0  2  0  0  0  0  0  0
  181.7560  175.1800  135.0400 C   0  0  0  0  0  2  0  0  0  0  0  0
  180.5230  176.0490  135.2710 C   0  0  1  0  0  3  0  0  0  0  0  0
  180.3150  176.2110  136.6730 O   0  0  0  0  0  0  0  0  0  0  0  0
  180.7450  178.2410  135.9010 C   0  0  0  0  0  0  0  0  0  0  0  0
  180.7720  177.3800  134.8180 O   0  0  0  0  0  0  0  0  0  0  0  0
  180.4650  177.5550  136.9840 C   0  0  0  0  0  0  0  0  0  0  0  0
  181.0000  179.6810  135.8310 C   0  0  0  0  0  3  0  0  0  0  0  0
  180.4500  180.4160  134.8730 C   0  0  0  0  0  3  0  0  0  0  0  0
  180.7150  181.8770  134.8030 C   0  0  0  0  0  2  0  0  0  0  0  0
  179.9880  182.5700  135.9350 C   0  0  0  0  0  1  0  0  0  0  0  0
  180.3450  178.1030  138.2970 N   0  0  0  0  0  2  0  0  0  0  0  0
  180.3240  176.2130  140.0700 C   0  0  0  0  0  2  0  0  0  0  0  0
  181.3670  176.0670  138.9950 C   0  0  1  0  0  3  0  0  0  0  0  0
  182.2640  177.8110  139.7690 O   0  0  0  0  0  0  0  0  0  0  0  0
  180.9460  177.4490  139.4490 C   0  0  1  0  0  0  0  0  0  0  0  0
  182.7240  176.5310  139.4400 C   0  0  0  0  0  2  0  0  0  0  0  0
  189.2250  177.1410  134.4360 C   0  0  0  0  0  2  0  0  0  0  0  0
  190.6470  176.6560  134.6920 C   0  0  0  0  0  2  0  0  0  0  0  0
  191.3980  176.0370  137.0320 C   0  0  0  0  0  2  0  0  0  0  0  0
  193.5360  175.2930  136.0430 O   0  0  0  0  0  0  0  0  0  0  0  0
  192.9140  176.2530  136.8700 C   0  0  0  0  0  2  0  0  0  0  0  0
  193.3250  174.0290  136.6200 C   0  0  0  0  0  2  0  0  0  0  0  0
  192.3630  172.0730  135.4180 C   0  0  0  0  0  1  0  0  0  0  0  0
  191.2490  174.2780  135.1320 C   0  0  0  0  0  2  0  0  0  0  0  0
  192.0250  173.3800  136.1060 C   0  0  2  0  0  3  0  0  0  0  0  0
  190.6810  175.5670  135.7530 C   0  0  2  0  0  3  0  0  0  0  0  0
  185.7490  178.9990  138.1790 C   0  0  0  0  0  2  0  0  0  0  0  0
  185.9990  178.4250  139.5640 C   0  0  0  0  0  2  0  0  0  0  0  0
  187.0180  177.2920  139.5260 C   0  0  0  0  0  2  0  0  0  0  0  0
  188.3900  177.7500  140.0020 C   0  0  0  0  0  2  0  0  0  0  0  0
  188.3860  178.0320  141.4970 C   0  0  2  0  0  3  0  0  0  0  0  0
  187.1150  178.7780  141.8840 C   0  0  0  0  0  2  0  0  0  0  0  0
  186.9740  178.8360  143.3980 C   0  0  0  0  0  2  0  0  0  0  0  0
  185.7930  177.9950  143.8560 C   0  0  0  0  0  2  0  0  0  0  0  0
  186.0060  177.4780  145.2700 C   0  0  0  0  0  2  0  0  0  0  0  0
  185.5690  178.4970  146.2740 C   0  0  0  0  0  0  0  0  0  0  0  0
  186.2690  178.6730  147.5080 N   0  0  0  0  0  2  0  0  0  0  0  0
  184.5480  179.1920  146.0400 O   0  0  0  0  0  0  0  0  0  0  0  0
  189.6510  178.1910  148.9410 C   0  0  0  0  0  1  0  0  0  0  0  0
  187.4490  177.9040  147.8640 C   0  0  2  0  0  3  0  0  0  0  0  0
  188.6220  178.8490  148.0450 C   0  0  2  0  0  3  0  0  0  0  0  0
  188.4860  178.0460  146.7700 C   0  0  0  0  0  2  0  0  0  0  0  0
  189.5120  178.8030  141.8300 O   0  0  0  0  0  0  0  0  0  0  0  0
  190.3990  178.0290  142.6150 C   0  0  1  0  0  0  0  0  0  0  0  0
  191.4800  177.5660  141.8730 F   0  0  0  0  0  0  0  0  0  0  0  0
  190.9110  178.8380  143.7970 C   0  0  0  0  0  1  0  0  0  0  0  0
  189.6470  176.8290  143.1730 C   0  0  0  0  0  2  0  0  0  0  0  0
  190.5170  175.5830  143.1940 C   0  0  0  0  0  2  0  0  0  0  0  0
  192.4040  174.6510  144.5290 O   0  0  0  0  0  0  0  0  0  0  0  0
  191.4000  175.6000  144.3900 C   0  0  0  0  0  0  0  0  0  0  0  0
  191.2200  176.4620  145.2900 O   0  0  0  0  0  1  0  0  0  0  0  0
  1 11  1  1  0  0  0
  1  6  1  0  0  0  0
  2 31  1  6  0  0  0
  2  3  1  0  0  0  0
  3  4  1  6  0  0  0
  5 41  1  0  0  0  0
  6  3  1  0  0  0  0
  6  5  2  0  0  0  0
  7  2  1  0  0  0  0
  7  1  1  0  0  0  0
  8 10  1  0  0  0  0
  9 10  2  0  0  0  0
 11 12  1  0  0  0  0
 12  8  2  0  0  0  0
 13 11  2  0  0  0  0
 13  9  1  0  0  0  0
 14 13  1  0  0  0  0
 15 14  1  0  0  0  0
 16 15  1  1  0  0  0
 16 17  1  0  0  0  0
 17 20  1  0  0  0  0
 18 20  2  0  0  0  0
 19 16  1  0  0  0  0
 19 18  1  0  0  0  0
 20 25  1  0  0  0  0
 21 18  1  0  0  0  0
 22 21  2  0  0  0  0
 23 22  1  0  0  0  0
 23 24  1  0  0  0  0
 27 30  1  1  0  0  0
 27 29  1  0  0  0  0
 27 26  1  0  0  0  0
 29 25  1  6  0  0  0
 29 28  1  0  0  0  0
 29 26  1  0  0  0  0
 30 28  1  0  0  0  0
 31 32  1  0  0  0  0
 34 36  1  0  0  0  0
 34 35  1  0  0  0  0
 35 33  1  0  0  0  0
 38 40  1  0  0  0  0
 38 39  1  0  0  0  0
 39 37  1  6  0  0  0
 39 36  1  0  0  0  0
 40 32  1  6  0  0  0
 40 33  1  0  0  0  0
 41 42  1  0  0  0  0
 43 42  1  0  0  0  0
 43 44  1  0  0  0  0
 45 44  1  6  0  0  0
 45 57  1  0  0  0  0
 45 46  1  0  0  0  0
 46 47  1  0  0  0  0
 47 48  1  0  0  0  0
 48 49  1  0  0  0  0
 49 50  1  0  0  0  0
 50 51  1  0  0  0  0
 52 50  2  0  0  0  0
 54 51  1  6  0  0  0
 54 55  1  0  0  0  0
 55 53  1  1  0  0  0
 56 54  1  0  0  0  0
 56 55  1  0  0  0  0
 57 58  1  0  0  0  0
 58 61  1  0  0  0  0
 58 60  1  1  0  0  0
 59 58  1  0  0  0  0
 61 62  1  0  0  0  0
 62 64  1  0  0  0  0
 64 63  2  0  0  0  0
 64 65  1  0  0  0  0
M  END
>  <MODEL>
7

>  <REMARK>
 VINA RESULT:      -3.6      2.867      9.391
  Name = 
  27 active torsions:
  status: ('A' for Active; 'I' for Inactive)
    1  A    between atoms: C_1  and  C_5
    2  A    between atoms: C_1  and  C_52
    3  A    between atoms: C_3  and  C_21
    4  A    between atoms: O_4  and  C_7
    5  A    between atoms: O_4  and  C_20
    6  A    between atoms: C_5  and  C_12
    7  A    between atoms: C_6  and  C_16
    8  A    between atoms: C_7  and  C_61
    9  A    between atoms: C_7  and  C_65
   10  A    between atoms: C_8  and  C_25
   11  A    between atoms: C_9  and  C_33
   12  A    between atoms: C_10  and  C_30
   13  A    between atoms: C_11  and  C_27
   14  A    between atoms: C_11  and  N_40
   15  A    between atoms: C_12  and  C_65
   16  A    between atoms: C_20  and  C_60
   17  A    between atoms: C_21  and  C_58
   18  A    between atoms: C_23  and  C_28
   19  A    between atoms: C_26  and  N_54
   20  A    between atoms: C_27  and  C_29
   21  A    between atoms: C_28  and  C_60
   22  A    between atoms: C_29  and  C_61
   23  A    between atoms: C_33  and  C_35
   24  A    between atoms: C_35  and  C_63
   25  A    between atoms: C_43  and  N_49
   26  A    between atoms: N_49  and  C_50
   27  A    between atoms: C_55  and  C_58
                            x       y       z     vdW  Elec       q    Type
                         _______ _______ _______ _____ _____    ______ ____

>  <TORSDO>
F 27

$$$$
=
 OpenBabel10232410073D

 65 71  0  0  1  0  0  0  0  0999 V2000
  189.4600  176.5310  138.9640 C   0  0  1  0  0  3  0  0  0  0  0  0
  188.1410  178.0450  137.8650 C   0  0  1  0  0  3  0  0  0  0  0  0
  187.8420  178.2960  139.3500 C   0  0  1  0  0  3  0  0  0  0  0  0
  186.5120  178.0160  139.6870 O   0  0  0  0  0  1  0  0  0  0  0  0
  188.9250  177.1780  141.2490 N   0  0  0  0  0  0  0  0  0  0  0  0
  188.7360  177.3180  139.9810 C   0  0  0  0  0  0  0  0  0  0  0  0
  189.0230  176.9500  137.6900 O   0  0  0  0  0  0  0  0  0  0  0  0
  192.8680  177.7270  140.1660 C   0  0  0  0  0  3  0  0  0  0  0  0
  193.2110  176.0730  138.4330 C   0  0  0  0  0  3  0  0  0  0  0  0
  193.7300  176.9650  139.3740 C   0  0  0  0  0  3  0  0  0  0  0  0
  190.9520  176.6880  139.0880 C   0  0  0  0  0  0  0  0  0  0  0  0
  191.4860  177.5890  140.0240 C   0  0  0  0  0  3  0  0  0  0  0  0
  191.8260  175.9310  138.2790 C   0  0  0  0  0  0  0  0  0  0  0  0
  191.3210  175.0000  137.2150 C   0  0  0  0  0  2  0  0  0  0  0  0
  192.4210  174.5990  136.2320 C   0  0  0  0  0  2  0  0  0  0  0  0
  193.0130  173.2320  136.5580 C   0  0  1  0  0  3  0  0  0  0  0  0
  193.8370  172.8020  135.4760 O   0  0  0  0  0  0  0  0  0  0  0  0
  195.2030  173.0350  137.2030 C   0  0  0  0  0  0  0  0  0  0  0  0
  193.9300  173.3430  137.6480 O   0  0  0  0  0  0  0  0  0  0  0  0
  195.1440  172.7060  135.9340 C   0  0  0  0  0  0  0  0  0  0  0  0
  196.4110  173.0810  138.0290 C   0  0  0  0  0  3  0  0  0  0  0  0
  196.9750  174.2420  138.3340 C   0  0  0  0  0  3  0  0  0  0  0  0
  198.2040  174.2830  139.1680 C   0  0  0  0  0  2  0  0  0  0  0  0
  198.3010  175.6330  139.8460 C   0  0  0  0  0  1  0  0  0  0  0  0
  196.2590  172.3190  135.1310 N   0  0  0  0  0  2  0  0  0  0  0  0
  197.6720  170.2650  134.4270 C   0  0  0  0  0  2  0  0  0  0  0  0
  196.8150  170.0600  135.6460 C   0  0  1  0  0  3  0  0  0  0  0  0
  195.1420  170.2870  134.3820 O   0  0  0  0  0  0  0  0  0  0  0  0
  196.3470  170.9900  134.5460 C   0  0  1  0  0  0  0  0  0  0  0  0
  195.5330  169.3410  135.3360 C   0  0  0  0  0  2  0  0  0  0  0  0
  186.9170  177.9190  136.9520 C   0  0  0  0  0  2  0  0  0  0  0  0
  185.8560  177.0090  137.5590 C   0  0  0  0  0  2  0  0  0  0  0  0
  185.5990  176.4380  135.1030 C   0  0  0  0  0  2  0  0  0  0  0  0
  183.4050  177.5730  135.1700 O   0  0  0  0  0  0  0  0  0  0  0  0
  184.7220  177.6260  134.6640 C   0  0  0  0  0  2  0  0  0  0  0  0
  182.8140  176.3850  134.7040 C   0  0  0  0  0  2  0  0  0  0  0  0
  181.7150  174.6920  136.1580 C   0  0  0  0  0  1  0  0  0  0  0  0
  183.9120  175.6010  136.8870 C   0  0  0  0  0  2  0  0  0  0  0  0
  183.0530  175.2130  135.6750 C   0  0  2  0  0  3  0  0  0  0  0  0
  185.3680  175.9770  136.5540 C   0  0  2  0  0  3  0  0  0  0  0  0
  188.2170  177.9610  142.2300 C   0  0  0  0  0  2  0  0  0  0  0  0
  187.6800  177.0630  143.3320 C   0  0  0  0  0  2  0  0  0  0  0  0
  187.6470  177.7830  144.6760 C   0  0  0  0  0  2  0  0  0  0  0  0
  186.3370  177.5430  145.4130 C   0  0  0  0  0  2  0  0  0  0  0  0
  185.8110  178.8290  146.0300 C   0  0  2  0  0  3  0  0  0  0  0  0
  186.1260  178.8600  147.5200 C   0  0  0  0  0  2  0  0  0  0  0  0
  186.8650  177.5950  147.9320 C   0  0  0  0  0  2  0  0  0  0  0  0
  188.2930  177.9210  148.3440 C   0  0  0  0  0  2  0  0  0  0  0  0
  189.2930  177.1080  147.5370 C   0  0  0  0  0  2  0  0  0  0  0  0
  190.6930  177.5200  147.8670 C   0  0  0  0  0  0  0  0  0  0  0  0
  191.7980  177.1120  147.0580 N   0  0  0  0  0  2  0  0  0  0  0  0
  190.9040  178.2150  148.8930 O   0  0  0  0  0  0  0  0  0  0  0  0
  191.9760  176.4260  143.4210 C   0  0  0  0  0  1  0  0  0  0  0  0
  191.6470  176.2970  145.8640 C   0  0  2  0  0  3  0  0  0  0  0  0
  191.5590  177.2060  144.6510 C   0  0  2  0  0  3  0  0  0  0  0  0
  190.3030  176.5900  145.2290 C   0  0  0  0  0  2  0  0  0  0  0  0
  184.4210  178.9070  145.8360 O   0  0  0  0  0  0  0  0  0  0  0  0
  184.1500  179.2470  144.4900 C   0  0  1  0  0  0  0  0  0  0  0  0
  184.7500  180.4480  144.1270 F   0  0  0  0  0  0  0  0  0  0  0  0
  184.6250  178.1470  143.5540 C   0  0  0  0  0  1  0  0  0  0  0  0
  182.6460  179.3850  144.3080 C   0  0  0  0  0  2  0  0  0  0  0  0
  182.2110  178.9760  142.9090 C   0  0  0  0  0  2  0  0  0  0  0  0
  179.9820  178.9930  141.7940 O   0  0  0  0  0  0  0  0  0  0  0  0
  180.7570  178.6670  142.9000 C   0  0  0  0  0  0  0  0  0  0  0  0
  180.2230  178.1330  143.9070 O   0  0  0  0  0  1  0  0  0  0  0  0
  1 11  1  6  0  0  0
  1  6  1  0  0  0  0
  2 31  1  6  0  0  0
  2  3  1  0  0  0  0
  3  4  1  6  0  0  0
  3  6  1  0  0  0  0
  5 41  1  0  0  0  0
  6  5  2  0  0  0  0
  7  2  1  0  0  0  0
  7  1  1  0  0  0  0
  9 10  1  0  0  0  0
 10  8  2  0  0  0  0
 11 12  2  0  0  0  0
 12  8  1  0  0  0  0
 13  9  2  0  0  0  0
 13 11  1  0  0  0  0
 14 13  1  0  0  0  0
 15 14  1  0  0  0  0
 16 15  1  6  0  0  0
 16 19  1  0  0  0  0
 17 20  1  0  0  0  0
 17 16  1  0  0  0  0
 18 19  1  0  0  0  0
 18 21  1  0  0  0  0
 20 18  2  0  0  0  0
 21 22  2  0  0  0  0
 22 23  1  0  0  0  0
 23 24  1  0  0  0  0
 25 20  1  0  0  0  0
 26 29  1  0  0  0  0
 27 26  1  6  0  0  0
 28 29  1  0  0  0  0
 28 30  1  0  0  0  0
 29 25  1  1  0  0  0
 29 27  1  0  0  0  0
 30 27  1  0  0  0  0
 31 32  1  0  0  0  0
 33 40  1  0  0  0  0
 35 33  1  0  0  0  0
 35 34  1  0  0  0  0
 36 34  1  0  0  0  0
 36 39  1  0  0  0  0
 39 37  1  1  0  0  0
 39 38  1  0  0  0  0
 40 38  1  0  0  0  0
 40 32  1  1  0  0  0
 41 42  1  0  0  0  0
 42 43  1  0  0  0  0
 43 44  1  0  0  0  0
 45 44  1  1  0  0  0
 45 46  1  0  0  0  0
 46 47  1  0  0  0  0
 47 48  1  0  0  0  0
 49 50  1  0  0  0  0
 49 48  1  0  0  0  0
 50 52  2  0  0  0  0
 51 50  1  0  0  0  0
 54 51  1  1  0  0  0
 55 53  1  6  0  0  0
 55 56  1  0  0  0  0
 55 54  1  0  0  0  0
 56 54  1  0  0  0  0
 57 45  1  0  0  0  0
 58 60  1  6  0  0  0
 58 57  1  0  0  0  0
 59 58  1  0  0  0  0
 61 58  1  0  0  0  0
 62 61  1  0  0  0  0
 63 64  2  0  0  0  0
 64 62  1  0  0  0  0
 64 65  1  0  0  0  0
M  END
>  <MODEL>
8

>  <REMARK>
 VINA RESULT:      -3.6      3.049     11.267
  Name = 
  27 active torsions:
  status: ('A' for Active; 'I' for Inactive)
    1  A    between atoms: C_1  and  C_5
    2  A    between atoms: C_1  and  C_52
    3  A    between atoms: C_3  and  C_21
    4  A    between atoms: O_4  and  C_7
    5  A    between atoms: O_4  and  C_20
    6  A    between atoms: C_5  and  C_12
    7  A    between atoms: C_6  and  C_16
    8  A    between atoms: C_7  and  C_61
    9  A    between atoms: C_7  and  C_65
   10  A    between atoms: C_8  and  C_25
   11  A    between atoms: C_9  and  C_33
   12  A    between atoms: C_10  and  C_30
   13  A    between atoms: C_11  and  C_27
   14  A    between atoms: C_11  and  N_40
   15  A    between atoms: C_12  and  C_65
   16  A    between atoms: C_20  and  C_60
   17  A    between atoms: C_21  and  C_58
   18  A    between atoms: C_23  and  C_28
   19  A    between atoms: C_26  and  N_54
   20  A    between atoms: C_27  and  C_29
   21  A    between atoms: C_28  and  C_60
   22  A    between atoms: C_29  and  C_61
   23  A    between atoms: C_33  and  C_35
   24  A    between atoms: C_35  and  C_63
   25  A    between atoms: C_43  and  N_49
   26  A    between atoms: N_49  and  C_50
   27  A    between atoms: C_55  and  C_58
                            x       y       z     vdW  Elec       q    Type
                         _______ _______ _______ _____ _____    ______ ____

>  <TORSDO>
F 27

$$$$
=
 OpenBabel10232410073D

 65 71  0  0  1  0  0  0  0  0999 V2000
  189.2220  176.4990  138.5430 C   0  0  1  0  0  3  0  0  0  0  0  0
  188.2250  177.7480  136.9040 C   0  0  1  0  0  3  0  0  0  0  0  0
  187.7010  178.3590  138.2120 C   0  0  1  0  0  3  0  0  0  0  0  0
  186.3160  178.2130  138.3580 O   0  0  0  0  0  1  0  0  0  0  0  0
  188.3620  177.6950  140.4810 N   0  0  0  0  0  0  0  0  0  0  0  0
  188.3990  177.5320  139.2030 C   0  0  0  0  0  0  0  0  0  0  0  0
  189.0380  176.6140  137.1500 O   0  0  0  0  0  0  0  0  0  0  0  0
  192.4120  177.5210  140.3510 C   0  0  0  0  0  3  0  0  0  0  0  0
  193.0150  176.0830  138.5010 C   0  0  0  0  0  3  0  0  0  0  0  0
  193.3860  176.8540  139.6050 C   0  0  0  0  0  3  0  0  0  0  0  0
  190.6790  176.6300  138.8960 C   0  0  0  0  0  0  0  0  0  0  0  0
  191.0660  177.4100  139.9990 C   0  0  0  0  0  3  0  0  0  0  0  0
  191.6680  175.9700  138.1360 C   0  0  0  0  0  0  0  0  0  0  0  0
  191.3280  175.1760  136.9080 C   0  0  0  0  0  2  0  0  0  0  0  0
  192.4520  175.2100  135.8710 C   0  0  0  0  0  2  0  0  0  0  0  0
  193.2320  173.9000  135.8250 C   0  0  1  0  0  3  0  0  0  0  0  0
  194.3090  174.0230  134.9000 O   0  0  0  0  0  0  0  0  0  0  0  0
  195.2590  173.7140  136.8750 C   0  0  1  0  0  3  0  0  0  0  0  0
  193.8910  173.6790  137.0730 O   0  0  0  0  0  0  0  0  0  0  0  0
  195.5020  173.9030  135.5990 C   0  0  0  0  0  0  0  0  0  0  0  0
  196.2610  173.5690  137.9340 C   0  0  0  0  0  3  0  0  0  0  0  0
  196.6780  174.6270  138.6160 C   0  0  0  0  0  3  0  0  0  0  0  0
  197.6980  174.4760  139.6850 C   0  0  0  0  0  2  0  0  0  0  0  0
  198.9500  175.2290  139.2900 C   0  0  0  0  0  1  0  0  0  0  0  0
  196.8010  173.9880  135.0120 N   0  0  0  0  0  0  0  0  0  0  0  0
  198.6000  172.4720  136.0960 C   0  0  0  0  0  2  0  0  0  0  0  0
  199.0650  173.2560  134.8990 C   0  0  1  0  0  3  0  0  0  0  0  0
  198.7600  174.9980  136.0490 O   0  0  0  0  0  0  0  0  0  0  0  0
  198.0050  173.8370  135.8120 C   0  0  1  0  0  0  0  0  0  0  0  0
  199.8180  174.4990  135.2800 C   0  0  0  0  0  2  0  0  0  0  0  0
  187.1660  177.4480  135.8390 C   0  0  0  0  0  2  0  0  0  0  0  0
  185.8840  176.9050  136.4600 C   0  0  0  0  0  2  0  0  0  0  0  0
  184.1930  175.0190  136.3960 C   0  0  0  0  0  2  0  0  0  0  0  0
  185.9140  173.5730  137.4230 O   0  0  0  0  0  0  0  0  0  0  0  0
  184.6730  174.2160  137.6210 C   0  0  0  0  0  2  0  0  0  0  0  0
  185.7710  172.6910  136.3370 C   0  0  0  0  0  2  0  0  0  0  0  0
  187.2640  172.6490  134.3470 C   0  0  0  0  0  1  0  0  0  0  0  0
  186.4660  174.8610  135.1570 C   0  0  0  0  0  2  0  0  0  0  0  0
  186.1060  173.3770  134.9990 C   0  0  2  0  0  3  0  0  0  0  0  0
  185.3120  175.7580  135.6410 C   0  0  2  0  0  3  0  0  0  0  0  0
  187.5600  178.7140  141.1100 C   0  0  0  0  0  2  0  0  0  0  0  0
  186.2710  178.1140  141.6460 C   0  0  0  0  0  2  0  0  0  0  0  0
  185.7770  178.8590  142.8810 C   0  0  0  0  0  2  0  0  0  0  0  0
  184.8140  178.0130  143.7030 C   0  0  0  0  0  2  0  0  0  0  0  0
  183.8060  178.8850  144.4360 C   0  0  2  0  0  3  0  0  0  0  0  0
  184.2260  179.0590  145.8900 C   0  0  0  0  0  2  0  0  0  0  0  0
  185.4060  178.1550  146.2130 C   0  0  0  0  0  2  0  0  0  0  0  0
  186.2310  178.7410  147.3490 C   0  0  0  0  0  2  0  0  0  0  0  0
  187.7120  178.7420  147.0040 C   0  0  0  0  0  2  0  0  0  0  0  0
  188.3850  177.5320  147.5710 C   0  0  0  0  0  0  0  0  0  0  0  0
  189.6290  177.0590  147.0490 N   0  0  0  0  0  2  0  0  0  0  0  0
  187.8300  176.9020  148.5070 O   0  0  0  0  0  0  0  0  0  0  0  0
  190.2750  177.9070  143.5010 C   0  0  0  0  0  1  0  0  0  0  0  0
  190.3310  177.7180  145.9610 C   0  0  2  0  0  3  0  0  0  0  0  0
  190.0620  176.9670  144.6690 C   0  0  2  0  0  3  0  0  0  0  0  0
  191.3740  176.7750  145.3980 C   0  0  0  0  0  2  0  0  0  0  0  0
  182.5370  178.2830  144.3750 O   0  0  0  0  0  0  0  0  0  0  0  0
  181.8480  178.7480  143.2310 C   0  0  1  0  0  0  0  0  0  0  0  0
  180.6830  178.0260  142.9970 F   0  0  0  0  0  0  0  0  0  0  0  0
  181.5030  180.2220  143.3770 C   0  0  0  0  0  1  0  0  0  0  0  0
  182.7550  178.6090  142.0170 C   0  0  0  0  0  2  0  0  0  0  0  0
  182.0110  178.9070  140.7240 C   0  0  0  0  0  2  0  0  0  0  0  0
  182.8040  177.1320  139.1650 O   0  0  0  0  0  0  0  0  0  0  0  0
  181.7920  177.6490  139.9630 C   0  0  0  0  0  0  0  0  0  0  0  0
  180.6780  177.0660  140.0220 O   0  0  0  0  0  1  0  0  0  0  0  0
  1 11  1  6  0  0  0
  1  6  1  0  0  0  0
  2 31  1  6  0  0  0
  2  7  1  0  0  0  0
  2  3  1  0  0  0  0
  3  4  1  6  0  0  0
  3  6  1  0  0  0  0
  5 41  1  0  0  0  0
  6  5  2  0  0  0  0
  7  1  1  0  0  0  0
  9 10  1  0  0  0  0
 10  8  2  0  0  0  0
 11 12  2  0  0  0  0
 12  8  1  0  0  0  0
 13  9  2  0  0  0  0
 13 11  1  0  0  0  0
 14 13  1  0  0  0  0
 15 14  1  0  0  0  0
 16 15  1  1  0  0  0
 16 19  1  0  0  0  0
 17 20  1  0  0  0  0
 17 16  1  0  0  0  0
 18 19  1  0  0  0  0
 18 21  1  1  0  0  0
 20 18  1  0  0  0  0
 21 22  2  0  0  0  0
 22 23  1  0  0  0  0
 24 23  1  0  0  0  0
 25 20  2  0  0  0  0
 27 30  1  1  0  0  0
 27 29  1  0  0  0  0
 27 26  1  0  0  0  0
 29 25  1  6  0  0  0
 29 28  1  0  0  0  0
 29 26  1  0  0  0  0
 30 28  1  0  0  0  0
 31 32  1  0  0  0  0
 33 35  1  0  0  0  0
 34 35  1  0  0  0  0
 36 34  1  0  0  0  0
 38 40  1  0  0  0  0
 39 37  1  1  0  0  0
 39 38  1  0  0  0  0
 39 36  1  0  0  0  0
 40 33  1  0  0  0  0
 40 32  1  1  0  0  0
 41 42  1  0  0  0  0
 42 43  1  0  0  0  0
 43 44  1  0  0  0  0
 45 44  1  6  0  0  0
 45 46  1  0  0  0  0
 46 47  1  0  0  0  0
 47 48  1  0  0  0  0
 49 48  1  0  0  0  0
 49 50  1  0  0  0  0
 50 52  2  0  0  0  0
 51 50  1  0  0  0  0
 54 51  1  1  0  0  0
 55 53  1  6  0  0  0
 55 56  1  0  0  0  0
 55 54  1  0  0  0  0
 56 54  1  0  0  0  0
 57 45  1  0  0  0  0
 58 60  1  1  0  0  0
 58 57  1  0  0  0  0
 59 58  1  0  0  0  0
 61 58  1  0  0  0  0
 62 61  1  0  0  0  0
 63 64  2  0  0  0  0
 64 65  1  0  0  0  0
 64 62  1  0  0  0  0
M  END
>  <MODEL>
9

>  <REMARK>
 VINA RESULT:      -3.6      2.800     10.523
  Name = 
  27 active torsions:
  status: ('A' for Active; 'I' for Inactive)
    1  A    between atoms: C_1  and  C_5
    2  A    between atoms: C_1  and  C_52
    3  A    between atoms: C_3  and  C_21
    4  A    between atoms: O_4  and  C_7
    5  A    between atoms: O_4  and  C_20
    6  A    between atoms: C_5  and  C_12
    7  A    between atoms: C_6  and  C_16
    8  A    between atoms: C_7  and  C_61
    9  A    between atoms: C_7  and  C_65
   10  A    between atoms: C_8  and  C_25
   11  A    between atoms: C_9  and  C_33
   12  A    between atoms: C_10  and  C_30
   13  A    between atoms: C_11  and  C_27
   14  A    between atoms: C_11  and  N_40
   15  A    between atoms: C_12  and  C_65
   16  A    between atoms: C_20  and  C_60
   17  A    between atoms: C_21  and  C_58
   18  A    between atoms: C_23  and  C_28
   19  A    between atoms: C_26  and  N_54
   20  A    between atoms: C_27  and  C_29
   21  A    between atoms: C_28  and  C_60
   22  A    between atoms: C_29  and  C_61
   23  A    between atoms: C_33  and  C_35
   24  A    between atoms: C_35  and  C_63
   25  A    between atoms: C_43  and  N_49
   26  A    between atoms: N_49  and  C_50
   27  A    between atoms: C_55  and  C_58
                            x       y       z     vdW  Elec       q    Type
                         _______ _______ _______ _____ _____    ______ ____

>  <TORSDO>
F 27

$$$$
