=
 OpenBabel10232411463D

 47 51  0  0  1  0  0  0  0  0999 V2000
  189.0860  177.4310  138.7150 C   0  0  0  0  0  0  0  0  0  0  0  0
  188.8390  177.3120  139.9940 N   0  0  0  0  0  0  0  0  0  0  0  0
  194.6580  170.2370  137.0990 N   0  0  0  0  0  1  0  0  0  0  0  0
  193.7020  174.8920  137.1880 C   0  0  0  0  0  0  0  0  0  0  0  0
  195.6670  171.2810  137.0070 C   0  0  1  0  0  3  0  0  0  0  0  0
  191.4480  177.0670  138.9990 N   0  0  0  0  0  0  0  0  0  0  0  0
  192.7290  176.5640  138.5920 C   0  0  0  0  0  0  0  0  0  0  0  0
  191.6980  176.0050  136.3820 C   0  0  0  0  0  0  0  0  0  0  0  0
  192.8360  175.8540  137.3120 C   0  0  0  0  0  0  0  0  0  0  0  0
  194.8370  173.2610  135.8350 C   0  0  0  0  0  3  0  0  0  0  0  0
  195.4060  172.0920  135.8050 N   0  0  0  0  0  0  0  0  0  0  0  0
  195.0800  173.3000  138.3340 C   0  0  0  0  0  3  0  0  0  0  0  0
  193.7300  176.6790  139.3590 O   0  0  0  0  0  0  0  0  0  0  0  0
  194.5300  173.8930  137.1150 C   0  0  0  0  0  0  0  0  0  0  0  0
  190.4410  177.1960  138.1750 C   0  0  0  0  0  0  0  0  0  0  0  0
  190.6220  176.9990  136.6900 C   0  0  0  0  0  2  0  0  0  0  0  0
  191.6010  175.3130  135.2550 C   0  0  0  0  0  2  0  0  0  0  0  0
  195.6570  172.0960  138.2820 C   0  0  0  0  0  3  0  0  0  0  0  0
  189.2360  176.5660  142.2960 C   0  0  1  0  0  3  0  0  0  0  0  0
  191.5590  175.8920  143.1940 C   0  0  0  0  0  2  0  0  0  0  0  0
  189.8390  177.9590  142.1040 C   0  0  2  0  0  3  0  0  0  0  0  0
  189.8570  176.9510  140.9750 C   0  0  2  0  0  3  0  0  0  0  0  0
  191.2920  178.2000  142.5640 C   0  0  0  0  0  2  0  0  0  0  0  0
  190.0820  175.5500  143.0740 C   0  0  0  0  0  2  0  0  0  0  0  0
  191.7780  177.2730  143.6020 N   0  0  0  0  0  0  0  0  0  0  0  0
  191.1430  177.5350  144.8940 C   0  0  0  0  0  2  0  0  0  0  0  0
  191.6930  176.5960  145.9410 C   0  0  0  0  0  2  0  0  0  0  0  0
  190.7700  176.5820  147.1400 C   0  0  0  0  0  2  0  0  0  0  0  0
  189.6260  177.5380  146.9030 C   0  0  0  0  0  2  0  0  0  0  0  0
  188.7140  177.5720  148.1200 C   0  0  0  0  0  2  0  0  0  0  0  0
  187.3530  178.1700  147.7880 C   0  0  0  0  0  2  0  0  0  0  0  0
  186.9530  177.8600  146.3550 C   0  0  0  0  0  2  0  0  0  0  0  0
  185.5650  177.8020  146.2430 O   0  0  0  0  0  0  0  0  0  0  0  0
  185.1750  179.0770  145.8390 C   0  0  0  0  0  2  0  0  0  0  0  0
  183.7710  179.0530  145.4570 N   0  0  0  0  0  1  0  0  0  0  0  0
  187.9760  177.7760  137.7720 C   0  0  1  0  0  3  0  0  0  0  0  0
  187.3360  176.5700  137.2490 C   0  0  0  0  0  2  0  0  0  0  0  0
  186.7170  177.2970  138.3530 N   0  0  0  0  0  0  0  0  0  0  0  0
  185.6440  178.1070  137.7830 C   0  0  0  0  0  2  0  0  0  0  0  0
  184.4280  178.0750  138.6980 C   0  0  2  0  0  3  0  0  0  0  0  0
  183.2560  177.9420  137.9640 F   0  0  0  0  0  0  0  0  0  0  0  0
  184.3910  179.2740  139.5960 C   0  0  0  0  0  0  0  0  0  0  0  0
  184.2880  180.3860  139.1050 O   0  0  0  0  0  0  0  0  0  0  0  0
  184.5720  179.1210  141.0820 C   0  0  1  0  0  3  0  0  0  0  0  0
  183.6860  178.0130  141.6180 C   0  0  0  0  0  1  0  0  0  0  0  0
  186.0360  178.8660  141.4640 C   0  0  0  0  0  2  0  0  0  0  0  0
  186.1150  178.1650  142.6730 O   0  0  0  0  0  1  0  0  0  0  0  0
  1  2  2  0  0  0  0
  4  9  2  0  0  0  0
  5  3  1  1  0  0  0
  5 18  1  0  0  0  0
  7  6  1  0  0  0  0
  7 13  2  0  0  0  0
  8 16  1  0  0  0  0
  8  9  1  0  0  0  0
  9  7  1  0  0  0  0
 10 14  1  0  0  0  0
 11 10  2  0  0  0  0
 11  5  1  0  0  0  0
 14  4  2  0  0  0  0
 14 12  1  0  0  0  0
 15  1  1  0  0  0  0
 15  6  2  0  0  0  0
 16 15  1  0  0  0  0
 17  8  2  0  0  0  0
 18 12  2  0  0  0  0
 19 24  1  1  0  0  0
 20 25  1  0  0  0  0
 21 19  1  0  0  0  0
 21 23  1  1  0  0  0
 22  2  1  6  0  0  0
 22 21  1  0  0  0  0
 22 19  1  0  0  0  0
 23 25  1  0  0  0  0
 24 20  1  0  0  0  0
 25 26  1  0  0  0  0
 26 27  1  0  0  0  0
 27 28  1  0  0  0  0
 29 28  1  0  0  0  0
 29 30  1  0  0  0  0
 31 30  1  0  0  0  0
 32 31  1  0  0  0  0
 33 32  1  0  0  0  0
 34 33  1  0  0  0  0
 35 34  1  0  0  0  0
 36 38  1  0  0  0  0
 36  1  1  1  0  0  0
 37 36  1  0  0  0  0
 37 38  1  0  0  0  0
 39 38  1  0  0  0  0
 39 40  1  0  0  0  0
 40 41  1  6  0  0  0
 40 42  1  0  0  0  0
 42 44  1  0  0  0  0
 43 42  2  0  0  0  0
 44 46  1  0  0  0  0
 44 45  1  6  0  0  0
 46 47  1  0  0  0  0
M  END
>  <MODEL>
1

>  <REMARK>
 VINA RESULT:      -8.1      0.000      0.000
  Name = 
  17 active torsions:
  status: ('A' for Active; 'I' for Inactive)
    1  A    between atoms: C_2  and  C_10
    2  A    between atoms: C_2  and  C_13
    3  A    between atoms: C_4  and  C_26
    4  A    between atoms: C_4  and  C_33
    5  A    between atoms: C_9  and  C_17
    6  A    between atoms: C_10  and  C_31
    7  A    between atoms: C_13  and  C_27
    8  A    between atoms: C_17  and  C_34
    9  A    between atoms: C_18  and  C_19
   10  A    between atoms: C_18  and  N_46
   11  A    between atoms: C_19  and  C_27
   12  A    between atoms: C_23  and  O_44
   13  A    between atoms: C_24  and  C_36
   14  A    between atoms: C_26  and  C_36
   15  A    between atoms: N_30  and  C_37
   16  A    between atoms: C_31  and  O_44
   17  A    between atoms: C_33  and  N_40
                            x       y       z     vdW  Elec       q    Type
                         _______ _______ _______ _____ _____    ______ ____

>  <TORSDO>
F 17

$$$$
=
 OpenBabel10232411463D

 47 51  0  0  1  0  0  0  0  0999 V2000
  190.2250  176.4530  139.2590 C   0  0  0  0  0  0  0  0  0  0  0  0
  190.8180  176.2810  140.4120 N   0  0  0  0  0  0  0  0  0  0  0  0
  181.0050  176.3400  139.8810 N   0  0  0  0  0  1  0  0  0  0  0  0
  185.1430  178.4980  138.9820 C   0  0  0  0  0  0  0  0  0  0  0  0
  181.1300  177.6060  139.1770 C   0  0  1  0  0  3  0  0  0  0  0  0
  188.4630  177.4740  137.9750 N   0  0  0  0  0  0  0  0  0  0  0  0
  187.2070  178.1530  137.8280 C   0  0  0  0  0  0  0  0  0  0  0  0
  187.1720  178.4190  140.3150 C   0  0  0  0  0  0  0  0  0  0  0  0
  186.4420  178.4920  139.0320 C   0  0  0  0  0  0  0  0  0  0  0  0
  183.0100  178.9350  140.0020 C   0  0  0  0  0  3  0  0  0  0  0  0
  181.7580  178.5910  140.0750 N   0  0  0  0  0  0  0  0  0  0  0  0
  183.1980  177.7370  137.8040 C   0  0  0  0  0  3  0  0  0  0  0  0
  186.7460  178.3930  136.6730 O   0  0  0  0  0  0  0  0  0  0  0  0
  183.8460  178.4310  138.9160 C   0  0  0  0  0  0  0  0  0  0  0  0
  189.1060  177.4080  139.1120 C   0  0  0  0  0  0  0  0  0  0  0  0
  188.6530  178.2080  140.3080 C   0  0  0  0  0  2  0  0  0  0  0  0
  186.5700  178.5650  141.4880 C   0  0  0  0  0  2  0  0  0  0  0  0
  181.9120  177.3890  137.8990 C   0  0  0  0  0  3  0  0  0  0  0  0
  191.5750  177.0660  142.6080 C   0  0  1  0  0  3  0  0  0  0  0  0
  190.1630  178.5890  144.1390 C   0  0  0  0  0  2  0  0  0  0  0  0
  190.4600  176.0350  142.7950 C   0  0  2  0  0  3  0  0  0  0  0  0
  190.4320  176.9950  141.6240 C   0  0  2  0  0  3  0  0  0  0  0  0
  189.2880  176.3830  143.7370 C   0  0  0  0  0  2  0  0  0  0  0  0
  191.5140  178.3160  143.4960 C   0  0  0  0  0  2  0  0  0  0  0  0
  189.5920  177.4010  144.7590 N   0  0  0  0  0  0  0  0  0  0  0  0
  190.4900  176.8750  145.7880 C   0  0  0  0  0  2  0  0  0  0  0  0
  190.1100  177.4310  147.1390 C   0  0  0  0  0  2  0  0  0  0  0  0
  188.7240  176.9530  147.5100 C   0  0  0  0  0  2  0  0  0  0  0  0
  188.1160  177.9070  148.5100 C   0  0  0  0  0  2  0  0  0  0  0  0
  186.9880  178.6950  147.8590 C   0  0  0  0  0  2  0  0  0  0  0  0
  186.4970  178.0250  146.5810 C   0  0  0  0  0  2  0  0  0  0  0  0
  185.0320  178.3380  146.3260 C   0  0  0  0  0  2  0  0  0  0  0  0
  184.8910  179.0410  145.1300 O   0  0  0  0  0  0  0  0  0  0  0  0
  183.5180  179.1030  144.9000 C   0  0  0  0  0  2  0  0  0  0  0  0
  183.2500  178.8000  143.5030 N   0  0  0  0  0  1  0  0  0  0  0  0
  190.7040  175.7040  138.0560 C   0  0  1  0  0  3  0  0  0  0  0  0
  191.6460  176.5050  137.2770 C   0  0  0  0  0  2  0  0  0  0  0  0
  192.1490  175.4890  138.1960 N   0  0  0  0  0  0  0  0  0  0  0  0
  192.4910  174.3170  137.3940 C   0  0  0  0  0  2  0  0  0  0  0  0
  193.6540  174.6430  136.4690 C   0  0  2  0  0  3  0  0  0  0  0  0
  193.7100  173.7510  135.4060 F   0  0  0  0  0  0  0  0  0  0  0  0
  194.9480  174.6990  137.2210 C   0  0  0  0  0  0  0  0  0  0  0  0
  195.8490  175.4100  136.8080 O   0  0  0  0  0  0  0  0  0  0  0  0
  195.1740  173.8180  138.4190 C   0  0  1  0  0  3  0  0  0  0  0  0
  195.6220  172.4340  137.9890 C   0  0  0  0  0  1  0  0  0  0  0  0
  196.1850  174.4240  139.4020 C   0  0  0  0  0  2  0  0  0  0  0  0
  195.6170  175.5040  140.0890 O   0  0  0  0  0  1  0  0  0  0  0  0
  1  2  2  0  0  0  0
  4  9  2  0  0  0  0
  5  3  1  1  0  0  0
  5 11  1  0  0  0  0
  6 15  2  0  0  0  0
  7  6  1  0  0  0  0
  7  9  1  0  0  0  0
  8 17  2  0  0  0  0
  9  8  1  0  0  0  0
 10 11  2  0  0  0  0
 12 18  2  0  0  0  0
 12 14  1  0  0  0  0
 13  7  2  0  0  0  0
 14  4  2  0  0  0  0
 14 10  1  0  0  0  0
 15  1  1  0  0  0  0
 15 16  1  0  0  0  0
 16  8  1  0  0  0  0
 18  5  1  0  0  0  0
 19 21  1  0  0  0  0
 19 24  1  1  0  0  0
 20 25  1  0  0  0  0
 21 23  1  1  0  0  0
 22  2  1  6  0  0  0
 22 19  1  0  0  0  0
 22 21  1  0  0  0  0
 23 25  1  0  0  0  0
 24 20  1  0  0  0  0
 25 26  1  0  0  0  0
 26 27  1  0  0  0  0
 27 28  1  0  0  0  0
 28 29  1  0  0  0  0
 30 29  1  0  0  0  0
 31 30  1  0  0  0  0
 32 31  1  0  0  0  0
 33 32  1  0  0  0  0
 34 33  1  0  0  0  0
 35 34  1  0  0  0  0
 36 38  1  0  0  0  0
 36  1  1  1  0  0  0
 37 36  1  0  0  0  0
 37 38  1  0  0  0  0
 39 38  1  0  0  0  0
 40 41  1  6  0  0  0
 40 42  1  0  0  0  0
 40 39  1  0  0  0  0
 42 44  1  0  0  0  0
 43 42  2  0  0  0  0
 44 45  1  6  0  0  0
 44 46  1  0  0  0  0
 46 47  1  0  0  0  0
M  END
>  <MODEL>
2

>  <REMARK>
 VINA RESULT:      -8.1      2.606      8.171
  Name = 
  17 active torsions:
  status: ('A' for Active; 'I' for Inactive)
    1  A    between atoms: C_2  and  C_10
    2  A    between atoms: C_2  and  C_13
    3  A    between atoms: C_4  and  C_26
    4  A    between atoms: C_4  and  C_33
    5  A    between atoms: C_9  and  C_17
    6  A    between atoms: C_10  and  C_31
    7  A    between atoms: C_13  and  C_27
    8  A    between atoms: C_17  and  C_34
    9  A    between atoms: C_18  and  C_19
   10  A    between atoms: C_18  and  N_46
   11  A    between atoms: C_19  and  C_27
   12  A    between atoms: C_23  and  O_44
   13  A    between atoms: C_24  and  C_36
   14  A    between atoms: C_26  and  C_36
   15  A    between atoms: N_30  and  C_37
   16  A    between atoms: C_31  and  O_44
   17  A    between atoms: C_33  and  N_40
                            x       y       z     vdW  Elec       q    Type
                         _______ _______ _______ _____ _____    ______ ____

>  <TORSDO>
F 17

$$$$
=
 OpenBabel10232411463D

 47 51  0  0  1  0  0  0  0  0999 V2000
  184.4830  178.7560  141.4180 C   0  0  0  0  0  0  0  0  0  0  0  0
  183.2580  178.3540  141.2040 N   0  0  0  0  0  0  0  0  0  0  0  0
  188.8570  172.6470  136.0360 N   0  0  0  0  0  1  0  0  0  0  0  0
  188.0190  177.0630  137.5810 C   0  0  0  0  0  0  0  0  0  0  0  0
  189.7290  173.7820  135.7790 C   0  0  1  0  0  3  0  0  0  0  0  0
  186.7430  178.5780  140.6090 N   0  0  0  0  0  0  0  0  0  0  0  0
  187.7310  178.3010  139.6050 C   0  0  0  0  0  0  0  0  0  0  0  0
  185.8600  178.1140  137.9550 C   0  0  0  0  0  0  0  0  0  0  0  0
  187.2860  177.8870  138.2700 C   0  0  0  0  0  0  0  0  0  0  0  0
  188.4750  175.8700  135.5450 C   0  0  0  0  0  3  0  0  0  0  0  0
  188.9800  174.7950  135.0140 N   0  0  0  0  0  0  0  0  0  0  0  0
  189.7560  175.4130  137.6550 C   0  0  0  0  0  3  0  0  0  0  0  0
  188.9630  178.3540  139.8950 O   0  0  0  0  0  0  0  0  0  0  0  0
  188.7390  176.1890  136.9450 C   0  0  0  0  0  0  0  0  0  0  0  0
  185.4820  178.7750  140.3280 C   0  0  0  0  0  0  0  0  0  0  0  0
  185.0150  178.9100  138.9000 C   0  0  0  0  0  2  0  0  0  0  0  0
  185.2950  177.6640  136.8430 C   0  0  0  0  0  2  0  0  0  0  0  0
  190.2590  174.3090  137.0940 C   0  0  0  0  0  3  0  0  0  0  0  0
  181.2990  177.6170  139.9270 C   0  0  1  0  0  3  0  0  0  0  0  0
  181.3400  177.1760  137.3850 C   0  0  0  0  0  2  0  0  0  0  0  0
  182.2990  176.4650  140.0290 C   0  0  2  0  0  3  0  0  0  0  0  0
  182.7830  177.8940  139.9040 C   0  0  2  0  0  3  0  0  0  0  0  0
  182.6810  175.7080  138.7400 C   0  0  0  0  0  2  0  0  0  0  0  0
  180.6340  177.8350  138.5610 C   0  0  0  0  0  2  0  0  0  0  0  0
  181.6890  175.7880  137.6530 N   0  0  0  0  0  0  0  0  0  0  0  0
  180.4910  175.0060  137.9630 C   0  0  0  0  0  2  0  0  0  0  0  0
  180.7570  173.5380  137.7350 C   0  0  0  0  0  2  0  0  0  0  0  0
  181.0400  173.2990  136.2680 C   0  0  0  0  0  2  0  0  0  0  0  0
  181.3880  171.8450  136.0560 C   0  0  0  0  0  2  0  0  0  0  0  0
  182.4950  171.4290  137.0130 C   0  0  0  0  0  2  0  0  0  0  0  0
  183.7210  170.9170  136.2690 C   0  0  0  0  0  2  0  0  0  0  0  0
  184.8790  171.8960  136.3820 C   0  0  0  0  0  2  0  0  0  0  0  0
  184.7240  172.6970  137.5120 O   0  0  0  0  0  0  0  0  0  0  0  0
  185.5930  173.7700  137.3240 C   0  0  0  0  0  2  0  0  0  0  0  0
  185.4750  174.2510  135.9560 N   0  0  0  0  0  1  0  0  0  0  0  0
  184.8810  179.2420  142.7770 C   0  0  1  0  0  3  0  0  0  0  0  0
  183.9130  178.8240  143.7890 C   0  0  0  0  0  2  0  0  0  0  0  0
  185.1530  178.0730  143.6190 N   0  0  0  0  0  0  0  0  0  0  0  0
  186.0630  178.5040  144.6760 C   0  0  0  0  0  2  0  0  0  0  0  0
  186.8110  177.3040  145.2390 C   0  0  2  0  0  3  0  0  0  0  0  0
  186.3320  176.9650  146.4980 F   0  0  0  0  0  0  0  0  0  0  0  0
  188.2900  177.5410  145.2490 C   0  0  0  0  0  0  0  0  0  0  0  0
  188.7870  178.1830  146.1600 O   0  0  0  0  0  0  0  0  0  0  0  0
  189.1470  177.0740  144.1040 C   0  0  1  0  0  3  0  0  0  0  0  0
  188.3240  176.2730  143.1120 C   0  0  0  0  0  1  0  0  0  0  0  0
  189.8520  178.2380  143.3960 C   0  0  0  0  0  2  0  0  0  0  0  0
  190.8690  177.7630  142.5590 O   0  0  0  0  0  1  0  0  0  0  0  0
  2  1  2  0  0  0  0
  4  9  2  0  0  0  0
  5  3  1  1  0  0  0
  5 18  1  0  0  0  0
  7 13  2  0  0  0  0
  7  6  1  0  0  0  0
  8  9  1  0  0  0  0
  8 16  1  0  0  0  0
  9  7  1  0  0  0  0
 10 14  1  0  0  0  0
 11 10  2  0  0  0  0
 11  5  1  0  0  0  0
 14  4  2  0  0  0  0
 14 12  1  0  0  0  0
 15  6  2  0  0  0  0
 15  1  1  0  0  0  0
 16 15  1  0  0  0  0
 17  8  2  0  0  0  0
 18 12  2  0  0  0  0
 19 24  1  6  0  0  0
 19 21  1  0  0  0  0
 20 25  1  0  0  0  0
 20 24  1  0  0  0  0
 21 23  1  6  0  0  0
 22 19  1  0  0  0  0
 22 21  1  0  0  0  0
 22  2  1  1  0  0  0
 25 26  1  0  0  0  0
 25 23  1  0  0  0  0
 27 26  1  0  0  0  0
 28 27  1  0  0  0  0
 29 28  1  0  0  0  0
 29 30  1  0  0  0  0
 31 32  1  0  0  0  0
 31 30  1  0  0  0  0
 32 33  1  0  0  0  0
 34 33  1  0  0  0  0
 35 34  1  0  0  0  0
 36  1  1  6  0  0  0
 36 38  1  0  0  0  0
 36 37  1  0  0  0  0
 38 37  1  0  0  0  0
 38 39  1  0  0  0  0
 39 40  1  0  0  0  0
 40 42  1  0  0  0  0
 40 41  1  1  0  0  0
 42 43  2  0  0  0  0
 44 45  1  6  0  0  0
 44 42  1  0  0  0  0
 46 44  1  0  0  0  0
 47 46  1  0  0  0  0
M  END
>  <MODEL>
3

>  <REMARK>
 VINA RESULT:      -7.3      3.906      8.678
  Name = 
  17 active torsions:
  status: ('A' for Active; 'I' for Inactive)
    1  A    between atoms: C_2  and  C_10
    2  A    between atoms: C_2  and  C_13
    3  A    between atoms: C_4  and  C_26
    4  A    between atoms: C_4  and  C_33
    5  A    between atoms: C_9  and  C_17
    6  A    between atoms: C_10  and  C_31
    7  A    between atoms: C_13  and  C_27
    8  A    between atoms: C_17  and  C_34
    9  A    between atoms: C_18  and  C_19
   10  A    between atoms: C_18  and  N_46
   11  A    between atoms: C_19  and  C_27
   12  A    between atoms: C_23  and  O_44
   13  A    between atoms: C_24  and  C_36
   14  A    between atoms: C_26  and  C_36
   15  A    between atoms: N_30  and  C_37
   16  A    between atoms: C_31  and  O_44
   17  A    between atoms: C_33  and  N_40
                            x       y       z     vdW  Elec       q    Type
                         _______ _______ _______ _____ _____    ______ ____

>  <TORSDO>
F 17

$$$$
=
 OpenBabel10232411463D

 47 51  0  0  1  0  0  0  0  0999 V2000
  189.4430  177.2590  138.7720 C   0  0  0  0  0  0  0  0  0  0  0  0
  188.1730  177.4000  138.4900 N   0  0  0  0  0  0  0  0  0  0  0  0
  195.0940  169.9470  138.7080 N   0  0  0  0  0  1  0  0  0  0  0  0
  193.1730  173.8080  136.7100 C   0  0  0  0  0  0  0  0  0  0  0  0
  195.6280  170.6070  137.5280 C   0  0  1  0  0  3  0  0  0  0  0  0
  191.6420  176.8710  137.8750 N   0  0  0  0  0  0  0  0  0  0  0  0
  192.6360  176.0830  137.2020 C   0  0  0  0  0  0  0  0  0  0  0  0
  190.8280  174.4390  136.6680 C   0  0  0  0  0  0  0  0  0  0  0  0
  192.2730  174.7440  136.7250 C   0  0  0  0  0  0  0  0  0  0  0  0
  193.8620  171.5750  136.1400 C   0  0  0  0  0  3  0  0  0  0  0  0
  194.6150  170.5640  136.4590 N   0  0  0  0  0  0  0  0  0  0  0  0
  195.2850  173.0690  137.5700 C   0  0  0  0  0  3  0  0  0  0  0  0
  193.8180  176.5190  137.0830 O   0  0  0  0  0  0  0  0  0  0  0  0
  194.0780  172.8760  136.7680 C   0  0  0  0  0  0  0  0  0  0  0  0
  190.3650  176.5960  137.8260 C   0  0  0  0  0  0  0  0  0  0  0  0
  189.8340  175.5340  136.8960 C   0  0  0  0  0  2  0  0  0  0  0  0
  190.3650  173.2270  136.3890 C   0  0  0  0  0  2  0  0  0  0  0  0
  196.0430  172.0160  137.8910 C   0  0  0  0  0  3  0  0  0  0  0  0
  186.6820  177.9720  136.6300 C   0  0  1  0  0  3  0  0  0  0  0  0
  186.3380  176.4610  134.5650 C   0  0  0  0  0  2  0  0  0  0  0  0
  186.0720  176.8210  137.4320 C   0  0  2  0  0  3  0  0  0  0  0  0
  187.5720  176.9210  137.2500 C   0  0  2  0  0  3  0  0  0  0  0  0
  185.5720  175.5770  136.6690 C   0  0  0  0  0  2  0  0  0  0  0  0
  186.6110  177.8590  135.1000 C   0  0  0  0  0  2  0  0  0  0  0  0
  185.2320  175.8100  135.2530 N   0  0  0  0  0  0  0  0  0  0  0  0
  184.0060  176.5980  135.1200 C   0  0  0  0  0  2  0  0  0  0  0  0
  182.8620  175.8970  135.8120 C   0  0  0  0  0  2  0  0  0  0  0  0
  181.9490  176.9250  136.4430 C   0  0  0  0  0  2  0  0  0  0  0  0
  182.7780  178.0550  137.0040 C   0  0  0  0  0  2  0  0  0  0  0  0
  182.2940  178.4130  138.4010 C   0  0  0  0  0  2  0  0  0  0  0  0
  183.1110  179.5480  139.0070 C   0  0  0  0  0  2  0  0  0  0  0  0
  184.2680  179.0100  139.8320 C   0  0  0  0  0  2  0  0  0  0  0  0
  183.7910  178.1840  140.8490 O   0  0  0  0  0  0  0  0  0  0  0  0
  184.4310  178.6220  142.0080 C   0  0  0  0  0  2  0  0  0  0  0  0
  185.5630  179.4610  141.6450 N   0  0  0  0  0  1  0  0  0  0  0  0
  189.9860  177.8070  140.0540 C   0  0  1  0  0  3  0  0  0  0  0  0
  188.9390  177.9040  141.0700 C   0  0  0  0  0  2  0  0  0  0  0  0
  189.8580  176.7710  141.0840 N   0  0  0  0  0  0  0  0  0  0  0  0
  190.8660  177.0500  142.1040 C   0  0  0  0  0  2  0  0  0  0  0  0
  190.6890  176.1030  143.2820 C   0  0  2  0  0  3  0  0  0  0  0  0
  189.6210  175.2410  143.0710 F   0  0  0  0  0  0  0  0  0  0  0  0
  190.5540  176.8560  144.5700 C   0  0  0  0  0  0  0  0  0  0  0  0
  191.5400  177.3780  145.0630 O   0  0  0  0  0  0  0  0  0  0  0  0
  189.2380  176.8920  145.2990 C   0  0  1  0  0  3  0  0  0  0  0  0
  189.4390  177.3050  146.7440 C   0  0  0  0  0  1  0  0  0  0  0  0
  188.2220  177.8170  144.6160 C   0  0  0  0  0  2  0  0  0  0  0  0
  187.1920  177.0720  144.0310 O   0  0  0  0  0  1  0  0  0  0  0  0
  2  1  2  0  0  0  0
  4  9  2  0  0  0  0
  4 14  2  0  0  0  0
  5 18  1  0  0  0  0
  5  3  1  1  0  0  0
  7  6  1  0  0  0  0
  8  9  1  0  0  0  0
  8 16  1  0  0  0  0
  9  7  1  0  0  0  0
 10 11  2  0  0  0  0
 10 14  1  0  0  0  0
 11  5  1  0  0  0  0
 12 18  2  0  0  0  0
 13  7  2  0  0  0  0
 14 12  1  0  0  0  0
 15  6  2  0  0  0  0
 15  1  1  0  0  0  0
 16 15  1  0  0  0  0
 17  8  2  0  0  0  0
 19 24  1  6  0  0  0
 19 22  1  0  0  0  0
 19 21  1  0  0  0  0
 20 24  1  0  0  0  0
 20 25  1  0  0  0  0
 21 23  1  6  0  0  0
 22 21  1  0  0  0  0
 22  2  1  1  0  0  0
 25 23  1  0  0  0  0
 26 25  1  0  0  0  0
 26 27  1  0  0  0  0
 27 28  1  0  0  0  0
 28 29  1  0  0  0  0
 29 30  1  0  0  0  0
 30 31  1  0  0  0  0
 31 32  1  0  0  0  0
 32 33  1  0  0  0  0
 33 34  1  0  0  0  0
 35 34  1  0  0  0  0
 36  1  1  6  0  0  0
 36 37  1  0  0  0  0
 36 38  1  0  0  0  0
 37 38  1  0  0  0  0
 38 39  1  0  0  0  0
 39 40  1  0  0  0  0
 40 41  1  6  0  0  0
 40 42  1  0  0  0  0
 42 43  2  0  0  0  0
 42 44  1  0  0  0  0
 44 45  1  1  0  0  0
 46 44  1  0  0  0  0
 47 46  1  0  0  0  0
M  END
>  <MODEL>
4

>  <REMARK>
 VINA RESULT:      -7.1      2.459      6.602
  Name = 
  17 active torsions:
  status: ('A' for Active; 'I' for Inactive)
    1  A    between atoms: C_2  and  C_10
    2  A    between atoms: C_2  and  C_13
    3  A    between atoms: C_4  and  C_26
    4  A    between atoms: C_4  and  C_33
    5  A    between atoms: C_9  and  C_17
    6  A    between atoms: C_10  and  C_31
    7  A    between atoms: C_13  and  C_27
    8  A    between atoms: C_17  and  C_34
    9  A    between atoms: C_18  and  C_19
   10  A    between atoms: C_18  and  N_46
   11  A    between atoms: C_19  and  C_27
   12  A    between atoms: C_23  and  O_44
   13  A    between atoms: C_24  and  C_36
   14  A    between atoms: C_26  and  C_36
   15  A    between atoms: N_30  and  C_37
   16  A    between atoms: C_31  and  O_44
   17  A    between atoms: C_33  and  N_40
                            x       y       z     vdW  Elec       q    Type
                         _______ _______ _______ _____ _____    ______ ____

>  <TORSDO>
F 17

$$$$
=
 OpenBabel10232411463D

 47 51  0  0  1  0  0  0  0  0999 V2000
  190.5190  176.9290  138.2900 C   0  0  0  0  0  0  0  0  0  0  0  0
  191.8090  176.7320  138.1920 N   0  0  0  0  0  0  0  0  0  0  0  0
  181.5910  174.5770  137.8900 N   0  0  0  0  0  1  0  0  0  0  0  0
  185.9600  174.8680  136.0430 C   0  0  0  0  0  0  0  0  0  0  0  0
  182.0310  173.8450  136.7130 C   0  0  1  0  0  3  0  0  0  0  0  0
  189.3360  175.0670  137.3270 N   0  0  0  0  0  0  0  0  0  0  0  0
  188.2480  174.4690  136.6080 C   0  0  0  0  0  0  0  0  0  0  0  0
  187.4560  176.7820  136.0780 C   0  0  0  0  0  0  0  0  0  0  0  0
  187.1730  175.3320  136.1060 C   0  0  0  0  0  0  0  0  0  0  0  0
  183.6570  175.1110  135.3970 C   0  0  0  0  0  3  0  0  0  0  0  0
  182.4220  174.8090  135.6700 N   0  0  0  0  0  0  0  0  0  0  0  0
  184.4290  173.1990  136.8290 C   0  0  0  0  0  3  0  0  0  0  0  0
  188.1930  173.2120  136.4700 O   0  0  0  0  0  0  0  0  0  0  0  0
  184.7490  174.3970  136.0530 C   0  0  0  0  0  0  0  0  0  0  0  0
  189.5820  176.3510  137.3040 C   0  0  0  0  0  0  0  0  0  0  0  0
  188.8430  177.2670  136.3600 C   0  0  0  0  0  2  0  0  0  0  0  0
  186.5300  177.6840  135.7800 C   0  0  0  0  0  2  0  0  0  0  0  0
  183.1540  172.9080  137.1030 C   0  0  0  0  0  3  0  0  0  0  0  0
  193.3180  174.8690  137.6790 C   0  0  1  0  0  3  0  0  0  0  0  0
  193.6740  173.9400  135.2980 C   0  0  0  0  0  2  0  0  0  0  0  0
  193.9160  176.1690  137.1390 C   0  0  2  0  0  3  0  0  0  0  0  0
  192.4190  175.9470  137.1240 C   0  0  2  0  0  3  0  0  0  0  0  0
  194.4180  176.1960  135.6800 C   0  0  0  0  0  2  0  0  0  0  0  0
  193.4010  173.6390  136.7650 C   0  0  0  0  0  2  0  0  0  0  0  0
  194.7710  174.8800  135.1180 N   0  0  0  0  0  0  0  0  0  0  0  0
  196.0020  174.3560  135.7130 C   0  0  0  0  0  2  0  0  0  0  0  0
  197.0610  175.4310  135.7420 C   0  0  0  0  0  2  0  0  0  0  0  0
  198.4280  174.7950  135.6190 C   0  0  0  0  0  2  0  0  0  0  0  0
  198.3370  173.3350  135.9930 C   0  0  0  0  0  2  0  0  0  0  0  0
  198.9140  173.1170  137.3840 C   0  0  0  0  0  2  0  0  0  0  0  0
  199.8250  174.2640  137.8030 C   0  0  0  0  0  2  0  0  0  0  0  0
  199.5010  174.7350  139.2110 C   0  0  0  0  0  2  0  0  0  0  0  0
  198.4710  175.6730  139.1800 O   0  0  0  0  0  0  0  0  0  0  0  0
  197.6280  175.3290  140.2350 C   0  0  0  0  0  2  0  0  0  0  0  0
  196.3520  174.8750  139.7030 N   0  0  0  0  0  1  0  0  0  0  0  0
  189.9720  177.7210  139.4360 C   0  0  1  0  0  3  0  0  0  0  0  0
  188.6400  177.2520  139.8120 C   0  0  0  0  0  2  0  0  0  0  0  0
  189.8040  176.8170  140.5780 N   0  0  0  0  0  0  0  0  0  0  0  0
  189.8510  177.6350  141.7870 C   0  0  0  0  0  2  0  0  0  0  0  0
  189.9870  176.7430  143.0130 C   0  0  2  0  0  3  0  0  0  0  0  0
  190.3140  175.4430  142.6490 F   0  0  0  0  0  0  0  0  0  0  0  0
  188.7520  176.7910  143.8600 C   0  0  0  0  0  0  0  0  0  0  0  0
  187.7390  176.2340  143.4730 O   0  0  0  0  0  0  0  0  0  0  0  0
  188.7290  177.5960  145.1320 C   0  0  1  0  0  3  0  0  0  0  0  0
  187.3660  177.5150  145.7910 C   0  0  0  0  0  1  0  0  0  0  0  0
  189.8250  177.1590  146.1140 C   0  0  0  0  0  2  0  0  0  0  0  0
  189.3250  177.1110  147.4200 O   0  0  0  0  0  1  0  0  0  0  0  0
  2  1  2  0  0  0  0
  4 14  2  0  0  0  0
  4  9  2  0  0  0  0
  5 18  1  0  0  0  0
  5  3  1  1  0  0  0
  7  6  1  0  0  0  0
  8  9  1  0  0  0  0
  8 16  1  0  0  0  0
  9  7  1  0  0  0  0
 10 11  2  0  0  0  0
 10 14  1  0  0  0  0
 11  5  1  0  0  0  0
 12 18  2  0  0  0  0
 13  7  2  0  0  0  0
 14 12  1  0  0  0  0
 15  6  2  0  0  0  0
 15  1  1  0  0  0  0
 16 15  1  0  0  0  0
 17  8  2  0  0  0  0
 19 24  1  6  0  0  0
 20 24  1  0  0  0  0
 21 23  1  6  0  0  0
 21 19  1  0  0  0  0
 22 21  1  0  0  0  0
 22 19  1  0  0  0  0
 22  2  1  1  0  0  0
 25 20  1  0  0  0  0
 25 23  1  0  0  0  0
 25 26  1  0  0  0  0
 26 27  1  0  0  0  0
 28 27  1  0  0  0  0
 28 29  1  0  0  0  0
 29 30  1  0  0  0  0
 30 31  1  0  0  0  0
 31 32  1  0  0  0  0
 33 32  1  0  0  0  0
 33 34  1  0  0  0  0
 35 34  1  0  0  0  0
 36  1  1  6  0  0  0
 36 37  1  0  0  0  0
 36 38  1  0  0  0  0
 37 38  1  0  0  0  0
 38 39  1  0  0  0  0
 39 40  1  0  0  0  0
 40 41  1  6  0  0  0
 40 42  1  0  0  0  0
 42 44  1  0  0  0  0
 43 42  2  0  0  0  0
 44 45  1  1  0  0  0
 44 46  1  0  0  0  0
 46 47  1  0  0  0  0
M  END
>  <MODEL>
5

>  <REMARK>
 VINA RESULT:      -7.0      3.439      9.384
  Name = 
  17 active torsions:
  status: ('A' for Active; 'I' for Inactive)
    1  A    between atoms: C_2  and  C_10
    2  A    between atoms: C_2  and  C_13
    3  A    between atoms: C_4  and  C_26
    4  A    between atoms: C_4  and  C_33
    5  A    between atoms: C_9  and  C_17
    6  A    between atoms: C_10  and  C_31
    7  A    between atoms: C_13  and  C_27
    8  A    between atoms: C_17  and  C_34
    9  A    between atoms: C_18  and  C_19
   10  A    between atoms: C_18  and  N_46
   11  A    between atoms: C_19  and  C_27
   12  A    between atoms: C_23  and  O_44
   13  A    between atoms: C_24  and  C_36
   14  A    between atoms: C_26  and  C_36
   15  A    between atoms: N_30  and  C_37
   16  A    between atoms: C_31  and  O_44
   17  A    between atoms: C_33  and  N_40
                            x       y       z     vdW  Elec       q    Type
                         _______ _______ _______ _____ _____    ______ ____

>  <TORSDO>
F 17

$$$$
=
 OpenBabel10232411463D

 47 51  0  0  1  0  0  0  0  0999 V2000
  184.1020  178.3780  141.4160 C   0  0  0  0  0  0  0  0  0  0  0  0
  184.1580  178.2860  142.7200 N   0  0  0  0  0  0  0  0  0  0  0  0
  190.7100  173.6720  136.9880 N   0  0  0  0  0  1  0  0  0  0  0  0
  188.7110  177.7030  138.5200 C   0  0  0  0  0  0  0  0  0  0  0  0
  191.3890  174.9570  137.0280 C   0  0  1  0  0  3  0  0  0  0  0  0
  186.4830  178.6640  141.2030 N   0  0  0  0  0  0  0  0  0  0  0  0
  187.7170  178.6600  140.4710 C   0  0  0  0  0  0  0  0  0  0  0  0
  186.3690  178.3340  138.3890 C   0  0  0  0  0  0  0  0  0  0  0  0
  187.6930  178.3180  139.0450 C   0  0  0  0  0  0  0  0  0  0  0  0
  189.8600  176.8180  136.6020 C   0  0  0  0  0  3  0  0  0  0  0  0
  190.6710  175.9030  136.1570 N   0  0  0  0  0  0  0  0  0  0  0  0
  190.6570  176.3680  138.9400 C   0  0  0  0  0  3  0  0  0  0  0  0
  188.8100  178.8880  141.0680 O   0  0  0  0  0  0  0  0  0  0  0  0
  189.7150  177.0310  138.0400 C   0  0  0  0  0  0  0  0  0  0  0  0
  185.3120  178.6750  140.6210 C   0  0  0  0  0  0  0  0  0  0  0  0
  185.1870  178.8760  139.1310 C   0  0  0  0  0  2  0  0  0  0  0  0
  186.1830  177.9130  137.1450 C   0  0  0  0  0  2  0  0  0  0  0  0
  191.4780  175.4270  138.4640 C   0  0  0  0  0  3  0  0  0  0  0  0
  185.8790  177.1610  144.0550 C   0  0  1  0  0  3  0  0  0  0  0  0
  188.0150  178.3340  144.9030 C   0  0  0  0  0  2  0  0  0  0  0  0
  185.1200  178.1530  144.9390 C   0  0  2  0  0  3  0  0  0  0  0  0
  185.3880  178.4690  143.4830 C   0  0  2  0  0  3  0  0  0  0  0  0
  185.9340  179.1350  145.8070 C   0  0  0  0  0  2  0  0  0  0  0  0
  187.4040  177.1220  144.2170 C   0  0  0  0  0  2  0  0  0  0  0  0
  187.3060  178.6990  146.1220 N   0  0  0  0  0  0  0  0  0  0  0  0
  187.3100  177.5860  147.0730 C   0  0  0  0  0  2  0  0  0  0  0  0
  187.8420  178.0480  148.4070 C   0  0  0  0  0  2  0  0  0  0  0  0
  189.3550  178.0390  148.3770 C   0  0  0  0  0  2  0  0  0  0  0  0
  189.8330  176.8610  147.5630 C   0  0  0  0  0  2  0  0  0  0  0  0
  191.3490  176.8950  147.4370 C   0  0  0  0  0  2  0  0  0  0  0  0
  191.8370  176.0370  146.2770 C   0  0  0  0  0  2  0  0  0  0  0  0
  191.5790  176.7190  144.9440 C   0  0  0  0  0  2  0  0  0  0  0  0
  191.6210  175.7860  143.9090 O   0  0  0  0  0  0  0  0  0  0  0  0
  190.8810  176.3520  142.8730 C   0  0  0  0  0  2  0  0  0  0  0  0
  191.6300  177.4590  142.2960 N   0  0  0  0  0  1  0  0  0  0  0  0
  182.8050  178.1450  140.7080 C   0  0  1  0  0  3  0  0  0  0  0  0
  181.6690  178.4390  141.5810 C   0  0  0  0  0  2  0  0  0  0  0  0
  182.1050  179.4300  140.6020 N   0  0  0  0  0  0  0  0  0  0  0  0
  181.1970  179.3340  139.4620 C   0  0  0  0  0  2  0  0  0  0  0  0
  181.7700  180.0980  138.2770 C   0  0  2  0  0  3  0  0  0  0  0  0
  181.8310  181.4590  138.5440 F   0  0  0  0  0  0  0  0  0  0  0  0
  181.0040  179.8090  137.0220 C   0  0  0  0  0  0  0  0  0  0  0  0
  180.1740  180.6130  136.6300 O   0  0  0  0  0  0  0  0  0  0  0  0
  181.1830  178.5010  136.3010 C   0  0  1  0  0  3  0  0  0  0  0  0
  181.0610  178.6960  134.8010 C   0  0  0  0  0  1  0  0  0  0  0  0
  182.5190  177.8280  136.6450 C   0  0  0  0  0  2  0  0  0  0  0  0
  182.9580  177.0310  135.5810 O   0  0  0  0  0  1  0  0  0  0  0  0
  1  2  2  0  0  0  0
  4  9  2  0  0  0  0
  5  3  1  1  0  0  0
  5 18  1  0  0  0  0
  7 13  2  0  0  0  0
  7  6  1  0  0  0  0
  8  9  1  0  0  0  0
  8 16  1  0  0  0  0
  9  7  1  0  0  0  0
 10 14  1  0  0  0  0
 11 10  2  0  0  0  0
 11  5  1  0  0  0  0
 14  4  2  0  0  0  0
 14 12  1  0  0  0  0
 15  6  2  0  0  0  0
 15  1  1  0  0  0  0
 16 15  1  0  0  0  0
 17  8  2  0  0  0  0
 18 12  2  0  0  0  0
 19 24  1  1  0  0  0
 19 21  1  0  0  0  0
 20 25  1  0  0  0  0
 21 23  1  1  0  0  0
 22  2  1  6  0  0  0
 22 19  1  0  0  0  0
 22 21  1  0  0  0  0
 23 25  1  0  0  0  0
 24 20  1  0  0  0  0
 25 26  1  0  0  0  0
 26 27  1  0  0  0  0
 28 27  1  0  0  0  0
 29 28  1  0  0  0  0
 30 29  1  0  0  0  0
 31 30  1  0  0  0  0
 32 31  1  0  0  0  0
 33 32  1  0  0  0  0
 34 33  1  0  0  0  0
 35 34  1  0  0  0  0
 36  1  1  1  0  0  0
 36 37  1  0  0  0  0
 38 36  1  0  0  0  0
 38 37  1  0  0  0  0
 39 38  1  0  0  0  0
 40 41  1  1  0  0  0
 40 39  1  0  0  0  0
 42 40  1  0  0  0  0
 43 42  2  0  0  0  0
 44 45  1  6  0  0  0
 44 46  1  0  0  0  0
 44 42  1  0  0  0  0
 47 46  1  0  0  0  0
M  END
>  <MODEL>
6

>  <REMARK>
 VINA RESULT:      -7.0      2.769      5.572
  Name = 
  17 active torsions:
  status: ('A' for Active; 'I' for Inactive)
    1  A    between atoms: C_2  and  C_10
    2  A    between atoms: C_2  and  C_13
    3  A    between atoms: C_4  and  C_26
    4  A    between atoms: C_4  and  C_33
    5  A    between atoms: C_9  and  C_17
    6  A    between atoms: C_10  and  C_31
    7  A    between atoms: C_13  and  C_27
    8  A    between atoms: C_17  and  C_34
    9  A    between atoms: C_18  and  C_19
   10  A    between atoms: C_18  and  N_46
   11  A    between atoms: C_19  and  C_27
   12  A    between atoms: C_23  and  O_44
   13  A    between atoms: C_24  and  C_36
   14  A    between atoms: C_26  and  C_36
   15  A    between atoms: N_30  and  C_37
   16  A    between atoms: C_31  and  O_44
   17  A    between atoms: C_33  and  N_40
                            x       y       z     vdW  Elec       q    Type
                         _______ _______ _______ _____ _____    ______ ____

>  <TORSDO>
F 17

$$$$
=
 OpenBabel10232411463D

 47 51  0  0  1  0  0  0  0  0999 V2000
  189.1650  177.4690  138.9620 C   0  0  0  0  0  0  0  0  0  0  0  0
  188.0300  177.0790  138.4420 N   0  0  0  0  0  0  0  0  0  0  0  0
  194.3670  170.0650  137.0840 N   0  0  0  0  0  1  0  0  0  0  0  0
  193.5360  174.7450  137.0770 C   0  0  0  0  0  0  0  0  0  0  0  0
  195.3850  171.0750  136.8460 C   0  0  1  0  0  3  0  0  0  0  0  0
  191.5340  177.0500  139.0170 N   0  0  0  0  0  0  0  0  0  0  0  0
  192.7540  176.4960  138.5020 C   0  0  0  0  0  0  0  0  0  0  0  0
  191.4870  175.8810  136.4350 C   0  0  0  0  0  0  0  0  0  0  0  0
  192.7110  175.7340  137.2490 C   0  0  0  0  0  0  0  0  0  0  0  0
  194.4860  173.0300  135.6840 C   0  0  0  0  0  3  0  0  0  0  0  0
  195.0210  171.8450  135.6440 N   0  0  0  0  0  0  0  0  0  0  0  0
  194.9870  173.1600  138.1410 C   0  0  0  0  0  3  0  0  0  0  0  0
  193.8310  176.6140  139.1570 O   0  0  0  0  0  0  0  0  0  0  0  0
  194.3280  173.7210  136.9610 C   0  0  0  0  0  0  0  0  0  0  0  0
  190.4510  177.1750  138.2960 C   0  0  0  0  0  0  0  0  0  0  0  0
  190.4730  176.9150  136.8100 C   0  0  0  0  0  2  0  0  0  0  0  0
  191.2570  175.1480  135.3540 C   0  0  0  0  0  2  0  0  0  0  0  0
  195.5270  171.9390  138.0810 C   0  0  0  0  0  3  0  0  0  0  0  0
  186.6080  176.5580  136.5140 C   0  0  1  0  0  3  0  0  0  0  0  0
  187.4180  175.2010  134.4730 C   0  0  0  0  0  2  0  0  0  0  0  0
  186.8580  175.2810  137.3190 C   0  0  2  0  0  3  0  0  0  0  0  0
  187.9390  176.3330  137.1910 C   0  0  2  0  0  3  0  0  0  0  0  0
  187.3200  174.0160  136.5660 C   0  0  0  0  0  2  0  0  0  0  0  0
  186.6950  176.4370  134.9860 C   0  0  0  0  0  2  0  0  0  0  0  0
  186.9720  173.9820  135.1330 N   0  0  0  0  0  0  0  0  0  0  0  0
  185.5360  173.7840  134.9360 C   0  0  0  0  0  2  0  0  0  0  0  0
  185.0160  172.7530  135.9080 C   0  0  0  0  0  2  0  0  0  0  0  0
  183.5570  173.0260  136.2000 C   0  0  0  0  0  2  0  0  0  0  0  0
  183.4480  174.1570  137.1940 C   0  0  0  0  0  2  0  0  0  0  0  0
  182.5420  175.2490  136.6430 C   0  0  0  0  0  2  0  0  0  0  0  0
  182.2200  176.2990  137.6990 C   0  0  0  0  0  2  0  0  0  0  0  0
  183.4690  176.7090  138.4620 C   0  0  0  0  0  2  0  0  0  0  0  0
  183.8850  177.9770  138.0600 O   0  0  0  0  0  0  0  0  0  0  0  0
  184.6010  178.4890  139.1400 C   0  0  0  0  0  2  0  0  0  0  0  0
  184.3780  179.9250  139.2280 N   0  0  0  0  0  1  0  0  0  0  0  0
  189.1680  178.2580  140.2340 C   0  0  1  0  0  3  0  0  0  0  0  0
  187.8260  178.3330  140.8100 C   0  0  0  0  0  2  0  0  0  0  0  0
  188.7830  177.3610  141.3290 N   0  0  0  0  0  0  0  0  0  0  0  0
  189.3370  177.9200  142.5600 C   0  0  0  0  0  2  0  0  0  0  0  0
  189.1390  176.9430  143.7090 C   0  0  2  0  0  3  0  0  0  0  0  0
  188.1290  176.0340  143.4210 F   0  0  0  0  0  0  0  0  0  0  0  0
  188.8910  177.6630  144.9990 C   0  0  0  0  0  0  0  0  0  0  0  0
  189.7490  178.4080  145.4420 O   0  0  0  0  0  0  0  0  0  0  0  0
  187.6390  177.4020  145.7920 C   0  0  1  0  0  3  0  0  0  0  0  0
  187.9360  177.4120  147.2790 C   0  0  0  0  0  1  0  0  0  0  0  0
  186.5260  178.4050  145.4630 C   0  0  0  0  0  2  0  0  0  0  0  0
  185.8220  178.0040  144.3220 O   0  0  0  0  0  1  0  0  0  0  0  0
  2  1  2  0  0  0  0
  4  9  2  0  0  0  0
  5  3  1  1  0  0  0
  5 18  1  0  0  0  0
  7  6  1  0  0  0  0
  7 13  2  0  0  0  0
  8 16  1  0  0  0  0
  8  9  1  0  0  0  0
  9  7  1  0  0  0  0
 10 14  1  0  0  0  0
 11 10  2  0  0  0  0
 11  5  1  0  0  0  0
 14  4  2  0  0  0  0
 14 12  1  0  0  0  0
 15  1  1  0  0  0  0
 15  6  2  0  0  0  0
 16 15  1  0  0  0  0
 17  8  2  0  0  0  0
 18 12  2  0  0  0  0
 19 24  1  6  0  0  0
 19 22  1  0  0  0  0
 19 21  1  0  0  0  0
 20 24  1  0  0  0  0
 20 25  1  0  0  0  0
 21 23  1  6  0  0  0
 22 21  1  0  0  0  0
 22  2  1  1  0  0  0
 25 23  1  0  0  0  0
 26 25  1  0  0  0  0
 26 27  1  0  0  0  0
 27 28  1  0  0  0  0
 28 29  1  0  0  0  0
 30 29  1  0  0  0  0
 30 31  1  0  0  0  0
 31 32  1  0  0  0  0
 33 32  1  0  0  0  0
 33 34  1  0  0  0  0
 34 35  1  0  0  0  0
 36  1  1  6  0  0  0
 36 37  1  0  0  0  0
 36 38  1  0  0  0  0
 37 38  1  0  0  0  0
 38 39  1  0  0  0  0
 39 40  1  0  0  0  0
 40 41  1  6  0  0  0
 40 42  1  0  0  0  0
 42 43  2  0  0  0  0
 42 44  1  0  0  0  0
 44 45  1  1  0  0  0
 46 44  1  0  0  0  0
 47 46  1  0  0  0  0
M  END
>  <MODEL>
7

>  <REMARK>
 VINA RESULT:      -7.0      2.442      6.570
  Name = 
  17 active torsions:
  status: ('A' for Active; 'I' for Inactive)
    1  A    between atoms: C_2  and  C_10
    2  A    between atoms: C_2  and  C_13
    3  A    between atoms: C_4  and  C_26
    4  A    between atoms: C_4  and  C_33
    5  A    between atoms: C_9  and  C_17
    6  A    between atoms: C_10  and  C_31
    7  A    between atoms: C_13  and  C_27
    8  A    between atoms: C_17  and  C_34
    9  A    between atoms: C_18  and  C_19
   10  A    between atoms: C_18  and  N_46
   11  A    between atoms: C_19  and  C_27
   12  A    between atoms: C_23  and  O_44
   13  A    between atoms: C_24  and  C_36
   14  A    between atoms: C_26  and  C_36
   15  A    between atoms: N_30  and  C_37
   16  A    between atoms: C_31  and  O_44
   17  A    between atoms: C_33  and  N_40
                            x       y       z     vdW  Elec       q    Type
                         _______ _______ _______ _____ _____    ______ ____

>  <TORSDO>
F 17

$$$$
=
 OpenBabel10232411463D

 47 51  0  0  1  0  0  0  0  0999 V2000
  186.5310  177.3650  137.1590 C   0  0  0  0  0  0  0  0  0  0  0  0
  186.8220  177.9640  138.2840 N   0  0  0  0  0  0  0  0  0  0  0  0
  195.3180  174.7200  138.2560 N   0  0  0  0  0  1  0  0  0  0  0  0
  191.3510  175.2040  135.6830 C   0  0  0  0  0  0  0  0  0  0  0  0
  195.2620  174.5890  136.8090 C   0  0  1  0  0  3  0  0  0  0  0  0
  188.4580  177.3760  135.7170 N   0  0  0  0  0  0  0  0  0  0  0  0
  189.6550  176.8050  135.1660 C   0  0  0  0  0  0  0  0  0  0  0  0
  189.0770  174.6850  136.3610 C   0  0  0  0  0  0  0  0  0  0  0  0
  190.0820  175.4790  135.6250 C   0  0  0  0  0  0  0  0  0  0  0  0
  193.1380  173.6390  136.0540 C   0  0  0  0  0  3  0  0  0  0  0  0
  194.3610  173.4750  136.4660 N   0  0  0  0  0  0  0  0  0  0  0  0
  193.5740  176.0960  135.7760 C   0  0  0  0  0  3  0  0  0  0  0  0
  190.3550  177.4690  134.3470 O   0  0  0  0  0  0  0  0  0  0  0  0
  192.6270  174.9810  135.7920 C   0  0  0  0  0  0  0  0  0  0  0  0
  187.5720  176.6720  136.3720 C   0  0  0  0  0  0  0  0  0  0  0  0
  187.6610  175.1670  136.4260 C   0  0  0  0  0  2  0  0  0  0  0  0
  189.3690  173.5330  136.9500 C   0  0  0  0  0  2  0  0  0  0  0  0
  194.8260  175.9080  136.2080 C   0  0  0  0  0  3  0  0  0  0  0  0
  188.5860  176.6480  139.3650 C   0  0  1  0  0  3  0  0  0  0  0  0
  190.9520  177.5610  139.8450 C   0  0  0  0  0  2  0  0  0  0  0  0
  188.0960  177.7280  140.3310 C   0  0  2  0  0  3  0  0  0  0  0  0
  188.1690  178.0020  138.8440 C   0  0  2  0  0  3  0  0  0  0  0  0
  189.1450  178.6100  141.0400 C   0  0  0  0  0  2  0  0  0  0  0  0
  190.1030  176.4270  139.2900 C   0  0  0  0  0  2  0  0  0  0  0  0
  190.4890  178.0140  141.1500 N   0  0  0  0  0  0  0  0  0  0  0  0
  190.5100  176.9130  142.1140 C   0  0  0  0  0  2  0  0  0  0  0  0
  191.5580  177.1690  143.1700 C   0  0  0  0  0  2  0  0  0  0  0  0
  191.0020  176.8120  144.5300 C   0  0  0  0  0  2  0  0  0  0  0  0
  189.6780  177.5100  144.7290 C   0  0  0  0  0  2  0  0  0  0  0  0
  189.2470  177.4070  146.1840 C   0  0  0  0  0  2  0  0  0  0  0  0
  187.7900  177.8110  146.3710 C   0  0  0  0  0  2  0  0  0  0  0  0
  186.9540  177.4190  145.1640 C   0  0  0  0  0  2  0  0  0  0  0  0
  186.1690  178.4940  144.7510 O   0  0  0  0  0  0  0  0  0  0  0  0
  185.6990  179.0790  145.9260 C   0  0  0  0  0  2  0  0  0  0  0  0
  184.2960  178.7370  146.1060 N   0  0  0  0  0  1  0  0  0  0  0  0
  185.1160  177.3460  136.6700 C   0  0  1  0  0  3  0  0  0  0  0  0
  184.3640  176.2510  137.2790 C   0  0  0  0  0  2  0  0  0  0  0  0
  184.2340  177.6030  137.8140 N   0  0  0  0  0  0  0  0  0  0  0  0
  182.9900  178.1550  137.2840 C   0  0  0  0  0  2  0  0  0  0  0  0
  182.3790  179.1170  138.2920 C   0  0  2  0  0  3  0  0  0  0  0  0
  181.8040  180.2090  137.6530 F   0  0  0  0  0  0  0  0  0  0  0  0
  183.3830  179.5380  139.3210 C   0  0  0  0  0  0  0  0  0  0  0  0
  184.3180  180.2480  138.9890 O   0  0  0  0  0  0  0  0  0  0  0  0
  183.2980  179.0180  140.7300 C   0  0  1  0  0  3  0  0  0  0  0  0
  182.2520  177.9240  140.8340 C   0  0  0  0  0  1  0  0  0  0  0  0
  184.6520  178.5110  141.2440 C   0  0  0  0  0  2  0  0  0  0  0  0
  185.3560  179.5420  141.8780 O   0  0  0  0  0  1  0  0  0  0  0  0
  1  2  2  0  0  0  0
  4 14  2  0  0  0  0
  5  3  1  1  0  0  0
  6 15  2  0  0  0  0
  7  9  1  0  0  0  0
  7  6  1  0  0  0  0
  8 16  1  0  0  0  0
  8 17  2  0  0  0  0
  9  4  2  0  0  0  0
  9  8  1  0  0  0  0
 10 11  2  0  0  0  0
 11  5  1  0  0  0  0
 12 14  1  0  0  0  0
 12 18  2  0  0  0  0
 13  7  2  0  0  0  0
 14 10  1  0  0  0  0
 15 16  1  0  0  0  0
 15  1  1  0  0  0  0
 18  5  1  0  0  0  0
 19 24  1  1  0  0  0
 19 21  1  0  0  0  0
 20 25  1  0  0  0  0
 21 23  1  1  0  0  0
 22  2  1  6  0  0  0
 22 19  1  0  0  0  0
 22 21  1  0  0  0  0
 23 25  1  0  0  0  0
 24 20  1  0  0  0  0
 25 26  1  0  0  0  0
 26 27  1  0  0  0  0
 27 28  1  0  0  0  0
 28 29  1  0  0  0  0
 29 30  1  0  0  0  0
 30 31  1  0  0  0  0
 32 31  1  0  0  0  0
 33 32  1  0  0  0  0
 33 34  1  0  0  0  0
 34 35  1  0  0  0  0
 36  1  1  1  0  0  0
 36 37  1  0  0  0  0
 36 38  1  0  0  0  0
 37 38  1  0  0  0  0
 39 38  1  0  0  0  0
 39 40  1  0  0  0  0
 40 41  1  6  0  0  0
 40 42  1  0  0  0  0
 42 44  1  0  0  0  0
 43 42  2  0  0  0  0
 44 45  1  6  0  0  0
 44 46  1  0  0  0  0
 46 47  1  0  0  0  0
M  END
>  <MODEL>
8

>  <REMARK>
 VINA RESULT:      -7.0      1.933      2.931
  Name = 
  17 active torsions:
  status: ('A' for Active; 'I' for Inactive)
    1  A    between atoms: C_2  and  C_10
    2  A    between atoms: C_2  and  C_13
    3  A    between atoms: C_4  and  C_26
    4  A    between atoms: C_4  and  C_33
    5  A    between atoms: C_9  and  C_17
    6  A    between atoms: C_10  and  C_31
    7  A    between atoms: C_13  and  C_27
    8  A    between atoms: C_17  and  C_34
    9  A    between atoms: C_18  and  C_19
   10  A    between atoms: C_18  and  N_46
   11  A    between atoms: C_19  and  C_27
   12  A    between atoms: C_23  and  O_44
   13  A    between atoms: C_24  and  C_36
   14  A    between atoms: C_26  and  C_36
   15  A    between atoms: N_30  and  C_37
   16  A    between atoms: C_31  and  O_44
   17  A    between atoms: C_33  and  N_40
                            x       y       z     vdW  Elec       q    Type
                         _______ _______ _______ _____ _____    ______ ____

>  <TORSDO>
F 17

$$$$
=
 OpenBabel10232411463D

 47 51  0  0  1  0  0  0  0  0999 V2000
  191.0150  176.8930  138.7470 C   0  0  0  0  0  0  0  0  0  0  0  0
  192.2250  176.4540  138.5180 N   0  0  0  0  0  0  0  0  0  0  0  0
  181.7730  176.8860  138.7280 N   0  0  0  0  0  1  0  0  0  0  0  0
  185.9930  176.2410  136.6390 C   0  0  0  0  0  0  0  0  0  0  0  0
  181.9640  176.1740  137.4740 C   0  0  1  0  0  3  0  0  0  0  0  0
  189.3600  175.4780  137.7220 N   0  0  0  0  0  0  0  0  0  0  0  0
  188.1260  175.2370  137.0290 C   0  0  0  0  0  0  0  0  0  0  0  0
  187.9250  177.7120  136.7260 C   0  0  0  0  0  0  0  0  0  0  0  0
  187.2850  176.3810  136.6610 C   0  0  0  0  0  0  0  0  0  0  0  0
  183.8020  177.1080  136.1590 C   0  0  0  0  0  3  0  0  0  0  0  0
  182.5430  177.0990  136.4850 N   0  0  0  0  0  0  0  0  0  0  0  0
  184.1230  174.9440  137.3910 C   0  0  0  0  0  3  0  0  0  0  0  0
  187.7480  174.0500  136.8000 O   0  0  0  0  0  0  0  0  0  0  0  0
  184.7040  176.0880  136.6890 C   0  0  0  0  0  0  0  0  0  0  0  0
  189.9220  176.6570  137.7800 C   0  0  0  0  0  0  0  0  0  0  0  0
  189.4010  177.8080  136.9570 C   0  0  0  0  0  2  0  0  0  0  0  0
  187.2470  178.8380  136.5540 C   0  0  0  0  0  2  0  0  0  0  0  0
  182.8280  174.9560  137.7210 C   0  0  0  0  0  3  0  0  0  0  0  0
  192.7050  174.2350  137.5930 C   0  0  1  0  0  3  0  0  0  0  0  0
  193.0760  173.7910  135.0780 C   0  0  0  0  0  2  0  0  0  0  0  0
  193.9630  175.1000  137.5100 C   0  0  2  0  0  3  0  0  0  0  0  0
  192.5930  175.7150  137.3150 C   0  0  2  0  0  3  0  0  0  0  0  0
  194.7210  175.1680  136.1680 C   0  0  0  0  0  2  0  0  0  0  0  0
  192.3770  173.3760  136.3640 C   0  0  0  0  0  2  0  0  0  0  0  0
  194.5020  174.0200  135.2700 N   0  0  0  0  0  0  0  0  0  0  0  0
  195.1550  172.8120  135.7750 C   0  0  0  0  0  2  0  0  0  0  0  0
  196.5730  173.1240  136.1880 C   0  0  0  0  0  2  0  0  0  0  0  0
  197.0610  172.0670  137.1540 C   0  0  0  0  0  2  0  0  0  0  0  0
  197.3580  170.7950  136.3960 C   0  0  0  0  0  2  0  0  0  0  0  0
  197.4460  169.6220  137.3610 C   0  0  0  0  0  2  0  0  0  0  0  0
  196.1070  168.9100  137.5070 C   0  0  0  0  0  2  0  0  0  0  0  0
  195.8240  168.5690  138.9610 C   0  0  0  0  0  2  0  0  0  0  0  0
  194.6200  169.1450  139.3650 O   0  0  0  0  0  0  0  0  0  0  0  0
  194.0950  168.2700  140.3140 C   0  0  0  0  0  2  0  0  0  0  0  0
  194.9790  168.2240  141.4690 N   0  0  0  0  0  1  0  0  0  0  0  0
  190.7150  177.6170  140.0220 C   0  0  1  0  0  3  0  0  0  0  0  0
  189.3590  177.3270  140.4850 C   0  0  0  0  0  2  0  0  0  0  0  0
  190.4910  176.6180  141.0730 N   0  0  0  0  0  0  0  0  0  0  0  0
  190.7830  177.2630  142.3500 C   0  0  0  0  0  2  0  0  0  0  0  0
  190.5650  176.2790  143.4900 C   0  0  2  0  0  3  0  0  0  0  0  0
  190.1220  175.0520  143.0120 F   0  0  0  0  0  0  0  0  0  0  0  0
  189.6390  176.8410  144.5250 C   0  0  0  0  0  0  0  0  0  0  0  0
  188.4340  176.7840  144.3430 O   0  0  0  0  0  0  0  0  0  0  0  0
  190.1840  177.5540  145.7320 C   0  0  1  0  0  3  0  0  0  0  0  0
  189.1480  177.6000  146.8390 C   0  0  0  0  0  1  0  0  0  0  0  0
  191.4840  176.9170  146.2430 C   0  0  0  0  0  2  0  0  0  0  0  0
  191.2170  176.0150  147.2800 O   0  0  0  0  0  1  0  0  0  0  0  0
  2  1  2  0  0  0  0
  4  9  2  0  0  0  0
  4 14  2  0  0  0  0
  5 18  1  0  0  0  0
  5  3  1  1  0  0  0
  6 15  2  0  0  0  0
  7  6  1  0  0  0  0
  8 16  1  0  0  0  0
  9  8  1  0  0  0  0
  9  7  1  0  0  0  0
 10 11  2  0  0  0  0
 10 14  1  0  0  0  0
 11  5  1  0  0  0  0
 12 18  2  0  0  0  0
 13  7  2  0  0  0  0
 14 12  1  0  0  0  0
 15  1  1  0  0  0  0
 16 15  1  0  0  0  0
 17  8  2  0  0  0  0
 19 24  1  6  0  0  0
 20 25  1  0  0  0  0
 20 24  1  0  0  0  0
 21 23  1  6  0  0  0
 21 19  1  0  0  0  0
 22 21  1  0  0  0  0
 22 19  1  0  0  0  0
 22  2  1  1  0  0  0
 25 26  1  0  0  0  0
 25 23  1  0  0  0  0
 26 27  1  0  0  0  0
 27 28  1  0  0  0  0
 29 28  1  0  0  0  0
 29 30  1  0  0  0  0
 30 31  1  0  0  0  0
 31 32  1  0  0  0  0
 32 33  1  0  0  0  0
 33 34  1  0  0  0  0
 34 35  1  0  0  0  0
 36  1  1  6  0  0  0
 36 37  1  0  0  0  0
 36 38  1  0  0  0  0
 37 38  1  0  0  0  0
 38 39  1  0  0  0  0
 39 40  1  0  0  0  0
 40 41  1  6  0  0  0
 40 42  1  0  0  0  0
 42 44  1  0  0  0  0
 43 42  2  0  0  0  0
 44 46  1  0  0  0  0
 44 45  1  1  0  0  0
 46 47  1  0  0  0  0
M  END
>  <MODEL>
9

>  <REMARK>
 VINA RESULT:      -7.0      3.182      9.701
  Name = 
  17 active torsions:
  status: ('A' for Active; 'I' for Inactive)
    1  A    between atoms: C_2  and  C_10
    2  A    between atoms: C_2  and  C_13
    3  A    between atoms: C_4  and  C_26
    4  A    between atoms: C_4  and  C_33
    5  A    between atoms: C_9  and  C_17
    6  A    between atoms: C_10  and  C_31
    7  A    between atoms: C_13  and  C_27
    8  A    between atoms: C_17  and  C_34
    9  A    between atoms: C_18  and  C_19
   10  A    between atoms: C_18  and  N_46
   11  A    between atoms: C_19  and  C_27
   12  A    between atoms: C_23  and  O_44
   13  A    between atoms: C_24  and  C_36
   14  A    between atoms: C_26  and  C_36
   15  A    between atoms: N_30  and  C_37
   16  A    between atoms: C_31  and  O_44
   17  A    between atoms: C_33  and  N_40
                            x       y       z     vdW  Elec       q    Type
                         _______ _______ _______ _____ _____    ______ ____

>  <TORSDO>
F 17

$$$$
