=
 OpenBabel10232409443D

 25 28  0  0  0  0  0  0  0  0999 V2000
  187.8150  177.8840  144.3930 C   0  0  0  0  0  0  0  0  0  0  0  0
  190.8290  175.4860  143.4290 C   0  0  0  0  0  2  0  0  0  0  0  0
  186.6700  178.0620  145.1050 C   0  0  0  0  0  0  0  0  0  0  0  0
  189.4150  175.4890  142.8510 C   0  0  0  0  0  2  0  0  0  0  0  0
  189.0310  178.0080  146.4540 C   0  0  0  0  0  0  0  0  0  0  0  0
  189.0500  177.8540  145.0480 C   0  0  0  0  0  0  0  0  0  0  0  0
  190.2400  177.6630  144.3480 O   0  0  0  0  0  0  0  0  0  0  0  0
  190.0620  176.4420  140.6410 C   0  0  0  0  0  3  0  0  0  0  0  0
  188.4070  177.6500  141.9520 C   0  0  0  0  0  0  0  0  0  0  0  0
  187.8380  178.1830  147.1050 N   0  0  0  0  0  0  0  0  0  0  0  0
  186.1720  177.9130  142.9630 C   0  0  0  0  0  3  0  0  0  0  0  0
  189.1050  178.4840  139.7670 C   0  0  0  0  0  0  0  0  0  0  0  0
  191.0120  176.4890  144.5670 C   0  0  0  0  0  2  0  0  0  0  0  0
  188.3180  178.5970  140.9210 C   0  0  0  0  0  3  0  0  0  0  0  0
  184.1780  178.2740  144.5470 C   0  0  0  0  0  1  0  0  0  0  0  0
  185.6190  178.0820  144.2260 C   0  0  0  0  0  0  0  0  0  0  0  0
  187.5200  177.7740  143.0760 N   0  0  0  0  0  0  0  0  0  0  0  0
  189.9740  177.4020  139.6320 C   0  0  0  0  0  3  0  0  0  0  0  0
  186.6720  178.2120  146.4490 N   0  0  0  0  0  0  0  0  0  0  0  0
  190.2930  178.0130  147.2440 C   0  0  0  0  0  1  0  0  0  0  0  0
  189.2890  176.5550  141.8060 C   0  0  0  0  0  0  0  0  0  0  0  0
  189.0280  179.4530  138.7200 N   0  0  0  0  0  2  0  0  0  0  0  0
  189.0380  179.0940  137.3090 C   0  0  0  0  0  2  0  0  0  0  0  0
  187.7390  177.1010  136.5720 C   0  0  0  0  0  1  0  0  0  0  0  0
  187.6720  178.5830  136.8920 C   0  0  0  0  0  2  0  0  0  0  0  0
  1  6  2  0  0  0  0
  1  3  1  0  0  0  0
  2 13  1  0  0  0  0
  3 19  2  0  0  0  0
  4  2  1  0  0  0  0
  5 10  2  0  0  0  0
  5 20  1  0  0  0  0
  6  5  1  0  0  0  0
  7 13  1  0  0  0  0
  7  6  1  0  0  0  0
  8 21  1  0  0  0  0
  9 17  1  0  0  0  0
 11 17  1  0  0  0  0
 11 16  2  0  0  0  0
 12 14  2  0  0  0  0
 14  9  1  0  0  0  0
 16 15  1  0  0  0  0
 16  3  1  0  0  0  0
 17  1  1  0  0  0  0
 18 12  1  0  0  0  0
 18  8  2  0  0  0  0
 19 10  1  0  0  0  0
 21  9  2  0  0  0  0
 21  4  1  0  0  0  0
 22 12  1  0  0  0  0
 23 22  1  0  0  0  0
 24 25  1  0  0  0  0
 25 23  1  0  0  0  0
M  END
>  <MODEL>
1

>  <REMARK>
 VINA RESULT:      -6.9      0.000      0.000
  Name = 
  3 active torsions:
  status: ('A' for Active; 'I' for Inactive)
    1  A    between atoms: C_13  and  N_21
    2  A    between atoms: C_15  and  C_20
    3  A    between atoms: C_15  and  N_21
                            x       y       z     vdW  Elec       q    Type
                         _______ _______ _______ _____ _____    ______ ____

>  <TORSDO>
F 3

$$$$
=
 OpenBabel10232409443D

 25 28  0  0  0  0  0  0  0  0999 V2000
  186.6390  178.2330  144.3340 C   0  0  0  0  0  0  0  0  0  0  0  0
  189.8190  175.8590  144.1920 C   0  0  0  0  0  2  0  0  0  0  0  0
  185.3700  178.4300  144.7830 C   0  0  0  0  0  0  0  0  0  0  0  0
  188.5520  175.7780  143.3420 C   0  0  0  0  0  2  0  0  0  0  0  0
  187.4080  178.5460  146.5820 C   0  0  0  0  0  0  0  0  0  0  0  0
  187.7140  178.2880  145.2260 C   0  0  0  0  0  0  0  0  0  0  0  0
  189.0250  178.0800  144.7990 O   0  0  0  0  0  0  0  0  0  0  0  0
  189.6240  176.5820  141.2400 C   0  0  0  0  0  3  0  0  0  0  0  0
  187.7200  177.8350  142.0900 C   0  0  0  0  0  0  0  0  0  0  0  0
  186.1050  178.7330  146.9630 N   0  0  0  0  0  0  0  0  0  0  0  0
  185.3220  178.1070  142.6040 C   0  0  0  0  0  3  0  0  0  0  0  0
  188.8380  178.5250  140.0330 C   0  0  0  0  0  0  0  0  0  0  0  0
  189.7520  176.9490  145.2610 C   0  0  0  0  0  2  0  0  0  0  0  0
  187.8300  178.7000  140.9910 C   0  0  0  0  0  3  0  0  0  0  0  0
  183.0420  178.5260  143.7180 C   0  0  0  0  0  1  0  0  0  0  0  0
  184.5200  178.3530  143.7120 C   0  0  0  0  0  0  0  0  0  0  0  0
  186.6200  178.0160  142.9970 N   0  0  0  0  0  0  0  0  0  0  0  0
  189.7310  177.4610  140.1620 C   0  0  0  0  0  3  0  0  0  0  0  0
  185.0960  178.6790  146.0840 N   0  0  0  0  0  0  0  0  0  0  0  0
  188.4820  178.6460  147.6090 C   0  0  0  0  0  1  0  0  0  0  0  0
  188.6280  176.7580  142.2120 C   0  0  0  0  0  0  0  0  0  0  0  0
  188.9620  179.4100  138.9180 N   0  0  0  0  0  2  0  0  0  0  0  0
  189.0110  178.9430  137.5400 C   0  0  0  0  0  2  0  0  0  0  0  0
  187.5190  177.0110  137.0520 C   0  0  0  0  0  1  0  0  0  0  0  0
  187.6260  178.5240  137.0840 C   0  0  0  0  0  2  0  0  0  0  0  0
  1  3  2  0  0  0  0
  1  6  1  0  0  0  0
  2 13  1  0  0  0  0
  3 19  1  0  0  0  0
  4  2  1  0  0  0  0
  5 10  1  0  0  0  0
  5 20  1  0  0  0  0
  6  5  2  0  0  0  0
  7  6  1  0  0  0  0
  7 13  1  0  0  0  0
  8 21  1  0  0  0  0
  9 21  2  0  0  0  0
  9 17  1  0  0  0  0
 11 17  1  0  0  0  0
 11 16  2  0  0  0  0
 12 18  1  0  0  0  0
 12 14  2  0  0  0  0
 14  9  1  0  0  0  0
 16 15  1  0  0  0  0
 16  3  1  0  0  0  0
 17  1  1  0  0  0  0
 18  8  2  0  0  0  0
 19 10  2  0  0  0  0
 21  4  1  0  0  0  0
 22 12  1  0  0  0  0
 23 22  1  0  0  0  0
 24 25  1  0  0  0  0
 25 23  1  0  0  0  0
M  END
>  <MODEL>
2

>  <REMARK>
 VINA RESULT:      -6.5      1.006      1.159
  Name = 
  3 active torsions:
  status: ('A' for Active; 'I' for Inactive)
    1  A    between atoms: C_13  and  N_21
    2  A    between atoms: C_15  and  C_20
    3  A    between atoms: C_15  and  N_21
                            x       y       z     vdW  Elec       q    Type
                         _______ _______ _______ _____ _____    ______ ____

>  <TORSDO>
F 3

$$$$
=
 OpenBabel10232409443D

 25 28  0  0  0  0  0  0  0  0999 V2000
  188.8840  176.4020  138.1390 C   0  0  0  0  0  0  0  0  0  0  0  0
  192.8370  176.4370  138.4960 C   0  0  0  0  0  2  0  0  0  0  0  0
  187.7920  176.7480  137.4040 C   0  0  0  0  0  0  0  0  0  0  0  0
  191.8580  177.5600  138.8340 C   0  0  0  0  0  2  0  0  0  0  0  0
  189.3980  174.7600  136.4720 C   0  0  0  0  0  0  0  0  0  0  0  0
  189.7320  175.3830  137.6970 C   0  0  0  0  0  0  0  0  0  0  0  0
  190.8640  175.0130  138.4210 O   0  0  0  0  0  0  0  0  0  0  0  0
  192.0910  177.3460  141.3060 C   0  0  0  0  0  3  0  0  0  0  0  0
  189.8650  177.1030  140.3550 C   0  0  0  0  0  0  0  0  0  0  0  0
  188.2820  175.1610  135.7850 N   0  0  0  0  0  0  0  0  0  0  0  0
  187.8490  177.9770  139.2330 C   0  0  0  0  0  3  0  0  0  0  0  0
  190.2080  176.9250  142.7640 C   0  0  0  0  0  0  0  0  0  0  0  0
  192.1590  175.2200  137.8720 C   0  0  0  0  0  2  0  0  0  0  0  0
  189.3590  176.9170  141.6490 C   0  0  0  0  0  3  0  0  0  0  0  0
  185.8630  178.4140  137.6590 C   0  0  0  0  0  1  0  0  0  0  0  0
  187.1240  177.7400  138.0710 C   0  0  0  0  0  0  0  0  0  0  0  0
  188.9380  177.1630  139.2580 N   0  0  0  0  0  0  0  0  0  0  0  0
  191.5740  177.1430  142.5860 C   0  0  0  0  0  3  0  0  0  0  0  0
  187.4860  176.1370  136.2360 N   0  0  0  0  0  0  0  0  0  0  0  0
  190.2240  173.6490  135.9230 C   0  0  0  0  0  1  0  0  0  0  0  0
  191.2510  177.3240  140.1830 C   0  0  0  0  0  0  0  0  0  0  0  0
  189.6990  176.7240  144.0840 N   0  0  0  0  0  2  0  0  0  0  0  0
  189.6770  177.7760  145.0920 C   0  0  0  0  0  2  0  0  0  0  0  0
  187.2300  177.3830  144.8510 C   0  0  0  0  0  1  0  0  0  0  0  0
  188.3390  177.7830  145.8060 C   0  0  0  0  0  2  0  0  0  0  0  0
  1 17  1  0  0  0  0
  2  4  1  0  0  0  0
  3 16  1  0  0  0  0
  3  1  2  0  0  0  0
  4 21  1  0  0  0  0
  5  6  2  0  0  0  0
  6  1  1  0  0  0  0
  6  7  1  0  0  0  0
  8 18  1  0  0  0  0
  9 14  2  0  0  0  0
 10 19  2  0  0  0  0
 10  5  1  0  0  0  0
 11 17  1  0  0  0  0
 12 22  1  0  0  0  0
 13  7  1  0  0  0  0
 13  2  1  0  0  0  0
 14 12  1  0  0  0  0
 15 16  1  0  0  0  0
 16 11  2  0  0  0  0
 17  9  1  0  0  0  0
 18 12  2  0  0  0  0
 19  3  1  0  0  0  0
 20  5  1  0  0  0  0
 21  9  1  0  0  0  0
 21  8  2  0  0  0  0
 22 23  1  0  0  0  0
 23 25  1  0  0  0  0
 24 25  1  0  0  0  0
M  END
>  <MODEL>
3

>  <REMARK>
 VINA RESULT:      -6.4      2.783      7.027
  Name = 
  3 active torsions:
  status: ('A' for Active; 'I' for Inactive)
    1  A    between atoms: C_13  and  N_21
    2  A    between atoms: C_15  and  C_20
    3  A    between atoms: C_15  and  N_21
                            x       y       z     vdW  Elec       q    Type
                         _______ _______ _______ _____ _____    ______ ____

>  <TORSDO>
F 3

$$$$
=
 OpenBabel10232409443D

 25 28  0  0  0  0  0  0  0  0999 V2000
  185.3370  178.6170  140.4640 C   0  0  0  0  0  0  0  0  0  0  0  0
  184.9210  176.8230  136.9470 C   0  0  0  0  0  2  0  0  0  0  0  0
  185.6870  178.5120  141.7740 C   0  0  0  0  0  0  0  0  0  0  0  0
  183.9510  176.8030  138.1270 C   0  0  0  0  0  2  0  0  0  0  0  0
  187.6570  178.4130  139.9010 C   0  0  0  0  0  0  0  0  0  0  0  0
  186.3190  178.5750  139.4710 C   0  0  0  0  0  0  0  0  0  0  0  0
  185.9920  178.6690  138.1190 O   0  0  0  0  0  0  0  0  0  0  0  0
  182.2500  178.2820  137.0630 C   0  0  0  0  0  3  0  0  0  0  0  0
  183.1900  178.9900  139.1920 C   0  0  0  0  0  0  0  0  0  0  0  0
  187.9350  178.3140  141.2390 N   0  0  0  0  0  0  0  0  0  0  0  0
  183.5050  178.7860  141.6300 C   0  0  0  0  0  3  0  0  0  0  0  0
  181.5080  180.3530  138.0670 C   0  0  0  0  0  0  0  0  0  0  0  0
  186.2200  177.5650  137.2540 C   0  0  0  0  0  2  0  0  0  0  0  0
  182.3690  180.1260  139.1490 C   0  0  0  0  0  3  0  0  0  0  0  0
  184.4460  178.5760  144.0150 C   0  0  0  0  0  1  0  0  0  0  0  0
  184.5490  178.6130  142.5310 C   0  0  0  0  0  0  0  0  0  0  0  0
  183.9950  178.7690  140.3620 N   0  0  0  0  0  0  0  0  0  0  0  0
  181.4510  179.4250  137.0280 C   0  0  0  0  0  3  0  0  0  0  0  0
  186.9730  178.3620  142.1680 N   0  0  0  0  0  0  0  0  0  0  0  0
  188.7810  178.3770  138.9250 C   0  0  0  0  0  1  0  0  0  0  0  0
  183.1260  178.0530  138.1350 C   0  0  0  0  0  0  0  0  0  0  0  0
  180.6770  181.5150  138.0130 N   0  0  0  0  0  2  0  0  0  0  0  0
  181.1990  182.8480  137.7490 C   0  0  0  0  0  2  0  0  0  0  0  0
  181.1070  184.7870  136.1890 C   0  0  0  0  0  1  0  0  0  0  0  0
  180.7220  183.3340  136.3930 C   0  0  0  0  0  2  0  0  0  0  0  0
  1  3  1  0  0  0  0
  2 13  1  0  0  0  0
  2  4  1  0  0  0  0
  3 19  2  0  0  0  0
  3 16  1  0  0  0  0
  4 21  1  0  0  0  0
  5 10  2  0  0  0  0
  6  5  1  0  0  0  0
  6  1  2  0  0  0  0
  7  6  1  0  0  0  0
  8 21  1  0  0  0  0
  9 17  1  0  0  0  0
 10 19  1  0  0  0  0
 11 16  2  0  0  0  0
 12 14  2  0  0  0  0
 13  7  1  0  0  0  0
 14  9  1  0  0  0  0
 16 15  1  0  0  0  0
 17  1  1  0  0  0  0
 17 11  1  0  0  0  0
 18  8  2  0  0  0  0
 18 12  1  0  0  0  0
 20  5  1  0  0  0  0
 21  9  2  0  0  0  0
 22 12  1  0  0  0  0
 23 22  1  0  0  0  0
 24 25  1  0  0  0  0
 25 23  1  0  0  0  0
M  END
>  <MODEL>
4

>  <REMARK>
 VINA RESULT:      -6.2      4.994      7.005
  Name = 
  3 active torsions:
  status: ('A' for Active; 'I' for Inactive)
    1  A    between atoms: C_13  and  N_21
    2  A    between atoms: C_15  and  C_20
    3  A    between atoms: C_15  and  N_21
                            x       y       z     vdW  Elec       q    Type
                         _______ _______ _______ _____ _____    ______ ____

>  <TORSDO>
F 3

$$$$
=
 OpenBabel10232409443D

 25 28  0  0  0  0  0  0  0  0999 V2000
  188.6220  175.6540  137.2580 C   0  0  0  0  0  0  0  0  0  0  0  0
  192.5770  175.6660  137.6010 C   0  0  0  0  0  2  0  0  0  0  0  0
  187.5360  175.8500  136.4620 C   0  0  0  0  0  0  0  0  0  0  0  0
  191.6290  176.8620  137.6710 C   0  0  0  0  0  2  0  0  0  0  0  0
  189.0860  173.6610  136.0110 C   0  0  0  0  0  0  0  0  0  0  0  0
  189.4420  174.5390  137.0610 C   0  0  0  0  0  0  0  0  0  0  0  0
  190.5680  174.3150  137.8520 O   0  0  0  0  0  0  0  0  0  0  0  0
  191.8690  177.2130  140.1270 C   0  0  0  0  0  3  0  0  0  0  0  0
  189.6330  176.8170  139.2550 C   0  0  0  0  0  0  0  0  0  0  0  0
  187.9770  173.9230  135.2500 N   0  0  0  0  0  0  0  0  0  0  0  0
  187.6340  177.4630  137.9610 C   0  0  0  0  0  3  0  0  0  0  0  0
  189.9830  177.1870  141.6420 C   0  0  0  0  0  0  0  0  0  0  0  0
  191.8640  174.3570  137.2710 C   0  0  0  0  0  2  0  0  0  0  0  0
  189.1290  176.9460  140.5570 C   0  0  0  0  0  3  0  0  0  0  0  0
  185.6510  177.5800  136.3270 C   0  0  0  0  0  1  0  0  0  0  0  0
  186.8970  176.9870  136.8840 C   0  0  0  0  0  0  0  0  0  0  0  0
  188.7020  176.6490  138.1730 N   0  0  0  0  0  0  0  0  0  0  0  0
  191.3540  177.3230  141.4190 C   0  0  0  0  0  3  0  0  0  0  0  0
  187.2080  174.9970  135.4650 N   0  0  0  0  0  0  0  0  0  0  0  0
  189.8800  172.4330  135.7320 C   0  0  0  0  0  1  0  0  0  0  0  0
  191.0230  176.9570  139.0380 C   0  0  0  0  0  0  0  0  0  0  0  0
  189.4770  177.3070  142.9720 N   0  0  0  0  0  2  0  0  0  0  0  0
  188.3300  176.5490  143.4530 C   0  0  0  0  0  2  0  0  0  0  0  0
  188.8610  177.7840  145.5490 C   0  0  0  0  0  1  0  0  0  0  0  0
  187.7510  177.2110  144.6890 C   0  0  0  0  0  2  0  0  0  0  0  0
  1 17  1  0  0  0  0
  2  4  1  0  0  0  0
  3 16  1  0  0  0  0
  3  1  2  0  0  0  0
  4 21  1  0  0  0  0
  5  6  2  0  0  0  0
  6  1  1  0  0  0  0
  6  7  1  0  0  0  0
  8 18  1  0  0  0  0
  9 14  2  0  0  0  0
 10 19  2  0  0  0  0
 10  5  1  0  0  0  0
 11 17  1  0  0  0  0
 12 22  1  0  0  0  0
 13  2  1  0  0  0  0
 13  7  1  0  0  0  0
 14 12  1  0  0  0  0
 15 16  1  0  0  0  0
 16 11  2  0  0  0  0
 17  9  1  0  0  0  0
 18 12  2  0  0  0  0
 19  3  1  0  0  0  0
 20  5  1  0  0  0  0
 21  9  1  0  0  0  0
 21  8  2  0  0  0  0
 22 23  1  0  0  0  0
 23 25  1  0  0  0  0
 25 24  1  0  0  0  0
M  END
>  <MODEL>
5

>  <REMARK>
 VINA RESULT:      -6.0      3.228      7.507
  Name = 
  3 active torsions:
  status: ('A' for Active; 'I' for Inactive)
    1  A    between atoms: C_13  and  N_21
    2  A    between atoms: C_15  and  C_20
    3  A    between atoms: C_15  and  N_21
                            x       y       z     vdW  Elec       q    Type
                         _______ _______ _______ _____ _____    ______ ____

>  <TORSDO>
F 3

$$$$
=
 OpenBabel10232409443D

 25 28  0  0  0  0  0  0  0  0999 V2000
  187.1210  178.0150  142.3880 C   0  0  0  0  0  0  0  0  0  0  0  0
  184.7450  179.5600  145.1670 C   0  0  0  0  0  2  0  0  0  0  0  0
  188.3060  178.0800  141.7220 C   0  0  0  0  0  0  0  0  0  0  0  0
  184.9290  180.0340  143.7270 C   0  0  0  0  0  2  0  0  0  0  0  0
  188.3310  177.2860  144.3240 C   0  0  0  0  0  0  0  0  0  0  0  0
  187.0910  177.6080  143.7250 C   0  0  0  0  0  0  0  0  0  0  0  0
  185.8940  177.5410  144.4380 O   0  0  0  0  0  0  0  0  0  0  0  0
  182.7120  179.2290  142.9240 C   0  0  0  0  0  3  0  0  0  0  0  0
  184.6960  178.3830  141.8000 C   0  0  0  0  0  0  0  0  0  0  0  0
  189.4850  177.3760  143.5910 N   0  0  0  0  0  0  0  0  0  0  0  0
  186.6750  178.6390  140.3490 C   0  0  0  0  0  3  0  0  0  0  0  0
  182.4720  177.6720  141.0880 C   0  0  0  0  0  0  0  0  0  0  0  0
  185.6760  178.4090  145.5420 C   0  0  0  0  0  2  0  0  0  0  0  0
  183.8660  177.6410  140.9460 C   0  0  0  0  0  3  0  0  0  0  0  0
  189.0390  178.6590  139.3370 C   0  0  0  0  0  1  0  0  0  0  0  0
  188.0520  178.4740  140.4350 C   0  0  0  0  0  0  0  0  0  0  0  0
  186.1130  178.3730  141.5580 N   0  0  0  0  0  0  0  0  0  0  0  0
  181.9000  178.4720  142.0780 C   0  0  0  0  0  3  0  0  0  0  0  0
  189.4830  177.7640  142.3100 N   0  0  0  0  0  0  0  0  0  0  0  0
  188.4060  176.8220  145.7360 C   0  0  0  0  0  1  0  0  0  0  0  0
  184.1080  179.1910  142.8000 C   0  0  0  0  0  0  0  0  0  0  0  0
  181.6230  176.9090  140.2290 N   0  0  0  0  0  2  0  0  0  0  0  0
  181.5670  177.1120  138.7880 C   0  0  0  0  0  2  0  0  0  0  0  0
  181.8720  179.4430  137.9680 C   0  0  0  0  0  1  0  0  0  0  0  0
  180.8700  178.4220  138.4740 C   0  0  0  0  0  2  0  0  0  0  0  0
  1  6  1  0  0  0  0
  2 13  1  0  0  0  0
  3 19  1  0  0  0  0
  3  1  2  0  0  0  0
  4  2  1  0  0  0  0
  5 20  1  0  0  0  0
  6  5  2  0  0  0  0
  6  7  1  0  0  0  0
  7 13  1  0  0  0  0
  9 21  2  0  0  0  0
 10  5  1  0  0  0  0
 11 16  2  0  0  0  0
 11 17  1  0  0  0  0
 12 18  1  0  0  0  0
 14 12  2  0  0  0  0
 14  9  1  0  0  0  0
 15 16  1  0  0  0  0
 16  3  1  0  0  0  0
 17  9  1  0  0  0  0
 17  1  1  0  0  0  0
 18  8  2  0  0  0  0
 19 10  2  0  0  0  0
 21  8  1  0  0  0  0
 21  4  1  0  0  0  0
 22 12  1  0  0  0  0
 23 22  1  0  0  0  0
 24 25  1  0  0  0  0
 25 23  1  0  0  0  0
M  END
>  <MODEL>
6

>  <REMARK>
 VINA RESULT:      -5.9      3.253      5.599
  Name = 
  3 active torsions:
  status: ('A' for Active; 'I' for Inactive)
    1  A    between atoms: C_13  and  N_21
    2  A    between atoms: C_15  and  C_20
    3  A    between atoms: C_15  and  N_21
                            x       y       z     vdW  Elec       q    Type
                         _______ _______ _______ _____ _____    ______ ____

>  <TORSDO>
F 3

$$$$
=
 OpenBabel10232409443D

 25 28  0  0  0  0  0  0  0  0999 V2000
  191.3110  176.4310  138.3830 C   0  0  0  0  0  0  0  0  0  0  0  0
  187.9420  178.3540  139.2240 C   0  0  0  0  0  2  0  0  0  0  0  0
  192.6250  176.5090  138.0380 C   0  0  0  0  0  0  0  0  0  0  0  0
  188.5190  178.0380  137.8450 C   0  0  0  0  0  2  0  0  0  0  0  0
  191.9070  177.2410  140.5580 C   0  0  0  0  0  0  0  0  0  0  0  0
  190.9020  176.7940  139.6690 C   0  0  0  0  0  0  0  0  0  0  0  0
  189.5620  176.7350  140.0500 O   0  0  0  0  0  0  0  0  0  0  0  0
  186.8430  176.2830  137.2800 C   0  0  0  0  0  3  0  0  0  0  0  0
  189.1920  175.6510  137.2580 C   0  0  0  0  0  0  0  0  0  0  0  0
  193.2110  177.2950  140.1410 N   0  0  0  0  0  0  0  0  0  0  0  0
  191.4770  175.7230  136.3290 C   0  0  0  0  0  3  0  0  0  0  0  0
  187.4660  174.0170  136.7080 C   0  0  0  0  0  0  0  0  0  0  0  0
  188.8600  177.9290  140.3680 C   0  0  0  0  0  2  0  0  0  0  0  0
  188.8160  174.3570  136.8710 C   0  0  0  0  0  3  0  0  0  0  0  0
  194.0100  175.9580  135.9550 C   0  0  0  0  0  1  0  0  0  0  0  0
  192.7560  176.0710  136.7470 C   0  0  0  0  0  0  0  0  0  0  0  0
  190.5930  175.9650  137.3340 N   0  0  0  0  0  0  0  0  0  0  0  0
  186.4840  174.9860  136.9110 C   0  0  0  0  0  3  0  0  0  0  0  0
  193.5740  176.9360  138.9030 N   0  0  0  0  0  0  0  0  0  0  0  0
  191.5790  177.6310  141.9570 C   0  0  0  0  0  1  0  0  0  0  0  0
  188.1900  176.6280  137.4610 C   0  0  0  0  0  0  0  0  0  0  0  0
  187.0760  172.6960  136.3260 N   0  0  0  0  0  2  0  0  0  0  0  0
  186.0600  172.4320  135.3160 C   0  0  0  0  0  2  0  0  0  0  0  0
  184.2000  172.0920  136.9350 C   0  0  0  0  0  1  0  0  0  0  0  0
  185.0400  171.4450  135.8510 C   0  0  0  0  0  2  0  0  0  0  0  0
  1  6  1  0  0  0  0
  2 13  1  0  0  0  0
  3  1  2  0  0  0  0
  3 19  1  0  0  0  0
  4  2  1  0  0  0  0
  5 20  1  0  0  0  0
  6  7  1  0  0  0  0
  6  5  2  0  0  0  0
  7 13  1  0  0  0  0
  8 21  1  0  0  0  0
  9 17  1  0  0  0  0
  9 21  2  0  0  0  0
 10  5  1  0  0  0  0
 11 16  2  0  0  0  0
 11 17  1  0  0  0  0
 12 14  2  0  0  0  0
 12 18  1  0  0  0  0
 14  9  1  0  0  0  0
 15 16  1  0  0  0  0
 16  3  1  0  0  0  0
 17  1  1  0  0  0  0
 18  8  2  0  0  0  0
 19 10  2  0  0  0  0
 21  4  1  0  0  0  0
 22 12  1  0  0  0  0
 23 25  1  0  0  0  0
 23 22  1  0  0  0  0
 25 24  1  0  0  0  0
M  END
>  <MODEL>
7

>  <REMARK>
 VINA RESULT:      -5.6      4.371      7.264
  Name = 
  3 active torsions:
  status: ('A' for Active; 'I' for Inactive)
    1  A    between atoms: C_13  and  N_21
    2  A    between atoms: C_15  and  C_20
    3  A    between atoms: C_15  and  N_21
                            x       y       z     vdW  Elec       q    Type
                         _______ _______ _______ _____ _____    ______ ____

>  <TORSDO>
F 3

$$$$
=
 OpenBabel10232409443D

 25 28  0  0  0  0  0  0  0  0999 V2000
  188.9920  177.8940  143.4420 C   0  0  0  0  0  0  0  0  0  0  0  0
  185.7550  178.9150  141.3840 C   0  0  0  0  0  2  0  0  0  0  0  0
  189.8890  178.2200  144.4110 C   0  0  0  0  0  0  0  0  0  0  0  0
  187.1950  179.3660  141.1460 C   0  0  0  0  0  2  0  0  0  0  0  0
  187.3630  177.5520  145.1650 C   0  0  0  0  0  0  0  0  0  0  0  0
  187.6850  177.5410  143.7880 C   0  0  0  0  0  0  0  0  0  0  0  0
  186.7390  177.2110  142.8180 O   0  0  0  0  0  0  0  0  0  0  0  0
  187.5290  178.0180  139.0770 C   0  0  0  0  0  3  0  0  0  0  0  0
  189.0560  177.6390  140.9330 C   0  0  0  0  0  0  0  0  0  0  0  0
  188.3190  177.8930  146.0860 N   0  0  0  0  0  0  0  0  0  0  0  0
  190.8830  178.3150  142.4460 C   0  0  0  0  0  3  0  0  0  0  0  0
  189.2990  176.3840  138.8540 C   0  0  0  0  0  0  0  0  0  0  0  0
  185.6000  178.0400  142.6260 C   0  0  0  0  0  2  0  0  0  0  0  0
  189.7290  176.6870  140.1530 C   0  0  0  0  0  3  0  0  0  0  0  0
  192.3660  178.8730  144.4720 C   0  0  0  0  0  1  0  0  0  0  0  0
  191.0900  178.4930  143.8090 C   0  0  0  0  0  0  0  0  0  0  0  0
  189.5880  177.9650  142.2280 N   0  0  0  0  0  0  0  0  0  0  0  0
  188.1990  177.0560  138.3200 C   0  0  0  0  0  3  0  0  0  0  0  0
  189.5650  178.2220  145.7240 N   0  0  0  0  0  0  0  0  0  0  0  0
  186.0040  177.1720  145.6410 C   0  0  0  0  0  1  0  0  0  0  0  0
  187.9430  178.3160  140.3840 C   0  0  0  0  0  0  0  0  0  0  0  0
  189.9730  175.4060  138.0600 N   0  0  0  0  0  2  0  0  0  0  0  0
  191.0270  175.7450  137.1140 C   0  0  0  0  0  2  0  0  0  0  0  0
  193.0630  176.5030  138.3310 C   0  0  0  0  0  1  0  0  0  0  0  0
  192.3760  175.3250  137.6670 C   0  0  0  0  0  2  0  0  0  0  0  0
  1  6  2  0  0  0  0
  1  3  1  0  0  0  0
  2 13  1  0  0  0  0
  3 19  2  0  0  0  0
  4  2  1  0  0  0  0
  5 20  1  0  0  0  0
  5 10  2  0  0  0  0
  6  5  1  0  0  0  0
  7  6  1  0  0  0  0
  8 21  1  0  0  0  0
  9 17  1  0  0  0  0
 11 16  2  0  0  0  0
 12 14  2  0  0  0  0
 13  7  1  0  0  0  0
 14  9  1  0  0  0  0
 16  3  1  0  0  0  0
 16 15  1  0  0  0  0
 17 11  1  0  0  0  0
 17  1  1  0  0  0  0
 18 12  1  0  0  0  0
 18  8  2  0  0  0  0
 19 10  1  0  0  0  0
 21  9  2  0  0  0  0
 21  4  1  0  0  0  0
 22 12  1  0  0  0  0
 23 25  1  0  0  0  0
 23 22  1  0  0  0  0
 25 24  1  0  0  0  0
M  END
>  <MODEL>
8

>  <REMARK>
 VINA RESULT:      -5.6      2.204      4.136
  Name = 
  3 active torsions:
  status: ('A' for Active; 'I' for Inactive)
    1  A    between atoms: C_13  and  N_21
    2  A    between atoms: C_15  and  C_20
    3  A    between atoms: C_15  and  N_21
                            x       y       z     vdW  Elec       q    Type
                         _______ _______ _______ _____ _____    ______ ____

>  <TORSDO>
F 3

$$$$
=
 OpenBabel10232409443D

 25 28  0  0  0  0  0  0  0  0999 V2000
  186.2640  177.3710  137.9850 C   0  0  0  0  0  0  0  0  0  0  0  0
  189.9510  177.0910  136.5400 C   0  0  0  0  0  2  0  0  0  0  0  0
  185.0150  177.8940  137.8550 C   0  0  0  0  0  0  0  0  0  0  0  0
  189.3650  178.2130  137.3960 C   0  0  0  0  0  2  0  0  0  0  0  0
  185.7940  175.9680  136.1000 C   0  0  0  0  0  0  0  0  0  0  0  0
  186.7010  176.3770  137.1050 C   0  0  0  0  0  0  0  0  0  0  0  0
  187.9790  175.8280  137.2040 O   0  0  0  0  0  0  0  0  0  0  0  0
  190.6180  177.6140  139.4650 C   0  0  0  0  0  3  0  0  0  0  0  0
  188.1890  177.6640  139.5890 C   0  0  0  0  0  0  0  0  0  0  0  0
  184.5510  176.5400  136.0300 N   0  0  0  0  0  0  0  0  0  0  0  0
  186.0130  178.8280  139.5840 C   0  0  0  0  0  3  0  0  0  0  0  0
  189.5170  177.1050  141.5580 C   0  0  0  0  0  0  0  0  0  0  0  0
  188.9220  176.0290  136.1600 C   0  0  0  0  0  2  0  0  0  0  0  0
  188.2750  177.3200  140.9450 C   0  0  0  0  0  3  0  0  0  0  0  0
  183.6130  179.6270  139.1190 C   0  0  0  0  0  1  0  0  0  0  0  0
  184.8330  178.8180  138.8510 C   0  0  0  0  0  0  0  0  0  0  0  0
  186.8940  177.9500  139.0340 N   0  0  0  0  0  0  0  0  0  0  0  0
  190.6860  177.2560  140.8120 C   0  0  0  0  0  3  0  0  0  0  0  0
  184.1580  177.4880  136.8900 N   0  0  0  0  0  0  0  0  0  0  0  0
  186.1530  174.9000  135.1260 C   0  0  0  0  0  1  0  0  0  0  0  0
  189.3790  177.8180  138.8400 C   0  0  0  0  0  0  0  0  0  0  0  0
  189.6100  176.7420  142.9370 N   0  0  0  0  0  2  0  0  0  0  0  0
  189.3440  177.6780  144.0200 C   0  0  0  0  0  2  0  0  0  0  0  0
  191.2420  179.2880  143.9850 C   0  0  0  0  0  1  0  0  0  0  0  0
  190.6450  178.0840  144.6870 C   0  0  0  0  0  2  0  0  0  0  0  0
  1 17  1  0  0  0  0
  2  4  1  0  0  0  0
  3  1  1  0  0  0  0
  3 16  1  0  0  0  0
  4 21  1  0  0  0  0
  5  6  1  0  0  0  0
  6  7  1  0  0  0  0
  6  1  2  0  0  0  0
  8 18  1  0  0  0  0
  9 14  2  0  0  0  0
 10  5  2  0  0  0  0
 10 19  1  0  0  0  0
 12 22  1  0  0  0  0
 13  2  1  0  0  0  0
 13  7  1  0  0  0  0
 14 12  1  0  0  0  0
 16 15  1  0  0  0  0
 16 11  2  0  0  0  0
 17 11  1  0  0  0  0
 17  9  1  0  0  0  0
 18 12  2  0  0  0  0
 19  3  2  0  0  0  0
 20  5  1  0  0  0  0
 21  8  2  0  0  0  0
 21  9  1  0  0  0  0
 22 23  1  0  0  0  0
 23 25  1  0  0  0  0
 24 25  1  0  0  0  0
M  END
>  <MODEL>
9

>  <REMARK>
 VINA RESULT:      -5.6      3.071      7.087
  Name = 
  3 active torsions:
  status: ('A' for Active; 'I' for Inactive)
    1  A    between atoms: C_13  and  N_21
    2  A    between atoms: C_15  and  C_20
    3  A    between atoms: C_15  and  N_21
                            x       y       z     vdW  Elec       q    Type
                         _______ _______ _______ _____ _____    ______ ____

>  <TORSDO>
F 3

$$$$
