=
 OpenBabel10232412483D

 40 44  0  0  1  0  0  0  0  0999 V2000
  184.8970  179.0320  145.1570 C   0  0  0  0  0  3  0  0  0  0  0  0
  185.6780  178.2290  144.4010 C   0  0  0  0  0  0  0  0  0  0  0  0
  187.7380  176.6840  144.1300 C   0  0  0  0  0  1  0  0  0  0  0  0
  186.4120  178.6860  147.0910 C   0  0  0  0  0  0  0  0  0  0  0  0
  185.1460  179.3280  146.6230 C   0  0  0  0  0  2  0  0  0  0  0  0
  186.9520  178.7620  148.3000 C   0  0  0  0  0  3  0  0  0  0  0  0
  188.1730  177.9330  148.2930 C   0  0  0  0  0  3  0  0  0  0  0  0
  186.8930  177.5810  144.9750 C   0  0  0  0  0  0  0  0  0  0  0  0
  187.2070  177.8280  146.2490 C   0  0  0  0  0  0  0  0  0  0  0  0
  188.3190  177.3910  147.0850 C   0  0  0  0  0  0  0  0  0  0  0  0
  183.5680  177.8800  141.2140 C   0  0  0  0  0  2  0  0  0  0  0  0
  184.1840  178.9910  140.4760 N   0  0  0  0  0  0  0  0  0  0  0  0
  185.6390  178.8360  140.6140 C   0  0  0  0  0  2  0  0  0  0  0  0
  186.0530  179.0510  142.0660 C   0  0  0  0  0  2  0  0  0  0  0  0
  185.3470  178.0230  142.9520 C   0  0  2  0  0  3  0  0  0  0  0  0
  183.8380  178.0290  142.7080 C   0  0  0  0  0  2  0  0  0  0  0  0
  183.8180  178.8800  139.0520 C   0  0  1  0  0  3  0  0  0  0  0  0
  181.7490  179.7680  138.0230 C   0  0  0  0  0  2  0  0  0  0  0  0
  183.0720  180.1310  138.5820 C   0  0  1  0  0  3  0  0  0  0  0  0
  181.8860  180.2730  139.3290 O   0  0  0  0  0  0  0  0  0  0  0  0
  185.0670  178.7410  138.1750 C   0  0  0  0  0  2  0  0  0  0  0  0
  184.0150  176.5740  137.8210 N   0  0  0  0  0  1  0  0  0  0  0  0
  184.9630  177.5260  137.2700 C   0  0  0  0  0  2  0  0  0  0  0  0
  189.4190  176.4560  146.7070 C   0  0  0  0  0  2  0  0  0  0  0  0
  190.7490  176.9310  147.2760 C   0  0  0  0  0  2  0  0  0  0  0  0
  191.9090  176.5370  146.3720 C   0  0  0  0  0  2  0  0  0  0  0  0
  191.4160  175.6910  144.0670 C   0  0  0  0  0  3  0  0  0  0  0  0
  191.1220  175.9170  142.7180 C   0  0  0  0  0  3  0  0  0  0  0  0
  191.1360  178.3040  143.1130 C   0  0  0  0  0  3  0  0  0  0  0  0
  190.9790  177.2240  142.2330 C   0  0  0  0  0  0  0  0  0  0  0  0
  191.5680  176.7720  144.9390 C   0  0  0  0  0  0  0  0  0  0  0  0
  191.4320  178.0800  144.4600 C   0  0  0  0  0  3  0  0  0  0  0  0
  190.6770  177.4560  140.8100 C   0  0  0  0  0  0  0  0  0  0  0  0
  191.5670  177.2580  139.9370 O   0  0  0  0  0  0  0  0  0  0  0  0
  189.4030  177.8950  140.4340 O   0  0  0  0  0  0  0  0  0  0  0  0
  188.7300  177.3920  139.2860 C   0  0  0  0  0  2  0  0  0  0  0  0
  189.2010  178.1100  138.0290 C   0  0  2  0  0  3  0  0  0  0  0  0
  188.8110  179.4470  138.0750 O   0  0  0  0  0  1  0  0  0  0  0  0
  188.6470  177.4470  136.7750 C   0  0  0  0  0  2  0  0  0  0  0  0
  189.6000  177.4470  135.7540 O   0  0  0  0  0  1  0  0  0  0  0  0
  1  5  1  0  0  0  0
  2  8  1  0  0  0  0
  2  1  2  0  0  0  0
  3  8  1  0  0  0  0
  4  6  2  0  0  0  0
  5  4  1  0  0  0  0
  7  6  1  0  0  0  0
  8  9  2  0  0  0  0
  9 10  1  0  0  0  0
  9  4  1  0  0  0  0
 10  7  2  0  0  0  0
 11 16  1  0  0  0  0
 12 13  1  0  0  0  0
 12 11  1  0  0  0  0
 13 14  1  0  0  0  0
 14 15  1  0  0  0  0
 15  2  1  1  0  0  0
 16 15  1  0  0  0  0
 17 21  1  6  0  0  0
 17 12  1  0  0  0  0
 18 19  1  0  0  0  0
 18 20  1  0  0  0  0
 19 17  1  1  0  0  0
 19 20  1  0  0  0  0
 23 22  1  0  0  0  0
 23 21  1  0  0  0  0
 24 10  1  0  0  0  0
 24 25  1  0  0  0  0
 26 25  1  0  0  0  0
 27 31  1  0  0  0  0
 28 27  2  0  0  0  0
 29 32  1  0  0  0  0
 30 28  1  0  0  0  0
 30 29  2  0  0  0  0
 31 26  1  0  0  0  0
 32 31  2  0  0  0  0
 33 30  1  0  0  0  0
 34 33  2  0  0  0  0
 35 33  1  0  0  0  0
 36 35  1  0  0  0  0
 37 38  1  1  0  0  0
 37 36  1  0  0  0  0
 39 37  1  0  0  0  0
 40 39  1  0  0  0  0
M  END
>  <MODEL>
1

>  <REMARK>
 VINA RESULT:      -8.5      0.000      0.000
  Name = 
  14 active torsions:
  status: ('A' for Active; 'I' for Inactive)
    1  A    between atoms: C_1  and  C_24
    2  A    between atoms: C_1  and  C_35
    3  A    between atoms: O_2  and  C_12
    4  A    between atoms: O_2  and  C_25
    5  A    between atoms: N_7  and  C_32
    6  A    between atoms: C_9  and  C_39
    7  A    between atoms: C_12  and  C_17
    8  A    between atoms: C_13  and  C_15
    9  A    between atoms: C_17  and  C_19
   10  A    between atoms: C_21  and  C_32
   11  A    between atoms: C_23  and  C_24
   12  A    between atoms: C_23  and  C_40
   13  A    between atoms: C_25  and  C_34
   14  A    between atoms: C_32  and  C_39
                            x       y       z     vdW  Elec       q    Type
                         _______ _______ _______ _____ _____    ______ ____

>  <TORSDO>
F 14

$$$$
=
 OpenBabel10232412483D

 40 44  0  0  1  0  0  0  0  0999 V2000
  184.5400  178.9760  144.6700 C   0  0  0  0  0  3  0  0  0  0  0  0
  185.3750  178.2360  143.9060 C   0  0  0  0  0  0  0  0  0  0  0  0
  187.5260  176.8220  143.6270 C   0  0  0  0  0  1  0  0  0  0  0  0
  186.0540  178.6790  146.6130 C   0  0  0  0  0  0  0  0  0  0  0  0
  184.7560  179.2550  146.1440 C   0  0  0  0  0  2  0  0  0  0  0  0
  186.5760  178.7610  147.8290 C   0  0  0  0  0  3  0  0  0  0  0  0
  187.8430  178.0060  147.8190 C   0  0  0  0  0  3  0  0  0  0  0  0
  186.6200  177.6490  144.4800 C   0  0  0  0  0  0  0  0  0  0  0  0
  186.9060  177.8870  145.7620 C   0  0  0  0  0  0  0  0  0  0  0  0
  188.0330  177.4990  146.6010 C   0  0  0  0  0  0  0  0  0  0  0  0
  183.3220  177.8410  140.6880 C   0  0  0  0  0  2  0  0  0  0  0  0
  183.8870  178.9960  139.9780 N   0  0  0  0  0  0  0  0  0  0  0  0
  185.3460  178.9160  140.1310 C   0  0  0  0  0  2  0  0  0  0  0  0
  185.7320  179.1230  141.5920 C   0  0  0  0  0  2  0  0  0  0  0  0
  185.0720  178.0420  142.4490 C   0  0  2  0  0  3  0  0  0  0  0  0
  183.5670  177.9730  142.1870 C   0  0  0  0  0  2  0  0  0  0  0  0
  183.5430  178.8940  138.5480 C   0  0  1  0  0  3  0  0  0  0  0  0
  183.6820  177.2870  136.6700 C   0  0  0  0  0  2  0  0  0  0  0  0
  183.4170  177.4310  138.1200 C   0  0  1  0  0  3  0  0  0  0  0  0
  184.6590  176.9790  137.6340 O   0  0  0  0  0  0  0  0  0  0  0  0
  182.1970  179.5690  138.2600 C   0  0  0  0  0  2  0  0  0  0  0  0
  180.9020  181.6180  138.4970 N   0  0  0  0  0  1  0  0  0  0  0  0
  182.2040  181.0140  138.7250 C   0  0  0  0  0  2  0  0  0  0  0  0
  189.1910  176.6380  146.2170 C   0  0  0  0  0  2  0  0  0  0  0  0
  190.4450  177.0520  146.9760 C   0  0  0  0  0  2  0  0  0  0  0  0
  191.6670  177.0450  146.0680 C   0  0  0  0  0  2  0  0  0  0  0  0
  191.1620  175.8390  143.9320 C   0  0  0  0  0  3  0  0  0  0  0  0
  190.8070  175.8440  142.5800 C   0  0  0  0  0  3  0  0  0  0  0  0
  190.6540  178.2590  142.6270 C   0  0  0  0  0  3  0  0  0  0  0  0
  190.5490  177.0530  141.9190 C   0  0  0  0  0  0  0  0  0  0  0  0
  191.2620  177.0440  144.6330 C   0  0  0  0  0  0  0  0  0  0  0  0
  191.0110  178.2550  143.9780 C   0  0  0  0  0  3  0  0  0  0  0  0
  190.1840  177.0540  140.4920 C   0  0  0  0  0  0  0  0  0  0  0  0
  190.6490  176.1680  139.7220 O   0  0  0  0  0  0  0  0  0  0  0  0
  189.3200  178.0370  139.9980 O   0  0  0  0  0  0  0  0  0  0  0  0
  188.5780  177.8680  138.7960 C   0  0  0  0  0  2  0  0  0  0  0  0
  189.3030  178.5090  137.6220 C   0  0  2  0  0  3  0  0  0  0  0  0
  188.7780  179.7770  137.3780 O   0  0  0  0  0  1  0  0  0  0  0  0
  189.1930  177.6490  136.3700 C   0  0  0  0  0  2  0  0  0  0  0  0
  188.3400  176.5650  136.5900 O   0  0  0  0  0  1  0  0  0  0  0  0
  1  5  1  0  0  0  0
  2  8  1  0  0  0  0
  2  1  2  0  0  0  0
  3  8  1  0  0  0  0
  4  6  2  0  0  0  0
  5  4  1  0  0  0  0
  7  6  1  0  0  0  0
  8  9  2  0  0  0  0
  9 10  1  0  0  0  0
  9  4  1  0  0  0  0
 10  7  2  0  0  0  0
 11 16  1  0  0  0  0
 12 13  1  0  0  0  0
 12 11  1  0  0  0  0
 13 14  1  0  0  0  0
 14 15  1  0  0  0  0
 15  2  1  1  0  0  0
 16 15  1  0  0  0  0
 17 21  1  1  0  0  0
 17 12  1  0  0  0  0
 18 20  1  0  0  0  0
 18 19  1  0  0  0  0
 19 17  1  6  0  0  0
 20 19  1  0  0  0  0
 21 23  1  0  0  0  0
 22 23  1  0  0  0  0
 24 10  1  0  0  0  0
 24 25  1  0  0  0  0
 26 25  1  0  0  0  0
 27 31  1  0  0  0  0
 28 27  2  0  0  0  0
 29 32  1  0  0  0  0
 30 28  1  0  0  0  0
 30 29  2  0  0  0  0
 31 26  1  0  0  0  0
 32 31  2  0  0  0  0
 33 30  1  0  0  0  0
 34 33  2  0  0  0  0
 35 33  1  0  0  0  0
 36 35  1  0  0  0  0
 37 38  1  6  0  0  0
 37 36  1  0  0  0  0
 39 40  1  0  0  0  0
 39 37  1  0  0  0  0
M  END
>  <MODEL>
2

>  <REMARK>
 VINA RESULT:      -8.2      1.287      1.756
  Name = 
  14 active torsions:
  status: ('A' for Active; 'I' for Inactive)
    1  A    between atoms: C_1  and  C_24
    2  A    between atoms: C_1  and  C_35
    3  A    between atoms: O_2  and  C_12
    4  A    between atoms: O_2  and  C_25
    5  A    between atoms: N_7  and  C_32
    6  A    between atoms: C_9  and  C_39
    7  A    between atoms: C_12  and  C_17
    8  A    between atoms: C_13  and  C_15
    9  A    between atoms: C_17  and  C_19
   10  A    between atoms: C_21  and  C_32
   11  A    between atoms: C_23  and  C_24
   12  A    between atoms: C_23  and  C_40
   13  A    between atoms: C_25  and  C_34
   14  A    between atoms: C_32  and  C_39
                            x       y       z     vdW  Elec       q    Type
                         _______ _______ _______ _____ _____    ______ ____

>  <TORSDO>
F 14

$$$$
=
 OpenBabel10232412483D

 40 44  0  0  1  0  0  0  0  0999 V2000
  185.2070  178.8400  146.3830 C   0  0  0  0  0  3  0  0  0  0  0  0
  185.6280  178.1330  145.3100 C   0  0  0  0  0  0  0  0  0  0  0  0
  187.4400  176.7450  144.0880 C   0  0  0  0  0  1  0  0  0  0  0  0
  187.4050  178.4880  147.4780 C   0  0  0  0  0  0  0  0  0  0  0  0
  186.0370  179.0700  147.6300 C   0  0  0  0  0  2  0  0  0  0  0  0
  188.3990  178.5330  148.3540 C   0  0  0  0  0  3  0  0  0  0  0  0
  189.5340  177.7880  147.7760 C   0  0  0  0  0  3  0  0  0  0  0  0
  186.9940  177.5360  145.2740 C   0  0  0  0  0  0  0  0  0  0  0  0
  187.8040  177.7320  146.3170 C   0  0  0  0  0  0  0  0  0  0  0  0
  189.1800  177.3250  146.5780 C   0  0  0  0  0  0  0  0  0  0  0  0
  182.6240  178.6950  142.9900 C   0  0  0  0  0  2  0  0  0  0  0  0
  183.3890  179.1450  141.8200 N   0  0  0  0  0  0  0  0  0  0  0  0
  184.4960  178.1950  141.6460 C   0  0  0  0  0  2  0  0  0  0  0  0
  185.4660  178.3010  142.8180 C   0  0  0  0  0  2  0  0  0  0  0  0
  184.7270  177.9860  144.1190 C   0  0  2  0  0  3  0  0  0  0  0  0
  183.4640  178.8360  144.2540 C   0  0  0  0  0  2  0  0  0  0  0  0
  182.5190  179.0990  140.6310 C   0  0  1  0  0  3  0  0  0  0  0  0
  182.9380  180.3080  138.5120 C   0  0  0  0  0  2  0  0  0  0  0  0
  183.3480  179.1550  139.3460 C   0  0  1  0  0  3  0  0  0  0  0  0
  184.0880  180.3530  139.3210 O   0  0  0  0  0  0  0  0  0  0  0  0
  181.7120  177.7960  140.5940 C   0  0  0  0  0  2  0  0  0  0  0  0
  180.6150  176.9430  138.5950 N   0  0  0  0  0  1  0  0  0  0  0  0
  181.8950  177.0820  139.2670 C   0  0  0  0  0  2  0  0  0  0  0  0
  190.0530  176.4860  145.7050 C   0  0  0  0  0  2  0  0  0  0  0  0
  191.2480  177.2890  145.2080 C   0  0  0  0  0  2  0  0  0  0  0  0
  190.8060  178.4400  144.3150 C   0  0  0  0  0  2  0  0  0  0  0  0
  191.8090  177.5890  142.1830 C   0  0  0  0  0  3  0  0  0  0  0  0
  191.6880  177.1950  140.8470 C   0  0  0  0  0  3  0  0  0  0  0  0
  189.3050  177.6080  140.9390 C   0  0  0  0  0  3  0  0  0  0  0  0
  190.4360  177.2000  140.2170 C   0  0  0  0  0  0  0  0  0  0  0  0
  190.6770  177.9920  142.8980 C   0  0  0  0  0  0  0  0  0  0  0  0
  189.4260  178.0050  142.2730 C   0  0  0  0  0  3  0  0  0  0  0  0
  190.3150  176.7920  138.8070 C   0  0  0  0  0  0  0  0  0  0  0  0
  190.2490  175.5670  138.5090 O   0  0  0  0  0  0  0  0  0  0  0  0
  190.2740  177.7660  137.8040 O   0  0  0  0  0  0  0  0  0  0  0  0
  189.0850  178.4760  137.4770 C   0  0  0  0  0  2  0  0  0  0  0  0
  188.0090  177.5220  136.9780 C   0  0  2  0  0  3  0  0  0  0  0  0
  187.7220  177.7910  135.6410 O   0  0  0  0  0  1  0  0  0  0  0  0
  186.7430  177.6340  137.8170 C   0  0  0  0  0  2  0  0  0  0  0  0
  186.8560  178.6710  138.7450 O   0  0  0  0  0  1  0  0  0  0  0  0
  1  5  1  0  0  0  0
  2  1  2  0  0  0  0
  3  8  1  0  0  0  0
  4  5  1  0  0  0  0
  4  6  2  0  0  0  0
  7  6  1  0  0  0  0
  8  2  1  0  0  0  0
  8  9  2  0  0  0  0
  9 10  1  0  0  0  0
  9  4  1  0  0  0  0
 10  7  2  0  0  0  0
 11 16  1  0  0  0  0
 12 11  1  0  0  0  0
 13 12  1  0  0  0  0
 13 14  1  0  0  0  0
 14 15  1  0  0  0  0
 15 16  1  0  0  0  0
 15  2  1  1  0  0  0
 17 21  1  6  0  0  0
 17 12  1  0  0  0  0
 18 20  1  0  0  0  0
 18 19  1  0  0  0  0
 19 17  1  1  0  0  0
 20 19  1  0  0  0  0
 22 23  1  0  0  0  0
 23 21  1  0  0  0  0
 24 10  1  0  0  0  0
 25 24  1  0  0  0  0
 26 25  1  0  0  0  0
 27 31  1  0  0  0  0
 28 27  2  0  0  0  0
 29 32  1  0  0  0  0
 30 28  1  0  0  0  0
 30 29  2  0  0  0  0
 31 26  1  0  0  0  0
 32 31  2  0  0  0  0
 33 30  1  0  0  0  0
 34 33  2  0  0  0  0
 35 33  1  0  0  0  0
 36 35  1  0  0  0  0
 37 38  1  6  0  0  0
 37 36  1  0  0  0  0
 37 39  1  0  0  0  0
 39 40  1  0  0  0  0
M  END
>  <MODEL>
3

>  <REMARK>
 VINA RESULT:      -8.1      1.459      2.232
  Name = 
  14 active torsions:
  status: ('A' for Active; 'I' for Inactive)
    1  A    between atoms: C_1  and  C_24
    2  A    between atoms: C_1  and  C_35
    3  A    between atoms: O_2  and  C_12
    4  A    between atoms: O_2  and  C_25
    5  A    between atoms: N_7  and  C_32
    6  A    between atoms: C_9  and  C_39
    7  A    between atoms: C_12  and  C_17
    8  A    between atoms: C_13  and  C_15
    9  A    between atoms: C_17  and  C_19
   10  A    between atoms: C_21  and  C_32
   11  A    between atoms: C_23  and  C_24
   12  A    between atoms: C_23  and  C_40
   13  A    between atoms: C_25  and  C_34
   14  A    between atoms: C_32  and  C_39
                            x       y       z     vdW  Elec       q    Type
                         _______ _______ _______ _____ _____    ______ ____

>  <TORSDO>
F 14

$$$$
=
 OpenBabel10232412483D

 40 44  0  0  1  0  0  0  0  0999 V2000
  191.0260  177.4730  142.5510 C   0  0  0  0  0  3  0  0  0  0  0  0
  189.7240  177.3440  142.2110 C   0  0  0  0  0  0  0  0  0  0  0  0
  187.2200  177.2160  142.8610 C   0  0  0  0  0  1  0  0  0  0  0  0
  190.3900  177.5820  144.9470 C   0  0  0  0  0  0  0  0  0  0  0  0
  191.5210  177.6540  143.9720 C   0  0  0  0  0  2  0  0  0  0  0  0
  190.4620  177.6650  146.2680 C   0  0  0  0  0  3  0  0  0  0  0  0
  189.0860  177.5830  146.7930 C   0  0  0  0  0  3  0  0  0  0  0  0
  188.6560  177.3450  143.2530 C   0  0  0  0  0  0  0  0  0  0  0  0
  189.0150  177.4540  144.5340 C   0  0  0  0  0  0  0  0  0  0  0  0
  188.2420  177.4540  145.7700 C   0  0  0  0  0  0  0  0  0  0  0  0
  188.5940  178.2080  138.6470 C   0  0  0  0  0  2  0  0  0  0  0  0
  189.7920  177.7090  137.9590 N   0  0  0  0  0  0  0  0  0  0  0  0
  190.0770  176.3800  138.5150 C   0  0  0  0  0  2  0  0  0  0  0  0
  190.4850  176.5010  139.9800 C   0  0  0  0  0  2  0  0  0  0  0  0
  189.3480  177.1490  140.7710 C   0  0  2  0  0  3  0  0  0  0  0  0
  188.8990  178.4570  140.1200 C   0  0  0  0  0  2  0  0  0  0  0  0
  189.4990  177.5790  136.5200 C   0  0  1  0  0  3  0  0  0  0  0  0
  190.6440  176.4630  134.6300 C   0  0  0  0  0  2  0  0  0  0  0  0
  190.0440  176.2600  135.9690 C   0  0  1  0  0  3  0  0  0  0  0  0
  191.4360  176.3700  135.7890 O   0  0  0  0  0  0  0  0  0  0  0  0
  187.9880  177.5870  136.2670 C   0  0  0  0  0  2  0  0  0  0  0  0
  186.6320  175.6660  136.9020 N   0  0  0  0  0  1  0  0  0  0  0  0
  187.4970  176.2060  135.8680 C   0  0  0  0  0  2  0  0  0  0  0  0
  186.7560  177.3810  145.9060 C   0  0  0  0  0  2  0  0  0  0  0  0
  186.1300  178.7560  145.7130 C   0  0  0  0  0  2  0  0  0  0  0  0
  184.6320  178.7230  145.9780 C   0  0  0  0  0  2  0  0  0  0  0  0
  182.4680  178.8010  144.7210 C   0  0  0  0  0  3  0  0  0  0  0  0
  181.7520  178.8290  143.5200 C   0  0  0  0  0  3  0  0  0  0  0  0
  183.8290  178.8100  142.2790 C   0  0  0  0  0  3  0  0  0  0  0  0
  182.4270  178.8350  142.2920 C   0  0  0  0  0  0  0  0  0  0  0  0
  183.8650  178.7790  144.7010 C   0  0  0  0  0  0  0  0  0  0  0  0
  184.5450  178.7800  143.4780 C   0  0  0  0  0  3  0  0  0  0  0  0
  181.6680  178.8550  141.0300 C   0  0  0  0  0  0  0  0  0  0  0  0
  180.6590  179.6060  140.9130 O   0  0  0  0  0  0  0  0  0  0  0  0
  182.0700  178.0420  139.9650 O   0  0  0  0  0  0  0  0  0  0  0  0
  182.3250  178.5570  138.6640 C   0  0  0  0  0  2  0  0  0  0  0  0
  183.6520  178.0370  138.1300 C   0  0  2  0  0  3  0  0  0  0  0  0
  183.7300  176.6590  138.3210 O   0  0  0  0  0  1  0  0  0  0  0  0
  184.8270  178.7260  138.8110 C   0  0  0  0  0  2  0  0  0  0  0  0
  184.5330  180.0670  139.0650 O   0  0  0  0  0  1  0  0  0  0  0  0
  1  5  1  0  0  0  0
  2  1  2  0  0  0  0
  2  8  1  0  0  0  0
  3  8  1  0  0  0  0
  4  6  2  0  0  0  0
  5  4  1  0  0  0  0
  6  7  1  0  0  0  0
  8  9  2  0  0  0  0
  9  4  1  0  0  0  0
  9 10  1  0  0  0  0
 10 24  1  0  0  0  0
 10  7  2  0  0  0  0
 11 16  1  0  0  0  0
 12 13  1  0  0  0  0
 12 11  1  0  0  0  0
 13 14  1  0  0  0  0
 14 15  1  0  0  0  0
 15  2  1  1  0  0  0
 16 15  1  0  0  0  0
 17 21  1  1  0  0  0
 17 12  1  0  0  0  0
 18 20  1  0  0  0  0
 18 19  1  0  0  0  0
 19 17  1  1  0  0  0
 20 19  1  0  0  0  0
 23 21  1  0  0  0  0
 23 22  1  0  0  0  0
 25 24  1  0  0  0  0
 25 26  1  0  0  0  0
 28 27  2  0  0  0  0
 29 30  2  0  0  0  0
 29 32  1  0  0  0  0
 30 28  1  0  0  0  0
 31 27  1  0  0  0  0
 31 26  1  0  0  0  0
 32 31  2  0  0  0  0
 33 30  1  0  0  0  0
 34 33  2  0  0  0  0
 35 33  1  0  0  0  0
 36 35  1  0  0  0  0
 37 38  1  1  0  0  0
 37 36  1  0  0  0  0
 37 39  1  0  0  0  0
 39 40  1  0  0  0  0
M  END
>  <MODEL>
4

>  <REMARK>
 VINA RESULT:      -7.8      2.099      6.489
  Name = 
  14 active torsions:
  status: ('A' for Active; 'I' for Inactive)
    1  A    between atoms: C_1  and  C_24
    2  A    between atoms: C_1  and  C_35
    3  A    between atoms: O_2  and  C_12
    4  A    between atoms: O_2  and  C_25
    5  A    between atoms: N_7  and  C_32
    6  A    between atoms: C_9  and  C_39
    7  A    between atoms: C_12  and  C_17
    8  A    between atoms: C_13  and  C_15
    9  A    between atoms: C_17  and  C_19
   10  A    between atoms: C_21  and  C_32
   11  A    between atoms: C_23  and  C_24
   12  A    between atoms: C_23  and  C_40
   13  A    between atoms: C_25  and  C_34
   14  A    between atoms: C_32  and  C_39
                            x       y       z     vdW  Elec       q    Type
                         _______ _______ _______ _____ _____    ______ ____

>  <TORSDO>
F 14

$$$$
=
 OpenBabel10232412483D

 40 44  0  0  1  0  0  0  0  0999 V2000
  191.4740  177.4440  144.1900 C   0  0  0  0  0  3  0  0  0  0  0  0
  190.3470  177.5160  143.4470 C   0  0  0  0  0  0  0  0  0  0  0  0
  187.7650  177.6010  143.2600 C   0  0  0  0  0  1  0  0  0  0  0  0
  190.1060  177.3110  146.2550 C   0  0  0  0  0  0  0  0  0  0  0  0
  191.4940  177.3760  145.7040 C   0  0  0  0  0  2  0  0  0  0  0  0
  189.7520  177.2100  147.5290 C   0  0  0  0  0  3  0  0  0  0  0  0
  188.2770  177.2230  147.5810 C   0  0  0  0  0  3  0  0  0  0  0  0
  189.0020  177.5060  144.0930 C   0  0  0  0  0  0  0  0  0  0  0  0
  188.9330  177.4020  145.4220 C   0  0  0  0  0  0  0  0  0  0  0  0
  187.8030  177.3310  146.3410 C   0  0  0  0  0  0  0  0  0  0  0  0
  191.8980  177.3010  139.9440 C   0  0  0  0  0  2  0  0  0  0  0  0
  191.0210  176.2410  139.4300 N   0  0  0  0  0  0  0  0  0  0  0  0
  189.6460  176.6200  139.7840 C   0  0  0  0  0  2  0  0  0  0  0  0
  189.4660  176.5810  141.2980 C   0  0  0  0  0  2  0  0  0  0  0  0
  190.4450  177.5580  141.9500 C   0  0  2  0  0  3  0  0  0  0  0  0
  191.8740  177.3100  141.4680 C   0  0  0  0  0  2  0  0  0  0  0  0
  191.1460  176.1860  137.9620 C   0  0  1  0  0  3  0  0  0  0  0  0
  189.9100  176.8010  135.9070 C   0  0  0  0  0  2  0  0  0  0  0  0
  190.2190  177.2060  137.2970 C   0  0  1  0  0  3  0  0  0  0  0  0
  189.0040  176.5810  136.9600 O   0  0  0  0  0  0  0  0  0  0  0  0
  192.5760  176.5170  137.5220 C   0  0  0  0  0  2  0  0  0  0  0  0
  194.5850  175.3120  138.1880 N   0  0  0  0  0  1  0  0  0  0  0  0
  193.3980  175.2520  137.3530 C   0  0  0  0  0  2  0  0  0  0  0  0
  186.3530  177.4170  145.9960 C   0  0  0  0  0  2  0  0  0  0  0  0
  185.8560  178.8520  146.1170 C   0  0  0  0  0  2  0  0  0  0  0  0
  184.3350  178.9090  146.1320 C   0  0  0  0  0  2  0  0  0  0  0  0
  182.4060  178.8320  144.5360 C   0  0  0  0  0  3  0  0  0  0  0  0
  181.8980  178.7620  143.2360 C   0  0  0  0  0  3  0  0  0  0  0  0
  184.1510  178.7470  142.3540 C   0  0  0  0  0  3  0  0  0  0  0  0
  182.7660  178.7200  142.1360 C   0  0  0  0  0  0  0  0  0  0  0  0
  183.7880  178.8610  144.7460 C   0  0  0  0  0  0  0  0  0  0  0  0
  184.6600  178.8150  143.6530 C   0  0  0  0  0  3  0  0  0  0  0  0
  182.2260  178.6380  140.7690 C   0  0  0  0  0  0  0  0  0  0  0  0
  181.3190  179.4350  140.4000 O   0  0  0  0  0  0  0  0  0  0  0  0
  182.7220  177.6760  139.8830 O   0  0  0  0  0  0  0  0  0  0  0  0
  183.3990  178.0200  138.6810 C   0  0  0  0  0  2  0  0  0  0  0  0
  184.7910  178.5580  138.9820 C   0  0  2  0  0  3  0  0  0  0  0  0
  184.7840  179.9500  138.9160 O   0  0  0  0  0  1  0  0  0  0  0  0
  185.8210  177.9940  138.0130 C   0  0  0  0  0  2  0  0  0  0  0  0
  186.7060  178.9920  137.5980 O   0  0  0  0  0  1  0  0  0  0  0  0
  1  5  1  0  0  0  0
  2  8  1  0  0  0  0
  2  1  2  0  0  0  0
  3  8  1  0  0  0  0
  4  6  2  0  0  0  0
  5  4  1  0  0  0  0
  6  7  1  0  0  0  0
  8  9  2  0  0  0  0
  9  4  1  0  0  0  0
  9 10  1  0  0  0  0
 10  7  2  0  0  0  0
 11 16  1  0  0  0  0
 12 13  1  0  0  0  0
 12 11  1  0  0  0  0
 13 14  1  0  0  0  0
 14 15  1  0  0  0  0
 15  2  1  1  0  0  0
 16 15  1  0  0  0  0
 17 21  1  1  0  0  0
 17 12  1  0  0  0  0
 18 20  1  0  0  0  0
 18 19  1  0  0  0  0
 19 17  1  1  0  0  0
 20 19  1  0  0  0  0
 23 21  1  0  0  0  0
 23 22  1  0  0  0  0
 24 25  1  0  0  0  0
 24 10  1  0  0  0  0
 25 26  1  0  0  0  0
 27 31  1  0  0  0  0
 28 27  2  0  0  0  0
 29 32  1  0  0  0  0
 30 29  2  0  0  0  0
 30 28  1  0  0  0  0
 31 26  1  0  0  0  0
 32 31  2  0  0  0  0
 33 30  1  0  0  0  0
 34 33  2  0  0  0  0
 35 33  1  0  0  0  0
 36 37  1  0  0  0  0
 36 35  1  0  0  0  0
 37 38  1  6  0  0  0
 39 37  1  0  0  0  0
 40 39  1  0  0  0  0
M  END
>  <MODEL>
5

>  <REMARK>
 VINA RESULT:      -7.8      2.685      6.666
  Name = 
  14 active torsions:
  status: ('A' for Active; 'I' for Inactive)
    1  A    between atoms: C_1  and  C_24
    2  A    between atoms: C_1  and  C_35
    3  A    between atoms: O_2  and  C_12
    4  A    between atoms: O_2  and  C_25
    5  A    between atoms: N_7  and  C_32
    6  A    between atoms: C_9  and  C_39
    7  A    between atoms: C_12  and  C_17
    8  A    between atoms: C_13  and  C_15
    9  A    between atoms: C_17  and  C_19
   10  A    between atoms: C_21  and  C_32
   11  A    between atoms: C_23  and  C_24
   12  A    between atoms: C_23  and  C_40
   13  A    between atoms: C_25  and  C_34
   14  A    between atoms: C_32  and  C_39
                            x       y       z     vdW  Elec       q    Type
                         _______ _______ _______ _____ _____    ______ ____

>  <TORSDO>
F 14

$$$$
=
 OpenBabel10232412483D

 40 44  0  0  1  0  0  0  0  0999 V2000
  185.4660  178.7720  146.5670 C   0  0  0  0  0  3  0  0  0  0  0  0
  185.8400  178.0910  145.4610 C   0  0  0  0  0  0  0  0  0  0  0  0
  187.5970  176.7320  144.1290 C   0  0  0  0  0  1  0  0  0  0  0  0
  187.7080  178.3910  147.5600 C   0  0  0  0  0  0  0  0  0  0  0  0
  186.3480  178.9700  147.7840 C   0  0  0  0  0  2  0  0  0  0  0  0
  188.7370  178.4130  148.3950 C   0  0  0  0  0  3  0  0  0  0  0  0
  189.8460  177.6810  147.7510 C   0  0  0  0  0  3  0  0  0  0  0  0
  187.2030  177.4940  145.3520 C   0  0  0  0  0  0  0  0  0  0  0  0
  188.0560  177.6630  146.3650 C   0  0  0  0  0  0  0  0  0  0  0  0
  189.4400  177.2480  146.5580 C   0  0  0  0  0  0  0  0  0  0  0  0
  182.7880  178.7790  143.2380 C   0  0  0  0  0  2  0  0  0  0  0  0
  183.5340  179.1700  142.0350 N   0  0  0  0  0  0  0  0  0  0  0  0
  184.5810  178.1590  141.8380 C   0  0  0  0  0  2  0  0  0  0  0  0
  185.5980  178.2300  142.9730 C   0  0  0  0  0  2  0  0  0  0  0  0
  184.8910  177.9750  144.3040 C   0  0  2  0  0  3  0  0  0  0  0  0
  183.6800  178.8930  144.4700 C   0  0  0  0  0  2  0  0  0  0  0  0
  182.6190  179.1520  140.8790 C   0  0  1  0  0  3  0  0  0  0  0  0
  182.9270  180.1170  138.6190 C   0  0  0  0  0  2  0  0  0  0  0  0
  183.4020  179.0810  139.5660 C   0  0  1  0  0  3  0  0  0  0  0  0
  184.1020  180.2880  139.3750 O   0  0  0  0  0  0  0  0  0  0  0  0
  181.7010  177.9260  140.9260 C   0  0  0  0  0  2  0  0  0  0  0  0
  180.6690  176.3310  139.4020 N   0  0  0  0  0  1  0  0  0  0  0  0
  181.8930  177.0550  139.6980 C   0  0  0  0  0  2  0  0  0  0  0  0
  190.2750  176.4300  145.6290 C   0  0  0  0  0  2  0  0  0  0  0  0
  191.4070  177.2660  145.0450 C   0  0  0  0  0  2  0  0  0  0  0  0
  190.8670  178.4360  144.2350 C   0  0  0  0  0  2  0  0  0  0  0  0
  191.7010  177.5630  142.0410 C   0  0  0  0  0  3  0  0  0  0  0  0
  191.4890  177.2160  140.7040 C   0  0  0  0  0  3  0  0  0  0  0  0
  189.1570  177.8250  140.9130 C   0  0  0  0  0  3  0  0  0  0  0  0
  190.2160  177.3440  140.1310 C   0  0  0  0  0  0  0  0  0  0  0  0
  190.6400  178.0400  142.8160 C   0  0  0  0  0  0  0  0  0  0  0  0
  189.3680  178.1740  142.2490 C   0  0  0  0  0  3  0  0  0  0  0  0
  190.0010  176.9850  138.7190 C   0  0  0  0  0  0  0  0  0  0  0  0
  188.8870  176.5180  138.3500 O   0  0  0  0  0  0  0  0  0  0  0  0
  191.0330  177.1650  137.7920 O   0  0  0  0  0  0  0  0  0  0  0  0
  191.3370  176.2020  136.7900 C   0  0  0  0  0  2  0  0  0  0  0  0
  192.8440  176.0620  136.6190 C   0  0  2  0  0  3  0  0  0  0  0  0
  193.1280  175.5160  135.3690 O   0  0  0  0  0  1  0  0  0  0  0  0
  193.4440  175.1940  137.7170 C   0  0  0  0  0  2  0  0  0  0  0  0
  194.8200  175.4070  137.8170 O   0  0  0  0  0  1  0  0  0  0  0  0
  1  5  1  0  0  0  0
  2  1  2  0  0  0  0
  3  8  1  0  0  0  0
  4  5  1  0  0  0  0
  4  6  2  0  0  0  0
  7  6  1  0  0  0  0
  8  2  1  0  0  0  0
  8  9  2  0  0  0  0
  9 10  1  0  0  0  0
  9  4  1  0  0  0  0
 10  7  2  0  0  0  0
 11 16  1  0  0  0  0
 12 11  1  0  0  0  0
 13 12  1  0  0  0  0
 13 14  1  0  0  0  0
 14 15  1  0  0  0  0
 15 16  1  0  0  0  0
 15  2  1  1  0  0  0
 17 21  1  1  0  0  0
 17 12  1  0  0  0  0
 18 20  1  0  0  0  0
 18 19  1  0  0  0  0
 19 17  1  1  0  0  0
 20 19  1  0  0  0  0
 22 23  1  0  0  0  0
 23 21  1  0  0  0  0
 24 10  1  0  0  0  0
 25 24  1  0  0  0  0
 26 25  1  0  0  0  0
 27 31  1  0  0  0  0
 28 27  2  0  0  0  0
 29 32  1  0  0  0  0
 30 28  1  0  0  0  0
 30 29  2  0  0  0  0
 31 26  1  0  0  0  0
 32 31  2  0  0  0  0
 33 30  1  0  0  0  0
 34 33  2  0  0  0  0
 35 33  1  0  0  0  0
 36 35  1  0  0  0  0
 37 38  1  6  0  0  0
 37 36  1  0  0  0  0
 37 39  1  0  0  0  0
 39 40  1  0  0  0  0
M  END
>  <MODEL>
6

>  <REMARK>
 VINA RESULT:      -7.7      1.981      2.851
  Name = 
  14 active torsions:
  status: ('A' for Active; 'I' for Inactive)
    1  A    between atoms: C_1  and  C_24
    2  A    between atoms: C_1  and  C_35
    3  A    between atoms: O_2  and  C_12
    4  A    between atoms: O_2  and  C_25
    5  A    between atoms: N_7  and  C_32
    6  A    between atoms: C_9  and  C_39
    7  A    between atoms: C_12  and  C_17
    8  A    between atoms: C_13  and  C_15
    9  A    between atoms: C_17  and  C_19
   10  A    between atoms: C_21  and  C_32
   11  A    between atoms: C_23  and  C_24
   12  A    between atoms: C_23  and  C_40
   13  A    between atoms: C_25  and  C_34
   14  A    between atoms: C_32  and  C_39
                            x       y       z     vdW  Elec       q    Type
                         _______ _______ _______ _____ _____    ______ ____

>  <TORSDO>
F 14

$$$$
=
 OpenBabel10232412483D

 40 44  0  0  1  0  0  0  0  0999 V2000
  184.9260  179.0200  146.0650 C   0  0  0  0  0  3  0  0  0  0  0  0
  185.3440  178.6760  144.8260 C   0  0  0  0  0  0  0  0  0  0  0  0
  187.1140  177.6410  143.2450 C   0  0  0  0  0  1  0  0  0  0  0  0
  187.0550  178.1760  147.0190 C   0  0  0  0  0  0  0  0  0  0  0  0
  185.7190  178.7700  147.3320 C   0  0  0  0  0  2  0  0  0  0  0  0
  188.0150  177.8620  147.8770 C   0  0  0  0  0  3  0  0  0  0  0  0
  189.1240  177.2700  147.1040 C   0  0  0  0  0  3  0  0  0  0  0  0
  186.6710  178.0290  144.6180 C   0  0  0  0  0  0  0  0  0  0  0  0
  187.4510  177.8160  145.6810 C   0  0  0  0  0  0  0  0  0  0  0  0
  188.7880  177.2500  145.8150 C   0  0  0  0  0  0  0  0  0  0  0  0
  184.0140  178.5730  141.2280 C   0  0  0  0  0  2  0  0  0  0  0  0
  182.6550  178.1250  141.5580 N   0  0  0  0  0  0  0  0  0  0  0  0
  182.1880  178.9680  142.6660 C   0  0  0  0  0  2  0  0  0  0  0  0
  183.0100  178.6880  143.9200 C   0  0  0  0  0  2  0  0  0  0  0  0
  184.4820  178.9900  143.6380 C   0  0  2  0  0  3  0  0  0  0  0  0
  184.9630  178.2660  142.3810 C   0  0  0  0  0  2  0  0  0  0  0  0
  181.7840  178.3370  140.3870 C   0  0  1  0  0  3  0  0  0  0  0  0
  181.4600  176.6720  138.5830 C   0  0  0  0  0  2  0  0  0  0  0  0
  181.0990  177.0320  139.9740 C   0  0  1  0  0  3  0  0  0  0  0  0
  182.0790  176.0620  139.6900 O   0  0  0  0  0  0  0  0  0  0  0  0
  180.6780  179.3490  140.7040 C   0  0  0  0  0  2  0  0  0  0  0  0
  181.7280  180.2920  138.7200 N   0  0  0  0  0  1  0  0  0  0  0  0
  180.7310  180.5280  139.7490 C   0  0  0  0  0  2  0  0  0  0  0  0
  189.6420  176.6840  144.7300 C   0  0  0  0  0  2  0  0  0  0  0  0
  190.9140  177.5060  144.5610 C   0  0  0  0  0  2  0  0  0  0  0  0
  190.7450  178.5700  143.4870 C   0  0  0  0  0  2  0  0  0  0  0  0
  189.5830  177.6620  141.4620 C   0  0  0  0  0  3  0  0  0  0  0  0
  189.6160  177.0670  140.1980 C   0  0  0  0  0  3  0  0  0  0  0  0
  192.0350  177.0640  140.2610 C   0  0  0  0  0  3  0  0  0  0  0  0
  190.8410  176.7650  139.5880 C   0  0  0  0  0  0  0  0  0  0  0  0
  190.7760  177.9600  142.1260 C   0  0  0  0  0  0  0  0  0  0  0  0
  192.0030  177.6570  141.5250 C   0  0  0  0  0  3  0  0  0  0  0  0
  190.8710  176.1310  138.2590 C   0  0  0  0  0  0  0  0  0  0  0  0
  190.9490  174.8740  138.1620 O   0  0  0  0  0  0  0  0  0  0  0  0
  190.8100  176.9250  137.1100 O   0  0  0  0  0  0  0  0  0  0  0  0
  189.7320  176.8490  136.1840 C   0  0  0  0  0  2  0  0  0  0  0  0
  188.4460  177.3660  136.8120 C   0  0  2  0  0  3  0  0  0  0  0  0
  187.3490  176.7380  136.2260 O   0  0  0  0  0  1  0  0  0  0  0  0
  188.3270  178.8770  136.6580 C   0  0  0  0  0  2  0  0  0  0  0  0
  188.9560  179.5320  137.7190 O   0  0  0  0  0  1  0  0  0  0  0  0
  1  5  1  0  0  0  0
  2  1  2  0  0  0  0
  3  8  1  0  0  0  0
  4  5  1  0  0  0  0
  4  6  2  0  0  0  0
  7  6  1  0  0  0  0
  8  2  1  0  0  0  0
  8  9  2  0  0  0  0
  9 10  1  0  0  0  0
  9  4  1  0  0  0  0
 10  7  2  0  0  0  0
 11 12  1  0  0  0  0
 11 16  1  0  0  0  0
 12 13  1  0  0  0  0
 13 14  1  0  0  0  0
 15 14  1  0  0  0  0
 15  2  1  1  0  0  0
 16 15  1  0  0  0  0
 17 21  1  1  0  0  0
 17 12  1  0  0  0  0
 18 20  1  0  0  0  0
 18 19  1  0  0  0  0
 19 17  1  6  0  0  0
 20 19  1  0  0  0  0
 22 23  1  0  0  0  0
 23 21  1  0  0  0  0
 24 10  1  0  0  0  0
 25 24  1  0  0  0  0
 26 25  1  0  0  0  0
 27 31  1  0  0  0  0
 28 27  2  0  0  0  0
 29 32  1  0  0  0  0
 30 28  1  0  0  0  0
 30 29  2  0  0  0  0
 31 26  1  0  0  0  0
 32 31  2  0  0  0  0
 33 30  1  0  0  0  0
 34 33  2  0  0  0  0
 35 33  1  0  0  0  0
 36 37  1  0  0  0  0
 36 35  1  0  0  0  0
 37 38  1  6  0  0  0
 39 37  1  0  0  0  0
 39 40  1  0  0  0  0
M  END
>  <MODEL>
7

>  <REMARK>
 VINA RESULT:      -7.5      1.895      2.888
  Name = 
  14 active torsions:
  status: ('A' for Active; 'I' for Inactive)
    1  A    between atoms: C_1  and  C_24
    2  A    between atoms: C_1  and  C_35
    3  A    between atoms: O_2  and  C_12
    4  A    between atoms: O_2  and  C_25
    5  A    between atoms: N_7  and  C_32
    6  A    between atoms: C_9  and  C_39
    7  A    between atoms: C_12  and  C_17
    8  A    between atoms: C_13  and  C_15
    9  A    between atoms: C_17  and  C_19
   10  A    between atoms: C_21  and  C_32
   11  A    between atoms: C_23  and  C_24
   12  A    between atoms: C_23  and  C_40
   13  A    between atoms: C_25  and  C_34
   14  A    between atoms: C_32  and  C_39
                            x       y       z     vdW  Elec       q    Type
                         _______ _______ _______ _____ _____    ______ ____

>  <TORSDO>
F 14

$$$$
=
 OpenBabel10232412483D

 40 44  0  0  1  0  0  0  0  0999 V2000
  190.8350  177.0130  140.6130 C   0  0  0  0  0  3  0  0  0  0  0  0
  189.6400  177.5420  140.9570 C   0  0  0  0  0  0  0  0  0  0  0  0
  187.2860  178.4120  140.3180 C   0  0  0  0  0  1  0  0  0  0  0  0
  190.1630  177.0430  138.2250 C   0  0  0  0  0  0  0  0  0  0  0  0
  191.2320  176.6540  139.1950 C   0  0  0  0  0  3  0  0  0  0  0  0
  190.1870  176.9090  136.9060 C   0  0  0  0  0  3  0  0  0  0  0  0
  188.8940  177.3950  136.3870 C   0  0  0  0  0  3  0  0  0  0  0  0
  188.6080  177.8410  139.9220 C   0  0  0  0  0  0  0  0  0  0  0  0
  188.8980  177.5950  138.6420 C   0  0  1  0  0  3  0  0  0  0  0  0
  188.1440  177.8000  137.4110 C   0  0  0  0  0  0  0  0  0  0  0  0
  188.4340  177.1170  144.5750 C   0  0  0  0  0  2  0  0  0  0  0  0
  189.7350  177.3380  145.2190 N   0  0  0  0  0  0  0  0  0  0  0  0
  190.3170  178.5360  144.5990 C   0  0  0  0  0  2  0  0  0  0  0  0
  190.6430  178.2620  143.1340 C   0  0  0  0  0  2  0  0  0  0  0  0
  189.3620  177.8780  142.3930 C   0  0  2  0  0  3  0  0  0  0  0  0
  188.6290  176.7440  143.1100 C   0  0  0  0  0  2  0  0  0  0  0  0
  189.5220  177.5910  146.6550 C   0  0  1  0  0  3  0  0  0  0  0  0
  187.8150  177.5710  148.4490 C   0  0  0  0  0  2  0  0  0  0  0  0
  188.0280  177.6370  146.9850 C   0  0  1  0  0  3  0  0  0  0  0  0
  187.7550  178.7890  147.7480 O   0  0  0  0  0  0  0  0  0  0  0  0
  190.1400  176.4760  147.5050 C   0  0  0  0  0  2  0  0  0  0  0  0
  192.5400  176.5360  147.9130 N   0  0  0  0  0  1  0  0  0  0  0  0
  191.5140  176.0940  146.9840 C   0  0  0  0  0  2  0  0  0  0  0  0
  186.7500  178.3190  137.2820 C   0  0  0  0  0  2  0  0  0  0  0  0
  185.7430  177.1800  137.3540 C   0  0  0  0  0  2  0  0  0  0  0  0
  184.3240  177.6820  137.1270 C   0  0  0  0  0  2  0  0  0  0  0  0
  182.8620  176.9380  139.0190 C   0  0  0  0  0  3  0  0  0  0  0  0
  182.1990  177.1910  140.2240 C   0  0  0  0  0  3  0  0  0  0  0  0
  183.0820  179.4440  140.2400 C   0  0  0  0  0  3  0  0  0  0  0  0
  182.3050  178.4440  140.8430 C   0  0  0  0  0  0  0  0  0  0  0  0
  183.6370  177.9380  138.4250 C   0  0  0  0  0  0  0  0  0  0  0  0
  183.7440  179.1930  139.0350 C   0  0  0  0  0  3  0  0  0  0  0  0
  181.5980  178.7080  142.1080 C   0  0  0  0  0  0  0  0  0  0  0  0
  180.4200  178.2840  142.2710 O   0  0  0  0  0  0  0  0  0  0  0  0
  182.2380  179.4260  143.1230 O   0  0  0  0  0  0  0  0  0  0  0  0
  182.9920  178.7930  144.1490 C   0  0  0  0  0  2  0  0  0  0  0  0
  184.4800  179.0490  143.9580 C   0  0  2  0  0  3  0  0  0  0  0  0
  185.0340  178.0470  143.1640 O   0  0  0  0  0  1  0  0  0  0  0  0
  185.2040  179.1140  145.2970 C   0  0  0  0  0  2  0  0  0  0  0  0
  184.3360  178.7940  146.3430 O   0  0  0  0  0  1  0  0  0  0  0  0
  1  2  1  0  0  0  0
  4  9  1  0  0  0  0
  4  5  1  0  0  0  0
  5  1  2  0  0  0  0
  6  4  2  0  0  0  0
  7  6  1  0  0  0  0
  7 10  2  0  0  0  0
  8  3  1  0  0  0  0
  8  2  2  0  0  0  0
  9 10  1  6  0  0  0
  9  8  1  0  0  0  0
 11 12  1  0  0  0  0
 12 17  1  0  0  0  0
 13 12  1  0  0  0  0
 14 13  1  0  0  0  0
 15  2  1  6  0  0  0
 15 16  1  0  0  0  0
 15 14  1  0  0  0  0
 16 11  1  0  0  0  0
 17 21  1  1  0  0  0
 19 17  1  1  0  0  0
 19 20  1  0  0  0  0
 19 18  1  0  0  0  0
 20 18  1  0  0  0  0
 23 21  1  0  0  0  0
 23 22  1  0  0  0  0
 24 25  1  0  0  0  0
 24 10  1  0  0  0  0
 26 25  1  0  0  0  0
 26 31  1  0  0  0  0
 27 28  1  0  0  0  0
 28 30  2  0  0  0  0
 29 30  1  0  0  0  0
 30 33  1  0  0  0  0
 31 27  2  0  0  0  0
 31 32  1  0  0  0  0
 32 29  2  0  0  0  0
 33 34  2  0  0  0  0
 33 35  1  0  0  0  0
 35 36  1  0  0  0  0
 37 38  1  6  0  0  0
 37 36  1  0  0  0  0
 37 39  1  0  0  0  0
 39 40  1  0  0  0  0
M  END
>  <MODEL>
8

>  <REMARK>
 VINA RESULT:      -7.1      3.258      9.241
  Name = 
  14 active torsions:
  status: ('A' for Active; 'I' for Inactive)
    1  A    between atoms: C_1  and  C_24
    2  A    between atoms: C_1  and  C_35
    3  A    between atoms: O_2  and  C_12
    4  A    between atoms: O_2  and  C_25
    5  A    between atoms: N_7  and  C_32
    6  A    between atoms: C_9  and  C_39
    7  A    between atoms: C_12  and  C_17
    8  A    between atoms: C_13  and  C_15
    9  A    between atoms: C_17  and  C_19
   10  A    between atoms: C_21  and  C_32
   11  A    between atoms: C_23  and  C_24
   12  A    between atoms: C_23  and  C_40
   13  A    between atoms: C_25  and  C_34
   14  A    between atoms: C_32  and  C_39
                            x       y       z     vdW  Elec       q    Type
                         _______ _______ _______ _____ _____    ______ ____

>  <TORSDO>
F 14

$$$$
=
 OpenBabel10232412483D

 40 44  0  0  1  0  0  0  0  0999 V2000
  186.3050  178.1600  146.3700 C   0  0  0  0  0  3  0  0  0  0  0  0
  186.5020  177.6910  145.1180 C   0  0  0  0  0  0  0  0  0  0  0  0
  188.0360  176.6520  143.3090 C   0  0  0  0  0  1  0  0  0  0  0  0
  188.6860  177.7190  146.9100 C   0  0  0  0  0  0  0  0  0  0  0  0
  187.3730  178.1920  147.4460 C   0  0  0  0  0  2  0  0  0  0  0  0
  189.8390  177.6470  147.5610 C   0  0  0  0  0  3  0  0  0  0  0  0
  190.8370  177.0830  146.6320 C   0  0  0  0  0  3  0  0  0  0  0  0
  187.8370  177.1810  144.6920 C   0  0  0  0  0  0  0  0  0  0  0  0
  188.8440  177.2170  145.5690 C   0  0  0  0  0  0  0  0  0  0  0  0
  190.2470  176.8370  145.4630 C   0  0  0  0  0  0  0  0  0  0  0  0
  183.2270  178.7830  143.4430 C   0  0  0  0  0  2  0  0  0  0  0  0
  183.8110  179.1640  142.1500 N   0  0  0  0  0  0  0  0  0  0  0  0
  184.7050  178.0690  141.7500 C   0  0  0  0  0  2  0  0  0  0  0  0
  185.8890  177.9830  142.7080 C   0  0  0  0  0  2  0  0  0  0  0  0
  185.3760  177.7270  144.1260 C   0  0  2  0  0  3  0  0  0  0  0  0
  184.3070  178.7470  144.5180 C   0  0  0  0  0  2  0  0  0  0  0  0
  182.7300  179.2950  141.1560 C   0  0  1  0  0  3  0  0  0  0  0  0
  182.9560  180.1790  138.8550 C   0  0  0  0  0  2  0  0  0  0  0  0
  183.2540  179.0320  139.7430 C   0  0  1  0  0  3  0  0  0  0  0  0
  184.2310  179.9940  139.4220 O   0  0  0  0  0  0  0  0  0  0  0  0
  181.6150  178.2780  141.4240 C   0  0  0  0  0  2  0  0  0  0  0  0
  180.5710  176.5310  140.0860 N   0  0  0  0  0  1  0  0  0  0  0  0
  180.8590  177.9540  140.1480 C   0  0  0  0  0  2  0  0  0  0  0  0
  190.9300  176.2230  144.2860 C   0  0  0  0  0  2  0  0  0  0  0  0
  191.6830  177.2810  143.4890 C   0  0  0  0  0  2  0  0  0  0  0  0
  190.8330  177.8190  142.3470 C   0  0  0  0  0  2  0  0  0  0  0  0
  192.7130  177.5400  140.7150 C   0  0  0  0  0  3  0  0  0  0  0  0
  193.2000  177.1330  139.4690 C   0  0  0  0  0  3  0  0  0  0  0  0
  190.9870  176.3750  138.8500 C   0  0  0  0  0  3  0  0  0  0  0  0
  192.3410  176.5470  138.5290 C   0  0  0  0  0  0  0  0  0  0  0  0
  191.3620  177.3620  141.0290 C   0  0  0  0  0  0  0  0  0  0  0  0
  190.4990  176.7820  140.0940 C   0  0  0  0  0  3  0  0  0  0  0  0
  192.8580  176.1280  137.2150 C   0  0  0  0  0  0  0  0  0  0  0  0
  192.0780  175.6140  136.3660 O   0  0  0  0  0  0  0  0  0  0  0  0
  194.2130  176.3030  136.9150 O   0  0  0  0  0  0  0  0  0  0  0  0
  194.9550  175.3570  136.1550 C   0  0  0  0  0  2  0  0  0  0  0  0
  195.9980  174.6680  137.0240 C   0  0  2  0  0  3  0  0  0  0  0  0
  195.8080  175.0210  138.3590 O   0  0  0  0  0  1  0  0  0  0  0  0
  197.4090  175.0310  136.5840 C   0  0  0  0  0  2  0  0  0  0  0  0
  197.3840  175.7310  135.3760 O   0  0  0  0  0  1  0  0  0  0  0  0
  1  5  1  0  0  0  0
  2  1  2  0  0  0  0
  3  8  1  0  0  0  0
  4  5  1  0  0  0  0
  4  6  2  0  0  0  0
  7  6  1  0  0  0  0
  8  2  1  0  0  0  0
  8  9  2  0  0  0  0
  9  4  1  0  0  0  0
 10  9  1  0  0  0  0
 10  7  2  0  0  0  0
 11 16  1  0  0  0  0
 12 11  1  0  0  0  0
 13 12  1  0  0  0  0
 13 14  1  0  0  0  0
 14 15  1  0  0  0  0
 15 16  1  0  0  0  0
 15  2  1  1  0  0  0
 17 21  1  1  0  0  0
 17 12  1  0  0  0  0
 18 20  1  0  0  0  0
 18 19  1  0  0  0  0
 19 17  1  1  0  0  0
 20 19  1  0  0  0  0
 22 23  1  0  0  0  0
 23 21  1  0  0  0  0
 24 10  1  0  0  0  0
 25 24  1  0  0  0  0
 26 25  1  0  0  0  0
 27 31  1  0  0  0  0
 28 27  2  0  0  0  0
 29 32  1  0  0  0  0
 30 29  2  0  0  0  0
 30 28  1  0  0  0  0
 31 26  1  0  0  0  0
 32 31  2  0  0  0  0
 33 30  1  0  0  0  0
 34 33  2  0  0  0  0
 35 33  1  0  0  0  0
 36 35  1  0  0  0  0
 36 37  1  0  0  0  0
 37 38  1  1  0  0  0
 39 37  1  0  0  0  0
 40 39  1  0  0  0  0
M  END
>  <MODEL>
9

>  <REMARK>
 VINA RESULT:      -6.8      3.072      4.189
  Name = 
  14 active torsions:
  status: ('A' for Active; 'I' for Inactive)
    1  A    between atoms: C_1  and  C_24
    2  A    between atoms: C_1  and  C_35
    3  A    between atoms: O_2  and  C_12
    4  A    between atoms: O_2  and  C_25
    5  A    between atoms: N_7  and  C_32
    6  A    between atoms: C_9  and  C_39
    7  A    between atoms: C_12  and  C_17
    8  A    between atoms: C_13  and  C_15
    9  A    between atoms: C_17  and  C_19
   10  A    between atoms: C_21  and  C_32
   11  A    between atoms: C_23  and  C_24
   12  A    between atoms: C_23  and  C_40
   13  A    between atoms: C_25  and  C_34
   14  A    between atoms: C_32  and  C_39
                            x       y       z     vdW  Elec       q    Type
                         _______ _______ _______ _____ _____    ______ ____

>  <TORSDO>
F 14

$$$$
