=
 OpenBabel10232407553D

 26 28  0  0  1  0  0  0  0  0999 V2000
  190.8940  176.6060  138.7550 C   0  0  0  0  0  0  0  0  0  0  0  0
  189.6630  175.9400  142.0480 N   0  0  0  0  0  0  0  0  0  0  0  0
  191.9390  175.9490  138.0480 N   0  0  0  0  0  1  0  0  0  0  0  0
  188.7380  177.7480  143.4340 C   0  0  2  0  0  3  0  0  0  0  0  0
  188.9610  177.9350  140.9000 C   0  0  0  0  0  0  0  0  0  0  0  0
  189.7190  176.6560  140.9640 C   0  0  0  0  0  0  0  0  0  0  0  0
  189.2330  178.4250  138.4360 C   0  0  0  0  0  3  0  0  0  0  0  0
  188.8030  176.2420  143.1910 C   0  0  0  0  0  2  0  0  0  0  0  0
  188.2830  178.4550  142.1550 C   0  0  1  0  0  3  0  0  0  0  0  0
  188.7760  178.6600  139.8020 C   0  0  0  0  0  3  0  0  0  0  0  0
  190.6670  176.2390  139.9780 N   0  0  0  0  0  0  0  0  0  0  0  0
  190.1110  177.5620  138.0360 N   0  0  0  0  0  0  0  0  0  0  0  0
  186.1850  178.7460  140.8170 C   0  0  0  0  0  3  0  0  0  0  0  0
  186.7840  178.4520  142.0460 C   0  0  0  0  0  0  0  0  0  0  0  0
  184.5770  178.1930  143.0100 C   0  0  0  0  0  3  0  0  0  0  0  0
  184.8290  178.7570  140.7020 N   0  0  0  0  0  0  0  0  0  0  0  0
  185.9650  178.1770  143.1490 C   0  0  0  0  0  3  0  0  0  0  0  0
  182.6080  178.5090  141.6040 N   0  0  0  0  0  1  0  0  0  0  0  0
  184.0210  178.4880  141.7630 C   0  0  0  0  0  0  0  0  0  0  0  0
  190.0840  178.3060  143.8970 C   0  0  0  0  0  2  0  0  0  0  0  0
  190.3120  178.1470  145.3990 C   0  0  1  0  0  3  0  0  0  0  0  0
  189.0990  177.9410  146.0610 O   0  0  0  0  0  1  0  0  0  0  0  0
  191.2840  177.0160  145.7000 C   0  0  0  0  0  2  0  0  0  0  0  0
  191.1940  176.6200  147.1630 C   0  0  0  0  0  2  0  0  0  0  0  0
  192.3200  175.6660  147.5170 C   0  0  0  0  0  2  0  0  0  0  0  0
  193.0580  176.1770  148.5860 O   0  0  0  0  0  1  0  0  0  0  0  0
  1 11  2  0  0  0  0
  2  8  1  0  0  0  0
  3  1  1  0  0  0  0
  4 20  1  6  0  0  0
  5  6  1  0  0  0  0
  5  9  1  0  0  0  0
  6  2  2  0  0  0  0
  7 10  1  0  0  0  0
  8  4  1  0  0  0  0
  9 14  1  6  0  0  0
  9  4  1  0  0  0  0
 10  5  2  0  0  0  0
 11  6  1  0  0  0  0
 12  7  2  0  0  0  0
 12  1  1  0  0  0  0
 13 14  1  0  0  0  0
 14 17  2  0  0  0  0
 15 17  1  0  0  0  0
 16 13  2  0  0  0  0
 16 19  1  0  0  0  0
 18 19  1  0  0  0  0
 19 15  2  0  0  0  0
 20 21  1  0  0  0  0
 21 23  1  0  0  0  0
 21 22  1  1  0  0  0
 23 24  1  0  0  0  0
 24 25  1  0  0  0  0
 25 26  1  0  0  0  0
M  END
>  <MODEL>
1

>  <REMARK>
 VINA RESULT:      -7.9      0.000      0.000
  Name = 
  6 active torsions:
  status: ('A' for Active; 'I' for Inactive)
    1  A    between atoms: C_4  and  C_21
    2  A    between atoms: C_6  and  C_14
    3  A    between atoms: C_11  and  C_14
    4  A    between atoms: C_11  and  C_25
    5  A    between atoms: C_12  and  C_24
    6  A    between atoms: C_24  and  C_25
                            x       y       z     vdW  Elec       q    Type
                         _______ _______ _______ _____ _____    ______ ____

>  <TORSDO>
F 6

$$$$
=
 OpenBabel10232407553D

 26 28  0  0  1  0  0  0  0  0999 V2000
  190.5750  176.6520  139.3460 C   0  0  0  0  0  0  0  0  0  0  0  0
  189.1170  175.8580  142.5170 N   0  0  0  0  0  0  0  0  0  0  0  0
  191.6370  175.9940  138.6670 N   0  0  0  0  0  1  0  0  0  0  0  0
  188.1730  177.6250  143.9430 C   0  0  2  0  0  3  0  0  0  0  0  0
  188.5590  177.9380  141.4420 C   0  0  0  0  0  0  0  0  0  0  0  0
  189.2660  176.6290  141.4800 C   0  0  0  0  0  0  0  0  0  0  0  0
  189.0020  178.5490  139.0290 C   0  0  0  0  0  3  0  0  0  0  0  0
  188.2000  176.1320  143.6210 C   0  0  0  0  0  2  0  0  0  0  0  0
  187.8240  178.4160  142.6800 C   0  0  1  0  0  3  0  0  0  0  0  0
  188.4690  178.7270  140.3770 C   0  0  0  0  0  3  0  0  0  0  0  0
  190.2590  176.2290  140.5310 N   0  0  0  0  0  0  0  0  0  0  0  0
  189.8720  177.6750  138.6360 N   0  0  0  0  0  0  0  0  0  0  0  0
  185.8240  178.7390  141.2060 C   0  0  0  0  0  3  0  0  0  0  0  0
  186.3360  178.4780  142.4810 C   0  0  0  0  0  0  0  0  0  0  0  0
  184.0660  178.3690  143.3210 C   0  0  0  0  0  3  0  0  0  0  0  0
  184.4790  178.8070  141.0090 N   0  0  0  0  0  0  0  0  0  0  0  0
  185.4410  178.2950  143.5450 C   0  0  0  0  0  3  0  0  0  0  0  0
  182.2000  178.7070  141.7860 N   0  0  0  0  0  1  0  0  0  0  0  0
  183.5990  178.6280  142.0310 C   0  0  0  0  0  0  0  0  0  0  0  0
  189.5070  178.1040  144.5170 C   0  0  0  0  0  2  0  0  0  0  0  0
  190.0930  177.1440  145.5500 C   0  0  1  0  0  3  0  0  0  0  0  0
  191.4610  176.9600  145.3270 O   0  0  0  0  0  1  0  0  0  0  0  0
  189.8430  177.6280  146.9690 C   0  0  0  0  0  2  0  0  0  0  0  0
  188.5700  177.0100  147.5190 C   0  0  0  0  0  2  0  0  0  0  0  0
  187.6610  178.0910  148.0740 C   0  0  0  0  0  2  0  0  0  0  0  0
  186.6940  178.4340  147.1270 O   0  0  0  0  0  1  0  0  0  0  0  0
  1 11  2  0  0  0  0
  2  8  1  0  0  0  0
  3  1  1  0  0  0  0
  4 20  1  6  0  0  0
  5  6  1  0  0  0  0
  5  9  1  0  0  0  0
  6  2  2  0  0  0  0
  7 10  1  0  0  0  0
  8  4  1  0  0  0  0
  9 14  1  6  0  0  0
  9  4  1  0  0  0  0
 10  5  2  0  0  0  0
 11  6  1  0  0  0  0
 12  7  2  0  0  0  0
 12  1  1  0  0  0  0
 13 14  1  0  0  0  0
 14 17  2  0  0  0  0
 15 17  1  0  0  0  0
 16 13  2  0  0  0  0
 16 19  1  0  0  0  0
 18 19  1  0  0  0  0
 19 15  2  0  0  0  0
 20 21  1  0  0  0  0
 21 22  1  6  0  0  0
 21 23  1  0  0  0  0
 23 24  1  0  0  0  0
 24 25  1  0  0  0  0
 26 25  1  0  0  0  0
M  END
>  <MODEL>
2

>  <REMARK>
 VINA RESULT:      -7.7      1.363      1.998
  Name = 
  6 active torsions:
  status: ('A' for Active; 'I' for Inactive)
    1  A    between atoms: C_4  and  C_21
    2  A    between atoms: C_6  and  C_14
    3  A    between atoms: C_11  and  C_14
    4  A    between atoms: C_11  and  C_25
    5  A    between atoms: C_12  and  C_24
    6  A    between atoms: C_24  and  C_25
                            x       y       z     vdW  Elec       q    Type
                         _______ _______ _______ _____ _____    ______ ____

>  <TORSDO>
F 6

$$$$
=
 OpenBabel10232407553D

 26 28  0  0  1  0  0  0  0  0999 V2000
  189.0320  178.0790  139.8930 C   0  0  0  0  0  0  0  0  0  0  0  0
  186.4100  179.7040  141.7060 N   0  0  0  0  0  0  0  0  0  0  0  0
  189.5400  178.3850  138.6000 N   0  0  0  0  0  1  0  0  0  0  0  0
  185.0020  178.4430  143.2790 C   0  0  2  0  0  3  0  0  0  0  0  0
  187.2850  177.6100  142.5070 C   0  0  0  0  0  0  0  0  0  0  0  0
  187.2710  178.7430  141.5420 C   0  0  0  0  0  0  0  0  0  0  0  0
  189.4300  176.4960  141.7660 C   0  0  0  0  0  3  0  0  0  0  0  0
  185.5120  179.8180  142.8540 C   0  0  0  0  0  2  0  0  0  0  0  0
  186.1900  177.5170  143.5530 C   0  0  1  0  0  3  0  0  0  0  0  0
  188.2240  176.6720  142.5700 C   0  0  0  0  0  3  0  0  0  0  0  0
  188.0190  178.7640  140.3230 N   0  0  0  0  0  0  0  0  0  0  0  0
  189.7350  177.0990  140.6620 N   0  0  0  0  0  0  0  0  0  0  0  0
  185.8390  178.1650  145.9470 C   0  0  0  0  0  3  0  0  0  0  0  0
  186.7070  177.7090  144.9510 C   0  0  0  0  0  0  0  0  0  0  0  0
  188.4890  177.6550  146.5910 C   0  0  0  0  0  3  0  0  0  0  0  0
  186.2920  178.3520  147.2170 N   0  0  0  0  0  0  0  0  0  0  0  0
  188.0450  177.4570  145.2830 C   0  0  0  0  0  3  0  0  0  0  0  0
  188.0230  178.3150  148.8920 N   0  0  0  0  0  1  0  0  0  0  0  0
  187.5870  178.1070  147.5550 C   0  0  0  0  0  0  0  0  0  0  0  0
  184.0830  177.8280  142.2230 C   0  0  0  0  0  2  0  0  0  0  0  0
  182.6340  178.2950  142.3460 C   0  0  1  0  0  3  0  0  0  0  0  0
  182.4930  179.1770  143.4210 O   0  0  0  0  0  1  0  0  0  0  0  0
  182.1420  178.9370  141.0580 C   0  0  0  0  0  2  0  0  0  0  0  0
  183.0090  178.5060  139.8890 C   0  0  0  0  0  2  0  0  0  0  0  0
  183.1650  179.6480  138.9030 C   0  0  0  0  0  2  0  0  0  0  0  0
  184.3710  180.3140  139.1320 O   0  0  0  0  0  1  0  0  0  0  0  0
  1 11  2  0  0  0  0
  1 12  1  0  0  0  0
  2  8  1  0  0  0  0
  3  1  1  0  0  0  0
  4 20  1  6  0  0  0
  4  9  1  0  0  0  0
  5 10  2  0  0  0  0
  5  9  1  0  0  0  0
  6  2  2  0  0  0  0
  6  5  1  0  0  0  0
  7 10  1  0  0  0  0
  8  4  1  0  0  0  0
  9 14  1  1  0  0  0
 11  6  1  0  0  0  0
 12  7  2  0  0  0  0
 13 16  1  0  0  0  0
 14 17  1  0  0  0  0
 14 13  2  0  0  0  0
 15 19  1  0  0  0  0
 16 19  2  0  0  0  0
 17 15  2  0  0  0  0
 19 18  1  0  0  0  0
 20 21  1  0  0  0  0
 21 22  1  1  0  0  0
 23 21  1  0  0  0  0
 24 23  1  0  0  0  0
 25 26  1  0  0  0  0
 25 24  1  0  0  0  0
M  END
>  <MODEL>
3

>  <REMARK>
 VINA RESULT:      -7.4      3.442      6.644
  Name = 
  6 active torsions:
  status: ('A' for Active; 'I' for Inactive)
    1  A    between atoms: C_4  and  C_21
    2  A    between atoms: C_6  and  C_14
    3  A    between atoms: C_11  and  C_14
    4  A    between atoms: C_11  and  C_25
    5  A    between atoms: C_12  and  C_24
    6  A    between atoms: C_24  and  C_25
                            x       y       z     vdW  Elec       q    Type
                         _______ _______ _______ _____ _____    ______ ____

>  <TORSDO>
F 6

$$$$
=
 OpenBabel10232407553D

 26 28  0  0  1  0  0  0  0  0999 V2000
  188.9130  178.1190  139.9110 C   0  0  0  0  0  0  0  0  0  0  0  0
  186.3140  179.6980  141.7970 N   0  0  0  0  0  0  0  0  0  0  0  0
  189.3830  178.4380  138.6070 N   0  0  0  0  0  1  0  0  0  0  0  0
  184.9650  178.4100  143.3990 C   0  0  2  0  0  3  0  0  0  0  0  0
  187.2390  177.6140  142.5650 C   0  0  0  0  0  0  0  0  0  0  0  0
  187.1840  178.7500  141.6070 C   0  0  0  0  0  0  0  0  0  0  0  0
  189.3790  176.5330  141.7650 C   0  0  0  0  0  3  0  0  0  0  0  0
  185.4440  179.7950  142.9680 C   0  0  0  0  0  2  0  0  0  0  0  0
  186.1720  177.5000  143.6380 C   0  0  1  0  0  3  0  0  0  0  0  0
  188.1920  176.6890  142.6010 C   0  0  0  0  0  3  0  0  0  0  0  0
  187.9010  178.7880  140.3700 N   0  0  0  0  0  0  0  0  0  0  0  0
  189.6480  177.1450  140.6570 N   0  0  0  0  0  0  0  0  0  0  0  0
  185.8700  178.1210  146.0460 C   0  0  0  0  0  3  0  0  0  0  0  0
  186.7210  177.6920  145.0240 C   0  0  0  0  0  0  0  0  0  0  0  0
  188.5470  177.6670  146.6150 C   0  0  0  0  0  3  0  0  0  0  0  0
  186.3520  178.3080  147.3050 N   0  0  0  0  0  0  0  0  0  0  0  0
  188.0730  177.4680  145.3180 C   0  0  0  0  0  3  0  0  0  0  0  0
  188.1270  178.2980  148.9340 N   0  0  0  0  0  1  0  0  0  0  0  0
  187.6600  178.0910  147.6070 C   0  0  0  0  0  0  0  0  0  0  0  0
  184.0280  177.7870  142.3630 C   0  0  0  0  0  2  0  0  0  0  0  0
  183.1190  178.8110  141.6860 C   0  0  1  0  0  3  0  0  0  0  0  0
  183.2630  178.7530  140.2970 O   0  0  0  0  0  1  0  0  0  0  0  0
  181.6640  178.6150  142.0820 C   0  0  0  0  0  2  0  0  0  0  0  0
  181.3790  179.3070  143.4030 C   0  0  0  0  0  2  0  0  0  0  0  0
  180.1000  178.7650  144.0130 C   0  0  0  0  0  2  0  0  0  0  0  0
  179.9820  177.4010  143.7390 O   0  0  0  0  0  1  0  0  0  0  0  0
  1 11  2  0  0  0  0
  1 12  1  0  0  0  0
  2  8  1  0  0  0  0
  3  1  1  0  0  0  0
  4 20  1  6  0  0  0
  4  9  1  0  0  0  0
  5 10  2  0  0  0  0
  5  9  1  0  0  0  0
  6  2  2  0  0  0  0
  6  5  1  0  0  0  0
  7 10  1  0  0  0  0
  8  4  1  0  0  0  0
  9 14  1  1  0  0  0
 11  6  1  0  0  0  0
 12  7  2  0  0  0  0
 13 16  1  0  0  0  0
 14 17  1  0  0  0  0
 14 13  2  0  0  0  0
 15 19  1  0  0  0  0
 16 19  2  0  0  0  0
 17 15  2  0  0  0  0
 19 18  1  0  0  0  0
 21 22  1  6  0  0  0
 21 23  1  0  0  0  0
 21 20  1  0  0  0  0
 23 24  1  0  0  0  0
 24 25  1  0  0  0  0
 26 25  1  0  0  0  0
M  END
>  <MODEL>
4

>  <REMARK>
 VINA RESULT:      -7.3      3.687      6.730
  Name = 
  6 active torsions:
  status: ('A' for Active; 'I' for Inactive)
    1  A    between atoms: C_4  and  C_21
    2  A    between atoms: C_6  and  C_14
    3  A    between atoms: C_11  and  C_14
    4  A    between atoms: C_11  and  C_25
    5  A    between atoms: C_12  and  C_24
    6  A    between atoms: C_24  and  C_25
                            x       y       z     vdW  Elec       q    Type
                         _______ _______ _______ _____ _____    ______ ____

>  <TORSDO>
F 6

$$$$
=
 OpenBabel10232407553D

 26 28  0  0  1  0  0  0  0  0999 V2000
  190.8300  177.1630  146.2380 C   0  0  0  0  0  0  0  0  0  0  0  0
  187.8970  176.5390  144.2850 N   0  0  0  0  0  0  0  0  0  0  0  0
  191.0750  176.8380  147.6000 N   0  0  0  0  0  1  0  0  0  0  0  0
  187.2530  178.0600  142.4640 C   0  0  2  0  0  3  0  0  0  0  0  0
  189.6170  177.9790  143.4140 C   0  0  0  0  0  0  0  0  0  0  0  0
  189.0670  177.0780  144.4630 C   0  0  0  0  0  0  0  0  0  0  0  0
  191.9760  178.2050  144.2950 C   0  0  0  0  0  3  0  0  0  0  0  0
  187.1130  176.6600  143.0570 C   0  0  0  0  0  2  0  0  0  0  0  0
  188.7330  178.3810  142.2480 C   0  0  1  0  0  3  0  0  0  0  0  0
  190.8640  178.4380  143.3780 C   0  0  0  0  0  3  0  0  0  0  0  0
  189.6540  176.9030  145.7550 N   0  0  0  0  0  0  0  0  0  0  0  0
  191.9270  177.6700  145.4730 N   0  0  0  0  0  0  0  0  0  0  0  0
  190.0510  176.7040  140.9340 C   0  0  0  0  0  3  0  0  0  0  0  0
  189.2170  177.8260  140.9380 C   0  0  0  0  0  0  0  0  0  0  0  0
  189.3420  177.8730  138.5190 C   0  0  0  0  0  3  0  0  0  0  0  0
  190.5050  176.1940  139.7570 N   0  0  0  0  0  0  0  0  0  0  0  0
  188.8660  178.4130  139.7150 C   0  0  0  0  0  3  0  0  0  0  0  0
  190.6640  176.1870  137.3530 N   0  0  0  0  0  1  0  0  0  0  0  0
  190.1690  176.7500  138.5620 C   0  0  0  0  0  0  0  0  0  0  0  0
  186.6050  179.1200  143.3560 C   0  0  0  0  0  2  0  0  0  0  0  0
  185.2130  179.5310  142.8810 C   0  0  1  0  0  3  0  0  0  0  0  0
  185.1440  179.5110  141.4850 O   0  0  0  0  0  1  0  0  0  0  0  0
  184.1330  178.6450  143.4820 C   0  0  0  0  0  2  0  0  0  0  0  0
  183.7260  179.1630  144.8500 C   0  0  0  0  0  2  0  0  0  0  0  0
  184.4720  178.4120  145.9370 C   0  0  0  0  0  2  0  0  0  0  0  0
  185.2680  179.2960  146.6670 O   0  0  0  0  0  1  0  0  0  0  0  0
  1  3  1  0  0  0  0
  2  6  2  0  0  0  0
  4  8  1  0  0  0  0
  4 20  1  1  0  0  0
  5  6  1  0  0  0  0
  6 11  1  0  0  0  0
  7 12  2  0  0  0  0
  8  2  1  0  0  0  0
  9 14  1  6  0  0  0
  9  4  1  0  0  0  0
  9  5  1  0  0  0  0
 10  5  2  0  0  0  0
 10  7  1  0  0  0  0
 11  1  2  0  0  0  0
 12  1  1  0  0  0  0
 13 14  1  0  0  0  0
 15 19  2  0  0  0  0
 15 17  1  0  0  0  0
 16 13  2  0  0  0  0
 17 14  2  0  0  0  0
 18 19  1  0  0  0  0
 19 16  1  0  0  0  0
 21 22  1  6  0  0  0
 21 20  1  0  0  0  0
 21 23  1  0  0  0  0
 23 24  1  0  0  0  0
 24 25  1  0  0  0  0
 25 26  1  0  0  0  0
M  END
>  <MODEL>
5

>  <REMARK>
 VINA RESULT:      -7.1      2.724      6.088
  Name = 
  6 active torsions:
  status: ('A' for Active; 'I' for Inactive)
    1  A    between atoms: C_4  and  C_21
    2  A    between atoms: C_6  and  C_14
    3  A    between atoms: C_11  and  C_14
    4  A    between atoms: C_11  and  C_25
    5  A    between atoms: C_12  and  C_24
    6  A    between atoms: C_24  and  C_25
                            x       y       z     vdW  Elec       q    Type
                         _______ _______ _______ _____ _____    ______ ____

>  <TORSDO>
F 6

$$$$
=
 OpenBabel10232407553D

 26 28  0  0  1  0  0  0  0  0999 V2000
  191.1550  177.2340  146.1290 C   0  0  0  0  0  0  0  0  0  0  0  0
  187.9040  176.4230  144.8740 N   0  0  0  0  0  0  0  0  0  0  0  0
  191.7730  176.8070  147.3360 N   0  0  0  0  0  1  0  0  0  0  0  0
  186.6600  178.0230  143.4810 C   0  0  2  0  0  3  0  0  0  0  0  0
  189.1840  178.1640  143.8150 C   0  0  0  0  0  0  0  0  0  0  0  0
  189.0170  177.0950  144.8360 C   0  0  0  0  0  0  0  0  0  0  0  0
  191.6520  178.6150  144.1240 C   0  0  0  0  0  3  0  0  0  0  0  0
  186.8240  176.5630  143.8990 C   0  0  0  0  0  2  0  0  0  0  0  0
  187.9940  178.5610  142.9600 C   0  0  1  0  0  3  0  0  0  0  0  0
  190.3240  178.7890  143.5410 C   0  0  0  0  0  3  0  0  0  0  0  0
  189.9300  176.8690  145.9130 N   0  0  0  0  0  0  0  0  0  0  0  0
  191.9610  177.9610  145.1970 N   0  0  0  0  0  0  0  0  0  0  0  0
  187.2920  178.7250  140.5610 C   0  0  0  0  0  3  0  0  0  0  0  0
  188.1830  178.2140  141.5100 C   0  0  0  0  0  0  0  0  0  0  0  0
  189.3570  177.0700  139.7270 C   0  0  0  0  0  3  0  0  0  0  0  0
  187.4420  178.4140  139.2450 N   0  0  0  0  0  0  0  0  0  0  0  0
  189.2210  177.3760  141.0820 C   0  0  0  0  0  3  0  0  0  0  0  0
  188.5720  177.3030  137.4290 N   0  0  0  0  0  1  0  0  0  0  0  0
  188.4480  177.6060  138.8130 C   0  0  0  0  0  0  0  0  0  0  0  0
  186.1540  178.8890  144.6360 C   0  0  0  0  0  2  0  0  0  0  0  0
  184.6860  178.6340  144.9750 C   0  0  1  0  0  3  0  0  0  0  0  0
  184.4650  178.7930  146.3460 O   0  0  0  0  0  1  0  0  0  0  0  0
  183.7620  179.5390  144.1750 C   0  0  0  0  0  2  0  0  0  0  0  0
  182.5950  178.7420  143.6210 C   0  0  0  0  0  2  0  0  0  0  0  0
  182.6030  178.7880  142.1040 C   0  0  0  0  0  2  0  0  0  0  0  0
  183.6980  178.0770  141.6120 O   0  0  0  0  0  1  0  0  0  0  0  0
  1  3  1  0  0  0  0
  4  8  1  0  0  0  0
  4 20  1  1  0  0  0
  5  6  1  0  0  0  0
  6  2  2  0  0  0  0
  6 11  1  0  0  0  0
  7 12  2  0  0  0  0
  8  2  1  0  0  0  0
  9 14  1  6  0  0  0
  9  4  1  0  0  0  0
  9  5  1  0  0  0  0
 10  5  2  0  0  0  0
 10  7  1  0  0  0  0
 11  1  2  0  0  0  0
 12  1  1  0  0  0  0
 13 14  1  0  0  0  0
 15 17  1  0  0  0  0
 16 13  2  0  0  0  0
 17 14  2  0  0  0  0
 18 19  1  0  0  0  0
 19 16  1  0  0  0  0
 19 15  2  0  0  0  0
 20 21  1  0  0  0  0
 21 22  1  1  0  0  0
 23 21  1  0  0  0  0
 24 23  1  0  0  0  0
 25 24  1  0  0  0  0
 26 25  1  0  0  0  0
M  END
>  <MODEL>
6

>  <REMARK>
 VINA RESULT:      -7.1      2.900      6.138
  Name = 
  6 active torsions:
  status: ('A' for Active; 'I' for Inactive)
    1  A    between atoms: C_4  and  C_21
    2  A    between atoms: C_6  and  C_14
    3  A    between atoms: C_11  and  C_14
    4  A    between atoms: C_11  and  C_25
    5  A    between atoms: C_12  and  C_24
    6  A    between atoms: C_24  and  C_25
                            x       y       z     vdW  Elec       q    Type
                         _______ _______ _______ _____ _____    ______ ____

>  <TORSDO>
F 6

$$$$
=
 OpenBabel10232407553D

 26 28  0  0  1  0  0  0  0  0999 V2000
  184.9290  178.5180  145.8190 C   0  0  0  0  0  0  0  0  0  0  0  0
  187.1020  176.6160  143.7060 N   0  0  0  0  0  0  0  0  0  0  0  0
  183.5200  178.6850  145.7240 N   0  0  0  0  0  1  0  0  0  0  0  0
  189.4330  177.3120  143.3500 C   0  0  2  0  0  3  0  0  0  0  0  0
  188.0450  178.1220  145.3300 C   0  0  0  0  0  0  0  0  0  0  0  0
  186.8850  177.4640  144.6690 C   0  0  0  0  0  0  0  0  0  0  0  0
  186.8290  179.1920  147.2700 C   0  0  0  0  0  3  0  0  0  0  0  0
  188.4280  176.1640  143.2900 C   0  0  0  0  0  2  0  0  0  0  0  0
  189.4340  177.9210  144.7540 C   0  0  1  0  0  3  0  0  0  0  0  0
  187.9800  178.8510  146.4380 C   0  0  0  0  0  3  0  0  0  0  0  0
  185.5220  177.8360  144.8900 N   0  0  0  0  0  0  0  0  0  0  0  0
  185.5770  179.0370  146.9840 N   0  0  0  0  0  0  0  0  0  0  0  0
  190.0490  177.1060  147.0420 C   0  0  0  0  0  3  0  0  0  0  0  0
  190.3340  177.1440  145.6740 C   0  0  0  0  0  0  0  0  0  0  0  0
  192.2830  175.7650  146.0870 C   0  0  0  0  0  3  0  0  0  0  0  0
  190.8580  176.4150  147.8900 N   0  0  0  0  0  0  0  0  0  0  0  0
  191.4660  176.4680  145.1990 C   0  0  0  0  0  3  0  0  0  0  0  0
  192.7790  175.0390  148.3620 N   0  0  0  0  0  1  0  0  0  0  0  0
  191.9570  175.7490  147.4440 C   0  0  0  0  0  0  0  0  0  0  0  0
  189.1270  178.3870  142.3060 C   0  0  0  0  0  2  0  0  0  0  0  0
  188.8760  177.8140  140.9130 C   0  0  1  0  0  3  0  0  0  0  0  0
  188.1720  178.7290  140.1260 O   0  0  0  0  0  1  0  0  0  0  0  0
  190.1750  177.4110  140.2320 C   0  0  0  0  0  2  0  0  0  0  0  0
  190.0080  177.4340  138.7240 C   0  0  0  0  0  2  0  0  0  0  0  0
  191.0450  176.5410  138.0680 C   0  0  0  0  0  2  0  0  0  0  0  0
  190.8590  175.2180  138.4710 O   0  0  0  0  0  1  0  0  0  0  0  0
  1 12  1  0  0  0  0
  2  6  2  0  0  0  0
  3  1  1  0  0  0  0
  4 20  1  6  0  0  0
  4  9  1  0  0  0  0
  5 10  2  0  0  0  0
  6 11  1  0  0  0  0
  6  5  1  0  0  0  0
  8  4  1  0  0  0  0
  8  2  1  0  0  0  0
  9  5  1  0  0  0  0
  9 14  1  1  0  0  0
 10  7  1  0  0  0  0
 11  1  2  0  0  0  0
 12  7  2  0  0  0  0
 13 16  1  0  0  0  0
 14 13  2  0  0  0  0
 15 19  1  0  0  0  0
 17 14  1  0  0  0  0
 17 15  2  0  0  0  0
 19 16  2  0  0  0  0
 19 18  1  0  0  0  0
 21 22  1  6  0  0  0
 21 20  1  0  0  0  0
 23 21  1  0  0  0  0
 24 23  1  0  0  0  0
 25 26  1  0  0  0  0
 25 24  1  0  0  0  0
M  END
>  <MODEL>
7

>  <REMARK>
 VINA RESULT:      -7.0      3.742      7.579
  Name = 
  6 active torsions:
  status: ('A' for Active; 'I' for Inactive)
    1  A    between atoms: C_4  and  C_21
    2  A    between atoms: C_6  and  C_14
    3  A    between atoms: C_11  and  C_14
    4  A    between atoms: C_11  and  C_25
    5  A    between atoms: C_12  and  C_24
    6  A    between atoms: C_24  and  C_25
                            x       y       z     vdW  Elec       q    Type
                         _______ _______ _______ _____ _____    ______ ____

>  <TORSDO>
F 6

$$$$
=
 OpenBabel10232407553D

 26 28  0  0  1  0  0  0  0  0999 V2000
  184.7590  178.3860  145.5150 C   0  0  0  0  0  0  0  0  0  0  0  0
  187.1100  176.5700  143.5210 N   0  0  0  0  0  0  0  0  0  0  0  0
  183.3520  178.5080  145.3390 N   0  0  0  0  0  1  0  0  0  0  0  0
  189.4340  177.3430  143.3040 C   0  0  2  0  0  3  0  0  0  0  0  0
  187.9090  178.0940  145.2040 C   0  0  0  0  0  0  0  0  0  0  0  0
  186.8110  177.4030  144.4740 C   0  0  0  0  0  0  0  0  0  0  0  0
  186.5490  179.1110  147.0770 C   0  0  0  0  0  3  0  0  0  0  0  0
  188.4720  176.1630  143.1800 C   0  0  0  0  0  2  0  0  0  0  0  0
  189.3350  177.9420  144.7090 C   0  0  1  0  0  3  0  0  0  0  0  0
  187.7560  178.8130  146.3110 C   0  0  0  0  0  3  0  0  0  0  0  0
  185.4260  177.7300  144.6180 N   0  0  0  0  0  0  0  0  0  0  0  0
  185.3210  178.9170  146.7180 N   0  0  0  0  0  0  0  0  0  0  0  0
  191.4630  176.7390  145.2590 C   0  0  0  0  0  3  0  0  0  0  0  0
  190.2050  177.1880  145.6750 C   0  0  0  0  0  0  0  0  0  0  0  0
  190.6180  176.1960  147.8460 C   0  0  0  0  0  3  0  0  0  0  0  0
  192.2600  176.0480  146.1180 N   0  0  0  0  0  0  0  0  0  0  0  0
  189.7840  176.9070  146.9820 C   0  0  0  0  0  3  0  0  0  0  0  0
  192.7290  175.0460  148.2590 N   0  0  0  0  0  1  0  0  0  0  0  0
  191.8670  175.7720  147.3910 C   0  0  0  0  0  0  0  0  0  0  0  0
  189.1540  178.4150  142.2500 C   0  0  0  0  0  2  0  0  0  0  0  0
  188.5810  177.8450  140.9540 C   0  0  1  0  0  3  0  0  0  0  0  0
  187.3960  178.5010  140.6110 O   0  0  0  0  0  1  0  0  0  0  0  0
  189.5850  177.9240  139.8150 C   0  0  0  0  0  2  0  0  0  0  0  0
  189.0200  177.2720  138.5670 C   0  0  0  0  0  2  0  0  0  0  0  0
  189.1250  178.2190  137.3870 C   0  0  0  0  0  2  0  0  0  0  0  0
  188.9810  179.5380  137.8200 O   0  0  0  0  0  1  0  0  0  0  0  0
  1 12  1  0  0  0  0
  2  6  2  0  0  0  0
  3  1  1  0  0  0  0
  4 20  1  6  0  0  0
  4  9  1  0  0  0  0
  5 10  2  0  0  0  0
  6 11  1  0  0  0  0
  6  5  1  0  0  0  0
  8  4  1  0  0  0  0
  8  2  1  0  0  0  0
  9  5  1  0  0  0  0
  9 14  1  1  0  0  0
 10  7  1  0  0  0  0
 11  1  2  0  0  0  0
 12  7  2  0  0  0  0
 13 14  2  0  0  0  0
 13 16  1  0  0  0  0
 14 17  1  0  0  0  0
 16 19  2  0  0  0  0
 17 15  2  0  0  0  0
 19 15  1  0  0  0  0
 19 18  1  0  0  0  0
 21 22  1  6  0  0  0
 21 20  1  0  0  0  0
 23 21  1  0  0  0  0
 24 23  1  0  0  0  0
 25 26  1  0  0  0  0
 25 24  1  0  0  0  0
M  END
>  <MODEL>
8

>  <REMARK>
 VINA RESULT:      -6.9      3.634      7.645
  Name = 
  6 active torsions:
  status: ('A' for Active; 'I' for Inactive)
    1  A    between atoms: C_4  and  C_21
    2  A    between atoms: C_6  and  C_14
    3  A    between atoms: C_11  and  C_14
    4  A    between atoms: C_11  and  C_25
    5  A    between atoms: C_12  and  C_24
    6  A    between atoms: C_24  and  C_25
                            x       y       z     vdW  Elec       q    Type
                         _______ _______ _______ _____ _____    ______ ____

>  <TORSDO>
F 6

$$$$
=
 OpenBabel10232407553D

 26 28  0  0  1  0  0  0  0  0999 V2000
  190.6600  177.1960  147.0130 C   0  0  0  0  0  0  0  0  0  0  0  0
  190.0320  178.6800  143.8180 N   0  0  0  0  0  0  0  0  0  0  0  0
  191.8720  177.1670  147.7560 N   0  0  0  0  0  1  0  0  0  0  0  0
  188.3590  177.7190  142.2930 C   0  0  2  0  0  3  0  0  0  0  0  0
  188.3820  177.2250  144.7950 C   0  0  0  0  0  0  0  0  0  0  0  0
  189.6860  177.9420  144.8320 C   0  0  0  0  0  0  0  0  0  0  0  0
  188.2970  176.4520  147.2000 C   0  0  0  0  0  3  0  0  0  0  0  0
  189.1720  178.9570  142.6690 C   0  0  0  0  0  2  0  0  0  0  0  0
  187.5710  177.2330  143.5120 C   0  0  1  0  0  3  0  0  0  0  0  0
  187.8240  176.6020  145.8260 C   0  0  0  0  0  3  0  0  0  0  0  0
  190.6860  177.7330  145.8320 N   0  0  0  0  0  0  0  0  0  0  0  0
  189.4790  176.7110  147.6580 N   0  0  0  0  0  0  0  0  0  0  0  0
  185.5550  178.3240  142.5020 C   0  0  0  0  0  3  0  0  0  0  0  0
  186.2780  177.9860  143.6500 C   0  0  0  0  0  0  0  0  0  0  0  0
  184.5820  179.0830  144.9870 C   0  0  0  0  0  3  0  0  0  0  0  0
  184.3870  179.0130  142.6080 N   0  0  0  0  0  0  0  0  0  0  0  0
  185.7820  178.3760  144.9010 C   0  0  0  0  0  3  0  0  0  0  0  0
  182.6650  180.1140  143.8850 N   0  0  0  0  0  1  0  0  0  0  0  0
  183.8900  179.3940  143.8160 C   0  0  0  0  0  0  0  0  0  0  0  0
  189.2490  176.5980  141.7560 C   0  0  0  0  0  2  0  0  0  0  0  0
  189.9160  176.9500  140.4270 C   0  0  1  0  0  3  0  0  0  0  0  0
  190.7310  175.9000  139.9950 O   0  0  0  0  0  1  0  0  0  0  0  0
  188.8900  177.3040  139.3620 C   0  0  0  0  0  2  0  0  0  0  0  0
  189.2090  178.6570  138.7530 C   0  0  0  0  0  2  0  0  0  0  0  0
  188.8990  178.6480  137.2670 C   0  0  0  0  0  2  0  0  0  0  0  0
  187.7780  179.4390  137.0100 O   0  0  0  0  0  1  0  0  0  0  0  0
  1 12  1  0  0  0  0
  1  3  1  0  0  0  0
  2  6  2  0  0  0  0
  4 20  1  1  0  0  0
  4  8  1  0  0  0  0
  4  9  1  0  0  0  0
  5  6  1  0  0  0  0
  5 10  2  0  0  0  0
  6 11  1  0  0  0  0
  7 12  2  0  0  0  0
  8  2  1  0  0  0  0
  9 14  1  1  0  0  0
  9  5  1  0  0  0  0
 10  7  1  0  0  0  0
 11  1  2  0  0  0  0
 13 16  2  0  0  0  0
 13 14  1  0  0  0  0
 14 17  2  0  0  0  0
 16 19  1  0  0  0  0
 17 15  1  0  0  0  0
 19 18  1  0  0  0  0
 19 15  2  0  0  0  0
 21 22  1  6  0  0  0
 21 20  1  0  0  0  0
 23 21  1  0  0  0  0
 24 23  1  0  0  0  0
 25 24  1  0  0  0  0
 26 25  1  0  0  0  0
M  END
>  <MODEL>
9

>  <REMARK>
 VINA RESULT:      -6.7      3.290      6.221
  Name = 
  6 active torsions:
  status: ('A' for Active; 'I' for Inactive)
    1  A    between atoms: C_4  and  C_21
    2  A    between atoms: C_6  and  C_14
    3  A    between atoms: C_11  and  C_14
    4  A    between atoms: C_11  and  C_25
    5  A    between atoms: C_12  and  C_24
    6  A    between atoms: C_24  and  C_25
                            x       y       z     vdW  Elec       q    Type
                         _______ _______ _______ _____ _____    ______ ____

>  <TORSDO>
F 6

$$$$
