=
 OpenBabel10232412403D

 37 40  0  0  1  0  0  0  0  0999 V2000
  188.5130  178.1620  140.7360 C   0  0  0  0  0  0  0  0  0  0  0  0
  187.1260  176.1330  144.1810 F   0  0  0  0  0  0  0  0  0  0  0  0
  187.3840  178.5080  141.3500 C   0  0  0  0  0  3  0  0  0  0  0  0
  187.6140  176.8140  143.1110 C   0  0  0  0  0  0  0  0  0  0  0  0
  189.3420  177.0670  141.2770 C   0  0  0  0  0  0  0  0  0  0  0  0
  186.9150  177.8390  142.5810 C   0  0  0  0  0  0  0  0  0  0  0  0
  190.3970  176.7220  140.6750 O   0  0  0  0  0  0  0  0  0  0  0  0
  188.9160  176.3240  142.5210 C   0  0  1  0  0  3  0  0  0  0  0  0
  183.5200  178.9240  143.6350 C   0  0  0  0  0  0  0  0  0  0  0  0
  184.3470  178.4730  142.5540 C   0  0  0  0  0  0  0  0  0  0  0  0
  181.5900  178.8150  142.0770 C   0  0  0  0  0  3  0  0  0  0  0  0
  182.0500  179.1740  143.4800 C   0  0  0  0  0  2  0  0  0  0  0  0
  183.8640  178.1430  141.3580 C   0  0  0  0  0  3  0  0  0  0  0  0
  185.5330  178.6150  144.4430 N   0  0  0  0  0  0  0  0  0  0  0  0
  184.2070  178.9960  144.7260 N   0  0  0  0  0  0  0  0  0  0  0  0
  182.4170  178.3440  141.1170 C   0  0  0  0  0  3  0  0  0  0  0  0
  185.6530  178.3170  143.1830 C   0  0  0  0  0  0  0  0  0  0  0  0
  189.9750  177.2770  144.5280 C   0  0  0  0  0  3  0  0  0  0  0  0
  189.9740  176.3500  143.5780 C   0  0  0  0  0  3  0  0  0  0  0  0
  192.0430  178.0550  145.3220 O   0  0  0  0  0  0  0  0  0  0  0  0
  191.0260  177.3470  145.5480 C   0  0  0  0  0  0  0  0  0  0  0  0
  190.9490  176.5310  146.8080 C   0  0  1  0  0  3  0  0  0  0  0  0
  191.8560  177.0310  147.7400 O   0  0  0  0  0  1  0  0  0  0  0  0
  189.5510  176.5560  147.4060 C   0  0  0  0  0  2  0  0  0  0  0  0
  187.8760  178.2370  147.4860 O   0  0  0  0  0  0  0  0  0  0  0  0
  189.1930  177.9490  147.8880 C   0  0  1  0  0  3  0  0  0  0  0  0
  188.0600  177.8720  148.8330 C   0  0  0  0  0  2  0  0  0  0  0  0
  188.8890  178.8500  139.4670 C   0  0  0  0  0  2  0  0  0  0  0  0
  187.9760  178.4480  138.4070 N   0  0  0  0  0  2  0  0  0  0  0  0
  188.7260  177.6640  137.4360 C   0  0  0  0  0  2  0  0  0  0  0  0
  188.3720  176.1910  137.5690 C   0  0  0  0  0  2  0  0  0  0  0  0
  189.6030  175.3270  137.3600 C   0  0  0  0  0  2  0  0  0  0  0  0
  190.8350  176.2140  137.2790 C   0  0  0  0  0  2  0  0  0  0  0  0
  192.0620  175.4460  137.7300 C   0  0  0  0  0  2  0  0  0  0  0  0
  193.4370  176.9150  139.0050 O   0  0  0  0  0  1  0  0  0  0  0  0
  193.2070  176.3860  137.8860 C   0  0  0  0  0  0  0  0  0  0  0  0
  194.0460  176.6510  136.8080 O   0  0  0  0  0  0  0  0  0  0  0  0
  1  5  1  0  0  0  0
  1  3  2  0  0  0  0
  3  6  1  0  0  0  0
  4  2  1  0  0  0  0
  5  8  1  0  0  0  0
  6  4  2  0  0  0  0
  6 17  1  0  0  0  0
  7  5  2  0  0  0  0
  8  4  1  0  0  0  0
  8 19  1  1  0  0  0
  9 15  2  0  0  0  0
 10 17  1  0  0  0  0
 10  9  1  0  0  0  0
 11 12  1  0  0  0  0
 12  9  1  0  0  0  0
 13 10  2  0  0  0  0
 14 15  1  0  0  0  0
 16 13  1  0  0  0  0
 16 11  2  0  0  0  0
 17 14  2  0  0  0  0
 18 21  1  0  0  0  0
 19 18  2  0  0  0  0
 20 21  2  0  0  0  0
 21 22  1  0  0  0  0
 22 24  1  0  0  0  0
 22 23  1  1  0  0  0
 25 26  1  0  0  0  0
 25 27  1  0  0  0  0
 26 24  1  6  0  0  0
 26 27  1  0  0  0  0
 28  1  1  0  0  0  0
 29 28  1  0  0  0  0
 30 31  1  0  0  0  0
 30 29  1  0  0  0  0
 32 31  1  0  0  0  0
 33 32  1  0  0  0  0
 33 34  1  0  0  0  0
 34 36  1  0  0  0  0
 36 35  1  0  0  0  0
 37 36  2  0  0  0  0
M  END
>  <MODEL>
1

>  <REMARK>
 VINA RESULT:      -8.2      0.000      0.000
  Name = 
  14 active torsions:
  status: ('A' for Active; 'I' for Inactive)
    1  A    between atoms: C_3  and  C_9
    2  A    between atoms: C_6  and  C_28
    3  A    between atoms: C_8  and  C_30
    4  A    between atoms: C_8  and  C_37
    5  A    between atoms: C_9  and  N_13
    6  A    between atoms: N_13  and  C_20
    7  A    between atoms: C_15  and  C_33
    8  A    between atoms: C_16  and  C_30
    9  A    between atoms: C_20  and  C_35
   10  A    between atoms: C_22  and  C_32
   11  A    between atoms: C_24  and  C_28
   12  A    between atoms: C_24  and  C_33
   13  A    between atoms: C_26  and  C_34
   14  A    between atoms: C_35  and  C_37
                            x       y       z     vdW  Elec       q    Type
                         _______ _______ _______ _____ _____    ______ ____

>  <TORSDO>
F 14

$$$$
=
 OpenBabel10232412403D

 37 40  0  0  1  0  0  0  0  0999 V2000
  188.5800  178.0750  140.7140 C   0  0  0  0  0  0  0  0  0  0  0  0
  187.1900  176.1590  144.2210 F   0  0  0  0  0  0  0  0  0  0  0  0
  187.4540  178.4450  141.3190 C   0  0  0  0  0  3  0  0  0  0  0  0
  187.6790  176.8040  143.1290 C   0  0  0  0  0  0  0  0  0  0  0  0
  189.4050  176.9930  141.2860 C   0  0  0  0  0  0  0  0  0  0  0  0
  186.9830  177.8160  142.5700 C   0  0  0  0  0  0  0  0  0  0  0  0
  190.4560  176.6260  140.6930 O   0  0  0  0  0  0  0  0  0  0  0  0
  188.9770  176.2900  142.5520 C   0  0  1  0  0  3  0  0  0  0  0  0
  183.5960  178.9490  143.5970 C   0  0  0  0  0  0  0  0  0  0  0  0
  184.4190  178.4620  142.5280 C   0  0  0  0  0  0  0  0  0  0  0  0
  181.6630  178.8020  142.0460 C   0  0  0  0  0  3  0  0  0  0  0  0
  182.1270  179.2010  143.4370 C   0  0  0  0  0  2  0  0  0  0  0  0
  183.9320  178.0980  141.3440 C   0  0  0  0  0  3  0  0  0  0  0  0
  185.6090  178.6540  144.4100 N   0  0  0  0  0  0  0  0  0  0  0  0
  184.2850  179.0500  144.6840 N   0  0  0  0  0  0  0  0  0  0  0  0
  182.4850  178.2990  141.1000 C   0  0  0  0  0  3  0  0  0  0  0  0
  185.7250  178.3180  143.1590 C   0  0  0  0  0  0  0  0  0  0  0  0
  189.9950  177.2440  144.5800 C   0  0  0  0  0  3  0  0  0  0  0  0
  190.0370  176.3430  143.6070 C   0  0  0  0  0  3  0  0  0  0  0  0
  192.0590  178.0510  145.3570 O   0  0  0  0  0  0  0  0  0  0  0  0
  191.0460  177.3410  145.5980 C   0  0  0  0  0  0  0  0  0  0  0  0
  190.9740  176.5510  146.8740 C   0  0  1  0  0  3  0  0  0  0  0  0
  191.8580  177.0930  147.8060 O   0  0  0  0  0  1  0  0  0  0  0  0
  189.5700  176.5530  147.4550 C   0  0  0  0  0  2  0  0  0  0  0  0
  187.9490  178.2880  147.4890 O   0  0  0  0  0  0  0  0  0  0  0  0
  189.2090  177.9230  147.9980 C   0  0  1  0  0  3  0  0  0  0  0  0
  187.9840  177.8260  148.8180 C   0  0  0  0  0  2  0  0  0  0  0  0
  188.9570  178.7220  139.4240 C   0  0  0  0  0  2  0  0  0  0  0  0
  187.8110  178.7230  138.5270 N   0  0  0  0  0  2  0  0  0  0  0  0
  187.8240  177.4770  137.7730 C   0  0  0  0  0  2  0  0  0  0  0  0
  186.4340  177.1820  137.2290 C   0  0  0  0  0  2  0  0  0  0  0  0
  185.3950  178.0320  137.9370 C   0  0  0  0  0  2  0  0  0  0  0  0
  184.0070  177.4930  137.6340 C   0  0  0  0  0  2  0  0  0  0  0  0
  184.1080  176.1300  136.9770 C   0  0  0  0  0  2  0  0  0  0  0  0
  183.9700  173.8900  137.7770 O   0  0  0  0  0  0  0  0  0  0  0  0
  183.6070  175.0880  137.9170 C   0  0  0  0  0  0  0  0  0  0  0  0
  182.7730  175.4410  138.9720 O   0  0  0  0  0  1  0  0  0  0  0  0
  1  5  1  0  0  0  0
  1  3  2  0  0  0  0
  3  6  1  0  0  0  0
  4  2  1  0  0  0  0
  5  8  1  0  0  0  0
  6  4  2  0  0  0  0
  6 17  1  0  0  0  0
  7  5  2  0  0  0  0
  8  4  1  0  0  0  0
  8 19  1  1  0  0  0
  9 15  2  0  0  0  0
 10 17  1  0  0  0  0
 10  9  1  0  0  0  0
 11 12  1  0  0  0  0
 12  9  1  0  0  0  0
 13 10  2  0  0  0  0
 14 15  1  0  0  0  0
 16 13  1  0  0  0  0
 16 11  2  0  0  0  0
 17 14  2  0  0  0  0
 18 21  1  0  0  0  0
 19 18  2  0  0  0  0
 20 21  2  0  0  0  0
 21 22  1  0  0  0  0
 22 24  1  0  0  0  0
 22 23  1  1  0  0  0
 25 26  1  0  0  0  0
 25 27  1  0  0  0  0
 26 24  1  6  0  0  0
 26 27  1  0  0  0  0
 28  1  1  0  0  0  0
 29 28  1  0  0  0  0
 30 29  1  0  0  0  0
 31 30  1  0  0  0  0
 31 32  1  0  0  0  0
 33 32  1  0  0  0  0
 34 33  1  0  0  0  0
 34 36  1  0  0  0  0
 35 36  2  0  0  0  0
 36 37  1  0  0  0  0
M  END
>  <MODEL>
2

>  <REMARK>
 VINA RESULT:      -8.1      2.279      3.570
  Name = 
  14 active torsions:
  status: ('A' for Active; 'I' for Inactive)
    1  A    between atoms: C_3  and  C_9
    2  A    between atoms: C_6  and  C_28
    3  A    between atoms: C_8  and  C_30
    4  A    between atoms: C_8  and  C_37
    5  A    between atoms: C_9  and  N_13
    6  A    between atoms: N_13  and  C_20
    7  A    between atoms: C_15  and  C_33
    8  A    between atoms: C_16  and  C_30
    9  A    between atoms: C_20  and  C_35
   10  A    between atoms: C_22  and  C_32
   11  A    between atoms: C_24  and  C_28
   12  A    between atoms: C_24  and  C_33
   13  A    between atoms: C_26  and  C_34
   14  A    between atoms: C_35  and  C_37
                            x       y       z     vdW  Elec       q    Type
                         _______ _______ _______ _____ _____    ______ ____

>  <TORSDO>
F 14

$$$$
=
 OpenBabel10232412403D

 37 40  0  0  1  0  0  0  0  0999 V2000
  189.3050  176.4850  142.5260 C   0  0  0  0  0  0  0  0  0  0  0  0
  186.7610  179.5090  141.0140 F   0  0  0  0  0  0  0  0  0  0  0  0
  188.1910  176.8470  143.1570 C   0  0  0  0  0  3  0  0  0  0  0  0
  187.5550  178.4980  141.4570 C   0  0  0  0  0  0  0  0  0  0  0  0
  189.6650  177.1150  141.2400 C   0  0  0  0  0  0  0  0  0  0  0  0
  187.2700  177.8670  142.6150 C   0  0  0  0  0  0  0  0  0  0  0  0
  190.7380  176.7900  140.6610 O   0  0  0  0  0  0  0  0  0  0  0  0
  188.7820  178.1800  140.6350 C   0  0  1  0  0  3  0  0  0  0  0  0
  183.9580  178.6190  144.1230 C   0  0  0  0  0  0  0  0  0  0  0  0
  184.7010  178.4180  142.9130 C   0  0  0  0  0  0  0  0  0  0  0  0
  181.9090  178.7670  142.7270 C   0  0  0  0  0  3  0  0  0  0  0  0
  182.4770  178.8510  144.1340 C   0  0  0  0  0  2  0  0  0  0  0  0
  184.1270  178.3190  141.7150 C   0  0  0  0  0  3  0  0  0  0  0  0
  186.0340  178.2140  144.6960 N   0  0  0  0  0  0  0  0  0  0  0  0
  184.7290  178.4920  145.1500 N   0  0  0  0  0  0  0  0  0  0  0  0
  182.6620  178.5220  141.6320 C   0  0  0  0  0  3  0  0  0  0  0  0
  186.0550  178.1780  143.3960 C   0  0  0  0  0  0  0  0  0  0  0  0
  188.8490  178.4830  138.1930 C   0  0  0  0  0  3  0  0  0  0  0  0
  188.3620  177.8320  139.2410 C   0  0  0  0  0  3  0  0  0  0  0  0
  187.3330  178.6770  136.4100 O   0  0  0  0  0  0  0  0  0  0  0  0
  188.4180  178.1880  136.8230 C   0  0  0  0  0  0  0  0  0  0  0  0
  189.2000  177.2540  135.9410 C   0  0  1  0  0  3  0  0  0  0  0  0
  190.3950  176.9120  136.5730 O   0  0  0  0  0  1  0  0  0  0  0  0
  188.4160  175.9880  135.6330 C   0  0  0  0  0  2  0  0  0  0  0  0
  187.0790  174.9290  137.2850 O   0  0  0  0  0  0  0  0  0  0  0  0
  188.4040  175.0530  136.8280 C   0  0  1  0  0  3  0  0  0  0  0  0
  187.5860  173.8620  136.5190 C   0  0  0  0  0  2  0  0  0  0  0  0
  190.2100  175.4870  143.1670 C   0  0  0  0  0  2  0  0  0  0  0  0
  191.5130  176.0920  143.4020 N   0  0  0  0  0  2  0  0  0  0  0  0
  191.4010  176.9790  144.5520 C   0  0  0  0  0  2  0  0  0  0  0  0
  191.7930  176.2390  145.8220 C   0  0  0  0  0  2  0  0  0  0  0  0
  190.8770  176.6300  146.9680 C   0  0  0  0  0  2  0  0  0  0  0  0
  189.7490  177.5010  146.4410 C   0  0  0  0  0  2  0  0  0  0  0  0
  188.4250  177.0540  147.0300 C   0  0  0  0  0  2  0  0  0  0  0  0
  188.6660  178.2360  149.0850 O   0  0  0  0  0  1  0  0  0  0  0  0
  187.9760  178.0440  148.0490 C   0  0  0  0  0  0  0  0  0  0  0  0
  186.8170  178.7860  147.8400 O   0  0  0  0  0  0  0  0  0  0  0  0
  1  3  2  0  0  0  0
  1 28  1  0  0  0  0
  2  4  1  0  0  0  0
  4  6  2  0  0  0  0
  5  1  1  0  0  0  0
  6  3  1  0  0  0  0
  6 17  1  0  0  0  0
  7  5  2  0  0  0  0
  8 19  1  6  0  0  0
  8  5  1  0  0  0  0
  8  4  1  0  0  0  0
  9 12  1  0  0  0  0
  9 15  2  0  0  0  0
 10 17  1  0  0  0  0
 10  9  1  0  0  0  0
 11 12  1  0  0  0  0
 13 10  2  0  0  0  0
 14 15  1  0  0  0  0
 16 13  1  0  0  0  0
 16 11  2  0  0  0  0
 17 14  2  0  0  0  0
 18 19  2  0  0  0  0
 20 21  2  0  0  0  0
 21 18  1  0  0  0  0
 22 23  1  1  0  0  0
 22 21  1  0  0  0  0
 24 22  1  0  0  0  0
 26 24  1  6  0  0  0
 26 25  1  0  0  0  0
 27 26  1  0  0  0  0
 27 25  1  0  0  0  0
 28 29  1  0  0  0  0
 29 30  1  0  0  0  0
 30 31  1  0  0  0  0
 31 32  1  0  0  0  0
 33 32  1  0  0  0  0
 33 34  1  0  0  0  0
 34 36  1  0  0  0  0
 36 35  1  0  0  0  0
 37 36  2  0  0  0  0
M  END
>  <MODEL>
3

>  <REMARK>
 VINA RESULT:      -7.8      2.251      7.422
  Name = 
  14 active torsions:
  status: ('A' for Active; 'I' for Inactive)
    1  A    between atoms: C_3  and  C_9
    2  A    between atoms: C_6  and  C_28
    3  A    between atoms: C_8  and  C_30
    4  A    between atoms: C_8  and  C_37
    5  A    between atoms: C_9  and  N_13
    6  A    between atoms: N_13  and  C_20
    7  A    between atoms: C_15  and  C_33
    8  A    between atoms: C_16  and  C_30
    9  A    between atoms: C_20  and  C_35
   10  A    between atoms: C_22  and  C_32
   11  A    between atoms: C_24  and  C_28
   12  A    between atoms: C_24  and  C_33
   13  A    between atoms: C_26  and  C_34
   14  A    between atoms: C_35  and  C_37
                            x       y       z     vdW  Elec       q    Type
                         _______ _______ _______ _____ _____    ______ ____

>  <TORSDO>
F 14

$$$$
=
 OpenBabel10232412403D

 37 40  0  0  1  0  0  0  0  0999 V2000
  186.8400  178.6200  141.2450 C   0  0  0  0  0  0  0  0  0  0  0  0
  183.1010  178.8220  143.2170 F   0  0  0  0  0  0  0  0  0  0  0  0
  186.7420  178.5980  142.5730 C   0  0  0  0  0  3  0  0  0  0  0  0
  184.2900  178.6980  142.5700 C   0  0  0  0  0  0  0  0  0  0  0  0
  185.6200  178.6770  140.4150 C   0  0  0  0  0  0  0  0  0  0  0  0
  185.4400  178.6190  143.2710 C   0  0  0  0  0  0  0  0  0  0  0  0
  185.7190  178.7280  139.1580 O   0  0  0  0  0  0  0  0  0  0  0  0
  184.2550  178.7220  141.0600 C   0  0  1  0  0  3  0  0  0  0  0  0
  185.9740  178.3600  146.9400 C   0  0  0  0  0  0  0  0  0  0  0  0
  186.5180  178.1230  145.6340 C   0  0  0  0  0  0  0  0  0  0  0  0
  188.1520  177.6240  147.8770 C   0  0  0  0  0  3  0  0  0  0  0  0
  186.7420  178.0940  148.1980 C   0  0  0  0  0  2  0  0  0  0  0  0
  187.7780  177.7450  145.4300 C   0  0  0  0  0  3  0  0  0  0  0  0
  184.4800  179.0290  145.4820 N   0  0  0  0  0  0  0  0  0  0  0  0
  184.8010  178.8920  146.8470 N   0  0  0  0  0  0  0  0  0  0  0  0
  188.6180  177.4700  146.6180 C   0  0  0  0  0  3  0  0  0  0  0  0
  185.4540  178.5770  144.7480 C   0  0  0  0  0  0  0  0  0  0  0  0
  182.2610  177.8770  139.8890 C   0  0  0  0  0  3  0  0  0  0  0  0
  183.3700  177.6190  140.5720 C   0  0  0  0  0  3  0  0  0  0  0  0
  180.6020  176.2630  140.2840 O   0  0  0  0  0  0  0  0  0  0  0  0
  181.3580  176.8130  139.4400 C   0  0  0  0  0  0  0  0  0  0  0  0
  181.3780  176.3180  138.0200 C   0  0  1  0  0  3  0  0  0  0  0  0
  181.9950  177.2670  137.2070 O   0  0  0  0  0  1  0  0  0  0  0  0
  182.1190  174.9960  137.8990 C   0  0  0  0  0  2  0  0  0  0  0  0
  184.2890  174.0310  137.8960 O   0  0  0  0  0  0  0  0  0  0  0  0
  183.5930  175.2240  137.6240 C   0  0  1  0  0  3  0  0  0  0  0  0
  184.0410  174.3240  136.5410 C   0  0  0  0  0  2  0  0  0  0  0  0
  188.1930  178.6510  140.6180 C   0  0  0  0  0  2  0  0  0  0  0  0
  188.6460  177.2900  140.3720 N   0  0  0  0  0  2  0  0  0  0  0  0
  190.0460  177.2010  140.7660 C   0  0  0  0  0  2  0  0  0  0  0  0
  190.1800  177.4220  142.2660 C   0  0  0  0  0  2  0  0  0  0  0  0
  190.1120  176.0980  143.0060 C   0  0  0  0  0  2  0  0  0  0  0  0
  191.3960  175.8890  143.7900 C   0  0  0  0  0  2  0  0  0  0  0  0
  191.5280  176.9460  144.8690 C   0  0  0  0  0  2  0  0  0  0  0  0
  191.8500  176.9390  147.2290 O   0  0  0  0  0  1  0  0  0  0  0  0
  191.9410  176.3020  146.1470 C   0  0  0  0  0  0  0  0  0  0  0  0
  192.3900  174.9850  146.1530 O   0  0  0  0  0  0  0  0  0  0  0  0
  1  3  2  0  0  0  0
  3  6  1  0  0  0  0
  4  2  1  0  0  0  0
  4  6  2  0  0  0  0
  5  8  1  0  0  0  0
  5  1  1  0  0  0  0
  6 17  1  0  0  0  0
  7  5  2  0  0  0  0
  8 19  1  6  0  0  0
  8  4  1  0  0  0  0
  9 12  1  0  0  0  0
 10  9  1  0  0  0  0
 11 12  1  0  0  0  0
 13 10  2  0  0  0  0
 13 16  1  0  0  0  0
 14 15  1  0  0  0  0
 15  9  2  0  0  0  0
 16 11  2  0  0  0  0
 17 14  2  0  0  0  0
 17 10  1  0  0  0  0
 18 19  2  0  0  0  0
 21 18  1  0  0  0  0
 21 20  2  0  0  0  0
 22 23  1  6  0  0  0
 22 21  1  0  0  0  0
 24 22  1  0  0  0  0
 26 25  1  0  0  0  0
 26 24  1  1  0  0  0
 27 26  1  0  0  0  0
 27 25  1  0  0  0  0
 28  1  1  0  0  0  0
 29 28  1  0  0  0  0
 29 30  1  0  0  0  0
 30 31  1  0  0  0  0
 31 32  1  0  0  0  0
 32 33  1  0  0  0  0
 33 34  1  0  0  0  0
 34 36  1  0  0  0  0
 36 37  2  0  0  0  0
 36 35  1  0  0  0  0
M  END
>  <MODEL>
4

>  <REMARK>
 VINA RESULT:      -7.6      3.434      7.704
  Name = 
  14 active torsions:
  status: ('A' for Active; 'I' for Inactive)
    1  A    between atoms: C_3  and  C_9
    2  A    between atoms: C_6  and  C_28
    3  A    between atoms: C_8  and  C_30
    4  A    between atoms: C_8  and  C_37
    5  A    between atoms: C_9  and  N_13
    6  A    between atoms: N_13  and  C_20
    7  A    between atoms: C_15  and  C_33
    8  A    between atoms: C_16  and  C_30
    9  A    between atoms: C_20  and  C_35
   10  A    between atoms: C_22  and  C_32
   11  A    between atoms: C_24  and  C_28
   12  A    between atoms: C_24  and  C_33
   13  A    between atoms: C_26  and  C_34
   14  A    between atoms: C_35  and  C_37
                            x       y       z     vdW  Elec       q    Type
                         _______ _______ _______ _____ _____    ______ ____

>  <TORSDO>
F 14

$$$$
=
 OpenBabel10232412403D

 37 40  0  0  1  0  0  0  0  0999 V2000
  188.9920  178.1080  140.0240 C   0  0  0  0  0  0  0  0  0  0  0  0
  187.7720  176.2420  143.6210 F   0  0  0  0  0  0  0  0  0  0  0  0
  187.8060  178.3530  140.5770 C   0  0  0  0  0  3  0  0  0  0  0  0
  188.2010  176.8790  142.4990 C   0  0  0  0  0  0  0  0  0  0  0  0
  189.9410  177.1920  140.6860 C   0  0  0  0  0  0  0  0  0  0  0  0
  187.3890  177.7440  141.8570 C   0  0  0  0  0  0  0  0  0  0  0  0
  191.0520  176.9400  140.1430 O   0  0  0  0  0  0  0  0  0  0  0  0
  189.5760  176.5180  141.9880 C   0  0  1  0  0  3  0  0  0  0  0  0
  184.2580  178.6330  143.6520 C   0  0  0  0  0  0  0  0  0  0  0  0
  185.6280  178.2270  143.7700 C   0  0  2  0  0  3  0  0  0  0  0  0
  184.2050  178.8380  146.1260 C   0  0  0  0  0  3  0  0  0  0  0  0
  183.4000  178.9450  144.8410 C   0  0  0  0  0  3  0  0  0  0  0  0
  186.2780  178.1920  144.9320 C   0  0  0  0  0  3  0  0  0  0  0  0
  185.0530  178.4270  141.6200 N   0  0  0  0  0  0  0  0  0  0  0  0
  183.9330  178.7570  142.4090 N   0  0  0  0  0  0  0  0  0  0  0  0
  185.5120  178.4980  146.1620 C   0  0  0  0  0  3  0  0  0  0  0  0
  186.0540  178.1000  142.3820 C   0  0  0  0  0  0  0  0  0  0  0  0
  190.2350  176.8230  144.3400 C   0  0  0  0  0  3  0  0  0  0  0  0
  190.5840  176.7880  143.0590 C   0  0  0  0  0  3  0  0  0  0  0  0
  192.1350  177.9350  145.1570 O   0  0  0  0  0  0  0  0  0  0  0  0
  191.1980  177.1290  145.4020 C   0  0  0  0  0  0  0  0  0  0  0  0
  191.1340  176.4420  146.7370 C   0  0  1  0  0  3  0  0  0  0  0  0
  192.4240  176.1240  147.1580 O   0  0  0  0  0  1  0  0  0  0  0  0
  190.4670  177.3170  147.7850 C   0  0  0  0  0  2  0  0  0  0  0  0
  188.1700  176.8540  148.1750 O   0  0  0  0  0  0  0  0  0  0  0  0
  189.0360  177.6400  147.3930 C   0  0  1  0  0  3  0  0  0  0  0  0
  188.3170  178.2020  148.5540 C   0  0  0  0  0  2  0  0  0  0  0  0
  189.3150  178.7180  138.7020 C   0  0  0  0  0  2  0  0  0  0  0  0
  188.0830  178.9820  137.9730 N   0  0  0  0  0  2  0  0  0  0  0  0
  188.2530  178.5040  136.6080 C   0  0  0  0  0  2  0  0  0  0  0  0
  186.9400  177.9410  136.0850 C   0  0  0  0  0  2  0  0  0  0  0  0
  186.4230  176.8530  137.0090 C   0  0  0  0  0  2  0  0  0  0  0  0
  184.9210  177.0080  137.1830 C   0  0  0  0  0  2  0  0  0  0  0  0
  184.6220  177.9770  138.3110 C   0  0  0  0  0  2  0  0  0  0  0  0
  182.3350  177.6570  137.7240 O   0  0  0  0  0  0  0  0  0  0  0  0
  183.2040  178.4230  138.2190 C   0  0  0  0  0  0  0  0  0  0  0  0
  182.8300  179.6680  138.7140 O   0  0  0  0  0  1  0  0  0  0  0  0
  1  3  2  0  0  0  0
  1  5  1  0  0  0  0
  3  6  1  0  0  0  0
  4  2  1  0  0  0  0
  5  8  1  0  0  0  0
  6 17  1  0  0  0  0
  6  4  2  0  0  0  0
  7  5  2  0  0  0  0
  8  4  1  0  0  0  0
  8 19  1  1  0  0  0
  9 10  1  0  0  0  0
  9 12  1  0  0  0  0
 10 13  1  6  0  0  0
 11 16  1  0  0  0  0
 12 11  2  0  0  0  0
 13 16  2  0  0  0  0
 14 17  2  0  0  0  0
 14 15  1  0  0  0  0
 15  9  2  0  0  0  0
 17 10  1  0  0  0  0
 18 21  1  0  0  0  0
 19 18  2  0  0  0  0
 20 21  2  0  0  0  0
 21 22  1  0  0  0  0
 22 23  1  1  0  0  0
 22 24  1  0  0  0  0
 25 27  1  0  0  0  0
 26 24  1  1  0  0  0
 26 25  1  0  0  0  0
 26 27  1  0  0  0  0
 28  1  1  0  0  0  0
 29 28  1  0  0  0  0
 30 29  1  0  0  0  0
 31 30  1  0  0  0  0
 31 32  1  0  0  0  0
 32 33  1  0  0  0  0
 33 34  1  0  0  0  0
 35 36  2  0  0  0  0
 36 34  1  0  0  0  0
 36 37  1  0  0  0  0
M  END
>  <MODEL>
5

>  <REMARK>
 VINA RESULT:      -7.6      2.536      4.031
  Name = 
  14 active torsions:
  status: ('A' for Active; 'I' for Inactive)
    1  A    between atoms: C_3  and  C_9
    2  A    between atoms: C_6  and  C_28
    3  A    between atoms: C_8  and  C_30
    4  A    between atoms: C_8  and  C_37
    5  A    between atoms: C_9  and  N_13
    6  A    between atoms: N_13  and  C_20
    7  A    between atoms: C_15  and  C_33
    8  A    between atoms: C_16  and  C_30
    9  A    between atoms: C_20  and  C_35
   10  A    between atoms: C_22  and  C_32
   11  A    between atoms: C_24  and  C_28
   12  A    between atoms: C_24  and  C_33
   13  A    between atoms: C_26  and  C_34
   14  A    between atoms: C_35  and  C_37
                            x       y       z     vdW  Elec       q    Type
                         _______ _______ _______ _____ _____    ______ ____

>  <TORSDO>
F 14

$$$$
=
 OpenBabel10232412403D

 37 40  0  0  1  0  0  0  0  0999 V2000
  188.1210  178.0110  139.1380 C   0  0  0  0  0  0  0  0  0  0  0  0
  191.2010  176.0250  141.2530 F   0  0  0  0  0  0  0  0  0  0  0  0
  188.3510  178.2420  140.4290 C   0  0  0  0  0  3  0  0  0  0  0  0
  190.2560  176.6990  140.5470 C   0  0  0  0  0  0  0  0  0  0  0  0
  188.9760  177.0670  138.3930 C   0  0  0  0  0  0  0  0  0  0  0  0
  189.4530  177.5910  141.1650 C   0  0  0  0  0  0  0  0  0  0  0  0
  188.7360  176.8280  137.1770 O   0  0  0  0  0  0  0  0  0  0  0  0
  190.1110  176.3490  139.0850 C   0  0  1  0  0  3  0  0  0  0  0  0
  189.4250  178.2050  144.8310 C   0  0  0  0  0  0  0  0  0  0  0  0
  188.7020  177.7030  143.6990 C   0  0  0  0  0  0  0  0  0  0  0  0
  187.5580  177.4030  146.2580 C   0  0  0  0  0  3  0  0  0  0  0  0
  188.8920  178.1310  146.2300 C   0  0  0  0  0  2  0  0  0  0  0  0
  187.5510  177.0420  143.8060 C   0  0  0  0  0  3  0  0  0  0  0  0
  190.7090  178.4640  143.0740 N   0  0  0  0  0  0  0  0  0  0  0  0
  190.5870  178.6350  144.4670 N   0  0  0  0  0  0  0  0  0  0  0  0
  186.9550  176.9080  145.1550 C   0  0  0  0  0  3  0  0  0  0  0  0
  189.6220  177.9360  142.5930 C   0  0  0  0  0  0  0  0  0  0  0  0
  192.0310  175.5950  137.7420 C   0  0  0  0  0  3  0  0  0  0  0  0
  191.4190  176.5750  138.3950 C   0  0  0  0  0  3  0  0  0  0  0  0
  193.8960  176.9080  137.1830 O   0  0  0  0  0  0  0  0  0  0  0  0
  193.3350  175.7840  137.0970 C   0  0  0  0  0  0  0  0  0  0  0  0
  193.9650  174.6940  136.2750 C   0  0  1  0  0  3  0  0  0  0  0  0
  194.2680  175.1860  135.0070 O   0  0  0  0  0  1  0  0  0  0  0  0
  195.2330  174.1660  136.9240 C   0  0  0  0  0  2  0  0  0  0  0  0
  196.0880  173.0410  138.8330 O   0  0  0  0  0  0  0  0  0  0  0  0
  194.9820  173.7770  138.3690 C   0  0  1  0  0  3  0  0  0  0  0  0
  196.0110  174.3880  139.2350 C   0  0  0  0  0  2  0  0  0  0  0  0
  186.9530  178.6660  138.4810 C   0  0  0  0  0  2  0  0  0  0  0  0
  185.7540  177.8740  138.7180 N   0  0  0  0  0  2  0  0  0  0  0  0
  184.6260  178.7860  138.8410 C   0  0  0  0  0  2  0  0  0  0  0  0
  183.9860  178.6420  140.2130 C   0  0  0  0  0  2  0  0  0  0  0  0
  184.9200  179.1620  141.2920 C   0  0  0  0  0  2  0  0  0  0  0  0
  184.6610  178.4130  142.5890 C   0  0  0  0  0  2  0  0  0  0  0  0
  184.6860  179.3750  143.7610 C   0  0  0  0  0  2  0  0  0  0  0  0
  183.7290  179.0960  145.9260 O   0  0  0  0  0  1  0  0  0  0  0  0
  183.5530  179.0680  144.6790 C   0  0  0  0  0  0  0  0  0  0  0  0
  182.2910  178.7890  144.1630 O   0  0  0  0  0  0  0  0  0  0  0  0
  1  3  2  0  0  0  0
  3  6  1  0  0  0  0
  4  6  2  0  0  0  0
  4  2  1  0  0  0  0
  5  8  1  0  0  0  0
  5  1  1  0  0  0  0
  6 17  1  0  0  0  0
  7  5  2  0  0  0  0
  8 19  1  6  0  0  0
  8  4  1  0  0  0  0
  9 12  1  0  0  0  0
 10 13  2  0  0  0  0
 10  9  1  0  0  0  0
 12 11  1  0  0  0  0
 13 16  1  0  0  0  0
 14 15  1  0  0  0  0
 15  9  2  0  0  0  0
 16 11  2  0  0  0  0
 17 14  2  0  0  0  0
 17 10  1  0  0  0  0
 18 19  2  0  0  0  0
 21 20  2  0  0  0  0
 21 18  1  0  0  0  0
 22 23  1  6  0  0  0
 22 24  1  0  0  0  0
 22 21  1  0  0  0  0
 25 27  1  0  0  0  0
 26 24  1  6  0  0  0
 26 25  1  0  0  0  0
 26 27  1  0  0  0  0
 28 29  1  0  0  0  0
 28  1  1  0  0  0  0
 29 30  1  0  0  0  0
 30 31  1  0  0  0  0
 31 32  1  0  0  0  0
 32 33  1  0  0  0  0
 33 34  1  0  0  0  0
 34 36  1  0  0  0  0
 36 35  1  0  0  0  0
 37 36  2  0  0  0  0
M  END
>  <MODEL>
6

>  <REMARK>
 VINA RESULT:      -7.2      3.074      7.949
  Name = 
  14 active torsions:
  status: ('A' for Active; 'I' for Inactive)
    1  A    between atoms: C_3  and  C_9
    2  A    between atoms: C_6  and  C_28
    3  A    between atoms: C_8  and  C_30
    4  A    between atoms: C_8  and  C_37
    5  A    between atoms: C_9  and  N_13
    6  A    between atoms: N_13  and  C_20
    7  A    between atoms: C_15  and  C_33
    8  A    between atoms: C_16  and  C_30
    9  A    between atoms: C_20  and  C_35
   10  A    between atoms: C_22  and  C_32
   11  A    between atoms: C_24  and  C_28
   12  A    between atoms: C_24  and  C_33
   13  A    between atoms: C_26  and  C_34
   14  A    between atoms: C_35  and  C_37
                            x       y       z     vdW  Elec       q    Type
                         _______ _______ _______ _____ _____    ______ ____

>  <TORSDO>
F 14

$$$$
=
 OpenBabel10232412403D

 37 40  0  0  1  0  0  0  0  0999 V2000
  186.9010  178.4930  141.8030 C   0  0  0  0  0  0  0  0  0  0  0  0
  185.1020  178.9790  145.6020 F   0  0  0  0  0  0  0  0  0  0  0  0
  187.4910  178.0730  142.9200 C   0  0  0  0  0  3  0  0  0  0  0  0
  185.6400  178.7760  144.3710 C   0  0  0  0  0  0  0  0  0  0  0  0
  185.5630  179.1130  141.8620 C   0  0  0  0  0  0  0  0  0  0  0  0
  186.8520  178.1950  144.2460 C   0  0  0  0  0  0  0  0  0  0  0  0
  185.0200  179.5360  140.8040 O   0  0  0  0  0  0  0  0  0  0  0  0
  184.8560  179.2880  143.1860 C   0  0  1  0  0  3  0  0  0  0  0  0
  189.1470  176.9270  146.8800 C   0  0  0  0  0  0  0  0  0  0  0  0
  188.9980  177.2940  145.5020 C   0  0  0  0  0  0  0  0  0  0  0  0
  191.5660  176.5940  146.4310 C   0  0  0  0  0  3  0  0  0  0  0  0
  190.4590  176.5020  147.4680 C   0  0  0  0  0  2  0  0  0  0  0  0
  190.0250  177.3870  144.6600 C   0  0  0  0  0  3  0  0  0  0  0  0
  187.0700  177.5670  146.6000 N   0  0  0  0  0  0  0  0  0  0  0  0
  188.0340  177.0950  147.5120 N   0  0  0  0  0  0  0  0  0  0  0  0
  191.3650  176.9990  145.1580 C   0  0  0  0  0  3  0  0  0  0  0  0
  187.5960  177.6810  145.4160 C   0  0  0  0  0  0  0  0  0  0  0  0
  182.4000  179.3850  143.3170 C   0  0  0  0  0  3  0  0  0  0  0  0
  183.5010  178.6550  143.1840 C   0  0  0  0  0  3  0  0  0  0  0  0
  180.7640  178.0490  144.3410 O   0  0  0  0  0  0  0  0  0  0  0  0
  181.0650  178.7810  143.3610 C   0  0  0  0  0  0  0  0  0  0  0  0
  180.0910  178.9520  142.2290 C   0  0  1  0  0  3  0  0  0  0  0  0
  180.4890  180.0260  141.4340 O   0  0  0  0  0  1  0  0  0  0  0  0
  180.0030  177.7000  141.3720 C   0  0  0  0  0  2  0  0  0  0  0  0
  181.2540  176.3480  139.8730 O   0  0  0  0  0  0  0  0  0  0  0  0
  181.1170  177.6670  140.3430 C   0  0  1  0  0  3  0  0  0  0  0  0
  180.5740  177.2510  139.0350 C   0  0  0  0  0  2  0  0  0  0  0  0
  187.6360  178.3850  140.5100 C   0  0  0  0  0  2  0  0  0  0  0  0
  188.7020  177.4010  140.6370 N   0  0  0  0  0  2  0  0  0  0  0  0
  189.5850  177.5390  139.4870 C   0  0  0  0  0  2  0  0  0  0  0  0
  189.0140  178.5550  138.5090 C   0  0  0  0  0  2  0  0  0  0  0  0
  189.0150  177.9930  137.0990 C   0  0  0  0  0  2  0  0  0  0  0  0
  187.7560  177.1710  136.8800 C   0  0  0  0  0  2  0  0  0  0  0  0
  186.5270  178.0450  137.0400 C   0  0  0  0  0  2  0  0  0  0  0  0
  184.4030  177.6800  138.0550 O   0  0  0  0  0  1  0  0  0  0  0  0
  185.3550  177.1940  137.3900 C   0  0  0  0  0  0  0  0  0  0  0  0
  185.2920  175.8760  136.9480 O   0  0  0  0  0  0  0  0  0  0  0  0
  1  5  1  0  0  0  0
  1  3  2  0  0  0  0
  3  6  1  0  0  0  0
  4  2  1  0  0  0  0
  5  8  1  0  0  0  0
  6  4  2  0  0  0  0
  6 17  1  0  0  0  0
  7  5  2  0  0  0  0
  8 19  1  6  0  0  0
  8  4  1  0  0  0  0
  9 12  1  0  0  0  0
  9 15  2  0  0  0  0
 10  9  1  0  0  0  0
 11 12  1  0  0  0  0
 13 16  1  0  0  0  0
 13 10  2  0  0  0  0
 14 15  1  0  0  0  0
 16 11  2  0  0  0  0
 17 10  1  0  0  0  0
 17 14  2  0  0  0  0
 18 21  1  0  0  0  0
 19 18  2  0  0  0  0
 21 20  2  0  0  0  0
 22 23  1  6  0  0  0
 22 21  1  0  0  0  0
 24 22  1  0  0  0  0
 25 26  1  0  0  0  0
 26 24  1  1  0  0  0
 27 25  1  0  0  0  0
 27 26  1  0  0  0  0
 28 29  1  0  0  0  0
 28  1  1  0  0  0  0
 30 29  1  0  0  0  0
 31 30  1  0  0  0  0
 32 31  1  0  0  0  0
 33 34  1  0  0  0  0
 33 32  1  0  0  0  0
 34 36  1  0  0  0  0
 36 35  1  0  0  0  0
 37 36  2  0  0  0  0
M  END
>  <MODEL>
7

>  <REMARK>
 VINA RESULT:      -7.2      3.816      7.492
  Name = 
  14 active torsions:
  status: ('A' for Active; 'I' for Inactive)
    1  A    between atoms: C_3  and  C_9
    2  A    between atoms: C_6  and  C_28
    3  A    between atoms: C_8  and  C_30
    4  A    between atoms: C_8  and  C_37
    5  A    between atoms: C_9  and  N_13
    6  A    between atoms: N_13  and  C_20
    7  A    between atoms: C_15  and  C_33
    8  A    between atoms: C_16  and  C_30
    9  A    between atoms: C_20  and  C_35
   10  A    between atoms: C_22  and  C_32
   11  A    between atoms: C_24  and  C_28
   12  A    between atoms: C_24  and  C_33
   13  A    between atoms: C_26  and  C_34
   14  A    between atoms: C_35  and  C_37
                            x       y       z     vdW  Elec       q    Type
                         _______ _______ _______ _____ _____    ______ ____

>  <TORSDO>
F 14

$$$$
=
 OpenBabel10232412403D

 37 40  0  0  1  0  0  0  0  0999 V2000
  186.8600  178.4320  141.8470 C   0  0  0  0  0  0  0  0  0  0  0  0
  185.1690  179.0350  145.6790 F   0  0  0  0  0  0  0  0  0  0  0  0
  187.4680  178.0190  142.9570 C   0  0  0  0  0  3  0  0  0  0  0  0
  185.6710  178.7950  144.4390 C   0  0  0  0  0  0  0  0  0  0  0  0
  185.5400  179.0860  141.9270 C   0  0  0  0  0  0  0  0  0  0  0  0
  186.8650  178.1810  144.2960 C   0  0  0  0  0  0  0  0  0  0  0  0
  184.9810  179.5020  140.8740 O   0  0  0  0  0  0  0  0  0  0  0  0
  184.8710  179.3040  143.2630 C   0  0  1  0  0  3  0  0  0  0  0  0
  189.1960  176.9190  146.9010 C   0  0  0  0  0  0  0  0  0  0  0  0
  189.0270  177.2770  145.5230 C   0  0  0  0  0  0  0  0  0  0  0  0
  191.6060  176.5680  146.4130 C   0  0  0  0  0  3  0  0  0  0  0  0
  190.5150  176.4910  147.4690 C   0  0  0  0  0  2  0  0  0  0  0  0
  190.0400  177.3570  144.6630 C   0  0  0  0  0  3  0  0  0  0  0  0
  187.1190  177.5700  146.6500 N   0  0  0  0  0  0  0  0  0  0  0  0
  188.0950  177.0980  147.5500 N   0  0  0  0  0  0  0  0  0  0  0  0
  191.3850  176.9650  145.1410 C   0  0  0  0  0  3  0  0  0  0  0  0
  187.6250  177.6720  145.4570 C   0  0  0  0  0  0  0  0  0  0  0  0
  182.4150  179.4680  143.3250 C   0  0  0  0  0  3  0  0  0  0  0  0
  183.5010  178.7040  143.3070 C   0  0  0  0  0  3  0  0  0  0  0  0
  180.7250  178.3070  144.4680 O   0  0  0  0  0  0  0  0  0  0  0  0
  181.0650  178.9030  143.4120 C   0  0  0  0  0  0  0  0  0  0  0  0
  180.1210  178.9500  142.2430 C   0  0  1  0  0  3  0  0  0  0  0  0
  180.2810  180.1580  141.5670 O   0  0  0  0  0  1  0  0  0  0  0  0
  180.3660  177.8000  141.2790 C   0  0  0  0  0  2  0  0  0  0  0  0
  182.4120  177.3560  140.1590 O   0  0  0  0  0  0  0  0  0  0  0  0
  181.3020  178.2200  140.1610 C   0  0  1  0  0  3  0  0  0  0  0  0
  181.4280  177.1220  139.1800 C   0  0  0  0  0  2  0  0  0  0  0  0
  187.5600  178.2810  140.5390 C   0  0  0  0  0  2  0  0  0  0  0  0
  188.9130  177.7920  140.7640 N   0  0  0  0  0  2  0  0  0  0  0  0
  189.6910  178.0400  139.5580 C   0  0  0  0  0  2  0  0  0  0  0  0
  189.9040  176.7380  138.7980 C   0  0  0  0  0  2  0  0  0  0  0  0
  190.1060  177.0140  137.3190 C   0  0  0  0  0  2  0  0  0  0  0  0
  191.2470  176.1570  136.7950 C   0  0  0  0  0  2  0  0  0  0  0  0
  191.9910  175.5150  137.9500 C   0  0  0  0  0  2  0  0  0  0  0  0
  193.8550  176.9120  137.4520 O   0  0  0  0  0  0  0  0  0  0  0  0
  193.4510  175.7730  137.8050 C   0  0  0  0  0  0  0  0  0  0  0  0
  194.3700  174.7700  138.0970 O   0  0  0  0  0  1  0  0  0  0  0  0
  1  5  1  0  0  0  0
  1  3  2  0  0  0  0
  3  6  1  0  0  0  0
  4  2  1  0  0  0  0
  5  8  1  0  0  0  0
  6  4  2  0  0  0  0
  6 17  1  0  0  0  0
  7  5  2  0  0  0  0
  8 19  1  6  0  0  0
  8  4  1  0  0  0  0
  9 12  1  0  0  0  0
  9 15  2  0  0  0  0
 10  9  1  0  0  0  0
 11 12  1  0  0  0  0
 13 16  1  0  0  0  0
 13 10  2  0  0  0  0
 14 15  1  0  0  0  0
 16 11  2  0  0  0  0
 17 10  1  0  0  0  0
 17 14  2  0  0  0  0
 18 21  1  0  0  0  0
 19 18  2  0  0  0  0
 21 20  2  0  0  0  0
 22 23  1  6  0  0  0
 22 21  1  0  0  0  0
 24 22  1  0  0  0  0
 25 26  1  0  0  0  0
 26 24  1  1  0  0  0
 27 25  1  0  0  0  0
 27 26  1  0  0  0  0
 28 29  1  0  0  0  0
 28  1  1  0  0  0  0
 30 29  1  0  0  0  0
 31 30  1  0  0  0  0
 32 31  1  0  0  0  0
 33 32  1  0  0  0  0
 33 34  1  0  0  0  0
 35 36  2  0  0  0  0
 36 34  1  0  0  0  0
 36 37  1  0  0  0  0
M  END
>  <MODEL>
8

>  <REMARK>
 VINA RESULT:      -7.2      3.096      6.931
  Name = 
  14 active torsions:
  status: ('A' for Active; 'I' for Inactive)
    1  A    between atoms: C_3  and  C_9
    2  A    between atoms: C_6  and  C_28
    3  A    between atoms: C_8  and  C_30
    4  A    between atoms: C_8  and  C_37
    5  A    between atoms: C_9  and  N_13
    6  A    between atoms: N_13  and  C_20
    7  A    between atoms: C_15  and  C_33
    8  A    between atoms: C_16  and  C_30
    9  A    between atoms: C_20  and  C_35
   10  A    between atoms: C_22  and  C_32
   11  A    between atoms: C_24  and  C_28
   12  A    between atoms: C_24  and  C_33
   13  A    between atoms: C_26  and  C_34
   14  A    between atoms: C_35  and  C_37
                            x       y       z     vdW  Elec       q    Type
                         _______ _______ _______ _____ _____    ______ ____

>  <TORSDO>
F 14

$$$$
=
 OpenBabel10232412403D

 37 40  0  0  1  0  0  0  0  0999 V2000
  190.2220  177.3200  141.3270 C   0  0  0  0  0  0  0  0  0  0  0  0
  187.6230  178.7400  138.3060 F   0  0  0  0  0  0  0  0  0  0  0  0
  188.9570  177.6430  141.5830 C   0  0  0  0  0  3  0  0  0  0  0  0
  188.4500  178.2260  139.2530 C   0  0  0  0  0  0  0  0  0  0  0  0
  190.7460  177.4150  139.9500 C   0  0  0  0  0  0  0  0  0  0  0  0
  188.0270  178.0940  140.5270 C   0  0  0  0  0  0  0  0  0  0  0  0
  191.9540  177.1360  139.7180 O   0  0  0  0  0  0  0  0  0  0  0  0
  189.8580  177.8870  138.8230 C   0  0  1  0  0  3  0  0  0  0  0  0
  184.6950  178.7940  142.0190 C   0  0  0  0  0  0  0  0  0  0  0  0
  186.0270  178.3110  142.2440 C   0  0  2  0  0  3  0  0  0  0  0  0
  184.3010  178.5590  144.4600 C   0  0  0  0  0  3  0  0  0  0  0  0
  183.6870  178.9290  143.1200 C   0  0  0  0  0  3  0  0  0  0  0  0
  186.5060  178.0400  143.4560 C   0  0  0  0  0  3  0  0  0  0  0  0
  185.7620  178.9160  140.1090 N   0  0  0  0  0  0  0  0  0  0  0  0
  184.5500  179.1510  140.7870 N   0  0  0  0  0  0  0  0  0  0  0  0
  185.5830  178.1590  144.6080 C   0  0  0  0  0  3  0  0  0  0  0  0
  186.6400  178.4130  140.9260 C   0  0  0  0  0  0  0  0  0  0  0  0
  189.9560  175.5970  137.9240 C   0  0  0  0  0  3  0  0  0  0  0  0
  189.8040  176.8970  137.7020 C   0  0  0  0  0  3  0  0  0  0  0  0
  188.8680  174.0370  136.5470 O   0  0  0  0  0  0  0  0  0  0  0  0
  189.9500  174.6150  136.8350 C   0  0  0  0  0  0  0  0  0  0  0  0
  191.2160  174.2320  136.1210 C   0  0  1  0  0  3  0  0  0  0  0  0
  191.4070  175.0770  135.0300 O   0  0  0  0  0  1  0  0  0  0  0  0
  192.4240  174.3190  137.0390 C   0  0  0  0  0  2  0  0  0  0  0  0
  194.1760  175.7930  137.6700 O   0  0  0  0  0  0  0  0  0  0  0  0
  193.3800  175.4020  136.5770 C   0  0  1  0  0  3  0  0  0  0  0  0
  194.7730  174.9340  136.7270 C   0  0  0  0  0  2  0  0  0  0  0  0
  191.1130  176.9260  142.4570 C   0  0  0  0  0  2  0  0  0  0  0  0
  191.7450  178.1130  143.0150 N   0  0  0  0  0  2  0  0  0  0  0  0
  191.6000  178.0660  144.4630 C   0  0  0  0  0  2  0  0  0  0  0  0
  190.1650  178.3870  144.8550 C   0  0  0  0  0  2  0  0  0  0  0  0
  189.4670  177.1450  145.3790 C   0  0  0  0  0  2  0  0  0  0  0  0
  189.5860  177.0980  146.8940 C   0  0  0  0  0  2  0  0  0  0  0  0
  188.2250  176.8600  147.5180 C   0  0  0  0  0  2  0  0  0  0  0  0
  188.4530  178.4140  149.3100 O   0  0  0  0  0  1  0  0  0  0  0  0
  187.8110  178.0700  148.2830 C   0  0  0  0  0  0  0  0  0  0  0  0
  186.7420  178.8430  147.8420 O   0  0  0  0  0  0  0  0  0  0  0  0
  1  3  2  0  0  0  0
  1 28  1  0  0  0  0
  2  4  1  0  0  0  0
  4  6  2  0  0  0  0
  5  1  1  0  0  0  0
  6 17  1  0  0  0  0
  6  3  1  0  0  0  0
  7  5  2  0  0  0  0
  8 19  1  6  0  0  0
  8  4  1  0  0  0  0
  8  5  1  0  0  0  0
  9 10  1  0  0  0  0
  9 12  1  0  0  0  0
 10 13  1  1  0  0  0
 11 16  1  0  0  0  0
 12 11  2  0  0  0  0
 13 16  2  0  0  0  0
 14 15  1  0  0  0  0
 14 17  2  0  0  0  0
 15  9  2  0  0  0  0
 17 10  1  0  0  0  0
 19 18  2  0  0  0  0
 20 21  2  0  0  0  0
 21 18  1  0  0  0  0
 22 23  1  6  0  0  0
 22 21  1  0  0  0  0
 22 24  1  0  0  0  0
 26 27  1  0  0  0  0
 26 24  1  1  0  0  0
 26 25  1  0  0  0  0
 27 25  1  0  0  0  0
 28 29  1  0  0  0  0
 29 30  1  0  0  0  0
 30 31  1  0  0  0  0
 31 32  1  0  0  0  0
 32 33  1  0  0  0  0
 33 34  1  0  0  0  0
 34 36  1  0  0  0  0
 36 35  1  0  0  0  0
 37 36  2  0  0  0  0
M  END
>  <MODEL>
9

>  <REMARK>
 VINA RESULT:      -7.1      2.281      7.820
  Name = 
  14 active torsions:
  status: ('A' for Active; 'I' for Inactive)
    1  A    between atoms: C_3  and  C_9
    2  A    between atoms: C_6  and  C_28
    3  A    between atoms: C_8  and  C_30
    4  A    between atoms: C_8  and  C_37
    5  A    between atoms: C_9  and  N_13
    6  A    between atoms: N_13  and  C_20
    7  A    between atoms: C_15  and  C_33
    8  A    between atoms: C_16  and  C_30
    9  A    between atoms: C_20  and  C_35
   10  A    between atoms: C_22  and  C_32
   11  A    between atoms: C_24  and  C_28
   12  A    between atoms: C_24  and  C_33
   13  A    between atoms: C_26  and  C_34
   14  A    between atoms: C_35  and  C_37
                            x       y       z     vdW  Elec       q    Type
                         _______ _______ _______ _____ _____    ______ ____

>  <TORSDO>
F 14

$$$$
