=
 OpenBabel10232408163D

 32 34  0  0  1  0  0  0  0  0999 V2000
  189.3420  177.5090  146.7150 C   0  0  0  0  0  0  0  0  0  0  0  0
  187.0110  178.0180  145.9310 C   0  0  0  0  0  3  0  0  0  0  0  0
  186.3310  177.5270  143.6670 C   0  0  0  0  0  3  0  0  0  0  0  0
  190.7020  177.0700  146.3580 C   0  0  0  0  0  0  0  0  0  0  0  0
  189.9370  176.5670  144.0770 N   0  0  0  0  0  0  0  0  0  0  0  0
  188.6140  177.0640  144.3690 C   0  0  0  0  0  0  0  0  0  0  0  0
  187.6120  177.0540  143.3850 C   0  0  0  0  0  3  0  0  0  0  0  0
  191.5750  176.8830  147.2480 O   0  0  0  0  0  0  0  0  0  0  0  0
  189.0530  177.8280  147.9760 C   0  0  0  0  0  2  0  0  0  0  0  0
  186.0250  178.0140  144.9440 C   0  0  0  0  0  0  0  0  0  0  0  0
  188.3060  177.5450  145.6600 C   0  0  0  0  0  0  0  0  0  0  0  0
  191.0840  176.9100  144.9200 C   0  0  0  0  0  2  0  0  0  0  0  0
  190.2080  175.8680  142.8240 C   0  0  0  0  0  2  0  0  0  0  0  0
  190.8680  176.7970  141.8160 C   0  0  2  0  0  3  0  0  0  0  0  0
  190.4710  178.1150  142.0530 O   0  0  0  0  0  1  0  0  0  0  0  0
  190.4760  176.4060  140.4740 N   0  0  0  0  0  2  0  0  0  0  0  0
  190.3260  177.6300  139.6950 C   0  0  0  0  0  2  0  0  0  0  0  0
  186.6870  178.2260  138.9910 C   0  0  0  0  0  0  0  0  0  0  0  0
  188.3970  175.8150  136.9400 C   0  0  0  0  0  2  0  0  0  0  0  0
  189.1020  176.0760  138.2660 C   0  0  0  0  0  2  0  0  0  0  0  0
  187.8990  177.9150  139.4720 C   0  0  0  0  0  3  0  0  0  0  0  0
  185.6570  178.6710  139.9650 C   0  0  0  0  0  1  0  0  0  0  0  0
  186.8930  175.9130  137.0840 C   0  0  0  0  0  2  0  0  0  0  0  0
  186.3410  178.2930  137.5610 C   0  0  0  0  0  3  0  0  0  0  0  0
  186.4360  177.2800  136.7020 C   0  0  0  0  0  3  0  0  0  0  0  0
  189.4350  178.4900  137.5540 C   0  0  0  0  0  1  0  0  0  0  0  0
  189.1550  177.5410  138.7200 C   0  0  1  0  0  0  0  0  0  0  0  0
  184.7210  178.5120  145.2570 N   0  0  0  0  0  2  0  0  0  0  0  0
  184.0540  179.5650  144.5010 C   0  0  0  0  0  2  0  0  0  0  0  0
  183.3590  178.6130  142.4640 O   0  0  0  0  0  0  0  0  0  0  0  0
  181.6250  178.8170  144.0350 C   0  0  0  0  0  1  0  0  0  0  0  0
  183.0340  178.9790  143.5810 C   0  0  0  0  0  0  0  0  0  0  0  0
  1  9  2  0  0  0  0
  3 10  1  0  0  0  0
  4  1  1  0  0  0  0
  4  8  2  0  0  0  0
  5  6  1  0  0  0  0
  5 12  1  0  0  0  0
  6 11  2  0  0  0  0
  7  3  2  0  0  0  0
  7  6  1  0  0  0  0
 10 28  1  0  0  0  0
 10  2  2  0  0  0  0
 11  2  1  0  0  0  0
 11  1  1  0  0  0  0
 12  4  1  0  0  0  0
 13  5  1  0  0  0  0
 14 15  1  1  0  0  0
 14 13  1  0  0  0  0
 16 14  1  0  0  0  0
 17 16  1  0  0  0  0
 18 21  2  0  0  0  0
 18 22  1  0  0  0  0
 19 23  1  0  0  0  0
 19 20  1  0  0  0  0
 20 27  1  0  0  0  0
 24 18  1  0  0  0  0
 25 23  1  0  0  0  0
 25 24  2  0  0  0  0
 27 26  1  6  0  0  0
 27 21  1  0  0  0  0
 27 17  1  0  0  0  0
 29 28  1  0  0  0  0
 30 32  2  0  0  0  0
 32 31  1  0  0  0  0
 32 29  1  0  0  0  0
M  END
>  <MODEL>
1

>  <REMARK>
 VINA RESULT:      -8.7      0.000      0.000
  Name = 
  8 active torsions:
  status: ('A' for Active; 'I' for Inactive)
    1  A    between atoms: C_2  and  N_12
    2  A    between atoms: C_2  and  C_17
    3  A    between atoms: C_6  and  N_14
    4  A    between atoms: C_6  and  C_32
    5  A    between atoms: C_7  and  C_16
    6  A    between atoms: C_7  and  N_26
    7  A    between atoms: N_14  and  C_17
    8  A    between atoms: C_25  and  N_26
                            x       y       z     vdW  Elec       q    Type
                         _______ _______ _______ _____ _____    ______ ____

>  <TORSDO>
F 8

$$$$
=
 OpenBabel10232408163D

 32 34  0  0  1  0  0  0  0  0999 V2000
  182.7060  178.7010  141.9090 C   0  0  0  0  0  0  0  0  0  0  0  0
  184.5500  178.5670  140.2100 C   0  0  0  0  0  3  0  0  0  0  0  0
  186.8610  178.8050  140.8680 C   0  0  0  0  0  3  0  0  0  0  0  0
  182.3220  178.9850  143.3020 C   0  0  0  0  0  0  0  0  0  0  0  0
  184.6950  179.1890  143.9110 N   0  0  0  0  0  0  0  0  0  0  0  0
  185.1030  178.9920  142.5400 C   0  0  0  0  0  0  0  0  0  0  0  0
  186.4640  179.0020  142.1910 C   0  0  0  0  0  3  0  0  0  0  0  0
  181.1390  178.8000  143.6970 O   0  0  0  0  0  0  0  0  0  0  0  0
  181.7780  178.3570  141.0170 C   0  0  0  0  0  2  0  0  0  0  0  0
  185.9040  178.5890  139.8690 C   0  0  0  0  0  0  0  0  0  0  0  0
  184.1370  178.7650  141.5380 C   0  0  0  0  0  0  0  0  0  0  0  0
  183.3220  179.5680  144.2510 C   0  0  0  0  0  2  0  0  0  0  0  0
  185.6830  179.2050  144.9850 C   0  0  0  0  0  2  0  0  0  0  0  0
  185.5030  178.0070  145.9060 C   0  0  2  0  0  3  0  0  0  0  0  0
  185.2610  178.4420  147.2100 O   0  0  0  0  0  1  0  0  0  0  0  0
  186.7080  177.1960  145.8800 N   0  0  0  0  0  2  0  0  0  0  0  0
  187.8430  178.1110  145.9080 C   0  0  0  0  0  2  0  0  0  0  0  0
  191.1740  176.3860  145.7460 C   0  0  0  0  0  0  0  0  0  0  0  0
  190.2490  178.4670  142.9600 C   0  0  0  0  0  2  0  0  0  0  0  0
  189.4780  178.7990  144.2330 C   0  0  0  0  0  2  0  0  0  0  0  0
  190.0920  177.1350  146.0050 C   0  0  0  0  0  3  0  0  0  0  0  0
  192.0200  175.9830  146.8980 C   0  0  0  0  0  1  0  0  0  0  0  0
  191.6600  178.0160  143.2680 C   0  0  0  0  0  2  0  0  0  0  0  0
  191.5070  175.8180  144.4280 C   0  0  0  0  0  3  0  0  0  0  0  0
  191.7170  176.5270  143.3200 C   0  0  0  0  0  3  0  0  0  0  0  0
  188.4850  176.4630  144.1790 C   0  0  0  0  0  1  0  0  0  0  0  0
  189.0060  177.5970  145.0620 C   0  0  1  0  0  0  0  0  0  0  0  0
  186.2840  178.3930  138.5040 N   0  0  0  0  0  2  0  0  0  0  0  0
  187.3770  177.5240  138.0860 C   0  0  0  0  0  2  0  0  0  0  0  0
  188.5600  179.5020  137.6080 O   0  0  0  0  0  0  0  0  0  0  0  0
  189.3240  177.6430  136.3910 C   0  0  0  0  0  1  0  0  0  0  0  0
  188.4250  178.3130  137.3730 C   0  0  0  0  0  0  0  0  0  0  0  0
  1  4  1  0  0  0  0
  2 11  1  0  0  0  0
  3  7  2  0  0  0  0
  4  8  2  0  0  0  0
  4 12  1  0  0  0  0
  5 12  1  0  0  0  0
  5 13  1  0  0  0  0
  6  5  1  0  0  0  0
  7  6  1  0  0  0  0
  9  1  2  0  0  0  0
 10  2  2  0  0  0  0
 10  3  1  0  0  0  0
 11  1  1  0  0  0  0
 11  6  2  0  0  0  0
 13 14  1  0  0  0  0
 14 15  1  1  0  0  0
 16 14  1  0  0  0  0
 16 17  1  0  0  0  0
 18 21  2  0  0  0  0
 18 22  1  0  0  0  0
 19 23  1  0  0  0  0
 19 20  1  0  0  0  0
 20 27  1  0  0  0  0
 23 25  1  0  0  0  0
 24 18  1  0  0  0  0
 25 24  2  0  0  0  0
 27 26  1  6  0  0  0
 27 17  1  0  0  0  0
 27 21  1  0  0  0  0
 28 10  1  0  0  0  0
 29 28  1  0  0  0  0
 31 32  1  0  0  0  0
 32 30  2  0  0  0  0
 32 29  1  0  0  0  0
M  END
>  <MODEL>
2

>  <REMARK>
 VINA RESULT:      -8.5      2.351      7.492
  Name = 
  8 active torsions:
  status: ('A' for Active; 'I' for Inactive)
    1  A    between atoms: C_2  and  N_12
    2  A    between atoms: C_2  and  C_17
    3  A    between atoms: C_6  and  N_14
    4  A    between atoms: C_6  and  C_32
    5  A    between atoms: C_7  and  C_16
    6  A    between atoms: C_7  and  N_26
    7  A    between atoms: N_14  and  C_17
    8  A    between atoms: C_25  and  N_26
                            x       y       z     vdW  Elec       q    Type
                         _______ _______ _______ _____ _____    ______ ____

>  <TORSDO>
F 8

$$$$
=
 OpenBabel10232408163D

 32 34  0  0  1  0  0  0  0  0999 V2000
  185.5250  178.6200  145.7370 C   0  0  0  0  0  0  0  0  0  0  0  0
  187.8560  177.6880  145.6670 C   0  0  0  0  0  3  0  0  0  0  0  0
  188.7860  176.8320  143.6090 C   0  0  0  0  0  3  0  0  0  0  0  0
  184.2540  178.8350  145.0260 C   0  0  0  0  0  0  0  0  0  0  0  0
  185.2700  177.9770  142.9590 N   0  0  0  0  0  0  0  0  0  0  0  0
  186.5060  177.6790  143.6440 C   0  0  0  0  0  0  0  0  0  0  0  0
  187.5890  177.1140  142.9510 C   0  0  0  0  0  3  0  0  0  0  0  0
  183.3260  179.5090  145.5500 O   0  0  0  0  0  0  0  0  0  0  0  0
  185.6650  179.0370  146.9960 C   0  0  0  0  0  2  0  0  0  0  0  0
  188.9250  177.1170  144.9740 C   0  0  0  0  0  0  0  0  0  0  0  0
  186.6450  177.9760  145.0160 C   0  0  0  0  0  0  0  0  0  0  0  0
  184.0230  178.1910  143.6940 C   0  0  0  0  0  2  0  0  0  0  0  0
  185.1860  177.8810  141.5040 C   0  0  0  0  0  2  0  0  0  0  0  0
  185.7530  179.1300  140.8460 C   0  0  2  0  0  3  0  0  0  0  0  0
  184.9260  179.5310  139.7940 O   0  0  0  0  0  1  0  0  0  0  0  0
  187.0820  178.8410  140.3350 N   0  0  0  0  0  2  0  0  0  0  0  0
  186.9200  178.3170  138.9840 C   0  0  0  0  0  2  0  0  0  0  0  0
  188.6960  175.9520  136.6720 C   0  0  0  0  0  0  0  0  0  0  0  0
  190.5840  177.3210  139.4120 C   0  0  0  0  0  2  0  0  0  0  0  0
  189.0770  177.3840  139.6360 C   0  0  0  0  0  2  0  0  0  0  0  0
  187.9190  176.5840  137.5630 C   0  0  0  0  0  3  0  0  0  0  0  0
  188.0800  174.8560  135.8810 C   0  0  0  0  0  1  0  0  0  0  0  0
  190.9760  176.0880  138.6250 C   0  0  0  0  0  2  0  0  0  0  0  0
  190.0700  176.3520  136.3210 C   0  0  0  0  0  3  0  0  0  0  0  0
  191.0880  176.4260  137.1770 C   0  0  0  0  0  3  0  0  0  0  0  0
  188.8940  178.9120  137.6170 C   0  0  0  0  0  1  0  0  0  0  0  0
  188.2360  177.7880  138.4190 C   0  0  1  0  0  0  0  0  0  0  0  0
  190.1380  176.8300  145.6740 N   0  0  0  0  0  2  0  0  0  0  0  0
  190.2890  176.9620  147.1180 C   0  0  0  0  0  2  0  0  0  0  0  0
  192.1980  177.0730  148.4910 O   0  0  0  0  0  0  0  0  0  0  0  0
  192.3530  175.4370  146.8130 C   0  0  0  0  0  1  0  0  0  0  0  0
  191.6570  176.5360  147.5390 C   0  0  0  0  0  0  0  0  0  0  0  0
  1  9  2  0  0  0  0
  3 10  1  0  0  0  0
  4  8  2  0  0  0  0
  4  1  1  0  0  0  0
  5  6  1  0  0  0  0
  5 12  1  0  0  0  0
  6 11  2  0  0  0  0
  7  3  2  0  0  0  0
  7  6  1  0  0  0  0
 10  2  2  0  0  0  0
 10 28  1  0  0  0  0
 11  2  1  0  0  0  0
 11  1  1  0  0  0  0
 12  4  1  0  0  0  0
 13  5  1  0  0  0  0
 14 15  1  6  0  0  0
 14 13  1  0  0  0  0
 16 14  1  0  0  0  0
 17 16  1  0  0  0  0
 18 21  2  0  0  0  0
 19 20  1  0  0  0  0
 21 27  1  0  0  0  0
 22 18  1  0  0  0  0
 23 19  1  0  0  0  0
 24 18  1  0  0  0  0
 24 25  2  0  0  0  0
 25 23  1  0  0  0  0
 27 26  1  6  0  0  0
 27 17  1  0  0  0  0
 27 20  1  0  0  0  0
 28 29  1  0  0  0  0
 29 32  1  0  0  0  0
 31 32  1  0  0  0  0
 32 30  2  0  0  0  0
M  END
>  <MODEL>
3

>  <REMARK>
 VINA RESULT:      -8.4      1.939      5.472
  Name = 
  8 active torsions:
  status: ('A' for Active; 'I' for Inactive)
    1  A    between atoms: C_2  and  N_12
    2  A    between atoms: C_2  and  C_17
    3  A    between atoms: C_6  and  N_14
    4  A    between atoms: C_6  and  C_32
    5  A    between atoms: C_7  and  C_16
    6  A    between atoms: C_7  and  N_26
    7  A    between atoms: N_14  and  C_17
    8  A    between atoms: C_25  and  N_26
                            x       y       z     vdW  Elec       q    Type
                         _______ _______ _______ _____ _____    ______ ____

>  <TORSDO>
F 8

$$$$
=
 OpenBabel10232408163D

 32 34  0  0  1  0  0  0  0  0999 V2000
  189.3720  177.4910  146.8410 C   0  0  0  0  0  0  0  0  0  0  0  0
  187.0770  178.0290  145.9740 C   0  0  0  0  0  3  0  0  0  0  0  0
  186.4690  177.5330  143.6900 C   0  0  0  0  0  3  0  0  0  0  0  0
  190.7370  177.0310  146.5350 C   0  0  0  0  0  0  0  0  0  0  0  0
  190.0450  176.5240  144.2320 N   0  0  0  0  0  0  0  0  0  0  0  0
  188.7190  177.0420  144.4750 C   0  0  0  0  0  0  0  0  0  0  0  0
  187.7520  177.0400  143.4560 C   0  0  0  0  0  3  0  0  0  0  0  0
  191.5740  176.8370  147.4570 O   0  0  0  0  0  0  0  0  0  0  0  0
  189.0430  177.8230  148.0900 C   0  0  0  0  0  2  0  0  0  0  0  0
  186.1260  178.0330  144.9520 C   0  0  0  0  0  0  0  0  0  0  0  0
  188.3730  177.5360  145.7510 C   0  0  0  0  0  0  0  0  0  0  0  0
  191.1660  176.8560  145.1120 C   0  0  0  0  0  2  0  0  0  0  0  0
  190.3480  175.8130  142.9930 C   0  0  0  0  0  2  0  0  0  0  0  0
  191.0600  176.7250  142.0050 C   0  0  2  0  0  3  0  0  0  0  0  0
  190.8130  178.0610  142.3280 O   0  0  0  0  0  1  0  0  0  0  0  0
  190.5740  176.4520  140.6640 N   0  0  0  0  0  2  0  0  0  0  0  0
  189.7970  177.6120  140.2430 C   0  0  0  0  0  2  0  0  0  0  0  0
  189.2140  175.3670  137.2910 C   0  0  0  0  0  0  0  0  0  0  0  0
  188.6990  178.8960  136.8150 C   0  0  0  0  0  2  0  0  0  0  0  0
  189.5880  178.5800  138.0130 C   0  0  0  0  0  2  0  0  0  0  0  0
  189.6740  176.0930  138.3200 C   0  0  0  0  0  3  0  0  0  0  0  0
  189.8660  174.0580  137.0300 C   0  0  0  0  0  1  0  0  0  0  0  0
  188.9000  177.8950  135.6970 C   0  0  0  0  0  2  0  0  0  0  0  0
  188.0250  175.7030  136.4890 C   0  0  0  0  0  3  0  0  0  0  0  0
  187.8680  176.8230  135.7860 C   0  0  0  0  0  3  0  0  0  0  0  0
  187.6290  177.3640  139.0780 C   0  0  0  0  0  1  0  0  0  0  0  0
  189.1460  177.3930  138.8790 C   0  0  1  0  0  0  0  0  0  0  0  0
  184.8190  178.5520  145.2170 N   0  0  0  0  0  2  0  0  0  0  0  0
  184.1720  179.5690  144.3980 C   0  0  0  0  0  2  0  0  0  0  0  0
  181.9740  178.7850  144.0850 O   0  0  0  0  0  0  0  0  0  0  0  0
  183.3120  178.5970  142.1630 C   0  0  0  0  0  1  0  0  0  0  0  0
  183.0740  178.9630  143.5880 C   0  0  0  0  0  0  0  0  0  0  0  0
  1  9  2  0  0  0  0
  3 10  1  0  0  0  0
  4  1  1  0  0  0  0
  4  8  2  0  0  0  0
  5  6  1  0  0  0  0
  5 12  1  0  0  0  0
  6 11  2  0  0  0  0
  7  3  2  0  0  0  0
  7  6  1  0  0  0  0
 10 28  1  0  0  0  0
 10  2  2  0  0  0  0
 11  2  1  0  0  0  0
 11  1  1  0  0  0  0
 12  4  1  0  0  0  0
 13  5  1  0  0  0  0
 14 15  1  1  0  0  0
 14 13  1  0  0  0  0
 16 14  1  0  0  0  0
 17 16  1  0  0  0  0
 18 21  2  0  0  0  0
 19 20  1  0  0  0  0
 20 27  1  0  0  0  0
 21 27  1  0  0  0  0
 22 18  1  0  0  0  0
 23 25  1  0  0  0  0
 23 19  1  0  0  0  0
 24 18  1  0  0  0  0
 25 24  2  0  0  0  0
 27 26  1  1  0  0  0
 27 17  1  0  0  0  0
 29 28  1  0  0  0  0
 31 32  1  0  0  0  0
 32 30  2  0  0  0  0
 32 29  1  0  0  0  0
M  END
>  <MODEL>
4

>  <REMARK>
 VINA RESULT:      -8.4      0.924      2.030
  Name = 
  8 active torsions:
  status: ('A' for Active; 'I' for Inactive)
    1  A    between atoms: C_2  and  N_12
    2  A    between atoms: C_2  and  C_17
    3  A    between atoms: C_6  and  N_14
    4  A    between atoms: C_6  and  C_32
    5  A    between atoms: C_7  and  C_16
    6  A    between atoms: C_7  and  N_26
    7  A    between atoms: N_14  and  C_17
    8  A    between atoms: C_25  and  N_26
                            x       y       z     vdW  Elec       q    Type
                         _______ _______ _______ _____ _____    ______ ____

>  <TORSDO>
F 8

$$$$
=
 OpenBabel10232408163D

 32 34  0  0  1  0  0  0  0  0999 V2000
  185.5040  178.6960  145.6360 C   0  0  0  0  0  0  0  0  0  0  0  0
  187.8530  177.8100  145.5840 C   0  0  0  0  0  3  0  0  0  0  0  0
  188.7940  176.9120  143.5490 C   0  0  0  0  0  3  0  0  0  0  0  0
  184.2260  178.8640  144.9230 C   0  0  0  0  0  0  0  0  0  0  0  0
  185.2530  177.9660  142.8790 N   0  0  0  0  0  0  0  0  0  0  0  0
  186.4970  177.7140  143.5670 C   0  0  0  0  0  0  0  0  0  0  0  0
  187.5890  177.1510  142.8870 C   0  0  0  0  0  3  0  0  0  0  0  0
  183.2870  179.5340  145.4310 O   0  0  0  0  0  0  0  0  0  0  0  0
  185.6390  179.1520  146.8810 C   0  0  0  0  0  2  0  0  0  0  0  0
  188.9310  177.2400  144.9040 C   0  0  0  0  0  0  0  0  0  0  0  0
  186.6340  178.0540  144.9300 C   0  0  0  0  0  0  0  0  0  0  0  0
  184.0040  178.1770  143.6130 C   0  0  0  0  0  2  0  0  0  0  0  0
  185.1660  177.8260  141.4280 C   0  0  0  0  0  2  0  0  0  0  0  0
  185.6290  179.0970  140.7320 C   0  0  2  0  0  3  0  0  0  0  0  0
  184.5800  179.6400  139.9860 O   0  0  0  0  0  1  0  0  0  0  0  0
  186.7400  178.7840  139.8510 N   0  0  0  0  0  2  0  0  0  0  0  0
  186.1760  178.4600  138.5450 C   0  0  0  0  0  2  0  0  0  0  0  0
  189.4240  176.5940  138.2940 C   0  0  0  0  0  0  0  0  0  0  0  0
  187.8800  177.6510  135.2210 C   0  0  0  0  0  2  0  0  0  0  0  0
  187.3970  178.4410  136.4330 C   0  0  0  0  0  2  0  0  0  0  0  0
  188.4110  177.4470  138.4990 C   0  0  0  0  0  3  0  0  0  0  0  0
  190.5080  176.5590  139.3100 C   0  0  0  0  0  1  0  0  0  0  0  0
  189.3330  177.2520  135.3630 C   0  0  0  0  0  2  0  0  0  0  0  0
  189.4760  175.5930  137.2140 C   0  0  0  0  0  3  0  0  0  0  0  0
  189.4270  175.8690  135.9120 C   0  0  0  0  0  3  0  0  0  0  0  0
  186.4590  176.2870  137.3970 C   0  0  0  0  0  1  0  0  0  0  0  0
  187.1380  177.6230  137.7050 C   0  0  1  0  0  0  0  0  0  0  0  0
  190.1520  176.9990  145.6080 N   0  0  0  0  0  2  0  0  0  0  0  0
  190.2400  176.8780  147.0580 C   0  0  0  0  0  2  0  0  0  0  0  0
  192.1900  177.2170  148.3310 O   0  0  0  0  0  0  0  0  0  0  0  0
  192.3520  175.4050  146.8460 C   0  0  0  0  0  1  0  0  0  0  0  0
  191.6380  176.5540  147.4690 C   0  0  0  0  0  0  0  0  0  0  0  0
  1  9  2  0  0  0  0
  3 10  1  0  0  0  0
  4  8  2  0  0  0  0
  4  1  1  0  0  0  0
  5  6  1  0  0  0  0
  5 12  1  0  0  0  0
  6 11  2  0  0  0  0
  7  3  2  0  0  0  0
  7  6  1  0  0  0  0
 10  2  2  0  0  0  0
 10 28  1  0  0  0  0
 11  2  1  0  0  0  0
 11  1  1  0  0  0  0
 12  4  1  0  0  0  0
 13  5  1  0  0  0  0
 14 15  1  6  0  0  0
 14 13  1  0  0  0  0
 16 14  1  0  0  0  0
 17 16  1  0  0  0  0
 18 21  2  0  0  0  0
 18 22  1  0  0  0  0
 19 23  1  0  0  0  0
 19 20  1  0  0  0  0
 20 27  1  0  0  0  0
 23 25  1  0  0  0  0
 24 18  1  0  0  0  0
 25 24  2  0  0  0  0
 27 26  1  6  0  0  0
 27 21  1  0  0  0  0
 27 17  1  0  0  0  0
 28 29  1  0  0  0  0
 29 32  1  0  0  0  0
 31 32  1  0  0  0  0
 32 30  2  0  0  0  0
M  END
>  <MODEL>
5

>  <REMARK>
 VINA RESULT:      -8.2      1.965      5.459
  Name = 
  8 active torsions:
  status: ('A' for Active; 'I' for Inactive)
    1  A    between atoms: C_2  and  N_12
    2  A    between atoms: C_2  and  C_17
    3  A    between atoms: C_6  and  N_14
    4  A    between atoms: C_6  and  C_32
    5  A    between atoms: C_7  and  C_16
    6  A    between atoms: C_7  and  N_26
    7  A    between atoms: N_14  and  C_17
    8  A    between atoms: C_25  and  N_26
                            x       y       z     vdW  Elec       q    Type
                         _______ _______ _______ _____ _____    ______ ____

>  <TORSDO>
F 8

$$$$
=
 OpenBabel10232408163D

 32 34  0  0  1  0  0  0  0  0999 V2000
  188.2870  177.8680  137.5890 C   0  0  0  0  0  0  0  0  0  0  0  0
  186.6010  178.6290  139.2880 C   0  0  0  0  0  3  0  0  0  0  0  0
  186.9970  178.3200  141.6500 C   0  0  0  0  0  3  0  0  0  0  0  0
  189.5400  177.1390  137.3250 C   0  0  0  0  0  0  0  0  0  0  0  0
  189.8950  176.8820  139.7440 N   0  0  0  0  0  0  0  0  0  0  0  0
  188.6340  177.5220  140.0370 C   0  0  0  0  0  0  0  0  0  0  0  0
  188.2120  177.6960  141.3650 C   0  0  0  0  0  3  0  0  0  0  0  0
  190.0490  177.1270  136.1720 O   0  0  0  0  0  0  0  0  0  0  0  0
  187.6140  178.4250  136.5830 C   0  0  0  0  0  2  0  0  0  0  0  0
  186.1840  178.7880  140.6100 C   0  0  0  0  0  0  0  0  0  0  0  0
  187.8220  178.0010  138.9870 C   0  0  0  0  0  0  0  0  0  0  0  0
  190.1850  176.3420  138.4150 C   0  0  0  0  0  2  0  0  0  0  0  0
  190.8410  176.5820  140.8150 C   0  0  0  0  0  2  0  0  0  0  0  0
  191.8420  177.7150  140.9870 C   0  0  2  0  0  3  0  0  0  0  0  0
  193.0410  177.3910  140.3490 O   0  0  0  0  0  1  0  0  0  0  0  0
  192.0870  177.9280  142.4020 N   0  0  0  0  0  2  0  0  0  0  0  0
  191.5810  176.7560  143.1080 C   0  0  0  0  0  2  0  0  0  0  0  0
  191.4280  176.5450  146.8530 C   0  0  0  0  0  0  0  0  0  0  0  0
  188.4000  177.4250  145.1190 C   0  0  0  0  0  2  0  0  0  0  0  0
  189.4130  176.7150  144.2270 C   0  0  0  0  0  2  0  0  0  0  0  0
  191.5260  176.3600  145.5290 C   0  0  0  0  0  3  0  0  0  0  0  0
  192.2760  175.6950  147.7280 C   0  0  0  0  0  1  0  0  0  0  0  0
  188.4610  176.9130  146.5420 C   0  0  0  0  0  2  0  0  0  0  0  0
  190.6500  177.6180  147.4970 C   0  0  0  0  0  3  0  0  0  0  0  0
  189.3380  177.7990  147.3620 C   0  0  0  0  0  3  0  0  0  0  0  0
  191.0160  178.6500  144.5960 C   0  0  0  0  0  1  0  0  0  0  0  0
  190.8770  177.1380  144.4080 C   0  0  1  0  0  0  0  0  0  0  0  0
  184.9300  179.4240  140.8750 N   0  0  0  0  0  2  0  0  0  0  0  0
  183.8470  178.7980  141.6230 C   0  0  0  0  0  2  0  0  0  0  0  0
  184.8040  179.9290  143.4530 O   0  0  0  0  0  0  0  0  0  0  0  0
  182.9250  178.6440  144.0330 C   0  0  0  0  0  1  0  0  0  0  0  0
  183.9280  179.1730  143.0670 C   0  0  0  0  0  0  0  0  0  0  0  0
  1 11  1  0  0  0  0
  2 10  1  0  0  0  0
  4  1  1  0  0  0  0
  4 12  1  0  0  0  0
  5  6  1  0  0  0  0
  5 13  1  0  0  0  0
  6  7  2  0  0  0  0
  7  3  1  0  0  0  0
  8  4  2  0  0  0  0
  9  1  2  0  0  0  0
 10 28  1  0  0  0  0
 10  3  2  0  0  0  0
 11  2  2  0  0  0  0
 11  6  1  0  0  0  0
 12  5  1  0  0  0  0
 13 14  1  0  0  0  0
 14 15  1  6  0  0  0
 14 16  1  0  0  0  0
 16 17  1  0  0  0  0
 17 27  1  0  0  0  0
 18 24  1  0  0  0  0
 18 22  1  0  0  0  0
 19 23  1  0  0  0  0
 20 27  1  0  0  0  0
 20 19  1  0  0  0  0
 21 18  2  0  0  0  0
 23 25  1  0  0  0  0
 25 24  2  0  0  0  0
 27 26  1  1  0  0  0
 27 21  1  0  0  0  0
 28 29  1  0  0  0  0
 29 32  1  0  0  0  0
 32 30  2  0  0  0  0
 32 31  1  0  0  0  0
M  END
>  <MODEL>
6

>  <REMARK>
 VINA RESULT:      -8.2      2.151      6.801
  Name = 
  8 active torsions:
  status: ('A' for Active; 'I' for Inactive)
    1  A    between atoms: C_2  and  N_12
    2  A    between atoms: C_2  and  C_17
    3  A    between atoms: C_6  and  N_14
    4  A    between atoms: C_6  and  C_32
    5  A    between atoms: C_7  and  C_16
    6  A    between atoms: C_7  and  N_26
    7  A    between atoms: N_14  and  C_17
    8  A    between atoms: C_25  and  N_26
                            x       y       z     vdW  Elec       q    Type
                         _______ _______ _______ _____ _____    ______ ____

>  <TORSDO>
F 8

$$$$
=
 OpenBabel10232408163D

 32 34  0  0  1  0  0  0  0  0999 V2000
  186.0340  178.3140  145.9910 C   0  0  0  0  0  0  0  0  0  0  0  0
  183.9950  178.8960  144.6460 C   0  0  0  0  0  3  0  0  0  0  0  0
  183.9600  178.5830  142.2510 C   0  0  0  0  0  3  0  0  0  0  0  0
  187.4460  177.8960  145.9850 C   0  0  0  0  0  0  0  0  0  0  0  0
  187.3350  177.5730  143.5510 N   0  0  0  0  0  0  0  0  0  0  0  0
  185.9740  178.0540  143.5100 C   0  0  0  0  0  0  0  0  0  0  0  0
  185.2770  178.1250  142.2920 C   0  0  0  0  0  3  0  0  0  0  0  0
  188.0470  177.6360  147.0620 O   0  0  0  0  0  0  0  0  0  0  0  0
  185.4090  178.5380  147.1470 C   0  0  0  0  0  2  0  0  0  0  0  0
  183.3120  178.9740  143.4300 C   0  0  0  0  0  0  0  0  0  0  0  0
  185.3210  178.4370  144.7000 C   0  0  0  0  0  0  0  0  0  0  0  0
  188.2050  177.8440  144.6960 C   0  0  0  0  0  2  0  0  0  0  0  0
  187.9450  176.9700  142.3690 C   0  0  0  0  0  2  0  0  0  0  0  0
  188.9930  177.8950  141.7680 C   0  0  2  0  0  3  0  0  0  0  0  0
  188.4350  179.1510  141.5250 O   0  0  0  0  0  1  0  0  0  0  0  0
  189.4740  177.3280  140.5210 N   0  0  0  0  0  2  0  0  0  0  0  0
  189.3320  178.3570  139.4970 C   0  0  0  0  0  2  0  0  0  0  0  0
  186.0510  177.8660  137.7400 C   0  0  0  0  0  0  0  0  0  0  0  0
  188.8010  175.7800  136.7250 C   0  0  0  0  0  2  0  0  0  0  0  0
  188.9870  176.3750  138.1170 C   0  0  0  0  0  2  0  0  0  0  0  0
  187.0930  177.9510  138.5790 C   0  0  0  0  0  3  0  0  0  0  0  0
  184.6990  178.1280  138.2980 C   0  0  0  0  0  1  0  0  0  0  0  0
  187.3450  175.4860  136.4380 C   0  0  0  0  0  2  0  0  0  0  0  0
  186.1570  177.6700  136.2840 C   0  0  0  0  0  3  0  0  0  0  0  0
  186.7350  176.6250  135.6930 C   0  0  0  0  0  3  0  0  0  0  0  0
  188.9780  178.6890  137.0720 C   0  0  0  0  0  1  0  0  0  0  0  0
  188.5690  177.8430  138.2790 C   0  0  1  0  0  0  0  0  0  0  0  0
  181.9650  179.4540  143.4150 N   0  0  0  0  0  2  0  0  0  0  0  0
  180.8640  178.7550  142.7650 C   0  0  0  0  0  2  0  0  0  0  0  0
  180.0730  180.6690  141.6470 O   0  0  0  0  0  0  0  0  0  0  0  0
  180.4100  178.8330  140.2220 C   0  0  0  0  0  1  0  0  0  0  0  0
  180.4160  179.5030  141.5530 C   0  0  0  0  0  0  0  0  0  0  0  0
  1  9  2  0  0  0  0
  2 11  1  0  0  0  0
  3  7  2  0  0  0  0
  3 10  1  0  0  0  0
  4  1  1  0  0  0  0
  4  8  2  0  0  0  0
  5 12  1  0  0  0  0
  6  5  1  0  0  0  0
  6 11  2  0  0  0  0
  7  6  1  0  0  0  0
 10  2  2  0  0  0  0
 11  1  1  0  0  0  0
 12  4  1  0  0  0  0
 13  5  1  0  0  0  0
 14 15  1  6  0  0  0
 14 13  1  0  0  0  0
 16 14  1  0  0  0  0
 17 16  1  0  0  0  0
 18 22  1  0  0  0  0
 18 21  2  0  0  0  0
 19 20  1  0  0  0  0
 20 27  1  0  0  0  0
 23 19  1  0  0  0  0
 24 18  1  0  0  0  0
 25 24  2  0  0  0  0
 25 23  1  0  0  0  0
 27 26  1  6  0  0  0
 27 21  1  0  0  0  0
 27 17  1  0  0  0  0
 28 10  1  0  0  0  0
 29 28  1  0  0  0  0
 31 32  1  0  0  0  0
 32 30  2  0  0  0  0
 32 29  1  0  0  0  0
M  END
>  <MODEL>
7

>  <REMARK>
 VINA RESULT:      -8.1      1.881      2.672
  Name = 
  8 active torsions:
  status: ('A' for Active; 'I' for Inactive)
    1  A    between atoms: C_2  and  N_12
    2  A    between atoms: C_2  and  C_17
    3  A    between atoms: C_6  and  N_14
    4  A    between atoms: C_6  and  C_32
    5  A    between atoms: C_7  and  C_16
    6  A    between atoms: C_7  and  N_26
    7  A    between atoms: N_14  and  C_17
    8  A    between atoms: C_25  and  N_26
                            x       y       z     vdW  Elec       q    Type
                         _______ _______ _______ _____ _____    ______ ____

>  <TORSDO>
F 8

$$$$
=
 OpenBabel10232408163D

 32 34  0  0  1  0  0  0  0  0999 V2000
  185.0430  177.7650  137.7850 C   0  0  0  0  0  0  0  0  0  0  0  0
  187.5020  177.5130  137.3440 C   0  0  0  0  0  3  0  0  0  0  0  0
  189.1290  178.1040  139.0270 C   0  0  0  0  0  3  0  0  0  0  0  0
  183.9890  178.2580  138.6890 C   0  0  0  0  0  0  0  0  0  0  0  0
  185.6950  178.8130  140.3690 N   0  0  0  0  0  0  0  0  0  0  0  0
  186.7580  178.4120  139.4780 C   0  0  0  0  0  0  0  0  0  0  0  0
  188.1010  178.4970  139.8830 C   0  0  0  0  0  3  0  0  0  0  0  0
  182.7730  178.0270  138.4500 O   0  0  0  0  0  0  0  0  0  0  0  0
  184.7150  177.1690  136.6390 C   0  0  0  0  0  2  0  0  0  0  0  0
  188.8340  177.6120  137.7500 C   0  0  0  0  0  0  0  0  0  0  0  0
  186.4570  177.9060  138.1960 C   0  0  0  0  0  0  0  0  0  0  0  0
  184.3510  179.1050  139.8690 C   0  0  0  0  0  2  0  0  0  0  0  0
  185.9760  179.1270  141.7670 C   0  0  0  0  0  2  0  0  0  0  0  0
  185.4410  178.0380  142.6850 C   0  0  2  0  0  3  0  0  0  0  0  0
  184.2880  178.4870  143.3330 O   0  0  0  0  0  1  0  0  0  0  0  0
  186.4530  177.7030  143.6720 N   0  0  0  0  0  2  0  0  0  0  0  0
  187.4710  176.9100  142.9920 C   0  0  0  0  0  2  0  0  0  0  0  0
  189.5160  177.2370  146.1240 C   0  0  0  0  0  0  0  0  0  0  0  0
  190.9920  178.3960  143.0540 C   0  0  0  0  0  2  0  0  0  0  0  0
  189.4710  178.3080  142.9880 C   0  0  0  0  0  2  0  0  0  0  0  0
  188.6280  177.2980  145.1210 C   0  0  0  0  0  3  0  0  0  0  0  0
  188.9990  177.3930  147.5080 C   0  0  0  0  0  1  0  0  0  0  0  0
  191.4640  178.7840  144.4380 C   0  0  0  0  0  2  0  0  0  0  0  0
  190.9390  176.8910  145.9670 C   0  0  0  0  0  3  0  0  0  0  0  0
  191.8120  177.5610  145.2170 C   0  0  0  0  0  3  0  0  0  0  0  0
  189.6520  175.8030  143.3640 C   0  0  0  0  0  1  0  0  0  0  0  0
  188.8430  177.0710  143.6430 C   0  0  1  0  0  0  0  0  0  0  0  0
  189.8700  177.2090  136.8490 N   0  0  0  0  0  2  0  0  0  0  0  0
  190.2550  175.8210  136.6290 C   0  0  0  0  0  2  0  0  0  0  0  0
  191.3670  174.2770  138.0150 O   0  0  0  0  0  0  0  0  0  0  0  0
  192.3600  176.4060  138.0100 C   0  0  0  0  0  1  0  0  0  0  0  0
  191.3260  175.4190  137.5890 C   0  0  0  0  0  0  0  0  0  0  0  0
  1 11  1  0  0  0  0
  1  4  1  0  0  0  0
  2 10  2  0  0  0  0
  2 11  1  0  0  0  0
  3  7  2  0  0  0  0
  4 12  1  0  0  0  0
  5 13  1  0  0  0  0
  6  7  1  0  0  0  0
  6  5  1  0  0  0  0
  8  4  2  0  0  0  0
  9  1  2  0  0  0  0
 10  3  1  0  0  0  0
 11  6  2  0  0  0  0
 12  5  1  0  0  0  0
 13 14  1  0  0  0  0
 14 15  1  1  0  0  0
 14 16  1  0  0  0  0
 17 27  1  0  0  0  0
 17 16  1  0  0  0  0
 18 22  1  0  0  0  0
 19 23  1  0  0  0  0
 20 19  1  0  0  0  0
 20 27  1  0  0  0  0
 21 18  2  0  0  0  0
 23 25  1  0  0  0  0
 24 18  1  0  0  0  0
 25 24  2  0  0  0  0
 27 26  1  6  0  0  0
 27 21  1  0  0  0  0
 28 10  1  0  0  0  0
 29 28  1  0  0  0  0
 29 32  1  0  0  0  0
 32 31  1  0  0  0  0
 32 30  2  0  0  0  0
M  END
>  <MODEL>
8

>  <REMARK>
 VINA RESULT:      -8.1      2.545      8.313
  Name = 
  8 active torsions:
  status: ('A' for Active; 'I' for Inactive)
    1  A    between atoms: C_2  and  N_12
    2  A    between atoms: C_2  and  C_17
    3  A    between atoms: C_6  and  N_14
    4  A    between atoms: C_6  and  C_32
    5  A    between atoms: C_7  and  C_16
    6  A    between atoms: C_7  and  N_26
    7  A    between atoms: N_14  and  C_17
    8  A    between atoms: C_25  and  N_26
                            x       y       z     vdW  Elec       q    Type
                         _______ _______ _______ _____ _____    ______ ____

>  <TORSDO>
F 8

$$$$
=
 OpenBabel10232408163D

 32 34  0  0  1  0  0  0  0  0999 V2000
  188.6030  174.7070  136.6400 C   0  0  0  0  0  0  0  0  0  0  0  0
  191.0490  174.4900  137.1610 C   0  0  0  0  0  3  0  0  0  0  0  0
  192.2040  176.1970  138.4210 C   0  0  0  0  0  3  0  0  0  0  0  0
  187.3980  175.5540  136.6750 C   0  0  0  0  0  0  0  0  0  0  0  0
  188.6240  177.2390  137.9780 N   0  0  0  0  0  0  0  0  0  0  0  0
  189.8440  176.4720  137.8950 C   0  0  0  0  0  0  0  0  0  0  0  0
  191.0250  176.9390  138.4950 C   0  0  0  0  0  3  0  0  0  0  0  0
  186.2770  175.0960  136.3220 O   0  0  0  0  0  0  0  0  0  0  0  0
  188.5430  173.4810  136.1200 C   0  0  0  0  0  2  0  0  0  0  0  0
  192.2220  174.9670  137.7510 C   0  0  0  0  0  0  0  0  0  0  0  0
  189.8570  175.2280  137.2270 C   0  0  0  0  0  0  0  0  0  0  0  0
  187.5060  176.9940  137.0650 C   0  0  0  0  0  2  0  0  0  0  0  0
  188.5410  178.4100  138.8460 C   0  0  0  0  0  2  0  0  0  0  0  0
  187.6580  178.1280  140.0520 C   0  0  2  0  0  3  0  0  0  0  0  0
  186.4380  178.7940  139.9140 O   0  0  0  0  0  1  0  0  0  0  0  0
  188.3280  178.5890  141.2560 N   0  0  0  0  0  2  0  0  0  0  0  0
  187.8180  177.7930  142.3650 C   0  0  0  0  0  2  0  0  0  0  0  0
  188.8550  177.3590  145.9470 C   0  0  0  0  0  0  0  0  0  0  0  0
  191.4540  177.9500  143.5310 C   0  0  0  0  0  2  0  0  0  0  0  0
  190.0790  178.4010  143.0500 C   0  0  0  0  0  2  0  0  0  0  0  0
  188.3680  177.7340  144.7560 C   0  0  0  0  0  3  0  0  0  0  0  0
  188.0420  177.6750  147.1500 C   0  0  0  0  0  1  0  0  0  0  0  0
  191.6070  178.1380  145.0250 C   0  0  0  0  0  2  0  0  0  0  0  0
  190.0610  176.5370  146.1420 C   0  0  0  0  0  3  0  0  0  0  0  0
  191.2850  176.8640  145.7310 C   0  0  0  0  0  3  0  0  0  0  0  0
  189.2980  175.9890  143.1870 C   0  0  0  0  0  1  0  0  0  0  0  0
  188.9140  177.4580  143.3740 C   0  0  1  0  0  0  0  0  0  0  0  0
  193.4180  174.1890  137.6550 N   0  0  0  0  0  2  0  0  0  0  0  0
  194.7590  174.7520  137.7560 C   0  0  0  0  0  2  0  0  0  0  0  0
  195.4030  172.7780  138.8640 O   0  0  0  0  0  0  0  0  0  0  0  0
  196.6170  174.6680  139.5500 C   0  0  0  0  0  1  0  0  0  0  0  0
  195.5750  173.9790  138.7390 C   0  0  0  0  0  0  0  0  0  0  0  0
  1  4  1  0  0  0  0
  1 11  1  0  0  0  0
  2 11  2  0  0  0  0
  2 10  1  0  0  0  0
  3  7  1  0  0  0  0
  4 12  1  0  0  0  0
  5 13  1  0  0  0  0
  6  5  1  0  0  0  0
  6  7  2  0  0  0  0
  8  4  2  0  0  0  0
  9  1  2  0  0  0  0
 10  3  2  0  0  0  0
 11  6  1  0  0  0  0
 12  5  1  0  0  0  0
 13 14  1  0  0  0  0
 14 15  1  6  0  0  0
 14 16  1  0  0  0  0
 16 17  1  0  0  0  0
 17 27  1  0  0  0  0
 18 24  1  0  0  0  0
 18 22  1  0  0  0  0
 19 23  1  0  0  0  0
 20 27  1  0  0  0  0
 20 19  1  0  0  0  0
 21 18  2  0  0  0  0
 23 25  1  0  0  0  0
 25 24  2  0  0  0  0
 27 26  1  6  0  0  0
 27 21  1  0  0  0  0
 28 10  1  0  0  0  0
 28 29  1  0  0  0  0
 29 32  1  0  0  0  0
 32 30  2  0  0  0  0
 32 31  1  0  0  0  0
M  END
>  <MODEL>
9

>  <REMARK>
 VINA RESULT:      -7.9      3.324      9.221
  Name = 
  8 active torsions:
  status: ('A' for Active; 'I' for Inactive)
    1  A    between atoms: C_2  and  N_12
    2  A    between atoms: C_2  and  C_17
    3  A    between atoms: C_6  and  N_14
    4  A    between atoms: C_6  and  C_32
    5  A    between atoms: C_7  and  C_16
    6  A    between atoms: C_7  and  N_26
    7  A    between atoms: N_14  and  C_17
    8  A    between atoms: C_25  and  N_26
                            x       y       z     vdW  Elec       q    Type
                         _______ _______ _______ _____ _____    ______ ____

>  <TORSDO>
F 8

$$$$
