=
 OpenBabel10222422053D

 31 34  0  0  1  0  0  0  0  0999 V2000
  187.2980  178.3900  141.0100 C   0  0  0  0  0  0  0  0  0  0  0  0
  191.0470  176.9870  137.3980 O   0  0  0  0  0  0  0  0  0  0  0  0
  188.2100  178.1380  139.9250 C   0  0  0  0  0  0  0  0  0  0  0  0
  187.5560  177.6240  142.0260 N   0  0  0  0  0  0  0  0  0  0  0  0
  188.7080  176.7550  141.7180 C   0  0  1  0  0  3  0  0  0  0  0  0
  190.0720  176.7200  139.4700 C   0  0  0  0  0  3  0  0  0  0  0  0
  189.2630  178.3180  137.8690 N   0  0  0  0  0  2  0  0  0  0  0  0
  188.3010  178.7210  138.7090 N   0  0  0  0  0  0  0  0  0  0  0  0
  189.0650  177.1610  140.3220 C   0  0  0  0  0  0  0  0  0  0  0  0
  186.2700  179.3820  141.0020 N   0  0  0  0  0  2  0  0  0  0  0  0
  190.1530  177.3350  138.2100 C   0  0  0  0  0  0  0  0  0  0  0  0
  189.8400  177.0250  142.6660 C   0  0  0  0  0  0  0  0  0  0  0  0
  191.4240  179.9640  144.3250 N   0  0  0  0  0  1  0  0  0  0  0  0
  191.6170  176.2510  144.1300 C   0  0  0  0  0  3  0  0  0  0  0  0
  190.1190  178.3460  143.0380 C   0  0  0  0  0  3  0  0  0  0  0  0
  191.8940  177.5720  144.4940 C   0  0  0  0  0  3  0  0  0  0  0  0
  191.1450  178.6200  143.9490 C   0  0  0  0  0  0  0  0  0  0  0  0
  190.5910  175.9770  143.2230 C   0  0  0  0  0  3  0  0  0  0  0  0
  185.4120  179.6410  142.1520 C   0  0  0  0  0  2  0  0  0  0  0  0
  184.2240  178.6880  142.1690 C   0  0  0  0  0  2  0  0  0  0  0  0
  183.5180  178.6980  143.5200 C   0  0  0  0  0  2  0  0  0  0  0  0
  184.2390  179.4660  144.4360 O   0  0  0  0  0  0  0  0  0  0  0  0
  184.1940  178.7350  145.6240 C   0  0  0  0  0  2  0  0  0  0  0  0
  185.5670  178.3070  146.0130 C   0  0  0  0  0  0  0  0  0  0  0  0
  187.6290  177.1540  145.4740 C   0  0  0  0  0  3  0  0  0  0  0  0
  187.8300  178.4810  148.9230 O   0  0  0  0  0  1  0  0  0  0  0  0
  188.1330  177.4510  146.7430 C   0  0  0  0  0  0  0  0  0  0  0  0
  187.3480  178.1750  147.6560 C   0  0  0  0  0  0  0  0  0  0  0  0
  186.0650  178.5960  147.2890 C   0  0  0  0  0  3  0  0  0  0  0  0
  189.5020  176.9920  147.1080 C   0  0  0  0  0  1  0  0  0  0  0  0
  186.3490  177.5800  145.1090 C   0  0  0  0  0  3  0  0  0  0  0  0
  1  4  2  0  0  0  0
  2 11  2  0  0  0  0
  3  9  1  0  0  0  0
  3  1  1  0  0  0  0
  5  4  1  0  0  0  0
  5 12  1  1  0  0  0
  6  9  2  0  0  0  0
  7 11  1  0  0  0  0
  7  8  1  0  0  0  0
  8  3  2  0  0  0  0
  9  5  1  0  0  0  0
 10  1  1  0  0  0  0
 10 19  1  0  0  0  0
 11  6  1  0  0  0  0
 12 15  2  0  0  0  0
 12 18  1  0  0  0  0
 14 16  1  0  0  0  0
 15 17  1  0  0  0  0
 17 13  1  0  0  0  0
 17 16  2  0  0  0  0
 18 14  2  0  0  0  0
 19 20  1  0  0  0  0
 20 21  1  0  0  0  0
 21 22  1  0  0  0  0
 22 23  1  0  0  0  0
 23 24  1  0  0  0  0
 24 29  1  0  0  0  0
 25 27  2  0  0  0  0
 27 30  1  0  0  0  0
 27 28  1  0  0  0  0
 28 26  1  0  0  0  0
 29 28  2  0  0  0  0
 31 25  1  0  0  0  0
 31 24  2  0  0  0  0
M  END
>  <MODEL>
1

>  <REMARK>
 VINA RESULT:      -9.1      0.000      0.000
  Name = 
  7 active torsions:
  status: ('A' for Active; 'I' for Inactive)
    1  A    between atoms: C_1  and  C_24
    2  A    between atoms: C_3  and  C_17
    3  A    between atoms: C_13  and  C_15
    4  A    between atoms: C_13  and  N_29
    5  A    between atoms: C_15  and  C_20
    6  A    between atoms: C_20  and  O_23
    7  A    between atoms: O_23  and  C_24
                            x       y       z     vdW  Elec       q    Type
                         _______ _______ _______ _____ _____    ______ ____

>  <TORSDO>
F 7

$$$$
=
 OpenBabel10222422053D

 31 34  0  0  1  0  0  0  0  0999 V2000
  185.5730  178.6440  139.9760 C   0  0  0  0  0  0  0  0  0  0  0  0
  180.5240  178.0980  141.7860 O   0  0  0  0  0  0  0  0  0  0  0  0
  184.1840  178.4280  140.2830 C   0  0  0  0  0  0  0  0  0  0  0  0
  186.1860  179.2250  140.9610 N   0  0  0  0  0  0  0  0  0  0  0  0
  185.2410  179.4620  142.0690 C   0  0  1  0  0  3  0  0  0  0  0  0
  182.6900  178.8230  142.0990 C   0  0  0  0  0  3  0  0  0  0  0  0
  181.9800  177.7440  140.0740 N   0  0  0  0  0  2  0  0  0  0  0  0
  183.2080  177.8450  139.5510 N   0  0  0  0  0  0  0  0  0  0  0  0
  183.9570  178.9100  141.5320 C   0  0  0  0  0  0  0  0  0  0  0  0
  186.2170  178.2350  138.7680 N   0  0  0  0  0  2  0  0  0  0  0  0
  181.6880  178.2150  141.3260 C   0  0  0  0  0  0  0  0  0  0  0  0
  185.6750  178.7200  143.3000 C   0  0  0  0  0  0  0  0  0  0  0  0
  184.9400  178.7420  146.9540 N   0  0  0  0  0  1  0  0  0  0  0  0
  186.9370  176.9450  144.3770 C   0  0  0  0  0  3  0  0  0  0  0  0
  185.1330  179.0770  144.5400 C   0  0  0  0  0  3  0  0  0  0  0  0
  186.3960  177.3100  145.6130 C   0  0  0  0  0  3  0  0  0  0  0  0
  185.4940  178.3750  145.6950 C   0  0  0  0  0  0  0  0  0  0  0  0
  186.5750  177.6440  143.2220 C   0  0  0  0  0  3  0  0  0  0  0  0
  187.6430  178.4210  138.5300 C   0  0  0  0  0  2  0  0  0  0  0  0
  188.4540  177.3160  139.1950 C   0  0  0  0  0  2  0  0  0  0  0  0
  189.5920  177.8850  140.0350 C   0  0  0  0  0  2  0  0  0  0  0  0
  190.2420  176.8620  140.7250 O   0  0  0  0  0  0  0  0  0  0  0  0
  191.2760  177.4990  141.4130 C   0  0  0  0  0  2  0  0  0  0  0  0
  191.0510  177.3970  142.8830 C   0  0  0  0  0  0  0  0  0  0  0  0
  190.0340  178.2560  144.9070 C   0  0  0  0  0  3  0  0  0  0  0  0
  192.1120  175.3070  145.7340 O   0  0  0  0  0  1  0  0  0  0  0  0
  190.6560  177.2510  145.6530 C   0  0  0  0  0  0  0  0  0  0  0  0
  191.4850  176.3150  145.0110 C   0  0  0  0  0  0  0  0  0  0  0  0
  191.6840  176.3950  143.6290 C   0  0  0  0  0  3  0  0  0  0  0  0
  190.4260  177.1880  147.1230 C   0  0  0  0  0  1  0  0  0  0  0  0
  190.2320  178.3310  143.5260 C   0  0  0  0  0  3  0  0  0  0  0  0
  1  3  1  0  0  0  0
  1  4  2  0  0  0  0
  3  9  1  0  0  0  0
  4  5  1  0  0  0  0
  5 12  1  1  0  0  0
  7 11  1  0  0  0  0
  8  7  1  0  0  0  0
  8  3  2  0  0  0  0
  9  5  1  0  0  0  0
  9  6  2  0  0  0  0
 10  1  1  0  0  0  0
 11  2  2  0  0  0  0
 11  6  1  0  0  0  0
 12 15  1  0  0  0  0
 14 16  2  0  0  0  0
 15 17  2  0  0  0  0
 16 17  1  0  0  0  0
 17 13  1  0  0  0  0
 18 12  2  0  0  0  0
 18 14  1  0  0  0  0
 19 10  1  0  0  0  0
 19 20  1  0  0  0  0
 20 21  1  0  0  0  0
 21 22  1  0  0  0  0
 22 23  1  0  0  0  0
 23 24  1  0  0  0  0
 24 31  2  0  0  0  0
 24 29  1  0  0  0  0
 25 27  2  0  0  0  0
 27 30  1  0  0  0  0
 28 27  1  0  0  0  0
 28 26  1  0  0  0  0
 29 28  2  0  0  0  0
 31 25  1  0  0  0  0
M  END
>  <MODEL>
2

>  <REMARK>
 VINA RESULT:      -8.3      2.483      5.871
  Name = 
  7 active torsions:
  status: ('A' for Active; 'I' for Inactive)
    1  A    between atoms: C_1  and  C_24
    2  A    between atoms: C_3  and  C_17
    3  A    between atoms: C_13  and  C_15
    4  A    between atoms: C_13  and  N_29
    5  A    between atoms: C_15  and  C_20
    6  A    between atoms: C_20  and  O_23
    7  A    between atoms: O_23  and  C_24
                            x       y       z     vdW  Elec       q    Type
                         _______ _______ _______ _____ _____    ______ ____

>  <TORSDO>
F 7

$$$$
=
 OpenBabel10222422053D

 31 34  0  0  1  0  0  0  0  0999 V2000
  189.6690  177.1640  142.3210 C   0  0  0  0  0  0  0  0  0  0  0  0
  190.8710  177.1350  147.5770 O   0  0  0  0  0  0  0  0  0  0  0  0
  190.1710  177.1990  143.6700 C   0  0  0  0  0  0  0  0  0  0  0  0
  188.4220  176.8030  142.2950 N   0  0  0  0  0  0  0  0  0  0  0  0
  187.9430  176.5550  143.6680 C   0  0  1  0  0  3  0  0  0  0  0  0
  189.3560  176.7930  145.8740 C   0  0  0  0  0  3  0  0  0  0  0  0
  191.6120  177.5060  145.4580 N   0  0  0  0  0  2  0  0  0  0  0  0
  191.3930  177.5350  144.1370 N   0  0  0  0  0  0  0  0  0  0  0  0
  189.1570  176.8360  144.4980 C   0  0  0  0  0  0  0  0  0  0  0  0
  190.4180  177.5240  141.1600 N   0  0  0  0  0  2  0  0  0  0  0  0
  190.6310  177.1450  146.3430 C   0  0  0  0  0  0  0  0  0  0  0  0
  186.8240  177.4930  144.0130 C   0  0  0  0  0  0  0  0  0  0  0  0
  185.3070  178.9930  147.0700 N   0  0  0  0  0  1  0  0  0  0  0  0
  185.0440  179.0110  143.3570 C   0  0  0  0  0  3  0  0  0  0  0  0
  186.5720  177.7920  145.3580 C   0  0  0  0  0  3  0  0  0  0  0  0
  184.7950  179.3010  144.7010 C   0  0  0  0  0  3  0  0  0  0  0  0
  185.5590  178.6930  145.7020 C   0  0  0  0  0  0  0  0  0  0  0  0
  186.0580  178.1140  143.0120 C   0  0  0  0  0  3  0  0  0  0  0  0
  189.8450  177.5330  139.8200 C   0  0  0  0  0  2  0  0  0  0  0  0
  190.3970  176.3850  138.9840 C   0  0  0  0  0  2  0  0  0  0  0  0
  189.7130  176.3040  137.6250 C   0  0  0  0  0  2  0  0  0  0  0  0
  188.3580  176.0100  137.7820 O   0  0  0  0  0  0  0  0  0  0  0  0
  187.7110  176.8020  136.8320 C   0  0  0  0  0  2  0  0  0  0  0  0
  186.3860  177.2440  137.3520 C   0  0  0  0  0  0  0  0  0  0  0  0
  183.9670  177.1460  137.2630 C   0  0  0  0  0  3  0  0  0  0  0  0
  185.0020  179.5810  139.8510 O   0  0  0  0  0  1  0  0  0  0  0  0
  183.8860  178.0990  138.2820 C   0  0  0  0  0  0  0  0  0  0  0  0
  185.0610  178.6330  138.8360 C   0  0  0  0  0  0  0  0  0  0  0  0
  186.3080  178.2080  138.3650 C   0  0  0  0  0  3  0  0  0  0  0  0
  182.5460  178.5340  138.7660 C   0  0  0  0  0  1  0  0  0  0  0  0
  185.2140  176.7200  136.7970 C   0  0  0  0  0  3  0  0  0  0  0  0
  1  3  1  0  0  0  0
  3  8  2  0  0  0  0
  3  9  1  0  0  0  0
  4  1  2  0  0  0  0
  4  5  1  0  0  0  0
  5 12  1  1  0  0  0
  5  9  1  0  0  0  0
  6 11  1  0  0  0  0
  7 11  1  0  0  0  0
  8  7  1  0  0  0  0
  9  6  2  0  0  0  0
 10  1  1  0  0  0  0
 11  2  2  0  0  0  0
 12 15  1  0  0  0  0
 14 16  2  0  0  0  0
 15 17  2  0  0  0  0
 16 17  1  0  0  0  0
 17 13  1  0  0  0  0
 18 14  1  0  0  0  0
 18 12  2  0  0  0  0
 19 10  1  0  0  0  0
 20 19  1  0  0  0  0
 21 22  1  0  0  0  0
 21 20  1  0  0  0  0
 23 24  1  0  0  0  0
 23 22  1  0  0  0  0
 24 29  1  0  0  0  0
 25 27  2  0  0  0  0
 27 30  1  0  0  0  0
 27 28  1  0  0  0  0
 28 26  1  0  0  0  0
 29 28  2  0  0  0  0
 31 25  1  0  0  0  0
 31 24  2  0  0  0  0
M  END
>  <MODEL>
3

>  <REMARK>
 VINA RESULT:      -8.2      2.748      7.294
  Name = 
  7 active torsions:
  status: ('A' for Active; 'I' for Inactive)
    1  A    between atoms: C_1  and  C_24
    2  A    between atoms: C_3  and  C_17
    3  A    between atoms: C_13  and  C_15
    4  A    between atoms: C_13  and  N_29
    5  A    between atoms: C_15  and  C_20
    6  A    between atoms: C_20  and  O_23
    7  A    between atoms: O_23  and  C_24
                            x       y       z     vdW  Elec       q    Type
                         _______ _______ _______ _____ _____    ______ ____

>  <TORSDO>
F 7

$$$$
=
 OpenBabel10222422053D

 31 34  0  0  1  0  0  0  0  0999 V2000
  189.7590  177.0650  142.3230 C   0  0  0  0  0  0  0  0  0  0  0  0
  190.7070  177.2670  147.6270 O   0  0  0  0  0  0  0  0  0  0  0  0
  190.1950  177.1620  143.6910 C   0  0  0  0  0  0  0  0  0  0  0  0
  188.5180  176.6900  142.2520 N   0  0  0  0  0  0  0  0  0  0  0  0
  187.9760  176.4930  143.6100 C   0  0  1  0  0  3  0  0  0  0  0  0
  189.2780  176.8380  145.8680 C   0  0  0  0  0  3  0  0  0  0  0  0
  191.5450  177.5580  145.5320 N   0  0  0  0  0  2  0  0  0  0  0  0
  191.3900  177.5300  144.2020 N   0  0  0  0  0  0  0  0  0  0  0  0
  189.1460  176.8220  144.4840 C   0  0  0  0  0  0  0  0  0  0  0  0
  190.5600  177.3850  141.1840 N   0  0  0  0  0  2  0  0  0  0  0  0
  190.5260  177.2230  146.3840 C   0  0  0  0  0  0  0  0  0  0  0  0
  186.8330  177.4330  143.8610 C   0  0  0  0  0  0  0  0  0  0  0  0
  184.9250  178.7590  146.7760 N   0  0  0  0  0  1  0  0  0  0  0  0
  185.1840  179.0330  143.0730 C   0  0  0  0  0  3  0  0  0  0  0  0
  186.4000  177.6460  145.1760 C   0  0  0  0  0  3  0  0  0  0  0  0
  184.7530  179.2380  144.3870 C   0  0  0  0  0  3  0  0  0  0  0  0
  185.3610  178.5460  145.4380 C   0  0  0  0  0  0  0  0  0  0  0  0
  186.2230  178.1370  142.8100 C   0  0  0  0  0  3  0  0  0  0  0  0
  190.0520  177.3320  139.8190 C   0  0  0  0  0  2  0  0  0  0  0  0
  188.8510  178.2550  139.6500 C   0  0  0  0  0  2  0  0  0  0  0  0
  187.8450  177.6860  138.6570 C   0  0  0  0  0  2  0  0  0  0  0  0
  187.0880  178.7140  138.0920 O   0  0  0  0  0  0  0  0  0  0  0  0
  186.0240  178.0670  137.4630 C   0  0  0  0  0  2  0  0  0  0  0  0
  184.8230  178.0800  138.3450 C   0  0  0  0  0  0  0  0  0  0  0  0
  183.4020  179.2440  139.9240 C   0  0  0  0  0  3  0  0  0  0  0  0
  182.1190  175.8100  139.4200 O   0  0  0  0  0  1  0  0  0  0  0  0
  182.5960  178.1090  140.0450 C   0  0  0  0  0  0  0  0  0  0  0  0
  182.9080  176.9490  139.3150 C   0  0  0  0  0  0  0  0  0  0  0  0
  184.0240  176.9370  138.4720 C   0  0  0  0  0  3  0  0  0  0  0  0
  181.4140  178.1480  140.9500 C   0  0  0  0  0  1  0  0  0  0  0  0
  184.5140  179.2310  139.0780 C   0  0  0  0  0  3  0  0  0  0  0  0
  1  3  1  0  0  0  0
  3  8  2  0  0  0  0
  3  9  1  0  0  0  0
  4  1  2  0  0  0  0
  4  5  1  0  0  0  0
  5 12  1  1  0  0  0
  5  9  1  0  0  0  0
  6 11  1  0  0  0  0
  7 11  1  0  0  0  0
  8  7  1  0  0  0  0
  9  6  2  0  0  0  0
 10  1  1  0  0  0  0
 11  2  2  0  0  0  0
 12 15  1  0  0  0  0
 14 16  2  0  0  0  0
 15 17  2  0  0  0  0
 16 17  1  0  0  0  0
 17 13  1  0  0  0  0
 18 14  1  0  0  0  0
 18 12  2  0  0  0  0
 19 10  1  0  0  0  0
 20 19  1  0  0  0  0
 21 20  1  0  0  0  0
 22 21  1  0  0  0  0
 23 22  1  0  0  0  0
 23 24  1  0  0  0  0
 24 29  2  0  0  0  0
 24 31  1  0  0  0  0
 25 27  1  0  0  0  0
 27 30  1  0  0  0  0
 28 26  1  0  0  0  0
 28 27  2  0  0  0  0
 29 28  1  0  0  0  0
 31 25  2  0  0  0  0
M  END
>  <MODEL>
4

>  <REMARK>
 VINA RESULT:      -8.2      2.783      6.957
  Name = 
  7 active torsions:
  status: ('A' for Active; 'I' for Inactive)
    1  A    between atoms: C_1  and  C_24
    2  A    between atoms: C_3  and  C_17
    3  A    between atoms: C_13  and  C_15
    4  A    between atoms: C_13  and  N_29
    5  A    between atoms: C_15  and  C_20
    6  A    between atoms: C_20  and  O_23
    7  A    between atoms: O_23  and  C_24
                            x       y       z     vdW  Elec       q    Type
                         _______ _______ _______ _____ _____    ______ ____

>  <TORSDO>
F 7

$$$$
=
 OpenBabel10222422053D

 31 34  0  0  1  0  0  0  0  0999 V2000
  187.7440  178.4140  140.5280 C   0  0  0  0  0  0  0  0  0  0  0  0
  192.9280  176.9400  140.3580 O   0  0  0  0  0  0  0  0  0  0  0  0
  189.1200  178.0200  140.6770 C   0  0  0  0  0  0  0  0  0  0  0  0
  187.4430  178.6060  139.2810 N   0  0  0  0  0  0  0  0  0  0  0  0
  188.6250  178.3480  138.4350 C   0  0  1  0  0  3  0  0  0  0  0  0
  191.0050  177.6070  139.2750 C   0  0  0  0  0  3  0  0  0  0  0  0
  191.1080  177.3490  141.6610 N   0  0  0  0  0  2  0  0  0  0  0  0
  189.8240  177.7100  141.7880 N   0  0  0  0  0  0  0  0  0  0  0  0
  189.6730  177.9750  139.4370 C   0  0  0  0  0  0  0  0  0  0  0  0
  186.8070  178.5340  141.6000 N   0  0  0  0  0  2  0  0  0  0  0  0
  191.7220  177.2880  140.4390 C   0  0  0  0  0  0  0  0  0  0  0  0
  188.3570  177.2170  137.4860 C   0  0  0  0  0  0  0  0  0  0  0  0
  185.8280  174.5150  137.0380 N   0  0  0  0  0  1  0  0  0  0  0  0
  188.8780  175.9650  135.4710 C   0  0  0  0  0  3  0  0  0  0  0  0
  187.2480  176.3900  137.7040 C   0  0  0  0  0  3  0  0  0  0  0  0
  187.7720  175.1400  135.6960 C   0  0  0  0  0  3  0  0  0  0  0  0
  186.9570  175.3520  136.8120 C   0  0  0  0  0  0  0  0  0  0  0  0
  189.1680  177.0030  136.3590 C   0  0  0  0  0  3  0  0  0  0  0  0
  185.4060  178.8750  141.3910 C   0  0  0  0  0  2  0  0  0  0  0  0
  184.5030  178.0390  142.2900 C   0  0  0  0  0  2  0  0  0  0  0  0
  183.8260  178.8950  143.3530 C   0  0  0  0  0  2  0  0  0  0  0  0
  184.7810  179.4640  144.1970 O   0  0  0  0  0  0  0  0  0  0  0  0
  184.6810  178.7390  145.3850 C   0  0  0  0  0  2  0  0  0  0  0  0
  186.0330  178.2910  145.8260 C   0  0  0  0  0  0  0  0  0  0  0  0
  188.1680  177.2690  145.3110 C   0  0  0  0  0  3  0  0  0  0  0  0
  188.0510  178.1180  148.9110 O   0  0  0  0  0  1  0  0  0  0  0  0
  188.5600  177.4010  146.6460 C   0  0  0  0  0  0  0  0  0  0  0  0
  187.6810  177.9770  147.5790 C   0  0  0  0  0  0  0  0  0  0  0  0
  186.4180  178.4150  147.1670 C   0  0  0  0  0  3  0  0  0  0  0  0
  189.9100  176.9270  147.0580 C   0  0  0  0  0  1  0  0  0  0  0  0
  186.9080  177.7120  144.9010 C   0  0  0  0  0  3  0  0  0  0  0  0
  1  3  1  0  0  0  0
  1 10  1  0  0  0  0
  2 11  2  0  0  0  0
  3  8  2  0  0  0  0
  4  1  2  0  0  0  0
  5 12  1  6  0  0  0
  5  4  1  0  0  0  0
  5  9  1  0  0  0  0
  6  9  2  0  0  0  0
  6 11  1  0  0  0  0
  7  8  1  0  0  0  0
  9  3  1  0  0  0  0
 11  7  1  0  0  0  0
 12 15  1  0  0  0  0
 14 16  2  0  0  0  0
 14 18  1  0  0  0  0
 16 17  1  0  0  0  0
 17 13  1  0  0  0  0
 17 15  2  0  0  0  0
 18 12  2  0  0  0  0
 19 10  1  0  0  0  0
 19 20  1  0  0  0  0
 20 21  1  0  0  0  0
 21 22  1  0  0  0  0
 22 23  1  0  0  0  0
 23 24  1  0  0  0  0
 24 29  1  0  0  0  0
 25 27  2  0  0  0  0
 27 30  1  0  0  0  0
 27 28  1  0  0  0  0
 28 26  1  0  0  0  0
 29 28  2  0  0  0  0
 31 25  1  0  0  0  0
 31 24  2  0  0  0  0
M  END
>  <MODEL>
5

>  <REMARK>
 VINA RESULT:      -8.0      2.094      4.326
  Name = 
  7 active torsions:
  status: ('A' for Active; 'I' for Inactive)
    1  A    between atoms: C_1  and  C_24
    2  A    between atoms: C_3  and  C_17
    3  A    between atoms: C_13  and  C_15
    4  A    between atoms: C_13  and  N_29
    5  A    between atoms: C_15  and  C_20
    6  A    between atoms: C_20  and  O_23
    7  A    between atoms: O_23  and  C_24
                            x       y       z     vdW  Elec       q    Type
                         _______ _______ _______ _____ _____    ______ ____

>  <TORSDO>
F 7

$$$$
=
 OpenBabel10222422053D

 31 34  0  0  1  0  0  0  0  0999 V2000
  190.3850  177.1500  139.7650 C   0  0  0  0  0  0  0  0  0  0  0  0
  187.4860  178.3940  135.3920 O   0  0  0  0  0  0  0  0  0  0  0  0
  189.5660  177.6460  138.6900 C   0  0  0  0  0  0  0  0  0  0  0  0
  190.8180  175.9540  139.5100 N   0  0  0  0  0  0  0  0  0  0  0  0
  190.3220  175.5120  138.1930 C   0  0  1  0  0  3  0  0  0  0  0  0
  188.7890  176.8960  136.5650 C   0  0  0  0  0  3  0  0  0  0  0  0
  188.2430  179.0700  137.4290 N   0  0  0  0  0  2  0  0  0  0  0  0
  188.9410  178.8360  138.5470 N   0  0  0  0  0  0  0  0  0  0  0  0
  189.5090  176.6830  137.7350 C   0  0  0  0  0  0  0  0  0  0  0  0
  190.7240  177.8860  140.9420 N   0  0  0  0  0  2  0  0  0  0  0  0
  188.1460  178.1370  136.4310 C   0  0  0  0  0  0  0  0  0  0  0  0
  191.4670  175.2510  137.2580 C   0  0  0  0  0  0  0  0  0  0  0  0
  194.6330  176.9220  136.2200 N   0  0  0  0  0  1  0  0  0  0  0  0
  192.6450  173.8200  135.6870 C   0  0  0  0  0  3  0  0  0  0  0  0
  192.4950  176.1970  137.1560 C   0  0  0  0  0  3  0  0  0  0  0  0
  193.6650  174.7710  135.5860 C   0  0  0  0  0  3  0  0  0  0  0  0
  193.5910  175.9580  136.3200 C   0  0  0  0  0  0  0  0  0  0  0  0
  191.5520  174.0560  136.5240 C   0  0  0  0  0  3  0  0  0  0  0  0
  191.6110  177.3620  141.9730 C   0  0  0  0  0  2  0  0  0  0  0  0
  191.2660  177.9490  143.3360 C   0  0  0  0  0  2  0  0  0  0  0  0
  191.1240  176.8620  144.3940 C   0  0  0  0  0  2  0  0  0  0  0  0
  189.7870  176.4850  144.5240 O   0  0  0  0  0  0  0  0  0  0  0  0
  189.2890  177.2920  145.5490 C   0  0  0  0  0  2  0  0  0  0  0  0
  187.8740  177.6640  145.2650 C   0  0  0  0  0  0  0  0  0  0  0  0
  186.0910  178.0390  143.6700 C   0  0  0  0  0  3  0  0  0  0  0  0
  184.8570  178.7680  147.0820 O   0  0  0  0  0  1  0  0  0  0  0  0
  185.2310  178.4060  144.7090 C   0  0  0  0  0  0  0  0  0  0  0  0
  185.6960  178.4070  146.0350 C   0  0  0  0  0  0  0  0  0  0  0  0
  187.0180  178.0410  146.3080 C   0  0  0  0  0  3  0  0  0  0  0  0
  183.8270  178.7900  144.3900 C   0  0  0  0  0  1  0  0  0  0  0  0
  187.4100  177.6700  143.9460 C   0  0  0  0  0  3  0  0  0  0  0  0
  1 10  1  0  0  0  0
  2 11  2  0  0  0  0
  3  1  1  0  0  0  0
  4  1  2  0  0  0  0
  5 12  1  6  0  0  0
  5  4  1  0  0  0  0
  6  9  2  0  0  0  0
  7  8  1  0  0  0  0
  8  3  2  0  0  0  0
  9  5  1  0  0  0  0
  9  3  1  0  0  0  0
 10 19  1  0  0  0  0
 11  6  1  0  0  0  0
 11  7  1  0  0  0  0
 13 17  1  0  0  0  0
 14 18  1  0  0  0  0
 15 12  1  0  0  0  0
 16 14  2  0  0  0  0
 16 17  1  0  0  0  0
 17 15  2  0  0  0  0
 18 12  2  0  0  0  0
 19 20  1  0  0  0  0
 20 21  1  0  0  0  0
 21 22  1  0  0  0  0
 22 23  1  0  0  0  0
 24 23  1  0  0  0  0
 24 29  1  0  0  0  0
 25 31  1  0  0  0  0
 25 27  2  0  0  0  0
 27 28  1  0  0  0  0
 28 29  2  0  0  0  0
 28 26  1  0  0  0  0
 30 27  1  0  0  0  0
 31 24  2  0  0  0  0
M  END
>  <MODEL>
6

>  <REMARK>
 VINA RESULT:      -7.9      2.813      5.362
  Name = 
  7 active torsions:
  status: ('A' for Active; 'I' for Inactive)
    1  A    between atoms: C_1  and  C_24
    2  A    between atoms: C_3  and  C_17
    3  A    between atoms: C_13  and  C_15
    4  A    between atoms: C_13  and  N_29
    5  A    between atoms: C_15  and  C_20
    6  A    between atoms: C_20  and  O_23
    7  A    between atoms: O_23  and  C_24
                            x       y       z     vdW  Elec       q    Type
                         _______ _______ _______ _____ _____    ______ ____

>  <TORSDO>
F 7

$$$$
=
 OpenBabel10222422053D

 31 34  0  0  1  0  0  0  0  0999 V2000
  189.0870  177.3490  142.1090 C   0  0  0  0  0  0  0  0  0  0  0  0
  191.9750  176.9910  146.6480 O   0  0  0  0  0  0  0  0  0  0  0  0
  190.0100  177.3050  143.2130 C   0  0  0  0  0  0  0  0  0  0  0  0
  187.9050  176.9550  142.4720 N   0  0  0  0  0  0  0  0  0  0  0  0
  187.9120  176.5990  143.9040 C   0  0  1  0  0  3  0  0  0  0  0  0
  189.9790  176.7250  145.5250 C   0  0  0  0  0  3  0  0  0  0  0  0
  191.9640  177.5280  144.4370 N   0  0  0  0  0  2  0  0  0  0  0  0
  191.3180  177.6420  143.2700 N   0  0  0  0  0  0  0  0  0  0  0  0
  189.3330  176.8570  144.3010 C   0  0  0  0  0  0  0  0  0  0  0  0
  189.4050  177.8090  140.7950 N   0  0  0  0  0  2  0  0  0  0  0  0
  191.3370  177.0790  145.5690 C   0  0  0  0  0  0  0  0  0  0  0  0
  186.9690  177.4800  144.6700 C   0  0  0  0  0  0  0  0  0  0  0  0
  183.9080  179.5020  144.0080 N   0  0  0  0  0  1  0  0  0  0  0  0
  186.1940  178.4580  146.7550 C   0  0  0  0  0  3  0  0  0  0  0  0
  185.9040  178.0900  143.9960 C   0  0  0  0  0  3  0  0  0  0  0  0
  185.1360  179.0690  146.0750 C   0  0  0  0  0  3  0  0  0  0  0  0
  184.9900  178.8840  144.6970 C   0  0  0  0  0  0  0  0  0  0  0  0
  187.1060  177.6620  146.0560 C   0  0  0  0  0  3  0  0  0  0  0  0
  188.4170  177.8940  139.7260 C   0  0  0  0  0  2  0  0  0  0  0  0
  188.9520  178.7050  138.5530 C   0  0  0  0  0  2  0  0  0  0  0  0
  188.5530  178.0880  137.2180 C   0  0  0  0  0  2  0  0  0  0  0  0
  188.8750  176.7300  137.1970 O   0  0  0  0  0  0  0  0  0  0  0  0
  189.7950  176.6000  136.1560 C   0  0  0  0  0  2  0  0  0  0  0  0
  191.0250  175.9140  136.6420 C   0  0  0  0  0  0  0  0  0  0  0  0
  192.4550  173.9590  136.6730 C   0  0  0  0  0  3  0  0  0  0  0  0
  193.8500  176.5330  138.9360 O   0  0  0  0  0  1  0  0  0  0  0  0
  193.3080  174.5890  137.5830 C   0  0  0  0  0  0  0  0  0  0  0  0
  193.0150  175.8880  138.0310 C   0  0  0  0  0  0  0  0  0  0  0  0
  191.8720  176.5440  137.5630 C   0  0  0  0  0  3  0  0  0  0  0  0
  194.5190  173.8680  138.0650 C   0  0  0  0  0  1  0  0  0  0  0  0
  191.3160  174.6180  136.2040 C   0  0  0  0  0  3  0  0  0  0  0  0
  1  4  2  0  0  0  0
  1  3  1  0  0  0  0
  3  8  2  0  0  0  0
  3  9  1  0  0  0  0
  4  5  1  0  0  0  0
  5  9  1  0  0  0  0
  5 12  1  1  0  0  0
  6 11  1  0  0  0  0
  7 11  1  0  0  0  0
  8  7  1  0  0  0  0
  9  6  2  0  0  0  0
 10  1  1  0  0  0  0
 11  2  2  0  0  0  0
 12 18  1  0  0  0  0
 13 17  1  0  0  0  0
 15 12  2  0  0  0  0
 15 17  1  0  0  0  0
 16 14  1  0  0  0  0
 17 16  2  0  0  0  0
 18 14  2  0  0  0  0
 19 10  1  0  0  0  0
 20 19  1  0  0  0  0
 21 20  1  0  0  0  0
 22 21  1  0  0  0  0
 23 24  1  0  0  0  0
 23 22  1  0  0  0  0
 24 29  1  0  0  0  0
 25 27  2  0  0  0  0
 27 28  1  0  0  0  0
 27 30  1  0  0  0  0
 28 26  1  0  0  0  0
 29 28  2  0  0  0  0
 31 24  2  0  0  0  0
 31 25  1  0  0  0  0
M  END
>  <MODEL>
7

>  <REMARK>
 VINA RESULT:      -7.8      2.547      7.761
  Name = 
  7 active torsions:
  status: ('A' for Active; 'I' for Inactive)
    1  A    between atoms: C_1  and  C_24
    2  A    between atoms: C_3  and  C_17
    3  A    between atoms: C_13  and  C_15
    4  A    between atoms: C_13  and  N_29
    5  A    between atoms: C_15  and  C_20
    6  A    between atoms: C_20  and  O_23
    7  A    between atoms: O_23  and  C_24
                            x       y       z     vdW  Elec       q    Type
                         _______ _______ _______ _____ _____    ______ ____

>  <TORSDO>
F 7

$$$$
=
 OpenBabel10222422053D

 31 34  0  0  1  0  0  0  0  0999 V2000
  189.5340  177.0340  142.2590 C   0  0  0  0  0  0  0  0  0  0  0  0
  190.9640  177.3630  147.4480 O   0  0  0  0  0  0  0  0  0  0  0  0
  190.0940  177.1620  143.5790 C   0  0  0  0  0  0  0  0  0  0  0  0
  188.2930  176.6590  142.3110 N   0  0  0  0  0  0  0  0  0  0  0  0
  187.8770  176.4960  143.7170 C   0  0  1  0  0  3  0  0  0  0  0  0
  189.3800  176.8940  145.8380 C   0  0  0  0  0  3  0  0  0  0  0  0
  191.6070  177.6010  145.2780 N   0  0  0  0  0  2  0  0  0  0  0  0
  191.3310  177.5410  143.9690 N   0  0  0  0  0  0  0  0  0  0  0  0
  189.1220  176.8440  144.4730 C   0  0  0  0  0  0  0  0  0  0  0  0
  190.2280  177.3240  141.0450 N   0  0  0  0  0  2  0  0  0  0  0  0
  190.6700  177.2890  146.2270 C   0  0  0  0  0  0  0  0  0  0  0  0
  186.7610  177.4440  144.0500 C   0  0  0  0  0  0  0  0  0  0  0  0
  185.0800  178.7880  147.0930 N   0  0  0  0  0  1  0  0  0  0  0  0
  185.0700  179.0540  143.3790 C   0  0  0  0  0  3  0  0  0  0  0  0
  186.4270  177.6620  145.3920 C   0  0  0  0  0  3  0  0  0  0  0  0
  184.7370  179.2640  144.7210 C   0  0  0  0  0  3  0  0  0  0  0  0
  185.4160  178.5700  145.7270 C   0  0  0  0  0  0  0  0  0  0  0  0
  186.0810  178.1510  143.0440 C   0  0  0  0  0  3  0  0  0  0  0  0
  189.5970  177.2380  139.7340 C   0  0  0  0  0  2  0  0  0  0  0  0
  188.9530  178.5660  139.3520 C   0  0  0  0  0  2  0  0  0  0  0  0
  188.9820  178.7880  137.8450 C   0  0  0  0  0  2  0  0  0  0  0  0
  187.6830  178.9030  137.3480 O   0  0  0  0  0  0  0  0  0  0  0  0
  187.6480  178.0470  136.2460 C   0  0  0  0  0  2  0  0  0  0  0  0
  186.9530  176.7790  136.6060 C   0  0  0  0  0  0  0  0  0  0  0  0
  184.9500  175.6250  137.3310 C   0  0  0  0  0  3  0  0  0  0  0  0
  187.7080  173.1830  136.9650 O   0  0  0  0  0  1  0  0  0  0  0  0
  185.6430  174.4110  137.3320 C   0  0  0  0  0  0  0  0  0  0  0  0
  187.0010  174.3800  136.9720 C   0  0  0  0  0  0  0  0  0  0  0  0
  187.6530  175.5650  136.6160 C   0  0  0  0  0  3  0  0  0  0  0  0
  184.9250  173.1640  137.7140 C   0  0  0  0  0  1  0  0  0  0  0  0
  185.6030  176.8070  136.9710 C   0  0  0  0  0  3  0  0  0  0  0  0
  1  4  2  0  0  0  0
  1  3  1  0  0  0  0
  3  8  2  0  0  0  0
  3  9  1  0  0  0  0
  4  5  1  0  0  0  0
  5 12  1  1  0  0  0
  5  9  1  0  0  0  0
  6 11  1  0  0  0  0
  7 11  1  0  0  0  0
  8  7  1  0  0  0  0
  9  6  2  0  0  0  0
 10  1  1  0  0  0  0
 11  2  2  0  0  0  0
 12 15  1  0  0  0  0
 14 16  2  0  0  0  0
 15 17  2  0  0  0  0
 16 17  1  0  0  0  0
 17 13  1  0  0  0  0
 18 14  1  0  0  0  0
 18 12  2  0  0  0  0
 19 10  1  0  0  0  0
 20 19  1  0  0  0  0
 21 20  1  0  0  0  0
 22 21  1  0  0  0  0
 23 24  1  0  0  0  0
 23 22  1  0  0  0  0
 24 29  2  0  0  0  0
 24 31  1  0  0  0  0
 25 27  1  0  0  0  0
 26 28  1  0  0  0  0
 27 30  1  0  0  0  0
 28 27  2  0  0  0  0
 29 28  1  0  0  0  0
 31 25  2  0  0  0  0
M  END
>  <MODEL>
8

>  <REMARK>
 VINA RESULT:      -7.8      3.106      7.612
  Name = 
  7 active torsions:
  status: ('A' for Active; 'I' for Inactive)
    1  A    between atoms: C_1  and  C_24
    2  A    between atoms: C_3  and  C_17
    3  A    between atoms: C_13  and  C_15
    4  A    between atoms: C_13  and  N_29
    5  A    between atoms: C_15  and  C_20
    6  A    between atoms: C_20  and  O_23
    7  A    between atoms: O_23  and  C_24
                            x       y       z     vdW  Elec       q    Type
                         _______ _______ _______ _____ _____    ______ ____

>  <TORSDO>
F 7

$$$$
=
 OpenBabel10222422053D

 31 34  0  0  1  0  0  0  0  0999 V2000
  185.5230  178.4300  143.6420 C   0  0  0  0  0  0  0  0  0  0  0  0
  190.1440  176.9060  141.3190 O   0  0  0  0  0  0  0  0  0  0  0  0
  186.7020  178.1320  142.8710 C   0  0  0  0  0  0  0  0  0  0  0  0
  185.5120  177.7660  144.7570 N   0  0  0  0  0  0  0  0  0  0  0  0
  186.7240  176.9290  144.8540 C   0  0  1  0  0  3  0  0  0  0  0  0
  188.6480  176.7690  143.0690 C   0  0  0  0  0  3  0  0  0  0  0  0
  188.2700  178.1870  141.1670 N   0  0  0  0  0  2  0  0  0  0  0  0
  187.1070  178.6130  141.6750 N   0  0  0  0  0  0  0  0  0  0  0  0
  187.4380  177.2330  143.5730 C   0  0  0  0  0  0  0  0  0  0  0  0
  184.5150  179.3690  143.2650 N   0  0  0  0  0  2  0  0  0  0  0  0
  189.0550  177.2790  141.8250 C   0  0  0  0  0  0  0  0  0  0  0  0
  187.5490  177.3320  146.0410 C   0  0  0  0  0  0  0  0  0  0  0  0
  191.0630  176.9640  147.2280 N   0  0  0  0  0  1  0  0  0  0  0  0
  187.8060  178.5120  148.1490 C   0  0  0  0  0  3  0  0  0  0  0  0
  188.8960  176.9540  146.0970 C   0  0  0  0  0  3  0  0  0  0  0  0
  189.1480  178.1280  148.2010 C   0  0  0  0  0  3  0  0  0  0  0  0
  189.6940  177.3500  147.1760 C   0  0  0  0  0  0  0  0  0  0  0  0
  187.0080  178.1200  147.0710 C   0  0  0  0  0  3  0  0  0  0  0  0
  183.3710  179.6840  144.1120 C   0  0  0  0  0  2  0  0  0  0  0  0
  182.2090  178.7390  143.8290 C   0  0  0  0  0  2  0  0  0  0  0  0
  181.0790  179.4480  143.0930 C   0  0  0  0  0  2  0  0  0  0  0  0
  181.2980  179.4070  141.7150 O   0  0  0  0  0  0  0  0  0  0  0  0
  181.3300  178.0480  141.4020 C   0  0  0  0  0  2  0  0  0  0  0  0
  182.2880  177.8020  140.2880 C   0  0  0  0  0  0  0  0  0  0  0  0
  183.0640  176.4050  138.4670 C   0  0  0  0  0  3  0  0  0  0  0  0
  185.2820  179.3510  138.7830 O   0  0  0  0  0  1  0  0  0  0  0  0
  184.1090  177.2980  138.2190 C   0  0  0  0  0  0  0  0  0  0  0  0
  184.2490  178.4490  139.0130 C   0  0  0  0  0  0  0  0  0  0  0  0
  183.3420  178.6940  140.0490 C   0  0  0  0  0  3  0  0  0  0  0  0
  185.0620  177.0140  137.1100 C   0  0  0  0  0  1  0  0  0  0  0  0
  182.1560  176.6540  139.4990 C   0  0  0  0  0  3  0  0  0  0  0  0
  1  4  2  0  0  0  0
  2 11  2  0  0  0  0
  3  9  1  0  0  0  0
  3  1  1  0  0  0  0
  4  5  1  0  0  0  0
  5 12  1  1  0  0  0
  6  9  2  0  0  0  0
  7  8  1  0  0  0  0
  7 11  1  0  0  0  0
  8  3  2  0  0  0  0
  9  5  1  0  0  0  0
 10  1  1  0  0  0  0
 10 19  1  0  0  0  0
 11  6  1  0  0  0  0
 12 15  2  0  0  0  0
 12 18  1  0  0  0  0
 14 16  1  0  0  0  0
 15 17  1  0  0  0  0
 17 13  1  0  0  0  0
 17 16  2  0  0  0  0
 18 14  2  0  0  0  0
 20 19  1  0  0  0  0
 21 20  1  0  0  0  0
 22 21  1  0  0  0  0
 23 22  1  0  0  0  0
 24 23  1  0  0  0  0
 25 31  1  0  0  0  0
 26 28  1  0  0  0  0
 27 25  2  0  0  0  0
 27 28  1  0  0  0  0
 28 29  2  0  0  0  0
 29 24  1  0  0  0  0
 30 27  1  0  0  0  0
 31 24  2  0  0  0  0
M  END
>  <MODEL>
9

>  <REMARK>
 VINA RESULT:      -7.8      2.781      5.615
  Name = 
  7 active torsions:
  status: ('A' for Active; 'I' for Inactive)
    1  A    between atoms: C_1  and  C_24
    2  A    between atoms: C_3  and  C_17
    3  A    between atoms: C_13  and  C_15
    4  A    between atoms: C_13  and  N_29
    5  A    between atoms: C_15  and  C_20
    6  A    between atoms: C_20  and  O_23
    7  A    between atoms: O_23  and  C_24
                            x       y       z     vdW  Elec       q    Type
                         _______ _______ _______ _____ _____    ______ ____

>  <TORSDO>
F 7

$$$$
