=
 OpenBabel10222421463D

 31 34  0  0  1  0  0  0  0  0999 V2000
  187.8750  177.8000  143.7180 C   0  0  0  0  0  0  0  0  0  0  0  0
  191.9060  176.5000  145.4320 C   0  0  0  0  0  3  0  0  0  0  0  0
  190.9130  177.1390  143.4750 C   0  0  0  0  0  3  0  0  0  0  0  0
  190.0200  177.5550  142.4890 O   0  0  0  0  0  0  0  0  0  0  0  0
  189.5380  177.0440  145.5270 C   0  0  0  0  0  0  0  0  0  0  0  0
  188.4240  176.8700  147.6980 O   0  0  0  0  0  1  0  0  0  0  0  0
  190.7520  176.3490  147.5330 C   0  0  0  0  0  3  0  0  0  0  0  0
  185.9450  178.4850  142.4880 C   0  0  0  0  0  0  0  0  0  0  0  0
  188.6600  177.8580  142.5510 C   0  0  0  0  0  0  0  0  0  0  0  0
  188.3500  177.4210  145.0460 C   0  0  0  0  0  3  0  0  0  0  0  0
  186.5520  178.1160  143.6440 N   0  0  0  0  0  0  0  0  0  0  0  0
  189.5700  176.7550  146.9140 C   0  0  0  0  0  0  0  0  0  0  0  0
  190.7380  176.9120  144.7770 C   0  0  0  0  0  0  0  0  0  0  0  0
  186.6860  178.5620  141.3150 C   0  0  0  0  0  3  0  0  0  0  0  0
  191.9200  176.2200  146.7950 C   0  0  0  0  0  3  0  0  0  0  0  0
  188.0430  178.2530  141.3480 C   0  0  0  0  0  0  0  0  0  0  0  0
  184.4990  178.8340  142.4820 C   0  0  0  0  0  2  0  0  0  0  0  0
  184.1850  179.7610  143.6430 C   0  0  0  0  0  2  0  0  0  0  0  0
  183.3300  179.0560  144.6340 C   0  0  0  0  0  0  0  0  0  0  0  0
  182.2780  178.4780  144.2480 O   0  0  0  0  0  0  0  0  0  0  0  0
  184.8360  178.3910  146.4610 C   0  0  0  0  0  1  0  0  0  0  0  0
  183.6850  179.0710  145.9820 O   0  0  0  0  0  0  0  0  0  0  0  0
  188.8190  178.3160  140.0750 C   0  0  0  0  0  2  0  0  0  0  0  0
  188.6610  177.0710  139.3420 N   0  0  0  0  0  2  0  0  0  0  0  0
  192.3150  176.6050  138.5120 C   0  0  0  0  0  0  0  0  0  0  0  0
  189.8190  176.9340  138.4750 C   0  0  2  0  0  3  0  0  0  0  0  0
  190.8620  175.1360  137.1550 C   0  0  0  0  0  3  0  0  0  0  0  0
  192.1490  175.9150  137.1830 C   0  0  0  0  0  2  0  0  0  0  0  0
  189.7650  175.6110  137.7610 C   0  0  0  0  0  3  0  0  0  0  0  0
  191.1110  177.0680  139.2940 C   0  0  0  0  0  2  0  0  0  0  0  0
  193.4330  176.8110  138.9500 O   0  0  0  0  0  0  0  0  0  0  0  0
  1 10  1  0  0  0  0
  2 15  2  0  0  0  0
  3 13  2  0  0  0  0
  4  9  1  0  0  0  0
  4  3  1  0  0  0  0
  5 12  1  0  0  0  0
  8 11  2  0  0  0  0
  9  1  2  0  0  0  0
 10  5  2  0  0  0  0
 11  1  1  0  0  0  0
 12  7  2  0  0  0  0
 12  6  1  0  0  0  0
 13  2  1  0  0  0  0
 13  5  1  0  0  0  0
 14 16  2  0  0  0  0
 14  8  1  0  0  0  0
 15  7  1  0  0  0  0
 16  9  1  0  0  0  0
 17  8  1  0  0  0  0
 17 18  1  0  0  0  0
 18 19  1  0  0  0  0
 19 22  1  0  0  0  0
 20 19  2  0  0  0  0
 22 21  1  0  0  0  0
 23 16  1  0  0  0  0
 24 23  1  0  0  0  0
 25 31  2  0  0  0  0
 25 30  1  0  0  0  0
 26 30  1  0  0  0  0
 26 24  1  1  0  0  0
 27 28  1  0  0  0  0
 27 29  2  0  0  0  0
 28 25  1  0  0  0  0
 29 26  1  0  0  0  0
M  END
>  <MODEL>
1

>  <REMARK>
 VINA RESULT:      -9.2      0.000      0.000
  Name = 
  7 active torsions:
  status: ('A' for Active; 'I' for Inactive)
    1  A    between atoms: C_2  and  C_14
    2  A    between atoms: C_2  and  C_20
    3  A    between atoms: C_11  and  C_20
    4  A    between atoms: C_13  and  N_27
    5  A    between atoms: C_14  and  O_19
    6  A    between atoms: C_26  and  N_27
    7  A    between atoms: C_26  and  C_31
                            x       y       z     vdW  Elec       q    Type
                         _______ _______ _______ _____ _____    ______ ____

>  <TORSDO>
F 7

$$$$
=
 OpenBabel10222421463D

 31 34  0  0  1  0  0  0  0  0999 V2000
  190.9200  177.3220  140.7780 C   0  0  0  0  0  0  0  0  0  0  0  0
  190.2490  176.4870  136.3370 C   0  0  0  0  0  3  0  0  0  0  0  0
  189.1540  177.2010  138.2120 C   0  0  0  0  0  3  0  0  0  0  0  0
  188.8050  177.5890  139.5040 O   0  0  0  0  0  0  0  0  0  0  0  0
  191.5510  176.6220  138.3860 C   0  0  0  0  0  0  0  0  0  0  0  0
  193.9110  175.9930  138.2700 O   0  0  0  0  0  1  0  0  0  0  0  0
  192.5730  175.8830  136.2910 C   0  0  0  0  0  3  0  0  0  0  0  0
  190.9010  177.8360  143.1110 C   0  0  0  0  0  0  0  0  0  0  0  0
  189.5570  177.6570  140.6770 C   0  0  0  0  0  0  0  0  0  0  0  0
  191.7670  176.8590  139.6820 C   0  0  0  0  0  3  0  0  0  0  0  0
  191.5410  177.4260  141.9860 N   0  0  0  0  0  0  0  0  0  0  0  0
  192.6740  176.1680  137.6520 C   0  0  0  0  0  0  0  0  0  0  0  0
  190.3140  176.7840  137.7040 C   0  0  0  0  0  0  0  0  0  0  0  0
  189.5570  178.1820  143.0520 C   0  0  0  0  0  3  0  0  0  0  0  0
  191.3620  176.0420  135.6320 C   0  0  0  0  0  3  0  0  0  0  0  0
  188.8870  178.0970  141.8340 C   0  0  0  0  0  0  0  0  0  0  0  0
  191.6450  177.9440  144.3950 C   0  0  0  0  0  2  0  0  0  0  0  0
  191.6080  176.6160  145.1300 C   0  0  0  0  0  2  0  0  0  0  0  0
  191.1640  176.8280  146.5330 C   0  0  0  0  0  0  0  0  0  0  0  0
  192.0070  176.7680  147.4680 O   0  0  0  0  0  0  0  0  0  0  0  0
  189.3890  177.7640  147.9550 C   0  0  0  0  0  1  0  0  0  0  0  0
  189.8140  177.0580  146.7990 O   0  0  0  0  0  0  0  0  0  0  0  0
  187.4370  178.4470  141.7940 C   0  0  0  0  0  2  0  0  0  0  0  0
  186.6810  177.4990  142.5950 N   0  0  0  0  0  2  0  0  0  0  0  0
  184.2980  178.8260  145.2060 C   0  0  0  0  0  0  0  0  0  0  0  0
  186.2990  178.1800  143.8200 C   0  0  2  0  0  3  0  0  0  0  0  0
  186.2120  177.6310  146.2190 C   0  0  0  0  0  3  0  0  0  0  0  0
  185.2170  178.7460  146.3980 C   0  0  0  0  0  2  0  0  0  0  0  0
  186.7210  177.3620  145.0090 C   0  0  0  0  0  3  0  0  0  0  0  0
  184.7840  178.4330  143.8330 C   0  0  0  0  0  2  0  0  0  0  0  0
  183.1580  179.2320  145.3490 O   0  0  0  0  0  0  0  0  0  0  0  0
  1 11  1  0  0  0  0
  2 13  1  0  0  0  0
  3  4  1  0  0  0  0
  4  9  1  0  0  0  0
  5 10  2  0  0  0  0
  7 12  2  0  0  0  0
  8 17  1  0  0  0  0
  9  1  2  0  0  0  0
  9 16  1  0  0  0  0
 10  1  1  0  0  0  0
 11  8  2  0  0  0  0
 12  6  1  0  0  0  0
 12  5  1  0  0  0  0
 13  3  2  0  0  0  0
 13  5  1  0  0  0  0
 14  8  1  0  0  0  0
 15  7  1  0  0  0  0
 15  2  2  0  0  0  0
 16 14  2  0  0  0  0
 17 18  1  0  0  0  0
 18 19  1  0  0  0  0
 19 22  1  0  0  0  0
 19 20  2  0  0  0  0
 22 21  1  0  0  0  0
 23 16  1  0  0  0  0
 23 24  1  0  0  0  0
 25 31  2  0  0  0  0
 25 28  1  0  0  0  0
 26 24  1  6  0  0  0
 26 30  1  0  0  0  0
 26 29  1  0  0  0  0
 27 28  1  0  0  0  0
 29 27  2  0  0  0  0
 30 25  1  0  0  0  0
M  END
>  <MODEL>
2

>  <REMARK>
 VINA RESULT:      -9.2      1.586      7.838
  Name = 
  7 active torsions:
  status: ('A' for Active; 'I' for Inactive)
    1  A    between atoms: C_2  and  C_14
    2  A    between atoms: C_2  and  C_20
    3  A    between atoms: C_11  and  C_20
    4  A    between atoms: C_13  and  N_27
    5  A    between atoms: C_14  and  O_19
    6  A    between atoms: C_26  and  N_27
    7  A    between atoms: C_26  and  C_31
                            x       y       z     vdW  Elec       q    Type
                         _______ _______ _______ _____ _____    ______ ____

>  <TORSDO>
F 7

$$$$
=
 OpenBabel10222421463D

 31 34  0  0  1  0  0  0  0  0999 V2000
  187.9670  177.7050  143.7670 C   0  0  0  0  0  0  0  0  0  0  0  0
  191.9560  176.2360  145.4410 C   0  0  0  0  0  3  0  0  0  0  0  0
  190.9270  176.7710  143.4720 C   0  0  0  0  0  3  0  0  0  0  0  0
  190.0260  177.1670  142.4850 O   0  0  0  0  0  0  0  0  0  0  0  0
  189.6470  176.9840  145.5750 C   0  0  0  0  0  0  0  0  0  0  0  0
  188.6250  177.1080  147.7930 O   0  0  0  0  0  1  0  0  0  0  0  0
  190.8940  176.3790  147.5900 C   0  0  0  0  0  3  0  0  0  0  0  0
  186.0430  178.4330  142.5520 C   0  0  0  0  0  0  0  0  0  0  0  0
  188.6990  177.5890  142.5710 C   0  0  0  0  0  0  0  0  0  0  0  0
  188.4720  177.4140  145.1060 C   0  0  0  0  0  3  0  0  0  0  0  0
  186.6720  178.1240  143.7140 N   0  0  0  0  0  0  0  0  0  0  0  0
  189.7210  176.8250  146.9800 C   0  0  0  0  0  0  0  0  0  0  0  0
  190.7960  176.6820  144.7950 C   0  0  0  0  0  0  0  0  0  0  0  0
  186.7320  178.3380  141.3500 C   0  0  0  0  0  3  0  0  0  0  0  0
  192.0110  176.0840  146.8230 C   0  0  0  0  0  3  0  0  0  0  0  0
  188.0610  177.9200  141.3600 C   0  0  0  0  0  0  0  0  0  0  0  0
  184.6320  178.9010  142.5690 C   0  0  0  0  0  2  0  0  0  0  0  0
  184.3820  179.7550  143.7990 C   0  0  0  0  0  2  0  0  0  0  0  0
  183.4420  179.0580  144.7150 C   0  0  0  0  0  0  0  0  0  0  0  0
  182.3720  178.5730  144.2570 O   0  0  0  0  0  0  0  0  0  0  0  0
  184.9600  178.4210  146.5420 C   0  0  0  0  0  1  0  0  0  0  0  0
  183.7400  178.9770  146.0750 O   0  0  0  0  0  0  0  0  0  0  0  0
  188.7780  177.7980  140.0570 C   0  0  0  0  0  2  0  0  0  0  0  0
  188.2310  178.7510  139.1050 N   0  0  0  0  0  2  0  0  0  0  0  0
  187.7460  175.6700  136.9760 C   0  0  0  0  0  0  0  0  0  0  0  0
  187.8700  178.0050  137.9110 C   0  0  2  0  0  3  0  0  0  0  0  0
  185.7930  177.1820  136.8750 C   0  0  0  0  0  3  0  0  0  0  0  0
  186.6160  176.1750  136.1180 C   0  0  0  0  0  2  0  0  0  0  0  0
  186.3790  178.0430  137.7190 C   0  0  0  0  0  3  0  0  0  0  0  0
  188.3770  176.5590  138.0190 C   0  0  0  0  0  2  0  0  0  0  0  0
  188.1710  174.5400  136.8110 O   0  0  0  0  0  0  0  0  0  0  0  0
  1 10  1  0  0  0  0
  2 15  2  0  0  0  0
  3 13  2  0  0  0  0
  4  9  1  0  0  0  0
  4  3  1  0  0  0  0
  5 12  1  0  0  0  0
  8 17  1  0  0  0  0
  8 11  2  0  0  0  0
  9  1  2  0  0  0  0
 10  5  2  0  0  0  0
 11  1  1  0  0  0  0
 12  7  2  0  0  0  0
 12  6  1  0  0  0  0
 13  2  1  0  0  0  0
 13  5  1  0  0  0  0
 14 16  2  0  0  0  0
 14  8  1  0  0  0  0
 15  7  1  0  0  0  0
 16  9  1  0  0  0  0
 17 18  1  0  0  0  0
 18 19  1  0  0  0  0
 19 22  1  0  0  0  0
 20 19  2  0  0  0  0
 22 21  1  0  0  0  0
 23 16  1  0  0  0  0
 24 23  1  0  0  0  0
 25 30  1  0  0  0  0
 26 30  1  0  0  0  0
 26 24  1  1  0  0  0
 27 29  2  0  0  0  0
 28 27  1  0  0  0  0
 28 25  1  0  0  0  0
 29 26  1  0  0  0  0
 31 25  2  0  0  0  0
M  END
>  <MODEL>
3

>  <REMARK>
 VINA RESULT:      -9.1      1.774      2.270
  Name = 
  7 active torsions:
  status: ('A' for Active; 'I' for Inactive)
    1  A    between atoms: C_2  and  C_14
    2  A    between atoms: C_2  and  C_20
    3  A    between atoms: C_11  and  C_20
    4  A    between atoms: C_13  and  N_27
    5  A    between atoms: C_14  and  O_19
    6  A    between atoms: C_26  and  N_27
    7  A    between atoms: C_26  and  C_31
                            x       y       z     vdW  Elec       q    Type
                         _______ _______ _______ _____ _____    ______ ____

>  <TORSDO>
F 7

$$$$
=
 OpenBabel10222421463D

 31 34  0  0  1  0  0  0  0  0999 V2000
  186.6460  177.9840  144.5880 C   0  0  0  0  0  0  0  0  0  0  0  0
  191.0850  176.9470  144.8900 C   0  0  0  0  0  3  0  0  0  0  0  0
  189.4880  177.5630  143.3760 C   0  0  0  0  0  3  0  0  0  0  0  0
  188.3050  177.9370  142.7400 O   0  0  0  0  0  0  0  0  0  0  0  0
  188.8390  177.3070  145.7470 C   0  0  0  0  0  0  0  0  0  0  0  0
  188.4790  176.9880  148.1450 O   0  0  0  0  0  1  0  0  0  0  0  0
  190.6650  176.6510  147.2360 C   0  0  0  0  0  3  0  0  0  0  0  0
  184.3870  178.5550  144.0580 C   0  0  0  0  0  0  0  0  0  0  0  0
  187.0170  178.1350  143.2390 C   0  0  0  0  0  0  0  0  0  0  0  0
  187.5390  177.6060  145.6800 C   0  0  0  0  0  3  0  0  0  0  0  0
  185.3500  178.2010  144.9470 N   0  0  0  0  0  0  0  0  0  0  0  0
  189.3250  176.9830  147.0380 C   0  0  0  0  0  0  0  0  0  0  0  0
  189.7470  177.2870  144.6540 C   0  0  0  0  0  0  0  0  0  0  0  0
  184.7140  178.7210  142.7190 C   0  0  0  0  0  3  0  0  0  0  0  0
  191.5460  176.6310  146.1640 C   0  0  0  0  0  3  0  0  0  0  0  0
  186.0300  178.5150  142.3100 C   0  0  0  0  0  0  0  0  0  0  0  0
  182.9940  178.7940  144.5230 C   0  0  0  0  0  2  0  0  0  0  0  0
  182.1790  179.4290  143.4120 C   0  0  0  0  0  2  0  0  0  0  0  0
  180.8760  178.7240  143.2760 C   0  0  0  0  0  0  0  0  0  0  0  0
  180.2600  178.3500  144.3100 O   0  0  0  0  0  0  0  0  0  0  0  0
  181.1910  178.4950  140.8470 C   0  0  0  0  0  1  0  0  0  0  0  0
  180.3690  178.4560  142.0040 O   0  0  0  0  0  0  0  0  0  0  0  0
  186.3580  178.6720  140.8630 C   0  0  0  0  0  2  0  0  0  0  0  0
  185.2080  179.2070  140.1540 N   0  0  0  0  0  2  0  0  0  0  0  0
  186.6520  177.2750  137.2500 C   0  0  0  0  0  0  0  0  0  0  0  0
  185.3060  178.7580  138.7760 C   0  0  2  0  0  3  0  0  0  0  0  0
  184.1890  177.0850  137.3560 C   0  0  0  0  0  3  0  0  0  0  0  0
  185.3880  177.1140  136.4460 C   0  0  0  0  0  2  0  0  0  0  0  0
  184.1480  177.8550  138.4520 C   0  0  0  0  0  3  0  0  0  0  0  0
  186.6450  178.0420  138.5490 C   0  0  0  0  0  2  0  0  0  0  0  0
  187.6950  176.8000  136.8360 O   0  0  0  0  0  0  0  0  0  0  0  0
  1 11  1  0  0  0  0
  1 10  1  0  0  0  0
  2 15  2  0  0  0  0
  3 13  2  0  0  0  0
  4  9  1  0  0  0  0
  4  3  1  0  0  0  0
  5 12  1  0  0  0  0
  8 17  1  0  0  0  0
  8 11  2  0  0  0  0
  9  1  2  0  0  0  0
 10  5  2  0  0  0  0
 12  7  2  0  0  0  0
 12  6  1  0  0  0  0
 13  2  1  0  0  0  0
 13  5  1  0  0  0  0
 14  8  1  0  0  0  0
 15  7  1  0  0  0  0
 16 14  2  0  0  0  0
 16  9  1  0  0  0  0
 18 17  1  0  0  0  0
 19 18  1  0  0  0  0
 19 20  2  0  0  0  0
 21 22  1  0  0  0  0
 22 19  1  0  0  0  0
 23 16  1  0  0  0  0
 24 23  1  0  0  0  0
 25 30  1  0  0  0  0
 26 24  1  1  0  0  0
 27 29  2  0  0  0  0
 28 25  1  0  0  0  0
 28 27  1  0  0  0  0
 29 26  1  0  0  0  0
 30 26  1  0  0  0  0
 31 25  2  0  0  0  0
M  END
>  <MODEL>
4

>  <REMARK>
 VINA RESULT:      -8.9      2.764      3.609
  Name = 
  7 active torsions:
  status: ('A' for Active; 'I' for Inactive)
    1  A    between atoms: C_2  and  C_14
    2  A    between atoms: C_2  and  C_20
    3  A    between atoms: C_11  and  C_20
    4  A    between atoms: C_13  and  N_27
    5  A    between atoms: C_14  and  O_19
    6  A    between atoms: C_26  and  N_27
    7  A    between atoms: C_26  and  C_31
                            x       y       z     vdW  Elec       q    Type
                         _______ _______ _______ _____ _____    ______ ____

>  <TORSDO>
F 7

$$$$
=
 OpenBabel10222421463D

 31 34  0  0  1  0  0  0  0  0999 V2000
  187.8300  177.8570  143.1740 C   0  0  0  0  0  0  0  0  0  0  0  0
  191.6240  176.6390  145.4080 C   0  0  0  0  0  3  0  0  0  0  0  0
  190.8580  177.1260  143.3110 C   0  0  0  0  0  3  0  0  0  0  0  0
  190.0850  177.4720  142.2050 O   0  0  0  0  0  0  0  0  0  0  0  0
  189.2740  177.2300  145.2060 C   0  0  0  0  0  0  0  0  0  0  0  0
  187.9350  177.2600  147.2520 O   0  0  0  0  0  1  0  0  0  0  0  0
  190.2530  176.6870  147.3800 C   0  0  0  0  0  3  0  0  0  0  0  0
  186.0580  178.4690  141.6930 C   0  0  0  0  0  0  0  0  0  0  0  0
  188.7330  177.8030  142.0960 C   0  0  0  0  0  0  0  0  0  0  0  0
  188.1540  177.5850  144.5710 C   0  0  0  0  0  3  0  0  0  0  0  0
  186.5310  178.1900  142.9340 N   0  0  0  0  0  0  0  0  0  0  0  0
  189.1540  177.0600  146.6070 C   0  0  0  0  0  0  0  0  0  0  0  0
  190.5420  177.0130  144.6010 C   0  0  0  0  0  0  0  0  0  0  0  0
  186.9190  178.4330  140.6030 C   0  0  0  0  0  3  0  0  0  0  0  0
  191.4880  176.4760  146.7830 C   0  0  0  0  0  3  0  0  0  0  0  0
  188.2570  178.1050  140.8060 C   0  0  0  0  0  0  0  0  0  0  0  0
  184.6300  178.8420  141.5050 C   0  0  0  0  0  2  0  0  0  0  0  0
  184.1540  178.3990  140.1330 C   0  0  0  0  0  2  0  0  0  0  0  0
  183.6190  179.5660  139.3840 C   0  0  0  0  0  0  0  0  0  0  0  0
  184.4120  180.4450  138.9510 O   0  0  0  0  0  0  0  0  0  0  0  0
  181.6770  180.7900  138.4990 C   0  0  0  0  0  1  0  0  0  0  0  0
  182.2420  179.6910  139.1980 O   0  0  0  0  0  0  0  0  0  0  0  0
  189.1620  178.0460  139.6210 C   0  0  0  0  0  2  0  0  0  0  0  0
  188.9310  179.2010  138.7690 N   0  0  0  0  0  2  0  0  0  0  0  0
  189.6700  176.7500  135.9930 C   0  0  0  0  0  0  0  0  0  0  0  0
  189.0490  178.7490  137.3940 C   0  0  2  0  0  3  0  0  0  0  0  0
  187.5240  177.9270  135.6430 C   0  0  0  0  0  3  0  0  0  0  0  0
  188.7070  177.2880  134.9670 C   0  0  0  0  0  2  0  0  0  0  0  0
  187.6810  178.6140  136.7840 C   0  0  0  0  0  3  0  0  0  0  0  0
  189.8130  177.4180  137.3390 C   0  0  0  0  0  2  0  0  0  0  0  0
  190.3560  175.7790  135.7260 O   0  0  0  0  0  0  0  0  0  0  0  0
  1 10  1  0  0  0  0
  2 15  2  0  0  0  0
  3 13  2  0  0  0  0
  4  3  1  0  0  0  0
  5 12  1  0  0  0  0
  8 11  2  0  0  0  0
  9  4  1  0  0  0  0
  9  1  2  0  0  0  0
 10  5  2  0  0  0  0
 11  1  1  0  0  0  0
 12  6  1  0  0  0  0
 12  7  2  0  0  0  0
 13  5  1  0  0  0  0
 13  2  1  0  0  0  0
 14 16  2  0  0  0  0
 14  8  1  0  0  0  0
 15  7  1  0  0  0  0
 16  9  1  0  0  0  0
 17  8  1  0  0  0  0
 18 17  1  0  0  0  0
 19 18  1  0  0  0  0
 20 19  2  0  0  0  0
 21 22  1  0  0  0  0
 22 19  1  0  0  0  0
 23 16  1  0  0  0  0
 24 23  1  0  0  0  0
 25 30  1  0  0  0  0
 26 24  1  1  0  0  0
 27 29  2  0  0  0  0
 28 27  1  0  0  0  0
 28 25  1  0  0  0  0
 29 26  1  0  0  0  0
 30 26  1  0  0  0  0
 31 25  2  0  0  0  0
M  END
>  <MODEL>
5

>  <REMARK>
 VINA RESULT:      -8.9      2.458      3.196
  Name = 
  7 active torsions:
  status: ('A' for Active; 'I' for Inactive)
    1  A    between atoms: C_2  and  C_14
    2  A    between atoms: C_2  and  C_20
    3  A    between atoms: C_11  and  C_20
    4  A    between atoms: C_13  and  N_27
    5  A    between atoms: C_14  and  O_19
    6  A    between atoms: C_26  and  N_27
    7  A    between atoms: C_26  and  C_31
                            x       y       z     vdW  Elec       q    Type
                         _______ _______ _______ _____ _____    ______ ____

>  <TORSDO>
F 7

$$$$
=
 OpenBabel10222421463D

 31 34  0  0  1  0  0  0  0  0999 V2000
  188.0380  177.5070  143.6320 C   0  0  0  0  0  0  0  0  0  0  0  0
  183.8400  179.1140  142.8140 C   0  0  0  0  0  3  0  0  0  0  0  0
  185.7840  178.5560  141.7500 C   0  0  0  0  0  3  0  0  0  0  0  0
  187.0730  178.1340  141.4300 O   0  0  0  0  0  0  0  0  0  0  0  0
  185.6520  178.2770  144.2020 C   0  0  0  0  0  0  0  0  0  0  0  0
  185.2440  178.0970  146.6070 O   0  0  0  0  0  1  0  0  0  0  0  0
  183.5040  178.9130  145.1840 C   0  0  0  0  0  3  0  0  0  0  0  0
  190.2920  176.7170  143.6890 C   0  0  0  0  0  0  0  0  0  0  0  0
  188.1100  177.6610  142.2350 C   0  0  0  0  0  0  0  0  0  0  0  0
  186.8750  177.8070  144.4630 C   0  0  0  0  0  3  0  0  0  0  0  0
  189.1260  177.0400  144.3050 N   0  0  0  0  0  0  0  0  0  0  0  0
  184.8040  178.4280  145.3270 C   0  0  0  0  0  0  0  0  0  0  0  0
  185.1500  178.6290  142.9200 C   0  0  0  0  0  0  0  0  0  0  0  0
  190.4020  176.8470  142.3100 C   0  0  0  0  0  3  0  0  0  0  0  0
  183.0210  179.2560  143.9290 C   0  0  0  0  0  3  0  0  0  0  0  0
  189.3100  177.3150  141.5830 C   0  0  0  0  0  0  0  0  0  0  0  0
  191.4360  176.1950  144.4830 C   0  0  0  0  0  2  0  0  0  0  0  0
  191.7100  177.1110  145.6620 C   0  0  0  0  0  2  0  0  0  0  0  0
  191.4270  176.3950  146.9340 C   0  0  0  0  0  0  0  0  0  0  0  0
  192.3570  175.7800  147.5220 O   0  0  0  0  0  0  0  0  0  0  0  0
  189.4680  177.5810  147.8310 C   0  0  0  0  0  1  0  0  0  0  0  0
  190.1280  176.3860  147.4430 O   0  0  0  0  0  0  0  0  0  0  0  0
  189.4540  177.4750  140.1070 C   0  0  0  0  0  2  0  0  0  0  0  0
  190.8560  177.3750  139.7370 N   0  0  0  0  0  2  0  0  0  0  0  0
  190.3340  176.5420  136.0920 C   0  0  0  0  0  0  0  0  0  0  0  0
  190.9260  176.5560  138.5390 C   0  0  2  0  0  3  0  0  0  0  0  0
  192.6270  176.0070  136.8440 C   0  0  0  0  0  3  0  0  0  0  0  0
  191.5140  175.6230  135.9070 C   0  0  0  0  0  2  0  0  0  0  0  0
  192.3550  176.4470  138.0810 C   0  0  0  0  0  3  0  0  0  0  0  0
  190.0380  177.1540  137.4380 C   0  0  0  0  0  2  0  0  0  0  0  0
  189.5980  176.7750  135.1480 O   0  0  0  0  0  0  0  0  0  0  0  0
  1 11  1  0  0  0  0
  1 10  1  0  0  0  0
  2 13  1  0  0  0  0
  2 15  2  0  0  0  0
  3 13  2  0  0  0  0
  4  3  1  0  0  0  0
  4  9  1  0  0  0  0
  5 10  2  0  0  0  0
  5 12  1  0  0  0  0
  7 12  2  0  0  0  0
  8 11  2  0  0  0  0
  8 17  1  0  0  0  0
  9  1  2  0  0  0  0
 12  6  1  0  0  0  0
 13  5  1  0  0  0  0
 14  8  1  0  0  0  0
 15  7  1  0  0  0  0
 16  9  1  0  0  0  0
 16 14  2  0  0  0  0
 17 18  1  0  0  0  0
 18 19  1  0  0  0  0
 19 22  1  0  0  0  0
 19 20  2  0  0  0  0
 22 21  1  0  0  0  0
 23 16  1  0  0  0  0
 24 23  1  0  0  0  0
 25 30  1  0  0  0  0
 26 24  1  1  0  0  0
 27 29  2  0  0  0  0
 28 25  1  0  0  0  0
 28 27  1  0  0  0  0
 29 26  1  0  0  0  0
 30 26  1  0  0  0  0
 31 25  2  0  0  0  0
M  END
>  <MODEL>
6

>  <REMARK>
 VINA RESULT:      -8.9      1.815      5.380
  Name = 
  7 active torsions:
  status: ('A' for Active; 'I' for Inactive)
    1  A    between atoms: C_2  and  C_14
    2  A    between atoms: C_2  and  C_20
    3  A    between atoms: C_11  and  C_20
    4  A    between atoms: C_13  and  N_27
    5  A    between atoms: C_14  and  O_19
    6  A    between atoms: C_26  and  N_27
    7  A    between atoms: C_26  and  C_31
                            x       y       z     vdW  Elec       q    Type
                         _______ _______ _______ _____ _____    ______ ____

>  <TORSDO>
F 7

$$$$
=
 OpenBabel10222421463D

 31 34  0  0  1  0  0  0  0  0999 V2000
  188.4080  177.9110  142.9870 C   0  0  0  0  0  0  0  0  0  0  0  0
  187.2220  177.8950  147.4000 C   0  0  0  0  0  3  0  0  0  0  0  0
  186.3630  178.2640  145.3140 C   0  0  0  0  0  3  0  0  0  0  0  0
  186.1690  178.4090  143.9420 O   0  0  0  0  0  0  0  0  0  0  0  0
  188.7440  177.6340  145.5210 C   0  0  0  0  0  0  0  0  0  0  0  0
  191.0520  176.9970  146.0160 O   0  0  0  0  0  1  0  0  0  0  0  0
  189.5040  177.2710  147.8170 C   0  0  0  0  0  3  0  0  0  0  0  0
  188.6730  178.0360  140.6160 C   0  0  0  0  0  0  0  0  0  0  0  0
  187.0500  178.2640  142.8700 C   0  0  0  0  0  0  0  0  0  0  0  0
  189.1110  177.6340  144.2370 C   0  0  0  0  0  3  0  0  0  0  0  0
  189.1650  177.8080  141.8600 N   0  0  0  0  0  0  0  0  0  0  0  0
  189.7630  177.3020  146.4470 C   0  0  0  0  0  0  0  0  0  0  0  0
  187.4460  177.9350  146.0170 C   0  0  0  0  0  0  0  0  0  0  0  0
  187.3360  178.3800  140.4570 C   0  0  0  0  0  3  0  0  0  0  0  0
  188.2360  177.5670  148.2950 C   0  0  0  0  0  3  0  0  0  0  0  0
  186.5250  178.4900  141.5830 C   0  0  0  0  0  0  0  0  0  0  0  0
  189.5530  177.8880  139.4260 C   0  0  0  0  0  2  0  0  0  0  0  0
  188.7340  177.4510  138.2260 C   0  0  0  0  0  2  0  0  0  0  0  0
  188.9140  178.4190  137.1120 C   0  0  0  0  0  0  0  0  0  0  0  0
  188.9830  179.6520  137.3650 O   0  0  0  0  0  0  0  0  0  0  0  0
  189.7870  176.8510  135.4300 C   0  0  0  0  0  1  0  0  0  0  0  0
  188.9710  177.9530  135.7990 O   0  0  0  0  0  0  0  0  0  0  0  0
  185.0980  178.8860  141.3960 C   0  0  0  0  0  2  0  0  0  0  0  0
  184.9310  179.5220  140.1000 N   0  0  0  0  0  2  0  0  0  0  0  0
  183.6610  177.0220  137.5720 C   0  0  0  0  0  0  0  0  0  0  0  0
  183.9300  178.7600  139.3740 C   0  0  2  0  0  3  0  0  0  0  0  0
  182.5790  176.7410  139.7780 C   0  0  0  0  0  3  0  0  0  0  0  0
  182.4010  176.6100  138.2890 C   0  0  0  0  0  2  0  0  0  0  0  0
  183.2970  177.7490  140.2910 C   0  0  0  0  0  3  0  0  0  0  0  0
  184.5670  178.0780  138.1550 C   0  0  0  0  0  2  0  0  0  0  0  0
  183.9390  176.5130  136.5000 O   0  0  0  0  0  0  0  0  0  0  0  0
  1 10  1  0  0  0  0
  2 15  2  0  0  0  0
  3 13  2  0  0  0  0
  4  3  1  0  0  0  0
  5 13  1  0  0  0  0
  5 12  1  0  0  0  0
  6 12  1  0  0  0  0
  7 15  1  0  0  0  0
  8 11  1  0  0  0  0
  9  1  1  0  0  0  0
  9  4  1  0  0  0  0
 10  5  2  0  0  0  0
 11  1  2  0  0  0  0
 12  7  2  0  0  0  0
 13  2  1  0  0  0  0
 14  8  2  0  0  0  0
 14 16  1  0  0  0  0
 16  9  2  0  0  0  0
 17  8  1  0  0  0  0
 18 17  1  0  0  0  0
 19 20  2  0  0  0  0
 19 18  1  0  0  0  0
 21 22  1  0  0  0  0
 22 19  1  0  0  0  0
 23 16  1  0  0  0  0
 24 23  1  0  0  0  0
 25 30  1  0  0  0  0
 25 28  1  0  0  0  0
 26 24  1  1  0  0  0
 26 29  1  0  0  0  0
 27 29  2  0  0  0  0
 28 27  1  0  0  0  0
 30 26  1  0  0  0  0
 31 25  2  0  0  0  0
M  END
>  <MODEL>
7

>  <REMARK>
 VINA RESULT:      -8.9      3.175      6.273
  Name = 
  7 active torsions:
  status: ('A' for Active; 'I' for Inactive)
    1  A    between atoms: C_2  and  C_14
    2  A    between atoms: C_2  and  C_20
    3  A    between atoms: C_11  and  C_20
    4  A    between atoms: C_13  and  N_27
    5  A    between atoms: C_14  and  O_19
    6  A    between atoms: C_26  and  N_27
    7  A    between atoms: C_26  and  C_31
                            x       y       z     vdW  Elec       q    Type
                         _______ _______ _______ _____ _____    ______ ____

>  <TORSDO>
F 7

$$$$
=
 OpenBabel10222421463D

 31 34  0  0  1  0  0  0  0  0999 V2000
  188.1840  177.8850  139.5850 C   0  0  0  0  0  0  0  0  0  0  0  0
  191.3470  176.2290  136.7340 C   0  0  0  0  0  3  0  0  0  0  0  0
  190.9350  176.5570  138.9580 C   0  0  0  0  0  3  0  0  0  0  0  0
  190.3780  176.8900  140.1910 O   0  0  0  0  0  0  0  0  0  0  0  0
  189.2200  177.2520  137.3190 C   0  0  0  0  0  0  0  0  0  0  0  0
  187.7050  177.8350  135.4900 O   0  0  0  0  0  1  0  0  0  0  0  0
  189.8140  176.8270  134.9850 C   0  0  0  0  0  3  0  0  0  0  0  0
  186.7800  178.6730  141.3500 C   0  0  0  0  0  0  0  0  0  0  0  0
  189.1580  177.4840  140.5180 C   0  0  0  0  0  0  0  0  0  0  0  0
  188.2830  177.7420  138.1350 C   0  0  0  0  0  3  0  0  0  0  0  0
  187.0330  178.4600  140.0340 N   0  0  0  0  0  0  0  0  0  0  0  0
  188.9140  177.3050  135.9370 C   0  0  0  0  0  0  0  0  0  0  0  0
  190.4670  176.6990  137.7180 C   0  0  0  0  0  0  0  0  0  0  0  0
  187.7120  178.2860  142.3030 C   0  0  0  0  0  3  0  0  0  0  0  0
  191.0300  176.2900  135.3810 C   0  0  0  0  0  3  0  0  0  0  0  0
  188.9000  177.6870  141.8870 C   0  0  0  0  0  0  0  0  0  0  0  0
  185.4940  179.2910  141.7710 C   0  0  0  0  0  2  0  0  0  0  0  0
  184.7680  178.3710  142.7360 C   0  0  0  0  0  2  0  0  0  0  0  0
  184.4030  179.1190  143.9680 C   0  0  0  0  0  0  0  0  0  0  0  0
  183.2660  179.6560  144.0570 O   0  0  0  0  0  0  0  0  0  0  0  0
  185.2230  178.5060  146.2040 C   0  0  0  0  0  1  0  0  0  0  0  0
  185.3370  179.2440  144.9970 O   0  0  0  0  0  0  0  0  0  0  0  0
  189.9020  177.3010  142.9220 C   0  0  0  0  0  2  0  0  0  0  0  0
  190.3780  178.4890  143.6120 N   0  0  0  0  0  2  0  0  0  0  0  0
  189.4890  177.0210  146.9750 C   0  0  0  0  0  0  0  0  0  0  0  0
  190.5990  178.1200  144.9990 C   0  0  2  0  0  3  0  0  0  0  0  0
  191.7230  176.2930  146.2080 C   0  0  0  0  0  3  0  0  0  0  0  0
  190.8740  176.6150  147.4070 C   0  0  0  0  0  2  0  0  0  0  0  0
  191.5960  176.9970  145.0750 C   0  0  0  0  0  3  0  0  0  0  0  0
  189.2690  177.7230  145.6570 C   0  0  0  0  0  2  0  0  0  0  0  0
  188.5390  176.8000  147.7060 O   0  0  0  0  0  0  0  0  0  0  0  0
  1 11  2  0  0  0  0
  1  9  1  0  0  0  0
  2 13  1  0  0  0  0
  3  4  1  0  0  0  0
  4  9  1  0  0  0  0
  5 13  1  0  0  0  0
  5 10  2  0  0  0  0
  6 12  1  0  0  0  0
  7 15  1  0  0  0  0
  7 12  2  0  0  0  0
  8 17  1  0  0  0  0
  8 14  2  0  0  0  0
  9 16  2  0  0  0  0
 10  1  1  0  0  0  0
 11  8  1  0  0  0  0
 12  5  1  0  0  0  0
 13  3  2  0  0  0  0
 15  2  2  0  0  0  0
 16 14  1  0  0  0  0
 16 23  1  0  0  0  0
 17 18  1  0  0  0  0
 18 19  1  0  0  0  0
 19 20  2  0  0  0  0
 19 22  1  0  0  0  0
 22 21  1  0  0  0  0
 23 24  1  0  0  0  0
 25 28  1  0  0  0  0
 25 31  2  0  0  0  0
 26 24  1  6  0  0  0
 26 29  1  0  0  0  0
 26 30  1  0  0  0  0
 27 28  1  0  0  0  0
 29 27  2  0  0  0  0
 30 25  1  0  0  0  0
M  END
>  <MODEL>
8

>  <REMARK>
 VINA RESULT:      -8.8      1.930      6.803
  Name = 
  7 active torsions:
  status: ('A' for Active; 'I' for Inactive)
    1  A    between atoms: C_2  and  C_14
    2  A    between atoms: C_2  and  C_20
    3  A    between atoms: C_11  and  C_20
    4  A    between atoms: C_13  and  N_27
    5  A    between atoms: C_14  and  O_19
    6  A    between atoms: C_26  and  N_27
    7  A    between atoms: C_26  and  C_31
                            x       y       z     vdW  Elec       q    Type
                         _______ _______ _______ _____ _____    ______ ____

>  <TORSDO>
F 7

$$$$
=
 OpenBabel10222421463D

 31 34  0  0  1  0  0  0  0  0999 V2000
  187.9550  177.6390  143.4010 C   0  0  0  0  0  0  0  0  0  0  0  0
  183.6820  179.1170  142.7440 C   0  0  0  0  0  3  0  0  0  0  0  0
  185.6080  178.6410  141.6090 C   0  0  0  0  0  3  0  0  0  0  0  0
  186.8990  178.2680  141.2410 O   0  0  0  0  0  0  0  0  0  0  0  0
  185.5650  178.3200  144.0600 C   0  0  0  0  0  0  0  0  0  0  0  0
  185.2410  178.0880  146.4720 O   0  0  0  0  0  1  0  0  0  0  0  0
  183.4300  178.8680  145.1200 C   0  0  0  0  0  3  0  0  0  0  0  0
  190.2340  176.9240  143.3720 C   0  0  0  0  0  0  0  0  0  0  0  0
  187.9770  177.8180  142.0050 C   0  0  0  0  0  0  0  0  0  0  0  0
  186.8100  177.8870  144.2730 C   0  0  0  0  0  3  0  0  0  0  0  0
  189.0790  177.1980  144.0300 N   0  0  0  0  0  0  0  0  0  0  0  0
  184.7490  178.4240  145.2130 C   0  0  0  0  0  0  0  0  0  0  0  0
  185.0100  178.6750  142.8000 C   0  0  0  0  0  0  0  0  0  0  0  0
  190.2950  177.0800  141.9940 C   0  0  0  0  0  3  0  0  0  0  0  0
  182.8950  179.2140  143.8870 C   0  0  0  0  0  3  0  0  0  0  0  0
  189.1650  177.5230  141.3100 C   0  0  0  0  0  0  0  0  0  0  0  0
  191.4200  176.4280  144.1210 C   0  0  0  0  0  2  0  0  0  0  0  0
  191.6570  177.2890  145.3480 C   0  0  0  0  0  2  0  0  0  0  0  0
  191.6480  176.4410  146.5690 C   0  0  0  0  0  0  0  0  0  0  0  0
  192.3340  175.3840  146.5970 O   0  0  0  0  0  0  0  0  0  0  0  0
  189.4760  177.1090  147.5090 C   0  0  0  0  0  1  0  0  0  0  0  0
  190.8560  176.8090  147.6560 O   0  0  0  0  0  0  0  0  0  0  0  0
  189.2560  177.7100  139.8320 C   0  0  0  0  0  2  0  0  0  0  0  0
  190.5770  177.3200  139.3680 N   0  0  0  0  0  2  0  0  0  0  0  0
  189.5270  175.3560  136.3200 C   0  0  0  0  0  0  0  0  0  0  0  0
  190.4660  177.0310  137.9490 C   0  0  2  0  0  3  0  0  0  0  0  0
  189.0420  177.7690  136.0800 C   0  0  0  0  0  3  0  0  0  0  0  0
  189.4110  176.5050  135.3510 C   0  0  0  0  0  2  0  0  0  0  0  0
  189.5350  178.0190  137.3010 C   0  0  0  0  0  3  0  0  0  0  0  0
  189.9740  175.5910  137.7410 C   0  0  0  0  0  2  0  0  0  0  0  0
  189.2770  174.2240  135.9450 O   0  0  0  0  0  0  0  0  0  0  0  0
  1 11  1  0  0  0  0
  1 10  1  0  0  0  0
  2 13  1  0  0  0  0
  2 15  2  0  0  0  0
  3 13  2  0  0  0  0
  4  3  1  0  0  0  0
  4  9  1  0  0  0  0
  5 10  2  0  0  0  0
  5 12  1  0  0  0  0
  7 12  2  0  0  0  0
  8 11  2  0  0  0  0
  8 17  1  0  0  0  0
  9  1  2  0  0  0  0
 12  6  1  0  0  0  0
 13  5  1  0  0  0  0
 14  8  1  0  0  0  0
 15  7  1  0  0  0  0
 16 14  2  0  0  0  0
 16  9  1  0  0  0  0
 17 18  1  0  0  0  0
 18 19  1  0  0  0  0
 19 20  2  0  0  0  0
 19 22  1  0  0  0  0
 21 22  1  0  0  0  0
 23 16  1  0  0  0  0
 24 23  1  0  0  0  0
 25 30  1  0  0  0  0
 26 24  1  1  0  0  0
 27 29  2  0  0  0  0
 28 27  1  0  0  0  0
 28 25  1  0  0  0  0
 29 26  1  0  0  0  0
 30 26  1  0  0  0  0
 31 25  2  0  0  0  0
M  END
>  <MODEL>
9

>  <REMARK>
 VINA RESULT:      -8.8      1.976      5.482
  Name = 
  7 active torsions:
  status: ('A' for Active; 'I' for Inactive)
    1  A    between atoms: C_2  and  C_14
    2  A    between atoms: C_2  and  C_20
    3  A    between atoms: C_11  and  C_20
    4  A    between atoms: C_13  and  N_27
    5  A    between atoms: C_14  and  O_19
    6  A    between atoms: C_26  and  N_27
    7  A    between atoms: C_26  and  C_31
                            x       y       z     vdW  Elec       q    Type
                         _______ _______ _______ _____ _____    ______ ____

>  <TORSDO>
F 7

$$$$
