=
 OpenBabel10232409303D

 53 58  0  0  1  0  0  0  0  0999 V2000
  189.2000  177.3910  147.5620 C   0  0  2  0  0  3  0  0  0  0  0  0
  189.3120  177.4300  145.4090 C   0  0  1  0  0  0  0  0  0  0  0  0
  191.3970  177.2780  146.6500 O   0  0  0  0  0  1  0  0  0  0  0  0
  188.6430  176.5080  144.6150 F   0  0  0  0  0  0  0  0  0  0  0  0
  188.4160  178.0950  146.4510 C   0  0  1  0  0  3  0  0  0  0  0  0
  190.1080  176.7470  146.5240 C   0  0  1  0  0  3  0  0  0  0  0  0
  188.4320  176.4070  148.1960 O   0  0  0  0  0  1  0  0  0  0  0  0
  190.0710  178.4690  144.5780 C   0  0  0  0  0  2  0  0  0  0  0  0
  190.4570  177.8970  143.3020 N   0  0  0  0  0  2  0  0  0  0  0  0
  189.4850  178.3500  142.3210 C   0  0  0  0  0  2  0  0  0  0  0  0
  189.2120  177.2750  141.2730 C   0  0  2  0  0  3  0  0  0  0  0  0
  189.9290  176.0980  141.5170 O   0  0  0  0  0  1  0  0  0  0  0  0
  188.2260  177.9930  137.8210 C   0  0  1  0  0  3  0  0  0  0  0  0
  188.6380  179.3320  137.7500 O   0  0  0  0  0  1  0  0  0  0  0  0
  189.2330  177.5240  135.5670 C   0  0  0  0  0  1  0  0  0  0  0  0
  189.1230  177.0660  137.0100 C   0  0  1  0  0  3  0  0  0  0  0  0
  189.3670  177.7750  139.8300 C   0  0  2  0  0  3  0  0  0  0  0  0
  188.1510  177.5320  139.1510 O   0  0  0  0  0  0  0  0  0  0  0  0
  190.5900  177.2240  139.0980 C   0  0  0  0  0  0  0  0  0  0  0  0
  193.0330  176.8610  139.1890 C   0  0  0  0  0  3  0  0  0  0  0  0
  193.2620  175.8870  138.2830 C   0  0  0  0  0  0  0  0  0  0  0  0
  190.5100  176.8780  137.6320 C   0  0  1  0  0  3  0  0  0  0  0  0
  190.9610  175.4730  137.4040 C   0  0  0  0  0  3  0  0  0  0  0  0
  191.7480  177.2750  139.6930 N   0  0  0  0  0  0  0  0  0  0  0  0
  192.1980  175.0620  137.6740 C   0  0  0  0  0  3  0  0  0  0  0  0
  194.5750  175.5670  137.9200 O   0  0  0  0  0  0  0  0  0  0  0  0
  194.9300  174.3880  137.1990 C   0  0  0  0  0  1  0  0  0  0  0  0
  187.0690  177.6310  146.3700 O   0  0  0  0  0  0  0  0  0  0  0  0
  185.5810  179.2570  147.0530 O   0  0  0  0  0  0  0  0  0  0  0  0
  185.9910  178.4900  146.1390 C   0  0  0  0  0  0  0  0  0  0  0  0
  183.9740  178.8040  144.7130 C   0  0  0  0  0  3  0  0  0  0  0  0
  184.1000  178.5360  142.3380 N   0  0  0  0  0  0  0  0  0  0  0  0
  185.3370  178.5030  144.8210 C   0  0  0  0  0  0  0  0  0  0  0  0
  185.4270  178.2450  142.4150 C   0  0  0  0  0  3  0  0  0  0  0  0
  183.3690  178.8170  143.4530 C   0  0  0  0  0  0  0  0  0  0  0  0
  186.0690  178.2220  143.6590 C   0  0  0  0  0  3  0  0  0  0  0  0
  181.6220  179.1830  143.3120 S   0  0  0  0  0  0  0  0  0  0  0  0
  181.0490  177.7550  141.0810 C   0  0  0  0  0  3  0  0  0  0  0  0
  181.6330  178.8530  141.5530 C   0  0  0  0  0  3  0  0  0  0  0  0
  180.0030  178.3150  138.8140 C   0  0  0  0  0  2  0  0  0  0  0  0
  180.9990  177.4960  139.6120 C   0  0  0  0  0  0  0  0  0  0  0  0
  181.4900  178.6620  138.7750 C   0  0  0  0  0  2  0  0  0  0  0  0
  182.5220  176.0140  138.2360 N   0  0  0  0  0  2  0  0  0  0  0  0
  180.6830  175.1270  139.3690 O   0  0  0  0  0  0  0  0  0  0  0  0
  181.3770  176.1430  139.0810 C   0  0  0  0  0  0  0  0  0  0  0  0
  184.4530  174.6650  137.4300 C   0  0  1  0  0  3  0  0  0  0  0  0
  184.9890  175.9440  137.2260 O   0  0  0  0  0  1  0  0  0  0  0  0
  183.3750  173.7080  135.5680 C   0  0  0  0  0  2  0  0  0  0  0  0
  182.9460  174.7340  137.6750 C   0  0  2  0  0  3  0  0  0  0  0  0
  184.6730  173.8600  136.2280 N   0  0  0  0  0  0  0  0  0  0  0  0
  182.3470  174.5430  136.3140 C   0  0  0  0  0  2  0  0  0  0  0  0
  186.6030  172.3990  136.4870 C   0  0  0  0  0  1  0  0  0  0  0  0
  185.1010  172.5360  136.6560 C   0  0  0  0  0  2  0  0  0  0  0  0
  1  7  1  6  0  0  0
  2  4  1  6  0  0  0
  2  5  1  0  0  0  0
  2  6  1  0  0  0  0
  5 28  1  6  0  0  0
  5  1  1  0  0  0  0
  6  3  1  1  0  0  0
  6  1  1  0  0  0  0
  8  2  1  0  0  0  0
  9  8  1  0  0  0  0
 10  9  1  0  0  0  0
 11 12  1  1  0  0  0
 11 10  1  0  0  0  0
 13 14  1  1  0  0  0
 13 18  1  0  0  0  0
 16 15  1  6  0  0  0
 16 22  1  0  0  0  0
 16 13  1  0  0  0  0
 17 11  1  1  0  0  0
 18 17  1  0  0  0  0
 19 24  2  0  0  0  0
 19 17  1  0  0  0  0
 20 24  1  0  0  0  0
 21 20  2  0  0  0  0
 22 23  1  1  0  0  0
 22 19  1  0  0  0  0
 23 25  2  0  0  0  0
 25 21  1  0  0  0  0
 26 21  1  0  0  0  0
 27 26  1  0  0  0  0
 30 28  1  0  0  0  0
 30 29  2  0  0  0  0
 31 33  1  0  0  0  0
 32 34  2  0  0  0  0
 32 35  1  0  0  0  0
 33 30  1  0  0  0  0
 34 36  1  0  0  0  0
 35 31  2  0  0  0  0
 36 33  2  0  0  0  0
 37 35  1  0  0  0  0
 38 39  2  0  0  0  0
 39 37  1  0  0  0  0
 40 41  1  0  0  0  0
 41 38  1  0  0  0  0
 42 40  1  0  0  0  0
 42 41  1  0  0  0  0
 43 45  1  0  0  0  0
 45 44  2  0  0  0  0
 45 41  1  0  0  0  0
 46 47  1  6  0  0  0
 46 49  1  0  0  0  0
 48 50  1  0  0  0  0
 48 51  1  0  0  0  0
 49 43  1  6  0  0  0
 50 53  1  0  0  0  0
 50 46  1  0  0  0  0
 51 49  1  0  0  0  0
 52 53  1  0  0  0  0
M  END
>  <MODEL>
1

>  <REMARK>
 VINA RESULT:      -8.8      0.000      0.000
  Name = 
  15 active torsions:
  status: ('A' for Active; 'I' for Inactive)
    1  A    between atoms: C_3  and  C_7
    2  A    between atoms: C_3  and  N_26
    3  A    between atoms: N_5  and  C_27
    4  A    between atoms: C_7  and  C_25
    5  A    between atoms: C_11  and  C_30
    6  A    between atoms: C_16  and  C_46
    7  A    between atoms: C_19  and  S_35
    8  A    between atoms: C_22  and  N_49
    9  A    between atoms: C_24  and  C_32
   10  A    between atoms: N_26  and  C_46
   11  A    between atoms: C_30  and  O_48
   12  A    between atoms: C_32  and  C_33
   13  A    between atoms: S_35  and  C_42
   14  A    between atoms: C_38  and  O_44
   15  A    between atoms: C_47  and  O_48
                            x       y       z     vdW  Elec       q    Type
                         _______ _______ _______ _____ _____    ______ ____

>  <TORSDO>
F 15

$$$$
=
 OpenBabel10232409303D

 53 58  0  0  1  0  0  0  0  0999 V2000
  181.4740  178.5000  141.5450 C   0  0  2  0  0  3  0  0  0  0  0  0
  182.6650  178.5350  139.7490 C   0  0  1  0  0  0  0  0  0  0  0  0
  180.3650  177.7670  139.5690 O   0  0  0  0  0  1  0  0  0  0  0  0
  183.2890  179.6890  139.2950 F   0  0  0  0  0  0  0  0  0  0  0  0
  182.9450  178.2320  141.2180 C   0  0  1  0  0  3  0  0  0  0  0  0
  181.1900  178.7780  140.0770 C   0  0  1  0  0  3  0  0  0  0  0  0
  181.3130  179.6740  142.2900 O   0  0  0  0  0  1  0  0  0  0  0  0
  182.9670  177.3240  138.8600 C   0  0  0  0  0  2  0  0  0  0  0  0
  183.7910  177.7280  137.7360 N   0  0  0  0  0  2  0  0  0  0  0  0
  183.1090  177.2910  136.5300 C   0  0  0  0  0  2  0  0  0  0  0  0
  184.0560  176.5410  135.5980 C   0  0  2  0  0  3  0  0  0  0  0  0
  184.1710  177.1570  134.3460 O   0  0  0  0  0  1  0  0  0  0  0  0
  182.4090  173.3660  136.3800 C   0  0  1  0  0  3  0  0  0  0  0  0
  182.0700  172.9680  135.0780 O   0  0  0  0  0  1  0  0  0  0  0  0
  183.2150  171.0480  136.9180 C   0  0  0  0  0  1  0  0  0  0  0  0
  183.5400  172.5300  136.9660 C   0  0  1  0  0  3  0  0  0  0  0  0
  183.7490  175.0400  135.4930 C   0  0  2  0  0  3  0  0  0  0  0  0
  182.7490  174.7320  136.4440 O   0  0  0  0  0  0  0  0  0  0  0  0
  184.9770  174.1350  135.5900 C   0  0  0  0  0  0  0  0  0  0  0  0
  187.2540  173.6840  134.7420 C   0  0  0  0  0  3  0  0  0  0  0  0
  187.8270  172.9300  135.7020 C   0  0  0  0  0  0  0  0  0  0  0  0
  184.8960  172.8150  136.3150 C   0  0  1  0  0  3  0  0  0  0  0  0
  185.9640  172.7260  137.3540 C   0  0  0  0  0  3  0  0  0  0  0  0
  186.0130  174.4100  134.8510 N   0  0  0  0  0  0  0  0  0  0  0  0
  187.2620  172.7500  137.0560 C   0  0  0  0  0  3  0  0  0  0  0  0
  189.0610  172.3150  135.4620 O   0  0  0  0  0  0  0  0  0  0  0  0
  190.2980  173.0250  135.4050 C   0  0  0  0  0  1  0  0  0  0  0  0
  183.8090  179.2030  141.8080 O   0  0  0  0  0  0  0  0  0  0  0  0
  186.0520  178.6620  141.8450 O   0  0  0  0  0  0  0  0  0  0  0  0
  184.9810  178.8530  142.4840 C   0  0  0  0  0  0  0  0  0  0  0  0
  186.1240  178.3230  144.6320 C   0  0  0  0  0  3  0  0  0  0  0  0
  184.9450  178.4550  146.7100 N   0  0  0  0  0  0  0  0  0  0  0  0
  184.9670  178.7130  143.9490 C   0  0  0  0  0  0  0  0  0  0  0  0
  183.8070  178.8390  146.0710 C   0  0  0  0  0  3  0  0  0  0  0  0
  186.0940  178.1990  146.0240 C   0  0  0  0  0  0  0  0  0  0  0  0
  183.7980  178.9740  144.6780 C   0  0  0  0  0  3  0  0  0  0  0  0
  187.5680  177.6840  146.9000 S   0  0  0  0  0  0  0  0  0  0  0  0
  189.6570  177.5500  145.1800 C   0  0  0  0  0  3  0  0  0  0  0  0
  188.3840  177.2200  145.3760 C   0  0  0  0  0  3  0  0  0  0  0  0
  191.8170  177.5450  143.8080 C   0  0  0  0  0  2  0  0  0  0  0  0
  190.3680  177.1200  143.9390 C   0  0  0  0  0  0  0  0  0  0  0  0
  191.4680  176.1080  144.1920 C   0  0  0  0  0  2  0  0  0  0  0  0
  190.1150  177.3610  141.4320 N   0  0  0  0  0  2  0  0  0  0  0  0
  188.4720  176.3040  142.7100 O   0  0  0  0  0  0  0  0  0  0  0  0
  189.5890  176.8930  142.6750 C   0  0  0  0  0  0  0  0  0  0  0  0
  190.3200  176.6640  139.0510 C   0  0  1  0  0  3  0  0  0  0  0  0
  191.6560  177.0200  139.2830 O   0  0  0  0  0  1  0  0  0  0  0  0
  188.9620  178.3580  138.1400 C   0  0  0  0  0  2  0  0  0  0  0  0
  189.4120  177.1850  140.1640 C   0  0  2  0  0  3  0  0  0  0  0  0
  189.8780  177.2690  137.7940 N   0  0  0  0  0  0  0  0  0  0  0  0
  188.9320  178.5100  139.6510 C   0  0  0  0  0  2  0  0  0  0  0  0
  187.8570  176.8980  136.4890 C   0  0  0  0  0  1  0  0  0  0  0  0
  189.1090  176.2680  137.0680 C   0  0  0  0  0  2  0  0  0  0  0  0
  1  7  1  1  0  0  0
  2  4  1  6  0  0  0
  2  6  1  0  0  0  0
  2  5  1  0  0  0  0
  5  1  1  0  0  0  0
  5 28  1  1  0  0  0
  6  3  1  6  0  0  0
  6  1  1  0  0  0  0
  8  2  1  0  0  0  0
  9  8  1  0  0  0  0
 10  9  1  0  0  0  0
 11 12  1  6  0  0  0
 11 10  1  0  0  0  0
 13 14  1  6  0  0  0
 13 18  1  0  0  0  0
 13 16  1  0  0  0  0
 16 15  1  6  0  0  0
 17 19  1  0  0  0  0
 17 11  1  1  0  0  0
 17 18  1  0  0  0  0
 19 22  1  0  0  0  0
 20 24  1  0  0  0  0
 20 21  2  0  0  0  0
 21 25  1  0  0  0  0
 22 16  1  0  0  0  0
 22 23  1  1  0  0  0
 24 19  2  0  0  0  0
 25 23  2  0  0  0  0
 26 21  1  0  0  0  0
 27 26  1  0  0  0  0
 28 30  1  0  0  0  0
 29 30  2  0  0  0  0
 30 33  1  0  0  0  0
 31 35  1  0  0  0  0
 33 31  2  0  0  0  0
 33 36  1  0  0  0  0
 34 32  1  0  0  0  0
 35 32  2  0  0  0  0
 35 37  1  0  0  0  0
 36 34  2  0  0  0  0
 38 39  2  0  0  0  0
 39 37  1  0  0  0  0
 40 41  1  0  0  0  0
 40 42  1  0  0  0  0
 41 42  1  0  0  0  0
 41 38  1  0  0  0  0
 43 45  1  0  0  0  0
 45 44  2  0  0  0  0
 45 41  1  0  0  0  0
 46 47  1  1  0  0  0
 46 49  1  0  0  0  0
 48 51  1  0  0  0  0
 49 43  1  1  0  0  0
 50 48  1  0  0  0  0
 50 46  1  0  0  0  0
 51 49  1  0  0  0  0
 52 53  1  0  0  0  0
 53 50  1  0  0  0  0
M  END
>  <MODEL>
2

>  <REMARK>
 VINA RESULT:      -8.3      2.822      7.781
  Name = 
  15 active torsions:
  status: ('A' for Active; 'I' for Inactive)
    1  A    between atoms: C_3  and  C_7
    2  A    between atoms: C_3  and  N_26
    3  A    between atoms: N_5  and  C_27
    4  A    between atoms: C_7  and  C_25
    5  A    between atoms: C_11  and  C_30
    6  A    between atoms: C_16  and  C_46
    7  A    between atoms: C_19  and  S_35
    8  A    between atoms: C_22  and  N_49
    9  A    between atoms: C_24  and  C_32
   10  A    between atoms: N_26  and  C_46
   11  A    between atoms: C_30  and  O_48
   12  A    between atoms: C_32  and  C_33
   13  A    between atoms: S_35  and  C_42
   14  A    between atoms: C_38  and  O_44
   15  A    between atoms: C_47  and  O_48
                            x       y       z     vdW  Elec       q    Type
                         _______ _______ _______ _____ _____    ______ ____

>  <TORSDO>
F 15

$$$$
=
 OpenBabel10232409303D

 53 58  0  0  1  0  0  0  0  0999 V2000
  186.7560  177.6810  146.0050 C   0  0  2  0  0  3  0  0  0  0  0  0
  185.4770  178.9070  144.7770 C   0  0  1  0  0  0  0  0  0  0  0  0
  184.8620  178.6090  147.1100 O   0  0  0  0  0  1  0  0  0  0  0  0
  185.9520  180.0120  144.0830 F   0  0  0  0  0  0  0  0  0  0  0  0
  186.3020  177.6450  144.5440 C   0  0  1  0  0  3  0  0  0  0  0  0
  185.9140  178.9260  146.2430 C   0  0  1  0  0  3  0  0  0  0  0  0
  188.1150  177.9980  146.1190 O   0  0  0  0  0  1  0  0  0  0  0  0
  183.9870  178.6580  144.5210 C   0  0  0  0  0  2  0  0  0  0  0  0
  183.5850  179.2920  143.2800 N   0  0  0  0  0  2  0  0  0  0  0  0
  183.5930  178.2630  142.2540 C   0  0  0  0  0  2  0  0  0  0  0  0
  184.4740  178.6620  141.0740 C   0  0  2  0  0  3  0  0  0  0  0  0
  185.4960  179.5430  141.4450 O   0  0  0  0  0  1  0  0  0  0  0  0
  181.5280  179.6490  139.1370 C   0  0  1  0  0  3  0  0  0  0  0  0
  181.9900  180.8790  138.6460 O   0  0  0  0  0  1  0  0  0  0  0  0
  180.6240  179.0430  136.8720 C   0  0  0  0  0  1  0  0  0  0  0  0
  181.4590  178.5810  138.0530 C   0  0  1  0  0  3  0  0  0  0  0  0
  183.6790  179.1570  139.8570 C   0  0  2  0  0  3  0  0  0  0  0  0
  182.3100  179.1800  140.2120 O   0  0  0  0  0  0  0  0  0  0  0  0
  183.9570  178.3890  138.5660 C   0  0  0  0  0  0  0  0  0  0  0  0
  185.6950  177.5390  137.0280 C   0  0  0  0  0  3  0  0  0  0  0  0
  185.0790  176.5620  136.3310 C   0  0  0  0  0  0  0  0  0  0  0  0
  182.8400  178.1020  137.5930 C   0  0  1  0  0  3  0  0  0  0  0  0
  182.7750  176.6420  137.2920 C   0  0  0  0  0  3  0  0  0  0  0  0
  185.1940  178.1910  138.2120 N   0  0  0  0  0  0  0  0  0  0  0  0
  183.7700  175.9830  136.7030 C   0  0  0  0  0  3  0  0  0  0  0  0
  185.7110  175.9940  135.2190 O   0  0  0  0  0  0  0  0  0  0  0  0
  186.5840  176.7180  134.3520 C   0  0  0  0  0  1  0  0  0  0  0  0
  187.3840  177.8730  143.6420 O   0  0  0  0  0  0  0  0  0  0  0  0
  187.8540  175.6340  143.3450 O   0  0  0  0  0  0  0  0  0  0  0  0
  188.0670  176.8310  143.0090 C   0  0  0  0  0  0  0  0  0  0  0  0
  188.5990  177.6660  140.7240 C   0  0  0  0  0  3  0  0  0  0  0  0
  190.8570  177.7090  139.9320 N   0  0  0  0  0  0  0  0  0  0  0  0
  189.0350  177.1320  141.9420 C   0  0  0  0  0  0  0  0  0  0  0  0
  191.3080  177.1930  141.1080 C   0  0  0  0  0  3  0  0  0  0  0  0
  189.5330  177.9520  139.7230 C   0  0  0  0  0  0  0  0  0  0  0  0
  190.4030  176.8950  142.1340 C   0  0  0  0  0  3  0  0  0  0  0  0
  188.9770  178.6180  138.1570 S   0  0  0  0  0  0  0  0  0  0  0  0
  189.2760  176.2050  136.9600 C   0  0  0  0  0  3  0  0  0  0  0  0
  189.8660  177.3640  137.2400 C   0  0  0  0  0  3  0  0  0  0  0  0
  189.1150  174.2970  135.2630 C   0  0  0  0  0  2  0  0  0  0  0  0
  189.9830  175.1730  136.1460 C   0  0  0  0  0  0  0  0  0  0  0  0
  189.9290  175.4380  134.6540 C   0  0  0  0  0  2  0  0  0  0  0  0
  192.4680  174.7880  135.8530 N   0  0  0  0  0  2  0  0  0  0  0  0
  191.3330  173.9560  137.7170 O   0  0  0  0  0  0  0  0  0  0  0  0
  191.2840  174.6030  136.6330 C   0  0  0  0  0  0  0  0  0  0  0  0
  194.5080  175.1800  137.2240 C   0  0  1  0  0  3  0  0  0  0  0  0
  194.1080  176.5130  137.0530 O   0  0  0  0  0  1  0  0  0  0  0  0
  196.0670  174.3800  135.6500 C   0  0  0  0  0  2  0  0  0  0  0  0
  193.7660  174.2570  136.2580 C   0  0  2  0  0  3  0  0  0  0  0  0
  195.9390  175.0730  136.9340 N   0  0  0  0  0  0  0  0  0  0  0  0
  194.6790  174.1640  135.0710 C   0  0  0  0  0  2  0  0  0  0  0  0
  195.7170  174.2910  139.2280 C   0  0  0  0  0  1  0  0  0  0  0  0
  196.5320  174.2160  137.9510 C   0  0  0  0  0  2  0  0  0  0  0  0
  1  7  1  6  0  0  0
  1  6  1  0  0  0  0
  2  4  1  6  0  0  0
  2  6  1  0  0  0  0
  5 28  1  6  0  0  0
  5  2  1  0  0  0  0
  5  1  1  0  0  0  0
  6  3  1  1  0  0  0
  8  2  1  0  0  0  0
  9  8  1  0  0  0  0
 10  9  1  0  0  0  0
 11 12  1  1  0  0  0
 11 10  1  0  0  0  0
 13 14  1  6  0  0  0
 13 18  1  0  0  0  0
 16 15  1  6  0  0  0
 16 13  1  0  0  0  0
 17 18  1  0  0  0  0
 17 11  1  1  0  0  0
 19 17  1  0  0  0  0
 20 24  1  0  0  0  0
 21 25  1  0  0  0  0
 21 20  2  0  0  0  0
 22 23  1  1  0  0  0
 22 16  1  0  0  0  0
 22 19  1  0  0  0  0
 24 19  2  0  0  0  0
 25 23  2  0  0  0  0
 26 21  1  0  0  0  0
 27 26  1  0  0  0  0
 30 29  2  0  0  0  0
 30 28  1  0  0  0  0
 31 33  1  0  0  0  0
 32 34  2  0  0  0  0
 33 36  2  0  0  0  0
 33 30  1  0  0  0  0
 34 36  1  0  0  0  0
 35 32  1  0  0  0  0
 35 31  2  0  0  0  0
 37 35  1  0  0  0  0
 38 39  2  0  0  0  0
 39 37  1  0  0  0  0
 40 41  1  0  0  0  0
 41 45  1  0  0  0  0
 41 38  1  0  0  0  0
 42 40  1  0  0  0  0
 42 41  1  0  0  0  0
 43 45  1  0  0  0  0
 45 44  2  0  0  0  0
 46 47  1  6  0  0  0
 48 50  1  0  0  0  0
 49 43  1  6  0  0  0
 49 46  1  0  0  0  0
 50 46  1  0  0  0  0
 50 53  1  0  0  0  0
 51 48  1  0  0  0  0
 51 49  1  0  0  0  0
 53 52  1  0  0  0  0
M  END
>  <MODEL>
3

>  <REMARK>
 VINA RESULT:      -8.0      2.699      7.967
  Name = 
  15 active torsions:
  status: ('A' for Active; 'I' for Inactive)
    1  A    between atoms: C_3  and  C_7
    2  A    between atoms: C_3  and  N_26
    3  A    between atoms: N_5  and  C_27
    4  A    between atoms: C_7  and  C_25
    5  A    between atoms: C_11  and  C_30
    6  A    between atoms: C_16  and  C_46
    7  A    between atoms: C_19  and  S_35
    8  A    between atoms: C_22  and  N_49
    9  A    between atoms: C_24  and  C_32
   10  A    between atoms: N_26  and  C_46
   11  A    between atoms: C_30  and  O_48
   12  A    between atoms: C_32  and  C_33
   13  A    between atoms: S_35  and  C_42
   14  A    between atoms: C_38  and  O_44
   15  A    between atoms: C_47  and  O_48
                            x       y       z     vdW  Elec       q    Type
                         _______ _______ _______ _____ _____    ______ ____

>  <TORSDO>
F 15

$$$$
=
 OpenBabel10232409303D

 53 58  0  0  1  0  0  0  0  0999 V2000
  190.6510  176.6530  146.8060 C   0  0  2  0  0  3  0  0  0  0  0  0
  189.0200  177.8270  146.0280 C   0  0  1  0  0  0  0  0  0  0  0  0
  189.3800  177.8420  148.4310 O   0  0  0  0  0  1  0  0  0  0  0  0
  189.2070  178.8080  145.0620 F   0  0  0  0  0  0  0  0  0  0  0  0
  189.6500  176.4870  145.6600 C   0  0  1  0  0  3  0  0  0  0  0  0
  190.0070  177.9780  147.1870 C   0  0  1  0  0  3  0  0  0  0  0  0
  191.9500  176.8750  146.3340 O   0  0  0  0  0  1  0  0  0  0  0  0
  187.5460  177.6660  146.4130 C   0  0  0  0  0  2  0  0  0  0  0  0
  186.7080  178.4100  145.4910 N   0  0  0  0  0  2  0  0  0  0  0  0
  186.0600  177.4390  144.6270 C   0  0  0  0  0  2  0  0  0  0  0  0
  185.9580  177.9510  143.1930 C   0  0  2  0  0  3  0  0  0  0  0  0
  187.0970  178.6640  142.8000 O   0  0  0  0  0  1  0  0  0  0  0  0
  182.4940  179.0250  143.6900 C   0  0  1  0  0  3  0  0  0  0  0  0
  182.6800  180.4130  143.6040 O   0  0  0  0  0  1  0  0  0  0  0  0
  180.4650  179.1690  142.2150 C   0  0  0  0  0  1  0  0  0  0  0  0
  181.7820  178.4590  142.4670 C   0  0  1  0  0  3  0  0  0  0  0  0
  184.6560  178.7120  142.9070 C   0  0  2  0  0  3  0  0  0  0  0  0
  183.7090  178.3400  143.8890 O   0  0  0  0  0  0  0  0  0  0  0  0
  184.1370  178.5620  141.4770 C   0  0  0  0  0  0  0  0  0  0  0  0
  184.6980  178.7070  139.0750 C   0  0  0  0  0  3  0  0  0  0  0  0
  183.7470  177.9720  138.4620 C   0  0  0  0  0  0  0  0  0  0  0  0
  182.6560  178.4620  141.2100 C   0  0  1  0  0  3  0  0  0  0  0  0
  182.3550  177.2430  140.4030 C   0  0  0  0  0  3  0  0  0  0  0  0
  184.9660  178.7510  140.4910 N   0  0  0  0  0  0  0  0  0  0  0  0
  182.8270  177.0590  139.1720 C   0  0  0  0  0  3  0  0  0  0  0  0
  183.6340  178.0010  137.0680 O   0  0  0  0  0  0  0  0  0  0  0  0
  182.6090  177.3200  136.3450 C   0  0  0  0  0  1  0  0  0  0  0  0
  190.2880  176.5290  144.3830 O   0  0  0  0  0  0  0  0  0  0  0  0
  188.5480  175.5720  143.2070 O   0  0  0  0  0  0  0  0  0  0  0  0
  189.6040  176.2620  143.1940 C   0  0  0  0  0  0  0  0  0  0  0  0
  189.2310  177.1640  140.9030 C   0  0  0  0  0  3  0  0  0  0  0  0
  191.0790  177.8030  139.5230 N   0  0  0  0  0  0  0  0  0  0  0  0
  190.1170  176.7940  141.9210 C   0  0  0  0  0  0  0  0  0  0  0  0
  191.9620  177.4540  140.4980 C   0  0  0  0  0  3  0  0  0  0  0  0
  189.7340  177.6720  139.7010 C   0  0  0  0  0  0  0  0  0  0  0  0
  191.4960  176.9420  141.7140 C   0  0  0  0  0  3  0  0  0  0  0  0
  188.6050  178.1300  138.3900 S   0  0  0  0  0  0  0  0  0  0  0  0
  189.1490  175.9200  136.9180 C   0  0  0  0  0  3  0  0  0  0  0  0
  189.5180  177.1690  137.1870 C   0  0  0  0  0  3  0  0  0  0  0  0
  188.9980  174.4180  134.8520 C   0  0  0  0  0  2  0  0  0  0  0  0
  189.8640  175.1270  135.8750 C   0  0  0  0  0  0  0  0  0  0  0  0
  189.7330  175.7050  134.4800 C   0  0  0  0  0  2  0  0  0  0  0  0
  192.3880  175.1640  135.6710 N   0  0  0  0  0  2  0  0  0  0  0  0
  191.3020  173.4840  136.8780 O   0  0  0  0  0  0  0  0  0  0  0  0
  191.2100  174.5350  136.1830 C   0  0  0  0  0  0  0  0  0  0  0  0
  194.3490  175.1960  137.2030 C   0  0  1  0  0  3  0  0  0  0  0  0
  193.8120  176.4510  137.5210 O   0  0  0  0  0  1  0  0  0  0  0  0
  196.0130  175.1990  135.5360 C   0  0  0  0  0  2  0  0  0  0  0  0
  193.7290  174.6420  135.9210 C   0  0  2  0  0  3  0  0  0  0  0  0
  195.7880  175.3400  136.9760 N   0  0  0  0  0  0  0  0  0  0  0  0
  194.6670  175.0890  134.8400 C   0  0  0  0  0  2  0  0  0  0  0  0
  195.5730  173.6770  138.7410 C   0  0  0  0  0  1  0  0  0  0  0  0
  196.4520  174.2210  137.6310 C   0  0  0  0  0  2  0  0  0  0  0  0
  1  7  1  6  0  0  0
  1  6  1  0  0  0  0
  2  4  1  6  0  0  0
  2  8  1  0  0  0  0
  2  6  1  0  0  0  0
  5 28  1  6  0  0  0
  5  2  1  0  0  0  0
  5  1  1  0  0  0  0
  6  3  1  1  0  0  0
  9  8  1  0  0  0  0
 10  9  1  0  0  0  0
 11 12  1  1  0  0  0
 11 10  1  0  0  0  0
 13 14  1  6  0  0  0
 13 18  1  0  0  0  0
 16 15  1  6  0  0  0
 16 13  1  0  0  0  0
 17 11  1  6  0  0  0
 17 18  1  0  0  0  0
 19 17  1  0  0  0  0
 20 24  1  0  0  0  0
 21 20  2  0  0  0  0
 21 25  1  0  0  0  0
 22 23  1  1  0  0  0
 22 19  1  0  0  0  0
 22 16  1  0  0  0  0
 24 19  2  0  0  0  0
 25 23  2  0  0  0  0
 26 21  1  0  0  0  0
 27 26  1  0  0  0  0
 30 29  2  0  0  0  0
 30 28  1  0  0  0  0
 31 33  1  0  0  0  0
 32 35  1  0  0  0  0
 32 34  2  0  0  0  0
 33 30  1  0  0  0  0
 34 36  1  0  0  0  0
 35 31  2  0  0  0  0
 36 33  2  0  0  0  0
 37 35  1  0  0  0  0
 38 39  2  0  0  0  0
 39 37  1  0  0  0  0
 40 41  1  0  0  0  0
 41 45  1  0  0  0  0
 41 38  1  0  0  0  0
 42 40  1  0  0  0  0
 42 41  1  0  0  0  0
 43 45  1  0  0  0  0
 45 44  2  0  0  0  0
 46 47  1  6  0  0  0
 48 50  1  0  0  0  0
 49 43  1  6  0  0  0
 49 46  1  0  0  0  0
 50 46  1  0  0  0  0
 50 53  1  0  0  0  0
 51 48  1  0  0  0  0
 51 49  1  0  0  0  0
 53 52  1  0  0  0  0
M  END
>  <MODEL>
4

>  <REMARK>
 VINA RESULT:      -7.6      2.765      8.182
  Name = 
  15 active torsions:
  status: ('A' for Active; 'I' for Inactive)
    1  A    between atoms: C_3  and  C_7
    2  A    between atoms: C_3  and  N_26
    3  A    between atoms: N_5  and  C_27
    4  A    between atoms: C_7  and  C_25
    5  A    between atoms: C_11  and  C_30
    6  A    between atoms: C_16  and  C_46
    7  A    between atoms: C_19  and  S_35
    8  A    between atoms: C_22  and  N_49
    9  A    between atoms: C_24  and  C_32
   10  A    between atoms: N_26  and  C_46
   11  A    between atoms: C_30  and  O_48
   12  A    between atoms: C_32  and  C_33
   13  A    between atoms: S_35  and  C_42
   14  A    between atoms: C_38  and  O_44
   15  A    between atoms: C_47  and  O_48
                            x       y       z     vdW  Elec       q    Type
                         _______ _______ _______ _____ _____    ______ ____

>  <TORSDO>
F 15

$$$$
=
 OpenBabel10232409303D

 53 58  0  0  1  0  0  0  0  0999 V2000
  181.3100  175.8330  139.1040 C   0  0  2  0  0  3  0  0  0  0  0  0
  183.0260  175.5030  137.8420 C   0  0  1  0  0  0  0  0  0  0  0  0
  181.2530  173.8410  137.8020 O   0  0  0  0  0  1  0  0  0  0  0  0
  183.4410  176.4310  136.8970 F   0  0  0  0  0  0  0  0  0  0  0  0
  182.8110  176.1050  139.2280 C   0  0  1  0  0  3  0  0  0  0  0  0
  181.5280  175.2110  137.7330 C   0  0  1  0  0  3  0  0  0  0  0  0
  180.5760  177.0190  138.9760 O   0  0  0  0  0  1  0  0  0  0  0  0
  183.9490  174.2810  137.9000 C   0  0  0  0  0  2  0  0  0  0  0  0
  184.1240  173.7300  136.5690 N   0  0  0  0  0  2  0  0  0  0  0  0
  185.5140  173.3200  136.4590 C   0  0  0  0  0  2  0  0  0  0  0  0
  186.3170  174.3010  135.6100 C   0  0  2  0  0  3  0  0  0  0  0  0
  187.2820  173.6610  134.8240 O   0  0  0  0  0  1  0  0  0  0  0  0
  186.9280  177.7940  136.5210 C   0  0  1  0  0  3  0  0  0  0  0  0
  186.6230  177.7200  137.8890 O   0  0  0  0  0  1  0  0  0  0  0  0
  188.9830  179.1530  137.0150 C   0  0  0  0  0  1  0  0  0  0  0  0
  188.4220  177.9560  136.2680 C   0  0  1  0  0  3  0  0  0  0  0  0
  186.8920  175.4760  136.4140 C   0  0  2  0  0  3  0  0  0  0  0  0
  186.4480  176.6750  135.8110 O   0  0  0  0  0  0  0  0  0  0  0  0
  188.4060  175.4240  136.6150 C   0  0  0  0  0  0  0  0  0  0  0  0
  190.3230  174.0450  137.3430 C   0  0  0  0  0  3  0  0  0  0  0  0
  191.3970  174.6350  136.7770 C   0  0  0  0  0  0  0  0  0  0  0  0
  189.2250  176.6900  136.5790 C   0  0  1  0  0  3  0  0  0  0  0  0
  190.3370  176.5630  135.5930 C   0  0  0  0  0  3  0  0  0  0  0  0
  188.9400  174.3150  137.0420 N   0  0  0  0  0  0  0  0  0  0  0  0
  191.3090  175.6610  135.7160 C   0  0  0  0  0  3  0  0  0  0  0  0
  192.6860  174.2360  137.1450 O   0  0  0  0  0  0  0  0  0  0  0  0
  193.6490  175.1160  137.7260 C   0  0  0  0  0  1  0  0  0  0  0  0
  183.1010  177.5020  139.2540 O   0  0  0  0  0  0  0  0  0  0  0  0
  181.7500  178.8860  140.5120 O   0  0  0  0  0  0  0  0  0  0  0  0
  182.8580  178.2990  140.3770 C   0  0  0  0  0  0  0  0  0  0  0  0
  183.5460  178.5310  142.7590 C   0  0  0  0  0  3  0  0  0  0  0  0
  185.8560  178.7210  143.3520 N   0  0  0  0  0  0  0  0  0  0  0  0
  183.8980  178.4480  141.4070 C   0  0  0  0  0  0  0  0  0  0  0  0
  186.2270  178.6380  142.0450 C   0  0  0  0  0  3  0  0  0  0  0  0
  184.5470  178.6670  143.7250 C   0  0  0  0  0  0  0  0  0  0  0  0
  185.2530  178.5010  141.0490 C   0  0  0  0  0  3  0  0  0  0  0  0
  184.1000  178.7920  145.4540 S   0  0  0  0  0  0  0  0  0  0  0  0
  186.2660  177.9080  146.8220 C   0  0  0  0  0  3  0  0  0  0  0  0
  185.8170  178.8150  145.9590 C   0  0  0  0  0  3  0  0  0  0  0  0
  188.0420  178.3410  148.6110 C   0  0  0  0  0  2  0  0  0  0  0  0
  187.7080  177.8780  147.2070 C   0  0  0  0  0  0  0  0  0  0  0  0
  188.0270  176.8510  148.2750 C   0  0  0  0  0  2  0  0  0  0  0  0
  188.5760  177.4130  144.8750 N   0  0  0  0  0  2  0  0  0  0  0  0
  189.8160  178.6880  146.3880 O   0  0  0  0  0  0  0  0  0  0  0  0
  188.7640  178.0300  146.1500 C   0  0  0  0  0  0  0  0  0  0  0  0
  189.2060  176.6450  142.5920 C   0  0  1  0  0  3  0  0  0  0  0  0
  188.4070  175.5560  142.9690 O   0  0  0  0  0  1  0  0  0  0  0  0
  191.5120  176.4000  143.0010 C   0  0  0  0  0  2  0  0  0  0  0  0
  189.5620  177.5090  143.8020 C   0  0  2  0  0  3  0  0  0  0  0  0
  190.4550  176.1420  142.0210 N   0  0  0  0  0  0  0  0  0  0  0  0
  190.8810  176.9640  144.2620 C   0  0  0  0  0  2  0  0  0  0  0  0
  189.4750  177.2280  140.0750 C   0  0  0  0  0  1  0  0  0  0  0  0
  190.7530  176.9400  140.8390 C   0  0  0  0  0  2  0  0  0  0  0  0
  1  7  1  6  0  0  0
  1  5  1  0  0  0  0
  2  4  1  6  0  0  0
  2  8  1  0  0  0  0
  2  5  1  0  0  0  0
  5 28  1  6  0  0  0
  6  3  1  1  0  0  0
  6  2  1  0  0  0  0
  6  1  1  0  0  0  0
  9  8  1  0  0  0  0
 10  9  1  0  0  0  0
 11 12  1  1  0  0  0
 11 10  1  0  0  0  0
 13 14  1  1  0  0  0
 16 13  1  0  0  0  0
 16 22  1  0  0  0  0
 16 15  1  1  0  0  0
 17 11  1  6  0  0  0
 17 19  1  0  0  0  0
 18 17  1  0  0  0  0
 18 13  1  0  0  0  0
 19 24  2  0  0  0  0
 21 26  1  0  0  0  0
 21 20  2  0  0  0  0
 22 23  1  6  0  0  0
 22 19  1  0  0  0  0
 23 25  2  0  0  0  0
 24 20  1  0  0  0  0
 25 21  1  0  0  0  0
 26 27  1  0  0  0  0
 28 30  1  0  0  0  0
 30 29  2  0  0  0  0
 30 33  1  0  0  0  0
 31 35  1  0  0  0  0
 32 35  2  0  0  0  0
 33 31  2  0  0  0  0
 34 32  1  0  0  0  0
 35 37  1  0  0  0  0
 36 33  1  0  0  0  0
 36 34  2  0  0  0  0
 37 39  1  0  0  0  0
 38 41  1  0  0  0  0
 39 38  2  0  0  0  0
 41 42  1  0  0  0  0
 41 40  1  0  0  0  0
 42 40  1  0  0  0  0
 43 45  1  0  0  0  0
 45 44  2  0  0  0  0
 45 41  1  0  0  0  0
 46 47  1  1  0  0  0
 46 49  1  0  0  0  0
 48 51  1  0  0  0  0
 49 51  1  0  0  0  0
 49 43  1  1  0  0  0
 50 46  1  0  0  0  0
 50 48  1  0  0  0  0
 52 53  1  0  0  0  0
 53 50  1  0  0  0  0
M  END
>  <MODEL>
5

>  <REMARK>
 VINA RESULT:      -7.4      2.316      7.666
  Name = 
  15 active torsions:
  status: ('A' for Active; 'I' for Inactive)
    1  A    between atoms: C_3  and  C_7
    2  A    between atoms: C_3  and  N_26
    3  A    between atoms: N_5  and  C_27
    4  A    between atoms: C_7  and  C_25
    5  A    between atoms: C_11  and  C_30
    6  A    between atoms: C_16  and  C_46
    7  A    between atoms: C_19  and  S_35
    8  A    between atoms: C_22  and  N_49
    9  A    between atoms: C_24  and  C_32
   10  A    between atoms: N_26  and  C_46
   11  A    between atoms: C_30  and  O_48
   12  A    between atoms: C_32  and  C_33
   13  A    between atoms: S_35  and  C_42
   14  A    between atoms: C_38  and  O_44
   15  A    between atoms: C_47  and  O_48
                            x       y       z     vdW  Elec       q    Type
                         _______ _______ _______ _____ _____    ______ ____

>  <TORSDO>
F 15

$$$$
=
 OpenBabel10232409303D

 53 58  0  0  1  0  0  0  0  0999 V2000
  189.1250  177.7040  146.3150 C   0  0  2  0  0  3  0  0  0  0  0  0
  189.2570  177.0270  144.2730 C   0  0  1  0  0  0  0  0  0  0  0  0
  191.3330  177.3770  145.4880 O   0  0  0  0  0  1  0  0  0  0  0  0
  188.6310  175.8680  143.8340 F   0  0  0  0  0  0  0  0  0  0  0  0
  188.3270  177.9660  145.0350 C   0  0  1  0  0  3  0  0  0  0  0  0
  190.0660  176.7860  145.5500 C   0  0  1  0  0  3  0  0  0  0  0  0
  188.3870  176.9590  147.2430 O   0  0  0  0  0  1  0  0  0  0  0  0
  189.9860  177.7580  143.1410 C   0  0  0  0  0  2  0  0  0  0  0  0
  189.9710  176.9470  141.9380 N   0  0  0  0  0  2  0  0  0  0  0  0
  188.9510  177.5010  141.0640 C   0  0  0  0  0  2  0  0  0  0  0  0
  189.5490  177.9750  139.7420 C   0  0  2  0  0  3  0  0  0  0  0  0
  188.7730  178.9670  139.1310 O   0  0  0  0  0  1  0  0  0  0  0  0
  191.6600  175.9110  137.5780 C   0  0  1  0  0  3  0  0  0  0  0  0
  191.3410  174.6490  138.0990 O   0  0  0  0  0  1  0  0  0  0  0  0
  191.4560  175.0360  135.2320 C   0  0  0  0  0  1  0  0  0  0  0  0
  191.0590  176.1390  136.1970 C   0  0  1  0  0  3  0  0  0  0  0  0
  189.9040  176.8280  138.7870 C   0  0  2  0  0  3  0  0  0  0  0  0
  191.2690  176.9550  138.4410 O   0  0  0  0  0  0  0  0  0  0  0  0
  188.9810  176.7060  137.5750 C   0  0  0  0  0  0  0  0  0  0  0  0
  186.6390  176.5720  136.7950 C   0  0  0  0  0  3  0  0  0  0  0  0
  186.6970  176.9280  135.4950 C   0  0  0  0  0  0  0  0  0  0  0  0
  189.5380  176.3190  136.2270 C   0  0  1  0  0  3  0  0  0  0  0  0
  189.1450  177.3220  135.1940 C   0  0  0  0  0  3  0  0  0  0  0  0
  187.6930  176.7140  137.7690 N   0  0  0  0  0  0  0  0  0  0  0  0
  187.8770  177.5560  134.8640 C   0  0  0  0  0  3  0  0  0  0  0  0
  185.5730  176.7650  134.6770 O   0  0  0  0  0  0  0  0  0  0  0  0
  184.2670  177.2230  135.0310 C   0  0  0  0  0  1  0  0  0  0  0  0
  186.9980  177.4510  145.1180 O   0  0  0  0  0  0  0  0  0  0  0  0
  185.4370  178.8260  146.1160 O   0  0  0  0  0  0  0  0  0  0  0  0
  185.8700  178.2740  145.0670 C   0  0  0  0  0  0  0  0  0  0  0  0
  183.7970  178.6510  143.7400 C   0  0  0  0  0  3  0  0  0  0  0  0
  183.8980  178.9360  141.3670 N   0  0  0  0  0  0  0  0  0  0  0  0
  185.1870  178.5010  143.7840 C   0  0  0  0  0  0  0  0  0  0  0  0
  185.2510  178.7970  141.3810 C   0  0  0  0  0  3  0  0  0  0  0  0
  183.1650  178.8710  142.5130 C   0  0  0  0  0  0  0  0  0  0  0  0
  185.9200  178.5760  142.5910 C   0  0  0  0  0  3  0  0  0  0  0  0
  181.3840  179.0470  142.4510 S   0  0  0  0  0  0  0  0  0  0  0  0
  181.3000  178.1570  139.8930 C   0  0  0  0  0  3  0  0  0  0  0  0
  181.4040  179.2310  140.6710 C   0  0  0  0  0  3  0  0  0  0  0  0
  180.9380  179.6820  137.8700 C   0  0  0  0  0  2  0  0  0  0  0  0
  181.2560  178.3000  138.4070 C   0  0  0  0  0  0  0  0  0  0  0  0
  182.3730  179.1590  137.8490 C   0  0  0  0  0  2  0  0  0  0  0  0
  181.5910  175.8830  137.7320 N   0  0  0  0  0  2  0  0  0  0  0  0
  179.9840  177.2140  136.6830 O   0  0  0  0  0  0  0  0  0  0  0  0
  180.8920  177.1170  137.5560 C   0  0  0  0  0  0  0  0  0  0  0  0
  182.2720  173.5470  137.2080 C   0  0  1  0  0  3  0  0  0  0  0  0
  183.5070  174.0310  137.6610 O   0  0  0  0  0  1  0  0  0  0  0  0
  181.9270  173.6650  134.8820 C   0  0  0  0  0  2  0  0  0  0  0  0
  181.2990  174.6940  136.9360 C   0  0  2  0  0  3  0  0  0  0  0  0
  182.4750  172.8270  135.9500 N   0  0  0  0  0  0  0  0  0  0  0  0
  181.4850  174.9900  135.4780 C   0  0  0  0  0  2  0  0  0  0  0  0
  180.9080  171.5540  137.3110 C   0  0  0  0  0  1  0  0  0  0  0  0
  181.6760  171.6110  136.0030 C   0  0  0  0  0  2  0  0  0  0  0  0
  1  7  1  1  0  0  0
  2  4  1  6  0  0  0
  2  5  1  0  0  0  0
  2  6  1  0  0  0  0
  5 28  1  1  0  0  0
  5  1  1  0  0  0  0
  6  3  1  6  0  0  0
  6  1  1  0  0  0  0
  8  2  1  0  0  0  0
  9  8  1  0  0  0  0
 10  9  1  0  0  0  0
 11 12  1  6  0  0  0
 11 10  1  0  0  0  0
 13 14  1  1  0  0  0
 13 18  1  0  0  0  0
 16 15  1  6  0  0  0
 16 22  1  0  0  0  0
 16 13  1  0  0  0  0
 17 11  1  6  0  0  0
 18 17  1  0  0  0  0
 19 24  2  0  0  0  0
 19 17  1  0  0  0  0
 20 24  1  0  0  0  0
 21 20  2  0  0  0  0
 22 23  1  6  0  0  0
 22 19  1  0  0  0  0
 25 23  2  0  0  0  0
 25 21  1  0  0  0  0
 26 27  1  0  0  0  0
 26 21  1  0  0  0  0
 30 28  1  0  0  0  0
 30 29  2  0  0  0  0
 31 33  1  0  0  0  0
 32 34  2  0  0  0  0
 32 35  1  0  0  0  0
 33 30  1  0  0  0  0
 34 36  1  0  0  0  0
 35 31  2  0  0  0  0
 36 33  2  0  0  0  0
 37 35  1  0  0  0  0
 38 39  2  0  0  0  0
 39 37  1  0  0  0  0
 40 41  1  0  0  0  0
 41 38  1  0  0  0  0
 42 40  1  0  0  0  0
 42 41  1  0  0  0  0
 44 45  2  0  0  0  0
 45 43  1  0  0  0  0
 45 41  1  0  0  0  0
 46 47  1  6  0  0  0
 48 51  1  0  0  0  0
 48 50  1  0  0  0  0
 49 46  1  0  0  0  0
 49 43  1  1  0  0  0
 50 53  1  0  0  0  0
 50 46  1  0  0  0  0
 51 49  1  0  0  0  0
 53 52  1  0  0  0  0
M  END
>  <MODEL>
6

>  <REMARK>
 VINA RESULT:      -7.3      1.801      3.402
  Name = 
  15 active torsions:
  status: ('A' for Active; 'I' for Inactive)
    1  A    between atoms: C_3  and  C_7
    2  A    between atoms: C_3  and  N_26
    3  A    between atoms: N_5  and  C_27
    4  A    between atoms: C_7  and  C_25
    5  A    between atoms: C_11  and  C_30
    6  A    between atoms: C_16  and  C_46
    7  A    between atoms: C_19  and  S_35
    8  A    between atoms: C_22  and  N_49
    9  A    between atoms: C_24  and  C_32
   10  A    between atoms: N_26  and  C_46
   11  A    between atoms: C_30  and  O_48
   12  A    between atoms: C_32  and  C_33
   13  A    between atoms: S_35  and  C_42
   14  A    between atoms: C_38  and  O_44
   15  A    between atoms: C_47  and  O_48
                            x       y       z     vdW  Elec       q    Type
                         _______ _______ _______ _____ _____    ______ ____

>  <TORSDO>
F 15

$$$$
=
 OpenBabel10232409303D

 53 58  0  0  1  0  0  0  0  0999 V2000
  180.3640  179.1910  140.9070 C   0  0  2  0  0  3  0  0  0  0  0  0
  182.1460  178.3770  140.0080 C   0  0  1  0  0  0  0  0  0  0  0  0
  180.0770  178.2470  138.7400 O   0  0  0  0  0  1  0  0  0  0  0  0
  183.2950  179.1350  139.8220 F   0  0  0  0  0  0  0  0  0  0  0  0
  181.5970  178.4500  141.4300 C   0  0  1  0  0  3  0  0  0  0  0  0
  180.9010  179.0970  139.4870 C   0  0  1  0  0  3  0  0  0  0  0  0
  180.3480  180.5280  141.3200 O   0  0  0  0  0  1  0  0  0  0  0  0
  182.3270  176.9260  139.5520 C   0  0  0  0  0  2  0  0  0  0  0  0
  182.6870  176.8900  138.1460 N   0  0  0  0  0  2  0  0  0  0  0  0
  183.2550  175.5780  137.8860 C   0  0  0  0  0  2  0  0  0  0  0  0
  184.3730  175.6520  136.8500 C   0  0  2  0  0  3  0  0  0  0  0  0
  184.6900  174.3980  136.3160 O   0  0  0  0  0  1  0  0  0  0  0  0
  186.5580  178.5340  137.4150 C   0  0  1  0  0  3  0  0  0  0  0  0
  186.7990  178.3620  138.7860 O   0  0  0  0  0  1  0  0  0  0  0  0
  188.9930  179.0060  137.0090 C   0  0  0  0  0  1  0  0  0  0  0  0
  187.7800  178.2070  136.5650 C   0  0  1  0  0  3  0  0  0  0  0  0
  185.6100  176.4180  137.3400 C   0  0  2  0  0  3  0  0  0  0  0  0
  185.4580  177.7740  136.9710 O   0  0  0  0  0  0  0  0  0  0  0  0
  186.9420  175.8150  136.8970 C   0  0  0  0  0  0  0  0  0  0  0  0
  188.3150  173.7640  136.7710 C   0  0  0  0  0  3  0  0  0  0  0  0
  189.2250  174.0260  135.8100 C   0  0  0  0  0  0  0  0  0  0  0  0
  188.0970  176.7100  136.5210 C   0  0  1  0  0  3  0  0  0  0  0  0
  188.6070  176.3580  135.1630 C   0  0  0  0  0  3  0  0  0  0  0  0
  187.1370  174.5390  137.0680 N   0  0  0  0  0  0  0  0  0  0  0  0
  189.1310  175.1690  134.8760 C   0  0  0  0  0  3  0  0  0  0  0  0
  190.3020  173.1540  135.6120 O   0  0  0  0  0  0  0  0  0  0  0  0
  191.5430  173.2630  136.3100 C   0  0  0  0  0  1  0  0  0  0  0  0
  182.4010  179.2770  142.2710 O   0  0  0  0  0  0  0  0  0  0  0  0
  181.9130  178.8190  144.4800 O   0  0  0  0  0  0  0  0  0  0  0  0
  182.7760  178.8950  143.5630 C   0  0  0  0  0  0  0  0  0  0  0  0
  184.6510  178.5760  145.1700 C   0  0  0  0  0  3  0  0  0  0  0  0
  186.8330  177.9660  144.3990 N   0  0  0  0  0  0  0  0  0  0  0  0
  184.1830  178.5760  143.8510 C   0  0  0  0  0  0  0  0  0  0  0  0
  186.4030  177.9550  143.1080 C   0  0  0  0  0  3  0  0  0  0  0  0
  185.9890  178.2640  145.4270 C   0  0  0  0  0  0  0  0  0  0  0  0
  185.0700  178.2600  142.8110 C   0  0  0  0  0  3  0  0  0  0  0  0
  186.5960  178.2810  147.1110 S   0  0  0  0  0  0  0  0  0  0  0  0
  189.0350  177.1040  147.2170 C   0  0  0  0  0  3  0  0  0  0  0  0
  188.2770  177.9860  146.5720 C   0  0  0  0  0  3  0  0  0  0  0  0
  191.5230  176.9020  147.7780 C   0  0  0  0  0  2  0  0  0  0  0  0
  190.4190  176.8050  146.7440 C   0  0  0  0  0  0  0  0  0  0  0  0
  191.0000  175.5360  147.3360 C   0  0  0  0  0  2  0  0  0  0  0  0
  189.7550  177.3660  144.3660 N   0  0  0  0  0  2  0  0  0  0  0  0
  191.9850  176.9610  144.9290 O   0  0  0  0  0  0  0  0  0  0  0  0
  190.7830  177.0480  145.3070 C   0  0  0  0  0  0  0  0  0  0  0  0
  189.9010  176.3430  142.1020 C   0  0  1  0  0  3  0  0  0  0  0  0
  190.1340  175.1930  142.8690 O   0  0  0  0  0  1  0  0  0  0  0  0
  191.8280  177.4960  141.3920 C   0  0  0  0  0  2  0  0  0  0  0  0
  190.0310  177.6070  142.9520 C   0  0  2  0  0  3  0  0  0  0  0  0
  190.9040  176.4160  141.0390 N   0  0  0  0  0  0  0  0  0  0  0  0
  191.4600  178.0230  142.7680 C   0  0  0  0  0  2  0  0  0  0  0  0
  190.8770  176.1430  138.6200 C   0  0  0  0  0  1  0  0  0  0  0  0
  190.2220  176.8110  139.8140 C   0  0  0  0  0  2  0  0  0  0  0  0
  1  7  1  1  0  0  0
  1  5  1  0  0  0  0
  2  4  1  6  0  0  0
  2  5  1  0  0  0  0
  5 28  1  1  0  0  0
  6  3  1  6  0  0  0
  6  2  1  0  0  0  0
  6  1  1  0  0  0  0
  8  2  1  0  0  0  0
  9  8  1  0  0  0  0
 10  9  1  0  0  0  0
 11 12  1  1  0  0  0
 11 10  1  0  0  0  0
 13 14  1  1  0  0  0
 16 15  1  1  0  0  0
 16 13  1  0  0  0  0
 17 11  1  6  0  0  0
 18 17  1  0  0  0  0
 18 13  1  0  0  0  0
 19 24  2  0  0  0  0
 19 17  1  0  0  0  0
 20 24  1  0  0  0  0
 21 20  2  0  0  0  0
 22 23  1  6  0  0  0
 22 16  1  0  0  0  0
 22 19  1  0  0  0  0
 25 23  2  0  0  0  0
 25 21  1  0  0  0  0
 26 21  1  0  0  0  0
 26 27  1  0  0  0  0
 28 30  1  0  0  0  0
 30 33  1  0  0  0  0
 30 29  2  0  0  0  0
 31 35  1  0  0  0  0
 32 35  2  0  0  0  0
 33 31  2  0  0  0  0
 34 32  1  0  0  0  0
 35 37  1  0  0  0  0
 36 34  2  0  0  0  0
 36 33  1  0  0  0  0
 39 37  1  0  0  0  0
 39 38  2  0  0  0  0
 41 38  1  0  0  0  0
 41 42  1  0  0  0  0
 41 40  1  0  0  0  0
 42 40  1  0  0  0  0
 43 45  1  0  0  0  0
 44 45  2  0  0  0  0
 45 41  1  0  0  0  0
 46 47  1  1  0  0  0
 46 49  1  0  0  0  0
 48 51  1  0  0  0  0
 49 43  1  1  0  0  0
 50 48  1  0  0  0  0
 50 46  1  0  0  0  0
 51 49  1  0  0  0  0
 52 53  1  0  0  0  0
 53 50  1  0  0  0  0
M  END
>  <MODEL>
7

>  <REMARK>
 VINA RESULT:      -7.1      2.550      7.816
  Name = 
  15 active torsions:
  status: ('A' for Active; 'I' for Inactive)
    1  A    between atoms: C_3  and  C_7
    2  A    between atoms: C_3  and  N_26
    3  A    between atoms: N_5  and  C_27
    4  A    between atoms: C_7  and  C_25
    5  A    between atoms: C_11  and  C_30
    6  A    between atoms: C_16  and  C_46
    7  A    between atoms: C_19  and  S_35
    8  A    between atoms: C_22  and  N_49
    9  A    between atoms: C_24  and  C_32
   10  A    between atoms: N_26  and  C_46
   11  A    between atoms: C_30  and  O_48
   12  A    between atoms: C_32  and  C_33
   13  A    between atoms: S_35  and  C_42
   14  A    between atoms: C_38  and  O_44
   15  A    between atoms: C_47  and  O_48
                            x       y       z     vdW  Elec       q    Type
                         _______ _______ _______ _____ _____    ______ ____

>  <TORSDO>
F 15

$$$$
=
 OpenBabel10232409303D

 53 58  0  0  1  0  0  0  0  0999 V2000
  190.5650  176.6860  147.0350 C   0  0  2  0  0  3  0  0  0  0  0  0
  188.9630  177.8380  146.1660 C   0  0  1  0  0  0  0  0  0  0  0  0
  189.2060  177.8790  148.5840 O   0  0  0  0  0  1  0  0  0  0  0  0
  189.1880  178.8100  145.2010 F   0  0  0  0  0  0  0  0  0  0  0  0
  189.6220  176.5000  145.8430 C   0  0  1  0  0  3  0  0  0  0  0  0
  189.8910  178.0080  147.3710 C   0  0  1  0  0  3  0  0  0  0  0  0
  191.8830  176.9160  146.6240 O   0  0  0  0  0  1  0  0  0  0  0  0
  187.4730  177.6660  146.4810 C   0  0  0  0  0  2  0  0  0  0  0  0
  186.6760  178.4070  145.5220 N   0  0  0  0  0  2  0  0  0  0  0  0
  186.0780  177.4330  144.6240 C   0  0  0  0  0  2  0  0  0  0  0  0
  185.9570  177.9870  143.2060 C   0  0  2  0  0  3  0  0  0  0  0  0
  187.0960  178.6990  142.8130 O   0  0  0  0  0  1  0  0  0  0  0  0
  182.5310  179.1180  143.8240 C   0  0  1  0  0  3  0  0  0  0  0  0
  182.7350  180.5020  143.7230 O   0  0  0  0  0  1  0  0  0  0  0  0
  180.4500  179.2860  142.4250 C   0  0  0  0  0  1  0  0  0  0  0  0
  181.7650  178.5560  142.6330 C   0  0  1  0  0  3  0  0  0  0  0  0
  184.6570  178.7660  142.9640 C   0  0  2  0  0  3  0  0  0  0  0  0
  183.7410  178.4140  143.9820 O   0  0  0  0  0  0  0  0  0  0  0  0
  184.0830  178.6160  141.5550 C   0  0  0  0  0  0  0  0  0  0  0  0
  184.5570  178.7370  139.1330 C   0  0  0  0  0  3  0  0  0  0  0  0
  183.5720  178.0130  138.5600 C   0  0  0  0  0  0  0  0  0  0  0  0
  182.5920  178.5370  141.3430 C   0  0  1  0  0  3  0  0  0  0  0  0
  182.2410  177.3180  140.5570 C   0  0  0  0  0  3  0  0  0  0  0  0
  184.8770  178.7860  140.5380 N   0  0  0  0  0  0  0  0  0  0  0  0
  182.6640  177.1190  139.3100 C   0  0  0  0  0  3  0  0  0  0  0  0
  183.4080  178.0360  137.1710 O   0  0  0  0  0  0  0  0  0  0  0  0
  184.1860  177.2470  136.2710 C   0  0  0  0  0  1  0  0  0  0  0  0
  190.3210  176.5350  144.5990 O   0  0  0  0  0  0  0  0  0  0  0  0
  188.5710  175.7240  143.3320 O   0  0  0  0  0  0  0  0  0  0  0  0
  189.6840  176.3160  143.3740 C   0  0  0  0  0  0  0  0  0  0  0  0
  189.5240  177.1410  141.0300 C   0  0  0  0  0  3  0  0  0  0  0  0
  191.4960  177.6730  139.7820 N   0  0  0  0  0  0  0  0  0  0  0  0
  190.3140  176.7840  142.1290 C   0  0  0  0  0  0  0  0  0  0  0  0
  192.2870  177.3370  140.8370 C   0  0  0  0  0  3  0  0  0  0  0  0
  190.1380  177.5880  139.8560 C   0  0  0  0  0  0  0  0  0  0  0  0
  191.7090  176.8850  142.0300 C   0  0  0  0  0  3  0  0  0  0  0  0
  189.1320  178.0280  138.4410 S   0  0  0  0  0  0  0  0  0  0  0  0
  189.4090  176.3300  136.3470 C   0  0  0  0  0  3  0  0  0  0  0  0
  189.4100  176.4350  137.6730 C   0  0  0  0  0  3  0  0  0  0  0  0
  190.3940  175.0770  134.3460 C   0  0  0  0  0  2  0  0  0  0  0  0
  189.6970  175.0200  135.6910 C   0  0  0  0  0  0  0  0  0  0  0  0
  191.1770  174.7000  135.6040 C   0  0  0  0  0  2  0  0  0  0  0  0
  187.3970  173.9820  135.8960 N   0  0  0  0  0  2  0  0  0  0  0  0
  189.3250  172.7240  136.2910 O   0  0  0  0  0  0  0  0  0  0  0  0
  188.8170  173.8370  135.9740 C   0  0  0  0  0  0  0  0  0  0  0  0
  185.3050  172.8350  135.1870 C   0  0  1  0  0  3  0  0  0  0  0  0
  185.0360  174.1080  134.6650 O   0  0  0  0  0  1  0  0  0  0  0  0
  184.4600  172.4240  137.3460 C   0  0  0  0  0  2  0  0  0  0  0  0
  186.4780  172.8800  136.1650 C   0  0  2  0  0  3  0  0  0  0  0  0
  184.1300  172.3640  135.9210 N   0  0  0  0  0  0  0  0  0  0  0  0
  185.8280  173.0650  137.5040 C   0  0  0  0  0  2  0  0  0  0  0  0
  182.4500  170.6280  135.6190 C   0  0  0  0  0  1  0  0  0  0  0  0
  183.9290  170.9620  135.5790 C   0  0  0  0  0  2  0  0  0  0  0  0
  1  7  1  6  0  0  0
  1  6  1  0  0  0  0
  2  4  1  6  0  0  0
  2  8  1  0  0  0  0
  2  6  1  0  0  0  0
  5 28  1  6  0  0  0
  5  2  1  0  0  0  0
  5  1  1  0  0  0  0
  6  3  1  1  0  0  0
  9  8  1  0  0  0  0
 10  9  1  0  0  0  0
 11 12  1  1  0  0  0
 11 10  1  0  0  0  0
 13 14  1  6  0  0  0
 13 18  1  0  0  0  0
 16 15  1  6  0  0  0
 16 13  1  0  0  0  0
 17 11  1  6  0  0  0
 17 18  1  0  0  0  0
 19 17  1  0  0  0  0
 20 24  1  0  0  0  0
 21 20  2  0  0  0  0
 21 25  1  0  0  0  0
 22 23  1  1  0  0  0
 22 19  1  0  0  0  0
 22 16  1  0  0  0  0
 24 19  2  0  0  0  0
 25 23  2  0  0  0  0
 26 21  1  0  0  0  0
 27 26  1  0  0  0  0
 29 30  2  0  0  0  0
 30 28  1  0  0  0  0
 31 33  1  0  0  0  0
 32 35  1  0  0  0  0
 32 34  2  0  0  0  0
 33 30  1  0  0  0  0
 34 36  1  0  0  0  0
 35 31  2  0  0  0  0
 36 33  2  0  0  0  0
 37 35  1  0  0  0  0
 38 39  2  0  0  0  0
 39 37  1  0  0  0  0
 40 42  1  0  0  0  0
 40 41  1  0  0  0  0
 41 45  1  0  0  0  0
 41 38  1  0  0  0  0
 42 41  1  0  0  0  0
 43 45  1  0  0  0  0
 45 44  2  0  0  0  0
 46 47  1  1  0  0  0
 46 50  1  0  0  0  0
 46 49  1  0  0  0  0
 48 51  1  0  0  0  0
 49 43  1  6  0  0  0
 49 51  1  0  0  0  0
 50 48  1  0  0  0  0
 53 52  1  0  0  0  0
 53 50  1  0  0  0  0
M  END
>  <MODEL>
8

>  <REMARK>
 VINA RESULT:      -7.1      2.697      7.018
  Name = 
  15 active torsions:
  status: ('A' for Active; 'I' for Inactive)
    1  A    between atoms: C_3  and  C_7
    2  A    between atoms: C_3  and  N_26
    3  A    between atoms: N_5  and  C_27
    4  A    between atoms: C_7  and  C_25
    5  A    between atoms: C_11  and  C_30
    6  A    between atoms: C_16  and  C_46
    7  A    between atoms: C_19  and  S_35
    8  A    between atoms: C_22  and  N_49
    9  A    between atoms: C_24  and  C_32
   10  A    between atoms: N_26  and  C_46
   11  A    between atoms: C_30  and  O_48
   12  A    between atoms: C_32  and  C_33
   13  A    between atoms: S_35  and  C_42
   14  A    between atoms: C_38  and  O_44
   15  A    between atoms: C_47  and  O_48
                            x       y       z     vdW  Elec       q    Type
                         _______ _______ _______ _____ _____    ______ ____

>  <TORSDO>
F 15

$$$$
=
 OpenBabel10232409303D

 53 58  0  0  1  0  0  0  0  0999 V2000
  186.3160  177.9210  145.6210 C   0  0  2  0  0  3  0  0  0  0  0  0
  185.1300  178.8560  144.0820 C   0  0  1  0  0  0  0  0  0  0  0  0
  184.2160  178.7880  146.3330 O   0  0  0  0  0  1  0  0  0  0  0  0
  185.6100  179.9090  143.3140 F   0  0  0  0  0  0  0  0  0  0  0  0
  186.0780  177.6610  144.1310 C   0  0  1  0  0  3  0  0  0  0  0  0
  185.3520  179.0980  145.5770 C   0  0  1  0  0  3  0  0  0  0  0  0
  187.6150  178.3800  145.8670 O   0  0  0  0  0  1  0  0  0  0  0  0
  183.7170  178.4330  143.6700 C   0  0  0  0  0  2  0  0  0  0  0  0
  183.3460  179.0870  142.4290 N   0  0  0  0  0  2  0  0  0  0  0  0
  183.5300  178.1150  141.3640 C   0  0  0  0  0  2  0  0  0  0  0  0
  183.8880  178.7960  140.0470 C   0  0  2  0  0  3  0  0  0  0  0  0
  182.8270  179.5480  139.5290 O   0  0  0  0  0  1  0  0  0  0  0  0
  185.8850  177.7770  137.1520 C   0  0  1  0  0  3  0  0  0  0  0  0
  186.5970  176.7200  137.7380 O   0  0  0  0  0  1  0  0  0  0  0  0
  185.4400  176.3910  135.1040 C   0  0  0  0  0  1  0  0  0  0  0  0
  184.8310  177.2900  136.1650 C   0  0  1  0  0  3  0  0  0  0  0  0
  184.4970  177.8400  139.0110 C   0  0  2  0  0  3  0  0  0  0  0  0
  185.2790  178.6070  138.1170 O   0  0  0  0  0  0  0  0  0  0  0  0
  183.4820  176.9390  138.3080 C   0  0  0  0  0  0  0  0  0  0  0  0
  181.6080  175.3560  138.6020 C   0  0  0  0  0  3  0  0  0  0  0  0
  180.9790  175.3530  137.4090 C   0  0  0  0  0  0  0  0  0  0  0  0
  183.6420  176.6070  136.8460 C   0  0  1  0  0  3  0  0  0  0  0  0
  182.3940  176.9390  136.0970 C   0  0  0  0  0  3  0  0  0  0  0  0
  182.6200  176.2870  139.0340 N   0  0  0  0  0  0  0  0  0  0  0  0
  181.2270  176.3490  136.3440 C   0  0  0  0  0  3  0  0  0  0  0  0
  179.9820  174.4060  137.1480 O   0  0  0  0  0  0  0  0  0  0  0  0
  180.1890  173.2430  136.3460 C   0  0  0  0  0  1  0  0  0  0  0  0
  187.2560  177.8820  143.3550 O   0  0  0  0  0  0  0  0  0  0  0  0
  187.8900  175.6630  143.3580 O   0  0  0  0  0  0  0  0  0  0  0  0
  188.0950  176.8400  142.9500 C   0  0  0  0  0  0  0  0  0  0  0  0
  188.9780  177.3990  140.6900 C   0  0  0  0  0  3  0  0  0  0  0  0
  191.3300  177.6450  140.3230 N   0  0  0  0  0  0  0  0  0  0  0  0
  189.2170  177.1160  142.0400 C   0  0  0  0  0  0  0  0  0  0  0  0
  191.5900  177.3770  141.6310 C   0  0  0  0  0  3  0  0  0  0  0  0
  190.0560  177.6640  139.8400 C   0  0  0  0  0  0  0  0  0  0  0  0
  190.5370  177.1060  142.5130 C   0  0  0  0  0  3  0  0  0  0  0  0
  189.7560  178.0090  138.1090 S   0  0  0  0  0  0  0  0  0  0  0  0
  190.9530  176.0620  136.6530 C   0  0  0  0  0  3  0  0  0  0  0  0
  190.1090  176.3150  137.6490 C   0  0  0  0  0  3  0  0  0  0  0  0
  190.3890  173.5730  136.8380 C   0  0  0  0  0  2  0  0  0  0  0  0
  191.3020  174.6550  136.2960 C   0  0  0  0  0  0  0  0  0  0  0  0
  190.2950  173.9970  135.3730 C   0  0  0  0  0  2  0  0  0  0  0  0
  193.7010  175.3260  135.8460 N   0  0  0  0  0  2  0  0  0  0  0  0
  193.0780  173.0770  135.9350 O   0  0  0  0  0  0  0  0  0  0  0  0
  192.7330  174.2900  136.0220 C   0  0  0  0  0  0  0  0  0  0  0  0
  195.9130  174.7490  136.8330 C   0  0  1  0  0  3  0  0  0  0  0  0
  195.3330  175.3570  137.9550 O   0  0  0  0  0  1  0  0  0  0  0  0
  197.2110  176.1640  135.4700 C   0  0  0  0  0  2  0  0  0  0  0  0
  195.1080  175.0490  135.5680 C   0  0  2  0  0  3  0  0  0  0  0  0
  197.2590  175.2890  136.6430 N   0  0  0  0  0  0  0  0  0  0  0  0
  195.7720  176.2660  134.9960 C   0  0  0  0  0  2  0  0  0  0  0  0
  197.9790  173.0730  137.3490 C   0  0  0  0  0  1  0  0  0  0  0  0
  198.1400  174.1750  136.3190 C   0  0  0  0  0  2  0  0  0  0  0  0
  1  7  1  6  0  0  0
  2  4  1  6  0  0  0
  2  5  1  0  0  0  0
  2  6  1  0  0  0  0
  5 28  1  6  0  0  0
  5  1  1  0  0  0  0
  6  1  1  0  0  0  0
  6  3  1  1  0  0  0
  8  2  1  0  0  0  0
  9  8  1  0  0  0  0
 10  9  1  0  0  0  0
 11 12  1  6  0  0  0
 11 10  1  0  0  0  0
 13 14  1  1  0  0  0
 13 18  1  0  0  0  0
 16 15  1  6  0  0  0
 16 22  1  0  0  0  0
 16 13  1  0  0  0  0
 17 11  1  1  0  0  0
 18 17  1  0  0  0  0
 19 17  1  0  0  0  0
 19 24  2  0  0  0  0
 20 24  1  0  0  0  0
 21 20  2  0  0  0  0
 22 23  1  6  0  0  0
 22 19  1  0  0  0  0
 23 25  2  0  0  0  0
 25 21  1  0  0  0  0
 26 21  1  0  0  0  0
 27 26  1  0  0  0  0
 30 28  1  0  0  0  0
 30 29  2  0  0  0  0
 31 33  1  0  0  0  0
 32 34  2  0  0  0  0
 33 36  2  0  0  0  0
 33 30  1  0  0  0  0
 34 36  1  0  0  0  0
 35 32  1  0  0  0  0
 35 31  2  0  0  0  0
 37 35  1  0  0  0  0
 38 39  2  0  0  0  0
 39 37  1  0  0  0  0
 41 38  1  0  0  0  0
 41 40  1  0  0  0  0
 42 41  1  0  0  0  0
 42 40  1  0  0  0  0
 43 45  1  0  0  0  0
 44 45  2  0  0  0  0
 45 41  1  0  0  0  0
 46 47  1  1  0  0  0
 48 50  1  0  0  0  0
 49 43  1  1  0  0  0
 49 46  1  0  0  0  0
 50 46  1  0  0  0  0
 51 48  1  0  0  0  0
 51 49  1  0  0  0  0
 53 50  1  0  0  0  0
 53 52  1  0  0  0  0
M  END
>  <MODEL>
9

>  <REMARK>
 VINA RESULT:      -7.0      2.810      8.949
  Name = 
  15 active torsions:
  status: ('A' for Active; 'I' for Inactive)
    1  A    between atoms: C_3  and  C_7
    2  A    between atoms: C_3  and  N_26
    3  A    between atoms: N_5  and  C_27
    4  A    between atoms: C_7  and  C_25
    5  A    between atoms: C_11  and  C_30
    6  A    between atoms: C_16  and  C_46
    7  A    between atoms: C_19  and  S_35
    8  A    between atoms: C_22  and  N_49
    9  A    between atoms: C_24  and  C_32
   10  A    between atoms: N_26  and  C_46
   11  A    between atoms: C_30  and  O_48
   12  A    between atoms: C_32  and  C_33
   13  A    between atoms: S_35  and  C_42
   14  A    between atoms: C_38  and  O_44
   15  A    between atoms: C_47  and  O_48
                            x       y       z     vdW  Elec       q    Type
                         _______ _______ _______ _____ _____    ______ ____

>  <TORSDO>
F 15

$$$$
