=
 OpenBabel10222421583D

 40 42  0  0  1  0  0  0  0  0999 V2000
  191.4930  175.9560  147.8080 C   0  0  0  0  0  2  0  0  0  0  0  0
  187.6350  178.0340  144.9040 C   0  0  0  0  0  2  0  0  0  0  0  0
  192.7830  175.5810  147.1070 C   0  0  0  0  0  2  0  0  0  0  0  0
  187.8460  176.8200  142.7130 C   0  0  0  0  0  2  0  0  0  0  0  0
  190.7180  176.6050  145.4210 C   0  0  0  0  0  0  0  0  0  0  0  0
  190.0310  177.3980  144.5660 C   0  0  0  0  0  0  0  0  0  0  0  0
  190.2170  177.3200  143.0990 C   0  0  0  0  0  0  0  0  0  0  0  0
  189.2410  176.5270  147.3080 O   0  0  0  0  0  1  0  0  0  0  0  0
  187.2270  178.0130  143.4340 C   0  0  1  0  0  3  0  0  0  0  0  0
  190.5580  176.7910  146.9270 C   0  0  1  0  0  3  0  0  0  0  0  0
  189.2150  177.1010  142.2950 N   0  0  0  0  0  0  0  0  0  0  0  0
  192.4140  174.7460  145.9000 C   0  0  0  0  0  2  0  0  0  0  0  0
  189.0890  178.4550  145.0710 C   0  0  0  0  0  2  0  0  0  0  0  0
  191.7120  175.6060  144.8580 C   0  0  0  0  0  2  0  0  0  0  0  0
  191.5260  177.5360  142.5590 N   0  0  0  0  0  2  0  0  0  0  0  0
  185.0000  178.8810  142.5070 C   0  0  0  0  0  0  0  0  0  0  0  0
  185.5730  179.7840  141.8380 O   0  0  0  0  0  0  0  0  0  0  0  0
  185.7730  177.9800  143.3130 N   0  0  0  0  0  2  0  0  0  0  0  0
  182.7650  178.9790  143.6130 C   0  0  0  0  0  3  0  0  0  0  0  0
  181.4930  178.2760  141.2140 C   0  0  0  0  0  0  0  0  0  0  0  0
  183.5320  178.7530  142.4610 C   0  0  0  0  0  0  0  0  0  0  0  0
  182.8880  178.4030  141.2670 C   0  0  0  0  0  3  0  0  0  0  0  0
  180.7410  178.5060  142.3750 C   0  0  0  0  0  3  0  0  0  0  0  0
  181.3740  178.8560  143.5700 C   0  0  0  0  0  3  0  0  0  0  0  0
  180.8270  177.9050  139.9530 C   0  0  0  0  0  0  0  0  0  0  0  0
  180.6000  178.7770  139.0720 O   0  0  0  0  0  0  0  0  0  0  0  0
  180.4290  176.5570  139.7170 N   0  0  0  0  0  1  0  0  0  0  0  0
  191.7960  177.5470  141.1290 C   0  0  0  0  0  2  0  0  0  0  0  0
  191.0080  176.5160  140.4740 N   0  0  0  0  0  2  0  0  0  0  0  0
  190.9770  176.8390  139.0580 C   0  0  2  0  0  3  0  0  0  0  0  0
  189.7780  176.1500  138.4200 C   0  0  0  0  0  2  0  0  0  0  0  0
  188.5490  176.8680  138.7210 N   0  0  0  0  0  2  0  0  0  0  0  0
  187.6430  176.5910  137.6870 N   0  0  0  0  0  2  0  0  0  0  0  0
  186.6050  177.9680  137.5430 S   0  0  0  0  0  0  0  0  0  0  0  0
  187.4410  179.2400  136.7240 N   0  0  0  0  0  1  0  0  0  0  0  0
  186.1910  178.4380  138.9090 O   0  0  0  0  0  0  0  0  0  0  0  0
  185.3840  177.5870  136.7540 O   0  0  0  0  0  0  0  0  0  0  0  0
  192.2740  176.3740  138.4100 C   0  0  0  0  0  2  0  0  0  0  0  0
  193.3100  174.5780  137.6570 C   0  0  0  0  0  1  0  0  0  0  0  0
  192.0590  175.1950  137.6960 O   0  0  0  0  0  0  0  0  0  0  0  0
  2 13  1  0  0  0  0
  3  1  1  0  0  0  0
  4  9  1  0  0  0  0
  5 10  1  0  0  0  0
  6 13  1  0  0  0  0
  6  5  2  0  0  0  0
  7  6  1  0  0  0  0
  9 18  1  1  0  0  0
  9  2  1  0  0  0  0
 10  8  1  1  0  0  0
 10  1  1  0  0  0  0
 11  4  1  0  0  0  0
 11  7  2  0  0  0  0
 12  3  1  0  0  0  0
 14  5  1  0  0  0  0
 14 12  1  0  0  0  0
 15  7  1  0  0  0  0
 16 18  1  0  0  0  0
 17 16  2  0  0  0  0
 20 22  2  0  0  0  0
 20 23  1  0  0  0  0
 21 16  1  0  0  0  0
 21 19  2  0  0  0  0
 22 21  1  0  0  0  0
 23 24  2  0  0  0  0
 24 19  1  0  0  0  0
 25 20  1  0  0  0  0
 26 25  2  0  0  0  0
 27 25  1  0  0  0  0
 28 15  1  0  0  0  0
 29 28  1  0  0  0  0
 30 38  1  6  0  0  0
 30 29  1  0  0  0  0
 31 32  1  0  0  0  0
 31 30  1  0  0  0  0
 33 32  1  0  0  0  0
 34 33  1  0  0  0  0
 34 36  2  0  0  0  0
 35 34  1  0  0  0  0
 37 34  2  0  0  0  0
 39 40  1  0  0  0  0
 40 38  1  0  0  0  0
M  END
>  <MODEL>
1

>  <REMARK>
 VINA RESULT:      -7.7      0.000      0.000
  Name = 
  12 active torsions:
  status: ('A' for Active; 'I' for Inactive)
    1  A    between atoms: C_1  and  C_12
    2  A    between atoms: C_2  and  N_9
    3  A    between atoms: C_2  and  C_27
    4  A    between atoms: C_2  and  C_30
    5  A    between atoms: S_4  and  N_40
    6  A    between atoms: C_6  and  C_11
    7  A    between atoms: N_9  and  C_19
    8  A    between atoms: N_16  and  C_27
    9  A    between atoms: N_16  and  N_40
   10  A    between atoms: C_19  and  N_38
   11  A    between atoms: O_26  and  C_30
   12  A    between atoms: C_28  and  N_39
                            x       y       z     vdW  Elec       q    Type
                         _______ _______ _______ _____ _____    ______ ____

>  <TORSDO>
F 12

$$$$
=
 OpenBabel10222421583D

 40 42  0  0  1  0  0  0  0  0999 V2000
  194.8510  174.2910  136.3040 C   0  0  0  0  0  2  0  0  0  0  0  0
  192.8600  176.8370  140.4500 C   0  0  0  0  0  2  0  0  0  0  0  0
  194.0410  174.2850  135.0230 C   0  0  0  0  0  2  0  0  0  0  0  0
  190.3890  176.4240  140.2480 C   0  0  0  0  0  2  0  0  0  0  0  0
  192.8230  175.6060  137.2410 C   0  0  0  0  0  0  0  0  0  0  0  0
  192.2880  176.5670  138.0310 C   0  0  0  0  0  0  0  0  0  0  0  0
  190.8730  176.9880  137.9080 C   0  0  0  0  0  0  0  0  0  0  0  0
  194.6080  174.7850  138.6160 O   0  0  0  0  0  1  0  0  0  0  0  0
  191.4720  177.2560  140.9260 C   0  0  1  0  0  3  0  0  0  0  0  0
  194.3090  175.2780  137.3440 C   0  0  1  0  0  3  0  0  0  0  0  0
  190.0600  176.9500  138.9260 N   0  0  0  0  0  0  0  0  0  0  0  0
  192.6350  173.8560  135.3800 C   0  0  0  0  0  2  0  0  0  0  0  0
  193.1290  177.3120  139.0290 C   0  0  0  0  0  2  0  0  0  0  0  0
  191.9450  174.9400  136.1980 C   0  0  0  0  0  2  0  0  0  0  0  0
  190.4090  177.4860  136.6480 N   0  0  0  0  0  2  0  0  0  0  0  0
  190.2500  177.5570  143.1590 C   0  0  0  0  0  0  0  0  0  0  0  0
  189.2500  178.0830  142.5980 O   0  0  0  0  0  0  0  0  0  0  0  0
  191.3740  177.1320  142.3760 N   0  0  0  0  0  2  0  0  0  0  0  0
  191.3850  176.8360  145.2600 C   0  0  0  0  0  3  0  0  0  0  0  0
  189.1510  177.5850  146.7820 C   0  0  0  0  0  0  0  0  0  0  0  0
  190.2610  177.3800  144.6220 C   0  0  0  0  0  0  0  0  0  0  0  0
  189.1500  177.7520  145.3900 C   0  0  0  0  0  3  0  0  0  0  0  0
  190.2830  177.0400  147.4050 C   0  0  0  0  0  3  0  0  0  0  0  0
  191.3960  176.6670  146.6470 C   0  0  0  0  0  3  0  0  0  0  0  0
  187.9760  177.9770  147.5790 C   0  0  0  0  0  0  0  0  0  0  0  0
  188.1160  178.3790  148.7660 O   0  0  0  0  0  0  0  0  0  0  0  0
  186.6670  177.9060  147.0190 N   0  0  0  0  0  1  0  0  0  0  0  0
  189.0570  177.9860  136.4480 C   0  0  0  0  0  2  0  0  0  0  0  0
  188.2320  176.9440  135.8580 N   0  0  0  0  0  2  0  0  0  0  0  0
  187.0500  176.8130  136.6910 C   0  0  2  0  0  3  0  0  0  0  0  0
  187.0790  177.8950  137.7630 C   0  0  0  0  0  2  0  0  0  0  0  0
  185.8130  178.6080  137.8110 N   0  0  0  0  0  2  0  0  0  0  0  0
  185.0220  177.9850  138.7860 N   0  0  0  0  0  2  0  0  0  0  0  0
  184.3360  179.2400  139.7590 S   0  0  0  0  0  0  0  0  0  0  0  0
  182.8150  178.7180  140.3920 N   0  0  0  0  0  1  0  0  0  0  0  0
  184.1350  180.4750  138.9280 O   0  0  0  0  0  0  0  0  0  0  0  0
  185.2670  179.5500  140.8970 O   0  0  0  0  0  0  0  0  0  0  0  0
  187.0350  175.4270  137.3230 C   0  0  0  0  0  2  0  0  0  0  0  0
  186.5580  173.3370  136.8040 C   0  0  0  0  0  1  0  0  0  0  0  0
  186.0540  174.6360  136.7240 O   0  0  0  0  0  0  0  0  0  0  0  0
  1 10  1  0  0  0  0
  2  9  1  0  0  0  0
  3 12  1  0  0  0  0
  3  1  1  0  0  0  0
  4  9  1  0  0  0  0
  5 10  1  0  0  0  0
  5  6  2  0  0  0  0
  6 13  1  0  0  0  0
  7  6  1  0  0  0  0
  7 11  2  0  0  0  0
  9 18  1  1  0  0  0
 10  8  1  1  0  0  0
 11  4  1  0  0  0  0
 12 14  1  0  0  0  0
 13  2  1  0  0  0  0
 14  5  1  0  0  0  0
 15  7  1  0  0  0  0
 16 21  1  0  0  0  0
 17 16  2  0  0  0  0
 18 16  1  0  0  0  0
 19 24  1  0  0  0  0
 20 23  1  0  0  0  0
 20 25  1  0  0  0  0
 21 19  2  0  0  0  0
 21 22  1  0  0  0  0
 22 20  2  0  0  0  0
 24 23  2  0  0  0  0
 25 26  2  0  0  0  0
 27 25  1  0  0  0  0
 28 15  1  0  0  0  0
 29 28  1  0  0  0  0
 29 30  1  0  0  0  0
 30 38  1  1  0  0  0
 30 31  1  0  0  0  0
 31 32  1  0  0  0  0
 32 33  1  0  0  0  0
 33 34  1  0  0  0  0
 34 35  1  0  0  0  0
 34 37  2  0  0  0  0
 36 34  2  0  0  0  0
 40 39  1  0  0  0  0
 40 38  1  0  0  0  0
M  END
>  <MODEL>
2

>  <REMARK>
 VINA RESULT:      -7.6      3.476      7.558
  Name = 
  12 active torsions:
  status: ('A' for Active; 'I' for Inactive)
    1  A    between atoms: C_1  and  C_12
    2  A    between atoms: C_2  and  N_9
    3  A    between atoms: C_2  and  C_27
    4  A    between atoms: C_2  and  C_30
    5  A    between atoms: S_4  and  N_40
    6  A    between atoms: C_6  and  C_11
    7  A    between atoms: N_9  and  C_19
    8  A    between atoms: N_16  and  C_27
    9  A    between atoms: N_16  and  N_40
   10  A    between atoms: C_19  and  N_38
   11  A    between atoms: O_26  and  C_30
   12  A    between atoms: C_28  and  N_39
                            x       y       z     vdW  Elec       q    Type
                         _______ _______ _______ _____ _____    ______ ____

>  <TORSDO>
F 12

$$$$
=
 OpenBabel10222421583D

 40 42  0  0  1  0  0  0  0  0999 V2000
  191.5360  175.9030  147.8070 C   0  0  0  0  0  2  0  0  0  0  0  0
  187.5690  178.0660  145.1190 C   0  0  0  0  0  2  0  0  0  0  0  0
  192.7790  175.5070  147.0360 C   0  0  0  0  0  2  0  0  0  0  0  0
  187.6390  176.8580  142.9160 C   0  0  0  0  0  2  0  0  0  0  0  0
  190.6480  176.5760  145.4660 C   0  0  0  0  0  0  0  0  0  0  0  0
  189.9300  177.3860  144.6520 C   0  0  0  0  0  0  0  0  0  0  0  0
  190.0370  177.3120  143.1760 C   0  0  0  0  0  0  0  0  0  0  0  0
  189.2710  176.5180  147.4290 O   0  0  0  0  0  1  0  0  0  0  0  0
  187.0830  178.0590  143.6730 C   0  0  1  0  0  3  0  0  0  0  0  0
  190.5710  176.7590  146.9790 C   0  0  1  0  0  3  0  0  0  0  0  0
  188.9900  177.1150  142.4260 N   0  0  0  0  0  0  0  0  0  0  0  0
  192.3310  174.6830  145.8480 C   0  0  0  0  0  2  0  0  0  0  0  0
  189.0370  178.4590  145.2100 C   0  0  0  0  0  2  0  0  0  0  0  0
  191.5910  175.5620  144.8480 C   0  0  0  0  0  2  0  0  0  0  0  0
  191.3200  177.5050  142.5680 N   0  0  0  0  0  2  0  0  0  0  0  0
  184.8300  178.8630  142.7490 C   0  0  0  0  0  0  0  0  0  0  0  0
  185.3880  179.6510  141.9370 O   0  0  0  0  0  0  0  0  0  0  0  0
  185.6240  178.0550  143.6290 N   0  0  0  0  0  2  0  0  0  0  0  0
  182.6830  178.8410  144.0190 C   0  0  0  0  0  3  0  0  0  0  0  0
  181.2240  178.5340  141.6430 C   0  0  0  0  0  0  0  0  0  0  0  0
  183.3600  178.7740  142.7930 C   0  0  0  0  0  0  0  0  0  0  0  0
  182.6230  178.6220  141.6110 C   0  0  0  0  0  3  0  0  0  0  0  0
  180.5630  178.6020  142.8780 C   0  0  0  0  0  3  0  0  0  0  0  0
  181.2900  178.7560  144.0620 C   0  0  0  0  0  3  0  0  0  0  0  0
  180.4600  178.3700  140.3940 C   0  0  0  0  0  0  0  0  0  0  0  0
  179.9820  177.2470  140.0830 O   0  0  0  0  0  0  0  0  0  0  0  0
  180.2540  179.4790  139.5240 N   0  0  0  0  0  1  0  0  0  0  0  0
  191.5140  177.5170  141.1260 C   0  0  0  0  0  2  0  0  0  0  0  0
  190.9430  176.3130  140.5450 N   0  0  0  0  0  2  0  0  0  0  0  0
  190.7380  176.5780  139.1320 C   0  0  2  0  0  3  0  0  0  0  0  0
  192.0940  176.7560  138.4610 C   0  0  0  0  0  2  0  0  0  0  0  0
  192.1450  176.0290  137.2020 N   0  0  0  0  0  2  0  0  0  0  0  0
  192.2540  174.6670  137.5130 N   0  0  0  0  0  2  0  0  0  0  0  0
  191.0890  173.8320  136.5430 S   0  0  0  0  0  0  0  0  0  0  0  0
  190.4830  174.8950  135.3220 N   0  0  0  0  0  1  0  0  0  0  0  0
  189.9530  173.3600  137.4060 O   0  0  0  0  0  0  0  0  0  0  0  0
  191.7450  172.6480  135.8900 O   0  0  0  0  0  0  0  0  0  0  0  0
  189.8910  177.8340  138.9760 C   0  0  0  0  0  2  0  0  0  0  0  0
  188.4390  176.5880  137.8790 C   0  0  0  0  0  1  0  0  0  0  0  0
  189.1610  177.7780  137.7880 O   0  0  0  0  0  0  0  0  0  0  0  0
  2 13  1  0  0  0  0
  3  1  1  0  0  0  0
  4  9  1  0  0  0  0
  5 10  1  0  0  0  0
  6 13  1  0  0  0  0
  6  5  2  0  0  0  0
  7  6  1  0  0  0  0
  9 18  1  1  0  0  0
  9  2  1  0  0  0  0
 10  8  1  1  0  0  0
 10  1  1  0  0  0  0
 11  4  1  0  0  0  0
 11  7  2  0  0  0  0
 12  3  1  0  0  0  0
 14  5  1  0  0  0  0
 14 12  1  0  0  0  0
 15  7  1  0  0  0  0
 16 21  1  0  0  0  0
 16 18  1  0  0  0  0
 17 16  2  0  0  0  0
 19 24  1  0  0  0  0
 20 23  1  0  0  0  0
 21 19  2  0  0  0  0
 22 20  2  0  0  0  0
 22 21  1  0  0  0  0
 23 24  2  0  0  0  0
 25 20  1  0  0  0  0
 26 25  2  0  0  0  0
 27 25  1  0  0  0  0
 28 15  1  0  0  0  0
 29 28  1  0  0  0  0
 30 31  1  6  0  0  0
 30 29  1  0  0  0  0
 32 33  1  0  0  0  0
 32 31  1  0  0  0  0
 34 36  2  0  0  0  0
 34 33  1  0  0  0  0
 35 34  1  0  0  0  0
 37 34  2  0  0  0  0
 38 30  1  0  0  0  0
 40 39  1  0  0  0  0
 40 38  1  0  0  0  0
M  END
>  <MODEL>
3

>  <REMARK>
 VINA RESULT:      -7.6      1.949      2.689
  Name = 
  12 active torsions:
  status: ('A' for Active; 'I' for Inactive)
    1  A    between atoms: C_1  and  C_12
    2  A    between atoms: C_2  and  N_9
    3  A    between atoms: C_2  and  C_27
    4  A    between atoms: C_2  and  C_30
    5  A    between atoms: S_4  and  N_40
    6  A    between atoms: C_6  and  C_11
    7  A    between atoms: N_9  and  C_19
    8  A    between atoms: N_16  and  C_27
    9  A    between atoms: N_16  and  N_40
   10  A    between atoms: C_19  and  N_38
   11  A    between atoms: O_26  and  C_30
   12  A    between atoms: C_28  and  N_39
                            x       y       z     vdW  Elec       q    Type
                         _______ _______ _______ _____ _____    ______ ____

>  <TORSDO>
F 12

$$$$
=
 OpenBabel10222421583D

 40 42  0  0  1  0  0  0  0  0999 V2000
  187.3640  177.6700  147.5050 C   0  0  0  0  0  2  0  0  0  0  0  0
  189.0540  176.6000  142.6430 C   0  0  0  0  0  2  0  0  0  0  0  0
  186.0310  178.3750  147.6510 C   0  0  0  0  0  2  0  0  0  0  0  0
  188.2530  178.5740  141.3080 C   0  0  0  0  0  2  0  0  0  0  0  0
  186.9020  177.9350  144.9680 C   0  0  0  0  0  0  0  0  0  0  0  0
  186.9620  177.4840  143.6930 C   0  0  0  0  0  0  0  0  0  0  0  0
  186.2100  178.1320  142.5930 C   0  0  0  0  0  0  0  0  0  0  0  0
  188.9990  177.1780  145.8520 O   0  0  0  0  0  1  0  0  0  0  0  0
  188.8100  177.1550  141.2430 C   0  0  1  0  0  3  0  0  0  0  0  0
  187.6210  177.1740  146.0780 C   0  0  1  0  0  3  0  0  0  0  0  0
  186.8090  178.5710  141.5230 N   0  0  0  0  0  0  0  0  0  0  0  0
  186.0550  179.5820  146.7380 C   0  0  0  0  0  2  0  0  0  0  0  0
  187.7450  176.2510  143.3390 C   0  0  0  0  0  2  0  0  0  0  0  0
  186.0350  179.1400  145.2810 C   0  0  0  0  0  2  0  0  0  0  0  0
  184.7850  178.2320  142.7000 N   0  0  0  0  0  2  0  0  0  0  0  0
  190.2180  176.4190  139.2310 C   0  0  0  0  0  0  0  0  0  0  0  0
  189.2640  175.7530  138.7440 O   0  0  0  0  0  0  0  0  0  0  0  0
  190.0440  177.1300  140.4660 N   0  0  0  0  0  2  0  0  0  0  0  0
  192.6760  176.8500  139.2160 C   0  0  0  0  0  3  0  0  0  0  0  0
  192.8270  176.1720  136.4990 C   0  0  0  0  0  0  0  0  0  0  0  0
  191.5140  176.4660  138.5310 C   0  0  0  0  0  0  0  0  0  0  0  0
  191.6000  176.1280  137.1740 C   0  0  0  0  0  3  0  0  0  0  0  0
  193.9790  176.5580  137.1990 C   0  0  0  0  0  3  0  0  0  0  0  0
  193.9040  176.8960  138.5530 C   0  0  0  0  0  3  0  0  0  0  0  0
  192.9040  175.8180  135.0710 C   0  0  0  0  0  0  0  0  0  0  0  0
  191.8970  175.3490  134.4760 O   0  0  0  0  0  0  0  0  0  0  0  0
  194.1180  175.9990  134.3470 N   0  0  0  0  0  1  0  0  0  0  0  0
  183.9530  178.7890  141.6440 C   0  0  0  0  0  2  0  0  0  0  0  0
  183.4780  177.7210  140.7800 N   0  0  0  0  0  2  0  0  0  0  0  0
  183.4020  178.2630  139.4350 C   0  0  2  0  0  3  0  0  0  0  0  0
  184.7460  178.8820  139.0740 C   0  0  0  0  0  2  0  0  0  0  0  0
  185.3340  178.2060  137.9290 N   0  0  0  0  0  2  0  0  0  0  0  0
  186.6370  177.8350  138.2900 N   0  0  0  0  0  2  0  0  0  0  0  0
  187.7140  178.6480  137.2070 S   0  0  0  0  0  0  0  0  0  0  0  0
  188.2800  177.5380  136.0100 N   0  0  0  0  0  1  0  0  0  0  0  0
  188.8830  179.2000  137.9720 O   0  0  0  0  0  0  0  0  0  0  0  0
  186.9820  179.7750  136.5340 O   0  0  0  0  0  0  0  0  0  0  0  0
  182.2950  179.3080  139.3790 C   0  0  0  0  0  2  0  0  0  0  0  0
  181.5550  181.1630  138.4440 C   0  0  0  0  0  1  0  0  0  0  0  0
  182.4460  180.1080  138.2460 O   0  0  0  0  0  0  0  0  0  0  0  0
  1  3  1  0  0  0  0
  2 13  1  0  0  0  0
  4 11  1  0  0  0  0
  5 14  1  0  0  0  0
  5 10  1  0  0  0  0
  6  5  2  0  0  0  0
  7 15  1  0  0  0  0
  7  6  1  0  0  0  0
  9 18  1  6  0  0  0
  9  4  1  0  0  0  0
  9  2  1  0  0  0  0
 10  8  1  6  0  0  0
 10  1  1  0  0  0  0
 11  7  2  0  0  0  0
 12  3  1  0  0  0  0
 13  6  1  0  0  0  0
 14 12  1  0  0  0  0
 16 18  1  0  0  0  0
 17 16  2  0  0  0  0
 20 22  2  0  0  0  0
 20 23  1  0  0  0  0
 21 19  2  0  0  0  0
 21 16  1  0  0  0  0
 22 21  1  0  0  0  0
 23 24  2  0  0  0  0
 24 19  1  0  0  0  0
 25 20  1  0  0  0  0
 26 25  2  0  0  0  0
 27 25  1  0  0  0  0
 28 15  1  0  0  0  0
 29 28  1  0  0  0  0
 30 31  1  1  0  0  0
 30 29  1  0  0  0  0
 32 33  1  0  0  0  0
 32 31  1  0  0  0  0
 34 36  2  0  0  0  0
 34 33  1  0  0  0  0
 35 34  1  0  0  0  0
 37 34  2  0  0  0  0
 38 30  1  0  0  0  0
 40 39  1  0  0  0  0
 40 38  1  0  0  0  0
M  END
>  <MODEL>
4

>  <REMARK>
 VINA RESULT:      -7.0      2.589      7.904
  Name = 
  12 active torsions:
  status: ('A' for Active; 'I' for Inactive)
    1  A    between atoms: C_1  and  C_12
    2  A    between atoms: C_2  and  N_9
    3  A    between atoms: C_2  and  C_27
    4  A    between atoms: C_2  and  C_30
    5  A    between atoms: S_4  and  N_40
    6  A    between atoms: C_6  and  C_11
    7  A    between atoms: N_9  and  C_19
    8  A    between atoms: N_16  and  C_27
    9  A    between atoms: N_16  and  N_40
   10  A    between atoms: C_19  and  N_38
   11  A    between atoms: O_26  and  C_30
   12  A    between atoms: C_28  and  N_39
                            x       y       z     vdW  Elec       q    Type
                         _______ _______ _______ _____ _____    ______ ____

>  <TORSDO>
F 12

$$$$
=
 OpenBabel10222421583D

 40 42  0  0  1  0  0  0  0  0999 V2000
  187.4070  177.8940  147.7080 C   0  0  0  0  0  2  0  0  0  0  0  0
  188.9030  176.5260  142.8570 C   0  0  0  0  0  2  0  0  0  0  0  0
  186.0840  178.6170  147.8630 C   0  0  0  0  0  2  0  0  0  0  0  0
  188.0620  178.4240  141.4390 C   0  0  0  0  0  2  0  0  0  0  0  0
  186.8490  178.0120  145.1790 C   0  0  0  0  0  0  0  0  0  0  0  0
  186.8580  177.4860  143.9310 C   0  0  0  0  0  0  0  0  0  0  0  0
  186.0670  178.0740  142.8250 C   0  0  0  0  0  0  0  0  0  0  0  0
  188.9740  177.2930  146.0250 O   0  0  0  0  0  1  0  0  0  0  0  0
  188.6080  177.0000  141.4370 C   0  0  1  0  0  3  0  0  0  0  0  0
  187.6060  177.3130  146.3040 C   0  0  1  0  0  3  0  0  0  0  0  0
  186.6280  178.4450  141.7090 N   0  0  0  0  0  0  0  0  0  0  0  0
  186.0800  179.7670  146.8800 C   0  0  0  0  0  2  0  0  0  0  0  0
  187.6200  176.2290  143.6210 C   0  0  0  0  0  2  0  0  0  0  0  0
  186.0010  179.2400  145.4530 C   0  0  0  0  0  2  0  0  0  0  0  0
  184.6480  178.1920  142.9800 N   0  0  0  0  0  2  0  0  0  0  0  0
  189.8200  176.6950  139.1990 C   0  0  0  0  0  0  0  0  0  0  0  0
  188.7350  176.5490  138.5730 O   0  0  0  0  0  0  0  0  0  0  0  0
  189.8110  176.9190  140.6160 N   0  0  0  0  0  2  0  0  0  0  0  0
  192.2970  176.9840  139.1120 C   0  0  0  0  0  3  0  0  0  0  0  0
  192.3480  176.1620  136.4300 C   0  0  0  0  0  0  0  0  0  0  0  0
  191.1010  176.6330  138.4710 C   0  0  0  0  0  0  0  0  0  0  0  0
  191.1360  176.2220  137.1320 C   0  0  0  0  0  3  0  0  0  0  0  0
  193.5360  176.5170  137.0870 C   0  0  0  0  0  3  0  0  0  0  0  0
  193.5100  176.9260  138.4230 C   0  0  0  0  0  3  0  0  0  0  0  0
  192.3730  175.7330  135.0220 C   0  0  0  0  0  0  0  0  0  0  0  0
  193.4640  175.6650  134.3950 O   0  0  0  0  0  0  0  0  0  0  0  0
  191.1630  175.3920  134.3500 N   0  0  0  0  0  1  0  0  0  0  0  0
  183.7790  178.6920  141.9250 C   0  0  0  0  0  2  0  0  0  0  0  0
  183.1920  177.5750  141.2040 N   0  0  0  0  0  2  0  0  0  0  0  0
  181.8940  178.0140  140.7220 C   0  0  2  0  0  3  0  0  0  0  0  0
  182.0840  178.7730  139.4150 C   0  0  0  0  0  2  0  0  0  0  0  0
  182.1410  177.8550  138.2880 N   0  0  0  0  0  2  0  0  0  0  0  0
  183.0070  178.4160  137.3390 N   0  0  0  0  0  2  0  0  0  0  0  0
  184.4990  177.5450  137.4400 S   0  0  0  0  0  0  0  0  0  0  0  0
  185.6130  178.4160  138.4340 N   0  0  0  0  0  1  0  0  0  0  0  0
  185.0810  177.3750  136.0650 O   0  0  0  0  0  0  0  0  0  0  0  0
  184.2450  176.1930  138.0450 O   0  0  0  0  0  0  0  0  0  0  0  0
  181.2460  178.9040  141.7730 C   0  0  0  0  0  2  0  0  0  0  0  0
  180.0250  178.9240  143.6110 C   0  0  0  0  0  1  0  0  0  0  0  0
  180.2270  178.2110  142.4280 O   0  0  0  0  0  0  0  0  0  0  0  0
  1  3  1  0  0  0  0
  2 13  1  0  0  0  0
  4 11  1  0  0  0  0
  5 14  1  0  0  0  0
  5 10  1  0  0  0  0
  6  5  2  0  0  0  0
  7 15  1  0  0  0  0
  7  6  1  0  0  0  0
  9 18  1  6  0  0  0
  9  4  1  0  0  0  0
  9  2  1  0  0  0  0
 10  8  1  6  0  0  0
 10  1  1  0  0  0  0
 11  7  2  0  0  0  0
 12  3  1  0  0  0  0
 13  6  1  0  0  0  0
 14 12  1  0  0  0  0
 16 18  1  0  0  0  0
 17 16  2  0  0  0  0
 20 23  2  0  0  0  0
 20 22  1  0  0  0  0
 21 19  1  0  0  0  0
 21 16  1  0  0  0  0
 22 21  2  0  0  0  0
 23 24  1  0  0  0  0
 24 19  2  0  0  0  0
 25 20  1  0  0  0  0
 26 25  2  0  0  0  0
 27 25  1  0  0  0  0
 28 15  1  0  0  0  0
 29 28  1  0  0  0  0
 30 31  1  6  0  0  0
 30 29  1  0  0  0  0
 30 38  1  0  0  0  0
 32 31  1  0  0  0  0
 33 34  1  0  0  0  0
 33 32  1  0  0  0  0
 34 37  2  0  0  0  0
 34 35  1  0  0  0  0
 36 34  2  0  0  0  0
 38 40  1  0  0  0  0
 40 39  1  0  0  0  0
M  END
>  <MODEL>
5

>  <REMARK>
 VINA RESULT:      -6.8      2.529      8.138
  Name = 
  12 active torsions:
  status: ('A' for Active; 'I' for Inactive)
    1  A    between atoms: C_1  and  C_12
    2  A    between atoms: C_2  and  N_9
    3  A    between atoms: C_2  and  C_27
    4  A    between atoms: C_2  and  C_30
    5  A    between atoms: S_4  and  N_40
    6  A    between atoms: C_6  and  C_11
    7  A    between atoms: N_9  and  C_19
    8  A    between atoms: N_16  and  C_27
    9  A    between atoms: N_16  and  N_40
   10  A    between atoms: C_19  and  N_38
   11  A    between atoms: O_26  and  C_30
   12  A    between atoms: C_28  and  N_39
                            x       y       z     vdW  Elec       q    Type
                         _______ _______ _______ _____ _____    ______ ____

>  <TORSDO>
F 12

$$$$
=
 OpenBabel10222421583D

 40 42  0  0  1  0  0  0  0  0999 V2000
  187.3750  177.8510  147.7520 C   0  0  0  0  0  2  0  0  0  0  0  0
  188.9000  176.5170  142.9000 C   0  0  0  0  0  2  0  0  0  0  0  0
  186.0540  178.5770  147.9030 C   0  0  0  0  0  2  0  0  0  0  0  0
  188.0780  178.4310  141.4920 C   0  0  0  0  0  2  0  0  0  0  0  0
  186.8360  177.9920  145.2200 C   0  0  0  0  0  0  0  0  0  0  0  0
  186.8520  177.4770  143.9680 C   0  0  0  0  0  0  0  0  0  0  0  0
  186.0720  178.0780  142.8610 C   0  0  0  0  0  0  0  0  0  0  0  0
  188.9520  177.2570  146.0750 O   0  0  0  0  0  1  0  0  0  0  0  0
  188.6180  177.0040  141.4820 C   0  0  1  0  0  3  0  0  0  0  0  0
  187.5820  177.2800  146.3440 C   0  0  1  0  0  3  0  0  0  0  0  0
  186.6420  178.4560  141.7520 N   0  0  0  0  0  0  0  0  0  0  0  0
  186.0630  179.7360  146.9290 C   0  0  0  0  0  2  0  0  0  0  0  0
  187.6110  176.2190  143.6520 C   0  0  0  0  0  2  0  0  0  0  0  0
  185.9920  179.2220  145.4980 C   0  0  0  0  0  2  0  0  0  0  0  0
  184.6520  178.2010  143.0060 N   0  0  0  0  0  2  0  0  0  0  0  0
  189.8500  176.6360  139.2640 C   0  0  0  0  0  0  0  0  0  0  0  0
  188.7720  176.4250  138.6430 O   0  0  0  0  0  0  0  0  0  0  0  0
  189.8270  176.9250  140.6690 N   0  0  0  0  0  2  0  0  0  0  0  0
  192.3300  176.8990  139.2040 C   0  0  0  0  0  3  0  0  0  0  0  0
  192.3920  176.1620  136.4980 C   0  0  0  0  0  0  0  0  0  0  0  0
  191.1340  176.5820  138.5440 C   0  0  0  0  0  0  0  0  0  0  0  0
  191.1750  176.2140  137.1920 C   0  0  0  0  0  3  0  0  0  0  0  0
  193.5780  176.4830  137.1730 C   0  0  0  0  0  3  0  0  0  0  0  0
  193.5480  176.8500  138.5210 C   0  0  0  0  0  3  0  0  0  0  0  0
  192.4220  175.7770  135.0760 C   0  0  0  0  0  0  0  0  0  0  0  0
  191.3480  175.5850  134.4460 O   0  0  0  0  0  0  0  0  0  0  0  0
  193.6650  175.6160  134.3980 N   0  0  0  0  0  1  0  0  0  0  0  0
  183.7930  178.7140  141.9490 C   0  0  0  0  0  2  0  0  0  0  0  0
  183.4150  177.6300  141.0570 N   0  0  0  0  0  2  0  0  0  0  0  0
  182.2650  178.0870  140.2960 C   0  0  2  0  0  3  0  0  0  0  0  0
  181.7300  176.9280  139.4650 C   0  0  0  0  0  2  0  0  0  0  0  0
  182.6700  176.5690  138.4150 N   0  0  0  0  0  2  0  0  0  0  0  0
  182.9480  175.2020  138.5560 N   0  0  0  0  0  2  0  0  0  0  0  0
  184.1220  174.7970  137.3510 S   0  0  0  0  0  0  0  0  0  0  0  0
  184.8060  173.2500  137.7040 N   0  0  0  0  0  1  0  0  0  0  0  0
  185.2090  175.8340  137.3320 O   0  0  0  0  0  0  0  0  0  0  0  0
  183.4550  174.7500  136.0050 O   0  0  0  0  0  0  0  0  0  0  0  0
  182.6870  179.2440  139.4000 C   0  0  0  0  0  2  0  0  0  0  0  0
  181.2320  180.2820  138.1070 C   0  0  0  0  0  1  0  0  0  0  0  0
  181.7140  180.2440  139.4160 O   0  0  0  0  0  0  0  0  0  0  0  0
  1  3  1  0  0  0  0
  2 13  1  0  0  0  0
  4 11  1  0  0  0  0
  5 14  1  0  0  0  0
  5 10  1  0  0  0  0
  6  5  2  0  0  0  0
  7 15  1  0  0  0  0
  7  6  1  0  0  0  0
  9 18  1  6  0  0  0
  9  4  1  0  0  0  0
  9  2  1  0  0  0  0
 10  8  1  6  0  0  0
 10  1  1  0  0  0  0
 11  7  2  0  0  0  0
 12  3  1  0  0  0  0
 13  6  1  0  0  0  0
 14 12  1  0  0  0  0
 16 18  1  0  0  0  0
 17 16  2  0  0  0  0
 20 23  2  0  0  0  0
 20 22  1  0  0  0  0
 21 19  1  0  0  0  0
 21 16  1  0  0  0  0
 22 21  2  0  0  0  0
 23 24  1  0  0  0  0
 24 19  2  0  0  0  0
 25 20  1  0  0  0  0
 26 25  2  0  0  0  0
 27 25  1  0  0  0  0
 28 15  1  0  0  0  0
 29 28  1  0  0  0  0
 30 38  1  6  0  0  0
 30 29  1  0  0  0  0
 31 30  1  0  0  0  0
 32 33  1  0  0  0  0
 32 31  1  0  0  0  0
 34 35  1  0  0  0  0
 34 33  1  0  0  0  0
 36 34  2  0  0  0  0
 37 34  2  0  0  0  0
 38 40  1  0  0  0  0
 39 40  1  0  0  0  0
M  END
>  <MODEL>
6

>  <REMARK>
 VINA RESULT:      -6.6      2.697      8.015
  Name = 
  12 active torsions:
  status: ('A' for Active; 'I' for Inactive)
    1  A    between atoms: C_1  and  C_12
    2  A    between atoms: C_2  and  N_9
    3  A    between atoms: C_2  and  C_27
    4  A    between atoms: C_2  and  C_30
    5  A    between atoms: S_4  and  N_40
    6  A    between atoms: C_6  and  C_11
    7  A    between atoms: N_9  and  C_19
    8  A    between atoms: N_16  and  C_27
    9  A    between atoms: N_16  and  N_40
   10  A    between atoms: C_19  and  N_38
   11  A    between atoms: O_26  and  C_30
   12  A    between atoms: C_28  and  N_39
                            x       y       z     vdW  Elec       q    Type
                         _______ _______ _______ _____ _____    ______ ____

>  <TORSDO>
F 12

$$$$
=
 OpenBabel10222421583D

 40 42  0  0  1  0  0  0  0  0999 V2000
  189.8370  176.7030  147.3320 C   0  0  0  0  0  2  0  0  0  0  0  0
  190.5460  175.9830  142.1720 C   0  0  0  0  0  2  0  0  0  0  0  0
  188.6390  177.5190  147.7740 C   0  0  0  0  0  2  0  0  0  0  0  0
  189.7690  178.1570  141.1760 C   0  0  0  0  0  2  0  0  0  0  0  0
  188.9880  177.2770  144.9500 C   0  0  0  0  0  0  0  0  0  0  0  0
  188.7800  176.9580  143.6510 C   0  0  0  0  0  0  0  0  0  0  0  0
  187.9340  177.7900  142.7630 C   0  0  0  0  0  0  0  0  0  0  0  0
  191.1000  176.2250  145.3760 O   0  0  0  0  0  1  0  0  0  0  0  0
  190.1360  176.7040  140.8910 C   0  0  1  0  0  3  0  0  0  0  0  0
  189.7890  176.3360  145.8440 C   0  0  1  0  0  3  0  0  0  0  0  0
  188.3920  178.2770  141.6450 N   0  0  0  0  0  0  0  0  0  0  0  0
  188.6510  178.8060  146.9780 C   0  0  0  0  0  2  0  0  0  0  0  0
  189.3410  175.6960  143.0580 C   0  0  0  0  0  2  0  0  0  0  0  0
  188.3340  178.5240  145.5150 C   0  0  0  0  0  2  0  0  0  0  0  0
  186.5690  178.0220  143.1320 N   0  0  0  0  0  2  0  0  0  0  0  0
  191.1840  175.8250  138.7230 C   0  0  0  0  0  0  0  0  0  0  0  0
  190.1820  175.1000  138.4740 O   0  0  0  0  0  0  0  0  0  0  0  0
  191.2100  176.6360  139.9060 N   0  0  0  0  0  2  0  0  0  0  0  0
  192.2170  176.4450  136.5380 C   0  0  0  0  0  3  0  0  0  0  0  0
  194.6390  175.2440  137.2860 C   0  0  0  0  0  0  0  0  0  0  0  0
  192.3300  175.8370  137.7960 C   0  0  0  0  0  0  0  0  0  0  0  0
  193.5440  175.2400  138.1620 C   0  0  0  0  0  3  0  0  0  0  0  0
  194.5090  175.8570  136.0320 C   0  0  0  0  0  3  0  0  0  0  0  0
  193.3020  176.4550  135.6590 C   0  0  0  0  0  3  0  0  0  0  0  0
  195.9090  174.6110  137.6800 C   0  0  0  0  0  0  0  0  0  0  0  0
  197.0030  175.0380  137.2230 O   0  0  0  0  0  0  0  0  0  0  0  0
  195.9160  173.5070  138.5810 N   0  0  0  0  0  1  0  0  0  0  0  0
  185.6430  178.7680  142.2930 C   0  0  0  0  0  2  0  0  0  0  0  0
  184.3900  178.0390  142.1790 N   0  0  0  0  0  2  0  0  0  0  0  0
  184.0240  178.0380  140.7740 C   0  0  2  0  0  3  0  0  0  0  0  0
  184.8060  179.1330  140.0590 C   0  0  0  0  0  2  0  0  0  0  0  0
  185.1770  178.7090  138.7180 N   0  0  0  0  0  2  0  0  0  0  0  0
  186.5480  178.4140  138.7410 N   0  0  0  0  0  2  0  0  0  0  0  0
  187.0920  178.4120  137.0990 S   0  0  0  0  0  0  0  0  0  0  0  0
  188.6410  177.6520  137.0020 N   0  0  0  0  0  1  0  0  0  0  0  0
  187.1940  179.8240  136.5960 O   0  0  0  0  0  0  0  0  0  0  0  0
  186.1110  177.6510  136.2520 O   0  0  0  0  0  0  0  0  0  0  0  0
  182.5250  178.2770  140.6480 C   0  0  0  0  0  2  0  0  0  0  0  0
  180.9250  179.3420  141.7310 C   0  0  0  0  0  1  0  0  0  0  0  0
  181.9520  178.4150  141.9130 O   0  0  0  0  0  0  0  0  0  0  0  0
  1  3  1  0  0  0  0
  2 13  1  0  0  0  0
  4 11  1  0  0  0  0
  5 14  1  0  0  0  0
  5 10  1  0  0  0  0
  6  5  2  0  0  0  0
  7 15  1  0  0  0  0
  7  6  1  0  0  0  0
  9 18  1  6  0  0  0
  9  4  1  0  0  0  0
  9  2  1  0  0  0  0
 10  8  1  6  0  0  0
 10  1  1  0  0  0  0
 11  7  2  0  0  0  0
 12  3  1  0  0  0  0
 13  6  1  0  0  0  0
 14 12  1  0  0  0  0
 16 18  1  0  0  0  0
 17 16  2  0  0  0  0
 19 21  1  0  0  0  0
 20 25  1  0  0  0  0
 20 22  1  0  0  0  0
 21 22  2  0  0  0  0
 21 16  1  0  0  0  0
 23 20  2  0  0  0  0
 24 23  1  0  0  0  0
 24 19  2  0  0  0  0
 25 27  1  0  0  0  0
 26 25  2  0  0  0  0
 28 15  1  0  0  0  0
 29 28  1  0  0  0  0
 30 31  1  6  0  0  0
 30 29  1  0  0  0  0
 32 33  1  0  0  0  0
 32 31  1  0  0  0  0
 34 33  1  0  0  0  0
 35 34  1  0  0  0  0
 36 34  2  0  0  0  0
 37 34  2  0  0  0  0
 38 30  1  0  0  0  0
 38 40  1  0  0  0  0
 39 40  1  0  0  0  0
M  END
>  <MODEL>
7

>  <REMARK>
 VINA RESULT:      -6.6      2.147      8.356
  Name = 
  12 active torsions:
  status: ('A' for Active; 'I' for Inactive)
    1  A    between atoms: C_1  and  C_12
    2  A    between atoms: C_2  and  N_9
    3  A    between atoms: C_2  and  C_27
    4  A    between atoms: C_2  and  C_30
    5  A    between atoms: S_4  and  N_40
    6  A    between atoms: C_6  and  C_11
    7  A    between atoms: N_9  and  C_19
    8  A    between atoms: N_16  and  C_27
    9  A    between atoms: N_16  and  N_40
   10  A    between atoms: C_19  and  N_38
   11  A    between atoms: O_26  and  C_30
   12  A    between atoms: C_28  and  N_39
                            x       y       z     vdW  Elec       q    Type
                         _______ _______ _______ _____ _____    ______ ____

>  <TORSDO>
F 12

$$$$
=
 OpenBabel10222421583D

 40 42  0  0  1  0  0  0  0  0999 V2000
  191.6420  174.6000  134.7920 C   0  0  0  0  0  2  0  0  0  0  0  0
  187.0350  176.2030  136.7530 C   0  0  0  0  0  2  0  0  0  0  0  0
  192.8650  174.7100  135.6790 C   0  0  0  0  0  2  0  0  0  0  0  0
  187.6710  178.1710  138.1820 C   0  0  0  0  0  2  0  0  0  0  0  0
  190.4360  175.7030  136.8040 C   0  0  0  0  0  0  0  0  0  0  0  0
  189.3590  175.8550  137.6100 C   0  0  0  0  0  0  0  0  0  0  0  0
  189.4300  176.6090  138.8830 C   0  0  0  0  0  0  0  0  0  0  0  0
  189.4000  175.3800  134.6650 O   0  0  0  0  0  1  0  0  0  0  0  0
  186.5750  177.1660  137.8440 C   0  0  1  0  0  3  0  0  0  0  0  0
  190.3320  174.8370  135.5520 C   0  0  1  0  0  3  0  0  0  0  0  0
  188.6350  177.6140  139.1250 N   0  0  0  0  0  0  0  0  0  0  0  0
  192.8980  176.1190  136.2300 C   0  0  0  0  0  2  0  0  0  0  0  0
  188.0460  175.1980  137.2880 C   0  0  0  0  0  2  0  0  0  0  0  0
  191.7570  176.3260  137.2170 C   0  0  0  0  0  2  0  0  0  0  0  0
  190.3670  176.1900  139.8810 N   0  0  0  0  0  2  0  0  0  0  0  0
  184.0590  177.6330  137.9870 C   0  0  0  0  0  0  0  0  0  0  0  0
  183.9020  176.7820  138.9050 O   0  0  0  0  0  0  0  0  0  0  0  0
  185.3610  177.8600  137.4290 N   0  0  0  0  0  2  0  0  0  0  0  0
  182.2430  177.9970  136.3150 C   0  0  0  0  0  3  0  0  0  0  0  0
  181.3450  180.2600  137.7100 C   0  0  0  0  0  0  0  0  0  0  0  0
  182.9010  178.3960  137.4880 C   0  0  0  0  0  0  0  0  0  0  0  0
  182.4450  179.5270  138.1790 C   0  0  0  0  0  3  0  0  0  0  0  0
  180.6990  179.8470  136.5350 C   0  0  0  0  0  3  0  0  0  0  0  0
  181.1460  178.7200  135.8410 C   0  0  0  0  0  3  0  0  0  0  0  0
  180.8770  181.4490  138.4420 C   0  0  0  0  0  0  0  0  0  0  0  0
  180.3440  181.3280  139.5780 O   0  0  0  0  0  0  0  0  0  0  0  0
  181.0190  182.7480  137.8750 N   0  0  0  0  0  1  0  0  0  0  0  0
  190.4640  176.8240  141.1880 C   0  0  0  0  0  2  0  0  0  0  0  0
  190.1790  175.8490  142.2270 N   0  0  0  0  0  2  0  0  0  0  0  0
  189.4720  176.5490  143.2850 C   0  0  2  0  0  3  0  0  0  0  0  0
  187.9810  176.5390  142.9740 C   0  0  0  0  0  2  0  0  0  0  0  0
  187.4120  177.8690  143.1320 N   0  0  0  0  0  2  0  0  0  0  0  0
  187.1940  178.3820  141.8460 N   0  0  0  0  0  2  0  0  0  0  0  0
  185.6160  179.0920  141.8460 S   0  0  0  0  0  0  0  0  0  0  0  0
  184.4570  177.9300  142.3890 N   0  0  0  0  0  1  0  0  0  0  0  0
  185.2610  179.5420  140.4570 O   0  0  0  0  0  0  0  0  0  0  0  0
  185.6040  180.2760  142.7720 O   0  0  0  0  0  0  0  0  0  0  0  0
  189.9940  177.9770  143.3760 C   0  0  0  0  0  2  0  0  0  0  0  0
  191.5820  179.3280  144.0960 C   0  0  0  0  0  1  0  0  0  0  0  0
  191.0740  178.0380  144.2580 O   0  0  0  0  0  0  0  0  0  0  0  0
  1 10  1  0  0  0  0
  1  3  1  0  0  0  0
  2 13  1  0  0  0  0
  2  9  1  0  0  0  0
  3 12  1  0  0  0  0
  4 11  1  0  0  0  0
  5 14  1  0  0  0  0
  5  6  2  0  0  0  0
  6  7  1  0  0  0  0
  7 11  2  0  0  0  0
  7 15  1  0  0  0  0
  9 18  1  6  0  0  0
  9  4  1  0  0  0  0
 10  8  1  6  0  0  0
 10  5  1  0  0  0  0
 12 14  1  0  0  0  0
 13  6  1  0  0  0  0
 15 28  1  0  0  0  0
 16 17  2  0  0  0  0
 18 16  1  0  0  0  0
 19 21  1  0  0  0  0
 20 22  1  0  0  0  0
 20 25  1  0  0  0  0
 21 16  1  0  0  0  0
 21 22  2  0  0  0  0
 23 20  2  0  0  0  0
 24 19  2  0  0  0  0
 24 23  1  0  0  0  0
 25 26  2  0  0  0  0
 27 25  1  0  0  0  0
 28 29  1  0  0  0  0
 29 30  1  0  0  0  0
 30 31  1  6  0  0  0
 30 38  1  0  0  0  0
 31 32  1  0  0  0  0
 33 34  1  0  0  0  0
 33 32  1  0  0  0  0
 34 35  1  0  0  0  0
 34 37  2  0  0  0  0
 36 34  2  0  0  0  0
 38 40  1  0  0  0  0
 39 40  1  0  0  0  0
M  END
>  <MODEL>
8

>  <REMARK>
 VINA RESULT:      -6.5      3.126      6.738
  Name = 
  12 active torsions:
  status: ('A' for Active; 'I' for Inactive)
    1  A    between atoms: C_1  and  C_12
    2  A    between atoms: C_2  and  N_9
    3  A    between atoms: C_2  and  C_27
    4  A    between atoms: C_2  and  C_30
    5  A    between atoms: S_4  and  N_40
    6  A    between atoms: C_6  and  C_11
    7  A    between atoms: N_9  and  C_19
    8  A    between atoms: N_16  and  C_27
    9  A    between atoms: N_16  and  N_40
   10  A    between atoms: C_19  and  N_38
   11  A    between atoms: O_26  and  C_30
   12  A    between atoms: C_28  and  N_39
                            x       y       z     vdW  Elec       q    Type
                         _______ _______ _______ _____ _____    ______ ____

>  <TORSDO>
F 12

$$$$
=
 OpenBabel10222421583D

 40 42  0  0  1  0  0  0  0  0999 V2000
  191.3110  174.3510  134.3990 C   0  0  0  0  0  2  0  0  0  0  0  0
  186.8230  175.9200  136.6440 C   0  0  0  0  0  2  0  0  0  0  0  0
  192.5990  174.5730  135.1650 C   0  0  0  0  0  2  0  0  0  0  0  0
  187.4920  178.0110  137.8690 C   0  0  0  0  0  2  0  0  0  0  0  0
  190.2340  175.5540  136.4280 C   0  0  0  0  0  0  0  0  0  0  0  0
  189.2250  175.7240  137.3140 C   0  0  0  0  0  0  0  0  0  0  0  0
  189.3710  176.5720  138.5200 C   0  0  0  0  0  0  0  0  0  0  0  0
  189.0350  175.0350  134.4180 O   0  0  0  0  0  1  0  0  0  0  0  0
  186.4160  176.9430  137.7010 C   0  0  1  0  0  3  0  0  0  0  0  0
  190.0620  174.5950  135.2540 C   0  0  1  0  0  3  0  0  0  0  0  0
  188.5570  177.5610  138.7600 N   0  0  0  0  0  0  0  0  0  0  0  0
  192.6170  176.0190  135.6110 C   0  0  0  0  0  2  0  0  0  0  0  0
  187.9190  174.9960  137.1570 C   0  0  0  0  0  2  0  0  0  0  0  0
  191.5570  176.2540  136.6780 C   0  0  0  0  0  2  0  0  0  0  0  0
  190.4080  176.2630  139.4580 N   0  0  0  0  0  2  0  0  0  0  0  0
  184.1520  177.9890  138.2930 C   0  0  0  0  0  0  0  0  0  0  0  0
  184.3530  177.8470  139.5300 O   0  0  0  0  0  0  0  0  0  0  0  0
  185.1420  177.5580  137.3480 N   0  0  0  0  0  2  0  0  0  0  0  0
  182.2580  178.1060  136.6720 C   0  0  0  0  0  3  0  0  0  0  0  0
  181.1380  180.2700  138.0620 C   0  0  0  0  0  0  0  0  0  0  0  0
  182.8970  178.6000  137.8180 C   0  0  0  0  0  0  0  0  0  0  0  0
  182.3300  179.6810  138.5070 C   0  0  0  0  0  3  0  0  0  0  0  0
  180.5120  179.7630  136.9140 C   0  0  0  0  0  3  0  0  0  0  0  0
  181.0700  178.6850  136.2220 C   0  0  0  0  0  3  0  0  0  0  0  0
  180.5530  181.4080  138.7920 C   0  0  0  0  0  0  0  0  0  0  0  0
  180.2870  181.3080  140.0190 O   0  0  0  0  0  0  0  0  0  0  0  0
  180.2790  182.6330  138.1180 N   0  0  0  0  0  1  0  0  0  0  0  0
  190.5880  176.9950  140.7030 C   0  0  0  0  0  2  0  0  0  0  0  0
  190.1480  176.1750  141.8200 N   0  0  0  0  0  2  0  0  0  0  0  0
  189.5970  177.0760  142.8170 C   0  0  2  0  0  3  0  0  0  0  0  0
  190.2330  176.7670  144.1670 C   0  0  0  0  0  2  0  0  0  0  0  0
  189.9590  177.8300  145.1210 N   0  0  0  0  0  2  0  0  0  0  0  0
  190.2170  177.3150  146.4000 N   0  0  0  0  0  2  0  0  0  0  0  0
  188.7310  177.3910  147.2840 S   0  0  0  0  0  0  0  0  0  0  0  0
  188.9090  178.4650  148.6260 N   0  0  0  0  0  1  0  0  0  0  0  0
  188.3660  176.0210  147.7820 O   0  0  0  0  0  0  0  0  0  0  0  0
  187.6420  177.9000  146.3810 O   0  0  0  0  0  0  0  0  0  0  0  0
  188.0870  176.8910  142.8790 C   0  0  0  0  0  2  0  0  0  0  0  0
  186.2120  178.0430  143.0260 C   0  0  0  0  0  1  0  0  0  0  0  0
  187.4430  178.0200  142.3710 O   0  0  0  0  0  0  0  0  0  0  0  0
  1  3  1  0  0  0  0
  1 10  1  0  0  0  0
  2 13  1  0  0  0  0
  2  9  1  0  0  0  0
  3 12  1  0  0  0  0
  4 11  1  0  0  0  0
  5 14  1  0  0  0  0
  5  6  2  0  0  0  0
  6  7  1  0  0  0  0
  7 11  2  0  0  0  0
  7 15  1  0  0  0  0
  9 18  1  6  0  0  0
  9  4  1  0  0  0  0
 10  8  1  6  0  0  0
 10  5  1  0  0  0  0
 12 14  1  0  0  0  0
 13  6  1  0  0  0  0
 15 28  1  0  0  0  0
 16 17  2  0  0  0  0
 18 16  1  0  0  0  0
 19 21  1  0  0  0  0
 20 22  1  0  0  0  0
 20 25  1  0  0  0  0
 21 16  1  0  0  0  0
 21 22  2  0  0  0  0
 23 20  2  0  0  0  0
 24 19  2  0  0  0  0
 24 23  1  0  0  0  0
 25 26  2  0  0  0  0
 27 25  1  0  0  0  0
 28 29  1  0  0  0  0
 29 30  1  0  0  0  0
 30 38  1  1  0  0  0
 30 31  1  0  0  0  0
 31 32  1  0  0  0  0
 32 33  1  0  0  0  0
 33 34  1  0  0  0  0
 34 36  2  0  0  0  0
 34 35  1  0  0  0  0
 37 34  2  0  0  0  0
 40 38  1  0  0  0  0
 40 39  1  0  0  0  0
M  END
>  <MODEL>
9

>  <REMARK>
 VINA RESULT:      -6.3      3.334      7.592
  Name = 
  12 active torsions:
  status: ('A' for Active; 'I' for Inactive)
    1  A    between atoms: C_1  and  C_12
    2  A    between atoms: C_2  and  N_9
    3  A    between atoms: C_2  and  C_27
    4  A    between atoms: C_2  and  C_30
    5  A    between atoms: S_4  and  N_40
    6  A    between atoms: C_6  and  C_11
    7  A    between atoms: N_9  and  C_19
    8  A    between atoms: N_16  and  C_27
    9  A    between atoms: N_16  and  N_40
   10  A    between atoms: C_19  and  N_38
   11  A    between atoms: O_26  and  C_30
   12  A    between atoms: C_28  and  N_39
                            x       y       z     vdW  Elec       q    Type
                         _______ _______ _______ _____ _____    ______ ____

>  <TORSDO>
F 12

$$$$
