=
 OpenBabel10232409433D

 35 36  0  0  1  0  0  0  0  0999 V2000
  191.7040  177.1800  142.1170 O   0  0  0  0  0  0  0  0  0  0  0  0
  190.4780  176.7020  141.7840 C   0  0  1  0  0  3  0  0  0  0  0  0
  190.6170  177.9770  142.4490 N   0  0  0  0  0  0  0  0  0  0  0  0
  190.2360  176.9280  140.3080 C   0  0  0  0  0  2  0  0  0  0  0  0
  191.0060  175.9660  139.5370 N   0  0  0  0  0  2  0  0  0  0  0  0
  191.2830  174.4720  137.7950 O   0  0  0  0  0  0  0  0  0  0  0  0
  190.6560  175.4720  138.2370 C   0  0  0  0  0  0  0  0  0  0  0  0
  187.7010  178.3200  136.5590 C   0  0  0  0  0  3  0  0  0  0  0  0
  188.3020  175.3920  137.2080 C   0  0  0  0  0  3  0  0  0  0  0  0
  189.8570  177.2290  136.8290 N   0  0  0  0  0  0  0  0  0  0  0  0
  188.9770  177.9240  135.8990 C   0  0  0  0  0  2  0  0  0  0  0  0
  189.6030  176.0800  137.3870 C   0  0  0  0  0  0  0  0  0  0  0  0
  186.8510  177.4310  137.0750 C   0  0  0  0  0  0  0  0  0  0  0  0
  187.1050  175.9770  137.0780 C   0  0  0  0  0  3  0  0  0  0  0  0
  185.5400  177.9170  137.5860 C   0  0  0  0  0  2  0  0  0  0  0  0
  185.7490  178.8030  138.7200 N   0  0  0  0  0  2  0  0  0  0  0  0
  184.8820  178.7950  139.8540 C   0  0  0  0  0  0  0  0  0  0  0  0
  183.8930  178.0110  139.8930 O   0  0  0  0  0  0  0  0  0  0  0  0
  185.2520  179.1970  142.2520 C   0  0  0  0  0  1  0  0  0  0  0  0
  185.1430  179.6620  140.9150 O   0  0  0  0  0  0  0  0  0  0  0  0
  190.3450  177.7740  143.8160 N   0  0  0  0  0  0  0  0  0  0  0  0
  188.2120  177.1440  144.7610 C   0  0  0  0  0  3  0  0  0  0  0  0
  189.0600  178.0900  144.3680 C   0  0  0  0  0  3  0  0  0  0  0  0
  186.8780  177.5020  145.3270 C   0  0  0  0  0  2  0  0  0  0  0  0
  187.0250  178.2440  146.6490 C   0  0  2  0  0  3  0  0  0  0  0  0
  188.3680  178.1330  148.4050 C   0  0  0  0  0  1  0  0  0  0  0  0
  187.5050  177.3640  147.6230 O   0  0  0  0  0  0  0  0  0  0  0  0
  185.7340  178.7710  147.0640 N   0  0  0  0  0  2  0  0  0  0  0  0
  184.8400  178.6560  145.9240 C   0  0  0  0  0  1  0  0  0  0  0  0
  191.4420  177.5580  144.7520 C   0  0  0  0  0  2  0  0  0  0  0  0
  192.0940  175.2680  144.5000 O   0  0  0  0  0  1  0  0  0  0  0  0
  191.3880  176.1470  145.3220 C   0  0  1  0  0  3  0  0  0  0  0  0
  191.6490  177.1520  147.5850 O   0  0  0  0  0  1  0  0  0  0  0  0
  192.7370  175.2050  147.0580 O   0  0  0  0  0  0  0  0  0  0  0  0
  191.9590  176.1280  146.7000 C   0  0  0  0  0  0  0  0  0  0  0  0
  1  3  1  0  0  0  0
  2  4  1  6  0  0  0
  2  1  1  0  0  0  0
  2  3  1  0  0  0  0
  3 21  1  0  0  0  0
  5  4  1  0  0  0  0
  6  7  2  0  0  0  0
  7  5  1  0  0  0  0
  8 13  2  0  0  0  0
  9 12  1  0  0  0  0
 10 12  2  0  0  0  0
 11  8  1  0  0  0  0
 11 10  1  0  0  0  0
 12  7  1  0  0  0  0
 13 14  1  0  0  0  0
 13 15  1  0  0  0  0
 14  9  2  0  0  0  0
 15 16  1  0  0  0  0
 16 17  1  0  0  0  0
 17 18  2  0  0  0  0
 17 20  1  0  0  0  0
 20 19  1  0  0  0  0
 21 23  1  0  0  0  0
 21 30  1  0  0  0  0
 22 24  1  0  0  0  0
 23 22  2  0  0  0  0
 25 24  1  6  0  0  0
 25 28  1  0  0  0  0
 25 27  1  0  0  0  0
 27 26  1  0  0  0  0
 29 28  1  0  0  0  0
 30 32  1  0  0  0  0
 32 31  1  6  0  0  0
 32 35  1  0  0  0  0
 35 34  2  0  0  0  0
 35 33  1  0  0  0  0
M  END
>  <MODEL>
1

>  <REMARK>
 VINA RESULT:      -7.3      0.000      0.000
  Name = 
  15 active torsions:
  status: ('A' for Active; 'I' for Inactive)
    1  A    between atoms: N_1  and  C_34
    2  A    between atoms: N_2  and  C_3
    3  A    between atoms: C_3  and  C_17
    4  A    between atoms: N_6  and  C_19
    5  A    between atoms: C_8  and  C_24
    6  A    between atoms: C_8  and  N_25
    7  A    between atoms: C_13  and  O_31
    8  A    between atoms: O_16  and  C_19
    9  A    between atoms: C_19  and  C_21
   10  A    between atoms: C_20  and  C_35
   11  A    between atoms: C_21  and  C_22
   12  A    between atoms: C_24  and  C_30
   13  A    between atoms: N_25  and  N_26
   14  A    between atoms: N_25  and  C_27
   15  A    between atoms: C_32  and  C_34
                            x       y       z     vdW  Elec       q    Type
                         _______ _______ _______ _____ _____    ______ ____

>  <TORSDO>
F 15

$$$$
=
 OpenBabel10232409433D

 35 36  0  0  1  0  0  0  0  0999 V2000
  190.1200  176.6400  141.4450 O   0  0  0  0  0  0  0  0  0  0  0  0
  189.1570  177.2470  140.7050 C   0  0  1  0  0  3  0  0  0  0  0  0
  189.5860  177.8110  141.9640 N   0  0  0  0  0  0  0  0  0  0  0  0
  189.8030  178.0070  139.5680 C   0  0  0  0  0  2  0  0  0  0  0  0
  188.7800  178.7100  138.8120 N   0  0  0  0  0  2  0  0  0  0  0  0
  187.5890  179.1600  136.8830 O   0  0  0  0  0  0  0  0  0  0  0  0
  188.2980  178.3320  137.5150 C   0  0  0  0  0  0  0  0  0  0  0  0
  189.3390  174.0620  136.9330 C   0  0  0  0  0  3  0  0  0  0  0  0
  189.6430  176.9070  135.8520 C   0  0  0  0  0  3  0  0  0  0  0  0
  187.8970  175.9880  137.2830 N   0  0  0  0  0  0  0  0  0  0  0  0
  187.9860  174.6500  136.7150 C   0  0  0  0  0  2  0  0  0  0  0  0
  188.5860  177.0190  136.8860 C   0  0  0  0  0  0  0  0  0  0  0  0
  190.4500  174.6070  136.4380 C   0  0  0  0  0  0  0  0  0  0  0  0
  190.4570  175.8610  135.6600 C   0  0  0  0  0  3  0  0  0  0  0  0
  191.7320  173.8680  136.5930 C   0  0  0  0  0  2  0  0  0  0  0  0
  192.5570  174.5140  137.6010 N   0  0  0  0  0  2  0  0  0  0  0  0
  193.9830  174.5200  137.5210 C   0  0  0  0  0  0  0  0  0  0  0  0
  194.5680  173.9450  136.5600 O   0  0  0  0  0  0  0  0  0  0  0  0
  195.7420  174.5050  139.2390 C   0  0  0  0  0  1  0  0  0  0  0  0
  194.7170  175.1670  138.5140 O   0  0  0  0  0  0  0  0  0  0  0  0
  188.6340  177.4470  142.9380 N   0  0  0  0  0  0  0  0  0  0  0  0
  186.4180  177.7250  143.8590 C   0  0  0  0  0  3  0  0  0  0  0  0
  187.3760  178.1290  143.0320 C   0  0  0  0  0  3  0  0  0  0  0  0
  185.1160  178.4520  143.9330 C   0  0  0  0  0  2  0  0  0  0  0  0
  184.6460  178.5890  145.3750 C   0  0  2  0  0  3  0  0  0  0  0  0
  182.8410  178.9200  144.1360 C   0  0  0  0  0  1  0  0  0  0  0  0
  183.3810  179.1840  145.3960 O   0  0  0  0  0  0  0  0  0  0  0  0
  185.5830  179.4140  146.1220 N   0  0  0  0  0  2  0  0  0  0  0  0
  186.0050  178.6400  147.2770 C   0  0  0  0  0  1  0  0  0  0  0  0
  189.0290  176.6090  144.0640 C   0  0  0  0  0  2  0  0  0  0  0  0
  189.0970  177.0740  146.4120 O   0  0  0  0  0  1  0  0  0  0  0  0
  189.6250  177.4580  145.1780 C   0  0  1  0  0  3  0  0  0  0  0  0
  191.8750  178.0350  144.2830 O   0  0  0  0  0  0  0  0  0  0  0  0
  191.6720  176.5380  146.0060 O   0  0  0  0  0  1  0  0  0  0  0  0
  191.1100  177.3180  145.1920 C   0  0  0  0  0  0  0  0  0  0  0  0
  1  3  1  0  0  0  0
  2  4  1  6  0  0  0
  2  1  1  0  0  0  0
  2  3  1  0  0  0  0
  3 21  1  0  0  0  0
  5  4  1  0  0  0  0
  6  7  2  0  0  0  0
  7  5  1  0  0  0  0
  9 12  1  0  0  0  0
 11  8  1  0  0  0  0
 11 10  1  0  0  0  0
 12 10  2  0  0  0  0
 12  7  1  0  0  0  0
 13 15  1  0  0  0  0
 13  8  2  0  0  0  0
 14  9  2  0  0  0  0
 14 13  1  0  0  0  0
 15 16  1  0  0  0  0
 17 16  1  0  0  0  0
 17 20  1  0  0  0  0
 18 17  2  0  0  0  0
 20 19  1  0  0  0  0
 21 23  1  0  0  0  0
 21 30  1  0  0  0  0
 22 24  1  0  0  0  0
 23 22  2  0  0  0  0
 25 24  1  6  0  0  0
 25 27  1  0  0  0  0
 25 28  1  0  0  0  0
 26 27  1  0  0  0  0
 28 29  1  0  0  0  0
 30 32  1  0  0  0  0
 32 35  1  0  0  0  0
 32 31  1  1  0  0  0
 33 35  2  0  0  0  0
 35 34  1  0  0  0  0
M  END
>  <MODEL>
2

>  <REMARK>
 VINA RESULT:      -6.8      2.411      5.174
  Name = 
  15 active torsions:
  status: ('A' for Active; 'I' for Inactive)
    1  A    between atoms: N_1  and  C_34
    2  A    between atoms: N_2  and  C_3
    3  A    between atoms: C_3  and  C_17
    4  A    between atoms: N_6  and  C_19
    5  A    between atoms: C_8  and  C_24
    6  A    between atoms: C_8  and  N_25
    7  A    between atoms: C_13  and  O_31
    8  A    between atoms: O_16  and  C_19
    9  A    between atoms: C_19  and  C_21
   10  A    between atoms: C_20  and  C_35
   11  A    between atoms: C_21  and  C_22
   12  A    between atoms: C_24  and  C_30
   13  A    between atoms: N_25  and  N_26
   14  A    between atoms: N_25  and  C_27
   15  A    between atoms: C_32  and  C_34
                            x       y       z     vdW  Elec       q    Type
                         _______ _______ _______ _____ _____    ______ ____

>  <TORSDO>
F 15

$$$$
=
 OpenBabel10232409433D

 35 36  0  0  1  0  0  0  0  0999 V2000
  190.2930  176.9130  140.6490 O   0  0  0  0  0  0  0  0  0  0  0  0
  189.4490  177.8970  140.2490 C   0  0  1  0  0  3  0  0  0  0  0  0
  189.2530  176.5340  139.8120 N   0  0  0  0  0  0  0  0  0  0  0  0
  188.4790  178.2110  141.3670 C   0  0  0  0  0  2  0  0  0  0  0  0
  187.3640  178.9790  140.8390 N   0  0  0  0  0  2  0  0  0  0  0  0
  185.1310  179.5720  140.7480 O   0  0  0  0  0  0  0  0  0  0  0  0
  186.0610  179.0690  141.4340 C   0  0  0  0  0  0  0  0  0  0  0  0
  185.6450  178.9210  145.8460 C   0  0  0  0  0  3  0  0  0  0  0  0
  186.3460  177.3450  143.3190 C   0  0  0  0  0  3  0  0  0  0  0  0
  184.9820  179.3520  143.5470 N   0  0  0  0  0  0  0  0  0  0  0  0
  184.5110  179.0100  144.8820 C   0  0  0  0  0  2  0  0  0  0  0  0
  185.7580  178.6080  142.8110 C   0  0  0  0  0  0  0  0  0  0  0  0
  186.6370  178.0420  145.7090 C   0  0  0  0  0  0  0  0  0  0  0  0
  186.7330  177.1000  144.5770 C   0  0  0  0  0  3  0  0  0  0  0  0
  187.6460  177.9360  146.7980 C   0  0  0  0  0  2  0  0  0  0  0  0
  188.8510  177.2950  146.2970 N   0  0  0  0  0  2  0  0  0  0  0  0
  190.0370  177.1930  147.0850 C   0  0  0  0  0  0  0  0  0  0  0  0
  190.0680  177.6740  148.2520 O   0  0  0  0  0  0  0  0  0  0  0  0
  192.0250  175.7700  147.3530 C   0  0  0  0  0  1  0  0  0  0  0  0
  191.1560  176.5550  146.5510 O   0  0  0  0  0  0  0  0  0  0  0  0
  189.7760  176.4270  138.5080 N   0  0  0  0  0  0  0  0  0  0  0  0
  192.0020  175.7810  137.8250 C   0  0  0  0  0  3  0  0  0  0  0  0
  191.1540  176.7170  138.2400 C   0  0  0  0  0  3  0  0  0  0  0  0
  193.4330  176.1100  137.5580 C   0  0  0  0  0  2  0  0  0  0  0  0
  194.3370  174.9310  137.8890 C   0  0  2  0  0  3  0  0  0  0  0  0
  196.0650  174.2390  139.0890 C   0  0  0  0  0  1  0  0  0  0  0  0
  195.0720  175.2190  139.0420 O   0  0  0  0  0  0  0  0  0  0  0  0
  195.2490  174.6840  136.7820 N   0  0  0  0  0  2  0  0  0  0  0  0
  194.4640  174.1140  135.7010 C   0  0  0  0  0  1  0  0  0  0  0  0
  188.8730  176.3450  137.3660 C   0  0  0  0  0  2  0  0  0  0  0  0
  188.5360  177.3030  135.1980 O   0  0  0  0  0  1  0  0  0  0  0  0
  189.0210  177.5720  136.4780 C   0  0  1  0  0  3  0  0  0  0  0  0
  188.9860  179.8630  137.4540 O   0  0  0  0  0  1  0  0  0  0  0  0
  187.0400  178.6700  137.2480 O   0  0  0  0  0  0  0  0  0  0  0  0
  188.2860  178.7270  137.0710 C   0  0  0  0  0  0  0  0  0  0  0  0
  2  1  1  0  0  0  0
  2  4  1  1  0  0  0
  3  2  1  0  0  0  0
  3  1  1  0  0  0  0
  5  4  1  0  0  0  0
  5  7  1  0  0  0  0
  6  7  2  0  0  0  0
  7 12  1  0  0  0  0
  9 14  2  0  0  0  0
 10 11  1  0  0  0  0
 11  8  1  0  0  0  0
 12  9  1  0  0  0  0
 12 10  2  0  0  0  0
 13  8  2  0  0  0  0
 13 15  1  0  0  0  0
 14 13  1  0  0  0  0
 16 15  1  0  0  0  0
 16 17  1  0  0  0  0
 17 18  2  0  0  0  0
 20 17  1  0  0  0  0
 20 19  1  0  0  0  0
 21  3  1  0  0  0  0
 22 23  2  0  0  0  0
 23 21  1  0  0  0  0
 24 22  1  0  0  0  0
 25 24  1  6  0  0  0
 25 27  1  0  0  0  0
 27 26  1  0  0  0  0
 28 25  1  0  0  0  0
 29 28  1  0  0  0  0
 30 21  1  0  0  0  0
 32 31  1  6  0  0  0
 32 35  1  0  0  0  0
 32 30  1  0  0  0  0
 35 34  2  0  0  0  0
 35 33  1  0  0  0  0
M  END
>  <MODEL>
3

>  <REMARK>
 VINA RESULT:      -6.7      2.728      9.111
  Name = 
  15 active torsions:
  status: ('A' for Active; 'I' for Inactive)
    1  A    between atoms: N_1  and  C_34
    2  A    between atoms: N_2  and  C_3
    3  A    between atoms: C_3  and  C_17
    4  A    between atoms: N_6  and  C_19
    5  A    between atoms: C_8  and  C_24
    6  A    between atoms: C_8  and  N_25
    7  A    between atoms: C_13  and  O_31
    8  A    between atoms: O_16  and  C_19
    9  A    between atoms: C_19  and  C_21
   10  A    between atoms: C_20  and  C_35
   11  A    between atoms: C_21  and  C_22
   12  A    between atoms: C_24  and  C_30
   13  A    between atoms: N_25  and  N_26
   14  A    between atoms: N_25  and  C_27
   15  A    between atoms: C_32  and  C_34
                            x       y       z     vdW  Elec       q    Type
                         _______ _______ _______ _____ _____    ______ ____

>  <TORSDO>
F 15

$$$$
=
 OpenBabel10232409433D

 35 36  0  0  1  0  0  0  0  0999 V2000
  191.5120  177.3520  142.3340 O   0  0  0  0  0  0  0  0  0  0  0  0
  190.4390  176.6210  141.9400 C   0  0  1  0  0  3  0  0  0  0  0  0
  190.2710  177.7840  142.7810 N   0  0  0  0  0  0  0  0  0  0  0  0
  190.0850  176.9780  140.5130 C   0  0  0  0  0  2  0  0  0  0  0  0
  190.7940  176.0940  139.6030 N   0  0  0  0  0  2  0  0  0  0  0  0
  190.9360  174.7590  137.7210 O   0  0  0  0  0  0  0  0  0  0  0  0
  190.3430  175.7090  138.2970 C   0  0  0  0  0  0  0  0  0  0  0  0
  186.9330  178.3830  137.3570 C   0  0  0  0  0  3  0  0  0  0  0  0
  188.0980  175.5720  137.0510 C   0  0  0  0  0  3  0  0  0  0  0  0
  189.2550  177.6740  137.4790 N   0  0  0  0  0  0  0  0  0  0  0  0
  188.2890  178.4800  136.7450 C   0  0  0  0  0  2  0  0  0  0  0  0
  189.2210  176.3770  137.5900 C   0  0  0  0  0  0  0  0  0  0  0  0
  186.2650  177.2340  137.4500 C   0  0  0  0  0  0  0  0  0  0  0  0
  186.8130  175.9410  136.9940 C   0  0  0  0  0  3  0  0  0  0  0  0
  184.8630  177.2670  137.9480 C   0  0  0  0  0  2  0  0  0  0  0  0
  184.5390  178.6010  138.4280 N   0  0  0  0  0  2  0  0  0  0  0  0
  183.2010  179.1000  138.4280 C   0  0  0  0  0  0  0  0  0  0  0  0
  182.2560  178.3850  137.9930 O   0  0  0  0  0  0  0  0  0  0  0  0
  181.8100  181.1260  138.5200 C   0  0  0  0  0  1  0  0  0  0  0  0
  182.9550  180.3840  138.9130 O   0  0  0  0  0  0  0  0  0  0  0  0
  190.1170  177.3300  144.1060 N   0  0  0  0  0  0  0  0  0  0  0  0
  187.7380  177.7180  144.2690 C   0  0  0  0  0  3  0  0  0  0  0  0
  188.8190  177.0400  144.6410 C   0  0  0  0  0  3  0  0  0  0  0  0
  186.3990  177.3970  144.8460 C   0  0  0  0  0  2  0  0  0  0  0  0
  185.5030  178.6290  144.8670 C   0  0  2  0  0  3  0  0  0  0  0  0
  185.8100  178.9520  147.0360 C   0  0  0  0  0  1  0  0  0  0  0  0
  184.8220  178.6850  146.0860 O   0  0  0  0  0  0  0  0  0  0  0  0
  184.5420  178.5570  143.7770 N   0  0  0  0  0  2  0  0  0  0  0  0
  183.3900  179.3480  144.1720 C   0  0  0  0  0  1  0  0  0  0  0  0
  191.2190  177.4600  145.0520 C   0  0  0  0  0  2  0  0  0  0  0  0
  192.2450  175.4970  145.9620 O   0  0  0  0  0  1  0  0  0  0  0  0
  191.1560  176.3590  146.1010 C   0  0  1  0  0  3  0  0  0  0  0  0
  189.9780  177.5100  147.9670 O   0  0  0  0  0  0  0  0  0  0  0  0
  192.1970  176.9740  148.1650 O   0  0  0  0  0  1  0  0  0  0  0  0
  191.1470  176.9530  147.4690 C   0  0  0  0  0  0  0  0  0  0  0  0
  1  3  1  0  0  0  0
  2  4  1  6  0  0  0
  2  1  1  0  0  0  0
  2  3  1  0  0  0  0
  3 21  1  0  0  0  0
  5  4  1  0  0  0  0
  6  7  2  0  0  0  0
  7  5  1  0  0  0  0
  8 13  2  0  0  0  0
  9 12  1  0  0  0  0
 10 12  2  0  0  0  0
 11  8  1  0  0  0  0
 11 10  1  0  0  0  0
 12  7  1  0  0  0  0
 13 15  1  0  0  0  0
 14  9  2  0  0  0  0
 14 13  1  0  0  0  0
 15 16  1  0  0  0  0
 16 17  1  0  0  0  0
 17 20  1  0  0  0  0
 18 17  2  0  0  0  0
 19 20  1  0  0  0  0
 21 23  1  0  0  0  0
 21 30  1  0  0  0  0
 22 23  2  0  0  0  0
 22 24  1  0  0  0  0
 25 24  1  1  0  0  0
 25 27  1  0  0  0  0
 27 26  1  0  0  0  0
 28 29  1  0  0  0  0
 28 25  1  0  0  0  0
 30 32  1  0  0  0  0
 32 31  1  1  0  0  0
 32 35  1  0  0  0  0
 35 33  2  0  0  0  0
 35 34  1  0  0  0  0
M  END
>  <MODEL>
4

>  <REMARK>
 VINA RESULT:      -6.5      1.562      1.835
  Name = 
  15 active torsions:
  status: ('A' for Active; 'I' for Inactive)
    1  A    between atoms: N_1  and  C_34
    2  A    between atoms: N_2  and  C_3
    3  A    between atoms: C_3  and  C_17
    4  A    between atoms: N_6  and  C_19
    5  A    between atoms: C_8  and  C_24
    6  A    between atoms: C_8  and  N_25
    7  A    between atoms: C_13  and  O_31
    8  A    between atoms: O_16  and  C_19
    9  A    between atoms: C_19  and  C_21
   10  A    between atoms: C_20  and  C_35
   11  A    between atoms: C_21  and  C_22
   12  A    between atoms: C_24  and  C_30
   13  A    between atoms: N_25  and  N_26
   14  A    between atoms: N_25  and  C_27
   15  A    between atoms: C_32  and  C_34
                            x       y       z     vdW  Elec       q    Type
                         _______ _______ _______ _____ _____    ______ ____

>  <TORSDO>
F 15

$$$$
=
 OpenBabel10232409433D

 35 36  0  0  1  0  0  0  0  0999 V2000
  183.7950  179.3310  140.9770 O   0  0  0  0  0  0  0  0  0  0  0  0
  184.9130  178.6700  141.3680 C   0  0  1  0  0  3  0  0  0  0  0  0
  184.9080  179.4610  140.1590 N   0  0  0  0  0  0  0  0  0  0  0  0
  185.5950  179.4460  142.4740 C   0  0  0  0  0  2  0  0  0  0  0  0
  184.6620  179.6490  143.5690 N   0  0  0  0  0  2  0  0  0  0  0  0
  183.7170  179.0810  145.6010 O   0  0  0  0  0  0  0  0  0  0  0  0
  184.7180  178.9890  144.8410 C   0  0  0  0  0  0  0  0  0  0  0  0
  188.7420  177.9150  146.3620 C   0  0  0  0  0  3  0  0  0  0  0  0
  186.4840  177.1650  144.4400 C   0  0  0  0  0  3  0  0  0  0  0  0
  186.3830  178.4920  146.4810 N   0  0  0  0  0  0  0  0  0  0  0  0
  187.4720  177.7740  147.1300 C   0  0  0  0  0  2  0  0  0  0  0  0
  185.8930  178.2120  145.3080 C   0  0  0  0  0  0  0  0  0  0  0  0
  188.8790  177.4780  145.1110 C   0  0  0  0  0  0  0  0  0  0  0  0
  187.7820  176.8480  144.3500 C   0  0  0  0  0  3  0  0  0  0  0  0
  190.2260  177.5390  144.4820 C   0  0  0  0  0  2  0  0  0  0  0  0
  190.0940  177.6460  143.0370 N   0  0  0  0  0  2  0  0  0  0  0  0
  190.2470  176.5170  142.1780 C   0  0  0  0  0  0  0  0  0  0  0  0
  190.5150  175.3810  142.6620 O   0  0  0  0  0  0  0  0  0  0  0  0
  191.1580  177.1500  139.9830 C   0  0  0  0  0  1  0  0  0  0  0  0
  190.0960  176.6840  140.8020 O   0  0  0  0  0  0  0  0  0  0  0  0
  184.7410  178.5770  139.0740 N   0  0  0  0  0  0  0  0  0  0  0  0
  187.0120  178.0070  138.4740 C   0  0  0  0  0  3  0  0  0  0  0  0
  185.7880  178.3810  138.1140 C   0  0  0  0  0  3  0  0  0  0  0  0
  188.0830  177.8160  137.4530 C   0  0  0  0  0  2  0  0  0  0  0  0
  187.8240  176.5720  136.6130 C   0  0  2  0  0  3  0  0  0  0  0  0
  186.6240  174.7140  136.7130 C   0  0  0  0  0  1  0  0  0  0  0  0
  187.5040  175.5030  137.4550 O   0  0  0  0  0  0  0  0  0  0  0  0
  189.0120  176.2430  135.8410 N   0  0  0  0  0  2  0  0  0  0  0  0
  189.3120  177.3960  135.0090 C   0  0  0  0  0  1  0  0  0  0  0  0
  183.4090  178.1030  138.7210 C   0  0  0  0  0  2  0  0  0  0  0  0
  182.6460  176.0080  139.5920 O   0  0  0  0  0  1  0  0  0  0  0  0
  183.4020  176.5880  138.5740 C   0  0  1  0  0  3  0  0  0  0  0  0
  182.8460  174.8690  136.8600 O   0  0  0  0  0  1  0  0  0  0  0  0
  182.4050  177.0820  136.4560 O   0  0  0  0  0  0  0  0  0  0  0  0
  182.8480  176.2030  137.2430 C   0  0  0  0  0  0  0  0  0  0  0  0
  1  2  1  0  0  0  0
  2  4  1  1  0  0  0
  3  1  1  0  0  0  0
  3  2  1  0  0  0  0
  4  5  1  0  0  0  0
  5  7  1  0  0  0  0
  7 12  1  0  0  0  0
  7  6  2  0  0  0  0
  8 11  1  0  0  0  0
  9 12  1  0  0  0  0
 10 11  1  0  0  0  0
 12 10  2  0  0  0  0
 13  8  2  0  0  0  0
 14  9  2  0  0  0  0
 14 13  1  0  0  0  0
 15 13  1  0  0  0  0
 16 15  1  0  0  0  0
 17 18  2  0  0  0  0
 17 16  1  0  0  0  0
 19 20  1  0  0  0  0
 20 17  1  0  0  0  0
 21  3  1  0  0  0  0
 23 22  2  0  0  0  0
 23 21  1  0  0  0  0
 24 22  1  0  0  0  0
 25 24  1  1  0  0  0
 25 27  1  0  0  0  0
 26 27  1  0  0  0  0
 28 25  1  0  0  0  0
 29 28  1  0  0  0  0
 30 21  1  0  0  0  0
 32 30  1  0  0  0  0
 32 31  1  1  0  0  0
 33 35  1  0  0  0  0
 34 35  2  0  0  0  0
 35 32  1  0  0  0  0
M  END
>  <MODEL>
5

>  <REMARK>
 VINA RESULT:      -6.5      2.211      9.456
  Name = 
  15 active torsions:
  status: ('A' for Active; 'I' for Inactive)
    1  A    between atoms: N_1  and  C_34
    2  A    between atoms: N_2  and  C_3
    3  A    between atoms: C_3  and  C_17
    4  A    between atoms: N_6  and  C_19
    5  A    between atoms: C_8  and  C_24
    6  A    between atoms: C_8  and  N_25
    7  A    between atoms: C_13  and  O_31
    8  A    between atoms: O_16  and  C_19
    9  A    between atoms: C_19  and  C_21
   10  A    between atoms: C_20  and  C_35
   11  A    between atoms: C_21  and  C_22
   12  A    between atoms: C_24  and  C_30
   13  A    between atoms: N_25  and  N_26
   14  A    between atoms: N_25  and  C_27
   15  A    between atoms: C_32  and  C_34
                            x       y       z     vdW  Elec       q    Type
                         _______ _______ _______ _____ _____    ______ ____

>  <TORSDO>
F 15

$$$$
=
 OpenBabel10232409433D

 35 36  0  0  1  0  0  0  0  0999 V2000
  191.7730  177.4810  141.6100 O   0  0  0  0  0  0  0  0  0  0  0  0
  190.6640  176.8590  141.1360 C   0  0  1  0  0  3  0  0  0  0  0  0
  190.5560  177.9140  142.1180 N   0  0  0  0  0  0  0  0  0  0  0  0
  190.3260  177.4110  139.7670 C   0  0  0  0  0  2  0  0  0  0  0  0
  189.4120  176.5050  139.0920 N   0  0  0  0  0  2  0  0  0  0  0  0
  188.5900  175.4250  137.2210 O   0  0  0  0  0  0  0  0  0  0  0  0
  189.5710  176.0060  137.7570 C   0  0  0  0  0  0  0  0  0  0  0  0
  193.0430  175.0940  135.1540 C   0  0  0  0  0  3  0  0  0  0  0  0
  192.0780  176.5680  137.6550 C   0  0  0  0  0  3  0  0  0  0  0  0
  190.7980  175.8410  135.7130 N   0  0  0  0  0  0  0  0  0  0  0  0
  191.9120  175.9930  134.7860 C   0  0  0  0  0  2  0  0  0  0  0  0
  190.8300  176.1340  136.9810 C   0  0  0  0  0  0  0  0  0  0  0  0
  193.6850  175.1840  136.3180 C   0  0  0  0  0  0  0  0  0  0  0  0
  193.3190  176.1520  137.3710 C   0  0  0  0  0  3  0  0  0  0  0  0
  194.8900  174.3370  136.5310 C   0  0  0  0  0  2  0  0  0  0  0  0
  195.6050  174.7810  137.7170 N   0  0  0  0  0  2  0  0  0  0  0  0
  195.8050  173.9260  138.8440 C   0  0  0  0  0  0  0  0  0  0  0  0
  195.3490  172.7490  138.8370 O   0  0  0  0  0  0  0  0  0  0  0  0
  197.7710  175.0460  139.8080 C   0  0  0  0  0  1  0  0  0  0  0  0
  196.5090  174.4090  139.9460 O   0  0  0  0  0  0  0  0  0  0  0  0
  190.3820  177.3040  143.3760 N   0  0  0  0  0  0  0  0  0  0  0  0
  188.4510  177.8360  144.7280 C   0  0  0  0  0  3  0  0  0  0  0  0
  189.0720  177.0180  143.8830 C   0  0  0  0  0  3  0  0  0  0  0  0
  187.0880  177.5100  145.2430 C   0  0  0  0  0  2  0  0  0  0  0  0
  187.0180  177.6840  146.7540 C   0  0  2  0  0  3  0  0  0  0  0  0
  185.0930  178.5730  146.1170 C   0  0  0  0  0  1  0  0  0  0  0  0
  186.1120  178.7030  147.0620 O   0  0  0  0  0  0  0  0  0  0  0  0
  188.3330  178.0310  147.2710 N   0  0  0  0  0  2  0  0  0  0  0  0
  188.2430  177.9990  148.7210 C   0  0  0  0  0  1  0  0  0  0  0  0
  191.4920  177.2540  144.3200 C   0  0  0  0  0  2  0  0  0  0  0  0
  192.3490  175.0200  144.4000 O   0  0  0  0  0  1  0  0  0  0  0  0
  191.5100  175.9220  145.0550 C   0  0  1  0  0  3  0  0  0  0  0  0
  191.6260  177.2780  147.1400 O   0  0  0  0  0  1  0  0  0  0  0  0
  192.6830  175.2480  147.0270 O   0  0  0  0  0  0  0  0  0  0  0  0
  191.9680  176.1160  146.4610 C   0  0  0  0  0  0  0  0  0  0  0  0
  1  3  1  0  0  0  0
  2  4  1  6  0  0  0
  2  1  1  0  0  0  0
  2  3  1  0  0  0  0
  3 21  1  0  0  0  0
  5  4  1  0  0  0  0
  6  7  2  0  0  0  0
  7  5  1  0  0  0  0
  8 13  2  0  0  0  0
 10 12  2  0  0  0  0
 11  8  1  0  0  0  0
 11 10  1  0  0  0  0
 12  9  1  0  0  0  0
 12  7  1  0  0  0  0
 13 15  1  0  0  0  0
 13 14  1  0  0  0  0
 14  9  2  0  0  0  0
 15 16  1  0  0  0  0
 16 17  1  0  0  0  0
 17 20  1  0  0  0  0
 18 17  2  0  0  0  0
 19 20  1  0  0  0  0
 21 23  1  0  0  0  0
 21 30  1  0  0  0  0
 22 24  1  0  0  0  0
 23 22  2  0  0  0  0
 25 24  1  6  0  0  0
 25 27  1  0  0  0  0
 25 28  1  0  0  0  0
 26 27  1  0  0  0  0
 28 29  1  0  0  0  0
 30 32  1  0  0  0  0
 32 31  1  6  0  0  0
 32 35  1  0  0  0  0
 35 34  2  0  0  0  0
 35 33  1  0  0  0  0
M  END
>  <MODEL>
6

>  <REMARK>
 VINA RESULT:      -6.4      2.774      5.581
  Name = 
  15 active torsions:
  status: ('A' for Active; 'I' for Inactive)
    1  A    between atoms: N_1  and  C_34
    2  A    between atoms: N_2  and  C_3
    3  A    between atoms: C_3  and  C_17
    4  A    between atoms: N_6  and  C_19
    5  A    between atoms: C_8  and  C_24
    6  A    between atoms: C_8  and  N_25
    7  A    between atoms: C_13  and  O_31
    8  A    between atoms: O_16  and  C_19
    9  A    between atoms: C_19  and  C_21
   10  A    between atoms: C_20  and  C_35
   11  A    between atoms: C_21  and  C_22
   12  A    between atoms: C_24  and  C_30
   13  A    between atoms: N_25  and  N_26
   14  A    between atoms: N_25  and  C_27
   15  A    between atoms: C_32  and  C_34
                            x       y       z     vdW  Elec       q    Type
                         _______ _______ _______ _____ _____    ______ ____

>  <TORSDO>
F 15

$$$$
=
 OpenBabel10232409433D

 35 36  0  0  1  0  0  0  0  0999 V2000
  184.1310  179.6000  140.7850 O   0  0  0  0  0  0  0  0  0  0  0  0
  184.8620  178.5680  141.2770 C   0  0  1  0  0  3  0  0  0  0  0  0
  185.3120  179.3040  140.1180 N   0  0  0  0  0  0  0  0  0  0  0  0
  185.6280  179.0320  142.4960 C   0  0  0  0  0  2  0  0  0  0  0  0
  184.6930  179.3630  143.5580 N   0  0  0  0  0  2  0  0  0  0  0  0
  183.7620  179.0570  145.6520 O   0  0  0  0  0  0  0  0  0  0  0  0
  184.7630  178.8810  144.9070 C   0  0  0  0  0  0  0  0  0  0  0  0
  188.6670  178.1120  146.8640 C   0  0  0  0  0  3  0  0  0  0  0  0
  186.7610  177.2900  144.6170 C   0  0  0  0  0  3  0  0  0  0  0  0
  186.2610  178.4280  146.7130 N   0  0  0  0  0  0  0  0  0  0  0  0
  187.3370  177.7770  147.4480 C   0  0  0  0  0  2  0  0  0  0  0  0
  185.9530  178.1950  145.4700 C   0  0  0  0  0  0  0  0  0  0  0  0
  189.0050  177.7950  145.6140 C   0  0  0  0  0  0  0  0  0  0  0  0
  188.0880  177.1190  144.6750 C   0  0  0  0  0  3  0  0  0  0  0  0
  190.4030  178.0470  145.1710 C   0  0  0  0  0  2  0  0  0  0  0  0
  191.1330  176.7910  145.0980 N   0  0  0  0  0  2  0  0  0  0  0  0
  191.8240  176.2510  146.2240 C   0  0  0  0  0  0  0  0  0  0  0  0
  191.8240  176.8690  147.3260 O   0  0  0  0  0  0  0  0  0  0  0  0
  192.3200  174.2040  144.9540 C   0  0  0  0  0  1  0  0  0  0  0  0
  192.4950  175.0360  146.0920 O   0  0  0  0  0  0  0  0  0  0  0  0
  184.9760  178.5470  138.9780 N   0  0  0  0  0  0  0  0  0  0  0  0
  187.2720  178.0430  138.4170 C   0  0  0  0  0  3  0  0  0  0  0  0
  185.9890  178.0860  138.0730 C   0  0  0  0  0  3  0  0  0  0  0  0
  188.3050  177.5630  137.4530 C   0  0  0  0  0  2  0  0  0  0  0  0
  189.6430  177.3450  138.1480 C   0  0  2  0  0  3  0  0  0  0  0  0
  189.3920  175.4810  136.9790 C   0  0  0  0  0  1  0  0  0  0  0  0
  189.9400  175.9790  138.1620 O   0  0  0  0  0  0  0  0  0  0  0  0
  189.5750  177.8410  139.5140 N   0  0  0  0  0  2  0  0  0  0  0  0
  190.7740  177.3830  140.1940 C   0  0  0  0  0  1  0  0  0  0  0  0
  183.5940  178.4980  138.5190 C   0  0  0  0  0  2  0  0  0  0  0  0
  183.3070  176.1280  138.6940 O   0  0  0  0  0  1  0  0  0  0  0  0
  183.3180  177.1910  137.7900 C   0  0  1  0  0  3  0  0  0  0  0  0
  181.7950  176.4780  135.9530 O   0  0  0  0  0  0  0  0  0  0  0  0
  181.1120  178.0580  137.4670 O   0  0  0  0  0  1  0  0  0  0  0  0
  182.0110  177.2670  137.0750 C   0  0  0  0  0  0  0  0  0  0  0  0
  1  2  1  0  0  0  0
  2  4  1  1  0  0  0
  3  1  1  0  0  0  0
  3  2  1  0  0  0  0
  4  5  1  0  0  0  0
  5  7  1  0  0  0  0
  7 12  1  0  0  0  0
  7  6  2  0  0  0  0
  8 11  1  0  0  0  0
  9 14  2  0  0  0  0
  9 12  1  0  0  0  0
 10 11  1  0  0  0  0
 12 10  2  0  0  0  0
 13  8  2  0  0  0  0
 14 13  1  0  0  0  0
 15 13  1  0  0  0  0
 16 15  1  0  0  0  0
 16 17  1  0  0  0  0
 17 18  2  0  0  0  0
 19 20  1  0  0  0  0
 20 17  1  0  0  0  0
 21  3  1  0  0  0  0
 23 22  2  0  0  0  0
 23 21  1  0  0  0  0
 24 22  1  0  0  0  0
 25 24  1  1  0  0  0
 25 27  1  0  0  0  0
 25 28  1  0  0  0  0
 26 27  1  0  0  0  0
 28 29  1  0  0  0  0
 30 21  1  0  0  0  0
 32 30  1  0  0  0  0
 32 31  1  1  0  0  0
 33 35  2  0  0  0  0
 35 34  1  0  0  0  0
 35 32  1  0  0  0  0
M  END
>  <MODEL>
7

>  <REMARK>
 VINA RESULT:      -6.3      2.007      9.736
  Name = 
  15 active torsions:
  status: ('A' for Active; 'I' for Inactive)
    1  A    between atoms: N_1  and  C_34
    2  A    between atoms: N_2  and  C_3
    3  A    between atoms: C_3  and  C_17
    4  A    between atoms: N_6  and  C_19
    5  A    between atoms: C_8  and  C_24
    6  A    between atoms: C_8  and  N_25
    7  A    between atoms: C_13  and  O_31
    8  A    between atoms: O_16  and  C_19
    9  A    between atoms: C_19  and  C_21
   10  A    between atoms: C_20  and  C_35
   11  A    between atoms: C_21  and  C_22
   12  A    between atoms: C_24  and  C_30
   13  A    between atoms: N_25  and  N_26
   14  A    between atoms: N_25  and  C_27
   15  A    between atoms: C_32  and  C_34
                            x       y       z     vdW  Elec       q    Type
                         _______ _______ _______ _____ _____    ______ ____

>  <TORSDO>
F 15

$$$$
=
 OpenBabel10232409433D

 35 36  0  0  1  0  0  0  0  0999 V2000
  183.7840  179.2350  141.1370 O   0  0  0  0  0  0  0  0  0  0  0  0
  184.9620  178.6620  141.4890 C   0  0  1  0  0  3  0  0  0  0  0  0
  184.8530  179.4380  140.2760 N   0  0  0  0  0  0  0  0  0  0  0  0
  185.6250  179.4970  142.5630 C   0  0  0  0  0  2  0  0  0  0  0  0
  184.6910  179.7130  143.6550 N   0  0  0  0  0  2  0  0  0  0  0  0
  183.7320  179.1600  145.6840 O   0  0  0  0  0  0  0  0  0  0  0  0
  184.7340  179.0540  144.9280 C   0  0  0  0  0  0  0  0  0  0  0  0
  188.7430  177.9310  146.4550 C   0  0  0  0  0  3  0  0  0  0  0  0
  186.4730  177.2010  144.5390 C   0  0  0  0  0  3  0  0  0  0  0  0
  186.3930  178.5440  146.5710 N   0  0  0  0  0  0  0  0  0  0  0  0
  187.4710  177.8140  147.2240 C   0  0  0  0  0  2  0  0  0  0  0  0
  185.8980  178.2630  145.4000 C   0  0  0  0  0  0  0  0  0  0  0  0
  188.8730  177.4840  145.2060 C   0  0  0  0  0  0  0  0  0  0  0  0
  187.7660  176.8650  144.4500 C   0  0  0  0  0  3  0  0  0  0  0  0
  190.2210  177.5200  144.5760 C   0  0  0  0  0  2  0  0  0  0  0  0
  190.0910  177.7200  143.1420 N   0  0  0  0  0  2  0  0  0  0  0  0
  190.2340  176.6450  142.2130 C   0  0  0  0  0  0  0  0  0  0  0  0
  190.4900  175.4790  142.6250 O   0  0  0  0  0  0  0  0  0  0  0  0
  188.9810  177.6300  140.3410 C   0  0  0  0  0  1  0  0  0  0  0  0
  190.0870  176.9000  140.8500 O   0  0  0  0  0  0  0  0  0  0  0  0
  184.7120  178.5330  139.2050 N   0  0  0  0  0  0  0  0  0  0  0  0
  186.0980  177.2480  137.7000 C   0  0  0  0  0  3  0  0  0  0  0  0
  185.7220  178.4230  138.1930 C   0  0  0  0  0  3  0  0  0  0  0  0
  187.1560  177.1630  136.6510 C   0  0  0  0  0  2  0  0  0  0  0  0
  188.1790  176.0870  136.9900 C   0  0  2  0  0  3  0  0  0  0  0  0
  189.3880  177.7990  136.2790 C   0  0  0  0  0  1  0  0  0  0  0  0
  189.4460  176.6680  137.0930 O   0  0  0  0  0  0  0  0  0  0  0  0
  188.1930  175.0740  135.9460 N   0  0  0  0  0  2  0  0  0  0  0  0
  188.3280  173.7850  136.6030 C   0  0  0  0  0  1  0  0  0  0  0  0
  183.4110  177.9390  138.9220 C   0  0  0  0  0  2  0  0  0  0  0  0
  182.3090  177.9030  136.7960 O   0  0  0  0  0  1  0  0  0  0  0  0
  182.6800  178.7370  137.8520 C   0  0  1  0  0  3  0  0  0  0  0  0
  181.5360  180.7170  138.8370 O   0  0  0  0  0  1  0  0  0  0  0  0
  180.4030  178.7410  138.5850 O   0  0  0  0  0  0  0  0  0  0  0  0
  181.4720  179.3900  138.4340 C   0  0  0  0  0  0  0  0  0  0  0  0
  1  2  1  0  0  0  0
  2  4  1  1  0  0  0
  3  1  1  0  0  0  0
  3  2  1  0  0  0  0
  4  5  1  0  0  0  0
  5  7  1  0  0  0  0
  7 12  1  0  0  0  0
  7  6  2  0  0  0  0
  8 11  1  0  0  0  0
  9 12  1  0  0  0  0
 10 11  1  0  0  0  0
 12 10  2  0  0  0  0
 13  8  2  0  0  0  0
 14  9  2  0  0  0  0
 14 13  1  0  0  0  0
 15 13  1  0  0  0  0
 16 15  1  0  0  0  0
 17 18  2  0  0  0  0
 17 16  1  0  0  0  0
 19 20  1  0  0  0  0
 20 17  1  0  0  0  0
 21  3  1  0  0  0  0
 22 23  2  0  0  0  0
 23 21  1  0  0  0  0
 24 22  1  0  0  0  0
 25 24  1  6  0  0  0
 25 27  1  0  0  0  0
 26 27  1  0  0  0  0
 28 29  1  0  0  0  0
 28 25  1  0  0  0  0
 30 21  1  0  0  0  0
 32 31  1  6  0  0  0
 32 35  1  0  0  0  0
 32 30  1  0  0  0  0
 35 34  2  0  0  0  0
 35 33  1  0  0  0  0
M  END
>  <MODEL>
8

>  <REMARK>
 VINA RESULT:      -6.3      2.198      9.597
  Name = 
  15 active torsions:
  status: ('A' for Active; 'I' for Inactive)
    1  A    between atoms: N_1  and  C_34
    2  A    between atoms: N_2  and  C_3
    3  A    between atoms: C_3  and  C_17
    4  A    between atoms: N_6  and  C_19
    5  A    between atoms: C_8  and  C_24
    6  A    between atoms: C_8  and  N_25
    7  A    between atoms: C_13  and  O_31
    8  A    between atoms: O_16  and  C_19
    9  A    between atoms: C_19  and  C_21
   10  A    between atoms: C_20  and  C_35
   11  A    between atoms: C_21  and  C_22
   12  A    between atoms: C_24  and  C_30
   13  A    between atoms: N_25  and  N_26
   14  A    between atoms: N_25  and  C_27
   15  A    between atoms: C_32  and  C_34
                            x       y       z     vdW  Elec       q    Type
                         _______ _______ _______ _____ _____    ______ ____

>  <TORSDO>
F 15

$$$$
=
 OpenBabel10232409433D

 35 36  0  0  1  0  0  0  0  0999 V2000
  189.9800  178.0330  139.9950 O   0  0  0  0  0  0  0  0  0  0  0  0
  188.7010  178.4020  139.7340 C   0  0  1  0  0  3  0  0  0  0  0  0
  189.1550  177.0610  139.4460 N   0  0  0  0  0  0  0  0  0  0  0  0
  187.9050  178.3990  141.0210 C   0  0  0  0  0  2  0  0  0  0  0  0
  186.6520  179.1060  140.8170 N   0  0  0  0  0  2  0  0  0  0  0  0
  184.4310  179.5390  141.2900 O   0  0  0  0  0  0  0  0  0  0  0  0
  185.5270  179.0770  141.7060 C   0  0  0  0  0  0  0  0  0  0  0  0
  186.2160  178.7070  146.0710 C   0  0  0  0  0  3  0  0  0  0  0  0
  186.3360  177.2870  143.3640 C   0  0  0  0  0  3  0  0  0  0  0  0
  184.9900  179.2060  144.0310 N   0  0  0  0  0  0  0  0  0  0  0  0
  184.8770  178.7800  145.4200 C   0  0  0  0  0  2  0  0  0  0  0  0
  185.5900  178.5380  143.0880 C   0  0  0  0  0  0  0  0  0  0  0  0
  187.1790  177.8890  145.6470 C   0  0  0  0  0  0  0  0  0  0  0  0
  187.0310  177.0050  144.4730 C   0  0  0  0  0  3  0  0  0  0  0  0
  188.4290  177.7880  146.4490 C   0  0  0  0  0  2  0  0  0  0  0  0
  189.4070  176.9770  145.7420 N   0  0  0  0  0  2  0  0  0  0  0  0
  190.3370  177.5460  144.8210 C   0  0  0  0  0  0  0  0  0  0  0  0
  190.3240  178.7870  144.5890 O   0  0  0  0  0  0  0  0  0  0  0  0
  191.6230  176.9040  142.8250 C   0  0  0  0  0  1  0  0  0  0  0  0
  191.2590  176.7150  144.1840 O   0  0  0  0  0  0  0  0  0  0  0  0
  189.4370  176.9950  138.0670 N   0  0  0  0  0  0  0  0  0  0  0  0
  187.5140  175.7250  137.3390 C   0  0  0  0  0  3  0  0  0  0  0  0
  188.4090  176.6840  137.1180 C   0  0  0  0  0  3  0  0  0  0  0  0
  186.4580  175.4190  136.3300 C   0  0  0  0  0  2  0  0  0  0  0  0
  186.1410  173.9300  136.3040 C   0  0  2  0  0  3  0  0  0  0  0  0
  184.7320  172.5950  137.3690 C   0  0  0  0  0  1  0  0  0  0  0  0
  185.7590  173.5140  137.5830 O   0  0  0  0  0  0  0  0  0  0  0  0
  187.3160  173.1840  135.8820 N   0  0  0  0  0  2  0  0  0  0  0  0
  187.4530  173.3790  134.4490 C   0  0  0  0  0  1  0  0  0  0  0  0
  190.8190  176.9150  137.6110 C   0  0  0  0  0  2  0  0  0  0  0  0
  191.5380  174.6800  138.0790 O   0  0  0  0  0  1  0  0  0  0  0  0
  191.6290  176.0010  138.5180 C   0  0  1  0  0  3  0  0  0  0  0  0
  193.5000  177.2870  139.5420 O   0  0  0  0  0  1  0  0  0  0  0  0
  193.8560  176.0510  137.6450 O   0  0  0  0  0  0  0  0  0  0  0  0
  193.0570  176.4340  138.5400 C   0  0  0  0  0  0  0  0  0  0  0  0
  2  1  1  0  0  0  0
  2  4  1  1  0  0  0
  3  2  1  0  0  0  0
  3  1  1  0  0  0  0
  5  4  1  0  0  0  0
  5  7  1  0  0  0  0
  6  7  2  0  0  0  0
  7 12  1  0  0  0  0
  9 14  2  0  0  0  0
 10 11  1  0  0  0  0
 11  8  1  0  0  0  0
 12  9  1  0  0  0  0
 12 10  2  0  0  0  0
 13  8  2  0  0  0  0
 13 15  1  0  0  0  0
 14 13  1  0  0  0  0
 16 15  1  0  0  0  0
 17 16  1  0  0  0  0
 18 17  2  0  0  0  0
 19 20  1  0  0  0  0
 20 17  1  0  0  0  0
 21  3  1  0  0  0  0
 23 22  2  0  0  0  0
 23 21  1  0  0  0  0
 24 22  1  0  0  0  0
 25 24  1  1  0  0  0
 25 27  1  0  0  0  0
 26 27  1  0  0  0  0
 28 25  1  0  0  0  0
 29 28  1  0  0  0  0
 30 21  1  0  0  0  0
 30 32  1  0  0  0  0
 32 31  1  6  0  0  0
 32 35  1  0  0  0  0
 34 35  2  0  0  0  0
 35 33  1  0  0  0  0
M  END
>  <MODEL>
9

>  <REMARK>
 VINA RESULT:      -6.3      2.376      8.326
  Name = 
  15 active torsions:
  status: ('A' for Active; 'I' for Inactive)
    1  A    between atoms: N_1  and  C_34
    2  A    between atoms: N_2  and  C_3
    3  A    between atoms: C_3  and  C_17
    4  A    between atoms: N_6  and  C_19
    5  A    between atoms: C_8  and  C_24
    6  A    between atoms: C_8  and  N_25
    7  A    between atoms: C_13  and  O_31
    8  A    between atoms: O_16  and  C_19
    9  A    between atoms: C_19  and  C_21
   10  A    between atoms: C_20  and  C_35
   11  A    between atoms: C_21  and  C_22
   12  A    between atoms: C_24  and  C_30
   13  A    between atoms: N_25  and  N_26
   14  A    between atoms: N_25  and  C_27
   15  A    between atoms: C_32  and  C_34
                            x       y       z     vdW  Elec       q    Type
                         _______ _______ _______ _____ _____    ______ ____

>  <TORSDO>
F 15

$$$$
