=
 OpenBabel10232409223D

 52 56  0  0  1  0  0  0  0  0999 V2000
  188.7970  175.3820  136.8290 C   0  0  0  0  0  3  0  0  0  0  0  0
  187.5870  175.0010  136.4470 C   0  0  0  0  0  3  0  0  0  0  0  0
  183.1210  172.0750  136.9560 C   0  0  0  0  0  1  0  0  0  0  0  0
  183.6580  176.8430  137.8470 C   0  0  0  0  0  3  0  0  0  0  0  0
  185.2090  174.9560  137.1810 C   0  0  0  0  0  0  0  0  0  0  0  0
  186.4400  175.6490  136.9850 N   0  0  0  0  0  2  0  0  0  0  0  0
  181.7520  174.7310  137.7550 C   0  0  0  0  0  3  0  0  0  0  0  0
  185.0180  173.6360  136.9370 N   0  0  0  0  0  0  0  0  0  0  0  0
  183.1040  174.5210  137.4870 C   0  0  0  0  0  0  0  0  0  0  0  0
  182.2980  177.0970  138.1200 C   0  0  0  0  0  0  0  0  0  0  0  0
  183.7300  173.3820  137.1370 N   0  0  0  0  0  0  0  0  0  0  0  0
  181.3530  176.0430  138.0780 C   0  0  0  0  0  3  0  0  0  0  0  0
  184.0130  175.5370  137.5320 C   0  0  0  0  0  0  0  0  0  0  0  0
  181.8450  178.4710  138.4900 C   0  0  0  0  0  2  0  0  0  0  0  0
  181.0420  178.4400  139.7070 N   0  0  0  0  0  2  0  0  0  0  0  0
  184.7330  178.8690  144.5780 C   0  0  0  0  0  0  0  0  0  0  0  0
  185.1560  179.0760  146.9270 N   0  0  0  0  0  1  0  0  0  0  0  0
  185.5990  178.9350  145.5800 C   0  0  0  0  0  3  0  0  0  0  0  0
  183.5120  178.6670  142.4720 C   0  0  0  0  0  0  0  0  0  0  0  0
  182.6840  178.8290  143.5690 C   0  0  0  0  0  0  0  0  0  0  0  0
  181.2970  178.8690  143.4300 C   0  0  0  0  0  3  0  0  0  0  0  0
  181.5860  178.5720  141.0230 C   0  0  0  0  0  0  0  0  0  0  0  0
  183.3550  178.9400  144.7710 O   0  0  0  0  0  0  0  0  0  0  0  0
  182.9790  178.5330  141.1910 C   0  0  0  0  0  3  0  0  0  0  0  0
  185.2570  178.6730  142.8660 S   0  0  0  0  0  0  0  0  0  0  0  0
  180.7480  178.7400  142.1460 C   0  0  0  0  0  3  0  0  0  0  0  0
  190.2560  174.6160  136.1360 S   0  0  0  0  0  0  0  0  0  0  0  0
  191.2760  175.0740  137.5860 C   0  0  1  0  0  3  0  0  0  0  0  0
  193.6120  176.1260  137.2540 C   0  0  0  0  0  1  0  0  0  0  0  0
  192.7980  174.8510  137.4280 C   0  0  2  0  0  3  0  0  0  0  0  0
  193.8720  174.5170  135.1380 C   0  0  0  0  0  1  0  0  0  0  0  0
  193.1500  173.8620  136.3040 C   0  0  1  0  0  3  0  0  0  0  0  0
  193.8180  172.5610  136.7660 C   0  0  0  0  0  2  0  0  0  0  0  0
  193.5990  171.4030  135.8060 C   0  0  0  0  0  2  0  0  0  0  0  0
  192.2970  171.4510  135.3080 O   0  0  0  0  0  1  0  0  0  0  0  0
  190.9740  176.5110  138.0010 C   0  0  0  0  0  2  0  0  0  0  0  0
  190.4750  176.5550  139.3690 N   0  0  0  0  0  2  0  0  0  0  0  0
  188.9850  178.3080  138.9590 O   0  0  0  0  0  0  0  0  0  0  0  0
  189.4440  177.4600  139.7720 C   0  0  0  0  0  0  0  0  0  0  0  0
  188.8950  177.4040  141.1560 C   0  0  2  0  0  3  0  0  0  0  0  0
  188.7590  178.6970  141.6650 O   0  0  0  0  0  1  0  0  0  0  0  0
  189.8210  176.5890  142.0470 C   0  0  0  0  0  2  0  0  0  0  0  0
  188.4790  176.9910  145.4190 O   0  0  0  0  0  1  0  0  0  0  0  0
  188.5360  176.7260  144.1890 C   0  0  0  0  0  0  0  0  0  0  0  0
  189.7230  177.0280  143.4340 N   0  0  0  0  0  0  0  0  0  0  0  0
  187.4420  176.1320  143.5670 O   0  0  0  0  0  0  0  0  0  0  0  0
  190.9310  177.5110  144.1020 C   0  0  0  0  0  0  0  0  0  0  0  0
  191.8560  178.3360  143.2290 C   0  0  0  0  0  2  0  0  0  0  0  0
  191.0130  179.0090  144.3050 C   0  0  0  0  0  2  0  0  0  0  0  0
  191.5890  176.6280  145.1150 C   0  0  0  0  0  0  0  0  0  0  0  0
  191.8480  177.0580  146.2260 O   0  0  0  0  0  0  0  0  0  0  0  0
  191.9870  175.2390  144.7580 C   0  0  0  0  0  1  0  0  0  0  0  0
  2  1  2  0  0  0  0
  2  6  1  0  0  0  0
  3 11  1  0  0  0  0
  4 10  1  0  0  0  0
  5 13  1  0  0  0  0
  6  5  1  0  0  0  0
  7 12  1  0  0  0  0
  8 11  1  0  0  0  0
  8  5  2  0  0  0  0
  9 13  1  0  0  0  0
  9  7  2  0  0  0  0
 10 14  1  0  0  0  0
 11  9  1  0  0  0  0
 12 10  2  0  0  0  0
 13  4  2  0  0  0  0
 14 15  1  0  0  0  0
 15 22  1  0  0  0  0
 16 23  1  0  0  0  0
 16 18  2  0  0  0  0
 18 17  1  0  0  0  0
 19 25  1  0  0  0  0
 19 20  1  0  0  0  0
 20 23  1  0  0  0  0
 21 20  2  0  0  0  0
 22 24  1  0  0  0  0
 22 26  2  0  0  0  0
 24 19  2  0  0  0  0
 25 16  1  0  0  0  0
 26 21  1  0  0  0  0
 27  1  1  0  0  0  0
 27 28  1  0  0  0  0
 28 36  1  6  0  0  0
 30 29  1  6  0  0  0
 30 28  1  0  0  0  0
 32 31  1  6  0  0  0
 32 33  1  0  0  0  0
 32 30  1  0  0  0  0
 34 33  1  0  0  0  0
 35 34  1  0  0  0  0
 36 37  1  0  0  0  0
 37 39  1  0  0  0  0
 38 39  2  0  0  0  0
 39 40  1  0  0  0  0
 40 41  1  1  0  0  0
 40 42  1  0  0  0  0
 42 45  1  0  0  0  0
 44 43  1  0  0  0  0
 45 47  1  0  0  0  0
 45 44  1  0  0  0  0
 46 44  2  0  0  0  0
 47 49  1  0  0  0  0
 47 50  1  0  0  0  0
 48 47  1  0  0  0  0
 48 49  1  0  0  0  0
 50 51  2  0  0  0  0
 52 50  1  0  0  0  0
M  END
>  <MODEL>
1

>  <REMARK>
 VINA RESULT:      -7.6      0.000      0.000
  Name = 
  17 active torsions:
  status: ('A' for Active; 'I' for Inactive)
    1  A    between atoms: C_1  and  C_3
    2  A    between atoms: C_1  and  C_12
    3  A    between atoms: C_1  and  S_40
    4  A    between atoms: C_2  and  C_10
    5  A    between atoms: C_2  and  N_37
    6  A    between atoms: C_3  and  N_4
    7  A    between atoms: C_5  and  S_40
    8  A    between atoms: C_7  and  C_16
    9  A    between atoms: C_9  and  N_20
   10  A    between atoms: C_9  and  C_34
   11  A    between atoms: C_12  and  C_49
   12  A    between atoms: C_13  and  C_27
   13  A    between atoms: C_13  and  C_36
   14  A    between atoms: C_16  and  C_49
   15  A    between atoms: N_18  and  C_19
   16  A    between atoms: N_20  and  C_39
   17  A    between atoms: C_27  and  N_37
                            x       y       z     vdW  Elec       q    Type
                         _______ _______ _______ _____ _____    ______ ____

>  <TORSDO>
F 17

$$$$
=
 OpenBabel10232409223D

 52 56  0  0  1  0  0  0  0  0999 V2000
  189.1620  177.5460  140.7960 C   0  0  0  0  0  3  0  0  0  0  0  0
  189.5180  177.9060  139.5720 C   0  0  0  0  0  3  0  0  0  0  0  0
  186.0200  175.1090  136.6220 C   0  0  0  0  0  1  0  0  0  0  0  0
  190.8600  174.5120  136.8370 C   0  0  0  0  0  3  0  0  0  0  0  0
  189.2070  176.1520  137.8330 C   0  0  0  0  0  0  0  0  0  0  0  0
  190.0490  176.9340  138.6770 N   0  0  0  0  0  2  0  0  0  0  0  0
  188.4680  173.4510  135.7130 C   0  0  0  0  0  3  0  0  0  0  0  0
  187.8600  176.2820  137.7520 N   0  0  0  0  0  0  0  0  0  0  0  0
  188.4650  174.5790  136.5330 C   0  0  0  0  0  0  0  0  0  0  0  0
  190.9040  173.3670  136.0160 C   0  0  0  0  0  0  0  0  0  0  0  0
  187.4210  175.3200  136.9470 N   0  0  0  0  0  0  0  0  0  0  0  0
  189.7140  172.8450  135.4540 C   0  0  0  0  0  3  0  0  0  0  0  0
  189.6140  175.0830  137.0700 C   0  0  0  0  0  0  0  0  0  0  0  0
  192.2090  172.7140  135.7000 C   0  0  0  0  0  2  0  0  0  0  0  0
  193.1390  173.6720  135.1130 N   0  0  0  0  0  2  0  0  0  0  0  0
  197.9270  174.7960  138.7660 C   0  0  0  0  0  0  0  0  0  0  0  0
  200.2310  175.3120  139.1710 N   0  0  0  0  0  1  0  0  0  0  0  0
  198.9060  175.0510  139.6230 C   0  0  0  0  0  3  0  0  0  0  0  0
  195.8530  174.3330  137.5610 C   0  0  0  0  0  0  0  0  0  0  0  0
  196.9450  174.4920  136.7260 C   0  0  0  0  0  0  0  0  0  0  0  0
  196.8200  174.3850  135.3410 C   0  0  0  0  0  3  0  0  0  0  0  0
  194.4350  173.9520  135.6470 C   0  0  0  0  0  0  0  0  0  0  0  0
  198.1270  174.7600  137.3880 O   0  0  0  0  0  0  0  0  0  0  0  0
  194.5890  174.0660  137.0380 C   0  0  0  0  0  3  0  0  0  0  0  0
  196.2370  174.4790  139.3020 S   0  0  0  0  0  0  0  0  0  0  0  0
  195.5550  174.1120  134.8020 C   0  0  0  0  0  3  0  0  0  0  0  0
  188.4510  178.7360  141.9260 S   0  0  0  0  0  0  0  0  0  0  0  0
  188.6910  177.6270  143.3620 C   0  0  1  0  0  3  0  0  0  0  0  0
  190.8560  178.9970  143.6920 C   0  0  0  0  0  1  0  0  0  0  0  0
  189.9030  177.9570  144.2650 C   0  0  2  0  0  3  0  0  0  0  0  0
  191.2320  175.9150  143.5050 C   0  0  0  0  0  1  0  0  0  0  0  0
  190.7000  176.7110  144.6860 C   0  0  1  0  0  3  0  0  0  0  0  0
  191.7580  176.9500  145.7710 C   0  0  0  0  0  2  0  0  0  0  0  0
  191.2160  176.7760  147.1810 C   0  0  0  0  0  2  0  0  0  0  0  0
  192.2250  176.2870  148.0110 O   0  0  0  0  0  1  0  0  0  0  0  0
  187.4050  177.5480  144.1790 C   0  0  0  0  0  2  0  0  0  0  0  0
  186.2700  178.0110  143.3940 N   0  0  0  0  0  2  0  0  0  0  0  0
  184.9360  178.4650  145.2580 O   0  0  0  0  0  0  0  0  0  0  0  0
  185.0710  178.4960  144.0050 C   0  0  0  0  0  0  0  0  0  0  0  0
  183.9730  179.0520  143.1660 C   0  0  2  0  0  3  0  0  0  0  0  0
  182.8930  179.4110  143.9750 O   0  0  0  0  0  1  0  0  0  0  0  0
  183.5330  178.0190  142.1390 C   0  0  0  0  0  2  0  0  0  0  0  0
  183.4840  179.7870  138.9450 O   0  0  0  0  0  0  0  0  0  0  0  0
  183.9050  179.3230  140.0370 C   0  0  0  0  0  0  0  0  0  0  0  0
  183.0020  178.6690  140.9460 N   0  0  0  0  0  0  0  0  0  0  0  0
  185.2540  179.4450  140.3550 O   0  0  0  0  0  1  0  0  0  0  0  0
  181.6170  178.4000  140.5600 C   0  0  0  0  0  0  0  0  0  0  0  0
  180.5980  178.5940  141.6650 C   0  0  0  0  0  2  0  0  0  0  0  0
  180.7000  179.6040  140.5300 C   0  0  0  0  0  2  0  0  0  0  0  0
  181.3470  177.2870  139.5970 C   0  0  0  0  0  0  0  0  0  0  0  0
  181.8840  176.2030  139.7480 O   0  0  0  0  0  0  0  0  0  0  0  0
  180.4700  177.5110  138.4160 C   0  0  0  0  0  1  0  0  0  0  0  0
  1 27  1  0  0  0  0
  2  1  2  0  0  0  0
  3 11  1  0  0  0  0
  4 13  1  0  0  0  0
  5  6  1  0  0  0  0
  6  2  1  0  0  0  0
  7  9  1  0  0  0  0
  8  5  2  0  0  0  0
  9 11  1  0  0  0  0
  9 13  2  0  0  0  0
 10  4  2  0  0  0  0
 11  8  1  0  0  0  0
 12  7  2  0  0  0  0
 12 10  1  0  0  0  0
 13  5  1  0  0  0  0
 14 10  1  0  0  0  0
 15 22  1  0  0  0  0
 15 14  1  0  0  0  0
 16 25  1  0  0  0  0
 16 18  2  0  0  0  0
 17 18  1  0  0  0  0
 19 25  1  0  0  0  0
 20 23  1  0  0  0  0
 20 19  2  0  0  0  0
 21 20  1  0  0  0  0
 22 24  2  0  0  0  0
 23 16  1  0  0  0  0
 24 19  1  0  0  0  0
 26 21  2  0  0  0  0
 26 22  1  0  0  0  0
 27 28  1  0  0  0  0
 28 36  1  1  0  0  0
 28 30  1  0  0  0  0
 30 29  1  6  0  0  0
 30 32  1  0  0  0  0
 32 31  1  6  0  0  0
 32 33  1  0  0  0  0
 33 34  1  0  0  0  0
 34 35  1  0  0  0  0
 37 39  1  0  0  0  0
 37 36  1  0  0  0  0
 39 38  2  0  0  0  0
 40 41  1  1  0  0  0
 40 39  1  0  0  0  0
 42 40  1  0  0  0  0
 43 44  2  0  0  0  0
 44 46  1  0  0  0  0
 44 45  1  0  0  0  0
 45 42  1  0  0  0  0
 47 45  1  0  0  0  0
 47 48  1  0  0  0  0
 49 47  1  0  0  0  0
 49 48  1  0  0  0  0
 50 51  2  0  0  0  0
 50 47  1  0  0  0  0
 52 50  1  0  0  0  0
M  END
>  <MODEL>
2

>  <REMARK>
 VINA RESULT:      -7.5      3.088     10.401
  Name = 
  17 active torsions:
  status: ('A' for Active; 'I' for Inactive)
    1  A    between atoms: C_1  and  C_3
    2  A    between atoms: C_1  and  C_12
    3  A    between atoms: C_1  and  S_40
    4  A    between atoms: C_2  and  C_10
    5  A    between atoms: C_2  and  N_37
    6  A    between atoms: C_3  and  N_4
    7  A    between atoms: C_5  and  S_40
    8  A    between atoms: C_7  and  C_16
    9  A    between atoms: C_9  and  N_20
   10  A    between atoms: C_9  and  C_34
   11  A    between atoms: C_12  and  C_49
   12  A    between atoms: C_13  and  C_27
   13  A    between atoms: C_13  and  C_36
   14  A    between atoms: C_16  and  C_49
   15  A    between atoms: N_18  and  C_19
   16  A    between atoms: N_20  and  C_39
   17  A    between atoms: C_27  and  N_37
                            x       y       z     vdW  Elec       q    Type
                         _______ _______ _______ _____ _____    ______ ____

>  <TORSDO>
F 17

$$$$
=
 OpenBabel10232409223D

 52 56  0  0  1  0  0  0  0  0999 V2000
  189.9570  177.0900  142.1780 C   0  0  0  0  0  3  0  0  0  0  0  0
  190.3170  177.6160  141.0160 C   0  0  0  0  0  3  0  0  0  0  0  0
  187.6330  179.0630  136.6040 C   0  0  0  0  0  1  0  0  0  0  0  0
  190.2550  175.0020  137.2800 C   0  0  0  0  0  3  0  0  0  0  0  0
  189.7870  177.0840  138.6420 C   0  0  0  0  0  0  0  0  0  0  0  0
  190.4420  176.7780  139.8720 N   0  0  0  0  0  2  0  0  0  0  0  0
  188.5590  176.3530  135.4350 C   0  0  0  0  0  3  0  0  0  0  0  0
  189.0440  178.1960  138.4190 N   0  0  0  0  0  0  0  0  0  0  0  0
  188.9010  176.9060  136.6680 C   0  0  0  0  0  0  0  0  0  0  0  0
  189.9280  174.4070  136.0440 C   0  0  0  0  0  0  0  0  0  0  0  0
  188.5170  178.0780  137.2060 N   0  0  0  0  0  0  0  0  0  0  0  0
  189.0890  175.0840  135.1260 C   0  0  0  0  0  3  0  0  0  0  0  0
  189.7140  176.2530  137.5490 C   0  0  0  0  0  0  0  0  0  0  0  0
  190.4920  173.0750  135.6740 C   0  0  0  0  0  2  0  0  0  0  0  0
  191.7310  173.2280  134.9200 N   0  0  0  0  0  2  0  0  0  0  0  0
  196.6710  174.3970  138.3500 C   0  0  0  0  0  0  0  0  0  0  0  0
  198.6390  175.6440  138.9070 N   0  0  0  0  0  1  0  0  0  0  0  0
  197.7060  174.5960  139.1550 C   0  0  0  0  0  3  0  0  0  0  0  0
  194.6390  173.7120  137.1790 C   0  0  0  0  0  0  0  0  0  0  0  0
  195.2850  174.7750  136.5740 C   0  0  0  0  0  0  0  0  0  0  0  0
  194.7860  175.3590  135.4100 C   0  0  0  0  0  3  0  0  0  0  0  0
  192.9370  173.7630  135.4710 C   0  0  0  0  0  0  0  0  0  0  0  0
  196.4340  175.1810  137.2240 O   0  0  0  0  0  0  0  0  0  0  0  0
  193.4600  173.1960  136.6430 C   0  0  0  0  0  3  0  0  0  0  0  0
  195.4620  173.0940  138.6420 S   0  0  0  0  0  0  0  0  0  0  0  0
  193.6030  174.8460  134.8580 C   0  0  0  0  0  3  0  0  0  0  0  0
  189.7480  178.1250  143.6210 S   0  0  0  0  0  0  0  0  0  0  0  0
  188.6810  176.8880  144.4460 C   0  0  1  0  0  3  0  0  0  0  0  0
  187.1050  178.5010  145.7050 C   0  0  0  0  0  1  0  0  0  0  0  0
  188.0700  177.3280  145.7970 C   0  0  2  0  0  3  0  0  0  0  0  0
  188.5540  178.2730  148.1170 C   0  0  0  0  0  1  0  0  0  0  0  0
  189.1300  177.6220  146.8710 C   0  0  1  0  0  3  0  0  0  0  0  0
  190.0770  176.4560  147.1890 C   0  0  0  0  0  2  0  0  0  0  0  0
  191.5180  176.7330  146.7930 C   0  0  0  0  0  2  0  0  0  0  0  0
  192.2330  175.5350  146.7730 O   0  0  0  0  0  1  0  0  0  0  0  0
  187.5960  176.4130  143.4830 C   0  0  0  0  0  2  0  0  0  0  0  0
  186.4510  177.3110  143.5180 N   0  0  0  0  0  2  0  0  0  0  0  0
  186.8720  178.2200  141.4070 O   0  0  0  0  0  0  0  0  0  0  0  0
  186.1240  178.1670  142.4200 C   0  0  0  0  0  0  0  0  0  0  0  0
  184.8870  178.9970  142.4580 C   0  0  2  0  0  3  0  0  0  0  0  0
  184.9330  179.8660  143.5510 O   0  0  0  0  0  1  0  0  0  0  0  0
  183.6630  178.1000  142.5590 C   0  0  0  0  0  2  0  0  0  0  0  0
  180.7860  179.8740  141.1790 O   0  0  0  0  0  0  0  0  0  0  0  0
  181.6070  179.4170  142.0170 C   0  0  0  0  0  0  0  0  0  0  0  0
  182.6410  178.5080  141.6020 N   0  0  0  0  0  0  0  0  0  0  0  0
  181.5070  179.8040  143.3500 O   0  0  0  0  0  1  0  0  0  0  0  0
  182.8520  178.2120  140.1850 C   0  0  0  0  0  0  0  0  0  0  0  0
  182.9820  176.7390  139.8540 C   0  0  0  0  0  2  0  0  0  0  0  0
  181.7130  177.4980  139.4890 C   0  0  0  0  0  2  0  0  0  0  0  0
  183.6920  179.1500  139.3760 C   0  0  0  0  0  0  0  0  0  0  0  0
  183.3110  180.2890  139.1680 O   0  0  0  0  0  0  0  0  0  0  0  0
  184.9680  178.6840  138.7690 C   0  0  0  0  0  1  0  0  0  0  0  0
  1 27  1  0  0  0  0
  2  1  2  0  0  0  0
  3 11  1  0  0  0  0
  4 13  1  0  0  0  0
  5  6  1  0  0  0  0
  6  2  1  0  0  0  0
  7  9  1  0  0  0  0
  8  5  2  0  0  0  0
  9 11  1  0  0  0  0
  9 13  2  0  0  0  0
 10  4  2  0  0  0  0
 11  8  1  0  0  0  0
 12  7  2  0  0  0  0
 12 10  1  0  0  0  0
 13  5  1  0  0  0  0
 14 10  1  0  0  0  0
 15 22  1  0  0  0  0
 15 14  1  0  0  0  0
 16 25  1  0  0  0  0
 16 18  2  0  0  0  0
 17 18  1  0  0  0  0
 19 25  1  0  0  0  0
 20 19  2  0  0  0  0
 20 23  1  0  0  0  0
 21 20  1  0  0  0  0
 22 24  2  0  0  0  0
 23 16  1  0  0  0  0
 24 19  1  0  0  0  0
 26 21  2  0  0  0  0
 26 22  1  0  0  0  0
 27 28  1  0  0  0  0
 28 36  1  6  0  0  0
 28 30  1  0  0  0  0
 30 29  1  6  0  0  0
 30 32  1  0  0  0  0
 32 33  1  0  0  0  0
 32 31  1  1  0  0  0
 34 33  1  0  0  0  0
 35 34  1  0  0  0  0
 36 37  1  0  0  0  0
 38 39  2  0  0  0  0
 39 40  1  0  0  0  0
 39 37  1  0  0  0  0
 40 42  1  0  0  0  0
 40 41  1  1  0  0  0
 43 44  2  0  0  0  0
 44 46  1  0  0  0  0
 45 44  1  0  0  0  0
 45 42  1  0  0  0  0
 47 45  1  0  0  0  0
 48 47  1  0  0  0  0
 49 48  1  0  0  0  0
 49 47  1  0  0  0  0
 50 47  1  0  0  0  0
 51 50  2  0  0  0  0
 52 50  1  0  0  0  0
M  END
>  <MODEL>
3

>  <REMARK>
 VINA RESULT:      -7.1      2.945     10.142
  Name = 
  17 active torsions:
  status: ('A' for Active; 'I' for Inactive)
    1  A    between atoms: C_1  and  C_3
    2  A    between atoms: C_1  and  C_12
    3  A    between atoms: C_1  and  S_40
    4  A    between atoms: C_2  and  C_10
    5  A    between atoms: C_2  and  N_37
    6  A    between atoms: C_3  and  N_4
    7  A    between atoms: C_5  and  S_40
    8  A    between atoms: C_7  and  C_16
    9  A    between atoms: C_9  and  N_20
   10  A    between atoms: C_9  and  C_34
   11  A    between atoms: C_12  and  C_49
   12  A    between atoms: C_13  and  C_27
   13  A    between atoms: C_13  and  C_36
   14  A    between atoms: C_16  and  C_49
   15  A    between atoms: N_18  and  C_19
   16  A    between atoms: N_20  and  C_39
   17  A    between atoms: C_27  and  N_37
                            x       y       z     vdW  Elec       q    Type
                         _______ _______ _______ _____ _____    ______ ____

>  <TORSDO>
F 17

$$$$
=
 OpenBabel10232409223D

 52 56  0  0  1  0  0  0  0  0999 V2000
  189.0210  176.7260  142.2450 C   0  0  0  0  0  3  0  0  0  0  0  0
  189.6200  177.4300  141.2960 C   0  0  0  0  0  3  0  0  0  0  0  0
  193.1500  175.5940  137.6990 C   0  0  0  0  0  1  0  0  0  0  0  0
  188.6310  177.2300  136.8490 C   0  0  0  0  0  3  0  0  0  0  0  0
  190.0320  176.8190  138.9180 C   0  0  0  0  0  0  0  0  0  0  0  0
  189.1790  177.3160  139.9470 N   0  0  0  0  0  2  0  0  0  0  0  0
  190.9980  176.2760  135.5850 C   0  0  0  0  0  3  0  0  0  0  0  0
  191.2940  176.3640  139.1130 N   0  0  0  0  0  0  0  0  0  0  0  0
  190.8860  176.3750  136.9720 C   0  0  0  0  0  0  0  0  0  0  0  0
  188.7070  177.1490  135.4430 C   0  0  0  0  0  0  0  0  0  0  0  0
  191.8000  176.0880  137.9160 N   0  0  0  0  0  0  0  0  0  0  0  0
  189.8830  176.6690  134.8180 C   0  0  0  0  0  3  0  0  0  0  0  0
  189.7490  176.8330  137.5720 C   0  0  0  0  0  0  0  0  0  0  0  0
  187.5360  177.5340  134.6000 C   0  0  0  0  0  2  0  0  0  0  0  0
  186.3340  177.6730  135.4150 N   0  0  0  0  0  2  0  0  0  0  0  0
  183.0150  172.6730  136.6450 C   0  0  0  0  0  0  0  0  0  0  0  0
  181.0540  171.3100  136.4560 N   0  0  0  0  0  1  0  0  0  0  0  0
  182.3710  171.5530  136.9420 C   0  0  0  0  0  3  0  0  0  0  0  0
  184.5580  174.5390  136.3160 C   0  0  0  0  0  0  0  0  0  0  0  0
  183.3380  174.7220  135.6870 C   0  0  0  0  0  0  0  0  0  0  0  0
  183.0680  175.8760  134.9540 C   0  0  0  0  0  3  0  0  0  0  0  0
  185.3100  176.6790  135.4980 C   0  0  0  0  0  0  0  0  0  0  0  0
  182.4540  173.6750  135.8570 O   0  0  0  0  0  0  0  0  0  0  0  0
  185.5570  175.5070  136.2290 C   0  0  0  0  0  3  0  0  0  0  0  0
  184.6870  173.0050  137.2280 S   0  0  0  0  0  0  0  0  0  0  0  0
  184.0630  176.8600  134.8620 C   0  0  0  0  0  3  0  0  0  0  0  0
  189.5250  176.8830  143.9530 S   0  0  0  0  0  0  0  0  0  0  0  0
  187.8040  177.1570  144.5130 C   0  0  1  0  0  3  0  0  0  0  0  0
  186.4670  178.1070  146.5090 C   0  0  0  0  0  1  0  0  0  0  0  0
  187.6000  177.2020  146.0460 C   0  0  2  0  0  3  0  0  0  0  0  0
  188.6460  178.5310  147.9570 C   0  0  0  0  0  1  0  0  0  0  0  0
  188.8840  177.5570  146.8160 C   0  0  1  0  0  3  0  0  0  0  0  0
  189.7510  176.3580  147.2230 C   0  0  0  0  0  2  0  0  0  0  0  0
  191.1870  176.7420  147.5410 C   0  0  0  0  0  2  0  0  0  0  0  0
  191.8610  177.0480  146.3580 O   0  0  0  0  0  1  0  0  0  0  0  0
  187.2330  178.4060  143.8490 C   0  0  0  0  0  2  0  0  0  0  0  0
  185.7780  178.3530  143.8230 N   0  0  0  0  0  2  0  0  0  0  0  0
  185.5780  179.8220  142.0160 O   0  0  0  0  0  0  0  0  0  0  0  0
  185.0100  179.0620  142.8470 C   0  0  0  0  0  0  0  0  0  0  0  0
  183.5300  178.9020  142.7960 C   0  0  2  0  0  3  0  0  0  0  0  0
  183.0410  178.5990  144.0690 O   0  0  0  0  0  1  0  0  0  0  0  0
  183.1620  177.7930  141.8210 C   0  0  0  0  0  2  0  0  0  0  0  0
  180.8880  179.8000  139.7890 O   0  0  0  0  0  0  0  0  0  0  0  0
  181.3890  179.2250  140.7910 C   0  0  0  0  0  0  0  0  0  0  0  0
  182.5120  178.3400  140.6360 N   0  0  0  0  0  0  0  0  0  0  0  0
  180.8480  179.4570  142.0520 O   0  0  0  0  0  1  0  0  0  0  0  0
  183.1840  178.2050  139.3440 C   0  0  0  0  0  0  0  0  0  0  0  0
  183.2620  176.7870  138.8110 C   0  0  0  0  0  2  0  0  0  0  0  0
  182.3000  177.7900  138.1860 C   0  0  0  0  0  2  0  0  0  0  0  0
  184.3560  179.0880  139.0520 C   0  0  0  0  0  0  0  0  0  0  0  0
  184.2220  180.3000  139.0410 O   0  0  0  0  0  0  0  0  0  0  0  0
  185.6780  178.4950  138.7130 C   0  0  0  0  0  1  0  0  0  0  0  0
  1 27  1  0  0  0  0
  2  1  2  0  0  0  0
  3 11  1  0  0  0  0
  4 13  1  0  0  0  0
  5  8  2  0  0  0  0
  5  6  1  0  0  0  0
  6  2  1  0  0  0  0
  7  9  1  0  0  0  0
  9 13  2  0  0  0  0
  9 11  1  0  0  0  0
 10  4  2  0  0  0  0
 11  8  1  0  0  0  0
 12 10  1  0  0  0  0
 12  7  2  0  0  0  0
 13  5  1  0  0  0  0
 14 15  1  0  0  0  0
 14 10  1  0  0  0  0
 15 22  1  0  0  0  0
 16 18  2  0  0  0  0
 16 25  1  0  0  0  0
 17 18  1  0  0  0  0
 19 25  1  0  0  0  0
 20 23  1  0  0  0  0
 20 19  2  0  0  0  0
 21 20  1  0  0  0  0
 22 24  2  0  0  0  0
 23 16  1  0  0  0  0
 24 19  1  0  0  0  0
 26 21  2  0  0  0  0
 26 22  1  0  0  0  0
 27 28  1  0  0  0  0
 28 36  1  6  0  0  0
 28 30  1  0  0  0  0
 30 29  1  6  0  0  0
 30 32  1  0  0  0  0
 32 33  1  0  0  0  0
 32 31  1  1  0  0  0
 33 34  1  0  0  0  0
 35 34  1  0  0  0  0
 37 36  1  0  0  0  0
 38 39  2  0  0  0  0
 39 37  1  0  0  0  0
 40 39  1  0  0  0  0
 40 41  1  1  0  0  0
 42 40  1  0  0  0  0
 43 44  2  0  0  0  0
 44 46  1  0  0  0  0
 45 44  1  0  0  0  0
 45 42  1  0  0  0  0
 47 45  1  0  0  0  0
 48 47  1  0  0  0  0
 49 48  1  0  0  0  0
 49 47  1  0  0  0  0
 50 47  1  0  0  0  0
 51 50  2  0  0  0  0
 52 50  1  0  0  0  0
M  END
>  <MODEL>
4

>  <REMARK>
 VINA RESULT:      -7.1      2.902      8.901
  Name = 
  17 active torsions:
  status: ('A' for Active; 'I' for Inactive)
    1  A    between atoms: C_1  and  C_3
    2  A    between atoms: C_1  and  C_12
    3  A    between atoms: C_1  and  S_40
    4  A    between atoms: C_2  and  C_10
    5  A    between atoms: C_2  and  N_37
    6  A    between atoms: C_3  and  N_4
    7  A    between atoms: C_5  and  S_40
    8  A    between atoms: C_7  and  C_16
    9  A    between atoms: C_9  and  N_20
   10  A    between atoms: C_9  and  C_34
   11  A    between atoms: C_12  and  C_49
   12  A    between atoms: C_13  and  C_27
   13  A    between atoms: C_13  and  C_36
   14  A    between atoms: C_16  and  C_49
   15  A    between atoms: N_18  and  C_19
   16  A    between atoms: N_20  and  C_39
   17  A    between atoms: C_27  and  N_37
                            x       y       z     vdW  Elec       q    Type
                         _______ _______ _______ _____ _____    ______ ____

>  <TORSDO>
F 17

$$$$
=
 OpenBabel10232409223D

 52 56  0  0  1  0  0  0  0  0999 V2000
  189.6260  176.2080  141.8780 C   0  0  0  0  0  3  0  0  0  0  0  0
  190.0930  176.9810  140.9090 C   0  0  0  0  0  3  0  0  0  0  0  0
  193.3390  175.5910  136.8730 C   0  0  0  0  0  1  0  0  0  0  0  0
  188.6570  176.9370  136.5810 C   0  0  0  0  0  3  0  0  0  0  0  0
  190.2920  176.5240  138.4700 C   0  0  0  0  0  0  0  0  0  0  0  0
  189.5200  176.9040  139.6080 N   0  0  0  0  0  2  0  0  0  0  0  0
  190.9360  176.2230  135.0310 C   0  0  0  0  0  3  0  0  0  0  0  0
  191.5950  176.1520  138.5090 N   0  0  0  0  0  0  0  0  0  0  0  0
  190.9640  176.2420  136.4250 C   0  0  0  0  0  0  0  0  0  0  0  0
  188.5900  176.9340  135.1730 C   0  0  0  0  0  0  0  0  0  0  0  0
  191.9900  175.9750  137.2540 N   0  0  0  0  0  0  0  0  0  0  0  0
  189.7230  176.5730  134.4050 C   0  0  0  0  0  3  0  0  0  0  0  0
  189.8690  176.5860  137.1630 C   0  0  0  0  0  0  0  0  0  0  0  0
  187.3140  177.2760  134.4760 C   0  0  0  0  0  2  0  0  0  0  0  0
  186.2740  177.6180  135.4400 N   0  0  0  0  0  2  0  0  0  0  0  0
  182.6910  172.8360  136.7920 C   0  0  0  0  0  0  0  0  0  0  0  0
  180.5780  171.8210  137.2840 N   0  0  0  0  0  1  0  0  0  0  0  0
  181.9820  171.7480  137.0610 C   0  0  0  0  0  3  0  0  0  0  0  0
  184.3460  174.5450  136.2350 C   0  0  0  0  0  0  0  0  0  0  0  0
  183.0710  175.0560  136.4080 C   0  0  0  0  0  0  0  0  0  0  0  0
  182.8120  176.4190  136.2700 C   0  0  0  0  0  3  0  0  0  0  0  0
  185.1780  176.7600  135.7670 C   0  0  0  0  0  0  0  0  0  0  0  0
  182.1200  174.1040  136.7180 O   0  0  0  0  0  0  0  0  0  0  0  0
  185.4110  175.3830  135.9100 C   0  0  0  0  0  3  0  0  0  0  0  0
  184.4650  172.7780  136.4870 S   0  0  0  0  0  0  0  0  0  0  0  0
  183.8760  177.2730  135.9480 C   0  0  0  0  0  3  0  0  0  0  0  0
  190.2950  176.3150  143.5330 S   0  0  0  0  0  0  0  0  0  0  0  0
  188.8320  177.2280  144.1460 C   0  0  1  0  0  3  0  0  0  0  0  0
  190.2180  177.4200  146.3170 C   0  0  0  0  0  1  0  0  0  0  0  0
  188.9820  177.8650  145.5480 C   0  0  2  0  0  3  0  0  0  0  0  0
  187.9910  177.9950  147.8960 C   0  0  0  0  0  1  0  0  0  0  0  0
  187.7370  177.6800  146.4320 C   0  0  1  0  0  3  0  0  0  0  0  0
  186.4550  178.3280  145.8940 C   0  0  0  0  0  2  0  0  0  0  0  0
  185.6000  178.9540  146.9840 C   0  0  0  0  0  2  0  0  0  0  0  0
  184.4030  178.2470  147.1020 O   0  0  0  0  0  1  0  0  0  0  0  0
  188.3980  178.2680  143.1170 C   0  0  0  0  0  2  0  0  0  0  0  0
  186.9500  178.4230  143.1240 N   0  0  0  0  0  2  0  0  0  0  0  0
  186.8160  178.9520  140.8520 O   0  0  0  0  0  0  0  0  0  0  0  0
  186.2140  178.7310  141.9370 C   0  0  0  0  0  0  0  0  0  0  0  0
  184.7260  178.7840  141.9710 C   0  0  2  0  0  3  0  0  0  0  0  0
  184.2530  178.1290  143.1100 O   0  0  0  0  0  1  0  0  0  0  0  0
  184.1560  178.1290  140.7210 C   0  0  0  0  0  2  0  0  0  0  0  0
  182.3540  180.5240  138.6350 O   0  0  0  0  0  0  0  0  0  0  0  0
  183.3070  179.9190  139.1940 C   0  0  0  0  0  0  0  0  0  0  0  0
  183.0470  178.9120  140.1870 N   0  0  0  0  0  0  0  0  0  0  0  0
  184.6160  180.2330  138.8390 O   0  0  0  0  0  1  0  0  0  0  0  0
  181.6810  178.4660  140.4600 C   0  0  0  0  0  0  0  0  0  0  0  0
  180.9210  177.9600  139.2500 C   0  0  0  0  0  2  0  0  0  0  0  0
  181.4320  176.9810  140.2990 C   0  0  0  0  0  2  0  0  0  0  0  0
  180.8790  179.2060  141.4840 C   0  0  0  0  0  0  0  0  0  0  0  0
  180.2180  180.1780  141.1590 O   0  0  0  0  0  0  0  0  0  0  0  0
  180.9280  178.8000  142.9150 C   0  0  0  0  0  1  0  0  0  0  0  0
  1 27  1  0  0  0  0
  2  1  2  0  0  0  0
  3 11  1  0  0  0  0
  4 13  1  0  0  0  0
  5  8  2  0  0  0  0
  5  6  1  0  0  0  0
  6  2  1  0  0  0  0
  7  9  1  0  0  0  0
  9 13  2  0  0  0  0
  9 11  1  0  0  0  0
 10  4  2  0  0  0  0
 11  8  1  0  0  0  0
 12  7  2  0  0  0  0
 12 10  1  0  0  0  0
 13  5  1  0  0  0  0
 14 10  1  0  0  0  0
 14 15  1  0  0  0  0
 15 22  1  0  0  0  0
 16 18  2  0  0  0  0
 18 17  1  0  0  0  0
 19 20  1  0  0  0  0
 19 25  1  0  0  0  0
 20 23  1  0  0  0  0
 21 20  2  0  0  0  0
 22 24  1  0  0  0  0
 22 26  2  0  0  0  0
 23 16  1  0  0  0  0
 24 19  2  0  0  0  0
 25 16  1  0  0  0  0
 26 21  1  0  0  0  0
 27 28  1  0  0  0  0
 28 36  1  6  0  0  0
 28 30  1  0  0  0  0
 30 29  1  1  0  0  0
 30 32  1  0  0  0  0
 32 31  1  1  0  0  0
 33 32  1  0  0  0  0
 33 34  1  0  0  0  0
 34 35  1  0  0  0  0
 36 37  1  0  0  0  0
 38 39  2  0  0  0  0
 39 40  1  0  0  0  0
 39 37  1  0  0  0  0
 40 41  1  1  0  0  0
 42 40  1  0  0  0  0
 43 44  2  0  0  0  0
 44 45  1  0  0  0  0
 45 47  1  0  0  0  0
 45 42  1  0  0  0  0
 46 44  1  0  0  0  0
 47 50  1  0  0  0  0
 48 49  1  0  0  0  0
 48 47  1  0  0  0  0
 49 47  1  0  0  0  0
 50 52  1  0  0  0  0
 51 50  2  0  0  0  0
M  END
>  <MODEL>
5

>  <REMARK>
 VINA RESULT:      -7.1      3.072      9.018
  Name = 
  17 active torsions:
  status: ('A' for Active; 'I' for Inactive)
    1  A    between atoms: C_1  and  C_3
    2  A    between atoms: C_1  and  C_12
    3  A    between atoms: C_1  and  S_40
    4  A    between atoms: C_2  and  C_10
    5  A    between atoms: C_2  and  N_37
    6  A    between atoms: C_3  and  N_4
    7  A    between atoms: C_5  and  S_40
    8  A    between atoms: C_7  and  C_16
    9  A    between atoms: C_9  and  N_20
   10  A    between atoms: C_9  and  C_34
   11  A    between atoms: C_12  and  C_49
   12  A    between atoms: C_13  and  C_27
   13  A    between atoms: C_13  and  C_36
   14  A    between atoms: C_16  and  C_49
   15  A    between atoms: N_18  and  C_19
   16  A    between atoms: N_20  and  C_39
   17  A    between atoms: C_27  and  N_37
                            x       y       z     vdW  Elec       q    Type
                         _______ _______ _______ _____ _____    ______ ____

>  <TORSDO>
F 17

$$$$
=
 OpenBabel10232409223D

 52 56  0  0  1  0  0  0  0  0999 V2000
  189.0170  177.3800  140.5650 C   0  0  0  0  0  3  0  0  0  0  0  0
  189.5130  177.7060  139.3810 C   0  0  0  0  0  3  0  0  0  0  0  0
  185.7310  175.4750  136.3020 C   0  0  0  0  0  1  0  0  0  0  0  0
  190.4300  174.1960  136.6180 C   0  0  0  0  0  3  0  0  0  0  0  0
  189.0010  176.0390  137.6050 C   0  0  0  0  0  0  0  0  0  0  0  0
  189.9240  176.6820  138.4820 N   0  0  0  0  0  2  0  0  0  0  0  0
  187.9420  173.5010  135.4210 C   0  0  0  0  0  3  0  0  0  0  0  0
  187.6880  176.3590  137.4950 N   0  0  0  0  0  0  0  0  0  0  0  0
  188.0770  174.6060  136.2610 C   0  0  0  0  0  0  0  0  0  0  0  0
  190.3330  173.0680  135.7780 C   0  0  0  0  0  0  0  0  0  0  0  0
  187.1390  175.4810  136.6640 N   0  0  0  0  0  0  0  0  0  0  0  0
  189.0960  172.7280  135.1790 C   0  0  0  0  0  3  0  0  0  0  0  0
  189.2720  174.9340  136.8320 C   0  0  0  0  0  0  0  0  0  0  0  0
  191.5410  172.2410  135.4800 C   0  0  0  0  0  2  0  0  0  0  0  0
  192.7590  172.9470  135.8620 N   0  0  0  0  0  2  0  0  0  0  0  0
  197.0710  168.9040  137.4720 C   0  0  0  0  0  0  0  0  0  0  0  0
  199.1250  168.2800  138.5360 N   0  0  0  0  0  1  0  0  0  0  0  0
  197.9480  167.9640  137.7990 C   0  0  0  0  0  3  0  0  0  0  0  0
  195.2040  170.2830  136.7100 C   0  0  0  0  0  0  0  0  0  0  0  0
  196.1810  171.0060  137.3720 C   0  0  0  0  0  0  0  0  0  0  0  0
  196.0640  172.3830  137.5560 C   0  0  0  0  0  3  0  0  0  0  0  0
  193.9240  172.3010  136.3800 C   0  0  0  0  0  0  0  0  0  0  0  0
  197.2430  170.2430  137.8160 O   0  0  0  0  0  0  0  0  0  0  0  0
  194.0660  170.9150  136.2110 C   0  0  0  0  0  3  0  0  0  0  0  0
  195.5640  168.5370  136.5560 S   0  0  0  0  0  0  0  0  0  0  0  0
  194.9260  173.0310  137.0550 C   0  0  0  0  0  3  0  0  0  0  0  0
  188.4520  178.6440  141.6970 S   0  0  0  0  0  0  0  0  0  0  0  0
  188.7840  177.5900  143.1570 C   0  0  1  0  0  3  0  0  0  0  0  0
  191.0110  178.7650  143.7350 C   0  0  0  0  0  1  0  0  0  0  0  0
  189.6830  178.2230  144.2450 C   0  0  2  0  0  3  0  0  0  0  0  0
  191.3170  176.6470  145.4110 C   0  0  0  0  0  1  0  0  0  0  0  0
  189.9380  177.2860  145.4380 C   0  0  1  0  0  3  0  0  0  0  0  0
  189.5740  177.8650  146.8110 C   0  0  0  0  0  2  0  0  0  0  0  0
  188.5620  177.0180  147.5660 C   0  0  0  0  0  2  0  0  0  0  0  0
  187.2750  177.4950  147.3150 O   0  0  0  0  0  1  0  0  0  0  0  0
  187.4700  177.0950  143.7520 C   0  0  0  0  0  2  0  0  0  0  0  0
  186.3370  177.6520  143.0260 N   0  0  0  0  0  2  0  0  0  0  0  0
  185.1930  178.3090  144.9550 O   0  0  0  0  0  0  0  0  0  0  0  0
  185.2420  178.2830  143.6950 C   0  0  0  0  0  0  0  0  0  0  0  0
  184.1520  178.9260  142.9090 C   0  0  2  0  0  3  0  0  0  0  0  0
  183.0700  179.2120  143.7440 O   0  0  0  0  0  1  0  0  0  0  0  0
  183.7110  178.0020  141.7840 C   0  0  0  0  0  2  0  0  0  0  0  0
  183.4710  180.0060  138.7410 O   0  0  0  0  0  0  0  0  0  0  0  0
  183.9630  179.4430  139.7550 C   0  0  0  0  0  0  0  0  0  0  0  0
  183.1110  178.7640  140.6940 N   0  0  0  0  0  0  0  0  0  0  0  0
  185.3400  179.4790  139.9540 O   0  0  0  0  0  1  0  0  0  0  0  0
  181.6850  178.5880  140.4200 C   0  0  0  0  0  0  0  0  0  0  0  0
  181.3700  177.8230  139.1500 C   0  0  0  0  0  2  0  0  0  0  0  0
  181.1710  177.1670  140.5100 C   0  0  0  0  0  2  0  0  0  0  0  0
  180.7470  179.6980  140.7740 C   0  0  0  0  0  0  0  0  0  0  0  0
  180.5010  180.5750  139.9630 O   0  0  0  0  0  0  0  0  0  0  0  0
  180.1550  179.7760  142.1370 C   0  0  0  0  0  1  0  0  0  0  0  0
  1 27  1  0  0  0  0
  2  1  2  0  0  0  0
  3 11  1  0  0  0  0
  4 13  1  0  0  0  0
  5  6  1  0  0  0  0
  6  2  1  0  0  0  0
  7  9  1  0  0  0  0
  8  5  2  0  0  0  0
  9 11  1  0  0  0  0
  9 13  2  0  0  0  0
 10  4  2  0  0  0  0
 11  8  1  0  0  0  0
 12  7  2  0  0  0  0
 12 10  1  0  0  0  0
 13  5  1  0  0  0  0
 14 10  1  0  0  0  0
 14 15  1  0  0  0  0
 15 22  1  0  0  0  0
 16 18  2  0  0  0  0
 16 23  1  0  0  0  0
 18 17  1  0  0  0  0
 19 20  1  0  0  0  0
 20 21  2  0  0  0  0
 20 23  1  0  0  0  0
 22 26  2  0  0  0  0
 24 22  1  0  0  0  0
 24 19  2  0  0  0  0
 25 19  1  0  0  0  0
 25 16  1  0  0  0  0
 26 21  1  0  0  0  0
 27 28  1  0  0  0  0
 28 36  1  1  0  0  0
 28 30  1  0  0  0  0
 30 29  1  6  0  0  0
 30 32  1  0  0  0  0
 32 31  1  1  0  0  0
 32 33  1  0  0  0  0
 33 34  1  0  0  0  0
 35 34  1  0  0  0  0
 37 39  1  0  0  0  0
 37 36  1  0  0  0  0
 39 38  2  0  0  0  0
 40 39  1  0  0  0  0
 40 41  1  1  0  0  0
 42 40  1  0  0  0  0
 43 44  2  0  0  0  0
 44 46  1  0  0  0  0
 44 45  1  0  0  0  0
 45 42  1  0  0  0  0
 47 49  1  0  0  0  0
 47 45  1  0  0  0  0
 47 50  1  0  0  0  0
 48 47  1  0  0  0  0
 48 49  1  0  0  0  0
 50 52  1  0  0  0  0
 51 50  2  0  0  0  0
M  END
>  <MODEL>
6

>  <REMARK>
 VINA RESULT:      -6.9      3.251     10.866
  Name = 
  17 active torsions:
  status: ('A' for Active; 'I' for Inactive)
    1  A    between atoms: C_1  and  C_3
    2  A    between atoms: C_1  and  C_12
    3  A    between atoms: C_1  and  S_40
    4  A    between atoms: C_2  and  C_10
    5  A    between atoms: C_2  and  N_37
    6  A    between atoms: C_3  and  N_4
    7  A    between atoms: C_5  and  S_40
    8  A    between atoms: C_7  and  C_16
    9  A    between atoms: C_9  and  N_20
   10  A    between atoms: C_9  and  C_34
   11  A    between atoms: C_12  and  C_49
   12  A    between atoms: C_13  and  C_27
   13  A    between atoms: C_13  and  C_36
   14  A    between atoms: C_16  and  C_49
   15  A    between atoms: N_18  and  C_19
   16  A    between atoms: N_20  and  C_39
   17  A    between atoms: C_27  and  N_37
                            x       y       z     vdW  Elec       q    Type
                         _______ _______ _______ _____ _____    ______ ____

>  <TORSDO>
F 17

$$$$
=
 OpenBabel10232409223D

 52 56  0  0  1  0  0  0  0  0999 V2000
  189.5320  176.6990  139.5650 C   0  0  0  0  0  3  0  0  0  0  0  0
  189.9000  176.5800  140.8320 C   0  0  0  0  0  3  0  0  0  0  0  0
  191.6870  176.1740  145.8720 C   0  0  0  0  0  1  0  0  0  0  0  0
  187.4710  178.1220  144.3710 C   0  0  0  0  0  3  0  0  0  0  0  0
  189.5080  177.1480  143.2250 C   0  0  0  0  0  0  0  0  0  0  0  0
  189.1120  177.1810  141.8540 N   0  0  0  0  0  2  0  0  0  0  0  0
  188.9920  177.4570  146.6840 C   0  0  0  0  0  3  0  0  0  0  0  0
  190.6650  176.6090  143.6810 N   0  0  0  0  0  0  0  0  0  0  0  0
  189.4680  177.2290  145.3940 C   0  0  0  0  0  0  0  0  0  0  0  0
  186.9530  178.3640  145.6590 C   0  0  0  0  0  0  0  0  0  0  0  0
  190.6310  176.6730  145.0070 N   0  0  0  0  0  0  0  0  0  0  0  0
  187.7140  178.0380  146.8080 C   0  0  0  0  0  3  0  0  0  0  0  0
  188.7340  177.5480  144.2880 C   0  0  0  0  0  0  0  0  0  0  0  0
  185.6120  179.0010  145.8270 C   0  0  0  0  0  2  0  0  0  0  0  0
  184.5590  178.1350  145.3090 N   0  0  0  0  0  2  0  0  0  0  0  0
  182.6480  179.1230  139.5730 C   0  0  0  0  0  0  0  0  0  0  0  0
  180.9950  179.7180  137.9440 N   0  0  0  0  0  1  0  0  0  0  0  0
  182.3190  179.3370  138.3060 C   0  0  0  0  0  3  0  0  0  0  0  0
  183.6820  178.6780  141.7410 C   0  0  0  0  0  0  0  0  0  0  0  0
  182.3360  178.9860  141.8320 C   0  0  0  0  0  0  0  0  0  0  0  0
  181.6820  179.0220  143.0630 C   0  0  0  0  0  3  0  0  0  0  0  0
  183.7940  178.4270  144.1370 C   0  0  0  0  0  0  0  0  0  0  0  0
  181.7340  179.2460  140.6170 O   0  0  0  0  0  0  0  0  0  0  0  0
  184.4280  178.3990  142.8850 C   0  0  0  0  0  3  0  0  0  0  0  0
  184.3160  178.6570  140.0680 S   0  0  0  0  0  0  0  0  0  0  0  0
  182.4200  178.7390  144.2210 C   0  0  0  0  0  3  0  0  0  0  0  0
  190.4780  175.9180  138.2640 S   0  0  0  0  0  0  0  0  0  0  0  0
  188.9660  175.4440  137.3480 C   0  0  1  0  0  3  0  0  0  0  0  0
  189.4450  175.1270  134.8290 C   0  0  0  0  0  1  0  0  0  0  0  0
  188.8490  176.0130  135.9140 C   0  0  2  0  0  3  0  0  0  0  0  0
  189.7410  177.8180  134.3460 C   0  0  0  0  0  1  0  0  0  0  0  0
  189.4170  177.4360  135.7810 C   0  0  1  0  0  3  0  0  0  0  0  0
  188.6320  178.5230  136.5270 C   0  0  0  0  0  2  0  0  0  0  0  0
  187.1550  178.1960  136.6760 C   0  0  0  0  0  2  0  0  0  0  0  0
  186.7170  178.5900  137.9410 O   0  0  0  0  0  1  0  0  0  0  0  0
  188.8120  173.9260  137.3490 C   0  0  0  0  0  2  0  0  0  0  0  0
  187.4210  173.5520  137.1300 N   0  0  0  0  0  2  0  0  0  0  0  0
  187.9430  171.5740  136.0020 O   0  0  0  0  0  0  0  0  0  0  0  0
  187.0570  172.3330  136.4780 C   0  0  0  0  0  0  0  0  0  0  0  0
  185.6240  171.9430  136.3630 C   0  0  2  0  0  3  0  0  0  0  0  0
  185.1640  172.1990  135.0700 O   0  0  0  0  0  1  0  0  0  0  0  0
  184.7930  172.7200  137.3740 C   0  0  0  0  0  2  0  0  0  0  0  0
  181.3480  172.6950  136.1660 O   0  0  0  0  0  0  0  0  0  0  0  0
  182.4640  172.2800  136.5760 C   0  0  0  0  0  0  0  0  0  0  0  0
  183.5550  173.1970  136.7690 N   0  0  0  0  0  0  0  0  0  0  0  0
  182.6290  170.9250  136.8480 O   0  0  0  0  0  1  0  0  0  0  0  0
  183.3530  174.6400  136.6330 C   0  0  0  0  0  0  0  0  0  0  0  0
  184.5210  175.3930  136.0290 C   0  0  0  0  0  2  0  0  0  0  0  0
  183.2560  175.1570  135.2140 C   0  0  0  0  0  2  0  0  0  0  0  0
  182.5800  175.3560  137.6960 C   0  0  0  0  0  0  0  0  0  0  0  0
  183.0180  175.4200  138.8330 O   0  0  0  0  0  0  0  0  0  0  0  0
  181.2470  175.9420  137.3910 C   0  0  0  0  0  1  0  0  0  0  0  0
  1  2  2  0  0  0  0
  2  6  1  0  0  0  0
  4 10  1  0  0  0  0
  5  8  2  0  0  0  0
  5 13  1  0  0  0  0
  6  5  1  0  0  0  0
  7 12  1  0  0  0  0
  8 11  1  0  0  0  0
  9  7  2  0  0  0  0
 10 14  1  0  0  0  0
 10 12  2  0  0  0  0
 11  9  1  0  0  0  0
 11  3  1  0  0  0  0
 13  4  2  0  0  0  0
 13  9  1  0  0  0  0
 15 14  1  0  0  0  0
 16 25  1  0  0  0  0
 16 23  1  0  0  0  0
 17 18  1  0  0  0  0
 18 16  2  0  0  0  0
 19 20  2  0  0  0  0
 19 24  1  0  0  0  0
 20 21  1  0  0  0  0
 21 26  2  0  0  0  0
 22 26  1  0  0  0  0
 22 15  1  0  0  0  0
 23 20  1  0  0  0  0
 24 22  2  0  0  0  0
 25 19  1  0  0  0  0
 27  1  1  0  0  0  0
 28 36  1  6  0  0  0
 28 27  1  0  0  0  0
 30 29  1  6  0  0  0
 30 28  1  0  0  0  0
 32 31  1  6  0  0  0
 32 30  1  0  0  0  0
 32 33  1  0  0  0  0
 33 34  1  0  0  0  0
 34 35  1  0  0  0  0
 37 36  1  0  0  0  0
 38 39  2  0  0  0  0
 39 37  1  0  0  0  0
 40 41  1  6  0  0  0
 40 39  1  0  0  0  0
 40 42  1  0  0  0  0
 43 44  2  0  0  0  0
 44 45  1  0  0  0  0
 44 46  1  0  0  0  0
 45 42  1  0  0  0  0
 47 45  1  0  0  0  0
 47 50  1  0  0  0  0
 48 47  1  0  0  0  0
 49 48  1  0  0  0  0
 49 47  1  0  0  0  0
 50 51  2  0  0  0  0
 52 50  1  0  0  0  0
M  END
>  <MODEL>
7

>  <REMARK>
 VINA RESULT:      -6.8      3.081      8.154
  Name = 
  17 active torsions:
  status: ('A' for Active; 'I' for Inactive)
    1  A    between atoms: C_1  and  C_3
    2  A    between atoms: C_1  and  C_12
    3  A    between atoms: C_1  and  S_40
    4  A    between atoms: C_2  and  C_10
    5  A    between atoms: C_2  and  N_37
    6  A    between atoms: C_3  and  N_4
    7  A    between atoms: C_5  and  S_40
    8  A    between atoms: C_7  and  C_16
    9  A    between atoms: C_9  and  N_20
   10  A    between atoms: C_9  and  C_34
   11  A    between atoms: C_12  and  C_49
   12  A    between atoms: C_13  and  C_27
   13  A    between atoms: C_13  and  C_36
   14  A    between atoms: C_16  and  C_49
   15  A    between atoms: N_18  and  C_19
   16  A    between atoms: N_20  and  C_39
   17  A    between atoms: C_27  and  N_37
                            x       y       z     vdW  Elec       q    Type
                         _______ _______ _______ _____ _____    ______ ____

>  <TORSDO>
F 17

$$$$
=
 OpenBabel10232409223D

 52 56  0  0  1  0  0  0  0  0999 V2000
  189.2660  177.5190  142.5270 C   0  0  0  0  0  3  0  0  0  0  0  0
  189.2600  178.1650  141.3700 C   0  0  0  0  0  3  0  0  0  0  0  0
  194.0770  176.9670  139.3400 C   0  0  0  0  0  1  0  0  0  0  0  0
  189.7150  176.0920  137.3340 C   0  0  0  0  0  3  0  0  0  0  0  0
  190.5190  177.0430  139.5390 C   0  0  0  0  0  0  0  0  0  0  0  0
  189.2910  177.4300  140.1520 N   0  0  0  0  0  2  0  0  0  0  0  0
  192.5210  175.9020  136.8890 C   0  0  0  0  0  3  0  0  0  0  0  0
  191.7490  177.2750  140.0600 N   0  0  0  0  0  0  0  0  0  0  0  0
  191.9920  176.3960  138.0800 C   0  0  0  0  0  0  0  0  0  0  0  0
  190.2110  175.5900  136.1130 C   0  0  0  0  0  0  0  0  0  0  0  0
  192.6380  176.8670  139.1620 N   0  0  0  0  0  0  0  0  0  0  0  0
  191.6070  175.4920  135.8970 C   0  0  0  0  0  3  0  0  0  0  0  0
  190.6460  176.4860  138.2880 C   0  0  0  0  0  0  0  0  0  0  0  0
  189.2720  175.1240  135.0500 C   0  0  0  0  0  2  0  0  0  0  0  0
  188.6190  173.8820  135.4450 N   0  0  0  0  0  2  0  0  0  0  0  0
  182.7000  174.7280  136.7800 C   0  0  0  0  0  0  0  0  0  0  0  0
  180.7100  174.2910  138.0390 N   0  0  0  0  0  1  0  0  0  0  0  0
  181.4210  174.9850  137.0190 C   0  0  0  0  0  3  0  0  0  0  0  0
  185.0260  174.6080  136.0420 C   0  0  0  0  0  0  0  0  0  0  0  0
  184.7290  173.7160  137.0580 C   0  0  0  0  0  0  0  0  0  0  0  0
  185.6970  172.8540  137.5710 C   0  0  0  0  0  3  0  0  0  0  0  0
  187.3040  173.8160  136.0020 C   0  0  0  0  0  0  0  0  0  0  0  0
  183.4200  173.7720  137.4930 O   0  0  0  0  0  0  0  0  0  0  0  0
  186.3100  174.6750  135.5050 C   0  0  0  0  0  3  0  0  0  0  0  0
  183.6350  175.5990  135.5100 S   0  0  0  0  0  0  0  0  0  0  0  0
  186.9920  172.9070  137.0360 C   0  0  0  0  0  3  0  0  0  0  0  0
  189.1830  178.4150  144.0720 S   0  0  0  0  0  0  0  0  0  0  0  0
  188.1930  177.0970  144.8690 C   0  0  1  0  0  3  0  0  0  0  0  0
  186.6730  178.5860  146.3340 C   0  0  0  0  0  1  0  0  0  0  0  0
  187.6580  177.4270  146.2820 C   0  0  2  0  0  3  0  0  0  0  0  0
  188.2600  178.1430  148.6560 C   0  0  0  0  0  1  0  0  0  0  0  0
  188.7770  177.6610  147.3110 C   0  0  1  0  0  3  0  0  0  0  0  0
  189.7970  176.5210  147.4360 C   0  0  0  0  0  2  0  0  0  0  0  0
  191.1880  176.9100  146.9640 C   0  0  0  0  0  2  0  0  0  0  0  0
  191.9750  175.7650  146.8390 O   0  0  0  0  0  1  0  0  0  0  0  0
  187.0600  176.6660  143.9420 C   0  0  0  0  0  2  0  0  0  0  0  0
  185.9650  177.6250  143.9900 N   0  0  0  0  0  2  0  0  0  0  0  0
  186.0110  178.0630  141.6950 O   0  0  0  0  0  0  0  0  0  0  0  0
  185.4620  178.2620  142.8120 C   0  0  0  0  0  0  0  0  0  0  0  0
  184.2770  179.1610  142.8940 C   0  0  2  0  0  3  0  0  0  0  0  0
  184.3250  179.9030  144.0760 O   0  0  0  0  0  1  0  0  0  0  0  0
  182.9980  178.3380  142.8480 C   0  0  0  0  0  2  0  0  0  0  0  0
  180.4100  180.2340  141.1060 O   0  0  0  0  0  0  0  0  0  0  0  0
  181.0920  179.7440  142.0440 C   0  0  0  0  0  0  0  0  0  0  0  0
  182.1310  178.7890  141.7660 N   0  0  0  0  0  0  0  0  0  0  0  0
  180.8340  180.1380  143.3530 O   0  0  0  0  0  1  0  0  0  0  0  0
  182.5140  178.4810  140.3880 C   0  0  0  0  0  0  0  0  0  0  0  0
  183.0220  177.0690  140.1680 C   0  0  0  0  0  2  0  0  0  0  0  0
  181.6380  177.4730  139.6750 C   0  0  0  0  0  2  0  0  0  0  0  0
  183.1610  179.5530  139.5690 C   0  0  0  0  0  0  0  0  0  0  0  0
  184.3230  179.8640  139.7740 O   0  0  0  0  0  0  0  0  0  0  0  0
  182.3790  180.2900  138.5400 C   0  0  0  0  0  1  0  0  0  0  0  0
  1 27  1  0  0  0  0
  2  1  2  0  0  0  0
  4 13  1  0  0  0  0
  5  8  2  0  0  0  0
  5  6  1  0  0  0  0
  6  2  1  0  0  0  0
  7  9  1  0  0  0  0
  9 13  2  0  0  0  0
  9 11  1  0  0  0  0
 10  4  2  0  0  0  0
 11  3  1  0  0  0  0
 11  8  1  0  0  0  0
 12 10  1  0  0  0  0
 12  7  2  0  0  0  0
 13  5  1  0  0  0  0
 14 15  1  0  0  0  0
 14 10  1  0  0  0  0
 15 22  1  0  0  0  0
 16 18  2  0  0  0  0
 16 23  1  0  0  0  0
 18 17  1  0  0  0  0
 19 20  1  0  0  0  0
 20 23  1  0  0  0  0
 20 21  2  0  0  0  0
 22 26  2  0  0  0  0
 24 22  1  0  0  0  0
 24 19  2  0  0  0  0
 25 19  1  0  0  0  0
 25 16  1  0  0  0  0
 26 21  1  0  0  0  0
 27 28  1  0  0  0  0
 28 36  1  6  0  0  0
 28 30  1  0  0  0  0
 30 29  1  6  0  0  0
 30 32  1  0  0  0  0
 32 33  1  0  0  0  0
 32 31  1  1  0  0  0
 34 33  1  0  0  0  0
 35 34  1  0  0  0  0
 36 37  1  0  0  0  0
 38 39  2  0  0  0  0
 39 40  1  0  0  0  0
 39 37  1  0  0  0  0
 40 41  1  1  0  0  0
 42 40  1  0  0  0  0
 43 44  2  0  0  0  0
 44 46  1  0  0  0  0
 45 44  1  0  0  0  0
 45 42  1  0  0  0  0
 47 45  1  0  0  0  0
 48 47  1  0  0  0  0
 49 48  1  0  0  0  0
 49 47  1  0  0  0  0
 50 51  2  0  0  0  0
 50 47  1  0  0  0  0
 52 50  1  0  0  0  0
M  END
>  <MODEL>
8

>  <REMARK>
 VINA RESULT:      -6.6      2.775      9.221
  Name = 
  17 active torsions:
  status: ('A' for Active; 'I' for Inactive)
    1  A    between atoms: C_1  and  C_3
    2  A    between atoms: C_1  and  C_12
    3  A    between atoms: C_1  and  S_40
    4  A    between atoms: C_2  and  C_10
    5  A    between atoms: C_2  and  N_37
    6  A    between atoms: C_3  and  N_4
    7  A    between atoms: C_5  and  S_40
    8  A    between atoms: C_7  and  C_16
    9  A    between atoms: C_9  and  N_20
   10  A    between atoms: C_9  and  C_34
   11  A    between atoms: C_12  and  C_49
   12  A    between atoms: C_13  and  C_27
   13  A    between atoms: C_13  and  C_36
   14  A    between atoms: C_16  and  C_49
   15  A    between atoms: N_18  and  C_19
   16  A    between atoms: N_20  and  C_39
   17  A    between atoms: C_27  and  N_37
                            x       y       z     vdW  Elec       q    Type
                         _______ _______ _______ _____ _____    ______ ____

>  <TORSDO>
F 17

$$$$
=
 OpenBabel10232409223D

 52 56  0  0  1  0  0  0  0  0999 V2000
  188.3520  174.1920  135.6450 C   0  0  0  0  0  3  0  0  0  0  0  0
  187.3250  174.8380  135.1120 C   0  0  0  0  0  3  0  0  0  0  0  0
  182.9880  172.0480  136.5830 C   0  0  0  0  0  1  0  0  0  0  0  0
  183.9760  176.7250  137.5660 C   0  0  0  0  0  3  0  0  0  0  0  0
  185.2090  174.8310  136.4250 C   0  0  0  0  0  0  0  0  0  0  0  0
  186.3860  175.4910  135.9600 N   0  0  0  0  0  2  0  0  0  0  0  0
  182.0020  174.6920  137.8470 C   0  0  0  0  0  3  0  0  0  0  0  0
  184.8960  173.5370  136.1660 N   0  0  0  0  0  0  0  0  0  0  0  0
  183.2300  174.4520  137.2330 C   0  0  0  0  0  0  0  0  0  0  0  0
  182.7440  177.0080  138.1890 C   0  0  0  0  0  0  0  0  0  0  0  0
  183.6890  173.3180  136.6740 N   0  0  0  0  0  0  0  0  0  0  0  0
  181.7660  175.9940  138.3330 C   0  0  0  0  0  3  0  0  0  0  0  0
  184.1720  175.4300  137.1000 C   0  0  0  0  0  0  0  0  0  0  0  0
  182.4700  178.3700  138.7370 C   0  0  0  0  0  2  0  0  0  0  0  0
  181.6280  178.2910  139.9260 N   0  0  0  0  0  2  0  0  0  0  0  0
  185.0460  178.7460  144.9900 C   0  0  0  0  0  0  0  0  0  0  0  0
  185.3590  179.1800  147.3250 N   0  0  0  0  0  1  0  0  0  0  0  0
  185.8510  178.8020  146.0430 C   0  0  0  0  0  3  0  0  0  0  0  0
  183.9340  178.4740  142.8310 C   0  0  0  0  0  0  0  0  0  0  0  0
  183.0820  178.9020  143.8340 C   0  0  0  0  0  0  0  0  0  0  0  0
  181.7320  179.1420  143.5830 C   0  0  0  0  0  3  0  0  0  0  0  0
  182.1080  178.5000  141.2560 C   0  0  0  0  0  0  0  0  0  0  0  0
  183.6900  179.0570  145.0640 O   0  0  0  0  0  0  0  0  0  0  0  0
  183.4630  178.2640  141.5360 C   0  0  0  0  0  3  0  0  0  0  0  0
  185.6300  178.2550  143.3580 S   0  0  0  0  0  0  0  0  0  0  0  0
  181.2450  178.9390  142.2840 C   0  0  0  0  0  3  0  0  0  0  0  0
  189.5710  173.4020  134.6040 S   0  0  0  0  0  0  0  0  0  0  0  0
  190.9590  174.1500  135.5340 C   0  0  1  0  0  3  0  0  0  0  0  0
  192.6150  172.5590  134.3510 C   0  0  0  0  0  1  0  0  0  0  0  0
  192.3620  173.9510  134.9140 C   0  0  2  0  0  3  0  0  0  0  0  0
  193.4710  173.5560  137.1780 C   0  0  0  0  0  1  0  0  0  0  0  0
  193.5050  174.3300  135.8710 C   0  0  1  0  0  3  0  0  0  0  0  0
  194.9010  174.3710  135.2350 C   0  0  0  0  0  2  0  0  0  0  0  0
  195.8060  175.4250  135.8500 C   0  0  0  0  0  2  0  0  0  0  0  0
  195.1280  176.0800  136.8780 O   0  0  0  0  0  1  0  0  0  0  0  0
  190.6780  175.6280  135.7890 C   0  0  0  0  0  2  0  0  0  0  0  0
  191.1710  176.0240  137.1000 N   0  0  0  0  0  2  0  0  0  0  0  0
  189.6000  177.7330  137.3720 O   0  0  0  0  0  0  0  0  0  0  0  0
  190.5540  177.0690  137.8580 C   0  0  0  0  0  0  0  0  0  0  0  0
  191.0300  177.3760  139.2370 C   0  0  2  0  0  3  0  0  0  0  0  0
  192.3390  176.9190  139.4000 O   0  0  0  0  0  1  0  0  0  0  0  0
  190.1170  176.7140  140.2590 C   0  0  0  0  0  2  0  0  0  0  0  0
  188.0920  179.2580  141.9190 O   0  0  0  0  0  1  0  0  0  0  0  0
  188.5470  178.5080  141.0160 C   0  0  0  0  0  0  0  0  0  0  0  0
  189.6910  177.6740  141.2700 N   0  0  0  0  0  0  0  0  0  0  0  0
  187.9290  178.4900  139.7690 O   0  0  0  0  0  0  0  0  0  0  0  0
  190.2560  177.5700  142.6160 C   0  0  0  0  0  0  0  0  0  0  0  0
  191.7540  177.3470  142.6630 C   0  0  0  0  0  2  0  0  0  0  0  0
  191.1690  178.7030  143.0320 C   0  0  0  0  0  2  0  0  0  0  0  0
  189.4510  176.8890  143.6780 C   0  0  0  0  0  0  0  0  0  0  0  0
  188.9040  175.8240  143.4440 O   0  0  0  0  0  0  0  0  0  0  0  0
  189.2600  177.5330  145.0060 C   0  0  0  0  0  1  0  0  0  0  0  0
  2  1  2  0  0  0  0
  2  6  1  0  0  0  0
  3 11  1  0  0  0  0
  4 10  1  0  0  0  0
  5 13  1  0  0  0  0
  6  5  1  0  0  0  0
  7 12  1  0  0  0  0
  8  5  2  0  0  0  0
  8 11  1  0  0  0  0
  9  7  2  0  0  0  0
 10 12  2  0  0  0  0
 10 14  1  0  0  0  0
 11  9  1  0  0  0  0
 13  9  1  0  0  0  0
 13  4  2  0  0  0  0
 14 15  1  0  0  0  0
 15 22  1  0  0  0  0
 16 23  1  0  0  0  0
 16 18  2  0  0  0  0
 18 17  1  0  0  0  0
 19 25  1  0  0  0  0
 19 20  1  0  0  0  0
 20 23  1  0  0  0  0
 21 20  2  0  0  0  0
 22 24  1  0  0  0  0
 22 26  2  0  0  0  0
 24 19  2  0  0  0  0
 25 16  1  0  0  0  0
 26 21  1  0  0  0  0
 27 28  1  0  0  0  0
 27  1  1  0  0  0  0
 28 36  1  6  0  0  0
 30 29  1  1  0  0  0
 30 28  1  0  0  0  0
 30 32  1  0  0  0  0
 32 31  1  1  0  0  0
 33 34  1  0  0  0  0
 33 32  1  0  0  0  0
 34 35  1  0  0  0  0
 36 37  1  0  0  0  0
 37 39  1  0  0  0  0
 38 39  2  0  0  0  0
 39 40  1  0  0  0  0
 40 41  1  6  0  0  0
 40 42  1  0  0  0  0
 42 45  1  0  0  0  0
 44 45  1  0  0  0  0
 44 43  1  0  0  0  0
 45 47  1  0  0  0  0
 46 44  2  0  0  0  0
 47 48  1  0  0  0  0
 47 49  1  0  0  0  0
 47 50  1  0  0  0  0
 48 49  1  0  0  0  0
 50 52  1  0  0  0  0
 51 50  2  0  0  0  0
M  END
>  <MODEL>
9

>  <REMARK>
 VINA RESULT:      -6.4      1.593      2.275
  Name = 
  17 active torsions:
  status: ('A' for Active; 'I' for Inactive)
    1  A    between atoms: C_1  and  C_3
    2  A    between atoms: C_1  and  C_12
    3  A    between atoms: C_1  and  S_40
    4  A    between atoms: C_2  and  C_10
    5  A    between atoms: C_2  and  N_37
    6  A    between atoms: C_3  and  N_4
    7  A    between atoms: C_5  and  S_40
    8  A    between atoms: C_7  and  C_16
    9  A    between atoms: C_9  and  N_20
   10  A    between atoms: C_9  and  C_34
   11  A    between atoms: C_12  and  C_49
   12  A    between atoms: C_13  and  C_27
   13  A    between atoms: C_13  and  C_36
   14  A    between atoms: C_16  and  C_49
   15  A    between atoms: N_18  and  C_19
   16  A    between atoms: N_20  and  C_39
   17  A    between atoms: C_27  and  N_37
                            x       y       z     vdW  Elec       q    Type
                         _______ _______ _______ _____ _____    ______ ____

>  <TORSDO>
F 17

$$$$
