=
 OpenBabel10232411073D

 39 43  0  0  1  0  0  0  0  0999 V2000
  185.6120  178.6590  146.5210 C   0  0  0  0  0  3  0  0  0  0  0  0
  187.8920  177.7880  146.6100 C   0  0  0  0  0  0  0  0  0  0  0  0
  190.1150  176.6490  145.3570 C   0  0  0  0  0  3  0  0  0  0  0  0
  189.0610  177.4860  147.3140 O   0  0  0  0  0  0  0  0  0  0  0  0
  185.4630  178.4340  145.2070 C   0  0  0  0  0  0  0  0  0  0  0  0
  187.8240  177.4970  145.1630 C   0  0  0  0  0  0  0  0  0  0  0  0
  190.1690  176.9170  146.6690 C   0  0  0  0  0  0  0  0  0  0  0  0
  186.8530  178.3300  147.2410 C   0  0  0  0  0  3  0  0  0  0  0  0
  188.8970  176.9450  144.5650 C   0  0  0  0  0  0  0  0  0  0  0  0
  186.5730  177.8210  144.3830 C   0  0  0  0  0  2  0  0  0  0  0  0
  192.9720  176.6650  148.9320 N   0  0  0  0  0  0  0  0  0  0  0  0
  191.3830  176.6210  147.4420 C   0  0  0  0  0  0  0  0  0  0  0  0
  192.2950  175.6180  147.1670 C   0  0  0  0  0  3  0  0  0  0  0  0
  191.8330  177.2780  148.5720 C   0  0  0  0  0  3  0  0  0  0  0  0
  193.2610  175.6740  148.1050 N   0  0  0  0  0  0  0  0  0  0  0  0
  193.7910  177.0280  150.0730 C   0  0  0  0  0  1  0  0  0  0  0  0
  190.1890  176.5410  141.1330 C   0  0  0  0  0  2  0  0  0  0  0  0
  190.1900  176.1240  142.5860 C   0  0  0  0  0  2  0  0  0  0  0  0
  189.3200  177.7150  141.0030 N   0  0  0  0  0  0  0  0  0  0  0  0
  188.5800  177.8610  142.2550 C   0  0  0  0  0  2  0  0  0  0  0  0
  188.8740  176.6390  143.0960 C   0  0  2  0  0  3  0  0  0  0  0  0
  188.3830  177.5750  139.8720 C   0  0  2  0  0  3  0  0  0  0  0  0
  189.3650  178.2440  137.6140 C   0  0  0  0  0  2  0  0  0  0  0  0
  190.7120  176.3150  135.4960 O   0  0  0  0  0  1  0  0  0  0  0  0
  189.0450  177.9090  136.1520 C   0  0  0  0  0  2  0  0  0  0  0  0
  189.3600  176.4490  135.8070 C   0  0  2  0  0  3  0  0  0  0  0  0
  189.0320  177.0750  138.5610 C   0  0  2  0  0  3  0  0  0  0  0  0
  189.0060  175.5000  136.9620 C   0  0  0  0  0  2  0  0  0  0  0  0
  188.1990  176.1410  137.9170 O   0  0  0  0  0  0  0  0  0  0  0  0
  187.6940  178.8420  139.6540 N   0  0  0  0  0  2  0  0  0  0  0  0
  185.7990  178.5190  138.6410 C   0  0  0  0  0  1  0  0  0  0  0  0
  186.3810  178.6280  139.9040 O   0  0  0  0  0  0  0  0  0  0  0  0
  184.1910  178.7910  144.5450 C   0  0  0  0  0  0  0  0  0  0  0  0
  183.2050  179.1790  145.2330 O   0  0  0  0  0  0  0  0  0  0  0  0
  182.8970  178.6770  142.4650 C   0  0  0  0  0  3  0  0  0  0  0  0
  184.0710  178.6980  143.0810 C   0  0  0  0  0  3  0  0  0  0  0  0
  182.8460  178.5800  140.9830 C   0  0  0  0  0  2  0  0  0  0  0  0
  181.5420  178.0950  140.5720 N   0  0  0  0  0  2  0  0  0  0  0  0
  180.5890  178.5900  141.5460 C   0  0  0  0  0  1  0  0  0  0  0  0
  1  8  1  0  0  0  0
  2  8  2  0  0  0  0
  2  4  1  0  0  0  0
  3  7  2  0  0  0  0
  5  1  2  0  0  0  0
  6  2  1  0  0  0  0
  7  4  1  0  0  0  0
  7 12  1  0  0  0  0
  9  6  2  0  0  0  0
  9  3  1  0  0  0  0
 10  6  1  0  0  0  0
 10  5  1  0  0  0  0
 11 16  1  0  0  0  0
 12 14  2  0  0  0  0
 13 12  1  0  0  0  0
 13 15  2  0  0  0  0
 14 11  1  0  0  0  0
 15 11  1  0  0  0  0
 17 18  1  0  0  0  0
 18 21  1  0  0  0  0
 19 17  1  0  0  0  0
 19 20  1  0  0  0  0
 20 21  1  0  0  0  0
 21  9  1  1  0  0  0
 22 30  1  6  0  0  0
 22 19  1  0  0  0  0
 23 27  1  0  0  0  0
 25 23  1  0  0  0  0
 26 24  1  1  0  0  0
 26 25  1  0  0  0  0
 26 28  1  0  0  0  0
 27 22  1  1  0  0  0
 28 29  1  0  0  0  0
 29 27  1  0  0  0  0
 30 32  1  0  0  0  0
 31 32  1  0  0  0  0
 33  5  1  0  0  0  0
 33 34  2  0  0  0  0
 35 36  2  0  0  0  0
 36 33  1  0  0  0  0
 37 35  1  0  0  0  0
 38 37  1  0  0  0  0
 38 39  1  0  0  0  0
M  END
>  <MODEL>
1

>  <REMARK>
 VINA RESULT:      -9.4      0.000      0.000
  Name = 
  10 active torsions:
  status: ('A' for Active; 'I' for Inactive)
    1  A    between atoms: N_7  and  C_10
    2  A    between atoms: C_8  and  C_17
    3  A    between atoms: C_8  and  C_28
    4  A    between atoms: C_9  and  C_10
    5  A    between atoms: N_12  and  O_20
    6  A    between atoms: N_12  and  C_24
    7  A    between atoms: C_18  and  C_24
    8  A    between atoms: N_21  and  C_24
    9  A    between atoms: C_22  and  C_27
   10  A    between atoms: C_33  and  C_36
                            x       y       z     vdW  Elec       q    Type
                         _______ _______ _______ _____ _____    ______ ____

>  <TORSDO>
F 10

$$$$
=
 OpenBabel10232411073D

 39 43  0  0  1  0  0  0  0  0999 V2000
  186.4390  178.1510  138.5640 C   0  0  0  0  0  3  0  0  0  0  0  0
  188.7330  177.3290  138.7210 C   0  0  1  0  0  3  0  0  0  0  0  0
  191.0260  176.7790  140.2200 C   0  0  0  0  0  3  0  0  0  0  0  0
  189.8800  176.7820  138.1400 O   0  0  0  0  0  0  0  0  0  0  0  0
  186.3430  178.4500  139.8680 C   0  0  0  0  0  0  0  0  0  0  0  0
  188.7290  177.6290  140.1680 C   0  0  0  0  0  0  0  0  0  0  0  0
  191.0220  176.5100  138.9080 C   0  0  0  0  0  0  0  0  0  0  0  0
  187.6600  177.5770  137.9750 C   0  0  0  0  0  3  0  0  0  0  0  0
  189.8370  177.3650  140.8850 C   0  0  0  0  0  0  0  0  0  0  0  0
  187.4970  178.2150  140.8170 C   0  0  0  0  0  3  0  0  0  0  0  0
  193.5570  174.5960  137.1880 N   0  0  0  0  0  0  0  0  0  0  0  0
  192.2070  175.9270  138.2620 C   0  0  0  0  0  0  0  0  0  0  0  0
  193.4570  176.5120  138.1820 C   0  0  0  0  0  3  0  0  0  0  0  0
  192.2910  174.7040  137.6220 C   0  0  0  0  0  3  0  0  0  0  0  0
  194.2640  175.6650  137.5140 N   0  0  0  0  0  0  0  0  0  0  0  0
  194.0960  173.4650  136.4580 C   0  0  0  0  0  1  0  0  0  0  0  0
  191.0690  178.7520  144.0740 C   0  0  0  0  0  2  0  0  0  0  0  0
  190.5150  178.9680  142.6850 C   0  0  0  0  0  2  0  0  0  0  0  0
  191.3130  177.3160  144.2430 N   0  0  0  0  0  0  0  0  0  0  0  0
  190.6780  176.6230  143.1250 C   0  0  0  0  0  2  0  0  0  0  0  0
  189.8740  177.6480  142.3580 C   0  0  2  0  0  3  0  0  0  0  0  0
  190.7730  176.8200  145.5230 C   0  0  2  0  0  3  0  0  0  0  0  0
  189.4000  177.5880  147.5320 C   0  0  0  0  0  2  0  0  0  0  0  0
  186.7180  179.2690  147.4530 O   0  0  0  0  0  1  0  0  0  0  0  0
  187.9790  177.3150  148.0400 C   0  0  0  0  0  2  0  0  0  0  0  0
  186.9070  177.9260  147.1290 C   0  0  2  0  0  3  0  0  0  0  0  0
  189.4840  177.5320  145.9940 C   0  0  2  0  0  3  0  0  0  0  0  0
  187.2840  177.8080  145.6450 C   0  0  0  0  0  2  0  0  0  0  0  0
  188.3430  176.9030  145.4610 O   0  0  0  0  0  0  0  0  0  0  0  0
  191.8070  176.8980  146.5480 N   0  0  0  0  0  2  0  0  0  0  0  0
  192.7200  175.6520  148.0780 C   0  0  0  0  0  1  0  0  0  0  0  0
  192.2450  175.6350  146.7670 O   0  0  0  0  0  0  0  0  0  0  0  0
  185.0860  179.0220  140.3950 C   0  0  0  0  0  0  0  0  0  0  0  0
  184.5150  179.9690  139.7850 O   0  0  0  0  0  0  0  0  0  0  0  0
  184.6300  179.0950  142.8040 C   0  0  0  0  0  3  0  0  0  0  0  0
  184.4960  178.4870  141.6330 C   0  0  0  0  0  3  0  0  0  0  0  0
  184.0110  178.5000  144.0170 C   0  0  0  0  0  2  0  0  0  0  0  0
  182.9080  179.3320  144.4580 N   0  0  0  0  0  2  0  0  0  0  0  0
  181.6970  178.7220  143.9430 C   0  0  0  0  0  1  0  0  0  0  0  0
  1  5  1  0  0  0  0
  2  8  1  6  0  0  0
  2  6  1  0  0  0  0
  3  9  1  0  0  0  0
  4  2  1  0  0  0  0
  4  7  1  0  0  0  0
  5 33  1  0  0  0  0
  5 10  2  0  0  0  0
  6 10  1  0  0  0  0
  6  9  2  0  0  0  0
  7  3  2  0  0  0  0
  8  1  2  0  0  0  0
 11 15  1  0  0  0  0
 11 14  1  0  0  0  0
 12  7  1  0  0  0  0
 13 12  1  0  0  0  0
 14 12  2  0  0  0  0
 15 13  2  0  0  0  0
 16 11  1  0  0  0  0
 17 19  1  0  0  0  0
 18 17  1  0  0  0  0
 19 22  1  0  0  0  0
 20 19  1  0  0  0  0
 21  9  1  6  0  0  0
 21 18  1  0  0  0  0
 21 20  1  0  0  0  0
 22 30  1  1  0  0  0
 23 25  1  0  0  0  0
 26 24  1  1  0  0  0
 26 25  1  0  0  0  0
 27 22  1  1  0  0  0
 27 23  1  0  0  0  0
 28 26  1  0  0  0  0
 29 28  1  0  0  0  0
 29 27  1  0  0  0  0
 30 32  1  0  0  0  0
 32 31  1  0  0  0  0
 33 36  1  0  0  0  0
 34 33  2  0  0  0  0
 35 37  1  0  0  0  0
 36 35  2  0  0  0  0
 37 38  1  0  0  0  0
 39 38  1  0  0  0  0
M  END
>  <MODEL>
2

>  <REMARK>
 VINA RESULT:      -9.4      2.669      7.915
  Name = 
  10 active torsions:
  status: ('A' for Active; 'I' for Inactive)
    1  A    between atoms: N_7  and  C_10
    2  A    between atoms: C_8  and  C_17
    3  A    between atoms: C_8  and  C_28
    4  A    between atoms: C_9  and  C_10
    5  A    between atoms: N_12  and  O_20
    6  A    between atoms: N_12  and  C_24
    7  A    between atoms: C_18  and  C_24
    8  A    between atoms: N_21  and  C_24
    9  A    between atoms: C_22  and  C_27
   10  A    between atoms: C_33  and  C_36
                            x       y       z     vdW  Elec       q    Type
                         _______ _______ _______ _____ _____    ______ ____

>  <TORSDO>
F 10

$$$$
=
 OpenBabel10232411073D

 39 43  0  0  1  0  0  0  0  0999 V2000
  185.9060  178.5480  147.1960 C   0  0  0  0  0  3  0  0  0  0  0  0
  184.7620  178.5720  145.0390 C   0  0  1  0  0  3  0  0  0  0  0  0
  184.7550  178.1310  142.2790 C   0  0  0  0  0  3  0  0  0  0  0  0
  183.6280  178.8090  144.2560 O   0  0  0  0  0  0  0  0  0  0  0  0
  187.0660  178.0930  146.6970 C   0  0  0  0  0  0  0  0  0  0  0  0
  185.9940  178.0750  144.3920 C   0  0  0  0  0  0  0  0  0  0  0  0
  183.6420  178.5810  142.8720 C   0  0  0  0  0  0  0  0  0  0  0  0
  184.7270  178.7930  146.3500 C   0  0  0  0  0  3  0  0  0  0  0  0
  185.9870  177.8680  143.0620 C   0  0  0  0  0  0  0  0  0  0  0  0
  187.2280  177.8060  145.2200 C   0  0  0  0  0  3  0  0  0  0  0  0
  181.0120  179.0640  140.4450 N   0  0  0  0  0  0  0  0  0  0  0  0
  182.4270  178.8360  142.0850 C   0  0  0  0  0  0  0  0  0  0  0  0
  181.1980  179.2160  142.5920 C   0  0  0  0  0  3  0  0  0  0  0  0
  182.2880  178.7440  140.7130 C   0  0  0  0  0  3  0  0  0  0  0  0
  180.3490  179.3470  141.5540 N   0  0  0  0  0  0  0  0  0  0  0  0
  180.4200  179.0990  139.1210 C   0  0  0  0  0  1  0  0  0  0  0  0
  189.4240  176.5790  142.6930 C   0  0  0  0  0  2  0  0  0  0  0  0
  188.0160  176.4100  143.2160 C   0  0  0  0  0  2  0  0  0  0  0  0
  189.5290  177.9190  142.1060 N   0  0  0  0  0  0  0  0  0  0  0  0
  188.1780  178.4660  142.0030 C   0  0  0  0  0  2  0  0  0  0  0  0
  187.2150  177.3580  142.3660 C   0  0  2  0  0  3  0  0  0  0  0  0
  190.1660  177.8820  140.7760 C   0  0  2  0  0  3  0  0  0  0  0  0
  189.6710  176.2900  138.8440 C   0  0  0  0  0  2  0  0  0  0  0  0
  187.1250  176.3410  136.9620 O   0  0  0  0  0  1  0  0  0  0  0  0
  189.4930  176.4490  137.3290 C   0  0  0  0  0  2  0  0  0  0  0  0
  188.2130  177.2130  136.9700 C   0  0  2  0  0  3  0  0  0  0  0  0
  189.2040  177.5410  139.6150 C   0  0  2  0  0  3  0  0  0  0  0  0
  187.9400  178.3620  137.9520 C   0  0  0  0  0  2  0  0  0  0  0  0
  189.0690  178.6360  138.7410 O   0  0  0  0  0  0  0  0  0  0  0  0
  191.2890  176.9530  140.8030 N   0  0  0  0  0  2  0  0  0  0  0  0
  193.1280  177.2120  139.6740 C   0  0  0  0  0  1  0  0  0  0  0  0
  192.4200  177.6970  140.7730 O   0  0  0  0  0  0  0  0  0  0  0  0
  188.2110  177.8660  147.6020 C   0  0  0  0  0  0  0  0  0  0  0  0
  188.0200  177.7140  148.8410 O   0  0  0  0  0  0  0  0  0  0  0  0
  190.1860  176.6680  146.7750 C   0  0  0  0  0  3  0  0  0  0  0  0
  189.5790  177.8130  147.0600 C   0  0  0  0  0  3  0  0  0  0  0  0
  191.5690  176.6850  146.2330 C   0  0  0  0  0  2  0  0  0  0  0  0
  192.2940  175.5250  146.7140 N   0  0  0  0  0  2  0  0  0  0  0  0
  192.6000  175.7750  148.1100 C   0  0  0  0  0  1  0  0  0  0  0  0
  2  8  1  6  0  0  0
  3  7  2  0  0  0  0
  3  9  1  0  0  0  0
  4  2  1  0  0  0  0
  5  1  1  0  0  0  0
  5 33  1  0  0  0  0
  6  2  1  0  0  0  0
  6 10  1  0  0  0  0
  7  4  1  0  0  0  0
  8  1  2  0  0  0  0
  9  6  2  0  0  0  0
 10  5  2  0  0  0  0
 11 14  1  0  0  0  0
 11 15  1  0  0  0  0
 12 13  1  0  0  0  0
 12  7  1  0  0  0  0
 14 12  2  0  0  0  0
 15 13  2  0  0  0  0
 16 11  1  0  0  0  0
 17 18  1  0  0  0  0
 19 17  1  0  0  0  0
 20 19  1  0  0  0  0
 20 21  1  0  0  0  0
 21  9  1  1  0  0  0
 21 18  1  0  0  0  0
 22 30  1  1  0  0  0
 22 19  1  0  0  0  0
 23 27  1  0  0  0  0
 25 23  1  0  0  0  0
 26 24  1  1  0  0  0
 26 25  1  0  0  0  0
 26 28  1  0  0  0  0
 27 22  1  1  0  0  0
 28 29  1  0  0  0  0
 29 27  1  0  0  0  0
 31 32  1  0  0  0  0
 32 30  1  0  0  0  0
 33 34  2  0  0  0  0
 35 36  2  0  0  0  0
 36 33  1  0  0  0  0
 37 38  1  0  0  0  0
 37 35  1  0  0  0  0
 38 39  1  0  0  0  0
M  END
>  <MODEL>
3

>  <REMARK>
 VINA RESULT:      -9.1      1.615      7.479
  Name = 
  10 active torsions:
  status: ('A' for Active; 'I' for Inactive)
    1  A    between atoms: N_7  and  C_10
    2  A    between atoms: C_8  and  C_17
    3  A    between atoms: C_8  and  C_28
    4  A    between atoms: C_9  and  C_10
    5  A    between atoms: N_12  and  O_20
    6  A    between atoms: N_12  and  C_24
    7  A    between atoms: C_18  and  C_24
    8  A    between atoms: N_21  and  C_24
    9  A    between atoms: C_22  and  C_27
   10  A    between atoms: C_33  and  C_36
                            x       y       z     vdW  Elec       q    Type
                         _______ _______ _______ _____ _____    ______ ____

>  <TORSDO>
F 10

$$$$
=
 OpenBabel10232411073D

 39 43  0  0  1  0  0  0  0  0999 V2000
  185.8350  178.4130  147.1700 C   0  0  0  0  0  3  0  0  0  0  0  0
  184.6640  178.5320  145.0300 C   0  0  1  0  0  3  0  0  0  0  0  0
  184.6480  178.2950  142.2460 C   0  0  0  0  0  3  0  0  0  0  0  0
  183.5100  178.7640  144.2770 O   0  0  0  0  0  0  0  0  0  0  0  0
  187.0110  178.0600  146.6290 C   0  0  0  0  0  0  0  0  0  0  0  0
  185.9140  178.1520  144.3390 C   0  0  0  0  0  0  0  0  0  0  0  0
  183.5190  178.6380  142.8800 C   0  0  0  0  0  0  0  0  0  0  0  0
  184.6330  178.6540  146.3550 C   0  0  0  0  0  3  0  0  0  0  0  0
  185.9010  178.0430  142.9970 C   0  0  0  0  0  0  0  0  0  0  0  0
  187.1710  177.8910  145.1350 C   0  0  0  0  0  3  0  0  0  0  0  0
  180.8240  179.0970  140.5200 N   0  0  0  0  0  0  0  0  0  0  0  0
  182.2830  178.8830  142.1240 C   0  0  0  0  0  0  0  0  0  0  0  0
  181.0650  179.2580  142.6610 C   0  0  0  0  0  3  0  0  0  0  0  0
  182.1090  178.7860  140.7560 C   0  0  0  0  0  3  0  0  0  0  0  0
  180.1890  179.3800  141.6450 N   0  0  0  0  0  0  0  0  0  0  0  0
  180.1980  179.1240  139.2120 C   0  0  0  0  0  1  0  0  0  0  0  0
  189.4850  177.9800  142.1230 C   0  0  0  0  0  2  0  0  0  0  0  0
  188.3790  177.7060  143.1150 C   0  0  0  0  0  2  0  0  0  0  0  0
  188.8940  178.6650  140.9690 N   0  0  0  0  0  0  0  0  0  0  0  0
  187.4420  178.5740  141.0940 C   0  0  0  0  0  2  0  0  0  0  0  0
  187.1460  177.6530  142.2560 C   0  0  2  0  0  3  0  0  0  0  0  0
  189.3340  178.0640  139.6950 C   0  0  2  0  0  3  0  0  0  0  0  0
  188.4480  176.3220  138.0540 C   0  0  0  0  0  2  0  0  0  0  0  0
  185.6460  176.3700  136.5820 O   0  0  0  0  0  1  0  0  0  0  0  0
  188.0440  176.3350  136.5750 C   0  0  0  0  0  2  0  0  0  0  0  0
  186.7710  177.1530  136.3260 C   0  0  2  0  0  3  0  0  0  0  0  0
  188.1830  177.6780  138.7380 C   0  0  2  0  0  3  0  0  0  0  0  0
  186.7240  178.4150  137.2000 C   0  0  0  0  0  2  0  0  0  0  0  0
  187.9780  178.6830  137.7740 O   0  0  0  0  0  0  0  0  0  0  0  0
  190.1820  176.9100  139.9720 N   0  0  0  0  0  2  0  0  0  0  0  0
  191.8360  176.5380  138.6120 C   0  0  0  0  0  1  0  0  0  0  0  0
  191.4590  177.2870  139.7260 O   0  0  0  0  0  0  0  0  0  0  0  0
  188.1780  177.8300  147.5060 C   0  0  0  0  0  0  0  0  0  0  0  0
  188.0300  177.7810  148.7600 O   0  0  0  0  0  0  0  0  0  0  0  0
  190.2690  176.5930  147.1730 C   0  0  0  0  0  3  0  0  0  0  0  0
  189.5160  177.6550  146.9190 C   0  0  0  0  0  3  0  0  0  0  0  0
  191.6130  176.4780  146.5500 C   0  0  0  0  0  2  0  0  0  0  0  0
  191.5960  177.0970  145.2380 N   0  0  0  0  0  2  0  0  0  0  0  0
  191.6060  176.0190  144.2690 C   0  0  0  0  0  1  0  0  0  0  0  0
  2  8  1  6  0  0  0
  3  7  2  0  0  0  0
  3  9  1  0  0  0  0
  4  2  1  0  0  0  0
  5  1  1  0  0  0  0
  5 33  1  0  0  0  0
  6  2  1  0  0  0  0
  6 10  1  0  0  0  0
  7  4  1  0  0  0  0
  8  1  2  0  0  0  0
  9  6  2  0  0  0  0
 10  5  2  0  0  0  0
 11 14  1  0  0  0  0
 11 15  1  0  0  0  0
 12 13  1  0  0  0  0
 12  7  1  0  0  0  0
 14 12  2  0  0  0  0
 15 13  2  0  0  0  0
 16 11  1  0  0  0  0
 17 18  1  0  0  0  0
 19 20  1  0  0  0  0
 19 17  1  0  0  0  0
 20 21  1  0  0  0  0
 21  9  1  1  0  0  0
 21 18  1  0  0  0  0
 22 30  1  1  0  0  0
 22 19  1  0  0  0  0
 23 27  1  0  0  0  0
 25 23  1  0  0  0  0
 26 25  1  0  0  0  0
 26 24  1  1  0  0  0
 26 28  1  0  0  0  0
 27 22  1  6  0  0  0
 28 29  1  0  0  0  0
 29 27  1  0  0  0  0
 31 32  1  0  0  0  0
 32 30  1  0  0  0  0
 33 34  2  0  0  0  0
 36 35  2  0  0  0  0
 36 33  1  0  0  0  0
 37 35  1  0  0  0  0
 38 37  1  0  0  0  0
 39 38  1  0  0  0  0
M  END
>  <MODEL>
4

>  <REMARK>
 VINA RESULT:      -9.1      1.865      7.343
  Name = 
  10 active torsions:
  status: ('A' for Active; 'I' for Inactive)
    1  A    between atoms: N_7  and  C_10
    2  A    between atoms: C_8  and  C_17
    3  A    between atoms: C_8  and  C_28
    4  A    between atoms: C_9  and  C_10
    5  A    between atoms: N_12  and  O_20
    6  A    between atoms: N_12  and  C_24
    7  A    between atoms: C_18  and  C_24
    8  A    between atoms: N_21  and  C_24
    9  A    between atoms: C_22  and  C_27
   10  A    between atoms: C_33  and  C_36
                            x       y       z     vdW  Elec       q    Type
                         _______ _______ _______ _____ _____    ______ ____

>  <TORSDO>
F 10

$$$$
=
 OpenBabel10232411073D

 39 43  0  0  1  0  0  0  0  0999 V2000
  185.0790  178.8370  140.9240 C   0  0  0  0  0  3  0  0  0  0  0  0
  187.2910  178.1340  140.1650 C   0  0  2  0  0  3  0  0  0  0  0  0
  189.9680  177.5280  140.6910 C   0  0  0  0  0  3  0  0  0  0  0  0
  188.1670  177.7290  139.1550 O   0  0  0  0  0  0  0  0  0  0  0  0
  185.4420  178.9640  142.2090 C   0  0  0  0  0  0  0  0  0  0  0  0
  187.7890  178.2460  141.5510 C   0  0  0  0  0  0  0  0  0  0  0  0
  189.5080  177.4270  139.4360 C   0  0  0  0  0  0  0  0  0  0  0  0
  186.0220  178.4120  139.8770 C   0  0  0  0  0  3  0  0  0  0  0  0
  189.0810  177.9580  141.7980 C   0  0  0  0  0  0  0  0  0  0  0  0
  186.8570  178.6750  142.6590 C   0  0  0  0  0  3  0  0  0  0  0  0
  192.1030  176.2520  137.2150 N   0  0  0  0  0  0  0  0  0  0  0  0
  190.3970  176.9990  138.3470 C   0  0  0  0  0  0  0  0  0  0  0  0
  190.0900  177.0080  136.9990 C   0  0  0  0  0  3  0  0  0  0  0  0
  191.6860  176.5130  138.4650 C   0  0  0  0  0  3  0  0  0  0  0  0
  191.1630  176.5420  136.3310 N   0  0  0  0  0  0  0  0  0  0  0  0
  193.4060  175.7230  136.8630 C   0  0  0  0  0  1  0  0  0  0  0  0
  191.6020  177.9760  144.4930 C   0  0  0  0  0  2  0  0  0  0  0  0
  191.0300  178.5910  143.2360 C   0  0  0  0  0  2  0  0  0  0  0  0
  190.8700  176.7330  144.7580 N   0  0  0  0  0  0  0  0  0  0  0  0
  189.7040  176.7070  143.8780 C   0  0  0  0  0  2  0  0  0  0  0  0
  189.6270  178.0530  143.1930 C   0  0  2  0  0  3  0  0  0  0  0  0
  190.4460  176.6420  146.1680 C   0  0  2  0  0  3  0  0  0  0  0  0
  189.3090  178.0040  148.0030 C   0  0  0  0  0  2  0  0  0  0  0  0
  186.7120  179.7880  147.6950 O   0  0  0  0  0  1  0  0  0  0  0  0
  187.9330  177.9730  148.6790 C   0  0  0  0  0  2  0  0  0  0  0  0
  186.8070  178.3970  147.7280 C   0  0  2  0  0  3  0  0  0  0  0  0
  189.2420  177.5410  146.5340 C   0  0  2  0  0  3  0  0  0  0  0  0
  187.0330  177.8670  146.3040 C   0  0  0  0  0  2  0  0  0  0  0  0
  188.0280  176.8750  146.2830 O   0  0  0  0  0  0  0  0  0  0  0  0
  191.5830  176.9270  147.0360 N   0  0  0  0  0  2  0  0  0  0  0  0
  192.7600  175.8910  148.5400 C   0  0  0  0  0  1  0  0  0  0  0  0
  192.2100  175.7500  147.2660 O   0  0  0  0  0  0  0  0  0  0  0  0
  184.4440  179.3920  143.2110 C   0  0  0  0  0  0  0  0  0  0  0  0
  184.7280  180.3000  144.0420 O   0  0  0  0  0  0  0  0  0  0  0  0
  182.0150  179.4390  143.5480 C   0  0  0  0  0  3  0  0  0  0  0  0
  183.1140  178.7620  143.2410 C   0  0  0  0  0  3  0  0  0  0  0  0
  180.7030  178.7430  143.5620 C   0  0  0  0  0  2  0  0  0  0  0  0
  180.1950  178.6330  142.2080 N   0  0  0  0  0  2  0  0  0  0  0  0
  179.9850  179.9870  141.7320 C   0  0  0  0  0  1  0  0  0  0  0  0
  1  5  1  0  0  0  0
  2  8  1  1  0  0  0
  2  6  1  0  0  0  0
  3  9  1  0  0  0  0
  4  7  1  0  0  0  0
  4  2  1  0  0  0  0
  5 10  2  0  0  0  0
  5 33  1  0  0  0  0
  6  9  2  0  0  0  0
  6 10  1  0  0  0  0
  7  3  2  0  0  0  0
  8  1  2  0  0  0  0
 11 14  1  0  0  0  0
 12 14  2  0  0  0  0
 12  7  1  0  0  0  0
 13 12  1  0  0  0  0
 15 13  2  0  0  0  0
 15 11  1  0  0  0  0
 16 11  1  0  0  0  0
 17 19  1  0  0  0  0
 18 17  1  0  0  0  0
 19 22  1  0  0  0  0
 20 19  1  0  0  0  0
 21  9  1  6  0  0  0
 21 18  1  0  0  0  0
 21 20  1  0  0  0  0
 22 30  1  1  0  0  0
 23 25  1  0  0  0  0
 26 24  1  6  0  0  0
 26 25  1  0  0  0  0
 27 22  1  1  0  0  0
 27 23  1  0  0  0  0
 28 26  1  0  0  0  0
 29 28  1  0  0  0  0
 29 27  1  0  0  0  0
 30 32  1  0  0  0  0
 32 31  1  0  0  0  0
 33 36  1  0  0  0  0
 33 34  2  0  0  0  0
 35 37  1  0  0  0  0
 36 35  2  0  0  0  0
 38 37  1  0  0  0  0
 39 38  1  0  0  0  0
M  END
>  <MODEL>
5

>  <REMARK>
 VINA RESULT:      -8.6      2.264      7.735
  Name = 
  10 active torsions:
  status: ('A' for Active; 'I' for Inactive)
    1  A    between atoms: N_7  and  C_10
    2  A    between atoms: C_8  and  C_17
    3  A    between atoms: C_8  and  C_28
    4  A    between atoms: C_9  and  C_10
    5  A    between atoms: N_12  and  O_20
    6  A    between atoms: N_12  and  C_24
    7  A    between atoms: C_18  and  C_24
    8  A    between atoms: N_21  and  C_24
    9  A    between atoms: C_22  and  C_27
   10  A    between atoms: C_33  and  C_36
                            x       y       z     vdW  Elec       q    Type
                         _______ _______ _______ _____ _____    ______ ____

>  <TORSDO>
F 10

$$$$
=
 OpenBabel10232411073D

 39 43  0  0  1  0  0  0  0  0999 V2000
  184.4480  178.7870  145.0800 C   0  0  0  0  0  3  0  0  0  0  0  0
  186.7470  178.1160  145.5580 C   0  0  0  0  0  0  0  0  0  0  0  0
  189.2170  177.1150  144.7180 C   0  0  0  0  0  3  0  0  0  0  0  0
  187.8140  177.9470  146.4440 O   0  0  0  0  0  0  0  0  0  0  0  0
  184.5190  178.4910  143.7730 C   0  0  0  0  0  0  0  0  0  0  0  0
  186.9250  177.7560  144.1360 C   0  0  0  0  0  0  0  0  0  0  0  0
  189.0480  177.4450  146.0050 C   0  0  0  0  0  0  0  0  0  0  0  0
  185.5850  178.5970  145.9940 C   0  0  0  0  0  3  0  0  0  0  0  0
  188.1150  177.2710  143.7370 C   0  0  0  0  0  0  0  0  0  0  0  0
  185.7860  177.9370  143.1600 C   0  0  0  0  0  2  0  0  0  0  0  0
  191.9110  176.5640  148.0230 N   0  0  0  0  0  0  0  0  0  0  0  0
  190.1480  177.2880  146.9670 C   0  0  0  0  0  0  0  0  0  0  0  0
  190.3970  178.1050  148.0550 C   0  0  0  0  0  3  0  0  0  0  0  0
  191.1250  176.3100  146.9640 C   0  0  0  0  0  3  0  0  0  0  0  0
  191.4900  177.6300  148.6830 N   0  0  0  0  0  0  0  0  0  0  0  0
  193.0710  175.7840  148.4080 C   0  0  0  0  0  1  0  0  0  0  0  0
  189.9610  176.7650  140.5830 C   0  0  0  0  0  2  0  0  0  0  0  0
  189.7400  176.4140  142.0360 C   0  0  0  0  0  2  0  0  0  0  0  0
  189.0870  177.8960  140.2550 N   0  0  0  0  0  0  0  0  0  0  0  0
  188.1500  178.0680  141.3630 C   0  0  0  0  0  2  0  0  0  0  0  0
  188.3410  176.8990  142.3010 C   0  0  2  0  0  3  0  0  0  0  0  0
  188.3520  177.6680  138.9970 C   0  0  2  0  0  3  0  0  0  0  0  0
  189.8770  177.3640  136.9740 C   0  0  0  0  0  2  0  0  0  0  0  0
  190.8660  174.6150  135.7520 O   0  0  0  0  0  1  0  0  0  0  0  0
  189.7250  176.7180  135.5910 C   0  0  0  0  0  2  0  0  0  0  0  0
  189.5990  175.1930  135.6700 C   0  0  2  0  0  3  0  0  0  0  0  0
  189.0190  176.6530  138.0390 C   0  0  2  0  0  3  0  0  0  0  0  0
  188.7580  174.7510  136.8770 C   0  0  0  0  0  2  0  0  0  0  0  0
  188.0530  175.8340  137.4270 O   0  0  0  0  0  0  0  0  0  0  0  0
  188.1350  178.9440  138.3240 N   0  0  0  0  0  2  0  0  0  0  0  0
  185.9950  178.5680  138.3580 C   0  0  0  0  0  1  0  0  0  0  0  0
  187.0730  178.7820  137.5000 O   0  0  0  0  0  0  0  0  0  0  0  0
  183.3400  178.7090  142.9100 C   0  0  0  0  0  0  0  0  0  0  0  0
  182.3730  179.4100  143.3210 O   0  0  0  0  0  0  0  0  0  0  0  0
  182.6380  178.6770  140.5600 C   0  0  0  0  0  3  0  0  0  0  0  0
  183.2910  178.1100  141.5660 C   0  0  0  0  0  3  0  0  0  0  0  0
  182.6260  178.0200  139.2280 C   0  0  0  0  0  2  0  0  0  0  0  0
  182.6690  176.5800  139.3950 N   0  0  0  0  0  2  0  0  0  0  0  0
  182.5010  176.0030  138.0750 C   0  0  0  0  0  1  0  0  0  0  0  0
  1  8  1  0  0  0  0
  2  8  2  0  0  0  0
  2  4  1  0  0  0  0
  3  7  2  0  0  0  0
  5  1  2  0  0  0  0
  6  2  1  0  0  0  0
  7  4  1  0  0  0  0
  7 12  1  0  0  0  0
  9  6  2  0  0  0  0
  9  3  1  0  0  0  0
 10  5  1  0  0  0  0
 10  6  1  0  0  0  0
 11 16  1  0  0  0  0
 11 15  1  0  0  0  0
 12 13  1  0  0  0  0
 13 15  2  0  0  0  0
 14 12  2  0  0  0  0
 14 11  1  0  0  0  0
 17 18  1  0  0  0  0
 18 21  1  0  0  0  0
 19 17  1  0  0  0  0
 19 20  1  0  0  0  0
 20 21  1  0  0  0  0
 21  9  1  1  0  0  0
 22 30  1  6  0  0  0
 22 19  1  0  0  0  0
 23 27  1  0  0  0  0
 25 26  1  0  0  0  0
 25 23  1  0  0  0  0
 26 24  1  1  0  0  0
 26 28  1  0  0  0  0
 27 22  1  6  0  0  0
 28 29  1  0  0  0  0
 29 27  1  0  0  0  0
 32 30  1  0  0  0  0
 32 31  1  0  0  0  0
 33 34  2  0  0  0  0
 33  5  1  0  0  0  0
 35 36  2  0  0  0  0
 36 33  1  0  0  0  0
 37 38  1  0  0  0  0
 37 35  1  0  0  0  0
 39 38  1  0  0  0  0
M  END
>  <MODEL>
6

>  <REMARK>
 VINA RESULT:      -8.3      1.359      1.773
  Name = 
  10 active torsions:
  status: ('A' for Active; 'I' for Inactive)
    1  A    between atoms: N_7  and  C_10
    2  A    between atoms: C_8  and  C_17
    3  A    between atoms: C_8  and  C_28
    4  A    between atoms: C_9  and  C_10
    5  A    between atoms: N_12  and  O_20
    6  A    between atoms: N_12  and  C_24
    7  A    between atoms: C_18  and  C_24
    8  A    between atoms: N_21  and  C_24
    9  A    between atoms: C_22  and  C_27
   10  A    between atoms: C_33  and  C_36
                            x       y       z     vdW  Elec       q    Type
                         _______ _______ _______ _____ _____    ______ ____

>  <TORSDO>
F 10

$$$$
=
 OpenBabel10232411073D

 39 43  0  0  1  0  0  0  0  0999 V2000
  184.6140  179.0840  142.9280 C   0  0  0  0  0  3  0  0  0  0  0  0
  186.6900  178.2800  143.9310 C   0  0  0  0  0  0  0  0  0  0  0  0
  189.2320  177.1470  143.6910 C   0  0  0  0  0  3  0  0  0  0  0  0
  187.5000  178.0430  145.0450 O   0  0  0  0  0  0  0  0  0  0  0  0
  184.9830  178.7950  141.6710 C   0  0  0  0  0  0  0  0  0  0  0  0
  187.1870  177.9220  142.5870 C   0  0  0  0  0  0  0  0  0  0  0  0
  188.7750  177.4750  144.9060 C   0  0  0  0  0  0  0  0  0  0  0  0
  185.4840  178.8230  144.0850 C   0  0  0  0  0  3  0  0  0  0  0  0
  188.4110  177.3720  142.4770 C   0  0  0  0  0  0  0  0  0  0  0  0
  186.3300  178.1750  141.3700 C   0  0  0  0  0  2  0  0  0  0  0  0
  191.1760  176.5990  147.4580 N   0  0  0  0  0  0  0  0  0  0  0  0
  189.6000  177.2480  146.1010 C   0  0  0  0  0  0  0  0  0  0  0  0
  189.3270  177.7130  147.3750 C   0  0  0  0  0  3  0  0  0  0  0  0
  190.7850  176.5390  146.1750 C   0  0  0  0  0  3  0  0  0  0  0  0
  190.3180  177.2960  148.1850 N   0  0  0  0  0  0  0  0  0  0  0  0
  192.3780  175.9890  147.9930 C   0  0  0  0  0  1  0  0  0  0  0  0
  190.8720  177.0810  139.7430 C   0  0  0  0  0  2  0  0  0  0  0  0
  190.4390  176.7420  141.1520 C   0  0  0  0  0  2  0  0  0  0  0  0
  189.9090  178.0420  139.1960 N   0  0  0  0  0  0  0  0  0  0  0  0
  188.7660  178.0920  140.1040 C   0  0  0  0  0  2  0  0  0  0  0  0
  188.9570  176.9990  141.1300 C   0  0  2  0  0  3  0  0  0  0  0  0
  189.4680  177.6590  137.8420 C   0  0  2  0  0  3  0  0  0  0  0  0
  187.7660  175.8250  137.3400 C   0  0  0  0  0  2  0  0  0  0  0  0
  184.6160  176.0610  137.5640 O   0  0  0  0  0  1  0  0  0  0  0  0
  186.6290  175.6510  136.3260 C   0  0  0  0  0  2  0  0  0  0  0  0
  185.4580  176.6030  136.5940 C   0  0  2  0  0  3  0  0  0  0  0  0
  187.9670  177.3010  137.7340 C   0  0  2  0  0  3  0  0  0  0  0  0
  185.9410  177.9870  137.0540 C   0  0  0  0  0  2  0  0  0  0  0  0
  187.3170  178.1480  136.8180 O   0  0  0  0  0  0  0  0  0  0  0  0
  190.2940  176.5600  137.3560 N   0  0  0  0  0  2  0  0  0  0  0  0
  191.4050  175.7710  135.6630 C   0  0  0  0  0  1  0  0  0  0  0  0
  190.5740  176.8190  136.0560 O   0  0  0  0  0  0  0  0  0  0  0  0
  184.0620  179.0860  140.5530 C   0  0  0  0  0  0  0  0  0  0  0  0
  184.4340  179.8280  139.6010 O   0  0  0  0  0  0  0  0  0  0  0  0
  182.4260  177.3660  139.9380 C   0  0  0  0  0  3  0  0  0  0  0  0
  182.7070  178.5100  140.5470 C   0  0  0  0  0  3  0  0  0  0  0  0
  181.0370  176.8400  139.9670 C   0  0  0  0  0  2  0  0  0  0  0  0
  181.0220  175.4770  139.4700 N   0  0  0  0  0  2  0  0  0  0  0  0
  180.5790  175.5430  138.0900 C   0  0  0  0  0  1  0  0  0  0  0  0
  1  8  1  0  0  0  0
  2  8  2  0  0  0  0
  2  4  1  0  0  0  0
  3  7  2  0  0  0  0
  5  1  2  0  0  0  0
  6  2  1  0  0  0  0
  7  4  1  0  0  0  0
  7 12  1  0  0  0  0
  9  6  2  0  0  0  0
  9  3  1  0  0  0  0
 10  5  1  0  0  0  0
 10  6  1  0  0  0  0
 11 16  1  0  0  0  0
 11 15  1  0  0  0  0
 12 14  2  0  0  0  0
 12 13  1  0  0  0  0
 13 15  2  0  0  0  0
 14 11  1  0  0  0  0
 17 18  1  0  0  0  0
 19 17  1  0  0  0  0
 19 20  1  0  0  0  0
 20 21  1  0  0  0  0
 21 18  1  0  0  0  0
 21  9  1  1  0  0  0
 22 30  1  1  0  0  0
 22 19  1  0  0  0  0
 23 27  1  0  0  0  0
 25 26  1  0  0  0  0
 25 23  1  0  0  0  0
 26 28  1  0  0  0  0
 26 24  1  1  0  0  0
 27 22  1  6  0  0  0
 29 28  1  0  0  0  0
 29 27  1  0  0  0  0
 31 32  1  0  0  0  0
 32 30  1  0  0  0  0
 33  5  1  0  0  0  0
 34 33  2  0  0  0  0
 35 37  1  0  0  0  0
 35 36  2  0  0  0  0
 36 33  1  0  0  0  0
 38 37  1  0  0  0  0
 39 38  1  0  0  0  0
M  END
>  <MODEL>
7

>  <REMARK>
 VINA RESULT:      -7.8      1.994      3.448
  Name = 
  10 active torsions:
  status: ('A' for Active; 'I' for Inactive)
    1  A    between atoms: N_7  and  C_10
    2  A    between atoms: C_8  and  C_17
    3  A    between atoms: C_8  and  C_28
    4  A    between atoms: C_9  and  C_10
    5  A    between atoms: N_12  and  O_20
    6  A    between atoms: N_12  and  C_24
    7  A    between atoms: C_18  and  C_24
    8  A    between atoms: N_21  and  C_24
    9  A    between atoms: C_22  and  C_27
   10  A    between atoms: C_33  and  C_36
                            x       y       z     vdW  Elec       q    Type
                         _______ _______ _______ _____ _____    ______ ____

>  <TORSDO>
F 10

$$$$
=
 OpenBabel10232411073D

 39 43  0  0  1  0  0  0  0  0999 V2000
  188.8700  177.3250  146.1190 C   0  0  0  0  0  3  0  0  0  0  0  0
  186.9540  177.8370  144.6950 C   0  0  0  0  0  0  0  0  0  0  0  0
  185.8410  178.2550  142.1660 C   0  0  0  0  0  3  0  0  0  0  0  0
  185.5990  178.1350  144.5250 O   0  0  0  0  0  0  0  0  0  0  0  0
  189.7350  177.2130  145.1000 C   0  0  0  0  0  0  0  0  0  0  0  0
  187.8260  177.7400  143.5070 C   0  0  0  0  0  0  0  0  0  0  0  0
  185.0560  178.3400  143.2480 C   0  0  0  0  0  0  0  0  0  0  0  0
  187.4480  177.6430  145.9150 C   0  0  0  0  0  3  0  0  0  0  0  0
  187.2860  177.9460  142.2910 C   0  0  0  0  0  0  0  0  0  0  0  0
  189.2920  177.4120  143.6670 C   0  0  0  0  0  2  0  0  0  0  0  0
  181.6470  179.0590  142.2960 N   0  0  0  0  0  0  0  0  0  0  0  0
  183.6250  178.6450  143.1110 C   0  0  0  0  0  0  0  0  0  0  0  0
  182.7360  178.8450  144.1510 C   0  0  0  0  0  3  0  0  0  0  0  0
  182.9110  178.7860  141.9350 C   0  0  0  0  0  3  0  0  0  0  0  0
  181.5260  179.0970  143.6130 N   0  0  0  0  0  0  0  0  0  0  0  0
  180.5470  179.2840  141.3790 C   0  0  0  0  0  1  0  0  0  0  0  0
  189.1300  179.0950  139.3090 C   0  0  0  0  0  2  0  0  0  0  0  0
  188.9470  179.0910  140.8090 C   0  0  0  0  0  2  0  0  0  0  0  0
  188.0140  178.3510  138.7180 N   0  0  0  0  0  0  0  0  0  0  0  0
  187.3130  177.6660  139.8010 C   0  0  0  0  0  2  0  0  0  0  0  0
  188.1350  177.8510  141.0570 C   0  0  2  0  0  3  0  0  0  0  0  0
  188.4800  177.3740  137.7150 C   0  0  2  0  0  3  0  0  0  0  0  0
  190.5130  176.7360  136.3100 C   0  0  0  0  0  2  0  0  0  0  0  0
  193.5310  176.7000  137.2650 O   0  0  0  0  0  1  0  0  0  0  0  0
  191.5740  175.6320  136.3810 C   0  0  0  0  0  2  0  0  0  0  0  0
  192.5130  175.8020  137.5810 C   0  0  2  0  0  3  0  0  0  0  0  0
  190.0090  177.1440  137.7090 C   0  0  2  0  0  3  0  0  0  0  0  0
  191.7630  176.2990  138.8260 C   0  0  0  0  0  2  0  0  0  0  0  0
  190.3730  176.1770  138.6640 O   0  0  0  0  0  0  0  0  0  0  0  0
  188.0150  177.7770  136.3930 N   0  0  0  0  0  2  0  0  0  0  0  0
  185.9220  177.1950  136.4180 C   0  0  0  0  0  1  0  0  0  0  0  0
  187.1780  176.8070  135.9550 O   0  0  0  0  0  0  0  0  0  0  0  0
  191.1500  176.8890  145.3740 C   0  0  0  0  0  0  0  0  0  0  0  0
  191.9670  176.7570  144.4200 O   0  0  0  0  0  0  0  0  0  0  0  0
  192.3920  175.7160  147.1330 C   0  0  0  0  0  3  0  0  0  0  0  0
  191.6110  176.7210  146.7620 C   0  0  0  0  0  3  0  0  0  0  0  0
  192.8200  175.6020  148.5520 C   0  0  0  0  0  2  0  0  0  0  0  0
  193.0950  176.9230  149.0840 N   0  0  0  0  0  2  0  0  0  0  0  0
  194.0060  176.7410  150.1970 C   0  0  0  0  0  1  0  0  0  0  0  0
  2  8  2  0  0  0  0
  3  9  1  0  0  0  0
  3  7  2  0  0  0  0
  4  2  1  0  0  0  0
  5 33  1  0  0  0  0
  5  1  2  0  0  0  0
  6 10  1  0  0  0  0
  6  2  1  0  0  0  0
  7  4  1  0  0  0  0
  8  1  1  0  0  0  0
  9  6  2  0  0  0  0
 10  5  1  0  0  0  0
 11 15  1  0  0  0  0
 12  7  1  0  0  0  0
 12 13  1  0  0  0  0
 14 11  1  0  0  0  0
 14 12  2  0  0  0  0
 15 13  2  0  0  0  0
 16 11  1  0  0  0  0
 17 18  1  0  0  0  0
 18 21  1  0  0  0  0
 19 17  1  0  0  0  0
 19 20  1  0  0  0  0
 20 21  1  0  0  0  0
 21  9  1  1  0  0  0
 22 30  1  6  0  0  0
 22 19  1  0  0  0  0
 23 25  1  0  0  0  0
 23 27  1  0  0  0  0
 25 26  1  0  0  0  0
 26 24  1  6  0  0  0
 26 28  1  0  0  0  0
 27 22  1  6  0  0  0
 27 29  1  0  0  0  0
 29 28  1  0  0  0  0
 32 30  1  0  0  0  0
 32 31  1  0  0  0  0
 33 36  1  0  0  0  0
 34 33  2  0  0  0  0
 35 37  1  0  0  0  0
 36 35  2  0  0  0  0
 37 38  1  0  0  0  0
 38 39  1  0  0  0  0
M  END
>  <MODEL>
8

>  <REMARK>
 VINA RESULT:      -7.8      1.904      7.485
  Name = 
  10 active torsions:
  status: ('A' for Active; 'I' for Inactive)
    1  A    between atoms: N_7  and  C_10
    2  A    between atoms: C_8  and  C_17
    3  A    between atoms: C_8  and  C_28
    4  A    between atoms: C_9  and  C_10
    5  A    between atoms: N_12  and  O_20
    6  A    between atoms: N_12  and  C_24
    7  A    between atoms: C_18  and  C_24
    8  A    between atoms: N_21  and  C_24
    9  A    between atoms: C_22  and  C_27
   10  A    between atoms: C_33  and  C_36
                            x       y       z     vdW  Elec       q    Type
                         _______ _______ _______ _____ _____    ______ ____

>  <TORSDO>
F 10

$$$$
=
 OpenBabel10232411073D

 39 43  0  0  1  0  0  0  0  0999 V2000
  189.0870  177.6060  139.0190 C   0  0  0  0  0  3  0  0  0  0  0  0
  188.9450  177.5620  141.4570 C   0  0  0  0  0  0  0  0  0  0  0  0
  187.5380  178.0350  143.8240 C   0  0  0  0  0  3  0  0  0  0  0  0
  189.4960  177.2820  142.7100 O   0  0  0  0  0  0  0  0  0  0  0  0
  187.8570  178.1140  138.8500 C   0  0  0  0  0  0  0  0  0  0  0  0
  187.5820  178.1250  141.3760 C   0  0  0  0  0  0  0  0  0  0  0  0
  188.7750  177.5230  143.8890 C   0  0  0  0  0  0  0  0  0  0  0  0
  189.6460  177.3220  140.3510 C   0  0  0  0  0  3  0  0  0  0  0  0
  186.9100  178.3550  142.5200 C   0  0  0  0  0  0  0  0  0  0  0  0
  186.9660  178.4290  140.0310 C   0  0  0  0  0  2  0  0  0  0  0  0
  190.7850  176.6110  146.7470 N   0  0  0  0  0  0  0  0  0  0  0  0
  189.3860  177.2090  145.1880 C   0  0  0  0  0  0  0  0  0  0  0  0
  188.7660  177.3090  146.4210 C   0  0  0  0  0  3  0  0  0  0  0  0
  190.6740  176.7620  145.4180 C   0  0  0  0  0  3  0  0  0  0  0  0
  189.6570  176.9330  147.3590 N   0  0  0  0  0  0  0  0  0  0  0  0
  191.9770  176.1570  147.4390 C   0  0  0  0  0  1  0  0  0  0  0  0
  183.7340  179.7160  143.8140 C   0  0  0  0  0  2  0  0  0  0  0  0
  185.2310  179.8350  143.6410 C   0  0  0  0  0  2  0  0  0  0  0  0
  183.3230  178.4100  143.2890 N   0  0  0  0  0  0  0  0  0  0  0  0
  184.4570  177.8480  142.5590 C   0  0  0  0  0  2  0  0  0  0  0  0
  185.5200  178.9200  142.4840 C   0  0  2  0  0  3  0  0  0  0  0  0
  182.1510  178.5250  142.4000 C   0  0  2  0  0  3  0  0  0  0  0  0
  182.5760  179.5110  140.0850 C   0  0  0  0  0  2  0  0  0  0  0  0
  183.2970  177.9040  137.4540 O   0  0  0  0  0  1  0  0  0  0  0  0
  181.8980  179.3890  138.7150 C   0  0  0  0  0  2  0  0  0  0  0  0
  182.0660  177.9930  138.1040 C   0  0  2  0  0  3  0  0  0  0  0  0
  182.4420  178.2170  140.9130 C   0  0  2  0  0  3  0  0  0  0  0  0
  181.9710  176.8890  139.1670 C   0  0  0  0  0  2  0  0  0  0  0  0
  181.4450  177.3870  140.3710 O   0  0  0  0  0  0  0  0  0  0  0  0
  181.5620  179.8510  142.5450 N   0  0  0  0  0  2  0  0  0  0  0  0
  180.0520  178.7360  143.6410 C   0  0  0  0  0  1  0  0  0  0  0  0
  180.2210  179.6820  142.6300 O   0  0  0  0  0  0  0  0  0  0  0  0
  187.3550  178.3730  137.4840 C   0  0  0  0  0  0  0  0  0  0  0  0
  187.6170  179.4670  136.9090 O   0  0  0  0  0  0  0  0  0  0  0  0
  186.6540  176.0610  137.0640 C   0  0  0  0  0  3  0  0  0  0  0  0
  186.5510  177.3550  136.7900 C   0  0  0  0  0  3  0  0  0  0  0  0
  185.8150  175.0840  136.3240 C   0  0  0  0  0  2  0  0  0  0  0  0
  185.3200  174.0750  137.2410 N   0  0  0  0  0  2  0  0  0  0  0  0
  186.3560  173.0660  137.3470 C   0  0  0  0  0  1  0  0  0  0  0  0
  1  8  1  0  0  0  0
  2  4  1  0  0  0  0
  3  7  2  0  0  0  0
  4  7  1  0  0  0  0
  5  1  2  0  0  0  0
  5 10  1  0  0  0  0
  6  2  1  0  0  0  0
  6  9  2  0  0  0  0
  7 12  1  0  0  0  0
  8  2  2  0  0  0  0
  9  3  1  0  0  0  0
 10  6  1  0  0  0  0
 11 15  1  0  0  0  0
 11 16  1  0  0  0  0
 12 14  2  0  0  0  0
 12 13  1  0  0  0  0
 13 15  2  0  0  0  0
 14 11  1  0  0  0  0
 18 17  1  0  0  0  0
 19 17  1  0  0  0  0
 20 19  1  0  0  0  0
 21  9  1  1  0  0  0
 21 20  1  0  0  0  0
 21 18  1  0  0  0  0
 22 30  1  6  0  0  0
 22 19  1  0  0  0  0
 23 27  1  0  0  0  0
 25 23  1  0  0  0  0
 26 24  1  1  0  0  0
 26 25  1  0  0  0  0
 26 28  1  0  0  0  0
 27 22  1  1  0  0  0
 28 29  1  0  0  0  0
 29 27  1  0  0  0  0
 30 32  1  0  0  0  0
 32 31  1  0  0  0  0
 33  5  1  0  0  0  0
 34 33  2  0  0  0  0
 36 35  2  0  0  0  0
 36 33  1  0  0  0  0
 37 35  1  0  0  0  0
 37 38  1  0  0  0  0
 38 39  1  0  0  0  0
M  END
>  <MODEL>
9

>  <REMARK>
 VINA RESULT:      -7.6      2.587      6.281
  Name = 
  10 active torsions:
  status: ('A' for Active; 'I' for Inactive)
    1  A    between atoms: N_7  and  C_10
    2  A    between atoms: C_8  and  C_17
    3  A    between atoms: C_8  and  C_28
    4  A    between atoms: C_9  and  C_10
    5  A    between atoms: N_12  and  O_20
    6  A    between atoms: N_12  and  C_24
    7  A    between atoms: C_18  and  C_24
    8  A    between atoms: N_21  and  C_24
    9  A    between atoms: C_22  and  C_27
   10  A    between atoms: C_33  and  C_36
                            x       y       z     vdW  Elec       q    Type
                         _______ _______ _______ _____ _____    ______ ____

>  <TORSDO>
F 10

$$$$
