=
 OpenBabel10232407463D

 25 29  0  0  1  0  0  0  0  0999 V2000
  187.3440  177.3050  142.9570 N   0  0  0  0  0  2  0  0  0  0  0  0
  187.2730  178.0520  147.8500 C   0  0  0  0  0  3  0  0  0  0  0  0
  187.6600  177.5500  144.3350 C   0  0  0  0  0  0  0  0  0  0  0  0
  188.4810  177.0370  142.0580 C   0  0  2  0  0  3  0  0  0  0  0  0
  189.9620  177.6210  147.0200 C   0  0  0  0  0  0  0  0  0  0  0  0
  188.9350  177.4450  144.7660 N   0  0  0  0  0  0  0  0  0  0  0  0
  186.7940  177.8010  145.3900 C   0  0  0  0  0  0  0  0  0  0  0  0
  189.4820  176.1560  142.8130 C   0  0  1  0  0  3  0  0  0  0  0  0
  187.6040  177.8630  146.5100 C   0  0  0  0  0  0  0  0  0  0  0  0
  189.6500  177.8010  148.3800 C   0  0  0  0  0  3  0  0  0  0  0  0
  189.2580  178.3390  141.8640 C   0  0  0  0  0  2  0  0  0  0  0  0
  188.3180  178.0180  148.7890 C   0  0  0  0  0  3  0  0  0  0  0  0
  188.9060  177.6500  146.0990 C   0  0  0  0  0  0  0  0  0  0  0  0
  190.4930  175.7060  141.9580 O   0  0  0  0  0  1  0  0  0  0  0  0
  190.2880  178.3880  142.9970 C   0  0  0  0  0  2  0  0  0  0  0  0
  190.0370  177.1410  143.8440 C   0  0  1  0  0  3  0  0  0  0  0  0
  185.4040  177.9480  145.3680 O   0  0  0  0  0  0  0  0  0  0  0  0
  184.7000  178.3480  144.2030 C   0  0  2  0  0  3  0  0  0  0  0  0
  184.6510  179.8600  144.1370 C   0  0  0  0  0  2  0  0  0  0  0  0
  182.4330  178.9910  143.4890 C   0  0  0  0  0  1  0  0  0  0  0  0
  183.4420  179.0820  144.6140 C   0  0  1  0  0  3  0  0  0  0  0  0
  191.2870  177.4140  146.6320 O   0  0  0  0  0  0  0  0  0  0  0  0
  192.0470  175.3090  146.0500 O   0  0  0  0  0  0  0  0  0  0  0  0
  191.9740  176.2290  146.9080 C   0  0  0  0  0  0  0  0  0  0  0  0
  192.6050  176.0640  148.1710 N   0  0  0  0  0  1  0  0  0  0  0  0
  1  3  1  0  0  0  0
  2 12  1  0  0  0  0
  3  6  1  0  0  0  0
  3  7  2  0  0  0  0
  4 11  1  1  0  0  0
  4  8  1  0  0  0  0
  4  1  1  0  0  0  0
  5 10  1  0  0  0  0
  6 13  1  0  0  0  0
  7  9  1  0  0  0  0
  8 14  1  6  0  0  0
  8 16  1  0  0  0  0
  9  2  2  0  0  0  0
 10 12  2  0  0  0  0
 11 15  1  0  0  0  0
 13  9  1  0  0  0  0
 13  5  2  0  0  0  0
 16 15  1  6  0  0  0
 16  6  1  0  0  0  0
 17  7  1  0  0  0  0
 18 21  1  0  0  0  0
 18 17  1  1  0  0  0
 19 18  1  0  0  0  0
 19 21  1  0  0  0  0
 21 20  1  6  0  0  0
 22 24  1  0  0  0  0
 22  5  1  0  0  0  0
 23 24  2  0  0  0  0
 24 25  1  0  0  0  0
M  END
>  <MODEL>
1

>  <REMARK>
 VINA RESULT:      -9.1      0.000      0.000
  Name = 
  4 active torsions:
  status: ('A' for Active; 'I' for Inactive)
    1  A    between atoms: O_4  and  C_9
    2  A    between atoms: O_4  and  C_20
    3  A    between atoms: C_7  and  O_21
    4  A    between atoms: C_16  and  O_21
                            x       y       z     vdW  Elec       q    Type
                         _______ _______ _______ _____ _____    ______ ____

>  <TORSDO>
F 4

$$$$
=
 OpenBabel10232407463D

 25 29  0  0  1  0  0  0  0  0999 V2000
  188.2380  177.8480  141.3310 N   0  0  0  0  0  2  0  0  0  0  0  0
  184.3530  179.1540  144.1080 C   0  0  0  0  0  3  0  0  0  0  0  0
  187.3170  178.1390  142.3920 C   0  0  0  0  0  0  0  0  0  0  0  0
  189.4640  177.1200  141.7030 C   0  0  2  0  0  3  0  0  0  0  0  0
  186.2340  177.7750  145.7400 C   0  0  0  0  0  0  0  0  0  0  0  0
  187.5530  177.6760  143.6380 N   0  0  0  0  0  0  0  0  0  0  0  0
  186.0890  178.7820  142.3210 C   0  0  0  0  0  0  0  0  0  0  0  0
  189.0840  176.0570  142.7400 C   0  0  1  0  0  3  0  0  0  0  0  0
  185.5730  178.7100  143.6020 C   0  0  0  0  0  0  0  0  0  0  0  0
  185.0040  178.2070  146.2690 C   0  0  0  0  0  3  0  0  0  0  0  0
  190.3610  178.0650  142.5030 C   0  0  0  0  0  2  0  0  0  0  0  0
  184.0750  178.8930  145.4600 C   0  0  0  0  0  3  0  0  0  0  0  0
  186.4900  178.0360  144.3880 C   0  0  0  0  0  0  0  0  0  0  0  0
  190.1620  175.2040  142.9960 O   0  0  0  0  0  1  0  0  0  0  0  0
  189.9380  177.9090  143.9670 C   0  0  0  0  0  2  0  0  0  0  0  0
  188.7710  176.9220  143.9620 C   0  0  1  0  0  3  0  0  0  0  0  0
  185.4700  179.3700  141.2150 O   0  0  0  0  0  0  0  0  0  0  0  0
  184.8620  178.6030  140.1870 C   0  0  2  0  0  3  0  0  0  0  0  0
  183.7820  179.4250  139.5160 C   0  0  0  0  0  2  0  0  0  0  0  0
  182.9230  177.1300  139.8200 C   0  0  0  0  0  1  0  0  0  0  0  0
  183.4070  178.3720  140.5390 C   0  0  1  0  0  3  0  0  0  0  0  0
  187.1450  177.1020  146.5570 O   0  0  0  0  0  0  0  0  0  0  0  0
  187.5520  178.6920  148.1860 O   0  0  0  0  0  0  0  0  0  0  0  0
  187.9900  177.7690  147.4480 C   0  0  0  0  0  0  0  0  0  0  0  0
  189.3600  177.3960  147.5260 N   0  0  0  0  0  1  0  0  0  0  0  0
  1  4  1  0  0  0  0
  1  3  1  0  0  0  0
  2 12  1  0  0  0  0
  3  6  1  0  0  0  0
  4 11  1  1  0  0  0
  4  8  1  0  0  0  0
  5 10  1  0  0  0  0
  5 22  1  0  0  0  0
  6 16  1  0  0  0  0
  6 13  1  0  0  0  0
  7  3  2  0  0  0  0
  7  9  1  0  0  0  0
  8 14  1  1  0  0  0
  8 16  1  0  0  0  0
  9  2  2  0  0  0  0
  9 13  1  0  0  0  0
 11 15  1  0  0  0  0
 12 10  2  0  0  0  0
 13  5  2  0  0  0  0
 16 15  1  6  0  0  0
 17  7  1  0  0  0  0
 18 21  1  0  0  0  0
 18 17  1  1  0  0  0
 19 18  1  0  0  0  0
 19 21  1  0  0  0  0
 21 20  1  6  0  0  0
 22 24  1  0  0  0  0
 24 25  1  0  0  0  0
 24 23  2  0  0  0  0
M  END
>  <MODEL>
2

>  <REMARK>
 VINA RESULT:      -8.8      2.316      3.599
  Name = 
  4 active torsions:
  status: ('A' for Active; 'I' for Inactive)
    1  A    between atoms: O_4  and  C_9
    2  A    between atoms: O_4  and  C_20
    3  A    between atoms: C_7  and  O_21
    4  A    between atoms: C_16  and  O_21
                            x       y       z     vdW  Elec       q    Type
                         _______ _______ _______ _____ _____    ______ ____

>  <TORSDO>
F 4

$$$$
=
 OpenBabel10232407463D

 25 29  0  0  1  0  0  0  0  0999 V2000
  190.6270  177.7730  141.6790 N   0  0  0  0  0  2  0  0  0  0  0  0
  185.7980  178.7860  141.2780 C   0  0  0  0  0  3  0  0  0  0  0  0
  189.2330  178.0300  141.9010 C   0  0  0  0  0  0  0  0  0  0  0  0
  191.3910  177.2510  142.8260 C   0  0  2  0  0  3  0  0  0  0  0  0
  186.3240  177.8210  143.9050 C   0  0  0  0  0  0  0  0  0  0  0  0
  188.6670  177.7150  143.0860 N   0  0  0  0  0  0  0  0  0  0  0  0
  188.2840  178.4950  141.0010 C   0  0  0  0  0  0  0  0  0  0  0  0
  190.5040  176.2420  143.5640 C   0  0  1  0  0  3  0  0  0  0  0  0
  187.0880  178.4670  141.6950 C   0  0  0  0  0  0  0  0  0  0  0  0
  185.0120  178.1300  143.5020 C   0  0  0  0  0  3  0  0  0  0  0  0
  191.5480  178.3740  143.8510 C   0  0  0  0  0  2  0  0  0  0  0  0
  184.7530  178.6120  142.2020 C   0  0  0  0  0  3  0  0  0  0  0  0
  187.3520  177.9940  142.9670 C   0  0  0  0  0  0  0  0  0  0  0  0
  191.2310  175.5670  144.5490 O   0  0  0  0  0  1  0  0  0  0  0  0
  190.3160  178.2930  144.7580 C   0  0  0  0  0  2  0  0  0  0  0  0
  189.4560  177.1620  144.1940 C   0  0  1  0  0  3  0  0  0  0  0  0
  188.4570  178.8940  139.6730 O   0  0  0  0  0  0  0  0  0  0  0  0
  188.4110  177.9780  138.5900 C   0  0  2  0  0  3  0  0  0  0  0  0
  189.8210  177.6180  138.1730 C   0  0  0  0  0  2  0  0  0  0  0  0
  188.4760  177.9500  136.1290 C   0  0  0  0  0  1  0  0  0  0  0  0
  189.0260  178.6250  137.3680 C   0  0  1  0  0  3  0  0  0  0  0  0
  186.5640  177.3510  145.1980 O   0  0  0  0  0  0  0  0  0  0  0  0
  187.5670  178.1660  147.1140 O   0  0  0  0  0  0  0  0  0  0  0  0
  186.5980  178.1970  146.3090 C   0  0  0  0  0  0  0  0  0  0  0  0
  185.5300  179.1090  146.5290 N   0  0  0  0  0  1  0  0  0  0  0  0
  1  3  1  0  0  0  0
  1  4  1  0  0  0  0
  2  9  2  0  0  0  0
  2 12  1  0  0  0  0
  3  6  1  0  0  0  0
  4  8  1  0  0  0  0
  4 11  1  1  0  0  0
  5 22  1  0  0  0  0
  6 16  1  0  0  0  0
  7  9  1  0  0  0  0
  7  3  2  0  0  0  0
  8 16  1  0  0  0  0
  8 14  1  1  0  0  0
  9 13  1  0  0  0  0
 10  5  1  0  0  0  0
 11 15  1  0  0  0  0
 12 10  2  0  0  0  0
 13  6  1  0  0  0  0
 13  5  2  0  0  0  0
 16 15  1  6  0  0  0
 17  7  1  0  0  0  0
 18 17  1  1  0  0  0
 19 18  1  0  0  0  0
 21 20  1  6  0  0  0
 21 19  1  0  0  0  0
 21 18  1  0  0  0  0
 22 24  1  0  0  0  0
 24 25  1  0  0  0  0
 24 23  2  0  0  0  0
M  END
>  <MODEL>
3

>  <REMARK>
 VINA RESULT:      -8.4      2.672      5.527
  Name = 
  4 active torsions:
  status: ('A' for Active; 'I' for Inactive)
    1  A    between atoms: O_4  and  C_9
    2  A    between atoms: O_4  and  C_20
    3  A    between atoms: C_7  and  O_21
    4  A    between atoms: C_16  and  O_21
                            x       y       z     vdW  Elec       q    Type
                         _______ _______ _______ _____ _____    ______ ____

>  <TORSDO>
F 4

$$$$
=
 OpenBabel10232407463D

 25 29  0  0  1  0  0  0  0  0999 V2000
  189.9720  176.9830  140.1800 N   0  0  0  0  0  2  0  0  0  0  0  0
  186.7400  177.7480  143.8510 C   0  0  0  0  0  3  0  0  0  0  0  0
  188.8310  177.3020  140.9900 C   0  0  0  0  0  0  0  0  0  0  0  0
  189.9160  177.4020  138.7690 C   0  0  2  0  0  3  0  0  0  0  0  0
  185.7350  178.9460  141.4710 C   0  0  0  0  0  0  0  0  0  0  0  0
  187.8160  178.0270  140.4730 N   0  0  0  0  0  0  0  0  0  0  0  0
  188.6300  177.0510  142.3400 C   0  0  0  0  0  0  0  0  0  0  0  0
  189.2640  178.7890  138.7140 C   0  0  1  0  0  3  0  0  0  0  0  0
  187.4190  177.6490  142.6390 C   0  0  0  0  0  0  0  0  0  0  0  0
  185.0370  179.0670  142.6860 C   0  0  0  0  0  3  0  0  0  0  0  0
  188.8960  176.5230  138.0460 C   0  0  0  0  0  2  0  0  0  0  0  0
  185.5330  178.4690  143.8640 C   0  0  0  0  0  3  0  0  0  0  0  0
  186.9400  178.2300  141.4800 C   0  0  0  0  0  0  0  0  0  0  0  0
  189.3510  179.3290  137.4270 O   0  0  0  0  0  1  0  0  0  0  0  0
  187.5430  177.2230  138.2080 C   0  0  0  0  0  2  0  0  0  0  0  0
  187.8130  178.4570  139.0690 C   0  0  1  0  0  3  0  0  0  0  0  0
  189.4540  176.3650  143.2360 O   0  0  0  0  0  0  0  0  0  0  0  0
  190.6210  176.9480  143.7950 C   0  0  2  0  0  3  0  0  0  0  0  0
  190.3290  177.4080  145.2080 C   0  0  0  0  0  2  0  0  0  0  0  0
  191.6770  179.1520  144.0960 C   0  0  0  0  0  1  0  0  0  0  0  0
  190.3560  178.4130  144.0740 C   0  0  1  0  0  3  0  0  0  0  0  0
  185.2260  179.5380  140.3140 O   0  0  0  0  0  0  0  0  0  0  0  0
  184.0170  177.7640  139.4550 O   0  0  0  0  0  0  0  0  0  0  0  0
  184.1380  179.0080  139.6160 C   0  0  0  0  0  0  0  0  0  0  0  0
  183.1510  179.8850  139.0880 N   0  0  0  0  0  1  0  0  0  0  0  0
  1  3  1  0  0  0  0
  2 12  1  0  0  0  0
  3  7  2  0  0  0  0
  4 11  1  6  0  0  0
  4  1  1  0  0  0  0
  5 13  2  0  0  0  0
  5 10  1  0  0  0  0
  6  3  1  0  0  0  0
  6 13  1  0  0  0  0
  7  9  1  0  0  0  0
  7 17  1  0  0  0  0
  8 14  1  6  0  0  0
  8  4  1  0  0  0  0
  8 16  1  0  0  0  0
  9  2  2  0  0  0  0
 10 12  2  0  0  0  0
 11 15  1  0  0  0  0
 13  9  1  0  0  0  0
 16 15  1  6  0  0  0
 16  6  1  0  0  0  0
 18 17  1  6  0  0  0
 18 21  1  0  0  0  0
 18 19  1  0  0  0  0
 21 20  1  1  0  0  0
 21 19  1  0  0  0  0
 22  5  1  0  0  0  0
 23 24  2  0  0  0  0
 24 22  1  0  0  0  0
 25 24  1  0  0  0  0
M  END
>  <MODEL>
4

>  <REMARK>
 VINA RESULT:      -8.3      3.308      6.768
  Name = 
  4 active torsions:
  status: ('A' for Active; 'I' for Inactive)
    1  A    between atoms: O_4  and  C_9
    2  A    between atoms: O_4  and  C_20
    3  A    between atoms: C_7  and  O_21
    4  A    between atoms: C_16  and  O_21
                            x       y       z     vdW  Elec       q    Type
                         _______ _______ _______ _____ _____    ______ ____

>  <TORSDO>
F 4

$$$$
=
 OpenBabel10232407463D

 25 29  0  0  1  0  0  0  0  0999 V2000
  186.0510  177.7420  144.5960 N   0  0  0  0  0  2  0  0  0  0  0  0
  190.4440  176.8590  142.4910 C   0  0  0  0  0  3  0  0  0  0  0  0
  187.1930  177.6670  143.7300 C   0  0  0  0  0  0  0  0  0  0  0  0
  184.8110  178.2760  144.0060 C   0  0  2  0  0  3  0  0  0  0  0  0
  188.6690  177.9000  140.5230 C   0  0  0  0  0  0  0  0  0  0  0  0
  187.0750  177.9950  142.4260 N   0  0  0  0  0  0  0  0  0  0  0  0
  188.4650  177.1880  144.0130 C   0  0  0  0  0  0  0  0  0  0  0  0
  184.6930  177.7270  142.5800 C   0  0  1  0  0  3  0  0  0  0  0  0
  189.1450  177.2480  142.8110 C   0  0  0  0  0  0  0  0  0  0  0  0
  189.9750  177.5060  140.1780 C   0  0  0  0  0  3  0  0  0  0  0  0
  184.9950  179.7750  143.7750 C   0  0  0  0  0  2  0  0  0  0  0  0
  190.8550  176.9940  141.1540 C   0  0  0  0  0  3  0  0  0  0  0  0
  188.2760  177.7510  141.8600 C   0  0  0  0  0  0  0  0  0  0  0  0
  183.4460  178.0380  142.0290 O   0  0  0  0  0  1  0  0  0  0  0  0
  185.6060  179.9150  142.3780 C   0  0  0  0  0  2  0  0  0  0  0  0
  185.8110  178.4890  141.8670 C   0  0  1  0  0  3  0  0  0  0  0  0
  188.9760  176.7220  145.2280 O   0  0  0  0  0  0  0  0  0  0  0  0
  189.2170  177.5820  146.3310 C   0  0  2  0  0  3  0  0  0  0  0  0
  190.1380  176.8920  147.3160 C   0  0  0  0  0  2  0  0  0  0  0  0
  188.3650  178.0390  148.5950 C   0  0  0  0  0  1  0  0  0  0  0  0
  188.6480  176.9490  147.5830 C   0  0  1  0  0  3  0  0  0  0  0  0
  187.8140  178.4110  139.5450 O   0  0  0  0  0  0  0  0  0  0  0  0
  187.6760  177.0330  137.6930 O   0  0  0  0  0  0  0  0  0  0  0  0
  187.9910  178.1510  138.1840 C   0  0  0  0  0  0  0  0  0  0  0  0
  188.5230  179.1640  137.3410 N   0  0  0  0  0  1  0  0  0  0  0  0
  2  9  1  0  0  0  0
  3  7  2  0  0  0  0
  3  1  1  0  0  0  0
  4 11  1  6  0  0  0
  4  1  1  0  0  0  0
  5 13  1  0  0  0  0
  6  3  1  0  0  0  0
  7 17  1  0  0  0  0
  8 14  1  6  0  0  0
  8  4  1  0  0  0  0
  9  7  1  0  0  0  0
 10  5  2  0  0  0  0
 10 12  1  0  0  0  0
 12  2  2  0  0  0  0
 13  6  1  0  0  0  0
 13  9  2  0  0  0  0
 15 11  1  0  0  0  0
 16 15  1  1  0  0  0
 16  6  1  0  0  0  0
 16  8  1  0  0  0  0
 18 17  1  6  0  0  0
 18 19  1  0  0  0  0
 18 21  1  0  0  0  0
 19 21  1  0  0  0  0
 21 20  1  1  0  0  0
 22  5  1  0  0  0  0
 23 24  2  0  0  0  0
 24 22  1  0  0  0  0
 25 24  1  0  0  0  0
M  END
>  <MODEL>
5

>  <REMARK>
 VINA RESULT:      -7.9      2.539      6.416
  Name = 
  4 active torsions:
  status: ('A' for Active; 'I' for Inactive)
    1  A    between atoms: O_4  and  C_9
    2  A    between atoms: O_4  and  C_20
    3  A    between atoms: C_7  and  O_21
    4  A    between atoms: C_16  and  O_21
                            x       y       z     vdW  Elec       q    Type
                         _______ _______ _______ _____ _____    ______ ____

>  <TORSDO>
F 4

$$$$
=
 OpenBabel10232407463D

 25 29  0  0  1  0  0  0  0  0999 V2000
  187.0070  178.5070  138.6730 N   0  0  0  0  0  2  0  0  0  0  0  0
  186.2750  178.3260  143.5660 C   0  0  0  0  0  3  0  0  0  0  0  0
  187.1120  178.3310  140.0930 C   0  0  0  0  0  0  0  0  0  0  0  0
  188.0750  177.9060  137.8540 C   0  0  2  0  0  3  0  0  0  0  0  0
  188.6260  176.8520  142.9280 C   0  0  0  0  0  0  0  0  0  0  0  0
  188.1020  177.5730  140.6100 N   0  0  0  0  0  0  0  0  0  0  0  0
  186.2430  178.7640  141.0860 C   0  0  0  0  0  0  0  0  0  0  0  0
  188.4260  176.5440  138.4630 C   0  0  1  0  0  3  0  0  0  0  0  0
  186.7560  178.2450  142.2610 C   0  0  0  0  0  0  0  0  0  0  0  0
  188.1530  176.9140  144.2510 C   0  0  0  0  0  3  0  0  0  0  0  0
  189.3570  178.7110  138.0690 C   0  0  0  0  0  2  0  0  0  0  0  0
  186.9900  177.6470  144.5670 C   0  0  0  0  0  3  0  0  0  0  0  0
  187.8950  177.5290  141.9420 C   0  0  0  0  0  0  0  0  0  0  0  0
  189.2960  175.8360  137.6280 O   0  0  0  0  0  1  0  0  0  0  0  0
  190.0560  178.0760  139.2760 C   0  0  0  0  0  2  0  0  0  0  0  0
  189.1280  176.9600  139.7560 C   0  0  1  0  0  3  0  0  0  0  0  0
  185.0870  179.5390  140.9620 O   0  0  0  0  0  0  0  0  0  0  0  0
  183.9240  179.0690  140.2970 C   0  0  2  0  0  3  0  0  0  0  0  0
  182.8330  178.8080  141.3140 C   0  0  0  0  0  2  0  0  0  0  0  0
  182.8200  176.9560  139.6820 C   0  0  0  0  0  1  0  0  0  0  0  0
  183.6350  177.6530  140.7510 C   0  0  1  0  0  3  0  0  0  0  0  0
  189.7820  176.1270  142.6350 O   0  0  0  0  0  0  0  0  0  0  0  0
  191.6340  175.7770  143.9750 O   0  0  0  0  0  0  0  0  0  0  0  0
  191.0410  176.4900  143.1220 C   0  0  0  0  0  0  0  0  0  0  0  0
  191.6610  177.6760  142.6430 N   0  0  0  0  0  1  0  0  0  0  0  0
  1  3  1  0  0  0  0
  2 12  1  0  0  0  0
  3  6  1  0  0  0  0
  3  7  2  0  0  0  0
  4 11  1  1  0  0  0
  4  8  1  0  0  0  0
  4  1  1  0  0  0  0
  5 10  1  0  0  0  0
  6 13  1  0  0  0  0
  7  9  1  0  0  0  0
  8 14  1  6  0  0  0
  8 16  1  0  0  0  0
  9  2  2  0  0  0  0
 10 12  2  0  0  0  0
 11 15  1  0  0  0  0
 13  9  1  0  0  0  0
 13  5  2  0  0  0  0
 16 15  1  6  0  0  0
 16  6  1  0  0  0  0
 17  7  1  0  0  0  0
 18 21  1  0  0  0  0
 18 17  1  1  0  0  0
 18 19  1  0  0  0  0
 21 20  1  6  0  0  0
 21 19  1  0  0  0  0
 22  5  1  0  0  0  0
 22 24  1  0  0  0  0
 24 23  2  0  0  0  0
 25 24  1  0  0  0  0
M  END
>  <MODEL>
6

>  <REMARK>
 VINA RESULT:      -7.6      2.965      4.279
  Name = 
  4 active torsions:
  status: ('A' for Active; 'I' for Inactive)
    1  A    between atoms: O_4  and  C_9
    2  A    between atoms: O_4  and  C_20
    3  A    between atoms: C_7  and  O_21
    4  A    between atoms: C_16  and  O_21
                            x       y       z     vdW  Elec       q    Type
                         _______ _______ _______ _____ _____    ______ ____

>  <TORSDO>
F 4

$$$$
=
 OpenBabel10232407463D

 25 29  0  0  1  0  0  0  0  0999 V2000
  188.3330  178.2990  143.7320 N   0  0  0  0  0  2  0  0  0  0  0  0
  187.0900  178.3660  138.9400 C   0  0  0  0  0  3  0  0  0  0  0  0
  188.2710  178.1590  142.3050 C   0  0  0  0  0  0  0  0  0  0  0  0
  189.6220  177.9800  144.3690 C   0  0  2  0  0  3  0  0  0  0  0  0
  189.8270  177.6170  139.1740 C   0  0  0  0  0  0  0  0  0  0  0  0
  189.3800  177.8340  141.6080 N   0  0  0  0  0  0  0  0  0  0  0  0
  187.2030  178.4130  141.4550 C   0  0  0  0  0  0  0  0  0  0  0  0
  190.7400  178.5160  143.4680 C   0  0  1  0  0  3  0  0  0  0  0  0
  187.7030  178.2150  140.1820 C   0  0  0  0  0  0  0  0  0  0  0  0
  189.2300  177.7720  137.9100 C   0  0  0  0  0  3  0  0  0  0  0  0
  189.8320  176.4670  144.3000 C   0  0  0  0  0  2  0  0  0  0  0  0
  187.8730  178.1390  137.7950 C   0  0  0  0  0  3  0  0  0  0  0  0
  189.0330  177.8550  140.3040 C   0  0  0  0  0  0  0  0  0  0  0  0
  191.9820  178.4180  144.1030 O   0  0  0  0  0  1  0  0  0  0  0  0
  190.5340  176.1990  142.9650 C   0  0  0  0  0  2  0  0  0  0  0  0
  190.6580  177.5590  142.2780 C   0  0  1  0  0  3  0  0  0  0  0  0
  185.9000  178.8040  141.7780 O   0  0  0  0  0  0  0  0  0  0  0  0
  185.1910  178.2540  142.8780 C   0  0  2  0  0  3  0  0  0  0  0  0
  183.7750  178.7880  142.8840 C   0  0  0  0  0  2  0  0  0  0  0  0
  184.6050  178.7880  145.2090 C   0  0  0  0  0  1  0  0  0  0  0  0
  184.8090  179.3700  143.8270 C   0  0  1  0  0  3  0  0  0  0  0  0
  191.1700  177.2470  139.2700 O   0  0  0  0  0  0  0  0  0  0  0  0
  191.2290  175.0770  138.4710 O   0  0  0  0  0  0  0  0  0  0  0  0
  191.7270  176.2350  138.4830 C   0  0  0  0  0  0  0  0  0  0  0  0
  192.8660  176.5180  137.6810 N   0  0  0  0  0  1  0  0  0  0  0  0
  1  4  1  0  0  0  0
  2  9  1  0  0  0  0
  3  1  1  0  0  0  0
  4 11  1  6  0  0  0
  5 22  1  0  0  0  0
  5 13  1  0  0  0  0
  6 16  1  0  0  0  0
  6  3  1  0  0  0  0
  7 17  1  0  0  0  0
  7  3  2  0  0  0  0
  8 14  1  1  0  0  0
  8  4  1  0  0  0  0
  9 13  2  0  0  0  0
  9  7  1  0  0  0  0
 10  5  2  0  0  0  0
 12 10  1  0  0  0  0
 12  2  2  0  0  0  0
 13  6  1  0  0  0  0
 15 11  1  0  0  0  0
 16 15  1  1  0  0  0
 16  8  1  0  0  0  0
 18 17  1  6  0  0  0
 18 19  1  0  0  0  0
 18 21  1  0  0  0  0
 19 21  1  0  0  0  0
 21 20  1  1  0  0  0
 23 24  2  0  0  0  0
 24 22  1  0  0  0  0
 25 24  1  0  0  0  0
M  END
>  <MODEL>
7

>  <REMARK>
 VINA RESULT:      -7.5      2.923      5.831
  Name = 
  4 active torsions:
  status: ('A' for Active; 'I' for Inactive)
    1  A    between atoms: O_4  and  C_9
    2  A    between atoms: O_4  and  C_20
    3  A    between atoms: C_7  and  O_21
    4  A    between atoms: C_16  and  O_21
                            x       y       z     vdW  Elec       q    Type
                         _______ _______ _______ _____ _____    ______ ____

>  <TORSDO>
F 4

$$$$
=
 OpenBabel10232407463D

 25 29  0  0  1  0  0  0  0  0999 V2000
  186.3040  178.5340  138.7720 N   0  0  0  0  0  2  0  0  0  0  0  0
  188.6940  177.8550  143.0550 C   0  0  0  0  0  3  0  0  0  0  0  0
  187.2550  178.2510  139.8090 C   0  0  0  0  0  0  0  0  0  0  0  0
  186.6800  178.1310  137.4060 C   0  0  2  0  0  3  0  0  0  0  0  0
  190.2330  176.7170  140.9470 C   0  0  0  0  0  0  0  0  0  0  0  0
  188.3850  177.5690  139.5240 N   0  0  0  0  0  0  0  0  0  0  0  0
  187.1490  178.4970  141.1710 C   0  0  0  0  0  0  0  0  0  0  0  0
  187.3810  176.7700  137.4920 C   0  0  1  0  0  3  0  0  0  0  0  0
  188.2890  177.9410  141.7250 C   0  0  0  0  0  0  0  0  0  0  0  0
  190.6560  176.6120  142.2850 C   0  0  0  0  0  3  0  0  0  0  0  0
  187.7980  179.0540  136.9220 C   0  0  0  0  0  2  0  0  0  0  0  0
  189.8950  177.1790  143.3280 C   0  0  0  0  0  3  0  0  0  0  0  0
  189.0290  177.3880  140.6960 C   0  0  0  0  0  0  0  0  0  0  0  0
  187.5950  176.2380  136.2170 O   0  0  0  0  0  1  0  0  0  0  0  0
  189.1090  178.4020  137.3720 C   0  0  0  0  0  2  0  0  0  0  0  0
  188.7070  177.1510  138.1530 C   0  0  1  0  0  3  0  0  0  0  0  0
  186.1250  179.1430  141.8690 O   0  0  0  0  0  0  0  0  0  0  0  0
  185.3310  178.4810  142.8410 C   0  0  2  0  0  3  0  0  0  0  0  0
  183.8740  178.8310  142.6250 C   0  0  0  0  0  2  0  0  0  0  0  0
  184.3240  178.8800  145.0520 C   0  0  0  0  0  1  0  0  0  0  0  0
  184.6630  179.5160  143.7210 C   0  0  1  0  0  3  0  0  0  0  0  0
  191.0030  176.1550  139.9270 O   0  0  0  0  0  0  0  0  0  0  0  0
  192.7940  177.6130  140.0510 O   0  0  0  0  0  0  0  0  0  0  0  0
  192.1030  176.8110  139.3670 C   0  0  0  0  0  0  0  0  0  0  0  0
  192.4500  176.5630  138.0110 N   0  0  0  0  0  1  0  0  0  0  0  0
  1  3  1  0  0  0  0
  2 12  1  0  0  0  0
  3  7  2  0  0  0  0
  4 11  1  1  0  0  0
  4  8  1  0  0  0  0
  4  1  1  0  0  0  0
  5 10  1  0  0  0  0
  6  3  1  0  0  0  0
  6 13  1  0  0  0  0
  7  9  1  0  0  0  0
  7 17  1  0  0  0  0
  8 14  1  6  0  0  0
  8 16  1  0  0  0  0
  9  2  2  0  0  0  0
 10 12  2  0  0  0  0
 11 15  1  0  0  0  0
 13  5  2  0  0  0  0
 13  9  1  0  0  0  0
 16 15  1  6  0  0  0
 16  6  1  0  0  0  0
 18 17  1  6  0  0  0
 18 21  1  0  0  0  0
 19 18  1  0  0  0  0
 19 21  1  0  0  0  0
 21 20  1  1  0  0  0
 22  5  1  0  0  0  0
 24 22  1  0  0  0  0
 24 23  2  0  0  0  0
 25 24  1  0  0  0  0
M  END
>  <MODEL>
8

>  <REMARK>
 VINA RESULT:      -7.5      3.940      5.473
  Name = 
  4 active torsions:
  status: ('A' for Active; 'I' for Inactive)
    1  A    between atoms: O_4  and  C_9
    2  A    between atoms: O_4  and  C_20
    3  A    between atoms: C_7  and  O_21
    4  A    between atoms: C_16  and  O_21
                            x       y       z     vdW  Elec       q    Type
                         _______ _______ _______ _____ _____    ______ ____

>  <TORSDO>
F 4

$$$$
=
 OpenBabel10232407463D

 25 29  0  0  1  0  0  0  0  0999 V2000
  190.1370  177.9150  139.9360 N   0  0  0  0  0  2  0  0  0  0  0  0
  186.5100  178.6540  143.2240 C   0  0  0  0  0  3  0  0  0  0  0  0
  188.8850  178.0530  140.6250 C   0  0  0  0  0  0  0  0  0  0  0  0
  190.0700  177.7810  138.4700 C   0  0  2  0  0  3  0  0  0  0  0  0
  185.3790  178.5240  140.6140 C   0  0  0  0  0  0  0  0  0  0  0  0
  187.7340  178.1400  139.9250 N   0  0  0  0  0  0  0  0  0  0  0  0
  188.6590  178.2200  141.9840 C   0  0  0  0  0  0  0  0  0  0  0  0
  188.9820  178.7300  137.9580 C   0  0  1  0  0  3  0  0  0  0  0  0
  187.2930  178.4020  142.1000 C   0  0  0  0  0  0  0  0  0  0  0  0
  184.5710  178.7880  141.7360 C   0  0  0  0  0  3  0  0  0  0  0  0
  189.4980  176.4030  138.1390 C   0  0  0  0  0  2  0  0  0  0  0  0
  185.1320  178.8480  143.0290 C   0  0  0  0  0  3  0  0  0  0  0  0
  186.7520  178.3410  140.8280 C   0  0  0  0  0  0  0  0  0  0  0  0
  188.9940  178.7950  136.5620 O   0  0  0  0  0  1  0  0  0  0  0  0
  187.9760  176.5770  138.0960 C   0  0  0  0  0  2  0  0  0  0  0  0
  187.7130  178.0380  138.4600 C   0  0  1  0  0  3  0  0  0  0  0  0
  189.5830  178.2260  143.0330 O   0  0  0  0  0  0  0  0  0  0  0  0
  189.9230  177.0520  143.7540 C   0  0  2  0  0  3  0  0  0  0  0  0
  189.3050  177.1120  145.1350 C   0  0  0  0  0  2  0  0  0  0  0  0
  191.6030  176.2380  145.3600 C   0  0  0  0  0  1  0  0  0  0  0  0
  190.7730  177.4350  144.9470 C   0  0  1  0  0  3  0  0  0  0  0  0
  184.8060  178.4620  139.3430 O   0  0  0  0  0  0  0  0  0  0  0  0
  183.8340  180.5100  138.8850 O   0  0  0  0  0  0  0  0  0  0  0  0
  183.7200  179.2580  138.9690 C   0  0  0  0  0  0  0  0  0  0  0  0
  182.4720  178.6450  138.6720 N   0  0  0  0  0  1  0  0  0  0  0  0
  1  3  1  0  0  0  0
  3  7  2  0  0  0  0
  4 11  1  1  0  0  0
  4  1  1  0  0  0  0
  5 13  2  0  0  0  0
  5 10  1  0  0  0  0
  6  3  1  0  0  0  0
  6 13  1  0  0  0  0
  7  9  1  0  0  0  0
  7 17  1  0  0  0  0
  8 14  1  6  0  0  0
  8 16  1  0  0  0  0
  8  4  1  0  0  0  0
  9  2  2  0  0  0  0
 10 12  2  0  0  0  0
 12  2  1  0  0  0  0
 13  9  1  0  0  0  0
 15 11  1  0  0  0  0
 16 15  1  1  0  0  0
 16  6  1  0  0  0  0
 18 17  1  6  0  0  0
 18 21  1  0  0  0  0
 18 19  1  0  0  0  0
 21 19  1  0  0  0  0
 21 20  1  1  0  0  0
 22  5  1  0  0  0  0
 23 24  2  0  0  0  0
 24 22  1  0  0  0  0
 25 24  1  0  0  0  0
M  END
>  <MODEL>
9

>  <REMARK>
 VINA RESULT:      -7.1      3.732      7.253
  Name = 
  4 active torsions:
  status: ('A' for Active; 'I' for Inactive)
    1  A    between atoms: O_4  and  C_9
    2  A    between atoms: O_4  and  C_20
    3  A    between atoms: C_7  and  O_21
    4  A    between atoms: C_16  and  O_21
                            x       y       z     vdW  Elec       q    Type
                         _______ _______ _______ _____ _____    ______ ____

>  <TORSDO>
F 4

$$$$
