=
 OpenBabel10232411573D

 37 40  0  0  1  0  0  0  0  0999 V2000
  189.6460  177.5690  139.1380 N   0  0  0  0  0  0  0  0  0  0  0  0
  188.2630  177.8330  141.4880 C   0  0  0  0  0  3  0  0  0  0  0  0
  189.5580  177.3090  141.4740 C   0  0  0  0  0  0  0  0  0  0  0  0
  190.2080  177.1850  140.2880 N   0  0  0  0  0  0  0  0  0  0  0  0
  188.3910  178.0950  139.0970 C   0  0  0  0  0  0  0  0  0  0  0  0
  187.6610  178.2230  140.2870 C   0  0  0  0  0  0  0  0  0  0  0  0
  186.2670  178.7840  140.2700 C   0  0  2  0  0  3  0  0  0  0  0  0
  184.2550  178.1410  139.2220 C   0  0  1  0  0  3  0  0  0  0  0  0
  185.4420  178.2710  141.4430 C   0  0  2  0  0  3  0  0  0  0  0  0
  185.5360  178.4100  139.0240 C   0  0  0  0  0  2  0  0  0  0  0  0
  183.3810  177.6290  138.1320 C   0  0  0  0  0  1  0  0  0  0  0  0
  183.6970  178.2390  140.9140 S   0  0  0  0  0  0  0  0  0  0  0  0
  185.5990  179.1670  142.5770 N   0  0  0  0  0  2  0  0  0  0  0  0
  185.3810  178.3810  143.7860 C   0  0  1  0  0  3  0  0  0  0  0  0
  185.6420  178.4050  146.7410 C   0  0  0  0  0  2  0  0  0  0  0  0
  183.5970  179.8860  144.2510 O   0  0  0  0  0  0  0  0  0  0  0  0
  186.7120  178.1760  144.5080 C   0  0  0  0  0  2  0  0  0  0  0  0
  186.4920  177.5000  145.8590 C   0  0  0  0  0  2  0  0  0  0  0  0
  184.2600  178.6130  146.1200 C   0  0  0  0  0  2  0  0  0  0  0  0
  184.3830  179.0610  144.6930 C   0  0  0  0  0  0  0  0  0  0  0  0
  190.3840  175.6720  142.9810 O   0  0  0  0  0  0  0  0  0  0  0  0
  190.2170  176.8970  142.7220 C   0  0  0  0  0  0  0  0  0  0  0  0
  190.6580  177.8920  143.6480 N   0  0  0  0  0  2  0  0  0  0  0  0
  191.2820  177.5590  144.9190 C   0  0  0  0  0  2  0  0  0  0  0  0
  190.2250  177.3720  145.9970 C   0  0  0  0  0  2  0  0  0  0  0  0
  190.7800  176.6300  147.2010 C   0  0  0  0  0  2  0  0  0  0  0  0
  192.7030  175.7660  148.1970 C   0  0  0  0  0  1  0  0  0  0  0  0
  192.1360  176.1800  146.9250 N   0  0  0  0  0  2  0  0  0  0  0  0
  187.8310  178.5280  137.8500 N   0  0  0  0  0  2  0  0  0  0  0  0
  188.5260  175.3300  136.4830 C   0  0  0  0  0  1  0  0  0  0  0  0
  186.9430  178.2810  135.5840 C   0  0  0  0  0  2  0  0  0  0  0  0
  187.4500  176.3110  136.9160 C   0  0  2  0  0  3  0  0  0  0  0  0
  186.2610  176.1750  136.0420 C   0  0  0  0  0  0  0  0  0  0  0  0
  185.9890  177.2180  135.3360 N   0  0  0  0  0  0  0  0  0  0  0  0
  187.9170  177.7330  136.6320 C   0  0  2  0  0  3  0  0  0  0  0  0
  185.4930  175.0100  135.9960 O   0  0  0  0  0  0  0  0  0  0  0  0
  184.9750  174.3990  137.1690 C   0  0  0  0  0  1  0  0  0  0  0  0
  1  4  1  0  0  0  0
  3  2  1  0  0  0  0
  3 22  1  0  0  0  0
  4  3  2  0  0  0  0
  5  1  2  0  0  0  0
  5  6  1  0  0  0  0
  6  2  2  0  0  0  0
  7  6  1  6  0  0  0
  7  9  1  0  0  0  0
  8 11  1  1  0  0  0
  8 12  1  0  0  0  0
  9 13  1  1  0  0  0
 10  8  1  0  0  0  0
 10  7  1  0  0  0  0
 12  9  1  0  0  0  0
 14 13  1  6  0  0  0
 14 17  1  0  0  0  0
 14 20  1  0  0  0  0
 16 20  2  0  0  0  0
 17 18  1  0  0  0  0
 18 15  1  0  0  0  0
 19 15  1  0  0  0  0
 20 19  1  0  0  0  0
 22 21  2  0  0  0  0
 22 23  1  0  0  0  0
 23 24  1  0  0  0  0
 24 25  1  0  0  0  0
 25 26  1  0  0  0  0
 28 26  1  0  0  0  0
 28 27  1  0  0  0  0
 29  5  1  0  0  0  0
 31 35  1  0  0  0  0
 32 30  1  6  0  0  0
 33 32  1  0  0  0  0
 34 31  1  0  0  0  0
 34 33  2  0  0  0  0
 35 32  1  0  0  0  0
 35 29  1  1  0  0  0
 36 33  1  0  0  0  0
 36 37  1  0  0  0  0
M  END
>  <MODEL>
1

>  <REMARK>
 VINA RESULT:      -7.9      0.000      0.000
  Name = 
  11 active torsions:
  status: ('A' for Active; 'I' for Inactive)
    1  A    between atoms: C_1  and  N_13
    2  A    between atoms: C_5  and  C_15
    3  A    between atoms: O_6  and  C_27
    4  A    between atoms: C_7  and  C_34
    5  A    between atoms: C_10  and  N_13
    6  A    between atoms: N_12  and  C_23
    7  A    between atoms: N_12  and  C_36
    8  A    between atoms: C_14  and  N_25
    9  A    between atoms: C_14  and  C_28
   10  A    between atoms: N_24  and  C_35
   11  A    between atoms: C_28  and  C_35
                            x       y       z     vdW  Elec       q    Type
                         _______ _______ _______ _____ _____    ______ ____

>  <TORSDO>
F 11

$$$$
=
 OpenBabel10232411573D

 37 40  0  0  1  0  0  0  0  0999 V2000
  189.6770  177.3930  142.2240 N   0  0  0  0  0  0  0  0  0  0  0  0
  187.2210  178.0420  141.1980 C   0  0  0  0  0  3  0  0  0  0  0  0
  188.3630  178.0720  140.3950 C   0  0  0  0  0  0  0  0  0  0  0  0
  189.5650  177.7520  140.9420 N   0  0  0  0  0  0  0  0  0  0  0  0
  188.5950  177.3380  143.0480 C   0  0  0  0  0  0  0  0  0  0  0  0
  187.3310  177.6820  142.5460 C   0  0  0  0  0  0  0  0  0  0  0  0
  186.1210  177.6480  143.4350 C   0  0  2  0  0  3  0  0  0  0  0  0
  185.5320  178.7370  145.4430 C   0  0  1  0  0  3  0  0  0  0  0  0
  185.0540  178.6280  142.9690 C   0  0  2  0  0  3  0  0  0  0  0  0
  186.4610  178.0070  144.8440 C   0  0  0  0  0  2  0  0  0  0  0  0
  185.7330  179.3020  146.8050 C   0  0  0  0  0  1  0  0  0  0  0  0
  184.1190  179.1630  144.4400 S   0  0  0  0  0  0  0  0  0  0  0  0
  184.1630  177.9680  142.0290 N   0  0  0  0  0  2  0  0  0  0  0  0
  183.5940  179.0000  141.1710 C   0  0  1  0  0  3  0  0  0  0  0  0
  182.1420  179.4700  138.6260 C   0  0  0  0  0  2  0  0  0  0  0  0
  181.4700  178.1730  141.8580 O   0  0  0  0  0  0  0  0  0  0  0  0
  184.2730  178.9580  139.8030 C   0  0  0  0  0  2  0  0  0  0  0  0
  183.5850  179.9140  138.8320 C   0  0  0  0  0  2  0  0  0  0  0  0
  181.3680  179.5420  139.9420 C   0  0  0  0  0  2  0  0  0  0  0  0
  182.1010  178.8140  141.0300 C   0  0  0  0  0  0  0  0  0  0  0  0
  189.0420  179.3230  138.4960 O   0  0  0  0  0  0  0  0  0  0  0  0
  188.2760  178.4400  138.9740 C   0  0  0  0  0  0  0  0  0  0  0  0
  187.3090  177.8000  138.1390 N   0  0  0  0  0  2  0  0  0  0  0  0
  187.1380  178.1410  136.7350 C   0  0  0  0  0  2  0  0  0  0  0  0
  185.9500  177.3920  136.1470 C   0  0  0  0  0  2  0  0  0  0  0  0
  185.2070  176.6020  137.2100 C   0  0  0  0  0  2  0  0  0  0  0  0
  183.1440  175.8350  137.9770 C   0  0  0  0  0  1  0  0  0  0  0  0
  183.7750  176.6550  136.9600 N   0  0  0  0  0  2  0  0  0  0  0  0
  188.7450  176.9160  144.4100 N   0  0  0  0  0  2  0  0  0  0  0  0
  189.1310  177.7970  147.8240 C   0  0  0  0  0  1  0  0  0  0  0  0
  190.9950  177.7420  144.9000 C   0  0  0  0  0  2  0  0  0  0  0  0
  189.5900  176.8910  146.6940 C   0  0  2  0  0  3  0  0  0  0  0  0
  191.0330  176.5880  146.8440 C   0  0  0  0  0  0  0  0  0  0  0  0
  191.7790  177.0360  145.8950 N   0  0  0  0  0  0  0  0  0  0  0  0
  189.5410  177.6580  145.3780 C   0  0  2  0  0  3  0  0  0  0  0  0
  191.5390  175.8660  147.9270 O   0  0  0  0  0  0  0  0  0  0  0  0
  192.9340  175.7240  148.1560 C   0  0  0  0  0  1  0  0  0  0  0  0
  1  5  2  0  0  0  0
  2  6  2  0  0  0  0
  3  4  2  0  0  0  0
  3  2  1  0  0  0  0
  4  1  1  0  0  0  0
  5 29  1  0  0  0  0
  6  5  1  0  0  0  0
  7  6  1  6  0  0  0
  7 10  1  0  0  0  0
  8 11  1  6  0  0  0
  9 13  1  6  0  0  0
  9  7  1  0  0  0  0
  9 12  1  0  0  0  0
 10  8  1  0  0  0  0
 12  8  1  0  0  0  0
 14 13  1  1  0  0  0
 15 18  1  0  0  0  0
 15 19  1  0  0  0  0
 17 14  1  0  0  0  0
 18 17  1  0  0  0  0
 19 20  1  0  0  0  0
 20 14  1  0  0  0  0
 20 16  2  0  0  0  0
 21 22  2  0  0  0  0
 22  3  1  0  0  0  0
 23 22  1  0  0  0  0
 24 23  1  0  0  0  0
 25 24  1  0  0  0  0
 25 26  1  0  0  0  0
 28 26  1  0  0  0  0
 28 27  1  0  0  0  0
 31 35  1  0  0  0  0
 31 34  1  0  0  0  0
 32 33  1  0  0  0  0
 32 30  1  1  0  0  0
 33 36  1  0  0  0  0
 34 33  2  0  0  0  0
 35 29  1  6  0  0  0
 35 32  1  0  0  0  0
 36 37  1  0  0  0  0
M  END
>  <MODEL>
2

>  <REMARK>
 VINA RESULT:      -7.8      2.153      8.048
  Name = 
  11 active torsions:
  status: ('A' for Active; 'I' for Inactive)
    1  A    between atoms: C_1  and  N_13
    2  A    between atoms: C_5  and  C_15
    3  A    between atoms: O_6  and  C_27
    4  A    between atoms: C_7  and  C_34
    5  A    between atoms: C_10  and  N_13
    6  A    between atoms: N_12  and  C_23
    7  A    between atoms: N_12  and  C_36
    8  A    between atoms: C_14  and  N_25
    9  A    between atoms: C_14  and  C_28
   10  A    between atoms: N_24  and  C_35
   11  A    between atoms: C_28  and  C_35
                            x       y       z     vdW  Elec       q    Type
                         _______ _______ _______ _____ _____    ______ ____

>  <TORSDO>
F 11

$$$$
=
 OpenBabel10232411573D

 37 40  0  0  1  0  0  0  0  0999 V2000
  186.3880  178.9410  139.9320 N   0  0  0  0  0  0  0  0  0  0  0  0
  186.7210  178.1330  142.5290 C   0  0  0  0  0  3  0  0  0  0  0  0
  185.5880  178.8540  142.1430 C   0  0  0  0  0  0  0  0  0  0  0  0
  185.4630  179.2450  140.8470 N   0  0  0  0  0  0  0  0  0  0  0  0
  187.5050  178.2340  140.2530 C   0  0  0  0  0  0  0  0  0  0  0  0
  187.7020  177.8250  141.5800 C   0  0  0  0  0  0  0  0  0  0  0  0
  188.9340  177.0580  141.9670 C   0  0  2  0  0  3  0  0  0  0  0  0
  191.2320  177.3020  141.4970 C   0  0  1  0  0  3  0  0  0  0  0  0
  189.4890  177.5260  143.3060 C   0  0  2  0  0  3  0  0  0  0  0  0
  190.0250  177.2180  140.9610 C   0  0  0  0  0  2  0  0  0  0  0  0
  192.4400  177.5880  140.6750 C   0  0  0  0  0  1  0  0  0  0  0  0
  191.2910  177.2500  143.2790 S   0  0  0  0  0  0  0  0  0  0  0  0
  188.8860  176.7550  144.3800 N   0  0  0  0  0  2  0  0  0  0  0  0
  188.6350  177.6720  145.4860 C   0  0  1  0  0  3  0  0  0  0  0  0
  187.7000  177.8390  148.2970 C   0  0  0  0  0  2  0  0  0  0  0  0
  190.5470  176.6990  146.5160 O   0  0  0  0  0  0  0  0  0  0  0  0
  187.1600  177.6040  145.8800 C   0  0  0  0  0  2  0  0  0  0  0  0
  186.9020  178.4270  147.1400 C   0  0  0  0  0  2  0  0  0  0  0  0
  189.1990  177.9250  148.0110 C   0  0  0  0  0  2  0  0  0  0  0  0
  189.5170  177.3400  146.6660 C   0  0  0  0  0  0  0  0  0  0  0  0
  184.8270  179.8110  144.1770 O   0  0  0  0  0  0  0  0  0  0  0  0
  184.5390  179.1870  143.1170 C   0  0  0  0  0  0  0  0  0  0  0  0
  183.1900  178.7890  142.8630 N   0  0  0  0  0  2  0  0  0  0  0  0
  182.1060  179.0500  143.7980 C   0  0  0  0  0  2  0  0  0  0  0  0
  180.7640  178.9990  143.0830 C   0  0  0  0  0  2  0  0  0  0  0  0
  180.9350  178.8050  141.5870 C   0  0  0  0  0  2  0  0  0  0  0  0
  180.9850  177.1230  139.9730 C   0  0  0  0  0  1  0  0  0  0  0  0
  180.2930  177.5680  141.1700 N   0  0  0  0  0  2  0  0  0  0  0  0
  188.4610  177.8950  139.2390 N   0  0  0  0  0  2  0  0  0  0  0  0
  189.2290  178.2270  135.7920 C   0  0  0  0  0  1  0  0  0  0  0  0
  187.3600  176.1840  137.8800 C   0  0  0  0  0  2  0  0  0  0  0  0
  189.3190  177.3460  137.0270 C   0  0  2  0  0  3  0  0  0  0  0  0
  189.2300  175.9190  136.6360 C   0  0  0  0  0  0  0  0  0  0  0  0
  188.1940  175.3010  137.0880 N   0  0  0  0  0  0  0  0  0  0  0  0
  188.0720  177.5410  137.8810 C   0  0  2  0  0  3  0  0  0  0  0  0
  190.1980  175.2950  135.8470 O   0  0  0  0  0  0  0  0  0  0  0  0
  191.5870  175.5270  136.0310 C   0  0  0  0  0  1  0  0  0  0  0  0
  1  5  2  0  0  0  0
  1  4  1  0  0  0  0
  3  2  1  0  0  0  0
  3 22  1  0  0  0  0
  4  3  2  0  0  0  0
  5  6  1  0  0  0  0
  6  2  2  0  0  0  0
  7  6  1  6  0  0  0
  7  9  1  0  0  0  0
  8 11  1  1  0  0  0
  8 12  1  0  0  0  0
  9 13  1  1  0  0  0
 10  8  1  0  0  0  0
 10  7  1  0  0  0  0
 12  9  1  0  0  0  0
 14 13  1  6  0  0  0
 14 17  1  0  0  0  0
 14 20  1  0  0  0  0
 16 20  2  0  0  0  0
 17 18  1  0  0  0  0
 18 15  1  0  0  0  0
 19 15  1  0  0  0  0
 20 19  1  0  0  0  0
 22 21  2  0  0  0  0
 23 22  1  0  0  0  0
 23 24  1  0  0  0  0
 25 24  1  0  0  0  0
 26 25  1  0  0  0  0
 27 28  1  0  0  0  0
 28 26  1  0  0  0  0
 29  5  1  0  0  0  0
 31 35  1  0  0  0  0
 32 30  1  6  0  0  0
 32 35  1  0  0  0  0
 33 32  1  0  0  0  0
 33 34  2  0  0  0  0
 34 31  1  0  0  0  0
 35 29  1  1  0  0  0
 36 37  1  0  0  0  0
 36 33  1  0  0  0  0
M  END
>  <MODEL>
3

>  <REMARK>
 VINA RESULT:      -7.5      2.709      6.301
  Name = 
  11 active torsions:
  status: ('A' for Active; 'I' for Inactive)
    1  A    between atoms: C_1  and  N_13
    2  A    between atoms: C_5  and  C_15
    3  A    between atoms: O_6  and  C_27
    4  A    between atoms: C_7  and  C_34
    5  A    between atoms: C_10  and  N_13
    6  A    between atoms: N_12  and  C_23
    7  A    between atoms: N_12  and  C_36
    8  A    between atoms: C_14  and  N_25
    9  A    between atoms: C_14  and  C_28
   10  A    between atoms: N_24  and  C_35
   11  A    between atoms: C_28  and  C_35
                            x       y       z     vdW  Elec       q    Type
                         _______ _______ _______ _____ _____    ______ ____

>  <TORSDO>
F 11

$$$$
=
 OpenBabel10232411573D

 37 40  0  0  1  0  0  0  0  0999 V2000
  186.5740  178.9140  139.7650 N   0  0  0  0  0  0  0  0  0  0  0  0
  186.8540  178.0820  142.3610 C   0  0  0  0  0  3  0  0  0  0  0  0
  185.7190  178.7880  141.9530 C   0  0  0  0  0  0  0  0  0  0  0  0
  185.6210  179.1910  140.6590 N   0  0  0  0  0  0  0  0  0  0  0  0
  187.6950  178.2220  140.1070 C   0  0  0  0  0  0  0  0  0  0  0  0
  187.8640  177.8020  141.4340 C   0  0  0  0  0  0  0  0  0  0  0  0
  189.0990  177.0510  141.8460 C   0  0  2  0  0  3  0  0  0  0  0  0
  191.4030  177.3320  141.4270 C   0  0  1  0  0  3  0  0  0  0  0  0
  189.6170  177.5200  143.1990 C   0  0  2  0  0  3  0  0  0  0  0  0
  190.2090  177.2330  140.8640 C   0  0  0  0  0  2  0  0  0  0  0  0
  192.6240  177.6410  140.6340 C   0  0  0  0  0  1  0  0  0  0  0  0
  191.4230  177.2720  143.2110 S   0  0  0  0  0  0  0  0  0  0  0  0
  189.0020  176.7350  144.2550 N   0  0  0  0  0  2  0  0  0  0  0  0
  188.7050  177.6430  145.3560 C   0  0  1  0  0  3  0  0  0  0  0  0
  187.6850  177.7850  148.1390 C   0  0  0  0  0  2  0  0  0  0  0  0
  190.5990  176.6920  146.4390 O   0  0  0  0  0  0  0  0  0  0  0  0
  187.2210  177.5530  145.7060 C   0  0  0  0  0  2  0  0  0  0  0  0
  186.9130  178.3670  146.9610 C   0  0  0  0  0  2  0  0  0  0  0  0
  189.1910  177.8930  147.8980 C   0  0  0  0  0  2  0  0  0  0  0  0
  189.5560  177.3180  146.5610 C   0  0  0  0  0  0  0  0  0  0  0  0
  184.9010  179.6310  144.0150 O   0  0  0  0  0  0  0  0  0  0  0  0
  184.6390  179.0920  142.9040 C   0  0  0  0  0  0  0  0  0  0  0  0
  183.2900  178.7620  142.5650 N   0  0  0  0  0  2  0  0  0  0  0  0
  182.1760  178.9970  143.4710 C   0  0  0  0  0  2  0  0  0  0  0  0
  180.8530  178.8670  142.7290 C   0  0  0  0  0  2  0  0  0  0  0  0
  181.0200  179.1160  141.2400 C   0  0  0  0  0  2  0  0  0  0  0  0
  180.5890  180.6980  139.5830 C   0  0  0  0  0  1  0  0  0  0  0  0
  180.0450  180.0960  140.7870 N   0  0  0  0  0  2  0  0  0  0  0  0
  188.6820  177.9110  139.1150 N   0  0  0  0  0  2  0  0  0  0  0  0
  187.7410  175.0880  137.1860 C   0  0  0  0  0  1  0  0  0  0  0  0
  187.6860  178.5480  136.9730 C   0  0  0  0  0  2  0  0  0  0  0  0
  187.2690  176.3410  137.9040 C   0  0  2  0  0  3  0  0  0  0  0  0
  186.1180  176.9330  137.1820 C   0  0  0  0  0  0  0  0  0  0  0  0
  186.3360  178.1030  136.6890 N   0  0  0  0  0  0  0  0  0  0  0  0
  188.3340  177.4230  137.7870 C   0  0  2  0  0  3  0  0  0  0  0  0
  184.8930  176.2750  137.0540 O   0  0  0  0  0  0  0  0  0  0  0  0
  183.7520  176.9040  136.4880 C   0  0  0  0  0  1  0  0  0  0  0  0
  1  5  2  0  0  0  0
  1  4  1  0  0  0  0
  3  2  1  0  0  0  0
  3 22  1  0  0  0  0
  4  3  2  0  0  0  0
  5  6  1  0  0  0  0
  6  2  2  0  0  0  0
  7  6  1  6  0  0  0
  7  9  1  0  0  0  0
  8 11  1  1  0  0  0
  8 12  1  0  0  0  0
  9 12  1  0  0  0  0
  9 13  1  1  0  0  0
 10  8  1  0  0  0  0
 10  7  1  0  0  0  0
 14 13  1  6  0  0  0
 14 17  1  0  0  0  0
 14 20  1  0  0  0  0
 16 20  2  0  0  0  0
 17 18  1  0  0  0  0
 18 15  1  0  0  0  0
 19 15  1  0  0  0  0
 20 19  1  0  0  0  0
 22 21  2  0  0  0  0
 23 22  1  0  0  0  0
 23 24  1  0  0  0  0
 25 24  1  0  0  0  0
 26 25  1  0  0  0  0
 27 28  1  0  0  0  0
 28 26  1  0  0  0  0
 29  5  1  0  0  0  0
 31 35  1  0  0  0  0
 32 30  1  6  0  0  0
 33 32  1  0  0  0  0
 34 31  1  0  0  0  0
 34 33  2  0  0  0  0
 35 32  1  0  0  0  0
 35 29  1  1  0  0  0
 36 33  1  0  0  0  0
 37 36  1  0  0  0  0
M  END
>  <MODEL>
4

>  <REMARK>
 VINA RESULT:      -7.1      2.584      6.236
  Name = 
  11 active torsions:
  status: ('A' for Active; 'I' for Inactive)
    1  A    between atoms: C_1  and  N_13
    2  A    between atoms: C_5  and  C_15
    3  A    between atoms: O_6  and  C_27
    4  A    between atoms: C_7  and  C_34
    5  A    between atoms: C_10  and  N_13
    6  A    between atoms: N_12  and  C_23
    7  A    between atoms: N_12  and  C_36
    8  A    between atoms: C_14  and  N_25
    9  A    between atoms: C_14  and  C_28
   10  A    between atoms: N_24  and  C_35
   11  A    between atoms: C_28  and  C_35
                            x       y       z     vdW  Elec       q    Type
                         _______ _______ _______ _____ _____    ______ ____

>  <TORSDO>
F 11

$$$$
=
 OpenBabel10232411573D

 37 40  0  0  1  0  0  0  0  0999 V2000
  185.8920  179.0710  140.0900 N   0  0  0  0  0  0  0  0  0  0  0  0
  183.5600  178.1380  141.1870 C   0  0  0  0  0  3  0  0  0  0  0  0
  184.5090  178.7960  141.9730 C   0  0  0  0  0  0  0  0  0  0  0  0
  185.6570  179.2360  141.3950 N   0  0  0  0  0  0  0  0  0  0  0  0
  184.9970  178.4460  139.2770 C   0  0  0  0  0  0  0  0  0  0  0  0
  183.8050  177.9470  139.8220 C   0  0  0  0  0  0  0  0  0  0  0  0
  182.8060  177.2380  138.9530 C   0  0  2  0  0  3  0  0  0  0  0  0
  180.9720  175.8200  139.3880 C   0  0  1  0  0  3  0  0  0  0  0  0
  181.6210  178.1320  138.6150 C   0  0  2  0  0  3  0  0  0  0  0  0
  182.2590  176.0200  139.6210 C   0  0  0  0  0  2  0  0  0  0  0  0
  180.2100  174.7330  140.0600 C   0  0  0  0  0  1  0  0  0  0  0  0
  180.1700  177.0530  138.3770 S   0  0  0  0  0  0  0  0  0  0  0  0
  181.8980  178.8660  137.3910 N   0  0  0  0  0  2  0  0  0  0  0  0
  180.9850  180.0020  137.3500 C   0  0  1  0  0  3  0  0  0  0  0  0
  180.7600  182.8730  136.6340 C   0  0  0  0  0  2  0  0  0  0  0  0
  181.0290  179.7450  134.9840 O   0  0  0  0  0  0  0  0  0  0  0  0
  181.5280  181.1260  138.2300 C   0  0  0  0  0  2  0  0  0  0  0  0
  180.6810  182.3870  138.0760 C   0  0  0  0  0  2  0  0  0  0  0  0
  180.1750  181.8270  135.6850 C   0  0  0  0  0  2  0  0  0  0  0  0
  180.7950  180.4820  135.9310 C   0  0  0  0  0  0  0  0  0  0  0  0
  183.1320  179.3510  143.8250 O   0  0  0  0  0  0  0  0  0  0  0  0
  184.2760  179.0150  143.4090 C   0  0  0  0  0  0  0  0  0  0  0  0
  185.3580  178.8590  144.3290 N   0  0  0  0  0  2  0  0  0  0  0  0
  185.2120  179.0970  145.7570 C   0  0  0  0  0  2  0  0  0  0  0  0
  186.0330  178.0910  146.5510 C   0  0  0  0  0  2  0  0  0  0  0  0
  187.2730  177.6580  145.7880 C   0  0  0  0  0  2  0  0  0  0  0  0
  187.8950  177.8110  148.0300 C   0  0  0  0  0  1  0  0  0  0  0  0
  188.4100  177.5790  146.6920 N   0  0  0  0  0  2  0  0  0  0  0  0
  185.2640  178.3160  137.8740 N   0  0  0  0  0  2  0  0  0  0  0  0
  188.5450  177.1590  138.5670 C   0  0  0  0  0  1  0  0  0  0  0  0
  186.5450  177.8970  135.8320 C   0  0  0  0  0  2  0  0  0  0  0  0
  187.2050  176.8450  137.9230 C   0  0  2  0  0  3  0  0  0  0  0  0
  187.4080  176.0050  136.7190 C   0  0  0  0  0  0  0  0  0  0  0  0
  187.0580  176.5590  135.6100 N   0  0  0  0  0  0  0  0  0  0  0  0
  186.6090  178.1230  137.3470 C   0  0  2  0  0  3  0  0  0  0  0  0
  187.9300  174.7120  136.7860 O   0  0  0  0  0  0  0  0  0  0  0  0
  189.0100  174.2890  135.9650 C   0  0  0  0  0  1  0  0  0  0  0  0
  1  4  1  0  0  0  0
  2  3  1  0  0  0  0
  3 22  1  0  0  0  0
  4  3  2  0  0  0  0
  5  6  1  0  0  0  0
  5  1  2  0  0  0  0
  6  2  2  0  0  0  0
  7 10  1  0  0  0  0
  7  6  1  1  0  0  0
  8 10  1  0  0  0  0
  8 11  1  1  0  0  0
  9 13  1  6  0  0  0
  9  7  1  0  0  0  0
 12  9  1  0  0  0  0
 12  8  1  0  0  0  0
 14 13  1  6  0  0  0
 14 17  1  0  0  0  0
 15 18  1  0  0  0  0
 16 20  2  0  0  0  0
 18 17  1  0  0  0  0
 19 20  1  0  0  0  0
 19 15  1  0  0  0  0
 20 14  1  0  0  0  0
 22 21  2  0  0  0  0
 22 23  1  0  0  0  0
 23 24  1  0  0  0  0
 24 25  1  0  0  0  0
 26 25  1  0  0  0  0
 26 28  1  0  0  0  0
 28 27  1  0  0  0  0
 29  5  1  0  0  0  0
 31 35  1  0  0  0  0
 32 30  1  6  0  0  0
 33 36  1  0  0  0  0
 33 32  1  0  0  0  0
 34 31  1  0  0  0  0
 34 33  2  0  0  0  0
 35 29  1  1  0  0  0
 35 32  1  0  0  0  0
 37 36  1  0  0  0  0
M  END
>  <MODEL>
5

>  <REMARK>
 VINA RESULT:      -7.1      3.046      5.922
  Name = 
  11 active torsions:
  status: ('A' for Active; 'I' for Inactive)
    1  A    between atoms: C_1  and  N_13
    2  A    between atoms: C_5  and  C_15
    3  A    between atoms: O_6  and  C_27
    4  A    between atoms: C_7  and  C_34
    5  A    between atoms: C_10  and  N_13
    6  A    between atoms: N_12  and  C_23
    7  A    between atoms: N_12  and  C_36
    8  A    between atoms: C_14  and  N_25
    9  A    between atoms: C_14  and  C_28
   10  A    between atoms: N_24  and  C_35
   11  A    between atoms: C_28  and  C_35
                            x       y       z     vdW  Elec       q    Type
                         _______ _______ _______ _____ _____    ______ ____

>  <TORSDO>
F 11

$$$$
=
 OpenBabel10232411573D

 37 40  0  0  1  0  0  0  0  0999 V2000
  192.7070  177.2650  140.0840 N   0  0  0  0  0  0  0  0  0  0  0  0
  191.9700  176.2220  137.6600 C   0  0  0  0  0  3  0  0  0  0  0  0
  193.3150  176.4460  137.9640 C   0  0  0  0  0  0  0  0  0  0  0  0
  193.6400  176.9720  139.1740 N   0  0  0  0  0  0  0  0  0  0  0  0
  191.3840  177.0580  139.8420 C   0  0  0  0  0  0  0  0  0  0  0  0
  190.9850  176.5410  138.6020 C   0  0  0  0  0  0  0  0  0  0  0  0
  189.5300  176.3180  138.3000 C   0  0  2  0  0  3  0  0  0  0  0  0
  187.8790  177.5740  137.1770 C   0  0  1  0  0  3  0  0  0  0  0  0
  189.3390  175.5230  137.0150 C   0  0  2  0  0  3  0  0  0  0  0  0
  188.7970  177.6080  138.1300 C   0  0  0  0  0  2  0  0  0  0  0  0
  187.1260  178.7900  136.7670 C   0  0  0  0  0  1  0  0  0  0  0  0
  187.7480  176.0340  136.2850 S   0  0  0  0  0  0  0  0  0  0  0  0
  189.3100  174.1030  137.3200 N   0  0  0  0  0  2  0  0  0  0  0  0
  189.2140  173.3880  136.0530 C   0  0  1  0  0  3  0  0  0  0  0  0
  189.7470  170.7910  134.7180 C   0  0  0  0  0  2  0  0  0  0  0  0
  187.4650  172.1380  137.0760 O   0  0  0  0  0  0  0  0  0  0  0  0
  190.6080  172.9500  135.6070 C   0  0  0  0  0  2  0  0  0  0  0  0
  190.5210  172.0570  134.3710 C   0  0  0  0  0  2  0  0  0  0  0  0
  188.3120  171.1360  135.1180 C   0  0  0  0  0  2  0  0  0  0  0  0
  188.2980  172.1940  136.1820 C   0  0  0  0  0  0  0  0  0  0  0  0
  194.5400  176.8300  135.9680 O   0  0  0  0  0  0  0  0  0  0  0  0
  194.3710  176.1160  136.9960 C   0  0  0  0  0  0  0  0  0  0  0  0
  195.1990  174.9720  137.2200 N   0  0  0  0  0  2  0  0  0  0  0  0
  196.2370  174.5620  136.2870 C   0  0  0  0  0  2  0  0  0  0  0  0
  197.5970  175.0600  136.7540 C   0  0  0  0  0  2  0  0  0  0  0  0
  197.9350  174.5430  138.1410 C   0  0  0  0  0  2  0  0  0  0  0  0
  197.8990  175.3140  140.3410 C   0  0  0  0  0  1  0  0  0  0  0  0
  198.3410  175.6460  138.9980 N   0  0  0  0  0  2  0  0  0  0  0  0
  190.4110  177.3510  140.8540 N   0  0  0  0  0  2  0  0  0  0  0  0
  190.9240  178.9640  143.9720 C   0  0  0  0  0  1  0  0  0  0  0  0
  190.0950  175.8280  142.7430 C   0  0  0  0  0  2  0  0  0  0  0  0
  189.9380  178.2320  143.0750 C   0  0  2  0  0  3  0  0  0  0  0  0
  189.0010  177.4330  143.9000 C   0  0  0  0  0  0  0  0  0  0  0  0
  189.0810  176.1600  143.7250 N   0  0  0  0  0  0  0  0  0  0  0  0
  190.6770  177.1660  142.2750 C   0  0  2  0  0  3  0  0  0  0  0  0
  188.0980  178.0190  144.7900 O   0  0  0  0  0  0  0  0  0  0  0  0
  186.7700  177.5410  144.9440 C   0  0  0  0  0  1  0  0  0  0  0  0
  2  3  1  0  0  0  0
  2  6  2  0  0  0  0
  3  4  2  0  0  0  0
  4  1  1  0  0  0  0
  5  1  2  0  0  0  0
  5 29  1  0  0  0  0
  6  5  1  0  0  0  0
  7  6  1  6  0  0  0
  8 11  1  6  0  0  0
  8 10  1  0  0  0  0
  9 13  1  1  0  0  0
  9  7  1  0  0  0  0
 10  7  1  0  0  0  0
 12  9  1  0  0  0  0
 12  8  1  0  0  0  0
 14 20  1  0  0  0  0
 14 13  1  1  0  0  0
 15 19  1  0  0  0  0
 17 14  1  0  0  0  0
 18 15  1  0  0  0  0
 18 17  1  0  0  0  0
 19 20  1  0  0  0  0
 20 16  2  0  0  0  0
 21 22  2  0  0  0  0
 22 23  1  0  0  0  0
 22  3  1  0  0  0  0
 24 25  1  0  0  0  0
 24 23  1  0  0  0  0
 25 26  1  0  0  0  0
 26 28  1  0  0  0  0
 28 27  1  0  0  0  0
 31 34  1  0  0  0  0
 32 33  1  0  0  0  0
 32 30  1  1  0  0  0
 33 36  1  0  0  0  0
 34 33  2  0  0  0  0
 35 29  1  6  0  0  0
 35 31  1  0  0  0  0
 35 32  1  0  0  0  0
 36 37  1  0  0  0  0
M  END
>  <MODEL>
6

>  <REMARK>
 VINA RESULT:      -7.0      4.601      8.602
  Name = 
  11 active torsions:
  status: ('A' for Active; 'I' for Inactive)
    1  A    between atoms: C_1  and  N_13
    2  A    between atoms: C_5  and  C_15
    3  A    between atoms: O_6  and  C_27
    4  A    between atoms: C_7  and  C_34
    5  A    between atoms: C_10  and  N_13
    6  A    between atoms: N_12  and  C_23
    7  A    between atoms: N_12  and  C_36
    8  A    between atoms: C_14  and  N_25
    9  A    between atoms: C_14  and  C_28
   10  A    between atoms: N_24  and  C_35
   11  A    between atoms: C_28  and  C_35
                            x       y       z     vdW  Elec       q    Type
                         _______ _______ _______ _____ _____    ______ ____

>  <TORSDO>
F 11

$$$$
=
 OpenBabel10232411573D

 37 40  0  0  1  0  0  0  0  0999 V2000
  186.8010  178.8020  140.6690 N   0  0  0  0  0  0  0  0  0  0  0  0
  185.5050  178.0790  138.3650 C   0  0  0  0  0  3  0  0  0  0  0  0
  186.8990  178.0380  138.4460 C   0  0  0  0  0  0  0  0  0  0  0  0
  187.5060  178.4130  139.6030 N   0  0  0  0  0  0  0  0  0  0  0  0
  185.4410  178.8500  140.6470 C   0  0  0  0  0  0  0  0  0  0  0  0
  184.7600  178.5000  139.4730 C   0  0  0  0  0  0  0  0  0  0  0  0
  183.2600  178.5600  139.4130 C   0  0  2  0  0  3  0  0  0  0  0  0
  181.7200  179.9900  138.3430 C   0  0  1  0  0  3  0  0  0  0  0  0
  182.7060  177.6690  138.3090 C   0  0  2  0  0  3  0  0  0  0  0  0
  182.7730  179.9450  139.1430 C   0  0  0  0  0  2  0  0  0  0  0  0
  181.1580  181.2780  137.8540 C   0  0  0  0  0  1  0  0  0  0  0  0
  181.1450  178.4150  137.7340 S   0  0  0  0  0  0  0  0  0  0  0  0
  182.4540  176.3390  138.8360 N   0  0  0  0  0  2  0  0  0  0  0  0
  182.4840  175.4120  137.7110 C   0  0  1  0  0  3  0  0  0  0  0  0
  182.6880  172.5460  136.9700 C   0  0  0  0  0  2  0  0  0  0  0  0
  180.3090  174.7450  138.4110 O   0  0  0  0  0  0  0  0  0  0  0  0
  183.8020  174.6400  137.7200 C   0  0  0  0  0  2  0  0  0  0  0  0
  183.7930  173.5470  136.6540 C   0  0  0  0  0  2  0  0  0  0  0  0
  181.3200  173.2260  136.9200 C   0  0  0  0  0  2  0  0  0  0  0  0
  181.3110  174.4620  137.7710 C   0  0  0  0  0  0  0  0  0  0  0  0
  187.3530  177.8780  136.1220 O   0  0  0  0  0  0  0  0  0  0  0  0
  187.7080  177.5950  137.3000 C   0  0  0  0  0  0  0  0  0  0  0  0
  188.8920  176.8290  137.5290 N   0  0  0  0  0  2  0  0  0  0  0  0
  189.7200  176.3230  136.4450 C   0  0  0  0  0  2  0  0  0  0  0  0
  189.6100  174.8080  136.3550 C   0  0  0  0  0  2  0  0  0  0  0  0
  188.3910  174.3830  135.5540 C   0  0  0  0  0  2  0  0  0  0  0  0
  187.9360  172.5900  136.9730 C   0  0  0  0  0  1  0  0  0  0  0  0
  187.3830  173.8240  136.4420 N   0  0  0  0  0  2  0  0  0  0  0  0
  184.7140  179.2390  141.8200 N   0  0  0  0  0  2  0  0  0  0  0  0
  186.4210  177.3630  144.3000 C   0  0  0  0  0  1  0  0  0  0  0  0
  183.2740  178.6990  143.7230 C   0  0  0  0  0  2  0  0  0  0  0  0
  185.6920  178.6560  143.9730 C   0  0  2  0  0  3  0  0  0  0  0  0
  184.9580  179.1370  145.1670 C   0  0  0  0  0  0  0  0  0  0  0  0
  183.6770  179.1620  145.0370 N   0  0  0  0  0  0  0  0  0  0  0  0
  184.5730  178.3690  142.9800 C   0  0  2  0  0  3  0  0  0  0  0  0
  185.6070  179.5380  146.3360 O   0  0  0  0  0  0  0  0  0  0  0  0
  185.9930  178.6130  147.3420 C   0  0  0  0  0  1  0  0  0  0  0  0
  2  3  1  0  0  0  0
  2  6  2  0  0  0  0
  3  4  2  0  0  0  0
  4  1  1  0  0  0  0
  5  1  2  0  0  0  0
  5 29  1  0  0  0  0
  6  5  1  0  0  0  0
  7  6  1  6  0  0  0
  8 11  1  6  0  0  0
  8 10  1  0  0  0  0
  9 13  1  1  0  0  0
  9  7  1  0  0  0  0
 10  7  1  0  0  0  0
 12  9  1  0  0  0  0
 12  8  1  0  0  0  0
 14 17  1  0  0  0  0
 14 20  1  0  0  0  0
 14 13  1  1  0  0  0
 18 15  1  0  0  0  0
 18 17  1  0  0  0  0
 19 15  1  0  0  0  0
 19 20  1  0  0  0  0
 20 16  2  0  0  0  0
 21 22  2  0  0  0  0
 22 23  1  0  0  0  0
 22  3  1  0  0  0  0
 24 23  1  0  0  0  0
 25 24  1  0  0  0  0
 26 25  1  0  0  0  0
 26 28  1  0  0  0  0
 28 27  1  0  0  0  0
 31 34  1  0  0  0  0
 32 30  1  1  0  0  0
 32 33  1  0  0  0  0
 33 36  1  0  0  0  0
 34 33  2  0  0  0  0
 35 29  1  6  0  0  0
 35 31  1  0  0  0  0
 35 32  1  0  0  0  0
 36 37  1  0  0  0  0
M  END
>  <MODEL>
7

>  <REMARK>
 VINA RESULT:      -6.9      3.341      7.920
  Name = 
  11 active torsions:
  status: ('A' for Active; 'I' for Inactive)
    1  A    between atoms: C_1  and  N_13
    2  A    between atoms: C_5  and  C_15
    3  A    between atoms: O_6  and  C_27
    4  A    between atoms: C_7  and  C_34
    5  A    between atoms: C_10  and  N_13
    6  A    between atoms: N_12  and  C_23
    7  A    between atoms: N_12  and  C_36
    8  A    between atoms: C_14  and  N_25
    9  A    between atoms: C_14  and  C_28
   10  A    between atoms: N_24  and  C_35
   11  A    between atoms: C_28  and  C_35
                            x       y       z     vdW  Elec       q    Type
                         _______ _______ _______ _____ _____    ______ ____

>  <TORSDO>
F 11

$$$$
=
 OpenBabel10232411573D

 37 40  0  0  1  0  0  0  0  0999 V2000
  186.6770  178.7630  140.5750 N   0  0  0  0  0  0  0  0  0  0  0  0
  188.6930  177.2830  139.4560 C   0  0  0  0  0  3  0  0  0  0  0  0
  188.7450  177.6640  140.7990 C   0  0  0  0  0  0  0  0  0  0  0  0
  187.7290  178.4050  141.3160 N   0  0  0  0  0  0  0  0  0  0  0  0
  186.5730  178.4110  139.2640 C   0  0  0  0  0  0  0  0  0  0  0  0
  187.6020  177.6670  138.6690 C   0  0  0  0  0  0  0  0  0  0  0  0
  187.5230  177.2780  137.2200 C   0  0  2  0  0  3  0  0  0  0  0  0
  189.1090  176.5580  135.6290 C   0  0  1  0  0  3  0  0  0  0  0  0
  187.1670  175.8070  137.0520 C   0  0  2  0  0  3  0  0  0  0  0  0
  188.8230  177.4960  136.5180 C   0  0  0  0  0  2  0  0  0  0  0  0
  190.4130  176.5250  134.9130 C   0  0  0  0  0  1  0  0  0  0  0  0
  187.9210  175.2340  135.4940 S   0  0  0  0  0  0  0  0  0  0  0  0
  185.7220  175.6600  136.9860 N   0  0  0  0  0  2  0  0  0  0  0  0
  185.4440  174.3470  136.4190 C   0  0  1  0  0  3  0  0  0  0  0  0
  183.3750  172.2360  136.1600 C   0  0  0  0  0  2  0  0  0  0  0  0
  184.0150  175.4860  134.8940 O   0  0  0  0  0  0  0  0  0  0  0  0
  185.1070  173.3660  137.5410 C   0  0  0  0  0  2  0  0  0  0  0  0
  184.6500  172.0270  136.9670 C   0  0  0  0  0  2  0  0  0  0  0  0
  183.6390  173.1610  134.9720 C   0  0  0  0  0  2  0  0  0  0  0  0
  184.3110  174.4240  135.4230 C   0  0  0  0  0  0  0  0  0  0  0  0
  190.4620  176.1670  141.4640 O   0  0  0  0  0  0  0  0  0  0  0  0
  189.8760  177.2700  141.6520 C   0  0  0  0  0  0  0  0  0  0  0  0
  190.3010  178.1390  142.7030 N   0  0  0  0  0  2  0  0  0  0  0  0
  191.3870  177.7990  143.6100 C   0  0  0  0  0  2  0  0  0  0  0  0
  190.8470  177.5330  145.0090 C   0  0  0  0  0  2  0  0  0  0  0  0
  191.6110  176.4160  145.6980 C   0  0  0  0  0  2  0  0  0  0  0  0
  192.3550  175.7980  147.8200 C   0  0  0  0  0  1  0  0  0  0  0  0
  191.2160  176.3330  147.0960 N   0  0  0  0  0  2  0  0  0  0  0  0
  185.4130  178.7820  138.5070 N   0  0  0  0  0  2  0  0  0  0  0  0
  182.7330  178.7820  140.8310 C   0  0  0  0  0  1  0  0  0  0  0  0
  183.3250  177.9940  137.5060 C   0  0  0  0  0  2  0  0  0  0  0  0
  183.2750  179.3450  139.5270 C   0  0  2  0  0  3  0  0  0  0  0  0
  182.1580  179.6020  138.5860 C   0  0  0  0  0  0  0  0  0  0  0  0
  182.1840  178.8890  137.5140 N   0  0  0  0  0  0  0  0  0  0  0  0
  184.0830  178.2720  138.8080 C   0  0  2  0  0  3  0  0  0  0  0  0
  181.1650  180.5490  138.8410 O   0  0  0  0  0  0  0  0  0  0  0  0
  181.3120  181.9150  138.4810 C   0  0  0  0  0  1  0  0  0  0  0  0
  1  4  1  0  0  0  0
  2  3  1  0  0  0  0
  3  4  2  0  0  0  0
  3 22  1  0  0  0  0
  5  1  2  0  0  0  0
  6  5  1  0  0  0  0
  6  2  2  0  0  0  0
  7  6  1  1  0  0  0
  8 11  1  1  0  0  0
  8 10  1  0  0  0  0
  9 13  1  6  0  0  0
  9  7  1  0  0  0  0
 10  7  1  0  0  0  0
 12  8  1  0  0  0  0
 12  9  1  0  0  0  0
 14 13  1  1  0  0  0
 14 17  1  0  0  0  0
 15 18  1  0  0  0  0
 16 20  2  0  0  0  0
 18 17  1  0  0  0  0
 19 20  1  0  0  0  0
 19 15  1  0  0  0  0
 20 14  1  0  0  0  0
 21 22  2  0  0  0  0
 22 23  1  0  0  0  0
 23 24  1  0  0  0  0
 24 25  1  0  0  0  0
 25 26  1  0  0  0  0
 26 28  1  0  0  0  0
 28 27  1  0  0  0  0
 29  5  1  0  0  0  0
 31 34  1  0  0  0  0
 31 35  1  0  0  0  0
 32 30  1  1  0  0  0
 33 36  1  0  0  0  0
 33 32  1  0  0  0  0
 34 33  2  0  0  0  0
 35 29  1  6  0  0  0
 35 32  1  0  0  0  0
 37 36  1  0  0  0  0
M  END
>  <MODEL>
8

>  <REMARK>
 VINA RESULT:      -6.9      2.820      6.180
  Name = 
  11 active torsions:
  status: ('A' for Active; 'I' for Inactive)
    1  A    between atoms: C_1  and  N_13
    2  A    between atoms: C_5  and  C_15
    3  A    between atoms: O_6  and  C_27
    4  A    between atoms: C_7  and  C_34
    5  A    between atoms: C_10  and  N_13
    6  A    between atoms: N_12  and  C_23
    7  A    between atoms: N_12  and  C_36
    8  A    between atoms: C_14  and  N_25
    9  A    between atoms: C_14  and  C_28
   10  A    between atoms: N_24  and  C_35
   11  A    between atoms: C_28  and  C_35
                            x       y       z     vdW  Elec       q    Type
                         _______ _______ _______ _____ _____    ______ ____

>  <TORSDO>
F 11

$$$$
=
 OpenBabel10232411573D

 37 40  0  0  1  0  0  0  0  0999 V2000
  186.5120  177.7950  144.3470 N   0  0  0  0  0  0  0  0  0  0  0  0
  185.6900  178.6670  141.8830 C   0  0  0  0  0  3  0  0  0  0  0  0
  184.7720  178.4820  142.9200 C   0  0  0  0  0  0  0  0  0  0  0  0
  185.2170  178.0390  144.1250 N   0  0  0  0  0  0  0  0  0  0  0  0
  187.4480  177.9680  143.3750 C   0  0  0  0  0  0  0  0  0  0  0  0
  187.0460  178.3980  142.1020 C   0  0  0  0  0  0  0  0  0  0  0  0
  188.0540  178.5820  141.0040 C   0  0  2  0  0  3  0  0  0  0  0  0
  190.1710  177.6450  140.5500 C   0  0  1  0  0  3  0  0  0  0  0  0
  187.7580  177.6810  139.8130 C   0  0  2  0  0  3  0  0  0  0  0  0
  189.4380  178.2590  141.4650 C   0  0  0  0  0  2  0  0  0  0  0  0
  191.5330  177.1270  140.8500 C   0  0  0  0  0  1  0  0  0  0  0  0
  189.3480  177.3010  139.0040 S   0  0  0  0  0  0  0  0  0  0  0  0
  186.8830  178.3740  138.8830 N   0  0  0  0  0  2  0  0  0  0  0  0
  186.8990  177.6270  137.6310 C   0  0  1  0  0  3  0  0  0  0  0  0
  185.5140  177.2760  135.0310 C   0  0  0  0  0  2  0  0  0  0  0  0
  187.6110  179.6580  136.6150 O   0  0  0  0  0  0  0  0  0  0  0  0
  185.5890  176.8550  137.4810 C   0  0  0  0  0  2  0  0  0  0  0  0
  185.5070  176.1960  136.1060 C   0  0  0  0  0  2  0  0  0  0  0  0
  186.8260  178.0610  135.0690 C   0  0  0  0  0  2  0  0  0  0  0  0
  187.1070  178.5550  136.4580 C   0  0  0  0  0  0  0  0  0  0  0  0
  182.6360  179.1880  143.6760 O   0  0  0  0  0  0  0  0  0  0  0  0
  183.3430  178.7620  142.7200 C   0  0  0  0  0  0  0  0  0  0  0  0
  182.7540  178.5360  141.4370 N   0  0  0  0  0  2  0  0  0  0  0  0
  181.3400  178.7530  141.1750 C   0  0  0  0  0  2  0  0  0  0  0  0
  181.1550  179.6150  139.9330 C   0  0  0  0  0  2  0  0  0  0  0  0
  182.3720  179.5540  139.0270 C   0  0  0  0  0  2  0  0  0  0  0  0
  181.8170  181.7490  138.4700 C   0  0  0  0  0  1  0  0  0  0  0  0
  182.9240  180.8880  138.8460 N   0  0  0  0  0  2  0  0  0  0  0  0
  188.8340  177.7300  143.6560 N   0  0  0  0  0  2  0  0  0  0  0  0
  188.7230  178.0060  147.1910 C   0  0  0  0  0  1  0  0  0  0  0  0
  191.0060  178.3390  144.6030 C   0  0  0  0  0  2  0  0  0  0  0  0
  189.3220  177.2780  146.0000 C   0  0  2  0  0  3  0  0  0  0  0  0
  190.7160  176.8760  146.3020 C   0  0  0  0  0  0  0  0  0  0  0  0
  191.6100  177.4360  145.5630 N   0  0  0  0  0  0  0  0  0  0  0  0
  189.4950  178.2550  144.8430 C   0  0  2  0  0  3  0  0  0  0  0  0
  191.0310  175.9570  147.3050 O   0  0  0  0  0  0  0  0  0  0  0  0
  192.3570  175.7890  147.7870 C   0  0  0  0  0  1  0  0  0  0  0  0
  2  6  2  0  0  0  0
  2  3  1  0  0  0  0
  3  4  2  0  0  0  0
  4  1  1  0  0  0  0
  5 29  1  0  0  0  0
  5  1  2  0  0  0  0
  6  5  1  0  0  0  0
  7 10  1  0  0  0  0
  7  6  1  1  0  0  0
  8 11  1  1  0  0  0
  8 10  1  0  0  0  0
  9 13  1  6  0  0  0
  9  7  1  0  0  0  0
 12  9  1  0  0  0  0
 12  8  1  0  0  0  0
 14 13  1  1  0  0  0
 15 19  1  0  0  0  0
 15 18  1  0  0  0  0
 17 14  1  0  0  0  0
 18 17  1  0  0  0  0
 19 20  1  0  0  0  0
 20 16  2  0  0  0  0
 20 14  1  0  0  0  0
 22  3  1  0  0  0  0
 22 21  2  0  0  0  0
 23 22  1  0  0  0  0
 24 23  1  0  0  0  0
 25 24  1  0  0  0  0
 26 25  1  0  0  0  0
 27 28  1  0  0  0  0
 28 26  1  0  0  0  0
 31 35  1  0  0  0  0
 31 34  1  0  0  0  0
 32 33  1  0  0  0  0
 32 30  1  1  0  0  0
 33 36  1  0  0  0  0
 34 33  2  0  0  0  0
 35 29  1  6  0  0  0
 35 32  1  0  0  0  0
 36 37  1  0  0  0  0
M  END
>  <MODEL>
9

>  <REMARK>
 VINA RESULT:      -6.9      2.459      8.912
  Name = 
  11 active torsions:
  status: ('A' for Active; 'I' for Inactive)
    1  A    between atoms: C_1  and  N_13
    2  A    between atoms: C_5  and  C_15
    3  A    between atoms: O_6  and  C_27
    4  A    between atoms: C_7  and  C_34
    5  A    between atoms: C_10  and  N_13
    6  A    between atoms: N_12  and  C_23
    7  A    between atoms: N_12  and  C_36
    8  A    between atoms: C_14  and  N_25
    9  A    between atoms: C_14  and  C_28
   10  A    between atoms: N_24  and  C_35
   11  A    between atoms: C_28  and  C_35
                            x       y       z     vdW  Elec       q    Type
                         _______ _______ _______ _____ _____    ______ ____

>  <TORSDO>
F 11

$$$$
