=
 OpenBabel10222421293D

 34 40  0  0  1  0  0  0  0  0999 V2000
  188.1450  178.1060  136.5850 C   0  0  0  0  0  3  0  0  0  0  0  0
  184.8620  179.2830  141.6150 C   0  0  0  0  0  3  0  0  0  0  0  0
  185.1840  178.2250  146.5650 C   0  0  2  0  0  3  0  0  0  0  0  0
  189.5670  177.7990  138.5240 C   0  0  0  0  0  0  0  0  0  0  0  0
  188.9080  177.9460  140.6190 N   0  0  0  0  0  0  0  0  0  0  0  0
  190.5760  177.2510  139.3200 C   0  0  1  0  0  3  0  0  0  0  0  0
  186.8870  178.0530  142.0410 C   0  0  0  0  0  0  0  0  0  0  0  0
  186.0440  178.7310  141.1170 C   0  0  0  0  0  0  0  0  0  0  0  0
  189.1500  177.0980  142.7320 C   0  0  2  0  0  0  0  0  0  0  0  0
  188.4560  176.1600  143.7070 C   0  0  0  0  0  2  0  0  0  0  0  0
  186.2040  178.7470  139.6720 N   0  0  0  0  0  0  0  0  0  0  0  0
  190.1050  177.3740  140.6230 C   0  0  2  0  0  3  0  0  0  0  0  0
  191.7200  176.4160  138.8610 C   0  0  0  0  0  1  0  0  0  0  0  0
  185.2610  178.4180  143.7940 C   0  0  0  0  0  0  0  0  0  0  0  0
  187.2090  176.8670  144.3100 C   0  0  0  0  0  2  0  0  0  0  0  0
  188.5590  178.1850  139.3700 C   0  0  0  0  0  0  0  0  0  0  0  0
  187.0600  178.4930  137.4640 N   0  0  0  0  0  2  0  0  0  0  0  0
  184.5150  179.1420  142.9200 N   0  0  0  0  0  0  0  0  0  0  0  0
  189.3520  177.7520  137.0690 C   0  0  0  0  0  3  0  0  0  0  0  0
  187.2210  178.4880  138.8920 C   0  0  0  0  0  0  0  0  0  0  0  0
  188.1280  177.3500  141.6390 C   0  0  2  0  0  3  0  0  0  0  0  0
  184.8220  178.2910  145.1460 N   0  0  0  0  0  0  0  0  0  0  0  0
  184.0170  178.6870  146.2240 O   0  0  0  0  0  0  0  0  0  0  0  0
  186.4420  177.7990  143.3610 C   0  0  0  0  0  0  0  0  0  0  0  0
  190.3430  176.5790  141.8830 C   0  0  0  0  0  2  0  0  0  0  0  0
  189.5760  178.4010  143.4430 C   0  0  0  0  0  2  0  0  0  0  0  0
  190.0290  178.1410  144.7680 O   0  0  0  0  0  0  0  0  0  0  0  0
  191.6400  176.6080  145.8830 C   0  0  0  0  0  1  0  0  0  0  0  0
  191.3530  177.8030  145.0500 C   0  0  0  0  0  0  0  0  0  0  0  0
  192.3070  178.5040  144.6160 O   0  0  0  0  0  0  0  0  0  0  0  0
  186.0970  179.3870  146.9120 C   0  0  0  0  0  2  0  0  0  0  0  0
  187.1130  178.9670  147.9580 C   0  0  0  0  0  2  0  0  0  0  0  0
  187.9460  177.9740  147.4420 O   0  0  0  0  0  0  0  0  0  0  0  0
  189.0890  178.0250  148.2390 C   0  0  0  0  0  1  0  0  0  0  0  0
  1 19  2  0  0  0  0
  1 17  1  0  0  0  0
  2 18  1  0  0  0  0
  3 31  1  6  0  0  0
  4  6  1  0  0  0  0
  4 16  2  0  0  0  0
  5 12  1  0  0  0  0
  5 21  1  0  0  0  0
  6 13  1  6  0  0  0
  6 12  1  0  0  0  0
  7 24  2  0  0  0  0
  8  2  2  0  0  0  0
  8  7  1  0  0  0  0
  9 26  1  1  0  0  0
  9 10  1  0  0  0  0
 10 15  1  0  0  0  0
 11  8  1  0  0  0  0
 12 25  1  6  0  0  0
 14 22  1  0  0  0  0
 16  5  1  0  0  0  0
 17 20  1  0  0  0  0
 18 14  2  0  0  0  0
 19  4  1  0  0  0  0
 20 16  1  0  0  0  0
 20 11  2  0  0  0  0
 21  7  1  1  0  0  0
 21  9  1  0  0  0  0
 22 23  1  0  0  0  0
 22  3  1  0  0  0  0
 23  3  1  0  0  0  0
 24 14  1  0  0  0  0
 24 15  1  0  0  0  0
 25  9  1  0  0  0  0
 26 27  1  0  0  0  0
 27 29  1  0  0  0  0
 29 28  1  0  0  0  0
 30 29  2  0  0  0  0
 31 32  1  0  0  0  0
 33 32  1  0  0  0  0
 33 34  1  0  0  0  0
M  END
>  <MODEL>
1

>  <REMARK>
 VINA RESULT:      -9.3      0.000      0.000
  Name = 
  6 active torsions:
  status: ('A' for Active; 'I' for Inactive)
    1  A    between atoms: C_4  and  C_32
    2  A    between atoms: C_10  and  C_11
    3  A    between atoms: C_11  and  O_12
    4  A    between atoms: O_12  and  C_28
    5  A    between atoms: O_13  and  C_25
    6  A    between atoms: C_25  and  C_32
                            x       y       z     vdW  Elec       q    Type
                         _______ _______ _______ _____ _____    ______ ____

>  <TORSDO>
F 6

$$$$
=
 OpenBabel10222421293D

 34 40  0  0  1  0  0  0  0  0999 V2000
  184.4970  178.8650  146.2530 C   0  0  0  0  0  3  0  0  0  0  0  0
  186.7770  177.9820  140.6410 C   0  0  0  0  0  3  0  0  0  0  0  0
  191.3590  177.2640  138.5890 C   0  0  2  0  0  3  0  0  0  0  0  0
  186.7010  177.8790  146.4620 C   0  0  0  0  0  0  0  0  0  0  0  0
  188.0690  177.4600  144.7890 N   0  0  0  0  0  0  0  0  0  0  0  0
  187.9630  177.6230  147.0060 C   0  0  1  0  0  3  0  0  0  0  0  0
  188.4340  177.9170  142.3860 C   0  0  0  0  0  0  0  0  0  0  0  0
  187.0670  178.0240  142.0070 C   0  0  0  0  0  0  0  0  0  0  0  0
  190.2550  177.4330  144.1070 C   0  0  2  0  0  0  0  0  0  0  0  0
  191.2420  178.2560  143.2940 C   0  0  0  0  0  2  0  0  0  0  0  0
  185.9620  178.3550  142.8910 N   0  0  0  0  0  0  0  0  0  0  0  0
  188.7760  177.3640  145.9070 C   0  0  2  0  0  3  0  0  0  0  0  0
  188.4080  177.9060  148.3980 C   0  0  0  0  0  1  0  0  0  0  0  0
  189.0790  177.8750  140.0550 C   0  0  0  0  0  0  0  0  0  0  0  0
  190.9360  178.0870  141.7790 C   0  0  0  0  0  2  0  0  0  0  0  0
  186.8310  177.7910  145.0990 C   0  0  0  0  0  0  0  0  0  0  0  0
  184.6250  178.8040  144.8100 N   0  0  0  0  0  0  0  0  0  0  0  0
  187.7640  177.8840  139.7140 N   0  0  0  0  0  0  0  0  0  0  0  0
  185.4860  178.4450  147.0670 C   0  0  0  0  0  2  0  0  0  0  0  0
  185.8260  178.3150  144.1900 C   0  0  0  0  0  0  0  0  0  0  0  0
  188.8960  178.0280  143.7900 C   0  0  2  0  0  3  0  0  0  0  0  0
  190.0640  177.7950  139.0260 N   0  0  0  0  0  0  0  0  0  0  0  0
  190.4470  177.5340  137.7030 O   0  0  0  0  0  0  0  0  0  0  0  0
  189.4540  177.9540  141.4030 C   0  0  0  0  0  0  0  0  0  0  0  0
  190.2520  177.5440  145.6560 C   0  0  0  0  0  2  0  0  0  0  0  0
  190.3430  175.9410  143.7160 C   0  0  0  0  0  2  0  0  0  0  0  0
  191.6860  175.4690  143.7800 O   0  0  0  0  0  0  0  0  0  0  0  0
  192.3360  175.2220  146.1690 C   0  0  0  0  0  1  0  0  0  0  0  0
  192.1390  174.6480  144.8140 C   0  0  0  0  0  0  0  0  0  0  0  0
  192.3900  173.4300  144.6100 O   0  0  0  0  0  0  0  0  0  0  0  0
  191.3990  175.7640  138.8210 C   0  0  0  0  0  2  0  0  0  0  0  0
  191.5020  175.0270  137.4980 C   0  0  0  0  0  2  0  0  0  0  0  0
  190.7290  173.8660  137.5390 O   0  0  0  0  0  0  0  0  0  0  0  0
  189.5000  174.2440  136.9970 C   0  0  0  0  0  1  0  0  0  0  0  0
  1 19  1  0  0  0  0
  2  8  1  0  0  0  0
  3 31  1  1  0  0  0
  3 22  1  0  0  0  0
  4  6  1  0  0  0  0
  4 19  1  0  0  0  0
  5 16  1  0  0  0  0
  5 12  1  0  0  0  0
  6 13  1  6  0  0  0
  8  7  2  0  0  0  0
  8 11  1  0  0  0  0
  9 26  1  6  0  0  0
  9 25  1  0  0  0  0
 10  9  1  0  0  0  0
 11 20  2  0  0  0  0
 12 25  1  6  0  0  0
 12  6  1  0  0  0  0
 14 24  2  0  0  0  0
 15 10  1  0  0  0  0
 16  4  2  0  0  0  0
 17  1  2  0  0  0  0
 18 14  1  0  0  0  0
 18  2  2  0  0  0  0
 20 17  1  0  0  0  0
 20 16  1  0  0  0  0
 21  7  1  6  0  0  0
 21  9  1  0  0  0  0
 21  5  1  0  0  0  0
 22 14  1  0  0  0  0
 23  3  1  0  0  0  0
 23 22  1  0  0  0  0
 24 15  1  0  0  0  0
 24  7  1  0  0  0  0
 26 27  1  0  0  0  0
 27 29  1  0  0  0  0
 29 28  1  0  0  0  0
 30 29  2  0  0  0  0
 32 33  1  0  0  0  0
 32 31  1  0  0  0  0
 34 33  1  0  0  0  0
M  END
>  <MODEL>
2

>  <REMARK>
 VINA RESULT:      -8.0      2.633      6.937
  Name = 
  6 active torsions:
  status: ('A' for Active; 'I' for Inactive)
    1  A    between atoms: C_4  and  C_32
    2  A    between atoms: C_10  and  C_11
    3  A    between atoms: C_11  and  O_12
    4  A    between atoms: O_12  and  C_28
    5  A    between atoms: O_13  and  C_25
    6  A    between atoms: C_25  and  C_32
                            x       y       z     vdW  Elec       q    Type
                         _______ _______ _______ _____ _____    ______ ____

>  <TORSDO>
F 6

$$$$
=
 OpenBabel10222421293D

 34 40  0  0  1  0  0  0  0  0999 V2000
  183.1970  179.2910  139.3600 C   0  0  0  0  0  3  0  0  0  0  0  0
  184.6820  178.9020  145.2860 C   0  0  0  0  0  3  0  0  0  0  0  0
  188.5110  177.0040  148.0150 C   0  0  2  0  0  3  0  0  0  0  0  0
  185.5790  178.8780  139.5330 C   0  0  0  0  0  0  0  0  0  0  0  0
  186.6710  178.5100  141.4090 N   0  0  0  0  0  0  0  0  0  0  0  0
  186.8380  178.3760  139.1930 C   0  0  1  0  0  3  0  0  0  0  0  0
  186.3450  177.9890  143.8040 C   0  0  0  0  0  0  0  0  0  0  0  0
  185.1070  178.6700  143.9760 C   0  0  0  0  0  0  0  0  0  0  0  0
  188.3700  177.3340  142.3970 C   0  0  2  0  0  0  0  0  0  0  0  0
  188.5970  176.1220  143.2870 C   0  0  0  0  0  2  0  0  0  0  0  0
  184.1570  178.9860  142.9230 N   0  0  0  0  0  0  0  0  0  0  0  0
  187.4760  178.1670  140.4110 C   0  0  2  0  0  3  0  0  0  0  0  0
  187.2620  177.8570  137.8630 C   0  0  0  0  0  1  0  0  0  0  0  0
  186.5340  177.7250  146.2010 C   0  0  0  0  0  0  0  0  0  0  0  0
  188.2050  176.4720  144.7510 C   0  0  0  0  0  2  0  0  0  0  0  0
  185.5230  178.9150  140.9030 C   0  0  0  0  0  0  0  0  0  0  0  0
  183.1120  179.3080  140.8070 N   0  0  0  0  0  2  0  0  0  0  0  0
  185.4010  178.4580  146.3490 N   0  0  0  0  0  0  0  0  0  0  0  0
  184.3650  179.0690  138.7250 C   0  0  0  0  0  3  0  0  0  0  0  0
  184.2700  179.0620  141.6230 C   0  0  0  0  0  0  0  0  0  0  0  0
  186.8790  177.6040  142.4760 C   0  0  2  0  0  3  0  0  0  0  0  0
  187.2260  177.2710  147.3640 N   0  0  0  0  0  0  0  0  0  0  0  0
  187.4780  177.3090  148.7420 O   0  0  0  0  0  0  0  0  0  0  0  0
  187.0070  177.4170  144.9180 C   0  0  0  0  0  0  0  0  0  0  0  0
  188.5470  177.2030  140.8590 C   0  0  0  0  0  2  0  0  0  0  0  0
  189.2070  178.5350  142.8930 C   0  0  0  0  0  2  0  0  0  0  0  0
  190.5940  178.3370  142.6370 O   0  0  0  0  0  0  0  0  0  0  0  0
  192.0000  179.3590  144.4180 C   0  0  0  0  0  1  0  0  0  0  0  0
  191.5240  178.1710  143.6640 C   0  0  0  0  0  0  0  0  0  0  0  0
  191.9720  177.0290  143.9530 O   0  0  0  0  0  0  0  0  0  0  0  0
  189.4090  178.2210  147.8890 C   0  0  0  0  0  2  0  0  0  0  0  0
  190.8410  177.7970  147.6170 C   0  0  0  0  0  2  0  0  0  0  0  0
  190.8570  176.5570  146.9790 O   0  0  0  0  0  0  0  0  0  0  0  0
  192.0260  175.9450  147.4320 C   0  0  0  0  0  1  0  0  0  0  0  0
  1 17  1  0  0  0  0
  2 18  1  0  0  0  0
  3 31  1  6  0  0  0
  3 23  1  0  0  0  0
  4 16  2  0  0  0  0
  5 21  1  0  0  0  0
  6 13  1  1  0  0  0
  6  4  1  0  0  0  0
  6 12  1  0  0  0  0
  7  8  1  0  0  0  0
  7 24  2  0  0  0  0
  8  2  2  0  0  0  0
  9 21  1  0  0  0  0
  9 26  1  1  0  0  0
  9 10  1  0  0  0  0
 10 15  1  0  0  0  0
 11  8  1  0  0  0  0
 12 25  1  1  0  0  0
 12  5  1  0  0  0  0
 14 18  2  0  0  0  0
 14 22  1  0  0  0  0
 15 24  1  0  0  0  0
 16  5  1  0  0  0  0
 16 20  1  0  0  0  0
 17 20  1  0  0  0  0
 19  1  2  0  0  0  0
 19  4  1  0  0  0  0
 20 11  2  0  0  0  0
 21  7  1  1  0  0  0
 22  3  1  0  0  0  0
 22 23  1  0  0  0  0
 24 14  1  0  0  0  0
 25  9  1  0  0  0  0
 27 26  1  0  0  0  0
 27 29  1  0  0  0  0
 29 30  2  0  0  0  0
 29 28  1  0  0  0  0
 32 31  1  0  0  0  0
 33 34  1  0  0  0  0
 33 32  1  0  0  0  0
M  END
>  <MODEL>
3

>  <REMARK>
 VINA RESULT:      -7.8      1.890      3.354
  Name = 
  6 active torsions:
  status: ('A' for Active; 'I' for Inactive)
    1  A    between atoms: C_4  and  C_32
    2  A    between atoms: C_10  and  C_11
    3  A    between atoms: C_11  and  O_12
    4  A    between atoms: O_12  and  C_28
    5  A    between atoms: O_13  and  C_25
    6  A    between atoms: C_25  and  C_32
                            x       y       z     vdW  Elec       q    Type
                         _______ _______ _______ _____ _____    ______ ____

>  <TORSDO>
F 6

$$$$
=
 OpenBabel10222421293D

 34 40  0  0  1  0  0  0  0  0999 V2000
  187.8030  177.7670  148.4980 C   0  0  0  0  0  3  0  0  0  0  0  0
  184.2970  178.3730  143.5170 C   0  0  0  0  0  3  0  0  0  0  0  0
  185.0340  178.9930  138.5380 C   0  0  2  0  0  3  0  0  0  0  0  0
  189.1390  177.2390  146.5450 C   0  0  0  0  0  0  0  0  0  0  0  0
  188.4610  177.4120  144.4580 N   0  0  0  0  0  0  0  0  0  0  0  0
  190.2710  177.1590  145.7290 C   0  0  1  0  0  3  0  0  0  0  0  0
  186.6590  178.3490  143.0480 C   0  0  0  0  0  0  0  0  0  0  0  0
  185.6020  178.2350  143.9940 C   0  0  0  0  0  0  0  0  0  0  0  0
  189.0730  177.9600  142.3200 C   0  0  2  0  0  0  0  0  0  0  0  0
  188.9560  179.1000  141.3200 C   0  0  0  0  0  2  0  0  0  0  0  0
  185.7570  178.1700  145.4380 N   0  0  0  0  0  0  0  0  0  0  0  0
  189.7800  177.2710  144.4320 C   0  0  2  0  0  3  0  0  0  0  0  0
  191.6910  177.2800  146.1590 C   0  0  0  0  0  1  0  0  0  0  0  0
  185.0500  178.8520  141.3120 C   0  0  0  0  0  0  0  0  0  0  0  0
  187.5120  179.1390  140.7440 C   0  0  0  0  0  2  0  0  0  0  0  0
  188.0620  177.4200  145.7140 C   0  0  0  0  0  0  0  0  0  0  0  0
  186.6600  177.9870  147.6350 N   0  0  0  0  0  0  0  0  0  0  0  0
  184.0510  178.6460  142.2090 N   0  0  0  0  0  0  0  0  0  0  0  0
  189.0080  177.4250  147.9990 C   0  0  0  0  0  2  0  0  0  0  0  0
  186.7730  177.8750  146.2060 C   0  0  0  0  0  0  0  0  0  0  0  0
  188.0910  178.3060  143.4240 C   0  0  2  0  0  3  0  0  0  0  0  0
  184.7170  179.1590  139.9590 N   0  0  0  0  0  0  0  0  0  0  0  0
  183.8050  179.2190  138.8960 O   0  0  0  0  0  0  0  0  0  0  0  0
  186.3880  178.7690  141.7220 C   0  0  0  0  0  0  0  0  0  0  0  0
  190.3760  177.7950  143.1490 C   0  0  0  0  0  2  0  0  0  0  0  0
  188.7390  176.6100  141.6450 C   0  0  0  0  0  2  0  0  0  0  0  0
  189.8840  176.0580  141.0040 O   0  0  0  0  0  0  0  0  0  0  0  0
  189.4470  176.5390  138.6020 C   0  0  0  0  0  1  0  0  0  0  0  0
  190.3540  176.5320  139.7780 C   0  0  0  0  0  0  0  0  0  0  0  0
  191.5380  176.9470  139.6540 O   0  0  0  0  0  0  0  0  0  0  0  0
  185.1960  177.5180  138.2200 C   0  0  0  0  0  2  0  0  0  0  0  0
  185.9990  177.3360  136.9450 C   0  0  0  0  0  2  0  0  0  0  0  0
  186.9360  178.3610  136.8210 O   0  0  0  0  0  0  0  0  0  0  0  0
  187.6880  178.0160  135.6980 C   0  0  0  0  0  1  0  0  0  0  0  0
  2  8  1  0  0  0  0
  3 31  1  1  0  0  0
  3 23  1  0  0  0  0
  3 22  1  0  0  0  0
  4 19  1  0  0  0  0
  5 16  1  0  0  0  0
  6 13  1  1  0  0  0
  6  4  1  0  0  0  0
  7  8  2  0  0  0  0
  8 11  1  0  0  0  0
  9 26  1  6  0  0  0
  9 25  1  0  0  0  0
  9 21  1  0  0  0  0
 10  9  1  0  0  0  0
 11 20  2  0  0  0  0
 12 25  1  1  0  0  0
 12  5  1  0  0  0  0
 12  6  1  0  0  0  0
 14 24  2  0  0  0  0
 14 18  1  0  0  0  0
 15 10  1  0  0  0  0
 15 24  1  0  0  0  0
 16 20  1  0  0  0  0
 16  4  2  0  0  0  0
 17  1  2  0  0  0  0
 18  2  2  0  0  0  0
 19  1  1  0  0  0  0
 20 17  1  0  0  0  0
 21  7  1  6  0  0  0
 21  5  1  0  0  0  0
 22 14  1  0  0  0  0
 23 22  1  0  0  0  0
 24  7  1  0  0  0  0
 27 26  1  0  0  0  0
 28 29  1  0  0  0  0
 29 27  1  0  0  0  0
 30 29  2  0  0  0  0
 32 31  1  0  0  0  0
 33 32  1  0  0  0  0
 34 33  1  0  0  0  0
M  END
>  <MODEL>
4

>  <REMARK>
 VINA RESULT:      -7.3      2.718      6.680
  Name = 
  6 active torsions:
  status: ('A' for Active; 'I' for Inactive)
    1  A    between atoms: C_4  and  C_32
    2  A    between atoms: C_10  and  C_11
    3  A    between atoms: C_11  and  O_12
    4  A    between atoms: O_12  and  C_28
    5  A    between atoms: O_13  and  C_25
    6  A    between atoms: C_25  and  C_32
                            x       y       z     vdW  Elec       q    Type
                         _______ _______ _______ _____ _____    ______ ____

>  <TORSDO>
F 6

$$$$
=
 OpenBabel10222421293D

 34 40  0  0  1  0  0  0  0  0999 V2000
  181.8350  179.3930  143.7750 C   0  0  0  0  0  3  0  0  0  0  0  0
  185.1990  178.3030  138.7790 C   0  0  0  0  0  3  0  0  0  0  0  0
  190.1120  177.6420  137.7090 C   0  0  2  0  0  3  0  0  0  0  0  0
  183.9780  178.4980  144.4680 C   0  0  0  0  0  0  0  0  0  0  0  0
  185.6590  178.0410  143.1220 N   0  0  0  0  0  0  0  0  0  0  0  0
  185.1130  178.3140  145.2630 C   0  0  1  0  0  3  0  0  0  0  0  0
  186.4800  178.3860  140.8160 C   0  0  0  0  0  0  0  0  0  0  0  0
  185.2130  178.4260  140.1700 C   0  0  0  0  0  0  0  0  0  0  0  0
  187.9360  178.0560  142.8850 C   0  0  2  0  0  0  0  0  0  0  0  0
  189.0440  178.8710  142.2350 C   0  0  0  0  0  2  0  0  0  0  0  0
  183.9470  178.7630  140.8000 N   0  0  0  0  0  0  0  0  0  0  0  0
  186.1330  178.0280  144.3610 C   0  0  2  0  0  3  0  0  0  0  0  0
  185.2670  178.6840  146.6970 C   0  0  0  0  0  1  0  0  0  0  0  0
  187.5740  178.2480  138.6620 C   0  0  0  0  0  0  0  0  0  0  0  0
  189.0480  178.6130  140.7020 C   0  0  0  0  0  2  0  0  0  0  0  0
  184.3770  178.3440  143.1650 C   0  0  0  0  0  0  0  0  0  0  0  0
  182.2470  179.2620  142.3910 N   0  0  0  0  0  0  0  0  0  0  0  0
  186.3530  178.1920  138.0710 N   0  0  0  0  0  0  0  0  0  0  0  0
  182.6530  179.0500  144.7900 C   0  0  0  0  0  2  0  0  0  0  0  0
  183.5580  178.7840  142.0480 C   0  0  0  0  0  0  0  0  0  0  0  0
  186.6520  178.5860  142.2740 C   0  0  2  0  0  3  0  0  0  0  0  0
  188.7440  178.1490  137.8520 N   0  0  0  0  0  0  0  0  0  0  0  0
  189.3880  177.8350  136.6470 O   0  0  0  0  0  0  0  0  0  0  0  0
  187.6730  178.4090  140.0510 C   0  0  0  0  0  0  0  0  0  0  0  0
  187.6250  178.2470  144.3940 C   0  0  0  0  0  2  0  0  0  0  0  0
  188.1370  176.5500  142.6050 C   0  0  0  0  0  2  0  0  0  0  0  0
  189.1660  176.0050  143.4250 O   0  0  0  0  0  0  0  0  0  0  0  0
  191.5900  175.8480  143.9650 C   0  0  0  0  0  1  0  0  0  0  0  0
  190.4810  175.8690  142.9770 C   0  0  0  0  0  0  0  0  0  0  0  0
  190.7400  175.7720  141.7470 O   0  0  0  0  0  0  0  0  0  0  0  0
  190.1420  176.1590  138.0300 C   0  0  0  0  0  2  0  0  0  0  0  0
  191.4860  175.5630  137.6520 C   0  0  0  0  0  2  0  0  0  0  0  0
  192.5110  176.2440  138.3080 O   0  0  0  0  0  0  0  0  0  0  0  0
  193.6840  175.6730  137.8150 C   0  0  0  0  0  1  0  0  0  0  0  0
  1 19  1  0  0  0  0
  2  8  1  0  0  0  0
  3 22  1  0  0  0  0
  3 31  1  1  0  0  0
  4 19  1  0  0  0  0
  4  6  1  0  0  0  0
  5 16  1  0  0  0  0
  5 12  1  0  0  0  0
  6 13  1  6  0  0  0
  8 11  1  0  0  0  0
  8  7  2  0  0  0  0
  9 26  1  6  0  0  0
  9 25  1  0  0  0  0
 10  9  1  0  0  0  0
 11 20  2  0  0  0  0
 12 25  1  6  0  0  0
 12  6  1  0  0  0  0
 14 24  2  0  0  0  0
 15 10  1  0  0  0  0
 16  4  2  0  0  0  0
 17  1  2  0  0  0  0
 18 14  1  0  0  0  0
 18  2  2  0  0  0  0
 20 17  1  0  0  0  0
 20 16  1  0  0  0  0
 21  7  1  6  0  0  0
 21  9  1  0  0  0  0
 21  5  1  0  0  0  0
 22 14  1  0  0  0  0
 23  3  1  0  0  0  0
 23 22  1  0  0  0  0
 24 15  1  0  0  0  0
 24  7  1  0  0  0  0
 26 27  1  0  0  0  0
 29 27  1  0  0  0  0
 29 28  1  0  0  0  0
 30 29  2  0  0  0  0
 32 31  1  0  0  0  0
 32 33  1  0  0  0  0
 34 33  1  0  0  0  0
M  END
>  <MODEL>
5

>  <REMARK>
 VINA RESULT:      -7.3      2.517      6.768
  Name = 
  6 active torsions:
  status: ('A' for Active; 'I' for Inactive)
    1  A    between atoms: C_4  and  C_32
    2  A    between atoms: C_10  and  C_11
    3  A    between atoms: C_11  and  O_12
    4  A    between atoms: O_12  and  C_28
    5  A    between atoms: O_13  and  C_25
    6  A    between atoms: C_25  and  C_32
                            x       y       z     vdW  Elec       q    Type
                         _______ _______ _______ _____ _____    ______ ____

>  <TORSDO>
F 6

$$$$
=
 OpenBabel10222421293D

 34 40  0  0  1  0  0  0  0  0999 V2000
  184.4870  178.7810  147.0730 C   0  0  0  0  0  3  0  0  0  0  0  0
  184.5710  178.3590  140.9670 C   0  0  0  0  0  3  0  0  0  0  0  0
  188.0970  178.0150  137.3390 C   0  0  2  0  0  3  0  0  0  0  0  0
  186.6420  177.9060  146.3900 C   0  0  0  0  0  0  0  0  0  0  0  0
  187.3110  177.6620  144.3070 N   0  0  0  0  0  0  0  0  0  0  0  0
  188.0220  177.6870  146.4160 C   0  0  1  0  0  3  0  0  0  0  0  0
  186.7540  178.2800  141.9780 C   0  0  0  0  0  0  0  0  0  0  0  0
  185.3410  178.3360  142.1320 C   0  0  0  0  0  0  0  0  0  0  0  0
  189.0930  177.7940  142.8750 C   0  0  2  0  0  0  0  0  0  0  0  0
  189.6880  178.7180  141.8230 C   0  0  0  0  0  2  0  0  0  0  0  0
  184.6290  178.5530  143.3810 N   0  0  0  0  0  0  0  0  0  0  0  0
  188.3820  177.5380  145.0800 C   0  0  2  0  0  3  0  0  0  0  0  0
  188.9390  177.9100  147.5670 C   0  0  0  0  0  1  0  0  0  0  0  0
  186.4990  178.4130  139.5760 C   0  0  0  0  0  0  0  0  0  0  0  0
  188.8520  178.6220  140.5150 C   0  0  0  0  0  2  0  0  0  0  0  0
  186.2650  177.9060  145.0710 C   0  0  0  0  0  0  0  0  0  0  0  0
  184.0780  178.8130  145.6830 N   0  0  0  0  0  0  0  0  0  0  0  0
  185.1510  178.3700  139.7400 N   0  0  0  0  0  0  0  0  0  0  0  0
  185.7180  178.3680  147.4370 C   0  0  0  0  0  2  0  0  0  0  0  0
  184.9810  178.4280  144.6330 C   0  0  0  0  0  0  0  0  0  0  0  0
  187.6960  178.3330  143.1210 C   0  0  2  0  0  3  0  0  0  0  0  0
  187.0380  178.4470  138.2560 N   0  0  0  0  0  0  0  0  0  0  0  0
  186.9160  178.2880  136.8680 O   0  0  0  0  0  0  0  0  0  0  0  0
  187.3400  178.4320  140.6970 C   0  0  0  0  0  0  0  0  0  0  0  0
  189.6570  177.8130  144.3220 C   0  0  0  0  0  2  0  0  0  0  0  0
  189.0740  176.3350  142.3670 C   0  0  0  0  0  2  0  0  0  0  0  0
  189.8880  175.4960  143.1810 O   0  0  0  0  0  0  0  0  0  0  0  0
  191.9810  175.1060  144.4690 C   0  0  0  0  0  1  0  0  0  0  0  0
  191.2650  175.6870  143.3050 C   0  0  0  0  0  0  0  0  0  0  0  0
  191.9060  176.3540  142.4490 O   0  0  0  0  0  0  0  0  0  0  0  0
  188.2620  176.5080  137.4260 C   0  0  0  0  0  2  0  0  0  0  0  0
  189.6910  176.1130  137.1010 C   0  0  0  0  0  2  0  0  0  0  0  0
  190.2070  175.3120  138.1190 O   0  0  0  0  0  0  0  0  0  0  0  0
  191.0440  176.1620  138.8430 C   0  0  0  0  0  1  0  0  0  0  0  0
  1 19  1  0  0  0  0
  2  8  1  0  0  0  0
  3 31  1  1  0  0  0
  3 22  1  0  0  0  0
  4  6  1  0  0  0  0
  4 19  1  0  0  0  0
  5 16  1  0  0  0  0
  5 12  1  0  0  0  0
  6 13  1  6  0  0  0
  7  8  2  0  0  0  0
  8 11  1  0  0  0  0
  9 26  1  6  0  0  0
  9 21  1  0  0  0  0
  9 25  1  0  0  0  0
 10  9  1  0  0  0  0
 11 20  2  0  0  0  0
 12 25  1  6  0  0  0
 12  6  1  0  0  0  0
 14 18  1  0  0  0  0
 14 24  2  0  0  0  0
 15 24  1  0  0  0  0
 15 10  1  0  0  0  0
 16  4  2  0  0  0  0
 17  1  2  0  0  0  0
 18  2  2  0  0  0  0
 20 16  1  0  0  0  0
 20 17  1  0  0  0  0
 21  7  1  6  0  0  0
 21  5  1  0  0  0  0
 22 14  1  0  0  0  0
 23  3  1  0  0  0  0
 23 22  1  0  0  0  0
 24  7  1  0  0  0  0
 26 27  1  0  0  0  0
 27 29  1  0  0  0  0
 29 28  1  0  0  0  0
 30 29  2  0  0  0  0
 32 31  1  0  0  0  0
 32 33  1  0  0  0  0
 33 34  1  0  0  0  0
M  END
>  <MODEL>
6

>  <REMARK>
 VINA RESULT:      -6.4      2.417      6.554
  Name = 
  6 active torsions:
  status: ('A' for Active; 'I' for Inactive)
    1  A    between atoms: C_4  and  C_32
    2  A    between atoms: C_10  and  C_11
    3  A    between atoms: C_11  and  O_12
    4  A    between atoms: O_12  and  C_28
    5  A    between atoms: O_13  and  C_25
    6  A    between atoms: C_25  and  C_32
                            x       y       z     vdW  Elec       q    Type
                         _______ _______ _______ _____ _____    ______ ____

>  <TORSDO>
F 6

$$$$
=
 OpenBabel10222421293D

 34 40  0  0  1  0  0  0  0  0999 V2000
  191.3680  178.1980  143.3150 C   0  0  0  0  0  3  0  0  0  0  0  0
  185.5050  178.5290  141.5860 C   0  0  0  0  0  3  0  0  0  0  0  0
  182.9280  178.3570  137.2220 C   0  0  2  0  0  3  0  0  0  0  0  0
  191.1630  177.2450  141.0950 C   0  0  0  0  0  0  0  0  0  0  0  0
  189.3180  177.2080  139.8940 N   0  0  0  0  0  0  0  0  0  0  0  0
  191.5220  176.9150  139.7850 C   0  0  1  0  0  3  0  0  0  0  0  0
  187.0370  178.1520  139.7670 C   0  0  0  0  0  0  0  0  0  0  0  0
  186.8170  178.3000  141.1650 C   0  0  0  0  0  0  0  0  0  0  0  0
  188.4420  177.3750  137.7850 C   0  0  2  0  0  0  0  0  0  0  0  0
  187.7260  178.3710  136.8860 C   0  0  0  0  0  2  0  0  0  0  0  0
  187.8500  178.4180  142.1810 N   0  0  0  0  0  0  0  0  0  0  0  0
  190.3220  176.9050  139.0820 C   0  0  2  0  0  3  0  0  0  0  0  0
  192.8950  176.9210  139.2080 C   0  0  0  0  0  1  0  0  0  0  0  0
  184.6960  178.6010  139.3520 C   0  0  0  0  0  0  0  0  0  0  0  0
  186.2440  178.5050  137.3370 C   0  0  0  0  0  2  0  0  0  0  0  0
  189.8050  177.4380  141.0980 C   0  0  0  0  0  0  0  0  0  0  0  0
  189.9380  178.4340  143.3270 N   0  0  0  0  0  2  0  0  0  0  0  0
  184.4890  178.6460  140.6930 N   0  0  0  0  0  0  0  0  0  0  0  0
  191.9830  177.6460  142.2490 C   0  0  0  0  0  3  0  0  0  0  0  0
  189.1210  178.1110  142.1890 C   0  0  0  0  0  0  0  0  0  0  0  0
  188.3830  177.9880  139.1720 C   0  0  2  0  0  3  0  0  0  0  0  0
  183.5840  178.7560  138.4710 N   0  0  0  0  0  0  0  0  0  0  0  0
  182.2050  178.7790  138.2170 O   0  0  0  0  0  0  0  0  0  0  0  0
  185.9900  178.4140  138.8480 C   0  0  0  0  0  0  0  0  0  0  0  0
  189.9750  177.1690  137.6380 C   0  0  0  0  0  2  0  0  0  0  0  0
  187.7480  175.9960  137.7280 C   0  0  0  0  0  2  0  0  0  0  0  0
  188.3180  175.1730  136.7140 O   0  0  0  0  0  0  0  0  0  0  0  0
  187.7740  172.7460  136.7820 C   0  0  0  0  0  1  0  0  0  0  0  0
  188.7340  173.8650  136.9630 C   0  0  0  0  0  0  0  0  0  0  0  0
  189.9100  173.6210  137.3460 O   0  0  0  0  0  0  0  0  0  0  0  0
  182.8430  176.8430  137.1520 C   0  0  0  0  0  2  0  0  0  0  0  0
  183.4990  176.3340  135.8820 C   0  0  0  0  0  2  0  0  0  0  0  0
  184.6070  175.5490  136.1990 O   0  0  0  0  0  0  0  0  0  0  0  0
  184.2250  174.8480  137.3420 C   0  0  0  0  0  1  0  0  0  0  0  0
  1 17  1  0  0  0  0
  3 31  1  1  0  0  0
  3 23  1  0  0  0  0
  3 22  1  0  0  0  0
  4 16  2  0  0  0  0
  4 19  1  0  0  0  0
  5 16  1  0  0  0  0
  6 13  1  6  0  0  0
  6  4  1  0  0  0  0
  7  8  2  0  0  0  0
  8  2  1  0  0  0  0
  8 11  1  0  0  0  0
  9 26  1  6  0  0  0
  9 21  1  0  0  0  0
 10 15  1  0  0  0  0
 10  9  1  0  0  0  0
 11 20  2  0  0  0  0
 12 25  1  6  0  0  0
 12  6  1  0  0  0  0
 12  5  1  0  0  0  0
 14 18  1  0  0  0  0
 15 24  1  0  0  0  0
 16 20  1  0  0  0  0
 18  2  2  0  0  0  0
 19  1  2  0  0  0  0
 20 17  1  0  0  0  0
 21  7  1  1  0  0  0
 21  5  1  0  0  0  0
 22 14  1  0  0  0  0
 23 22  1  0  0  0  0
 24 14  2  0  0  0  0
 24  7  1  0  0  0  0
 25  9  1  0  0  0  0
 27 29  1  0  0  0  0
 27 26  1  0  0  0  0
 28 29  1  0  0  0  0
 29 30  2  0  0  0  0
 32 33  1  0  0  0  0
 32 31  1  0  0  0  0
 33 34  1  0  0  0  0
M  END
>  <MODEL>
7

>  <REMARK>
 VINA RESULT:      -6.3      4.057      6.787
  Name = 
  6 active torsions:
  status: ('A' for Active; 'I' for Inactive)
    1  A    between atoms: C_4  and  C_32
    2  A    between atoms: C_10  and  C_11
    3  A    between atoms: C_11  and  O_12
    4  A    between atoms: O_12  and  C_28
    5  A    between atoms: O_13  and  C_25
    6  A    between atoms: C_25  and  C_32
                            x       y       z     vdW  Elec       q    Type
                         _______ _______ _______ _____ _____    ______ ____

>  <TORSDO>
F 6

$$$$
