=
 OpenBabel10232410463D

 35 38  0  0  1  0  0  0  0  0999 V2000
  188.5640  178.0320  147.9530 C   0  0  0  0  0  0  0  0  0  0  0  0
  186.7510  177.9900  145.8210 C   0  0  0  0  0  0  0  0  0  0  0  0
  187.3190  178.6500  148.0840 C   0  0  0  0  0  3  0  0  0  0  0  0
  188.0030  177.3610  145.6810 C   0  0  0  0  0  0  0  0  0  0  0  0
  186.4160  178.6300  147.0190 C   0  0  0  0  0  3  0  0  0  0  0  0
  188.9060  177.3940  146.7580 C   0  0  0  0  0  3  0  0  0  0  0  0
  189.4420  178.0510  148.9830 F   0  0  0  0  0  0  0  0  0  0  0  0
  188.3200  176.7460  144.4570 O   0  0  0  0  0  0  0  0  0  0  0  0
  190.6530  177.4690  144.1150 C   0  0  0  0  0  3  0  0  0  0  0  0
  190.3290  177.0600  141.3700 C   0  0  0  0  0  0  0  0  0  0  0  0
  189.4140  177.0260  143.6230 C   0  0  0  0  0  0  0  0  0  0  0  0
  191.7170  177.7150  143.2420 C   0  0  0  0  0  3  0  0  0  0  0  0
  191.5540  177.5130  141.8690 C   0  0  0  0  0  3  0  0  0  0  0  0
  189.2640  176.8210  142.2460 C   0  0  0  0  0  3  0  0  0  0  0  0
  190.1510  176.8540  139.9070 C   0  0  0  0  0  2  0  0  0  0  0  0
  188.8020  177.4080  139.4610 C   0  0  0  0  0  2  0  0  0  0  0  0
  188.0650  176.8560  135.9750 C   0  0  0  0  0  2  0  0  0  0  0  0
  188.8220  177.8670  138.0070 C   0  0  1  0  0  0  0  0  0  0  0  0
  190.1840  176.6870  135.0040 C   0  0  0  0  0  1  0  0  0  0  0  0
  187.5710  177.4400  137.2770 C   0  0  0  0  0  2  0  0  0  0  0  0
  188.9760  179.2540  137.9300 O   0  0  0  0  0  1  0  0  0  0  0  0
  189.9680  177.1950  137.2770 C   0  0  0  0  0  2  0  0  0  0  0  0
  189.4210  176.3780  136.2010 N   0  0  0  0  0  0  0  0  0  0  0  0
  185.7740  178.0050  144.6920 C   0  0  0  0  0  2  0  0  0  0  0  0
  184.4130  178.4460  145.1910 C   0  0  0  0  0  2  0  0  0  0  0  0
  183.8760  179.5440  144.2960 C   0  0  0  0  0  2  0  0  0  0  0  0
  182.8030  179.0020  143.4130 C   0  0  0  0  0  0  0  0  0  0  0  0
  183.0660  178.7200  142.0310 N   0  0  0  0  0  0  0  0  0  0  0  0
  182.5460  177.4030  140.0240 C   0  0  0  0  0  2  0  0  0  0  0  0
  184.6110  178.7710  140.1040 C   0  0  0  0  0  0  0  0  0  0  0  0
  184.3240  179.0280  141.4820 N   0  0  0  0  0  2  0  0  0  0  0  0
  181.9830  178.2490  141.1620 C   0  0  0  0  0  2  0  0  0  0  0  0
  183.5480  178.2150  139.2110 C   0  0  0  0  0  2  0  0  0  0  0  0
  185.7430  179.0550  139.6340 O   0  0  0  0  0  0  0  0  0  0  0  0
  181.6650  178.7700  143.9040 O   0  0  0  0  0  0  0  0  0  0  0  0
  1  3  1  0  0  0  0
  1  7  1  0  0  0  0
  2  5  1  0  0  0  0
  4  2  2  0  0  0  0
  4  6  1  0  0  0  0
  5  3  2  0  0  0  0
  6  1  2  0  0  0  0
  8  4  1  0  0  0  0
 10 13  2  0  0  0  0
 10 14  1  0  0  0  0
 11  9  1  0  0  0  0
 11  8  1  0  0  0  0
 12  9  2  0  0  0  0
 13 12  1  0  0  0  0
 14 11  2  0  0  0  0
 15 10  1  0  0  0  0
 16 15  1  0  0  0  0
 17 23  1  0  0  0  0
 17 20  1  0  0  0  0
 18 21  1  6  0  0  0
 18 16  1  0  0  0  0
 19 23  1  0  0  0  0
 20 18  1  0  0  0  0
 22 18  1  0  0  0  0
 23 22  1  0  0  0  0
 24 25  1  0  0  0  0
 24  2  1  0  0  0  0
 26 25  1  0  0  0  0
 27 35  2  0  0  0  0
 27 26  1  0  0  0  0
 28 27  1  0  0  0  0
 29 32  1  0  0  0  0
 30 31  1  0  0  0  0
 31 28  1  0  0  0  0
 32 28  1  0  0  0  0
 33 29  1  0  0  0  0
 33 30  1  0  0  0  0
 34 30  2  0  0  0  0
M  END
>  <MODEL>
1

>  <REMARK>
 VINA RESULT:      -9.4      0.000      0.000
  Name = 
  9 active torsions:
  status: ('A' for Active; 'I' for Inactive)
    1  A    between atoms: O_2  and  C_18
    2  A    between atoms: O_2  and  C_26
    3  A    between atoms: C_3  and  C_20
    4  A    between atoms: C_4  and  C_6
    5  A    between atoms: C_4  and  C_11
    6  A    between atoms: C_6  and  C_20
    7  A    between atoms: C_7  and  C_34
    8  A    between atoms: C_21  and  C_27
    9  A    between atoms: C_27  and  C_34
                            x       y       z     vdW  Elec       q    Type
                         _______ _______ _______ _____ _____    ______ ____

>  <TORSDO>
F 9

$$$$
=
 OpenBabel10232410463D

 35 38  0  0  1  0  0  0  0  0999 V2000
  189.2840  177.6940  147.8560 C   0  0  0  0  0  0  0  0  0  0  0  0
  189.9880  176.9210  145.2600 C   0  0  0  0  0  0  0  0  0  0  0  0
  190.6020  177.3320  147.5690 C   0  0  0  0  0  3  0  0  0  0  0  0
  188.6580  177.2870  145.5400 C   0  0  0  0  0  0  0  0  0  0  0  0
  190.9520  176.9450  146.2740 C   0  0  0  0  0  3  0  0  0  0  0  0
  188.3170  177.6670  146.8490 C   0  0  0  0  0  3  0  0  0  0  0  0
  188.9420  178.0670  149.1120 F   0  0  0  0  0  0  0  0  0  0  0  0
  187.7070  177.2300  144.5050 O   0  0  0  0  0  0  0  0  0  0  0  0
  185.7580  178.1880  145.6740 C   0  0  0  0  0  3  0  0  0  0  0  0
  184.5200  178.5690  143.1980 C   0  0  0  0  0  0  0  0  0  0  0  0
  186.4210  177.7920  144.5000 C   0  0  0  0  0  0  0  0  0  0  0  0
  184.4850  178.7610  145.6100 C   0  0  0  0  0  3  0  0  0  0  0  0
  183.8650  178.9490  144.3730 C   0  0  0  0  0  3  0  0  0  0  0  0
  185.7930  177.9910  143.2650 C   0  0  0  0  0  3  0  0  0  0  0  0
  183.8560  178.7590  141.8790 C   0  0  0  0  0  2  0  0  0  0  0  0
  184.9030  178.9920  140.7950 C   0  0  0  0  0  2  0  0  0  0  0  0
  182.8690  177.6120  138.1570 C   0  0  0  0  0  2  0  0  0  0  0  0
  184.2800  179.0860  139.4060 C   0  0  1  0  0  0  0  0  0  0  0  0
  184.4120  177.2180  136.4470 C   0  0  0  0  0  1  0  0  0  0  0  0
  182.8920  178.4910  139.3840 C   0  0  0  0  0  2  0  0  0  0  0  0
  184.2450  180.4130  138.9710 O   0  0  0  0  0  1  0  0  0  0  0  0
  185.0920  178.2600  138.4270 C   0  0  0  0  0  2  0  0  0  0  0  0
  184.2410  177.2050  137.8890 N   0  0  0  0  0  0  0  0  0  0  0  0
  190.3870  176.4800  143.8900 C   0  0  0  0  0  2  0  0  0  0  0  0
  190.6880  177.6880  143.0250 C   0  0  0  0  0  2  0  0  0  0  0  0
  191.0020  177.2340  141.6140 C   0  0  0  0  0  2  0  0  0  0  0  0
  189.8400  177.5110  140.7200 C   0  0  0  0  0  0  0  0  0  0  0  0
  189.7120  176.8420  139.4580 N   0  0  0  0  0  0  0  0  0  0  0  0
  188.2530  175.9780  137.6810 C   0  0  0  0  0  2  0  0  0  0  0  0
  190.6350  175.3010  137.7620 C   0  0  0  0  0  0  0  0  0  0  0  0
  190.7290  175.9720  139.0220 N   0  0  0  0  0  2  0  0  0  0  0  0
  188.5980  177.1740  138.5640 C   0  0  0  0  0  2  0  0  0  0  0  0
  189.4690  175.5600  136.8630 C   0  0  0  0  0  2  0  0  0  0  0  0
  191.5570  174.5290  137.3920 O   0  0  0  0  0  0  0  0  0  0  0  0
  188.9550  178.3260  141.1020 O   0  0  0  0  0  0  0  0  0  0  0  0
  1  7  1  0  0  0  0
  2  4  2  0  0  0  0
  2  5  1  0  0  0  0
  3  1  1  0  0  0  0
  4  6  1  0  0  0  0
  5  3  2  0  0  0  0
  6  1  2  0  0  0  0
  8  4  1  0  0  0  0
 10 14  2  0  0  0  0
 10 13  1  0  0  0  0
 11  8  1  0  0  0  0
 11  9  2  0  0  0  0
 12  9  1  0  0  0  0
 13 12  2  0  0  0  0
 14 11  1  0  0  0  0
 15 10  1  0  0  0  0
 16 15  1  0  0  0  0
 17 20  1  0  0  0  0
 18 21  1  6  0  0  0
 18 16  1  0  0  0  0
 19 23  1  0  0  0  0
 20 18  1  0  0  0  0
 22 18  1  0  0  0  0
 23 17  1  0  0  0  0
 23 22  1  0  0  0  0
 24  2  1  0  0  0  0
 25 24  1  0  0  0  0
 26 25  1  0  0  0  0
 27 35  2  0  0  0  0
 27 26  1  0  0  0  0
 28 27  1  0  0  0  0
 29 32  1  0  0  0  0
 30 31  1  0  0  0  0
 31 28  1  0  0  0  0
 32 28  1  0  0  0  0
 33 29  1  0  0  0  0
 33 30  1  0  0  0  0
 34 30  2  0  0  0  0
M  END
>  <MODEL>
2

>  <REMARK>
 VINA RESULT:      -9.3      2.006      5.736
  Name = 
  9 active torsions:
  status: ('A' for Active; 'I' for Inactive)
    1  A    between atoms: O_2  and  C_18
    2  A    between atoms: O_2  and  C_26
    3  A    between atoms: C_3  and  C_20
    4  A    between atoms: C_4  and  C_6
    5  A    between atoms: C_4  and  C_11
    6  A    between atoms: C_6  and  C_20
    7  A    between atoms: C_7  and  C_34
    8  A    between atoms: C_21  and  C_27
    9  A    between atoms: C_27  and  C_34
                            x       y       z     vdW  Elec       q    Type
                         _______ _______ _______ _____ _____    ______ ____

>  <TORSDO>
F 9

$$$$
=
 OpenBabel10232410463D

 35 38  0  0  1  0  0  0  0  0999 V2000
  190.7750  177.2570  146.2400 C   0  0  0  0  0  0  0  0  0  0  0  0
  189.7930  177.5050  143.6320 C   0  0  0  0  0  0  0  0  0  0  0  0
  191.6120  177.7120  145.2200 C   0  0  0  0  0  3  0  0  0  0  0  0
  188.9410  177.0480  144.6550 C   0  0  0  0  0  0  0  0  0  0  0  0
  191.1220  177.8340  143.9180 C   0  0  0  0  0  3  0  0  0  0  0  0
  189.4490  176.9230  145.9590 C   0  0  0  0  0  3  0  0  0  0  0  0
  191.2490  177.1360  147.5030 F   0  0  0  0  0  0  0  0  0  0  0  0
  187.6170  176.7030  144.3310 O   0  0  0  0  0  0  0  0  0  0  0  0
  185.9920  177.9990  145.6570 C   0  0  0  0  0  3  0  0  0  0  0  0
  184.6920  178.7080  143.2870 C   0  0  0  0  0  0  0  0  0  0  0  0
  186.4770  177.5150  144.4300 C   0  0  0  0  0  0  0  0  0  0  0  0
  184.8620  178.8210  145.6980 C   0  0  0  0  0  3  0  0  0  0  0  0
  184.2110  179.1730  144.5130 C   0  0  0  0  0  3  0  0  0  0  0  0
  185.8200  177.8800  143.2490 C   0  0  0  0  0  3  0  0  0  0  0  0
  183.9940  179.0730  142.0240 C   0  0  0  0  0  2  0  0  0  0  0  0
  184.9480  178.9450  140.8420 C   0  0  0  0  0  2  0  0  0  0  0  0
  182.6040  177.7110  138.3960 C   0  0  0  0  0  2  0  0  0  0  0  0
  184.2260  179.0760  139.5050 C   0  0  1  0  0  0  0  0  0  0  0  0
  183.9680  177.1710  136.5770 C   0  0  0  0  0  1  0  0  0  0  0  0
  182.7970  178.5980  139.6020 C   0  0  0  0  0  2  0  0  0  0  0  0
  184.2660  180.3970  139.0510 O   0  0  0  0  0  1  0  0  0  0  0  0
  184.8870  178.1750  138.4800 C   0  0  0  0  0  2  0  0  0  0  0  0
  183.9120  177.1880  138.0280 N   0  0  0  0  0  0  0  0  0  0  0  0
  189.3030  177.6230  142.2260 C   0  0  0  0  0  2  0  0  0  0  0  0
  190.0430  176.6440  141.3360 C   0  0  0  0  0  2  0  0  0  0  0  0
  190.6150  177.3790  140.1410 C   0  0  0  0  0  2  0  0  0  0  0  0
  190.5040  176.5290  138.9200 C   0  0  0  0  0  0  0  0  0  0  0  0
  189.7250  176.9610  137.7950 N   0  0  0  0  0  0  0  0  0  0  0  0
  189.3370  176.9120  135.3710 C   0  0  0  0  0  2  0  0  0  0  0  0
  188.1990  178.6110  136.7710 C   0  0  0  0  0  0  0  0  0  0  0  0
  188.9960  178.1620  137.8710 N   0  0  0  0  0  2  0  0  0  0  0  0
  189.5750  176.0840  136.6300 C   0  0  0  0  0  2  0  0  0  0  0  0
  188.0900  177.7740  135.5360 C   0  0  0  0  0  2  0  0  0  0  0  0
  187.5540  179.6870  136.8600 O   0  0  0  0  0  0  0  0  0  0  0  0
  191.1270  175.4330  138.8790 O   0  0  0  0  0  0  0  0  0  0  0  0
  1  7  1  0  0  0  0
  2  5  2  0  0  0  0
  2  4  1  0  0  0  0
  3  1  2  0  0  0  0
  4  6  2  0  0  0  0
  5  3  1  0  0  0  0
  6  1  1  0  0  0  0
  8 11  1  0  0  0  0
  8  4  1  0  0  0  0
  9 12  1  0  0  0  0
 10 13  1  0  0  0  0
 11  9  2  0  0  0  0
 13 12  2  0  0  0  0
 14 10  2  0  0  0  0
 14 11  1  0  0  0  0
 15 10  1  0  0  0  0
 16 15  1  0  0  0  0
 17 20  1  0  0  0  0
 18 21  1  6  0  0  0
 18 20  1  0  0  0  0
 18 16  1  0  0  0  0
 19 23  1  0  0  0  0
 22 18  1  0  0  0  0
 23 17  1  0  0  0  0
 23 22  1  0  0  0  0
 24  2  1  0  0  0  0
 25 24  1  0  0  0  0
 26 25  1  0  0  0  0
 27 26  1  0  0  0  0
 28 31  1  0  0  0  0
 28 27  1  0  0  0  0
 29 33  1  0  0  0  0
 29 32  1  0  0  0  0
 30 34  2  0  0  0  0
 30 31  1  0  0  0  0
 32 28  1  0  0  0  0
 33 30  1  0  0  0  0
 35 27  2  0  0  0  0
M  END
>  <MODEL>
3

>  <REMARK>
 VINA RESULT:      -9.2      1.963      5.979
  Name = 
  9 active torsions:
  status: ('A' for Active; 'I' for Inactive)
    1  A    between atoms: O_2  and  C_18
    2  A    between atoms: O_2  and  C_26
    3  A    between atoms: C_3  and  C_20
    4  A    between atoms: C_4  and  C_6
    5  A    between atoms: C_4  and  C_11
    6  A    between atoms: C_6  and  C_20
    7  A    between atoms: C_7  and  C_34
    8  A    between atoms: C_21  and  C_27
    9  A    between atoms: C_27  and  C_34
                            x       y       z     vdW  Elec       q    Type
                         _______ _______ _______ _____ _____    ______ ____

>  <TORSDO>
F 9

$$$$
=
 OpenBabel10232410463D

 35 38  0  0  1  0  0  0  0  0999 V2000
  190.7420  177.2010  146.1520 C   0  0  0  0  0  0  0  0  0  0  0  0
  189.8270  177.5150  143.5260 C   0  0  0  0  0  0  0  0  0  0  0  0
  191.6160  177.6450  145.1570 C   0  0  0  0  0  3  0  0  0  0  0  0
  188.9390  177.0700  144.5240 C   0  0  0  0  0  0  0  0  0  0  0  0
  191.1590  177.7990  143.8470 C   0  0  0  0  0  3  0  0  0  0  0  0
  189.4130  176.9120  145.8370 C   0  0  0  0  0  3  0  0  0  0  0  0
  191.1840  177.0480  147.4230 F   0  0  0  0  0  0  0  0  0  0  0  0
  187.6120  176.7690  144.1660 O   0  0  0  0  0  0  0  0  0  0  0  0
  186.1350  177.8650  145.8090 C   0  0  0  0  0  3  0  0  0  0  0  0
  184.4590  178.6450  143.7140 C   0  0  0  0  0  0  0  0  0  0  0  0
  186.4570  177.4970  144.4920 C   0  0  0  0  0  0  0  0  0  0  0  0
  184.9820  178.6070  146.0760 C   0  0  0  0  0  3  0  0  0  0  0  0
  184.1420  178.9950  145.0290 C   0  0  0  0  0  3  0  0  0  0  0  0
  185.6120  177.8970  143.4490 C   0  0  0  0  0  3  0  0  0  0  0  0
  183.5610  179.0480  142.5970 C   0  0  0  0  0  2  0  0  0  0  0  0
  183.7720  178.1310  141.3980 C   0  0  0  0  0  2  0  0  0  0  0  0
  180.5110  177.0480  140.3040 C   0  0  0  0  0  2  0  0  0  0  0  0
  182.6080  178.1950  140.4140 C   0  0  1  0  0  0  0  0  0  0  0  0
  180.9640  175.9410  138.2980 C   0  0  0  0  0  1  0  0  0  0  0  0
  181.2810  178.0580  141.1220 C   0  0  0  0  0  2  0  0  0  0  0  0
  182.6460  179.3850  139.6830 O   0  0  0  0  0  1  0  0  0  0  0  0
  182.6830  177.0190  139.4600 C   0  0  0  0  0  2  0  0  0  0  0  0
  181.4850  176.2050  139.6270 N   0  0  0  0  0  0  0  0  0  0  0  0
  189.3730  177.6670  142.1120 C   0  0  0  0  0  2  0  0  0  0  0  0
  190.2700  176.8640  141.1910 C   0  0  0  0  0  2  0  0  0  0  0  0
  190.2860  177.5030  139.8170 C   0  0  0  0  0  2  0  0  0  0  0  0
  189.7510  176.5460  138.8050 C   0  0  0  0  0  0  0  0  0  0  0  0
  188.4610  176.7530  138.2130 N   0  0  0  0  0  0  0  0  0  0  0  0
  186.9610  176.4400  136.2940 C   0  0  0  0  0  2  0  0  0  0  0  0
  186.3620  178.0480  138.0810 C   0  0  0  0  0  0  0  0  0  0  0  0
  187.6580  177.8250  138.6440 N   0  0  0  0  0  2  0  0  0  0  0  0
  187.9240  175.7690  137.2680 C   0  0  0  0  0  2  0  0  0  0  0  0
  185.8200  177.1050  137.0560 C   0  0  0  0  0  2  0  0  0  0  0  0
  185.6610  179.0130  138.4830 O   0  0  0  0  0  0  0  0  0  0  0  0
  190.4610  175.5640  138.4570 O   0  0  0  0  0  0  0  0  0  0  0  0
  1  7  1  0  0  0  0
  2  5  2  0  0  0  0
  2  4  1  0  0  0  0
  3  1  2  0  0  0  0
  4  6  2  0  0  0  0
  5  3  1  0  0  0  0
  6  1  1  0  0  0  0
  8 11  1  0  0  0  0
  8  4  1  0  0  0  0
  9 12  1  0  0  0  0
 10 13  1  0  0  0  0
 11  9  2  0  0  0  0
 13 12  2  0  0  0  0
 14 10  2  0  0  0  0
 14 11  1  0  0  0  0
 15 10  1  0  0  0  0
 16 15  1  0  0  0  0
 17 20  1  0  0  0  0
 18 21  1  6  0  0  0
 18 20  1  0  0  0  0
 18 16  1  0  0  0  0
 19 23  1  0  0  0  0
 22 23  1  0  0  0  0
 22 18  1  0  0  0  0
 23 17  1  0  0  0  0
 24  2  1  0  0  0  0
 25 24  1  0  0  0  0
 26 25  1  0  0  0  0
 27 26  1  0  0  0  0
 28 31  1  0  0  0  0
 28 27  1  0  0  0  0
 29 33  1  0  0  0  0
 29 32  1  0  0  0  0
 30 34  2  0  0  0  0
 30 31  1  0  0  0  0
 32 28  1  0  0  0  0
 33 30  1  0  0  0  0
 35 27  2  0  0  0  0
M  END
>  <MODEL>
4

>  <REMARK>
 VINA RESULT:      -9.1      1.968      6.212
  Name = 
  9 active torsions:
  status: ('A' for Active; 'I' for Inactive)
    1  A    between atoms: O_2  and  C_18
    2  A    between atoms: O_2  and  C_26
    3  A    between atoms: C_3  and  C_20
    4  A    between atoms: C_4  and  C_6
    5  A    between atoms: C_4  and  C_11
    6  A    between atoms: C_6  and  C_20
    7  A    between atoms: C_7  and  C_34
    8  A    between atoms: C_21  and  C_27
    9  A    between atoms: C_27  and  C_34
                            x       y       z     vdW  Elec       q    Type
                         _______ _______ _______ _____ _____    ______ ____

>  <TORSDO>
F 9

$$$$
=
 OpenBabel10232410463D

 35 38  0  0  1  0  0  0  0  0999 V2000
  191.1080  177.3060  145.5640 C   0  0  0  0  0  0  0  0  0  0  0  0
  189.6140  178.0200  143.3080 C   0  0  0  0  0  0  0  0  0  0  0  0
  191.6940  178.0700  144.5530 C   0  0  0  0  0  3  0  0  0  0  0  0
  189.0150  177.2530  144.3240 C   0  0  0  0  0  0  0  0  0  0  0  0
  190.9480  178.4240  143.4270 C   0  0  0  0  0  3  0  0  0  0  0  0
  189.7780  176.8960  145.4490 C   0  0  0  0  0  3  0  0  0  0  0  0
  191.8300  176.9590  146.6560 F   0  0  0  0  0  0  0  0  0  0  0  0
  187.6790  176.8410  144.1660 O   0  0  0  0  0  0  0  0  0  0  0  0
  186.3020  177.8400  145.9510 C   0  0  0  0  0  3  0  0  0  0  0  0
  184.4190  178.5780  144.0230 C   0  0  0  0  0  0  0  0  0  0  0  0
  186.5250  177.5100  144.6040 C   0  0  0  0  0  0  0  0  0  0  0  0
  185.1440  178.5230  146.3310 C   0  0  0  0  0  3  0  0  0  0  0  0
  184.2010  178.8900  145.3680 C   0  0  0  0  0  3  0  0  0  0  0  0
  185.5770  177.8880  143.6460 C   0  0  0  0  0  3  0  0  0  0  0  0
  183.4110  178.9580  142.9960 C   0  0  0  0  0  2  0  0  0  0  0  0
  183.8350  178.4360  141.6280 C   0  0  0  0  0  2  0  0  0  0  0  0
  182.4360  177.2200  138.5350 C   0  0  0  0  0  2  0  0  0  0  0  0
  182.6410  178.1950  140.7100 C   0  0  1  0  0  0  0  0  0  0  0  0
  181.6980  179.1710  137.4820 C   0  0  0  0  0  1  0  0  0  0  0  0
  182.7720  176.8850  139.9680 C   0  0  0  0  0  2  0  0  0  0  0  0
  181.4480  178.2210  141.4370 O   0  0  0  0  0  1  0  0  0  0  0  0
  182.5970  179.2660  139.6390 C   0  0  0  0  0  2  0  0  0  0  0  0
  182.7410  178.6290  138.3350 N   0  0  0  0  0  0  0  0  0  0  0  0
  188.8490  178.3940  142.0820 C   0  0  0  0  0  2  0  0  0  0  0  0
  189.0080  177.3200  141.0240 C   0  0  0  0  0  2  0  0  0  0  0  0
  190.0660  177.7460  140.0260 C   0  0  0  0  0  2  0  0  0  0  0  0
  189.4350  178.0180  138.7020 C   0  0  0  0  0  0  0  0  0  0  0  0
  189.3020  176.9750  137.7260 N   0  0  0  0  0  0  0  0  0  0  0  0
  188.0780  176.0320  135.8180 C   0  0  0  0  0  2  0  0  0  0  0  0
  189.7340  174.6440  137.0300 C   0  0  0  0  0  0  0  0  0  0  0  0
  189.8390  175.7010  137.9890 N   0  0  0  0  0  2  0  0  0  0  0  0
  188.7390  177.2750  136.4070 C   0  0  0  0  0  2  0  0  0  0  0  0
  189.0930  174.9000  135.7040 C   0  0  0  0  0  2  0  0  0  0  0  0
  190.2230  173.5130  137.2850 O   0  0  0  0  0  0  0  0  0  0  0  0
  188.9960  179.1750  138.4590 O   0  0  0  0  0  0  0  0  0  0  0  0
  1  7  1  0  0  0  0
  2  5  2  0  0  0  0
  2  4  1  0  0  0  0
  3  1  2  0  0  0  0
  4  6  2  0  0  0  0
  5  3  1  0  0  0  0
  6  1  1  0  0  0  0
  8  4  1  0  0  0  0
  8 11  1  0  0  0  0
  9 12  1  0  0  0  0
 10 13  1  0  0  0  0
 11  9  2  0  0  0  0
 13 12  2  0  0  0  0
 14 10  2  0  0  0  0
 14 11  1  0  0  0  0
 15 10  1  0  0  0  0
 16 15  1  0  0  0  0
 17 20  1  0  0  0  0
 18 21  1  1  0  0  0
 18 16  1  0  0  0  0
 19 23  1  0  0  0  0
 20 18  1  0  0  0  0
 22 18  1  0  0  0  0
 23 17  1  0  0  0  0
 23 22  1  0  0  0  0
 24  2  1  0  0  0  0
 25 24  1  0  0  0  0
 26 25  1  0  0  0  0
 27 26  1  0  0  0  0
 28 31  1  0  0  0  0
 28 27  1  0  0  0  0
 29 32  1  0  0  0  0
 30 34  2  0  0  0  0
 30 31  1  0  0  0  0
 32 28  1  0  0  0  0
 33 29  1  0  0  0  0
 33 30  1  0  0  0  0
 35 27  2  0  0  0  0
M  END
>  <MODEL>
5

>  <REMARK>
 VINA RESULT:      -9.1      1.885      6.472
  Name = 
  9 active torsions:
  status: ('A' for Active; 'I' for Inactive)
    1  A    between atoms: O_2  and  C_18
    2  A    between atoms: O_2  and  C_26
    3  A    between atoms: C_3  and  C_20
    4  A    between atoms: C_4  and  C_6
    5  A    between atoms: C_4  and  C_11
    6  A    between atoms: C_6  and  C_20
    7  A    between atoms: C_7  and  C_34
    8  A    between atoms: C_21  and  C_27
    9  A    between atoms: C_27  and  C_34
                            x       y       z     vdW  Elec       q    Type
                         _______ _______ _______ _____ _____    ______ ____

>  <TORSDO>
F 9

$$$$
=
 OpenBabel10232410463D

 35 38  0  0  1  0  0  0  0  0999 V2000
  191.1180  177.2860  145.4820 C   0  0  0  0  0  0  0  0  0  0  0  0
  189.6510  178.0110  143.2120 C   0  0  0  0  0  0  0  0  0  0  0  0
  191.7190  178.0450  144.4760 C   0  0  0  0  0  3  0  0  0  0  0  0
  189.0360  177.2490  144.2220 C   0  0  0  0  0  0  0  0  0  0  0  0
  190.9870  178.4050  143.3430 C   0  0  0  0  0  3  0  0  0  0  0  0
  189.7860  176.8860  145.3540 C   0  0  0  0  0  3  0  0  0  0  0  0
  191.8270  176.9340  146.5800 F   0  0  0  0  0  0  0  0  0  0  0  0
  187.6990  176.8480  144.0510 O   0  0  0  0  0  0  0  0  0  0  0  0
  186.3480  177.7810  145.8910 C   0  0  0  0  0  3  0  0  0  0  0  0
  184.4250  178.5630  144.0210 C   0  0  0  0  0  0  0  0  0  0  0  0
  186.5490  177.4940  144.5300 C   0  0  0  0  0  0  0  0  0  0  0  0
  185.1930  178.4440  146.3130 C   0  0  0  0  0  3  0  0  0  0  0  0
  184.2300  178.8330  145.3780 C   0  0  0  0  0  3  0  0  0  0  0  0
  185.5810  177.8940  143.6020 C   0  0  0  0  0  3  0  0  0  0  0  0
  183.3960  178.9680  143.0240 C   0  0  0  0  0  2  0  0  0  0  0  0
  183.7630  178.4300  141.6450 C   0  0  0  0  0  2  0  0  0  0  0  0
  182.2250  177.2680  138.5980 C   0  0  0  0  0  2  0  0  0  0  0  0
  182.5400  178.2700  140.7480 C   0  0  1  0  0  0  0  0  0  0  0  0
  181.6380  179.2510  137.5090 C   0  0  0  0  0  1  0  0  0  0  0  0
  182.5510  176.9380  140.0350 C   0  0  0  0  0  2  0  0  0  0  0  0
  181.3630  178.4120  141.4880 O   0  0  0  0  0  1  0  0  0  0  0  0
  182.5710  179.3180  139.6530 C   0  0  0  0  0  2  0  0  0  0  0  0
  182.6430  178.6420  138.3620 N   0  0  0  0  0  0  0  0  0  0  0  0
  188.9000  178.3910  141.9780 C   0  0  0  0  0  2  0  0  0  0  0  0
  189.1040  177.3420  140.9040 C   0  0  0  0  0  2  0  0  0  0  0  0
  189.1830  178.0140  139.5480 C   0  0  0  0  0  2  0  0  0  0  0  0
  189.0990  176.9890  138.4670 C   0  0  0  0  0  0  0  0  0  0  0  0
  190.2840  176.3500  137.9710 N   0  0  0  0  0  0  0  0  0  0  0  0
  191.3290  174.3810  136.9410 C   0  0  0  0  0  2  0  0  0  0  0  0
  192.7440  176.1360  137.9690 C   0  0  0  0  0  0  0  0  0  0  0  0
  191.5450  176.7450  138.4540 N   0  0  0  0  0  2  0  0  0  0  0  0
  190.1900  175.3930  136.8650 C   0  0  0  0  0  2  0  0  0  0  0  0
  192.6740  175.0980  136.8950 C   0  0  0  0  0  2  0  0  0  0  0  0
  193.8620  176.5050  138.4140 O   0  0  0  0  0  0  0  0  0  0  0  0
  187.9670  176.6730  138.0100 O   0  0  0  0  0  0  0  0  0  0  0  0
  1  7  1  0  0  0  0
  2  5  2  0  0  0  0
  2  4  1  0  0  0  0
  3  1  2  0  0  0  0
  4  6  2  0  0  0  0
  5  3  1  0  0  0  0
  6  1  1  0  0  0  0
  8  4  1  0  0  0  0
  8 11  1  0  0  0  0
  9 12  1  0  0  0  0
 10 13  1  0  0  0  0
 11  9  2  0  0  0  0
 13 12  2  0  0  0  0
 14 10  2  0  0  0  0
 14 11  1  0  0  0  0
 15 10  1  0  0  0  0
 16 15  1  0  0  0  0
 17 20  1  0  0  0  0
 18 21  1  1  0  0  0
 18 16  1  0  0  0  0
 19 23  1  0  0  0  0
 20 18  1  0  0  0  0
 22 18  1  0  0  0  0
 23 17  1  0  0  0  0
 23 22  1  0  0  0  0
 24  2  1  0  0  0  0
 25 24  1  0  0  0  0
 26 25  1  0  0  0  0
 27 26  1  0  0  0  0
 28 31  1  0  0  0  0
 28 27  1  0  0  0  0
 30 34  2  0  0  0  0
 30 31  1  0  0  0  0
 32 29  1  0  0  0  0
 32 28  1  0  0  0  0
 33 29  1  0  0  0  0
 33 30  1  0  0  0  0
 35 27  2  0  0  0  0
M  END
>  <MODEL>
6

>  <REMARK>
 VINA RESULT:      -8.9      2.118      6.880
  Name = 
  9 active torsions:
  status: ('A' for Active; 'I' for Inactive)
    1  A    between atoms: O_2  and  C_18
    2  A    between atoms: O_2  and  C_26
    3  A    between atoms: C_3  and  C_20
    4  A    between atoms: C_4  and  C_6
    5  A    between atoms: C_4  and  C_11
    6  A    between atoms: C_6  and  C_20
    7  A    between atoms: C_7  and  C_34
    8  A    between atoms: C_21  and  C_27
    9  A    between atoms: C_27  and  C_34
                            x       y       z     vdW  Elec       q    Type
                         _______ _______ _______ _____ _____    ______ ____

>  <TORSDO>
F 9

$$$$
=
 OpenBabel10232410463D

 35 38  0  0  1  0  0  0  0  0999 V2000
  186.7440  178.4340  146.9810 C   0  0  0  0  0  0  0  0  0  0  0  0
  185.9570  178.0130  144.3290 C   0  0  0  0  0  0  0  0  0  0  0  0
  185.6330  179.1070  146.4680 C   0  0  0  0  0  3  0  0  0  0  0  0
  187.0760  177.3280  144.8390 C   0  0  0  0  0  0  0  0  0  0  0  0
  185.2420  178.8980  145.1440 C   0  0  0  0  0  3  0  0  0  0  0  0
  187.4630  177.5540  146.1710 C   0  0  0  0  0  3  0  0  0  0  0  0
  187.1260  178.6380  148.2640 F   0  0  0  0  0  0  0  0  0  0  0  0
  187.7880  176.4640  143.9880 O   0  0  0  0  0  0  0  0  0  0  0  0
  190.2450  176.6300  143.8570 C   0  0  0  0  0  3  0  0  0  0  0  0
  190.0040  177.4000  141.1820 C   0  0  0  0  0  0  0  0  0  0  0  0
  188.9680  176.7460  143.2820 C   0  0  0  0  0  0  0  0  0  0  0  0
  191.3890  176.9050  143.1040 C   0  0  0  0  0  3  0  0  0  0  0  0
  191.2690  177.2920  141.7670 C   0  0  0  0  0  3  0  0  0  0  0  0
  188.8590  177.1290  141.9400 C   0  0  0  0  0  3  0  0  0  0  0  0
  189.8730  177.8220  139.7610 C   0  0  0  0  0  2  0  0  0  0  0  0
  188.4850  178.4020  139.5130 C   0  0  0  0  0  2  0  0  0  0  0  0
  188.4440  176.2870  136.5920 C   0  0  0  0  0  2  0  0  0  0  0  0
  187.9620  178.0650  138.1200 C   0  0  1  0  0  0  0  0  0  0  0  0
  189.3510  177.6570  134.9310 C   0  0  0  0  0  1  0  0  0  0  0  0
  187.8140  176.5730  137.9350 C   0  0  0  0  0  2  0  0  0  0  0  0
  186.7430  178.7050  137.8830 O   0  0  0  0  0  1  0  0  0  0  0  0
  188.9700  178.5060  137.0770 C   0  0  0  0  0  2  0  0  0  0  0  0
  189.4280  177.3310  136.3440 N   0  0  0  0  0  0  0  0  0  0  0  0
  185.5290  177.8270  142.9100 C   0  0  0  0  0  2  0  0  0  0  0  0
  185.1270  179.1610  142.3120 C   0  0  0  0  0  2  0  0  0  0  0  0
  184.6410  178.9520  140.8920 C   0  0  0  0  0  2  0  0  0  0  0  0
  183.2540  178.4020  140.9050 C   0  0  0  0  0  0  0  0  0  0  0  0
  182.8430  177.4290  139.9340 N   0  0  0  0  0  0  0  0  0  0  0  0
  181.3940  175.5370  139.3460 C   0  0  0  0  0  2  0  0  0  0  0  0
  183.3450  176.0870  137.9220 C   0  0  0  0  0  0  0  0  0  0  0  0
  183.7310  177.0450  138.9120 N   0  0  0  0  0  2  0  0  0  0  0  0
  181.4590  176.9480  139.9220 C   0  0  0  0  0  2  0  0  0  0  0  0
  181.9630  175.5180  137.9320 C   0  0  0  0  0  2  0  0  0  0  0  0
  184.1550  175.7580  137.0170 O   0  0  0  0  0  0  0  0  0  0  0  0
  182.4520  178.7870  141.7990 O   0  0  0  0  0  0  0  0  0  0  0  0
  1  7  1  0  0  0  0
  2  4  2  0  0  0  0
  2  5  1  0  0  0  0
  3  1  1  0  0  0  0
  4  6  1  0  0  0  0
  5  3  2  0  0  0  0
  6  1  2  0  0  0  0
  8  4  1  0  0  0  0
 10 13  2  0  0  0  0
 10 14  1  0  0  0  0
 11  9  1  0  0  0  0
 11  8  1  0  0  0  0
 12  9  2  0  0  0  0
 13 12  1  0  0  0  0
 14 11  2  0  0  0  0
 15 10  1  0  0  0  0
 16 15  1  0  0  0  0
 17 20  1  0  0  0  0
 18 21  1  6  0  0  0
 18 16  1  0  0  0  0
 19 23  1  0  0  0  0
 20 18  1  0  0  0  0
 22 18  1  0  0  0  0
 23 17  1  0  0  0  0
 23 22  1  0  0  0  0
 24  2  1  0  0  0  0
 25 24  1  0  0  0  0
 26 27  1  0  0  0  0
 26 25  1  0  0  0  0
 27 35  2  0  0  0  0
 28 27  1  0  0  0  0
 29 32  1  0  0  0  0
 30 33  1  0  0  0  0
 30 31  1  0  0  0  0
 31 28  1  0  0  0  0
 32 28  1  0  0  0  0
 33 29  1  0  0  0  0
 34 30  2  0  0  0  0
M  END
>  <MODEL>
7

>  <REMARK>
 VINA RESULT:      -8.8      1.703      2.106
  Name = 
  9 active torsions:
  status: ('A' for Active; 'I' for Inactive)
    1  A    between atoms: O_2  and  C_18
    2  A    between atoms: O_2  and  C_26
    3  A    between atoms: C_3  and  C_20
    4  A    between atoms: C_4  and  C_6
    5  A    between atoms: C_4  and  C_11
    6  A    between atoms: C_6  and  C_20
    7  A    between atoms: C_7  and  C_34
    8  A    between atoms: C_21  and  C_27
    9  A    between atoms: C_27  and  C_34
                            x       y       z     vdW  Elec       q    Type
                         _______ _______ _______ _____ _____    ______ ____

>  <TORSDO>
F 9

$$$$
=
 OpenBabel10232410463D

 35 38  0  0  1  0  0  0  0  0999 V2000
  188.7200  177.7640  147.8500 C   0  0  0  0  0  0  0  0  0  0  0  0
  189.4470  177.0730  145.2380 C   0  0  0  0  0  0  0  0  0  0  0  0
  190.0200  177.3320  147.5790 C   0  0  0  0  0  3  0  0  0  0  0  0
  188.1350  177.5100  145.5020 C   0  0  0  0  0  0  0  0  0  0  0  0
  190.3810  176.9850  146.2750 C   0  0  0  0  0  3  0  0  0  0  0  0
  187.7830  177.8490  146.8190 C   0  0  0  0  0  3  0  0  0  0  0  0
  188.3680  178.0980  149.1140 F   0  0  0  0  0  0  0  0  0  0  0  0
  187.2120  177.5650  144.4420 O   0  0  0  0  0  0  0  0  0  0  0  0
  185.2600  178.4160  145.6870 C   0  0  0  0  0  3  0  0  0  0  0  0
  183.8670  178.6160  143.2720 C   0  0  0  0  0  0  0  0  0  0  0  0
  185.8880  178.0290  144.4910 C   0  0  0  0  0  0  0  0  0  0  0  0
  183.9450  178.8890  145.6760 C   0  0  0  0  0  3  0  0  0  0  0  0
  183.2470  178.9870  144.4690 C   0  0  0  0  0  3  0  0  0  0  0  0
  185.1820  178.1370  143.2870 C   0  0  0  0  0  3  0  0  0  0  0  0
  183.1220  178.7100  141.9870 C   0  0  0  0  0  2  0  0  0  0  0  0
  183.7370  177.7700  140.9560 C   0  0  0  0  0  2  0  0  0  0  0  0
  180.5390  176.9920  139.4830 C   0  0  0  0  0  2  0  0  0  0  0  0
  182.8420  177.5930  139.7340 C   0  0  1  0  0  0  0  0  0  0  0  0
  180.9510  174.9930  138.3440 C   0  0  0  0  0  1  0  0  0  0  0  0
  181.4400  178.0870  140.0030 C   0  0  0  0  0  2  0  0  0  0  0  0
  183.3820  178.2520  138.6270 O   0  0  0  0  0  1  0  0  0  0  0  0
  182.6990  176.1170  139.4170 C   0  0  0  0  0  2  0  0  0  0  0  0
  181.2930  175.7480  139.5370 N   0  0  0  0  0  0  0  0  0  0  0  0
  189.8550  176.6730  143.8580 C   0  0  0  0  0  2  0  0  0  0  0  0
  190.3400  177.8870  143.0900 C   0  0  0  0  0  2  0  0  0  0  0  0
  189.5410  178.0290  141.8100 C   0  0  0  0  0  2  0  0  0  0  0  0
  190.0040  177.0260  140.8070 C   0  0  0  0  0  0  0  0  0  0  0  0
  189.8200  177.2570  139.4030 N   0  0  0  0  0  0  0  0  0  0  0  0
  190.5790  176.8780  137.0990 C   0  0  0  0  0  2  0  0  0  0  0  0
  188.9170  178.6530  137.5760 C   0  0  0  0  0  0  0  0  0  0  0  0
  189.1280  178.4030  138.9690 N   0  0  0  0  0  2  0  0  0  0  0  0
  190.2230  176.2330  138.4350 C   0  0  0  0  0  2  0  0  0  0  0  0
  189.3880  177.6630  136.5600 C   0  0  0  0  0  2  0  0  0  0  0  0
  188.2950  179.6830  137.2100 O   0  0  0  0  0  0  0  0  0  0  0  0
  190.5850  175.9820  141.2100 O   0  0  0  0  0  0  0  0  0  0  0  0
  1  7  1  0  0  0  0
  2  4  2  0  0  0  0
  2  5  1  0  0  0  0
  3  1  1  0  0  0  0
  4  6  1  0  0  0  0
  5  3  2  0  0  0  0
  6  1  2  0  0  0  0
  8 11  1  0  0  0  0
  8  4  1  0  0  0  0
 10 14  2  0  0  0  0
 10 13  1  0  0  0  0
 11  9  2  0  0  0  0
 12  9  1  0  0  0  0
 13 12  2  0  0  0  0
 14 11  1  0  0  0  0
 15 10  1  0  0  0  0
 16 15  1  0  0  0  0
 17 23  1  0  0  0  0
 17 20  1  0  0  0  0
 18 21  1  6  0  0  0
 18 20  1  0  0  0  0
 18 16  1  0  0  0  0
 19 23  1  0  0  0  0
 22 23  1  0  0  0  0
 22 18  1  0  0  0  0
 24  2  1  0  0  0  0
 25 24  1  0  0  0  0
 26 25  1  0  0  0  0
 27 35  2  0  0  0  0
 27 26  1  0  0  0  0
 28 27  1  0  0  0  0
 29 32  1  0  0  0  0
 30 31  1  0  0  0  0
 31 28  1  0  0  0  0
 32 28  1  0  0  0  0
 33 29  1  0  0  0  0
 33 30  1  0  0  0  0
 34 30  2  0  0  0  0
M  END
>  <MODEL>
8

>  <REMARK>
 VINA RESULT:      -8.8      1.979      6.281
  Name = 
  9 active torsions:
  status: ('A' for Active; 'I' for Inactive)
    1  A    between atoms: O_2  and  C_18
    2  A    between atoms: O_2  and  C_26
    3  A    between atoms: C_3  and  C_20
    4  A    between atoms: C_4  and  C_6
    5  A    between atoms: C_4  and  C_11
    6  A    between atoms: C_6  and  C_20
    7  A    between atoms: C_7  and  C_34
    8  A    between atoms: C_21  and  C_27
    9  A    between atoms: C_27  and  C_34
                            x       y       z     vdW  Elec       q    Type
                         _______ _______ _______ _____ _____    ______ ____

>  <TORSDO>
F 9

$$$$
=
 OpenBabel10232410463D

 35 38  0  0  1  0  0  0  0  0999 V2000
  180.9650  178.5720  143.7050 C   0  0  0  0  0  0  0  0  0  0  0  0
  182.9090  178.6990  141.6960 C   0  0  0  0  0  0  0  0  0  0  0  0
  180.5970  178.4130  142.3680 C   0  0  0  0  0  3  0  0  0  0  0  0
  183.2890  178.8570  143.0420 C   0  0  0  0  0  0  0  0  0  0  0  0
  181.5670  178.4780  141.3660 C   0  0  0  0  0  3  0  0  0  0  0  0
  182.3020  178.7970  144.0400 C   0  0  0  0  0  3  0  0  0  0  0  0
  180.0250  178.5120  144.6780 F   0  0  0  0  0  0  0  0  0  0  0  0
  184.6420  179.1010  143.3410 O   0  0  0  0  0  0  0  0  0  0  0  0
  184.8330  178.7860  145.7790 C   0  0  0  0  0  3  0  0  0  0  0  0
  187.3570  177.6530  145.3890 C   0  0  0  0  0  0  0  0  0  0  0  0
  185.3510  178.6820  144.4770 C   0  0  0  0  0  0  0  0  0  0  0  0
  185.5740  178.3370  146.8760 C   0  0  0  0  0  3  0  0  0  0  0  0
  186.8370  177.7720  146.6800 C   0  0  0  0  0  3  0  0  0  0  0  0
  186.6150  178.1090  144.2930 C   0  0  0  0  0  3  0  0  0  0  0  0
  188.7060  177.0610  145.1800 C   0  0  0  0  0  2  0  0  0  0  0  0
  189.4940  177.8950  144.1750 C   0  0  0  0  0  2  0  0  0  0  0  0
  191.6990  177.5410  141.3440 C   0  0  0  0  0  2  0  0  0  0  0  0
  190.2060  177.0280  143.1420 C   0  0  1  0  0  0  0  0  0  0  0  0
  190.2720  176.8030  139.6480 C   0  0  0  0  0  1  0  0  0  0  0  0
  191.5940  177.5470  142.8510 C   0  0  0  0  0  2  0  0  0  0  0  0
  190.2660  175.6990  143.5720 O   0  0  0  0  0  1  0  0  0  0  0  0
  189.4620  177.0940  141.8230 C   0  0  0  0  0  2  0  0  0  0  0  0
  190.3490  177.6630  140.8150 N   0  0  0  0  0  0  0  0  0  0  0  0
  183.9210  178.7870  140.6010 C   0  0  0  0  0  2  0  0  0  0  0  0
  183.5670  177.8180  139.4900 C   0  0  0  0  0  2  0  0  0  0  0  0
  184.0770  178.3560  138.1690 C   0  0  0  0  0  2  0  0  0  0  0  0
  184.7310  177.2620  137.3930 C   0  0  0  0  0  0  0  0  0  0  0  0
  186.1230  177.3370  137.0540 N   0  0  0  0  0  0  0  0  0  0  0  0
  188.2230  176.1690  136.5460 C   0  0  0  0  0  2  0  0  0  0  0  0
  188.2490  178.5950  137.0510 C   0  0  0  0  0  0  0  0  0  0  0  0
  186.8630  178.4860  137.3890 N   0  0  0  0  0  2  0  0  0  0  0  0
  186.7330  176.2840  136.2360 C   0  0  0  0  0  2  0  0  0  0  0  0
  188.9200  177.5000  136.2850 C   0  0  0  0  0  2  0  0  0  0  0  0
  188.8910  179.6320  137.3590 O   0  0  0  0  0  0  0  0  0  0  0  0
  184.0480  176.2560  137.0600 O   0  0  0  0  0  0  0  0  0  0  0  0
  1  6  1  0  0  0  0
  1  7  1  0  0  0  0
  2  4  1  0  0  0  0
  3  1  2  0  0  0  0
  4  8  1  0  0  0  0
  4  6  2  0  0  0  0
  5  2  2  0  0  0  0
  5  3  1  0  0  0  0
  8 11  1  0  0  0  0
  9 12  1  0  0  0  0
 10 13  1  0  0  0  0
 11  9  2  0  0  0  0
 13 12  2  0  0  0  0
 14 11  1  0  0  0  0
 14 10  2  0  0  0  0
 15 10  1  0  0  0  0
 16 15  1  0  0  0  0
 17 20  1  0  0  0  0
 18 21  1  1  0  0  0
 18 16  1  0  0  0  0
 19 23  1  0  0  0  0
 20 18  1  0  0  0  0
 22 18  1  0  0  0  0
 23 17  1  0  0  0  0
 23 22  1  0  0  0  0
 24  2  1  0  0  0  0
 25 24  1  0  0  0  0
 26 25  1  0  0  0  0
 27 26  1  0  0  0  0
 28 31  1  0  0  0  0
 28 27  1  0  0  0  0
 30 34  2  0  0  0  0
 30 31  1  0  0  0  0
 32 29  1  0  0  0  0
 32 28  1  0  0  0  0
 33 29  1  0  0  0  0
 33 30  1  0  0  0  0
 35 27  2  0  0  0  0
M  END
>  <MODEL>
9

>  <REMARK>
 VINA RESULT:      -8.8      2.651      6.230
  Name = 
  9 active torsions:
  status: ('A' for Active; 'I' for Inactive)
    1  A    between atoms: O_2  and  C_18
    2  A    between atoms: O_2  and  C_26
    3  A    between atoms: C_3  and  C_20
    4  A    between atoms: C_4  and  C_6
    5  A    between atoms: C_4  and  C_11
    6  A    between atoms: C_6  and  C_20
    7  A    between atoms: C_7  and  C_34
    8  A    between atoms: C_21  and  C_27
    9  A    between atoms: C_27  and  C_34
                            x       y       z     vdW  Elec       q    Type
                         _______ _______ _______ _____ _____    ______ ____

>  <TORSDO>
F 9

$$$$
