=
 OpenBabel10232411173D

 33 34  0  0  1  0  0  0  0  0999 V2000
  190.5380  176.8880  143.5320 C   0  0  1  0  0  3  0  0  0  0  0  0
  191.0430  177.2430  142.1620 C   0  0  0  0  0  0  0  0  0  0  0  0
  192.2750  177.4580  141.9880 O   0  0  0  0  0  0  0  0  0  0  0  0
  190.3860  176.6280  139.8320 C   0  0  0  0  0  3  0  0  0  0  0  0
  189.5260  176.7020  138.7800 N   0  0  0  0  0  0  0  0  0  0  0  0
  188.3830  177.4390  138.8320 C   0  0  0  0  0  0  0  0  0  0  0  0
  190.1140  177.3220  141.0180 C   0  0  0  0  0  0  0  0  0  0  0  0
  188.0770  178.1510  139.9990 C   0  0  0  0  0  3  0  0  0  0  0  0
  188.9450  178.0900  141.0890 C   0  0  0  0  0  3  0  0  0  0  0  0
  187.5220  177.4660  137.6840 N   0  0  0  0  0  2  0  0  0  0  0  0
  186.8210  177.9040  135.3050 C   0  0  0  0  0  1  0  0  0  0  0  0
  187.8520  177.9460  136.3750 C   0  0  0  0  0  0  0  0  0  0  0  0
  188.9950  178.4040  136.1130 O   0  0  0  0  0  0  0  0  0  0  0  0
  191.4780  175.9270  144.2650 C   0  0  0  0  0  2  0  0  0  0  0  0
  191.8920  176.4450  145.6340 C   0  0  0  0  0  2  0  0  0  0  0  0
  192.2990  175.2790  146.5130 C   0  0  0  0  0  2  0  0  0  0  0  0
  192.4520  175.7370  147.9520 C   0  0  0  0  0  2  0  0  0  0  0  0
  192.0340  177.0640  148.0750 O   0  0  0  0  0  1  0  0  0  0  0  0
  190.2070  178.1310  144.3490 C   0  0  0  0  0  2  0  0  0  0  0  0
  188.8810  178.0070  144.9280 N   0  0  0  0  0  2  0  0  0  0  0  0
  189.0340  178.1860  146.3610 C   0  0  0  0  0  2  0  0  0  0  0  0
  188.0130  177.3400  147.1060 C   0  0  0  0  0  2  0  0  0  0  0  0
  187.0690  178.2050  147.9280 C   0  0  0  0  0  2  0  0  0  0  0  0
  186.2520  179.1060  147.0230 C   0  0  0  0  0  2  0  0  0  0  0  0
  184.9660  178.3980  146.6360 C   0  0  0  0  0  2  0  0  0  0  0  0
  185.6010  178.0240  142.8620 C   0  0  0  0  0  2  0  0  0  0  0  0
  185.8000  178.0860  144.3530 C   0  0  0  0  0  3  0  0  0  0  0  0
  183.4860  178.8310  144.5820 C   0  0  0  0  0  3  0  0  0  0  0  0
  184.6070  179.0990  142.4010 C   0  0  2  0  0  3  0  0  0  0  0  0
  184.7870  178.4310  145.1580 C   0  0  0  0  0  0  0  0  0  0  0  0
  183.3840  179.1090  143.2790 C   0  0  0  0  0  3  0  0  0  0  0  0
  184.2090  178.8760  140.9800 C   0  0  0  0  0  3  0  0  0  0  0  0
  184.7620  179.5460  140.0370 N   0  0  0  0  0  2  0  0  0  0  0  0
  1 14  1  1  0  0  0
  1 19  1  0  0  0  0
  2  1  1  0  0  0  0
  3  2  2  0  0  0  0
  4  7  2  0  0  0  0
  5  6  2  0  0  0  0
  5  4  1  0  0  0  0
  6  8  1  0  0  0  0
  7  9  1  0  0  0  0
  7  2  1  0  0  0  0
  8  9  2  0  0  0  0
 10  6  1  0  0  0  0
 11 12  1  0  0  0  0
 12 10  1  0  0  0  0
 13 12  2  0  0  0  0
 14 15  1  0  0  0  0
 15 16  1  0  0  0  0
 16 17  1  0  0  0  0
 17 18  1  0  0  0  0
 19 20  1  0  0  0  0
 20 21  1  0  0  0  0
 21 22  1  0  0  0  0
 22 23  1  0  0  0  0
 24 23  1  0  0  0  0
 25 24  1  0  0  0  0
 26 27  1  0  0  0  0
 27 30  2  0  0  0  0
 28 30  1  0  0  0  0
 29 32  1  6  0  0  0
 29 26  1  0  0  0  0
 29 31  1  0  0  0  0
 30 25  1  0  0  0  0
 31 28  2  0  0  0  0
 33 32  2  0  0  0  0
M  END
>  <MODEL>
1

>  <REMARK>
 VINA RESULT:      -7.7      0.000      0.000
  Name = 
  16 active torsions:
  status: ('A' for Active; 'I' for Inactive)
    1  A    between atoms: C_1  and  C_21
    2  A    between atoms: N_3  and  C_13
    3  A    between atoms: C_4  and  C_9
    4  A    between atoms: C_4  and  C_24
    5  A    between atoms: C_6  and  C_26
    6  A    between atoms: C_6  and  C_30
    7  A    between atoms: C_8  and  C_29
    8  A    between atoms: C_8  and  C_30
    9  A    between atoms: C_9  and  C_27
   10  A    between atoms: C_12  and  C_17
   11  A    between atoms: C_12  and  C_27
   12  A    between atoms: C_15  and  N_19
   13  A    between atoms: C_15  and  C_27
   14  A    between atoms: N_19  and  C_26
   15  A    between atoms: C_20  and  C_24
   16  A    between atoms: C_25  and  C_29
                            x       y       z     vdW  Elec       q    Type
                         _______ _______ _______ _____ _____    ______ ____

>  <TORSDO>
F 16

$$$$
=
 OpenBabel10232411173D

 33 34  0  0  1  0  0  0  0  0999 V2000
  187.8060  178.0400  139.9820 C   0  0  1  0  0  3  0  0  0  0  0  0
  188.5420  178.2430  138.6880 C   0  0  0  0  0  0  0  0  0  0  0  0
  188.2800  179.2490  137.9720 O   0  0  0  0  0  0  0  0  0  0  0  0
  190.2520  176.4960  139.2020 C   0  0  0  0  0  3  0  0  0  0  0  0
  191.2090  175.6150  138.8040 N   0  0  0  0  0  0  0  0  0  0  0  0
  191.5540  175.4660  137.4960 C   0  0  0  0  0  0  0  0  0  0  0  0
  189.5830  177.2870  138.2600 C   0  0  0  0  0  0  0  0  0  0  0  0
  190.9120  176.2420  136.5230 C   0  0  0  0  0  3  0  0  0  0  0  0
  189.9270  177.1510  136.9100 C   0  0  0  0  0  3  0  0  0  0  0  0
  192.5710  174.5140  137.1500 N   0  0  0  0  0  2  0  0  0  0  0  0
  194.8510  173.4460  137.1200 C   0  0  0  0  0  1  0  0  0  0  0  0
  193.9330  174.5140  137.5930 C   0  0  0  0  0  0  0  0  0  0  0  0
  194.3700  175.4030  138.3720 O   0  0  0  0  0  0  0  0  0  0  0  0
  188.5290  178.6840  141.1670 C   0  0  0  0  0  2  0  0  0  0  0  0
  188.8260  177.6920  142.2810 C   0  0  0  0  0  2  0  0  0  0  0  0
  190.2070  177.9630  142.8450 C   0  0  0  0  0  2  0  0  0  0  0  0
  191.0530  176.7040  142.7840 C   0  0  0  0  0  2  0  0  0  0  0  0
  190.2310  175.5870  142.6180 O   0  0  0  0  0  1  0  0  0  0  0  0
  186.3480  178.4700  139.8720 C   0  0  0  0  0  2  0  0  0  0  0  0
  186.0090  179.3610  140.9680 N   0  0  0  0  0  2  0  0  0  0  0  0
  184.7360  178.9030  141.4980 C   0  0  0  0  0  2  0  0  0  0  0  0
  184.9520  178.1470  142.8000 C   0  0  0  0  0  2  0  0  0  0  0  0
  184.2240  178.8150  143.9560 C   0  0  0  0  0  2  0  0  0  0  0  0
  185.2150  179.3490  144.9710 C   0  0  0  0  0  2  0  0  0  0  0  0
  185.1700  178.4870  146.2200 C   0  0  0  0  0  2  0  0  0  0  0  0
  188.3650  177.7420  148.2260 C   0  0  0  0  0  2  0  0  0  0  0  0
  187.0160  178.2710  147.8170 C   0  0  0  0  0  3  0  0  0  0  0  0
  187.3780  177.3370  145.5900 C   0  0  0  0  0  3  0  0  0  0  0  0
  189.3350  177.7470  147.0360 C   0  0  2  0  0  3  0  0  0  0  0  0
  186.5440  178.0420  146.5850 C   0  0  0  0  0  0  0  0  0  0  0  0
  188.6850  177.1590  145.8130 C   0  0  0  0  0  3  0  0  0  0  0  0
  190.5780  176.9890  147.3640 C   0  0  0  0  0  3  0  0  0  0  0  0
  191.3560  176.5830  146.4310 N   0  0  0  0  0  2  0  0  0  0  0  0
  1 19  1  6  0  0  0
  1 14  1  0  0  0  0
  2  1  1  0  0  0  0
  3  2  2  0  0  0  0
  5  4  1  0  0  0  0
  6  5  2  0  0  0  0
  7  2  1  0  0  0  0
  7  4  2  0  0  0  0
  8  9  2  0  0  0  0
  8  6  1  0  0  0  0
  9  7  1  0  0  0  0
 10  6  1  0  0  0  0
 10 12  1  0  0  0  0
 11 12  1  0  0  0  0
 12 13  2  0  0  0  0
 14 15  1  0  0  0  0
 15 16  1  0  0  0  0
 17 16  1  0  0  0  0
 18 17  1  0  0  0  0
 19 20  1  0  0  0  0
 20 21  1  0  0  0  0
 21 22  1  0  0  0  0
 22 23  1  0  0  0  0
 23 24  1  0  0  0  0
 24 25  1  0  0  0  0
 25 30  1  0  0  0  0
 27 26  1  0  0  0  0
 28 31  2  0  0  0  0
 28 30  1  0  0  0  0
 29 32  1  1  0  0  0
 29 26  1  0  0  0  0
 30 27  2  0  0  0  0
 31 29  1  0  0  0  0
 33 32  2  0  0  0  0
M  END
>  <MODEL>
2

>  <REMARK>
 VINA RESULT:      -7.6      2.328      5.499
  Name = 
  16 active torsions:
  status: ('A' for Active; 'I' for Inactive)
    1  A    between atoms: C_1  and  C_21
    2  A    between atoms: N_3  and  C_13
    3  A    between atoms: C_4  and  C_9
    4  A    between atoms: C_4  and  C_24
    5  A    between atoms: C_6  and  C_26
    6  A    between atoms: C_6  and  C_30
    7  A    between atoms: C_8  and  C_29
    8  A    between atoms: C_8  and  C_30
    9  A    between atoms: C_9  and  C_27
   10  A    between atoms: C_12  and  C_17
   11  A    between atoms: C_12  and  C_27
   12  A    between atoms: C_15  and  N_19
   13  A    between atoms: C_15  and  C_27
   14  A    between atoms: N_19  and  C_26
   15  A    between atoms: C_20  and  C_24
   16  A    between atoms: C_25  and  C_29
                            x       y       z     vdW  Elec       q    Type
                         _______ _______ _______ _____ _____    ______ ____

>  <TORSDO>
F 16

$$$$
=
 OpenBabel10232411173D

 33 34  0  0  1  0  0  0  0  0999 V2000
  189.1840  178.1370  139.9500 C   0  0  1  0  0  3  0  0  0  0  0  0
  190.1010  177.0500  140.4350 C   0  0  0  0  0  0  0  0  0  0  0  0
  190.5380  176.1920  139.6180 O   0  0  0  0  0  0  0  0  0  0  0  0
  191.3860  177.9500  142.3790 C   0  0  0  0  0  3  0  0  0  0  0  0
  191.7600  177.8930  143.6860 N   0  0  0  0  0  0  0  0  0  0  0  0
  191.3090  176.9210  144.5250 C   0  0  0  0  0  0  0  0  0  0  0  0
  190.5110  176.9910  141.8520 C   0  0  0  0  0  0  0  0  0  0  0  0
  190.4350  175.9420  144.0350 C   0  0  0  0  0  3  0  0  0  0  0  0
  190.0390  175.9810  142.6980 C   0  0  0  0  0  3  0  0  0  0  0  0
  191.7430  176.9280  145.8930 N   0  0  0  0  0  2  0  0  0  0  0  0
  192.6360  176.0060  148.0590 C   0  0  0  0  0  1  0  0  0  0  0  0
  192.2390  175.8110  146.6410 C   0  0  0  0  0  0  0  0  0  0  0  0
  192.3420  174.6680  146.1220 O   0  0  0  0  0  0  0  0  0  0  0  0
  189.3350  178.3960  138.4490 C   0  0  0  0  0  2  0  0  0  0  0  0
  188.2270  177.7520  137.6300 C   0  0  0  0  0  2  0  0  0  0  0  0
  188.4290  178.0740  136.1630 C   0  0  0  0  0  2  0  0  0  0  0  0
  187.0980  178.0600  135.4360 C   0  0  0  0  0  2  0  0  0  0  0  0
  186.3850  176.9070  135.7700 O   0  0  0  0  0  1  0  0  0  0  0  0
  187.7410  177.8810  140.3650 C   0  0  0  0  0  2  0  0  0  0  0  0
  187.3900  178.7240  141.4950 N   0  0  0  0  0  2  0  0  0  0  0  0
  186.0210  179.1600  141.2800 C   0  0  0  0  0  2  0  0  0  0  0  0
  185.0510  178.1410  141.8580 C   0  0  0  0  0  2  0  0  0  0  0  0
  183.8980  178.8200  142.5800 C   0  0  0  0  0  2  0  0  0  0  0  0
  184.4090  179.6150  143.7660 C   0  0  0  0  0  2  0  0  0  0  0  0
  184.1710  178.8250  145.0410 C   0  0  0  0  0  2  0  0  0  0  0  0
  187.7480  177.5410  145.6260 C   0  0  0  0  0  2  0  0  0  0  0  0
  186.3960  177.8000  145.0150 C   0  0  0  0  0  3  0  0  0  0  0  0
  185.7390  178.9420  147.0710 C   0  0  0  0  0  3  0  0  0  0  0  0
  187.6320  177.3620  147.1470 C   0  0  2  0  0  3  0  0  0  0  0  0
  185.4700  178.4940  145.6890 C   0  0  0  0  0  0  0  0  0  0  0  0
  186.7780  178.4450  147.7500 C   0  0  0  0  0  3  0  0  0  0  0  0
  188.9820  177.3680  147.7830 C   0  0  0  0  0  3  0  0  0  0  0  0
  189.3630  178.3670  148.4900 N   0  0  0  0  0  2  0  0  0  0  0  0
  1 14  1  6  0  0  0
  1 19  1  0  0  0  0
  1  2  1  0  0  0  0
  2  7  1  0  0  0  0
  3  2  2  0  0  0  0
  4  5  1  0  0  0  0
  5  6  2  0  0  0  0
  6 10  1  0  0  0  0
  7  4  2  0  0  0  0
  7  9  1  0  0  0  0
  8  6  1  0  0  0  0
  9  8  2  0  0  0  0
 10 12  1  0  0  0  0
 12 11  1  0  0  0  0
 13 12  2  0  0  0  0
 15 14  1  0  0  0  0
 16 15  1  0  0  0  0
 17 18  1  0  0  0  0
 17 16  1  0  0  0  0
 19 20  1  0  0  0  0
 21 20  1  0  0  0  0
 21 22  1  0  0  0  0
 22 23  1  0  0  0  0
 23 24  1  0  0  0  0
 24 25  1  0  0  0  0
 25 30  1  0  0  0  0
 26 29  1  0  0  0  0
 27 26  1  0  0  0  0
 27 30  2  0  0  0  0
 28 31  2  0  0  0  0
 29 31  1  0  0  0  0
 29 32  1  1  0  0  0
 30 28  1  0  0  0  0
 32 33  2  0  0  0  0
M  END
>  <MODEL>
3

>  <REMARK>
 VINA RESULT:      -7.5      1.776      7.258
  Name = 
  16 active torsions:
  status: ('A' for Active; 'I' for Inactive)
    1  A    between atoms: C_1  and  C_21
    2  A    between atoms: N_3  and  C_13
    3  A    between atoms: C_4  and  C_9
    4  A    between atoms: C_4  and  C_24
    5  A    between atoms: C_6  and  C_26
    6  A    between atoms: C_6  and  C_30
    7  A    between atoms: C_8  and  C_29
    8  A    between atoms: C_8  and  C_30
    9  A    between atoms: C_9  and  C_27
   10  A    between atoms: C_12  and  C_17
   11  A    between atoms: C_12  and  C_27
   12  A    between atoms: C_15  and  N_19
   13  A    between atoms: C_15  and  C_27
   14  A    between atoms: N_19  and  C_26
   15  A    between atoms: C_20  and  C_24
   16  A    between atoms: C_25  and  C_29
                            x       y       z     vdW  Elec       q    Type
                         _______ _______ _______ _____ _____    ______ ____

>  <TORSDO>
F 16

$$$$
=
 OpenBabel10232411173D

 33 34  0  0  1  0  0  0  0  0999 V2000
  187.6160  177.6930  137.0310 C   0  0  1  0  0  3  0  0  0  0  0  0
  188.5810  178.4980  137.8550 C   0  0  0  0  0  0  0  0  0  0  0  0
  189.0080  179.6010  137.4140 O   0  0  0  0  0  0  0  0  0  0  0  0
  190.1520  177.2090  139.3080 C   0  0  0  0  0  3  0  0  0  0  0  0
  190.5490  176.7700  140.5330 N   0  0  0  0  0  0  0  0  0  0  0  0
  189.8740  177.0910  141.6700 C   0  0  0  0  0  0  0  0  0  0  0  0
  189.0150  178.0180  139.1820 C   0  0  0  0  0  0  0  0  0  0  0  0
  188.7300  177.8940  141.5850 C   0  0  0  0  0  3  0  0  0  0  0  0
  188.3040  178.3550  140.3400 C   0  0  0  0  0  3  0  0  0  0  0  0
  190.3550  176.5940  142.9270 N   0  0  0  0  0  2  0  0  0  0  0  0
  191.5680  176.6220  145.1340 C   0  0  0  0  0  1  0  0  0  0  0  0
  191.1520  177.3050  143.8820 C   0  0  0  0  0  0  0  0  0  0  0  0
  191.5100  178.4960  143.6810 O   0  0  0  0  0  0  0  0  0  0  0  0
  188.2940  176.5100  136.3360 C   0  0  0  0  0  2  0  0  0  0  0  0
  188.1570  175.2140  137.1200 C   0  0  0  0  0  2  0  0  0  0  0  0
  188.4270  174.0370  136.2030 C   0  0  0  0  0  2  0  0  0  0  0  0
  189.8470  173.5390  136.3960 C   0  0  0  0  0  2  0  0  0  0  0  0
  190.3400  173.9730  137.6280 O   0  0  0  0  0  1  0  0  0  0  0  0
  186.3920  177.2820  137.8400 C   0  0  0  0  0  2  0  0  0  0  0  0
  185.3400  178.2720  137.6880 N   0  0  0  0  0  2  0  0  0  0  0  0
  184.4620  178.1280  138.8370 C   0  0  0  0  0  2  0  0  0  0  0  0
  184.8460  179.1270  139.9170 C   0  0  0  0  0  2  0  0  0  0  0  0
  184.1800  178.7920  141.2430 C   0  0  0  0  0  2  0  0  0  0  0  0
  185.1960  178.8180  142.3690 C   0  0  0  0  0  2  0  0  0  0  0  0
  184.5040  178.4870  143.6780 C   0  0  0  0  0  2  0  0  0  0  0  0
  186.3500  178.4060  147.0510 C   0  0  0  0  0  2  0  0  0  0  0  0
  185.3880  178.7590  145.9470 C   0  0  0  0  0  3  0  0  0  0  0  0
  186.6480  177.3010  144.4480 C   0  0  0  0  0  3  0  0  0  0  0  0
  187.7540  178.1450  146.4860 C   0  0  2  0  0  3  0  0  0  0  0  0
  185.5140  178.2040  144.7350 C   0  0  0  0  0  0  0  0  0  0  0  0
  187.6870  177.2380  145.2860 C   0  0  0  0  0  3  0  0  0  0  0  0
  188.6390  177.5450  147.5270 C   0  0  0  0  0  3  0  0  0  0  0  0
  189.1160  178.2700  148.4700 N   0  0  0  0  0  2  0  0  0  0  0  0
  1 14  1  1  0  0  0
  1 19  1  0  0  0  0
  1  2  1  0  0  0  0
  2  7  1  0  0  0  0
  3  2  2  0  0  0  0
  4  5  1  0  0  0  0
  5  6  2  0  0  0  0
  6 10  1  0  0  0  0
  7  4  2  0  0  0  0
  7  9  1  0  0  0  0
  8  6  1  0  0  0  0
  9  8  2  0  0  0  0
 10 12  1  0  0  0  0
 12 11  1  0  0  0  0
 13 12  2  0  0  0  0
 14 15  1  0  0  0  0
 16 17  1  0  0  0  0
 16 15  1  0  0  0  0
 17 18  1  0  0  0  0
 20 19  1  0  0  0  0
 20 21  1  0  0  0  0
 21 22  1  0  0  0  0
 22 23  1  0  0  0  0
 23 24  1  0  0  0  0
 24 25  1  0  0  0  0
 25 30  1  0  0  0  0
 27 26  1  0  0  0  0
 28 30  1  0  0  0  0
 28 31  2  0  0  0  0
 29 26  1  0  0  0  0
 29 32  1  1  0  0  0
 30 27  2  0  0  0  0
 31 29  1  0  0  0  0
 32 33  2  0  0  0  0
M  END
>  <MODEL>
4

>  <REMARK>
 VINA RESULT:      -7.5      2.041      6.901
  Name = 
  16 active torsions:
  status: ('A' for Active; 'I' for Inactive)
    1  A    between atoms: C_1  and  C_21
    2  A    between atoms: N_3  and  C_13
    3  A    between atoms: C_4  and  C_9
    4  A    between atoms: C_4  and  C_24
    5  A    between atoms: C_6  and  C_26
    6  A    between atoms: C_6  and  C_30
    7  A    between atoms: C_8  and  C_29
    8  A    between atoms: C_8  and  C_30
    9  A    between atoms: C_9  and  C_27
   10  A    between atoms: C_12  and  C_17
   11  A    between atoms: C_12  and  C_27
   12  A    between atoms: C_15  and  N_19
   13  A    between atoms: C_15  and  C_27
   14  A    between atoms: N_19  and  C_26
   15  A    between atoms: C_20  and  C_24
   16  A    between atoms: C_25  and  C_29
                            x       y       z     vdW  Elec       q    Type
                         _______ _______ _______ _____ _____    ______ ____

>  <TORSDO>
F 16

$$$$
=
 OpenBabel10232411173D

 33 34  0  0  1  0  0  0  0  0999 V2000
  188.1200  177.7870  140.8040 C   0  0  1  0  0  3  0  0  0  0  0  0
  188.1630  178.2650  139.3810 C   0  0  0  0  0  0  0  0  0  0  0  0
  189.0680  179.0690  139.0200 O   0  0  0  0  0  0  0  0  0  0  0  0
  187.5450  176.8910  137.3890 C   0  0  0  0  0  3  0  0  0  0  0  0
  186.6260  176.4500  136.4860 N   0  0  0  0  0  0  0  0  0  0  0  0
  185.3270  176.8520  136.5230 C   0  0  0  0  0  0  0  0  0  0  0  0
  187.1700  177.7860  138.3990 C   0  0  0  0  0  0  0  0  0  0  0  0
  184.9140  177.7500  137.5160 C   0  0  0  0  0  3  0  0  0  0  0  0
  185.8390  178.2150  138.4510 C   0  0  0  0  0  3  0  0  0  0  0  0
  184.4140  176.3420  135.5410 N   0  0  0  0  0  2  0  0  0  0  0  0
  182.5090  174.9820  134.6130 C   0  0  0  0  0  1  0  0  0  0  0  0
  183.3520  175.4060  135.7600 C   0  0  0  0  0  0  0  0  0  0  0  0
  183.1220  174.9320  136.9040 O   0  0  0  0  0  0  0  0  0  0  0  0
  189.5090  177.4330  141.3390 C   0  0  0  0  0  2  0  0  0  0  0  0
  189.4630  176.3750  142.4310 C   0  0  0  0  0  2  0  0  0  0  0  0
  190.8640  176.1310  142.9580 C   0  0  0  0  0  2  0  0  0  0  0  0
  191.7500  177.3250  142.6600 C   0  0  0  0  0  2  0  0  0  0  0  0
  191.8600  178.1310  143.7950 O   0  0  0  0  0  1  0  0  0  0  0  0
  187.3700  178.7640  141.7020 C   0  0  0  0  0  2  0  0  0  0  0  0
  186.2800  178.0830  142.3780 N   0  0  0  0  0  2  0  0  0  0  0  0
  185.2980  179.0990  142.7150 C   0  0  0  0  0  2  0  0  0  0  0  0
  184.0460  178.4500  143.2830 C   0  0  0  0  0  2  0  0  0  0  0  0
  183.8550  178.8040  144.7500 C   0  0  0  0  0  2  0  0  0  0  0  0
  185.1660  179.2550  145.3620 C   0  0  0  0  0  2  0  0  0  0  0  0
  185.4300  178.4590  146.6280 C   0  0  0  0  0  2  0  0  0  0  0  0
  189.0800  177.6570  145.7200 C   0  0  0  0  0  2  0  0  0  0  0  0
  187.5960  177.8950  145.6300 C   0  0  0  0  0  3  0  0  0  0  0  0
  187.5270  178.0850  148.0630 C   0  0  0  0  0  3  0  0  0  0  0  0
  189.4350  176.9200  147.0190 C   0  0  2  0  0  3  0  0  0  0  0  0
  186.8790  178.1330  146.7360 C   0  0  0  0  0  0  0  0  0  0  0  0
  188.7450  177.5520  148.1990 C   0  0  0  0  0  3  0  0  0  0  0  0
  190.9110  176.9150  147.2380 C   0  0  0  0  0  3  0  0  0  0  0  0
  191.5290  175.8190  147.4810 N   0  0  0  0  0  2  0  0  0  0  0  0
  1 14  1  1  0  0  0
  1 19  1  0  0  0  0
  2  1  1  0  0  0  0
  3  2  2  0  0  0  0
  4  7  2  0  0  0  0
  5  6  2  0  0  0  0
  5  4  1  0  0  0  0
  6  8  1  0  0  0  0
  7  9  1  0  0  0  0
  7  2  1  0  0  0  0
  8  9  2  0  0  0  0
 10 12  1  0  0  0  0
 10  6  1  0  0  0  0
 11 12  1  0  0  0  0
 12 13  2  0  0  0  0
 14 15  1  0  0  0  0
 15 16  1  0  0  0  0
 17 16  1  0  0  0  0
 17 18  1  0  0  0  0
 19 20  1  0  0  0  0
 20 21  1  0  0  0  0
 21 22  1  0  0  0  0
 22 23  1  0  0  0  0
 23 24  1  0  0  0  0
 24 25  1  0  0  0  0
 25 30  1  0  0  0  0
 26 29  1  0  0  0  0
 27 26  1  0  0  0  0
 27 30  2  0  0  0  0
 28 31  2  0  0  0  0
 29 32  1  1  0  0  0
 29 31  1  0  0  0  0
 30 28  1  0  0  0  0
 32 33  2  0  0  0  0
M  END
>  <MODEL>
5

>  <REMARK>
 VINA RESULT:      -7.3      2.477      5.048
  Name = 
  16 active torsions:
  status: ('A' for Active; 'I' for Inactive)
    1  A    between atoms: C_1  and  C_21
    2  A    between atoms: N_3  and  C_13
    3  A    between atoms: C_4  and  C_9
    4  A    between atoms: C_4  and  C_24
    5  A    between atoms: C_6  and  C_26
    6  A    between atoms: C_6  and  C_30
    7  A    between atoms: C_8  and  C_29
    8  A    between atoms: C_8  and  C_30
    9  A    between atoms: C_9  and  C_27
   10  A    between atoms: C_12  and  C_17
   11  A    between atoms: C_12  and  C_27
   12  A    between atoms: C_15  and  N_19
   13  A    between atoms: C_15  and  C_27
   14  A    between atoms: N_19  and  C_26
   15  A    between atoms: C_20  and  C_24
   16  A    between atoms: C_25  and  C_29
                            x       y       z     vdW  Elec       q    Type
                         _______ _______ _______ _____ _____    ______ ____

>  <TORSDO>
F 16

$$$$
=
 OpenBabel10232411173D

 33 34  0  0  1  0  0  0  0  0999 V2000
  189.0020  178.4040  139.9120 C   0  0  1  0  0  3  0  0  0  0  0  0
  189.9040  177.3180  140.4240 C   0  0  0  0  0  0  0  0  0  0  0  0
  189.6660  176.7860  141.5440 O   0  0  0  0  0  0  0  0  0  0  0  0
  192.3420  177.3360  139.8770 C   0  0  0  0  0  3  0  0  0  0  0  0
  193.3970  176.9060  139.1340 N   0  0  0  0  0  0  0  0  0  0  0  0
  193.2510  176.0060  138.1250 C   0  0  0  0  0  0  0  0  0  0  0  0
  191.0520  176.8550  139.6190 C   0  0  0  0  0  0  0  0  0  0  0  0
  191.9760  175.5030  137.8330 C   0  0  0  0  0  3  0  0  0  0  0  0
  190.8800  175.9300  138.5820 C   0  0  0  0  0  3  0  0  0  0  0  0
  194.4110  175.5950  137.3870 N   0  0  0  0  0  2  0  0  0  0  0  0
  196.5190  174.3130  136.8810 C   0  0  0  0  0  1  0  0  0  0  0  0
  195.3670  174.6010  137.7740 C   0  0  0  0  0  0  0  0  0  0  0  0
  195.2530  173.9690  138.8580 O   0  0  0  0  0  0  0  0  0  0  0  0
  189.1660  178.6320  138.4070 C   0  0  0  0  0  2  0  0  0  0  0  0
  187.8830  178.3700  137.6330 C   0  0  0  0  0  2  0  0  0  0  0  0
  188.1470  177.3440  136.5480 C   0  0  0  0  0  2  0  0  0  0  0  0
  187.5550  176.0040  136.9390 C   0  0  0  0  0  2  0  0  0  0  0  0
  188.0250  175.0070  136.0820 O   0  0  0  0  0  1  0  0  0  0  0  0
  187.5530  178.1720  140.3220 C   0  0  0  0  0  2  0  0  0  0  0  0
  187.2880  178.8130  141.5980 N   0  0  0  0  0  2  0  0  0  0  0  0
  185.8480  178.9780  141.6900 C   0  0  0  0  0  2  0  0  0  0  0  0
  185.2960  178.1340  142.8290 C   0  0  0  0  0  2  0  0  0  0  0  0
  184.5230  178.9840  143.8250 C   0  0  0  0  0  2  0  0  0  0  0  0
  185.3760  179.2810  145.0430 C   0  0  0  0  0  2  0  0  0  0  0  0
  185.5370  178.0160  145.8660 C   0  0  0  0  0  2  0  0  0  0  0  0
  189.3030  177.3030  145.5500 C   0  0  0  0  0  2  0  0  0  0  0  0
  187.8340  177.4320  145.2430 C   0  0  0  0  0  3  0  0  0  0  0  0
  187.4450  178.0060  147.5840 C   0  0  0  0  0  3  0  0  0  0  0  0
  189.5170  176.8070  146.9870 C   0  0  2  0  0  3  0  0  0  0  0  0
  186.9720  177.8000  146.2000 C   0  0  0  0  0  0  0  0  0  0  0  0
  188.6570  177.5770  147.9520 C   0  0  0  0  0  3  0  0  0  0  0  0
  190.9520  176.9280  147.3780 C   0  0  0  0  0  3  0  0  0  0  0  0
  191.8800  176.6850  146.5280 N   0  0  0  0  0  2  0  0  0  0  0  0
  1 14  1  6  0  0  0
  1 19  1  0  0  0  0
  1  2  1  0  0  0  0
  2  3  2  0  0  0  0
  5  4  1  0  0  0  0
  6  5  2  0  0  0  0
  7  4  2  0  0  0  0
  7  2  1  0  0  0  0
  8  6  1  0  0  0  0
  8  9  2  0  0  0  0
  9  7  1  0  0  0  0
 10 12  1  0  0  0  0
 10  6  1  0  0  0  0
 11 12  1  0  0  0  0
 12 13  2  0  0  0  0
 15 14  1  0  0  0  0
 16 17  1  0  0  0  0
 16 15  1  0  0  0  0
 18 17  1  0  0  0  0
 19 20  1  0  0  0  0
 20 21  1  0  0  0  0
 21 22  1  0  0  0  0
 22 23  1  0  0  0  0
 23 24  1  0  0  0  0
 24 25  1  0  0  0  0
 25 30  1  0  0  0  0
 26 29  1  0  0  0  0
 27 26  1  0  0  0  0
 27 30  2  0  0  0  0
 28 31  2  0  0  0  0
 29 32  1  1  0  0  0
 29 31  1  0  0  0  0
 30 28  1  0  0  0  0
 33 32  2  0  0  0  0
M  END
>  <MODEL>
6

>  <REMARK>
 VINA RESULT:      -7.2      2.797      6.641
  Name = 
  16 active torsions:
  status: ('A' for Active; 'I' for Inactive)
    1  A    between atoms: C_1  and  C_21
    2  A    between atoms: N_3  and  C_13
    3  A    between atoms: C_4  and  C_9
    4  A    between atoms: C_4  and  C_24
    5  A    between atoms: C_6  and  C_26
    6  A    between atoms: C_6  and  C_30
    7  A    between atoms: C_8  and  C_29
    8  A    between atoms: C_8  and  C_30
    9  A    between atoms: C_9  and  C_27
   10  A    between atoms: C_12  and  C_17
   11  A    between atoms: C_12  and  C_27
   12  A    between atoms: C_15  and  N_19
   13  A    between atoms: C_15  and  C_27
   14  A    between atoms: N_19  and  C_26
   15  A    between atoms: C_20  and  C_24
   16  A    between atoms: C_25  and  C_29
                            x       y       z     vdW  Elec       q    Type
                         _______ _______ _______ _____ _____    ______ ____

>  <TORSDO>
F 16

$$$$
=
 OpenBabel10232411173D

 33 34  0  0  1  0  0  0  0  0999 V2000
  186.8620  177.8650  137.4430 C   0  0  1  0  0  3  0  0  0  0  0  0
  188.0860  178.5090  138.0280 C   0  0  0  0  0  0  0  0  0  0  0  0
  188.6400  179.4650  137.4170 O   0  0  0  0  0  0  0  0  0  0  0  0
  187.9350  178.2840  140.5110 C   0  0  0  0  0  3  0  0  0  0  0  0
  188.4410  177.8540  141.6990 N   0  0  0  0  0  0  0  0  0  0  0  0
  189.6240  177.1880  141.7820 C   0  0  0  0  0  0  0  0  0  0  0  0
  188.6320  178.0470  139.3190 C   0  0  0  0  0  0  0  0  0  0  0  0
  190.3530  176.9350  140.6130 C   0  0  0  0  0  3  0  0  0  0  0  0
  189.8540  177.3660  139.3840 C   0  0  0  0  0  3  0  0  0  0  0  0
  190.0930  176.7620  143.0700 N   0  0  0  0  0  2  0  0  0  0  0  0
  191.5470  176.7220  145.1250 C   0  0  0  0  0  1  0  0  0  0  0  0
  191.2010  177.3000  143.8010 C   0  0  0  0  0  0  0  0  0  0  0  0
  191.8890  178.2510  143.3440 O   0  0  0  0  0  0  0  0  0  0  0  0
  187.1230  176.4270  136.9900 C   0  0  0  0  0  2  0  0  0  0  0  0
  186.3690  176.0680  135.7190 C   0  0  0  0  0  2  0  0  0  0  0  0
  185.7640  174.6850  135.8630 C   0  0  0  0  0  2  0  0  0  0  0  0
  185.7300  174.2790  137.3240 C   0  0  0  0  0  2  0  0  0  0  0  0
  185.3420  172.9420  137.4370 O   0  0  0  0  0  1  0  0  0  0  0  0
  185.6640  177.9830  138.3780 C   0  0  0  0  0  2  0  0  0  0  0  0
  185.1820  179.3530  138.3990 N   0  0  0  0  0  2  0  0  0  0  0  0
  184.1320  179.4100  139.4020 C   0  0  0  0  0  2  0  0  0  0  0  0
  184.0020  178.0650  140.1000 C   0  0  0  0  0  2  0  0  0  0  0  0
  183.5180  178.2290  141.5330 C   0  0  0  0  0  2  0  0  0  0  0  0
  184.6730  178.5900  142.4450 C   0  0  0  0  0  2  0  0  0  0  0  0
  184.1960  178.5900  143.8860 C   0  0  0  0  0  2  0  0  0  0  0  0
  187.6110  177.5620  145.3230 C   0  0  0  0  0  2  0  0  0  0  0  0
  186.3980  177.6690  144.4370 C   0  0  0  0  0  3  0  0  0  0  0  0
  185.3430  179.0750  146.1320 C   0  0  0  0  0  3  0  0  0  0  0  0
  187.2080  177.6060  146.8040 C   0  0  2  0  0  3  0  0  0  0  0  0
  185.3500  178.4150  144.8100 C   0  0  0  0  0  0  0  0  0  0  0  0
  186.2390  178.7280  147.0620 C   0  0  0  0  0  3  0  0  0  0  0  0
  188.4100  177.7640  147.6740 C   0  0  0  0  0  3  0  0  0  0  0  0
  188.2850  178.1440  148.8920 N   0  0  0  0  0  2  0  0  0  0  0  0
  1 14  1  1  0  0  0
  1  2  1  0  0  0  0
  1 19  1  0  0  0  0
  2  7  1  0  0  0  0
  3  2  2  0  0  0  0
  4  5  1  0  0  0  0
  5  6  2  0  0  0  0
  6 10  1  0  0  0  0
  7  9  1  0  0  0  0
  7  4  2  0  0  0  0
  8  6  1  0  0  0  0
  9  8  2  0  0  0  0
 10 12  1  0  0  0  0
 12 11  1  0  0  0  0
 13 12  2  0  0  0  0
 15 16  1  0  0  0  0
 15 14  1  0  0  0  0
 16 17  1  0  0  0  0
 17 18  1  0  0  0  0
 19 20  1  0  0  0  0
 20 21  1  0  0  0  0
 21 22  1  0  0  0  0
 22 23  1  0  0  0  0
 23 24  1  0  0  0  0
 24 25  1  0  0  0  0
 25 30  1  0  0  0  0
 26 29  1  0  0  0  0
 27 30  2  0  0  0  0
 27 26  1  0  0  0  0
 28 31  2  0  0  0  0
 29 31  1  0  0  0  0
 29 32  1  1  0  0  0
 30 28  1  0  0  0  0
 32 33  2  0  0  0  0
M  END
>  <MODEL>
7

>  <REMARK>
 VINA RESULT:      -7.1      2.157      7.188
  Name = 
  16 active torsions:
  status: ('A' for Active; 'I' for Inactive)
    1  A    between atoms: C_1  and  C_21
    2  A    between atoms: N_3  and  C_13
    3  A    between atoms: C_4  and  C_9
    4  A    between atoms: C_4  and  C_24
    5  A    between atoms: C_6  and  C_26
    6  A    between atoms: C_6  and  C_30
    7  A    between atoms: C_8  and  C_29
    8  A    between atoms: C_8  and  C_30
    9  A    between atoms: C_9  and  C_27
   10  A    between atoms: C_12  and  C_17
   11  A    between atoms: C_12  and  C_27
   12  A    between atoms: C_15  and  N_19
   13  A    between atoms: C_15  and  C_27
   14  A    between atoms: N_19  and  C_26
   15  A    between atoms: C_20  and  C_24
   16  A    between atoms: C_25  and  C_29
                            x       y       z     vdW  Elec       q    Type
                         _______ _______ _______ _____ _____    ______ ____

>  <TORSDO>
F 16

$$$$
=
 OpenBabel10232411173D

 33 34  0  0  1  0  0  0  0  0999 V2000
  189.6820  177.3070  138.5770 C   0  0  1  0  0  3  0  0  0  0  0  0
  188.7480  178.4820  138.6420 C   0  0  0  0  0  0  0  0  0  0  0  0
  188.9610  179.4880  137.9110 O   0  0  0  0  0  0  0  0  0  0  0  0
  186.2780  178.4140  139.0110 C   0  0  0  0  0  3  0  0  0  0  0  0
  185.2000  178.3910  139.8400 N   0  0  0  0  0  0  0  0  0  0  0  0
  185.3290  178.4090  141.1940 C   0  0  0  0  0  0  0  0  0  0  0  0
  187.5750  178.4580  139.5380 C   0  0  0  0  0  0  0  0  0  0  0  0
  186.6100  178.4560  141.7610 C   0  0  0  0  0  3  0  0  0  0  0  0
  187.7290  178.4810  140.9300 C   0  0  0  0  0  3  0  0  0  0  0  0
  184.1460  178.3780  142.0060 N   0  0  0  0  0  2  0  0  0  0  0  0
  182.6000  178.9920  143.8960 C   0  0  0  0  0  1  0  0  0  0  0  0
  183.8850  179.1670  143.1730 C   0  0  0  0  0  0  0  0  0  0  0  0
  184.7250  180.0040  143.6000 O   0  0  0  0  0  0  0  0  0  0  0  0
  190.2460  177.0920  137.1710 C   0  0  0  0  0  2  0  0  0  0  0  0
  191.0030  175.7790  137.0380 C   0  0  0  0  0  2  0  0  0  0  0  0
  192.2710  176.0050  136.2380 C   0  0  0  0  0  2  0  0  0  0  0  0
  193.4880  175.6820  137.0850 C   0  0  0  0  0  2  0  0  0  0  0  0
  193.3780  174.3890  137.6020 O   0  0  0  0  0  1  0  0  0  0  0  0
  190.7670  177.3910  139.6440 C   0  0  0  0  0  2  0  0  0  0  0  0
  190.6470  176.2730  140.5650 N   0  0  0  0  0  2  0  0  0  0  0  0
  190.6360  176.8360  141.9040 C   0  0  0  0  0  2  0  0  0  0  0  0
  190.5080  175.7260  142.9360 C   0  0  0  0  0  2  0  0  0  0  0  0
  191.5940  175.8270  143.9960 C   0  0  0  0  0  2  0  0  0  0  0  0
  191.4070  177.0780  144.8310 C   0  0  0  0  0  2  0  0  0  0  0  0
  190.9630  176.6880  146.2290 C   0  0  0  0  0  2  0  0  0  0  0  0
  188.1380  178.4560  148.1470 C   0  0  0  0  0  2  0  0  0  0  0  0
  189.4020  177.7070  147.8200 C   0  0  0  0  0  3  0  0  0  0  0  0
  188.6830  177.6070  145.4890 C   0  0  0  0  0  3  0  0  0  0  0  0
  186.9870  178.0050  147.2360 C   0  0  2  0  0  3  0  0  0  0  0  0
  189.6680  177.3450  146.5580 C   0  0  0  0  0  0  0  0  0  0  0  0
  187.4300  177.9570  145.7990 C   0  0  0  0  0  3  0  0  0  0  0  0
  185.8150  178.9170  147.3760 C   0  0  0  0  0  3  0  0  0  0  0  0
  184.7540  178.7230  146.6820 N   0  0  0  0  0  2  0  0  0  0  0  0
  1 14  1  6  0  0  0
  1  2  1  0  0  0  0
  1 19  1  0  0  0  0
  2  7  1  0  0  0  0
  3  2  2  0  0  0  0
  4  7  2  0  0  0  0
  4  5  1  0  0  0  0
  5  6  2  0  0  0  0
  6  8  1  0  0  0  0
  6 10  1  0  0  0  0
  7  9  1  0  0  0  0
  9  8  2  0  0  0  0
 10 12  1  0  0  0  0
 12 13  2  0  0  0  0
 12 11  1  0  0  0  0
 15 14  1  0  0  0  0
 16 15  1  0  0  0  0
 16 17  1  0  0  0  0
 17 18  1  0  0  0  0
 19 20  1  0  0  0  0
 20 21  1  0  0  0  0
 21 22  1  0  0  0  0
 22 23  1  0  0  0  0
 23 24  1  0  0  0  0
 24 25  1  0  0  0  0
 25 30  1  0  0  0  0
 27 26  1  0  0  0  0
 28 31  2  0  0  0  0
 28 30  1  0  0  0  0
 29 32  1  6  0  0  0
 29 26  1  0  0  0  0
 30 27  2  0  0  0  0
 31 29  1  0  0  0  0
 33 32  2  0  0  0  0
M  END
>  <MODEL>
8

>  <REMARK>
 VINA RESULT:      -7.1      2.570      6.425
  Name = 
  16 active torsions:
  status: ('A' for Active; 'I' for Inactive)
    1  A    between atoms: C_1  and  C_21
    2  A    between atoms: N_3  and  C_13
    3  A    between atoms: C_4  and  C_9
    4  A    between atoms: C_4  and  C_24
    5  A    between atoms: C_6  and  C_26
    6  A    between atoms: C_6  and  C_30
    7  A    between atoms: C_8  and  C_29
    8  A    between atoms: C_8  and  C_30
    9  A    between atoms: C_9  and  C_27
   10  A    between atoms: C_12  and  C_17
   11  A    between atoms: C_12  and  C_27
   12  A    between atoms: C_15  and  N_19
   13  A    between atoms: C_15  and  C_27
   14  A    between atoms: N_19  and  C_26
   15  A    between atoms: C_20  and  C_24
   16  A    between atoms: C_25  and  C_29
                            x       y       z     vdW  Elec       q    Type
                         _______ _______ _______ _____ _____    ______ ____

>  <TORSDO>
F 16

$$$$
=
 OpenBabel10232411173D

 33 34  0  0  1  0  0  0  0  0999 V2000
  189.6440  177.0840  140.6710 C   0  0  1  0  0  3  0  0  0  0  0  0
  188.7830  178.1750  141.2410 C   0  0  0  0  0  0  0  0  0  0  0  0
  189.2440  178.9240  142.1470 O   0  0  0  0  0  0  0  0  0  0  0  0
  187.1150  178.1900  139.3820 C   0  0  0  0  0  3  0  0  0  0  0  0
  185.8510  178.3880  138.9200 N   0  0  0  0  0  0  0  0  0  0  0  0
  184.8370  178.7820  139.7370 C   0  0  0  0  0  0  0  0  0  0  0  0
  187.4130  178.3900  140.7360 C   0  0  0  0  0  0  0  0  0  0  0  0
  185.0940  178.9960  141.0970 C   0  0  0  0  0  3  0  0  0  0  0  0
  186.3840  178.8000  141.5920 C   0  0  0  0  0  3  0  0  0  0  0  0
  183.5280  178.9670  139.1790 N   0  0  0  0  0  2  0  0  0  0  0  0
  181.5610  180.2040  138.2090 C   0  0  0  0  0  1  0  0  0  0  0  0
  182.9410  180.2040  138.7570 C   0  0  0  0  0  0  0  0  0  0  0  0
  183.5710  181.2920  138.8440 O   0  0  0  0  0  0  0  0  0  0  0  0
  190.1020  177.3930  139.2440 C   0  0  0  0  0  2  0  0  0  0  0  0
  191.1110  176.3810  138.7220 C   0  0  0  0  0  2  0  0  0  0  0  0
  190.9440  176.2280  137.2220 C   0  0  0  0  0  2  0  0  0  0  0  0
  191.1720  174.7850  136.8150 C   0  0  0  0  0  2  0  0  0  0  0  0
  190.5080  173.9310  137.6980 O   0  0  0  0  0  1  0  0  0  0  0  0
  190.7990  176.7340  141.6020 C   0  0  0  0  0  2  0  0  0  0  0  0
  190.2940  176.0830  142.7990 N   0  0  0  0  0  2  0  0  0  0  0  0
  191.4130  175.9780  143.7190 C   0  0  0  0  0  2  0  0  0  0  0  0
  191.5100  177.2340  144.5710 C   0  0  0  0  0  2  0  0  0  0  0  0
  191.5090  176.9000  146.0550 C   0  0  0  0  0  2  0  0  0  0  0  0
  190.1460  176.3960  146.4850 C   0  0  0  0  0  2  0  0  0  0  0  0
  189.4010  177.5080  147.2000 C   0  0  0  0  0  2  0  0  0  0  0  0
  186.5330  177.5620  144.6390 C   0  0  0  0  0  2  0  0  0  0  0  0
  187.8940  177.4300  145.2690 C   0  0  0  0  0  3  0  0  0  0  0  0
  186.9540  178.2710  147.3600 C   0  0  0  0  0  3  0  0  0  0  0  0
  185.7610  178.7390  145.2520 C   0  0  2  0  0  3  0  0  0  0  0  0
  188.0740  177.7300  146.5620 C   0  0  0  0  0  0  0  0  0  0  0  0
  185.8460  178.7110  146.7540 C   0  0  0  0  0  3  0  0  0  0  0  0
  184.3320  178.7130  144.8240 C   0  0  0  0  0  3  0  0  0  0  0  0
  183.4140  179.1610  145.5980 N   0  0  0  0  0  2  0  0  0  0  0  0
  1 14  1  6  0  0  0
  1  2  1  0  0  0  0
  1 19  1  0  0  0  0
  2  3  2  0  0  0  0
  4  7  2  0  0  0  0
  5  4  1  0  0  0  0
  5  6  2  0  0  0  0
  6  8  1  0  0  0  0
  7  2  1  0  0  0  0
  7  9  1  0  0  0  0
  8  9  2  0  0  0  0
 10  6  1  0  0  0  0
 11 12  1  0  0  0  0
 12 13  2  0  0  0  0
 12 10  1  0  0  0  0
 15 14  1  0  0  0  0
 16 15  1  0  0  0  0
 17 16  1  0  0  0  0
 17 18  1  0  0  0  0
 19 20  1  0  0  0  0
 20 21  1  0  0  0  0
 21 22  1  0  0  0  0
 22 23  1  0  0  0  0
 23 24  1  0  0  0  0
 24 25  1  0  0  0  0
 26 29  1  0  0  0  0
 26 27  1  0  0  0  0
 27 30  2  0  0  0  0
 29 32  1  1  0  0  0
 29 31  1  0  0  0  0
 30 25  1  0  0  0  0
 30 28  1  0  0  0  0
 31 28  2  0  0  0  0
 32 33  2  0  0  0  0
M  END
>  <MODEL>
9

>  <REMARK>
 VINA RESULT:      -7.1      2.468      5.215
  Name = 
  16 active torsions:
  status: ('A' for Active; 'I' for Inactive)
    1  A    between atoms: C_1  and  C_21
    2  A    between atoms: N_3  and  C_13
    3  A    between atoms: C_4  and  C_9
    4  A    between atoms: C_4  and  C_24
    5  A    between atoms: C_6  and  C_26
    6  A    between atoms: C_6  and  C_30
    7  A    between atoms: C_8  and  C_29
    8  A    between atoms: C_8  and  C_30
    9  A    between atoms: C_9  and  C_27
   10  A    between atoms: C_12  and  C_17
   11  A    between atoms: C_12  and  C_27
   12  A    between atoms: C_15  and  N_19
   13  A    between atoms: C_15  and  C_27
   14  A    between atoms: N_19  and  C_26
   15  A    between atoms: C_20  and  C_24
   16  A    between atoms: C_25  and  C_29
                            x       y       z     vdW  Elec       q    Type
                         _______ _______ _______ _____ _____    ______ ____

>  <TORSDO>
F 16

$$$$
