=
 OpenBabel10232409043D

 57 60  0  0  1  0  0  0  0  0999 V2000
  183.1820  178.4560  143.0490 C   0  0  0  0  0  2  0  0  0  0  0  0
  182.9580  179.2210  140.7250 C   0  0  2  0  0  3  0  0  0  0  0  0
  186.8480  178.1880  142.0990 O   0  0  0  0  0  0  0  0  0  0  0  0
  187.9400  178.9950  140.1810 C   0  0  0  0  0  2  0  0  0  0  0  0
  185.4710  179.0430  140.1300 C   0  0  1  0  0  3  0  0  0  0  0  0
  184.5260  178.7480  142.4220 C   0  0  1  0  0  3  0  0  0  0  0  0
  185.6750  177.8440  142.8460 C   0  0  2  0  0  3  0  0  0  0  0  0
  184.2820  178.5310  140.9580 C   0  0  1  0  0  3  0  0  0  0  0  0
  186.8020  178.7070  140.7940 C   0  0  0  0  0  0  0  0  0  0  0  0
  182.1770  178.9660  142.0200 C   0  0  0  0  0  2  0  0  0  0  0  0
  185.4370  178.9240  144.9590 O   0  0  0  0  0  0  0  0  0  0  0  0
  186.8240  177.0460  144.9600 N   0  0  0  0  0  2  0  0  0  0  0  0
  185.9560  177.9770  144.3080 C   0  0  0  0  0  0  0  0  0  0  0  0
  187.1070  177.1530  146.2800 O   0  0  0  0  0  0  0  0  0  0  0  0
  188.4820  176.9220  146.3720 C   0  0  0  0  0  2  0  0  0  0  0  0
  188.1580  178.3170  148.3830 C   0  0  0  0  0  1  0  0  0  0  0  0
  188.9660  177.1830  147.7890 C   0  0  2  0  0  3  0  0  0  0  0  0
  190.4390  177.5710  147.7990 C   0  0  0  0  0  2  0  0  0  0  0  0
  191.4350  175.4050  147.8620 O   0  0  0  0  0  0  0  0  0  0  0  0
  191.2920  176.4850  147.2280 C   0  0  0  0  0  0  0  0  0  0  0  0
  191.9480  176.6510  145.9690 N   0  0  0  0  0  2  0  0  0  0  0  0
  191.5680  177.3800  143.9440 C   0  0  0  0  0  1  0  0  0  0  0  0
  191.8370  177.7970  145.2550 O   0  0  0  0  0  0  0  0  0  0  0  0
  182.2930  178.6540  139.6310 O   0  0  0  0  0  0  0  0  0  0  0  0
  182.1520  179.6960  138.7040 C   0  0  2  0  0  3  0  0  0  0  0  0
  181.1680  181.6140  138.1800 C   0  0  0  0  0  1  0  0  0  0  0  0
  181.2020  180.6160  139.1590 O   0  0  0  0  0  0  0  0  0  0  0  0
  181.7530  179.1520  137.3370 C   0  0  0  0  0  2  0  0  0  0  0  0
  182.1020  177.6800  137.1950 C   0  0  0  0  0  1  0  0  0  0  0  0
  185.4060  178.6410  138.7730 O   0  0  0  0  0  0  0  0  0  0  0  0
  185.7880  177.2900  138.6760 C   0  0  0  0  0  2  0  0  0  0  0  0
  188.6070  176.3150  138.2900 F   0  0  0  0  0  0  0  0  0  0  0  0
  188.5570  177.0070  136.0020 C   0  0  2  0  0  3  0  0  0  0  0  0
  186.6880  175.4870  135.4240 O   0  0  0  0  0  0  0  0  0  0  0  0
  188.0110  177.2050  137.4110 C   0  0  1  0  0  3  0  0  0  0  0  0
  188.1000  175.6640  135.4020 C   0  0  2  0  0  3  0  0  0  0  0  0
  186.1440  175.6340  136.7320 C   0  0  2  0  0  3  0  0  0  0  0  0
  189.9500  177.1120  135.9910 O   0  0  0  0  0  1  0  0  0  0  0  0
  186.5020  176.9920  137.3580 C   0  0  1  0  0  3  0  0  0  0  0  0
  185.6100  173.5340  137.2180 C   0  0  0  0  0  1  0  0  0  0  0  0
  186.4960  174.5580  137.5570 O   0  0  0  0  0  0  0  0  0  0  0  0
  188.8630  174.4520  135.9420 C   0  0  0  0  0  2  0  0  0  0  0  0
  189.9940  174.1310  135.0880 N   0  0  0  0  0  2  0  0  0  0  0  0
  191.3750  173.8200  136.0910 S   0  0  0  0  0  0  0  0  0  0  0  0
  191.8980  172.4430  135.7950 O   0  0  0  0  0  0  0  0  0  0  0  0
  190.9880  173.8890  137.5420 O   0  0  0  0  0  0  0  0  0  0  0  0
  192.5990  175.0030  135.7700 N   0  0  0  0  0  2  0  0  0  0  0  0
  193.6130  174.8690  136.8040 C   0  0  0  0  0  2  0  0  0  0  0  0
  195.3980  175.1270  135.2350 O   0  0  0  0  0  1  0  0  0  0  0  0
  194.8900  174.2850  136.2250 C   0  0  1  0  0  3  0  0  0  0  0  0
  195.3780  173.7260  138.6960 C   0  0  1  0  0  3  0  0  0  0  0  0
  196.9950  175.0170  137.3670 O   0  0  0  0  0  1  0  0  0  0  0  0
  196.2370  172.7370  137.9080 C   0  0  2  0  0  3  0  0  0  0  0  0
  196.1420  174.2820  139.7240 O   0  0  0  0  0  1  0  0  0  0  0  0
  195.9310  174.1130  137.3310 C   0  0  2  0  0  0  0  0  0  0  0  0
  195.3460  171.6400  137.3450 C   0  0  0  0  0  2  0  0  0  0  0  0
  195.6860  170.4200  137.9280 O   0  0  0  0  0  1  0  0  0  0  0  0
  2 24  1  6  0  0  0
  2  8  1  0  0  0  0
  2 10  1  0  0  0  0
  3  7  1  0  0  0  0
  4  9  2  0  0  0  0
  5 30  1  6  0  0  0
  5  9  1  0  0  0  0
  5  8  1  0  0  0  0
  6  7  1  0  0  0  0
  6  1  1  1  0  0  0
  7 13  1  1  0  0  0
  8  6  1  0  0  0  0
  9  3  1  0  0  0  0
 10  1  1  0  0  0  0
 12 14  1  0  0  0  0
 13 11  2  0  0  0  0
 13 12  1  0  0  0  0
 14 15  1  0  0  0  0
 15 17  1  0  0  0  0
 17 18  1  0  0  0  0
 17 16  1  0  0  0  0
 20 18  1  0  0  0  0
 20 19  2  0  0  0  0
 21 20  1  0  0  0  0
 22 23  1  0  0  0  0
 23 21  1  0  0  0  0
 25 27  1  0  0  0  0
 25 24  1  0  0  0  0
 26 27  1  0  0  0  0
 28 25  1  0  0  0  0
 29 28  1  0  0  0  0
 31 30  1  0  0  0  0
 33 35  1  0  0  0  0
 34 37  1  0  0  0  0
 35 32  1  0  0  0  0
 36 34  1  0  0  0  0
 36 42  1  0  0  0  0
 36 33  1  0  0  0  0
 37 39  1  0  0  0  0
 37 41  1  0  0  0  0
 38 33  1  0  0  0  0
 39 35  1  0  0  0  0
 39 31  1  0  0  0  0
 40 41  1  0  0  0  0
 43 42  1  0  0  0  0
 43 44  1  0  0  0  0
 44 46  2  0  0  0  0
 45 44  2  0  0  0  0
 47 44  1  0  0  0  0
 47 48  1  0  0  0  0
 49 50  1  0  0  0  0
 50 48  1  0  0  0  0
 50 55  1  0  0  0  0
 51 54  1  0  0  0  0
 53 51  1  0  0  0  0
 55 52  1  0  0  0  0
 55 53  1  0  0  0  0
 55 51  1  0  0  0  0
 56 53  1  0  0  0  0
 56 57  1  0  0  0  0
M  END
>  <MODEL>
1

>  <REMARK>
 VINA RESULT:      -6.2      0.000      0.000
  Name = 
  23 active torsions:
  status: ('A' for Active; 'I' for Inactive)
    1  A    between atoms: C_1  and  C_10
    2  A    between atoms: C_2  and  C_35
    3  A    between atoms: N_3  and  C_9
    4  A    between atoms: N_3  and  S_25
    5  A    between atoms: C_7  and  O_38
    6  A    between atoms: C_9  and  C_45
    7  A    between atoms: C_10  and  O_18
    8  A    between atoms: C_10  and  O_38
    9  A    between atoms: C_13  and  O_22
   10  A    between atoms: C_13  and  C_52
   11  A    between atoms: N_15  and  C_16
   12  A    between atoms: N_15  and  S_25
   13  A    between atoms: C_16  and  C_57
   14  A    between atoms: O_22  and  C_29
   15  A    between atoms: N_27  and  O_42
   16  A    between atoms: C_28  and  C_37
   17  A    between atoms: C_33  and  C_43
   18  A    between atoms: N_40  and  O_55
   19  A    between atoms: O_42  and  C_49
   20  A    between atoms: C_43  and  C_51
   21  A    between atoms: C_46  and  O_50
   22  A    between atoms: C_49  and  C_51
   23  A    between atoms: C_54  and  C_57
                            x       y       z     vdW  Elec       q    Type
                         _______ _______ _______ _____ _____    ______ ____

>  <TORSDO>
F 23

$$$$
=
 OpenBabel10232409043D

 57 60  0  0  1  0  0  0  0  0999 V2000
  186.3220  178.9580  142.4840 C   0  0  0  0  0  2  0  0  0  0  0  0
  186.6390  178.0590  140.2200 C   0  0  2  0  0  3  0  0  0  0  0  0
  182.6520  178.4610  141.6470 O   0  0  0  0  0  0  0  0  0  0  0  0
  181.6930  177.3100  139.8360 C   0  0  0  0  0  2  0  0  0  0  0  0
  184.1260  177.7170  139.7020 C   0  0  1  0  0  3  0  0  0  0  0  0
  185.0450  178.3710  141.9300 C   0  0  1  0  0  3  0  0  0  0  0  0
  183.7550  179.0770  142.3240 C   0  0  2  0  0  3  0  0  0  0  0  0
  185.2130  178.5080  140.4460 C   0  0  1  0  0  3  0  0  0  0  0  0
  182.7690  177.8540  140.3850 C   0  0  0  0  0  0  0  0  0  0  0  0
  187.3840  178.5600  141.4640 C   0  0  0  0  0  2  0  0  0  0  0  0
  182.3590  179.0320  144.2560 O   0  0  0  0  0  0  0  0  0  0  0  0
  184.6510  178.9540  144.6910 N   0  0  0  0  0  2  0  0  0  0  0  0
  183.5340  179.0140  143.8000 C   0  0  0  0  0  0  0  0  0  0  0  0
  184.4790  178.9120  146.0350 O   0  0  0  0  0  0  0  0  0  0  0  0
  185.7370  179.2070  146.5660 C   0  0  0  0  0  2  0  0  0  0  0  0
  186.3710  176.8320  146.3440 C   0  0  0  0  0  1  0  0  0  0  0  0
  186.7810  178.2510  146.0120 C   0  0  2  0  0  3  0  0  0  0  0  0
  188.1480  178.5230  146.6230 C   0  0  0  0  0  2  0  0  0  0  0  0
  189.2470  176.4780  147.1680 O   0  0  0  0  0  0  0  0  0  0  0  0
  189.1060  177.4120  146.3340 C   0  0  0  0  0  0  0  0  0  0  0  0
  189.8620  177.3920  145.1220 N   0  0  0  0  0  2  0  0  0  0  0  0
  191.0670  178.8420  144.0160 C   0  0  0  0  0  1  0  0  0  0  0  0
  189.7570  178.3780  144.2000 O   0  0  0  0  0  0  0  0  0  0  0  0
  187.1630  178.6490  139.0630 O   0  0  0  0  0  0  0  0  0  0  0  0
  188.5560  178.5850  139.2170 C   0  0  2  0  0  3  0  0  0  0  0  0
  188.9590  178.9210  137.0610 C   0  0  0  0  0  1  0  0  0  0  0  0
  189.1750  179.4700  138.3290 O   0  0  0  0  0  0  0  0  0  0  0  0
  189.0590  177.1640  138.9880 C   0  0  0  0  0  2  0  0  0  0  0  0
  190.2890  176.8630  139.8290 C   0  0  0  0  0  1  0  0  0  0  0  0
  184.0860  178.0120  138.3170 O   0  0  0  0  0  0  0  0  0  0  0  0
  183.3890  176.9880  137.6500 C   0  0  0  0  0  2  0  0  0  0  0  0
  186.3370  176.6920  137.1290 F   0  0  0  0  0  0  0  0  0  0  0  0
  185.9560  176.8160  134.7720 C   0  0  2  0  0  3  0  0  0  0  0  0
  184.5370  174.7860  134.7390 O   0  0  0  0  0  0  0  0  0  0  0  0
  185.4670  177.1820  136.1680 C   0  0  1  0  0  3  0  0  0  0  0  0
  185.8440  175.3020  134.5120 C   0  0  2  0  0  3  0  0  0  0  0  0
  184.0570  175.0810  136.0470 C   0  0  2  0  0  3  0  0  0  0  0  0
  187.2640  177.2640  134.5720 O   0  0  0  0  0  1  0  0  0  0  0  0
  184.0720  176.5900  136.3420 C   0  0  1  0  0  3  0  0  0  0  0  0
  184.0050  173.1640  137.1670 C   0  0  0  0  0  1  0  0  0  0  0  0
  184.7400  174.3420  137.0220 O   0  0  0  0  0  0  0  0  0  0  0  0
  186.9400  174.4750  135.1870 C   0  0  0  0  0  2  0  0  0  0  0  0
  188.1270  174.4110  134.3520 N   0  0  0  0  0  2  0  0  0  0  0  0
  189.4220  173.7260  135.2810 S   0  0  0  0  0  0  0  0  0  0  0  0
  189.5980  172.2850  134.8920 O   0  0  0  0  0  0  0  0  0  0  0  0
  189.1010  173.7950  136.7480 O   0  0  0  0  0  0  0  0  0  0  0  0
  190.8810  174.6070  134.9740 N   0  0  0  0  0  2  0  0  0  0  0  0
  191.7250  174.4710  136.1500 C   0  0  0  0  0  2  0  0  0  0  0  0
  192.3740  176.5510  137.1340 O   0  0  0  0  0  1  0  0  0  0  0  0
  192.7540  175.5880  136.1990 C   0  0  1  0  0  3  0  0  0  0  0  0
  194.8430  174.2560  135.4790 C   0  0  1  0  0  3  0  0  0  0  0  0
  194.2620  174.4730  137.8580 O   0  0  0  0  0  1  0  0  0  0  0  0
  195.3990  175.5890  135.9800 C   0  0  2  0  0  3  0  0  0  0  0  0
  195.6060  173.2120  136.0060 O   0  0  0  0  0  1  0  0  0  0  0  0
  194.1200  175.0190  136.5810 C   0  0  2  0  0  0  0  0  0  0  0  0
  195.1410  176.6630  134.9340 C   0  0  0  0  0  2  0  0  0  0  0  0
  195.2800  177.9220  135.5180 O   0  0  0  0  0  1  0  0  0  0  0  0
  2 24  1  6  0  0  0
  2  8  1  0  0  0  0
  2 10  1  0  0  0  0
  3  7  1  0  0  0  0
  4  9  2  0  0  0  0
  5 30  1  6  0  0  0
  5  9  1  0  0  0  0
  5  8  1  0  0  0  0
  6  7  1  0  0  0  0
  6  1  1  1  0  0  0
  7 13  1  1  0  0  0
  8  6  1  0  0  0  0
  9  3  1  0  0  0  0
 10  1  1  0  0  0  0
 12 14  1  0  0  0  0
 13 11  2  0  0  0  0
 13 12  1  0  0  0  0
 14 15  1  0  0  0  0
 17 16  1  0  0  0  0
 17 15  1  0  0  0  0
 17 18  1  0  0  0  0
 20 18  1  0  0  0  0
 20 19  2  0  0  0  0
 21 20  1  0  0  0  0
 22 23  1  0  0  0  0
 23 21  1  0  0  0  0
 24 25  1  0  0  0  0
 26 27  1  0  0  0  0
 27 25  1  0  0  0  0
 28 25  1  0  0  0  0
 28 29  1  0  0  0  0
 31 30  1  0  0  0  0
 33 35  1  0  0  0  0
 34 37  1  0  0  0  0
 35 39  1  0  0  0  0
 35 32  1  0  0  0  0
 36 34  1  0  0  0  0
 36 33  1  0  0  0  0
 36 42  1  0  0  0  0
 37 39  1  0  0  0  0
 37 41  1  0  0  0  0
 38 33  1  0  0  0  0
 39 31  1  0  0  0  0
 41 40  1  0  0  0  0
 43 42  1  0  0  0  0
 43 44  1  0  0  0  0
 44 46  2  0  0  0  0
 45 44  2  0  0  0  0
 47 44  1  0  0  0  0
 47 48  1  0  0  0  0
 48 50  1  0  0  0  0
 50 55  1  0  0  0  0
 50 49  1  0  0  0  0
 51 53  1  0  0  0  0
 51 54  1  0  0  0  0
 51 55  1  0  0  0  0
 53 55  1  0  0  0  0
 55 52  1  0  0  0  0
 56 57  1  0  0  0  0
 56 53  1  0  0  0  0
M  END
>  <MODEL>
2

>  <REMARK>
 VINA RESULT:      -5.7      2.167      3.854
  Name = 
  23 active torsions:
  status: ('A' for Active; 'I' for Inactive)
    1  A    between atoms: C_1  and  C_10
    2  A    between atoms: C_2  and  C_35
    3  A    between atoms: N_3  and  C_9
    4  A    between atoms: N_3  and  S_25
    5  A    between atoms: C_7  and  O_38
    6  A    between atoms: C_9  and  C_45
    7  A    between atoms: C_10  and  O_18
    8  A    between atoms: C_10  and  O_38
    9  A    between atoms: C_13  and  O_22
   10  A    between atoms: C_13  and  C_52
   11  A    between atoms: N_15  and  C_16
   12  A    between atoms: N_15  and  S_25
   13  A    between atoms: C_16  and  C_57
   14  A    between atoms: O_22  and  C_29
   15  A    between atoms: N_27  and  O_42
   16  A    between atoms: C_28  and  C_37
   17  A    between atoms: C_33  and  C_43
   18  A    between atoms: N_40  and  O_55
   19  A    between atoms: O_42  and  C_49
   20  A    between atoms: C_43  and  C_51
   21  A    between atoms: C_46  and  O_50
   22  A    between atoms: C_49  and  C_51
   23  A    between atoms: C_54  and  C_57
                            x       y       z     vdW  Elec       q    Type
                         _______ _______ _______ _____ _____    ______ ____

>  <TORSDO>
F 23

$$$$
=
 OpenBabel10232409043D

 57 60  0  0  1  0  0  0  0  0999 V2000
  185.9380  178.1060  145.1190 C   0  0  0  0  0  2  0  0  0  0  0  0
  187.8130  177.2640  143.7740 C   0  0  2  0  0  3  0  0  0  0  0  0
  184.6880  179.3120  141.7430 O   0  0  0  0  0  0  0  0  0  0  0  0
  185.4870  178.7850  139.5970 C   0  0  0  0  0  2  0  0  0  0  0  0
  186.9100  178.0870  141.4920 C   0  0  1  0  0  3  0  0  0  0  0  0
  185.6380  178.1660  143.6390 C   0  0  1  0  0  3  0  0  0  0  0  0
  184.8020  179.3490  143.1710 C   0  0  2  0  0  3  0  0  0  0  0  0
  186.9970  178.2840  143.0130 C   0  0  1  0  0  3  0  0  0  0  0  0
  185.6810  178.7740  140.9080 C   0  0  0  0  0  0  0  0  0  0  0  0
  187.2490  177.3290  145.1980 C   0  0  0  0  0  2  0  0  0  0  0  0
  183.2870  179.6780  144.9830 O   0  0  0  0  0  0  0  0  0  0  0  0
  182.3160  178.8770  143.0170 N   0  0  0  0  0  2  0  0  0  0  0  0
  183.4390  179.3220  143.7830 C   0  0  0  0  0  0  0  0  0  0  0  0
  181.0730  178.8280  143.5520 O   0  0  0  0  0  0  0  0  0  0  0  0
  180.2520  178.3810  142.5130 C   0  0  0  0  0  2  0  0  0  0  0  0
  181.1600  179.3310  140.4230 C   0  0  0  0  0  1  0  0  0  0  0  0
  181.0850  178.0830  141.2760 C   0  0  2  0  0  3  0  0  0  0  0  0
  180.4590  176.9630  140.4560 C   0  0  0  0  0  2  0  0  0  0  0  0
  179.9830  178.2590  138.5110 O   0  0  0  0  0  0  0  0  0  0  0  0
  180.5540  177.2430  138.9900 C   0  0  0  0  0  0  0  0  0  0  0  0
  181.2890  176.3760  138.1240 N   0  0  0  0  0  2  0  0  0  0  0  0
  183.1880  175.3020  138.0140 C   0  0  0  0  0  1  0  0  0  0  0  0
  181.9100  175.2650  138.5870 O   0  0  0  0  0  0  0  0  0  0  0  0
  189.1690  177.6150  143.7670 O   0  0  0  0  0  0  0  0  0  0  0  0
  189.8330  176.5310  144.3590 C   0  0  2  0  0  3  0  0  0  0  0  0
  190.0070  176.7360  146.5610 C   0  0  0  0  0  1  0  0  0  0  0  0
  190.6890  176.9870  145.3660 O   0  0  0  0  0  0  0  0  0  0  0  0
  190.6150  175.7420  143.3140 C   0  0  0  0  0  2  0  0  0  0  0  0
  191.4380  176.6550  142.4200 C   0  0  0  0  0  1  0  0  0  0  0  0
  188.1120  178.4320  140.8260 O   0  0  0  0  0  0  0  0  0  0  0  0
  188.6890  177.2670  140.2870 C   0  0  0  0  0  2  0  0  0  0  0  0
  190.3130  175.3620  138.6180 F   0  0  0  0  0  0  0  0  0  0  0  0
  191.1240  177.1790  137.2930 C   0  0  2  0  0  3  0  0  0  0  0  0
  188.8640  177.8150  136.5050 O   0  0  0  0  0  0  0  0  0  0  0  0
  190.5690  176.7240  138.6380 C   0  0  1  0  0  3  0  0  0  0  0  0
  190.0560  177.1060  136.1860 C   0  0  2  0  0  3  0  0  0  0  0  0
  188.2970  177.3940  137.7410 C   0  0  2  0  0  3  0  0  0  0  0  0
  192.2560  176.4370  136.9470 O   0  0  0  0  0  1  0  0  0  0  0  0
  189.2940  177.5160  138.9060 C   0  0  1  0  0  3  0  0  0  0  0  0
  186.4040  176.3090  137.3250 C   0  0  0  0  0  1  0  0  0  0  0  0
  187.7480  176.1080  137.6430 O   0  0  0  0  0  0  0  0  0  0  0  0
  189.7900  175.6880  135.6740 C   0  0  0  0  0  2  0  0  0  0  0  0
  190.8800  175.2330  134.8270 N   0  0  0  0  0  2  0  0  0  0  0  0
  191.2880  173.6080  135.2750 S   0  0  0  0  0  0  0  0  0  0  0  0
  190.5940  172.6520  134.3460 O   0  0  0  0  0  0  0  0  0  0  0  0
  190.8360  173.3280  136.6820 O   0  0  0  0  0  0  0  0  0  0  0  0
  193.0040  173.3940  135.1750 N   0  0  0  0  0  2  0  0  0  0  0  0
  193.4640  172.9550  136.4820 C   0  0  0  0  0  2  0  0  0  0  0  0
  195.3600  174.3820  136.7720 O   0  0  0  0  0  1  0  0  0  0  0  0
  194.9770  173.0550  136.5760 C   0  0  1  0  0  3  0  0  0  0  0  0
  195.3420  170.6960  137.5570 C   0  0  1  0  0  3  0  0  0  0  0  0
  195.2330  172.6590  139.0350 O   0  0  0  0  0  1  0  0  0  0  0  0
  196.7290  171.3390  137.5910 C   0  0  2  0  0  3  0  0  0  0  0  0
  195.0990  170.0630  138.7780 O   0  0  0  0  0  1  0  0  0  0  0  0
  195.4820  172.2020  137.7400 C   0  0  2  0  0  0  0  0  0  0  0  0
  197.3040  171.3570  136.1830 C   0  0  0  0  0  2  0  0  0  0  0  0
  198.6750  171.1060  136.2390 O   0  0  0  0  0  1  0  0  0  0  0  0
  1 10  1  0  0  0  0
  2 24  1  1  0  0  0
  2 10  1  0  0  0  0
  3  7  1  0  0  0  0
  4  9  2  0  0  0  0
  5 30  1  6  0  0  0
  5  8  1  0  0  0  0
  6  1  1  1  0  0  0
  7  6  1  0  0  0  0
  7 13  1  1  0  0  0
  8  6  1  0  0  0  0
  8  2  1  0  0  0  0
  9  5  1  0  0  0  0
  9  3  1  0  0  0  0
 12 14  1  0  0  0  0
 12 13  1  0  0  0  0
 13 11  2  0  0  0  0
 15 14  1  0  0  0  0
 16 17  1  0  0  0  0
 17 15  1  0  0  0  0
 18 17  1  0  0  0  0
 19 20  2  0  0  0  0
 20 18  1  0  0  0  0
 21 23  1  0  0  0  0
 21 20  1  0  0  0  0
 22 23  1  0  0  0  0
 24 25  1  0  0  0  0
 25 27  1  0  0  0  0
 27 26  1  0  0  0  0
 28 25  1  0  0  0  0
 29 28  1  0  0  0  0
 31 30  1  0  0  0  0
 32 35  1  0  0  0  0
 33 35  1  0  0  0  0
 34 37  1  0  0  0  0
 35 39  1  0  0  0  0
 36 34  1  0  0  0  0
 36 33  1  0  0  0  0
 37 39  1  0  0  0  0
 38 33  1  0  0  0  0
 39 31  1  0  0  0  0
 40 41  1  0  0  0  0
 41 37  1  0  0  0  0
 42 36  1  0  0  0  0
 43 44  1  0  0  0  0
 43 42  1  0  0  0  0
 44 46  2  0  0  0  0
 45 44  2  0  0  0  0
 47 44  1  0  0  0  0
 47 48  1  0  0  0  0
 48 50  1  0  0  0  0
 50 49  1  0  0  0  0
 50 55  1  0  0  0  0
 51 53  1  0  0  0  0
 51 55  1  0  0  0  0
 51 54  1  0  0  0  0
 53 55  1  0  0  0  0
 55 52  1  0  0  0  0
 56 57  1  0  0  0  0
 56 53  1  0  0  0  0
M  END
>  <MODEL>
3

>  <REMARK>
 VINA RESULT:      -5.4      2.389      6.518
  Name = 
  23 active torsions:
  status: ('A' for Active; 'I' for Inactive)
    1  A    between atoms: C_1  and  C_10
    2  A    between atoms: C_2  and  C_35
    3  A    between atoms: N_3  and  C_9
    4  A    between atoms: N_3  and  S_25
    5  A    between atoms: C_7  and  O_38
    6  A    between atoms: C_9  and  C_45
    7  A    between atoms: C_10  and  O_18
    8  A    between atoms: C_10  and  O_38
    9  A    between atoms: C_13  and  O_22
   10  A    between atoms: C_13  and  C_52
   11  A    between atoms: N_15  and  C_16
   12  A    between atoms: N_15  and  S_25
   13  A    between atoms: C_16  and  C_57
   14  A    between atoms: O_22  and  C_29
   15  A    between atoms: N_27  and  O_42
   16  A    between atoms: C_28  and  C_37
   17  A    between atoms: C_33  and  C_43
   18  A    between atoms: N_40  and  O_55
   19  A    between atoms: O_42  and  C_49
   20  A    between atoms: C_43  and  C_51
   21  A    between atoms: C_46  and  O_50
   22  A    between atoms: C_49  and  C_51
   23  A    between atoms: C_54  and  C_57
                            x       y       z     vdW  Elec       q    Type
                         _______ _______ _______ _____ _____    ______ ____

>  <TORSDO>
F 23

$$$$
=
 OpenBabel10232409043D

 57 60  0  0  1  0  0  0  0  0999 V2000
  192.9130  176.7180  139.2890 C   0  0  0  0  0  2  0  0  0  0  0  0
  190.5640  177.4260  139.4100 C   0  0  2  0  0  3  0  0  0  0  0  0
  191.9980  175.9660  135.6820 O   0  0  0  0  0  0  0  0  0  0  0  0
  190.0620  176.5670  134.4930 C   0  0  0  0  0  2  0  0  0  0  0  0
  189.9930  176.9190  136.9370 C   0  0  1  0  0  3  0  0  0  0  0  0
  192.2870  176.8200  137.9180 C   0  0  1  0  0  3  0  0  0  0  0  0
  192.7480  175.7960  136.8910 C   0  0  2  0  0  3  0  0  0  0  0  0
  190.8290  176.5850  138.1820 C   0  0  1  0  0  3  0  0  0  0  0  0
  190.6770  176.4430  135.6600 C   0  0  0  0  0  0  0  0  0  0  0  0
  191.8620  177.3140  140.2200 C   0  0  0  0  0  2  0  0  0  0  0  0
  194.6060  176.8980  135.8810 O   0  0  0  0  0  0  0  0  0  0  0  0
  195.1410  174.9920  137.1180 N   0  0  0  0  0  2  0  0  0  0  0  0
  194.2070  175.9420  136.5990 C   0  0  0  0  0  0  0  0  0  0  0  0
  196.4670  175.0920  136.8560 O   0  0  0  0  0  0  0  0  0  0  0  0
  197.0800  174.2400  137.7780 C   0  0  0  0  0  2  0  0  0  0  0  0
  198.3560  173.7970  135.7120 C   0  0  0  0  0  1  0  0  0  0  0  0
  197.9560  173.2280  137.0560 C   0  0  2  0  0  3  0  0  0  0  0  0
  197.2090  171.9200  136.8350 C   0  0  0  0  0  2  0  0  0  0  0  0
  199.2470  170.8480  137.4540 O   0  0  0  0  0  0  0  0  0  0  0  0
  197.9960  170.7510  137.3320 C   0  0  0  0  0  0  0  0  0  0  0  0
  197.3500  169.5240  137.6760 N   0  0  0  0  0  2  0  0  0  0  0  0
  195.8540  168.4170  136.5310 C   0  0  0  0  0  1  0  0  0  0  0  0
  196.0110  169.3650  137.5510 O   0  0  0  0  0  0  0  0  0  0  0  0
  189.4850  176.9090  140.1380 O   0  0  0  0  0  0  0  0  0  0  0  0
  189.7810  177.1840  141.4810 C   0  0  2  0  0  3  0  0  0  0  0  0
  190.6080  176.0890  143.2240 C   0  0  0  0  0  1  0  0  0  0  0  0
  189.6010  176.0340  142.2550 O   0  0  0  0  0  0  0  0  0  0  0  0
  188.9090  178.3190  142.0040 C   0  0  0  0  0  2  0  0  0  0  0  0
  187.6260  178.4570  141.2010 C   0  0  0  0  0  1  0  0  0  0  0  0
  188.6490  176.4820  137.0480 O   0  0  0  0  0  0  0  0  0  0  0  0
  188.6300  175.0790  137.1500 C   0  0  0  0  0  2  0  0  0  0  0  0
  186.5810  172.9480  137.7080 F   0  0  0  0  0  0  0  0  0  0  0  0
  186.4030  172.4770  135.3700 C   0  0  2  0  0  3  0  0  0  0  0  0
  185.6180  174.7590  134.8130 O   0  0  0  0  0  0  0  0  0  0  0  0
  187.2680  173.0100  136.5060 C   0  0  1  0  0  3  0  0  0  0  0  0
  185.2200  173.4160  135.0700 C   0  0  2  0  0  3  0  0  0  0  0  0
  186.4030  175.3040  135.8680 C   0  0  2  0  0  3  0  0  0  0  0  0
  185.9560  171.1830  135.6530 O   0  0  0  0  0  1  0  0  0  0  0  0
  187.6460  174.4480  136.1660 C   0  0  1  0  0  3  0  0  0  0  0  0
  185.0930  176.8120  136.8370 C   0  0  0  0  0  1  0  0  0  0  0  0
  185.6320  175.5370  137.0140 O   0  0  0  0  0  0  0  0  0  0  0  0
  184.0760  173.3150  136.0820 C   0  0  0  0  0  2  0  0  0  0  0  0
  182.9050  174.0340  135.6090 N   0  0  0  0  0  2  0  0  0  0  0  0
  181.6950  174.0000  136.8520 S   0  0  0  0  0  0  0  0  0  0  0  0
  181.4670  172.5760  137.2770 O   0  0  0  0  0  0  0  0  0  0  0  0
  180.4010  174.5630  136.3330 O   0  0  0  0  0  0  0  0  0  0  0  0
  182.2280  174.9450  138.2020 N   0  0  0  0  0  2  0  0  0  0  0  0
  181.6300  176.2640  138.0710 C   0  0  0  0  0  2  0  0  0  0  0  0
  182.9570  176.7040  140.0100 O   0  0  0  0  0  1  0  0  0  0  0  0
  181.7650  177.0410  139.3700 C   0  0  1  0  0  3  0  0  0  0  0  0
  180.3760  179.1410  138.8030 C   0  0  1  0  0  3  0  0  0  0  0  0
  182.7810  179.0630  138.2990 O   0  0  0  0  0  1  0  0  0  0  0  0
  181.1370  179.5220  140.0740 C   0  0  2  0  0  3  0  0  0  0  0  0
  180.4610  180.1890  137.8850 O   0  0  0  0  0  1  0  0  0  0  0  0
  181.7490  178.5420  139.0800 C   0  0  2  0  0  0  0  0  0  0  0  0
  180.4900  178.8370  141.2680 C   0  0  0  0  0  2  0  0  0  0  0  0
  181.3440  178.9170  142.3680 O   0  0  0  0  0  1  0  0  0  0  0  0
  1 10  1  0  0  0  0
  2 24  1  1  0  0  0
  2 10  1  0  0  0  0
  3  7  1  0  0  0  0
  4  9  2  0  0  0  0
  5 30  1  1  0  0  0
  5  8  1  0  0  0  0
  6  8  1  0  0  0  0
  6  1  1  1  0  0  0
  7 13  1  6  0  0  0
  7  6  1  0  0  0  0
  8  2  1  0  0  0  0
  9  3  1  0  0  0  0
  9  5  1  0  0  0  0
 11 13  2  0  0  0  0
 13 12  1  0  0  0  0
 14 12  1  0  0  0  0
 14 15  1  0  0  0  0
 16 17  1  0  0  0  0
 17 15  1  0  0  0  0
 18 17  1  0  0  0  0
 18 20  1  0  0  0  0
 20 19  2  0  0  0  0
 20 21  1  0  0  0  0
 22 23  1  0  0  0  0
 23 21  1  0  0  0  0
 24 25  1  0  0  0  0
 25 28  1  0  0  0  0
 25 27  1  0  0  0  0
 27 26  1  0  0  0  0
 29 28  1  0  0  0  0
 30 31  1  0  0  0  0
 33 38  1  0  0  0  0
 33 35  1  0  0  0  0
 34 36  1  0  0  0  0
 34 37  1  0  0  0  0
 35 32  1  0  0  0  0
 36 33  1  0  0  0  0
 36 42  1  0  0  0  0
 37 39  1  0  0  0  0
 37 41  1  0  0  0  0
 39 35  1  0  0  0  0
 39 31  1  0  0  0  0
 40 41  1  0  0  0  0
 43 42  1  0  0  0  0
 43 44  1  0  0  0  0
 44 45  2  0  0  0  0
 44 47  1  0  0  0  0
 46 44  2  0  0  0  0
 48 47  1  0  0  0  0
 48 50  1  0  0  0  0
 50 49  1  0  0  0  0
 51 55  1  0  0  0  0
 51 53  1  0  0  0  0
 52 55  1  0  0  0  0
 53 56  1  0  0  0  0
 54 51  1  0  0  0  0
 55 50  1  0  0  0  0
 55 53  1  0  0  0  0
 56 57  1  0  0  0  0
M  END
>  <MODEL>
4

>  <REMARK>
 VINA RESULT:      -5.4      3.555     10.705
  Name = 
  23 active torsions:
  status: ('A' for Active; 'I' for Inactive)
    1  A    between atoms: C_1  and  C_10
    2  A    between atoms: C_2  and  C_35
    3  A    between atoms: N_3  and  C_9
    4  A    between atoms: N_3  and  S_25
    5  A    between atoms: C_7  and  O_38
    6  A    between atoms: C_9  and  C_45
    7  A    between atoms: C_10  and  O_18
    8  A    between atoms: C_10  and  O_38
    9  A    between atoms: C_13  and  O_22
   10  A    between atoms: C_13  and  C_52
   11  A    between atoms: N_15  and  C_16
   12  A    between atoms: N_15  and  S_25
   13  A    between atoms: C_16  and  C_57
   14  A    between atoms: O_22  and  C_29
   15  A    between atoms: N_27  and  O_42
   16  A    between atoms: C_28  and  C_37
   17  A    between atoms: C_33  and  C_43
   18  A    between atoms: N_40  and  O_55
   19  A    between atoms: O_42  and  C_49
   20  A    between atoms: C_43  and  C_51
   21  A    between atoms: C_46  and  O_50
   22  A    between atoms: C_49  and  C_51
   23  A    between atoms: C_54  and  C_57
                            x       y       z     vdW  Elec       q    Type
                         _______ _______ _______ _____ _____    ______ ____

>  <TORSDO>
F 23

$$$$
=
 OpenBabel10232409043D

 57 60  0  0  1  0  0  0  0  0999 V2000
  184.7310  178.5430  145.7550 C   0  0  0  0  0  2  0  0  0  0  0  0
  186.9590  177.7120  145.1360 C   0  0  2  0  0  3  0  0  0  0  0  0
  184.4360  179.1160  142.0130 O   0  0  0  0  0  0  0  0  0  0  0  0
  185.8460  178.3690  140.2880 C   0  0  0  0  0  2  0  0  0  0  0  0
  186.7030  178.1000  142.5890 C   0  0  1  0  0  3  0  0  0  0  0  0
  184.8660  178.3580  144.2610 C   0  0  1  0  0  3  0  0  0  0  0  0
  184.1330  179.3690  143.3910 C   0  0  2  0  0  3  0  0  0  0  0  0
  186.3380  178.5220  144.0210 C   0  0  1  0  0  3  0  0  0  0  0  0
  185.6560  178.5670  141.5840 C   0  0  0  0  0  0  0  0  0  0  0  0
  186.0060  177.9240  146.3190 C   0  0  0  0  0  2  0  0  0  0  0  0
  182.1720  179.5620  144.7330 O   0  0  0  0  0  0  0  0  0  0  0  0
  181.7970  178.8970  142.5270 N   0  0  0  0  0  2  0  0  0  0  0  0
  182.6550  179.2920  143.6010 C   0  0  0  0  0  0  0  0  0  0  0  0
  180.4560  178.8040  142.6950 O   0  0  0  0  0  0  0  0  0  0  0  0
  179.9840  178.2440  141.5060 C   0  0  0  0  0  2  0  0  0  0  0  0
  180.2540  179.7460  139.5650 C   0  0  0  0  0  1  0  0  0  0  0  0
  180.8950  178.6200  140.3480 C   0  0  2  0  0  3  0  0  0  0  0  0
  181.1110  177.4350  139.4180 C   0  0  0  0  0  2  0  0  0  0  0  0
  182.4830  178.9280  138.1630 O   0  0  0  0  0  0  0  0  0  0  0  0
  181.8500  177.8380  138.1830 C   0  0  0  0  0  0  0  0  0  0  0  0
  181.8540  177.0030  137.0230 N   0  0  0  0  0  2  0  0  0  0  0  0
  182.0840  174.8800  137.4850 C   0  0  0  0  0  1  0  0  0  0  0  0
  181.1800  175.8290  136.9900 O   0  0  0  0  0  0  0  0  0  0  0  0
  188.2370  178.1950  145.4420 O   0  0  0  0  0  0  0  0  0  0  0  0
  188.9370  177.0900  145.9470 C   0  0  2  0  0  3  0  0  0  0  0  0
  188.8060  177.6730  148.0840 C   0  0  0  0  0  1  0  0  0  0  0  0
  189.7170  177.4760  147.0410 O   0  0  0  0  0  0  0  0  0  0  0  0
  189.8110  176.4650  144.8650 C   0  0  0  0  0  2  0  0  0  0  0  0
  191.2840  176.7630  145.0910 C   0  0  0  0  0  1  0  0  0  0  0  0
  188.0240  178.4660  142.2310 O   0  0  0  0  0  0  0  0  0  0  0  0
  188.6910  177.3370  141.7200 C   0  0  0  0  0  2  0  0  0  0  0  0
  191.1510  175.7360  141.0620 F   0  0  0  0  0  0  0  0  0  0  0  0
  192.2380  177.7020  140.2420 C   0  0  2  0  0  3  0  0  0  0  0  0
  190.5560  178.0760  138.4630 O   0  0  0  0  0  0  0  0  0  0  0  0
  191.1810  177.1170  141.1720 C   0  0  1  0  0  3  0  0  0  0  0  0
  191.8410  177.5420  138.7630 C   0  0  2  0  0  3  0  0  0  0  0  0
  189.5350  177.5290  139.2910 C   0  0  2  0  0  3  0  0  0  0  0  0
  193.4880  177.1280  140.4910 O   0  0  0  0  0  1  0  0  0  0  0  0
  189.8360  177.7250  140.7860 C   0  0  1  0  0  3  0  0  0  0  0  0
  188.2300  176.2300  138.0500 C   0  0  0  0  0  1  0  0  0  0  0  0
  189.2780  176.1890  138.9720 O   0  0  0  0  0  0  0  0  0  0  0  0
  192.0430  176.1270  138.2160 C   0  0  0  0  0  2  0  0  0  0  0  0
  192.1450  176.1440  136.7660 N   0  0  0  0  0  2  0  0  0  0  0  0
  192.1060  174.5080  136.1890 S   0  0  0  0  0  0  0  0  0  0  0  0
  191.7410  174.5090  134.7310 O   0  0  0  0  0  0  0  0  0  0  0  0
  191.0750  173.7160  136.9440 O   0  0  0  0  0  0  0  0  0  0  0  0
  193.6620  173.7800  136.4120 N   0  0  0  0  0  2  0  0  0  0  0  0
  194.5970  174.8470  136.7360 C   0  0  0  0  0  2  0  0  0  0  0  0
  195.4680  176.2080  134.9750 O   0  0  0  0  0  1  0  0  0  0  0  0
  195.6380  174.9930  135.6400 C   0  0  1  0  0  3  0  0  0  0  0  0
  197.2580  173.8500  137.2900 C   0  0  1  0  0  3  0  0  0  0  0  0
  197.6790  176.1460  136.5180 O   0  0  0  0  0  1  0  0  0  0  0  0
  197.9740  173.7700  135.9410 C   0  0  2  0  0  3  0  0  0  0  0  0
  198.1640  174.2680  138.2670 O   0  0  0  0  0  1  0  0  0  0  0  0
  197.0400  174.9360  136.2440 C   0  0  2  0  0  0  0  0  0  0  0  0
  197.3230  172.6880  135.0940 C   0  0  0  0  0  2  0  0  0  0  0  0
  198.2620  171.6980  134.8040 O   0  0  0  0  0  1  0  0  0  0  0  0
  1 10  1  0  0  0  0
  2 24  1  1  0  0  0
  2 10  1  0  0  0  0
  3  7  1  0  0  0  0
  4  9  2  0  0  0  0
  5 30  1  6  0  0  0
  5  8  1  0  0  0  0
  6  1  1  1  0  0  0
  7 13  1  6  0  0  0
  7  6  1  0  0  0  0
  8  6  1  0  0  0  0
  8  2  1  0  0  0  0
  9  3  1  0  0  0  0
  9  5  1  0  0  0  0
 12 14  1  0  0  0  0
 12 13  1  0  0  0  0
 13 11  2  0  0  0  0
 15 14  1  0  0  0  0
 16 17  1  0  0  0  0
 17 15  1  0  0  0  0
 18 17  1  0  0  0  0
 19 20  2  0  0  0  0
 20 18  1  0  0  0  0
 21 20  1  0  0  0  0
 23 21  1  0  0  0  0
 23 22  1  0  0  0  0
 24 25  1  0  0  0  0
 25 27  1  0  0  0  0
 27 26  1  0  0  0  0
 28 29  1  0  0  0  0
 28 25  1  0  0  0  0
 31 30  1  0  0  0  0
 32 35  1  0  0  0  0
 33 38  1  0  0  0  0
 33 35  1  0  0  0  0
 34 36  1  0  0  0  0
 34 37  1  0  0  0  0
 36 33  1  0  0  0  0
 37 39  1  0  0  0  0
 39 35  1  0  0  0  0
 39 31  1  0  0  0  0
 40 41  1  0  0  0  0
 41 37  1  0  0  0  0
 42 36  1  0  0  0  0
 43 42  1  0  0  0  0
 44 47  1  0  0  0  0
 44 43  1  0  0  0  0
 44 46  2  0  0  0  0
 45 44  2  0  0  0  0
 47 48  1  0  0  0  0
 49 50  1  0  0  0  0
 50 55  1  0  0  0  0
 50 48  1  0  0  0  0
 51 54  1  0  0  0  0
 53 55  1  0  0  0  0
 53 51  1  0  0  0  0
 55 52  1  0  0  0  0
 55 51  1  0  0  0  0
 56 53  1  0  0  0  0
 57 56  1  0  0  0  0
M  END
>  <MODEL>
5

>  <REMARK>
 VINA RESULT:      -5.1      2.635      6.965
  Name = 
  23 active torsions:
  status: ('A' for Active; 'I' for Inactive)
    1  A    between atoms: C_1  and  C_10
    2  A    between atoms: C_2  and  C_35
    3  A    between atoms: N_3  and  C_9
    4  A    between atoms: N_3  and  S_25
    5  A    between atoms: C_7  and  O_38
    6  A    between atoms: C_9  and  C_45
    7  A    between atoms: C_10  and  O_18
    8  A    between atoms: C_10  and  O_38
    9  A    between atoms: C_13  and  O_22
   10  A    between atoms: C_13  and  C_52
   11  A    between atoms: N_15  and  C_16
   12  A    between atoms: N_15  and  S_25
   13  A    between atoms: C_16  and  C_57
   14  A    between atoms: O_22  and  C_29
   15  A    between atoms: N_27  and  O_42
   16  A    between atoms: C_28  and  C_37
   17  A    between atoms: C_33  and  C_43
   18  A    between atoms: N_40  and  O_55
   19  A    between atoms: O_42  and  C_49
   20  A    between atoms: C_43  and  C_51
   21  A    between atoms: C_46  and  O_50
   22  A    between atoms: C_49  and  C_51
   23  A    between atoms: C_54  and  C_57
                            x       y       z     vdW  Elec       q    Type
                         _______ _______ _______ _____ _____    ______ ____

>  <TORSDO>
F 23

$$$$
=
 OpenBabel10232409043D

 57 60  0  0  1  0  0  0  0  0999 V2000
  188.3170  177.7120  143.5420 C   0  0  0  0  0  2  0  0  0  0  0  0
  188.2750  177.3500  141.1130 C   0  0  2  0  0  3  0  0  0  0  0  0
  184.8490  179.1190  142.9070 O   0  0  0  0  0  0  0  0  0  0  0  0
  183.5380  178.9960  140.9600 C   0  0  0  0  0  2  0  0  0  0  0  0
  185.8970  178.2990  140.7310 C   0  0  1  0  0  3  0  0  0  0  0  0
  186.9330  177.9090  142.9700 C   0  0  1  0  0  3  0  0  0  0  0  0
  186.0860  178.9940  143.6190 C   0  0  2  0  0  3  0  0  0  0  0  0
  187.1970  178.3150  141.5500 C   0  0  1  0  0  3  0  0  0  0  0  0
  184.7240  178.8520  141.5330 C   0  0  0  0  0  0  0  0  0  0  0  0
  189.1220  177.1470  142.3750 C   0  0  0  0  0  2  0  0  0  0  0  0
  184.6340  178.3970  145.4140 O   0  0  0  0  0  0  0  0  0  0  0  0
  186.8680  178.7120  146.0130 N   0  0  0  0  0  2  0  0  0  0  0  0
  185.8090  178.6780  145.0530 C   0  0  0  0  0  0  0  0  0  0  0  0
  186.6420  178.4440  147.3220 O   0  0  0  0  0  0  0  0  0  0  0  0
  187.1260  177.1480  147.5120 C   0  0  0  0  0  2  0  0  0  0  0  0
  188.9910  178.6320  148.1550 C   0  0  0  0  0  1  0  0  0  0  0  0
  188.5820  177.1890  147.9500 C   0  0  2  0  0  3  0  0  0  0  0  0
  189.4860  176.5660  146.8960 C   0  0  0  0  0  2  0  0  0  0  0  0
  191.3720  176.8750  148.3230 O   0  0  0  0  0  0  0  0  0  0  0  0
  190.9230  176.8960  147.1450 C   0  0  0  0  0  0  0  0  0  0  0  0
  191.7970  177.2320  146.0660 N   0  0  0  0  0  2  0  0  0  0  0  0
  191.8340  176.1000  144.1970 C   0  0  0  0  0  1  0  0  0  0  0  0
  191.3600  177.2810  144.7850 O   0  0  0  0  0  0  0  0  0  0  0  0
  189.0490  177.9080  140.0870 O   0  0  0  0  0  0  0  0  0  0  0  0
  190.1920  177.0990  140.0070 C   0  0  2  0  0  3  0  0  0  0  0  0
  192.3810  177.4600  139.9730 C   0  0  0  0  0  1  0  0  0  0  0  0
  191.2340  177.6700  140.7450 O   0  0  0  0  0  0  0  0  0  0  0  0
  190.6140  176.9040  138.5550 C   0  0  0  0  0  2  0  0  0  0  0  0
  190.4350  175.4630  138.1070 C   0  0  0  0  0  1  0  0  0  0  0  0
  186.0430  178.9080  139.4610 O   0  0  0  0  0  0  0  0  0  0  0  0
  185.1020  178.3520  138.5740 C   0  0  0  0  0  2  0  0  0  0  0  0
  187.1680  176.3220  137.7630 F   0  0  0  0  0  0  0  0  0  0  0  0
  187.6160  177.5470  135.7590 C   0  0  2  0  0  3  0  0  0  0  0  0
  185.3060  177.2920  134.9040 O   0  0  0  0  0  0  0  0  0  0  0  0
  187.1200  177.5870  137.1990 C   0  0  1  0  0  3  0  0  0  0  0  0
  186.6360  176.7890  134.8440 C   0  0  2  0  0  3  0  0  0  0  0  0
  184.7950  177.3160  136.2330 C   0  0  2  0  0  3  0  0  0  0  0  0
  188.8970  176.9900  135.6910 O   0  0  0  0  0  1  0  0  0  0  0  0
  185.6930  178.1240  137.1840 C   0  0  1  0  0  3  0  0  0  0  0  0
  183.1610  175.8640  136.6220 C   0  0  0  0  0  1  0  0  0  0  0  0
  184.5450  176.0220  136.7100 O   0  0  0  0  0  0  0  0  0  0  0  0
  186.7070  175.2670  134.9840 C   0  0  0  0  0  2  0  0  0  0  0  0
  187.9910  174.7650  134.5220 N   0  0  0  0  0  2  0  0  0  0  0  0
  188.2390  173.1830  135.1870 S   0  0  0  0  0  0  0  0  0  0  0  0
  187.8840  173.2020  136.6480 O   0  0  0  0  0  0  0  0  0  0  0  0
  189.6810  172.7810  135.0460 O   0  0  0  0  0  0  0  0  0  0  0  0
  187.2430  172.0420  134.3480 N   0  0  0  0  0  2  0  0  0  0  0  0
  185.8680  172.2800  134.7600 C   0  0  0  0  0  2  0  0  0  0  0  0
  185.9420  170.0020  135.4800 O   0  0  0  0  0  1  0  0  0  0  0  0
  185.1180  170.9660  134.8980 C   0  0  1  0  0  3  0  0  0  0  0  0
  182.6610  171.7370  135.0480 C   0  0  1  0  0  3  0  0  0  0  0  0
  184.0620  171.6410  137.0660 O   0  0  0  0  0  1  0  0  0  0  0  0
  182.6390  170.3000  135.5690 C   0  0  2  0  0  3  0  0  0  0  0  0
  181.9070  172.5470  135.9000 O   0  0  0  0  0  1  0  0  0  0  0  0
  183.8760  171.1660  135.7660 C   0  0  2  0  0  0  0  0  0  0  0  0
  182.7610  169.3410  134.3950 C   0  0  0  0  0  2  0  0  0  0  0  0
  183.0640  168.0640  134.8690 O   0  0  0  0  0  1  0  0  0  0  0  0
  2 24  1  6  0  0  0
  2  8  1  0  0  0  0
  2 10  1  0  0  0  0
  3  7  1  0  0  0  0
  4  9  2  0  0  0  0
  5 30  1  6  0  0  0
  5  9  1  0  0  0  0
  5  8  1  0  0  0  0
  6  1  1  1  0  0  0
  6  7  1  0  0  0  0
  7 13  1  1  0  0  0
  8  6  1  0  0  0  0
  9  3  1  0  0  0  0
 10  1  1  0  0  0  0
 12 14  1  0  0  0  0
 13 11  2  0  0  0  0
 13 12  1  0  0  0  0
 14 15  1  0  0  0  0
 15 17  1  0  0  0  0
 17 16  1  0  0  0  0
 18 20  1  0  0  0  0
 18 17  1  0  0  0  0
 20 19  2  0  0  0  0
 21 20  1  0  0  0  0
 22 23  1  0  0  0  0
 23 21  1  0  0  0  0
 25 24  1  0  0  0  0
 25 27  1  0  0  0  0
 26 27  1  0  0  0  0
 28 25  1  0  0  0  0
 29 28  1  0  0  0  0
 31 30  1  0  0  0  0
 33 35  1  0  0  0  0
 34 37  1  0  0  0  0
 35 32  1  0  0  0  0
 36 34  1  0  0  0  0
 36 42  1  0  0  0  0
 36 33  1  0  0  0  0
 37 41  1  0  0  0  0
 37 39  1  0  0  0  0
 38 33  1  0  0  0  0
 39 35  1  0  0  0  0
 39 31  1  0  0  0  0
 40 41  1  0  0  0  0
 43 42  1  0  0  0  0
 43 44  1  0  0  0  0
 44 45  2  0  0  0  0
 46 44  2  0  0  0  0
 47 48  1  0  0  0  0
 47 44  1  0  0  0  0
 48 50  1  0  0  0  0
 50 49  1  0  0  0  0
 50 55  1  0  0  0  0
 51 53  1  0  0  0  0
 51 55  1  0  0  0  0
 51 54  1  0  0  0  0
 53 55  1  0  0  0  0
 55 52  1  0  0  0  0
 56 57  1  0  0  0  0
 56 53  1  0  0  0  0
M  END
>  <MODEL>
6

>  <REMARK>
 VINA RESULT:      -4.8      3.155      6.519
  Name = 
  23 active torsions:
  status: ('A' for Active; 'I' for Inactive)
    1  A    between atoms: C_1  and  C_10
    2  A    between atoms: C_2  and  C_35
    3  A    between atoms: N_3  and  C_9
    4  A    between atoms: N_3  and  S_25
    5  A    between atoms: C_7  and  O_38
    6  A    between atoms: C_9  and  C_45
    7  A    between atoms: C_10  and  O_18
    8  A    between atoms: C_10  and  O_38
    9  A    between atoms: C_13  and  O_22
   10  A    between atoms: C_13  and  C_52
   11  A    between atoms: N_15  and  C_16
   12  A    between atoms: N_15  and  S_25
   13  A    between atoms: C_16  and  C_57
   14  A    between atoms: O_22  and  C_29
   15  A    between atoms: N_27  and  O_42
   16  A    between atoms: C_28  and  C_37
   17  A    between atoms: C_33  and  C_43
   18  A    between atoms: N_40  and  O_55
   19  A    between atoms: O_42  and  C_49
   20  A    between atoms: C_43  and  C_51
   21  A    between atoms: C_46  and  O_50
   22  A    between atoms: C_49  and  C_51
   23  A    between atoms: C_54  and  C_57
                            x       y       z     vdW  Elec       q    Type
                         _______ _______ _______ _____ _____    ______ ____

>  <TORSDO>
F 23

$$$$
=
 OpenBabel10232409043D

 57 60  0  0  1  0  0  0  0  0999 V2000
  183.9680  178.2410  144.2830 C   0  0  0  0  0  2  0  0  0  0  0  0
  183.6300  178.8830  141.9360 C   0  0  2  0  0  3  0  0  0  0  0  0
  187.6210  178.2210  143.2490 O   0  0  0  0  0  0  0  0  0  0  0  0
  188.6000  179.0270  141.2710 C   0  0  0  0  0  2  0  0  0  0  0  0
  186.1350  178.8780  141.2830 C   0  0  1  0  0  3  0  0  0  0  0  0
  185.2690  178.6100  143.6100 C   0  0  1  0  0  3  0  0  0  0  0  0
  186.4960  177.8190  144.0410 C   0  0  2  0  0  3  0  0  0  0  0  0
  185.0110  178.3100  142.1630 C   0  0  1  0  0  3  0  0  0  0  0  0
  187.5030  178.6780  141.9260 C   0  0  0  0  0  0  0  0  0  0  0  0
  182.9020  178.6240  143.2610 C   0  0  0  0  0  2  0  0  0  0  0  0
  186.4400  179.1110  146.0450 O   0  0  0  0  0  0  0  0  0  0  0  0
  187.5100  177.0440  146.2310 N   0  0  0  0  0  2  0  0  0  0  0  0
  186.7990  178.0390  145.4880 C   0  0  0  0  0  0  0  0  0  0  0  0
  187.8100  177.2240  147.5400 O   0  0  0  0  0  0  0  0  0  0  0  0
  189.0400  177.8870  147.5380 C   0  0  0  0  0  2  0  0  0  0  0  0
  191.3640  177.2080  148.0230 C   0  0  0  0  0  1  0  0  0  0  0  0
  190.1550  176.9250  147.1570 C   0  0  2  0  0  3  0  0  0  0  0  0
  190.5460  177.0970  145.6950 C   0  0  0  0  0  2  0  0  0  0  0  0
  192.1790  175.4260  146.1770 O   0  0  0  0  0  0  0  0  0  0  0  0
  191.6020  176.1160  145.2950 C   0  0  0  0  0  0  0  0  0  0  0  0
  191.9630  175.9460  143.9230 N   0  0  0  0  0  2  0  0  0  0  0  0
  190.2630  175.9220  142.5500 C   0  0  0  0  0  1  0  0  0  0  0  0
  191.3820  176.6720  142.9380 O   0  0  0  0  0  0  0  0  0  0  0  0
  182.9870  178.2170  140.8850 O   0  0  0  0  0  0  0  0  0  0  0  0
  182.1610  179.1810  140.2890 C   0  0  2  0  0  3  0  0  0  0  0  0
  180.3120  179.9350  141.2560 C   0  0  0  0  0  1  0  0  0  0  0  0
  180.8180  178.8640  140.5130 O   0  0  0  0  0  0  0  0  0  0  0  0
  182.4420  179.2810  138.7940 C   0  0  0  0  0  2  0  0  0  0  0  0
  182.2360  180.6950  138.2770 C   0  0  0  0  0  1  0  0  0  0  0  0
  186.0710  178.4130  139.9470 O   0  0  0  0  0  0  0  0  0  0  0  0
  187.2330  177.6710  139.6630 C   0  0  0  0  0  2  0  0  0  0  0  0
  189.0410  175.8550  138.0880 F   0  0  0  0  0  0  0  0  0  0  0  0
  189.3780  177.5700  136.4560 C   0  0  2  0  0  3  0  0  0  0  0  0
  186.9800  177.6740  135.8460 O   0  0  0  0  0  0  0  0  0  0  0  0
  189.0360  177.2280  137.9010 C   0  0  1  0  0  3  0  0  0  0  0  0
  188.2540  177.1470  135.4920 C   0  0  2  0  0  3  0  0  0  0  0  0
  186.6100  177.3480  137.1820 C   0  0  2  0  0  3  0  0  0  0  0  0
  190.5980  176.9960  136.0870 O   0  0  0  0  0  1  0  0  0  0  0  0
  187.6600  177.8140  138.2030 C   0  0  1  0  0  3  0  0  0  0  0  0
  185.0180  175.8470  136.8000 C   0  0  0  0  0  1  0  0  0  0  0  0
  186.3090  175.9860  137.3120 O   0  0  0  0  0  0  0  0  0  0  0  0
  188.2200  175.6450  135.2020 C   0  0  0  0  0  2  0  0  0  0  0  0
  189.4650  175.2090  134.5910 N   0  0  0  0  0  2  0  0  0  0  0  0
  189.7380  173.5490  135.0150 S   0  0  0  0  0  0  0  0  0  0  0  0
  188.7000  172.6930  134.3460 O   0  0  0  0  0  0  0  0  0  0  0  0
  189.6270  173.3690  136.5040 O   0  0  0  0  0  0  0  0  0  0  0  0
  191.3220  173.0750  134.4990 N   0  0  0  0  0  2  0  0  0  0  0  0
  192.2770  173.9290  135.1890 C   0  0  0  0  0  2  0  0  0  0  0  0
  193.4240  171.8330  135.2390 O   0  0  0  0  0  1  0  0  0  0  0  0
  193.3690  173.0940  135.8340 C   0  0  1  0  0  3  0  0  0  0  0  0
  195.0950  174.7550  136.7930 C   0  0  1  0  0  3  0  0  0  0  0  0
  195.0850  174.2130  134.3940 O   0  0  0  0  0  1  0  0  0  0  0  0
  195.8840  173.4600  136.5990 C   0  0  2  0  0  3  0  0  0  0  0  0
  195.8430  175.8270  136.3030 O   0  0  0  0  0  1  0  0  0  0  0  0
  194.7190  173.7920  135.6740 C   0  0  2  0  0  0  0  0  0  0  0  0
  195.5120  172.4790  137.7000 C   0  0  0  0  0  2  0  0  0  0  0  0
  195.8160  171.1810  137.2880 O   0  0  0  0  0  1  0  0  0  0  0  0
  2 24  1  6  0  0  0
  2  8  1  0  0  0  0
  2 10  1  0  0  0  0
  3  7  1  0  0  0  0
  4  9  2  0  0  0  0
  5 30  1  6  0  0  0
  5  9  1  0  0  0  0
  5  8  1  0  0  0  0
  6  7  1  0  0  0  0
  6  1  1  1  0  0  0
  7 13  1  1  0  0  0
  8  6  1  0  0  0  0
  9  3  1  0  0  0  0
 10  1  1  0  0  0  0
 12 14  1  0  0  0  0
 13 11  2  0  0  0  0
 13 12  1  0  0  0  0
 15 14  1  0  0  0  0
 17 15  1  0  0  0  0
 17 16  1  0  0  0  0
 18 17  1  0  0  0  0
 20 18  1  0  0  0  0
 20 19  2  0  0  0  0
 21 20  1  0  0  0  0
 22 23  1  0  0  0  0
 23 21  1  0  0  0  0
 25 27  1  0  0  0  0
 25 24  1  0  0  0  0
 27 26  1  0  0  0  0
 28 25  1  0  0  0  0
 29 28  1  0  0  0  0
 31 30  1  0  0  0  0
 33 35  1  0  0  0  0
 34 37  1  0  0  0  0
 35 32  1  0  0  0  0
 35 39  1  0  0  0  0
 36 34  1  0  0  0  0
 36 33  1  0  0  0  0
 37 41  1  0  0  0  0
 37 39  1  0  0  0  0
 38 33  1  0  0  0  0
 39 31  1  0  0  0  0
 40 41  1  0  0  0  0
 42 36  1  0  0  0  0
 43 44  1  0  0  0  0
 43 42  1  0  0  0  0
 44 46  2  0  0  0  0
 45 44  2  0  0  0  0
 47 44  1  0  0  0  0
 47 48  1  0  0  0  0
 48 50  1  0  0  0  0
 49 50  1  0  0  0  0
 52 55  1  0  0  0  0
 53 51  1  0  0  0  0
 53 56  1  0  0  0  0
 54 51  1  0  0  0  0
 55 50  1  0  0  0  0
 55 53  1  0  0  0  0
 55 51  1  0  0  0  0
 57 56  1  0  0  0  0
M  END
>  <MODEL>
7

>  <REMARK>
 VINA RESULT:      -4.7      1.516      2.028
  Name = 
  23 active torsions:
  status: ('A' for Active; 'I' for Inactive)
    1  A    between atoms: C_1  and  C_10
    2  A    between atoms: C_2  and  C_35
    3  A    between atoms: N_3  and  C_9
    4  A    between atoms: N_3  and  S_25
    5  A    between atoms: C_7  and  O_38
    6  A    between atoms: C_9  and  C_45
    7  A    between atoms: C_10  and  O_18
    8  A    between atoms: C_10  and  O_38
    9  A    between atoms: C_13  and  O_22
   10  A    between atoms: C_13  and  C_52
   11  A    between atoms: N_15  and  C_16
   12  A    between atoms: N_15  and  S_25
   13  A    between atoms: C_16  and  C_57
   14  A    between atoms: O_22  and  C_29
   15  A    between atoms: N_27  and  O_42
   16  A    between atoms: C_28  and  C_37
   17  A    between atoms: C_33  and  C_43
   18  A    between atoms: N_40  and  O_55
   19  A    between atoms: O_42  and  C_49
   20  A    between atoms: C_43  and  C_51
   21  A    between atoms: C_46  and  O_50
   22  A    between atoms: C_49  and  C_51
   23  A    between atoms: C_54  and  C_57
                            x       y       z     vdW  Elec       q    Type
                         _______ _______ _______ _____ _____    ______ ____

>  <TORSDO>
F 23

$$$$
=
 OpenBabel10232409043D

 57 60  0  0  1  0  0  0  0  0999 V2000
  192.2210  176.8620  142.2960 C   0  0  0  0  0  2  0  0  0  0  0  0
  190.1370  177.4970  143.4310 C   0  0  2  0  0  3  0  0  0  0  0  0
  190.1220  177.4040  139.1790 O   0  0  0  0  0  0  0  0  0  0  0  0
  187.9960  178.3880  138.9820 C   0  0  0  0  0  2  0  0  0  0  0  0
  188.7510  177.8760  141.2780 C   0  0  1  0  0  3  0  0  0  0  0  0
  191.2080  177.4330  141.3310 C   0  0  1  0  0  3  0  0  0  0  0  0
  191.1910  176.8230  139.9360 C   0  0  2  0  0  3  0  0  0  0  0  0
  189.8930  177.1290  141.9850 C   0  0  1  0  0  3  0  0  0  0  0  0
  188.9310  177.8660  139.7630 C   0  0  0  0  0  0  0  0  0  0  0  0
  191.6010  177.1050  143.6690 C   0  0  0  0  0  2  0  0  0  0  0  0
  193.4520  177.5750  139.8520 O   0  0  0  0  0  0  0  0  0  0  0  0
  192.6250  176.7020  137.8500 N   0  0  0  0  0  2  0  0  0  0  0  0
  192.4870  177.0540  139.2300 C   0  0  0  0  0  0  0  0  0  0  0  0
  193.7850  176.9140  137.1820 O   0  0  0  0  0  0  0  0  0  0  0  0
  194.1690  175.6520  136.7210 C   0  0  0  0  0  2  0  0  0  0  0  0
  195.1610  176.8130  134.7810 C   0  0  0  0  0  1  0  0  0  0  0  0
  194.2790  175.6580  135.2040 C   0  0  2  0  0  3  0  0  0  0  0  0
  192.9090  175.8220  134.5600 C   0  0  0  0  0  2  0  0  0  0  0  0
  192.5010  173.4840  134.8010 O   0  0  0  0  0  0  0  0  0  0  0  0
  192.0260  174.6510  134.8500 C   0  0  0  0  0  0  0  0  0  0  0  0
  190.6500  174.8350  135.1870 N   0  0  0  0  0  2  0  0  0  0  0  0
  189.3100  176.0580  136.4060 C   0  0  0  0  0  1  0  0  0  0  0  0
  190.0890  176.0660  135.2400 O   0  0  0  0  0  0  0  0  0  0  0  0
  189.2910  176.7660  144.2740 O   0  0  0  0  0  0  0  0  0  0  0  0
  189.1100  177.5750  145.4060 C   0  0  2  0  0  3  0  0  0  0  0  0
  190.3650  177.5900  147.2350 C   0  0  0  0  0  1  0  0  0  0  0  0
  189.3900  176.8450  146.5650 O   0  0  0  0  0  0  0  0  0  0  0  0
  187.6890  178.1250  145.4540 C   0  0  0  0  0  2  0  0  0  0  0  0
  186.9810  177.7400  146.7420 C   0  0  0  0  0  1  0  0  0  0  0  0
  187.4700  177.4350  141.6920 O   0  0  0  0  0  0  0  0  0  0  0  0
  186.6600  178.5560  141.9490 C   0  0  0  0  0  2  0  0  0  0  0  0
  184.4300  180.3330  142.9100 F   0  0  0  0  0  0  0  0  0  0  0  0
  183.1970  178.4220  143.6480 C   0  0  2  0  0  3  0  0  0  0  0  0
  183.0420  177.4520  141.3750 O   0  0  0  0  0  0  0  0  0  0  0  0
  184.5640  179.0220  143.3410 C   0  0  1  0  0  3  0  0  0  0  0  0
  182.3670  178.2180  142.3670 C   0  0  2  0  0  3  0  0  0  0  0  0
  184.3120  178.0000  141.0380 C   0  0  2  0  0  3  0  0  0  0  0  0
  182.5060  179.2110  144.5720 O   0  0  0  0  0  1  0  0  0  0  0  0
  185.2190  178.1590  142.2690 C   0  0  1  0  0  3  0  0  0  0  0  0
  184.4730  178.8560  138.9950 C   0  0  0  0  0  1  0  0  0  0  0  0
  184.1800  179.1940  140.3170 O   0  0  0  0  0  0  0  0  0  0  0  0
  181.7540  179.5060  141.8130 C   0  0  0  0  0  2  0  0  0  0  0  0
  180.8300  179.2130  140.7300 N   0  0  0  0  0  2  0  0  0  0  0  0
  180.7640  180.5860  139.6720 S   0  0  0  0  0  0  0  0  0  0  0  0
  182.1620  181.0620  139.3970 O   0  0  0  0  0  0  0  0  0  0  0  0
  179.9910  181.7020  140.3170 O   0  0  0  0  0  0  0  0  0  0  0  0
  179.9870  180.1350  138.1910 N   0  0  0  0  0  2  0  0  0  0  0  0
  181.0120  179.5970  137.3100 C   0  0  0  0  0  2  0  0  0  0  0  0
  180.2100  177.5380  138.2250 O   0  0  0  0  0  1  0  0  0  0  0  0
  181.3370  178.1610  137.6870 C   0  0  1  0  0  3  0  0  0  0  0  0
  183.2240  176.8490  136.5150 C   0  0  1  0  0  3  0  0  0  0  0  0
  181.4210  177.8820  135.2010 O   0  0  0  0  0  1  0  0  0  0  0  0
  182.0340  175.8880  136.5090 C   0  0  2  0  0  3  0  0  0  0  0  0
  183.8200  176.8500  135.2520 O   0  0  0  0  0  1  0  0  0  0  0  0
  181.8020  177.3920  136.4510 C   0  0  2  0  0  0  0  0  0  0  0  0
  181.8540  175.3080  137.9040 C   0  0  0  0  0  2  0  0  0  0  0  0
  181.2030  174.0780  137.8140 O   0  0  0  0  0  1  0  0  0  0  0  0
  1 10  1  0  0  0  0
  2 10  1  0  0  0  0
  2 24  1  1  0  0  0
  3  9  1  0  0  0  0
  3  7  1  0  0  0  0
  4  9  2  0  0  0  0
  5 30  1  6  0  0  0
  5  8  1  0  0  0  0
  6  8  1  0  0  0  0
  6  1  1  1  0  0  0
  7 13  1  6  0  0  0
  7  6  1  0  0  0  0
  8  2  1  0  0  0  0
  9  5  1  0  0  0  0
 12 13  1  0  0  0  0
 13 11  2  0  0  0  0
 14 12  1  0  0  0  0
 15 14  1  0  0  0  0
 16 17  1  0  0  0  0
 17 15  1  0  0  0  0
 18 20  1  0  0  0  0
 18 17  1  0  0  0  0
 19 20  2  0  0  0  0
 20 21  1  0  0  0  0
 21 23  1  0  0  0  0
 23 22  1  0  0  0  0
 24 25  1  0  0  0  0
 25 28  1  0  0  0  0
 25 27  1  0  0  0  0
 27 26  1  0  0  0  0
 28 29  1  0  0  0  0
 30 31  1  0  0  0  0
 31 39  1  0  0  0  0
 32 35  1  0  0  0  0
 33 38  1  0  0  0  0
 34 36  1  0  0  0  0
 35 33  1  0  0  0  0
 36 33  1  0  0  0  0
 37 34  1  0  0  0  0
 37 39  1  0  0  0  0
 39 35  1  0  0  0  0
 40 41  1  0  0  0  0
 41 37  1  0  0  0  0
 42 36  1  0  0  0  0
 43 42  1  0  0  0  0
 44 46  2  0  0  0  0
 44 43  1  0  0  0  0
 45 44  2  0  0  0  0
 47 44  1  0  0  0  0
 48 50  1  0  0  0  0
 48 47  1  0  0  0  0
 50 49  1  0  0  0  0
 52 55  1  0  0  0  0
 53 51  1  0  0  0  0
 53 56  1  0  0  0  0
 54 51  1  0  0  0  0
 55 53  1  0  0  0  0
 55 51  1  0  0  0  0
 55 50  1  0  0  0  0
 57 56  1  0  0  0  0
M  END
>  <MODEL>
8

>  <REMARK>
 VINA RESULT:      -4.6      3.379     10.694
  Name = 
  23 active torsions:
  status: ('A' for Active; 'I' for Inactive)
    1  A    between atoms: C_1  and  C_10
    2  A    between atoms: C_2  and  C_35
    3  A    between atoms: N_3  and  C_9
    4  A    between atoms: N_3  and  S_25
    5  A    between atoms: C_7  and  O_38
    6  A    between atoms: C_9  and  C_45
    7  A    between atoms: C_10  and  O_18
    8  A    between atoms: C_10  and  O_38
    9  A    between atoms: C_13  and  O_22
   10  A    between atoms: C_13  and  C_52
   11  A    between atoms: N_15  and  C_16
   12  A    between atoms: N_15  and  S_25
   13  A    between atoms: C_16  and  C_57
   14  A    between atoms: O_22  and  C_29
   15  A    between atoms: N_27  and  O_42
   16  A    between atoms: C_28  and  C_37
   17  A    between atoms: C_33  and  C_43
   18  A    between atoms: N_40  and  O_55
   19  A    between atoms: O_42  and  C_49
   20  A    between atoms: C_43  and  C_51
   21  A    between atoms: C_46  and  O_50
   22  A    between atoms: C_49  and  C_51
   23  A    between atoms: C_54  and  C_57
                            x       y       z     vdW  Elec       q    Type
                         _______ _______ _______ _____ _____    ______ ____

>  <TORSDO>
F 23

$$$$
=
 OpenBabel10232409043D

 57 60  0  0  1  0  0  0  0  0999 V2000
  185.1230  178.1460  142.3130 C   0  0  0  0  0  2  0  0  0  0  0  0
  185.2530  179.1110  140.0570 C   0  0  2  0  0  3  0  0  0  0  0  0
  188.7680  177.3170  141.6440 O   0  0  0  0  0  0  0  0  0  0  0  0
  190.1570  178.0640  139.9020 C   0  0  0  0  0  2  0  0  0  0  0  0
  187.7470  178.5440  139.6550 C   0  0  1  0  0  3  0  0  0  0  0  0
  186.5510  178.2460  141.8270 C   0  0  1  0  0  3  0  0  0  0  0  0
  187.4880  177.1270  142.2590 C   0  0  2  0  0  3  0  0  0  0  0  0
  186.4160  178.1850  140.3340 C   0  0  1  0  0  3  0  0  0  0  0  0
  188.9330  177.9330  140.3930 C   0  0  0  0  0  0  0  0  0  0  0  0
  184.3200  178.8990  141.2560 C   0  0  0  0  0  2  0  0  0  0  0  0
  187.7990  175.9960  144.3350 O   0  0  0  0  0  0  0  0  0  0  0  0
  187.6040  178.3170  144.4940 N   0  0  0  0  0  2  0  0  0  0  0  0
  187.6460  177.0990  143.7450 C   0  0  0  0  0  0  0  0  0  0  0  0
  187.7290  178.3180  145.8430 O   0  0  0  0  0  0  0  0  0  0  0  0
  189.0820  178.0610  146.0780 C   0  0  0  0  0  2  0  0  0  0  0  0
  188.1910  177.4470  148.2970 C   0  0  0  0  0  1  0  0  0  0  0  0
  189.2410  177.1150  147.2580 C   0  0  2  0  0  3  0  0  0  0  0  0
  190.6190  177.2570  147.8890 C   0  0  0  0  0  2  0  0  0  0  0  0
  191.6300  176.5470  145.8480 O   0  0  0  0  0  0  0  0  0  0  0  0
  191.6550  176.5130  147.1080 C   0  0  0  0  0  0  0  0  0  0  0  0
  192.6770  175.7660  147.7710 N   0  0  0  0  0  2  0  0  0  0  0  0
  193.7590  176.5760  149.4870 C   0  0  0  0  0  1  0  0  0  0  0  0
  192.7390  175.6870  149.1210 O   0  0  0  0  0  0  0  0  0  0  0  0
  184.6100  178.7510  138.8660 O   0  0  0  0  0  0  0  0  0  0  0  0
  183.6520  177.7980  139.2390 C   0  0  2  0  0  3  0  0  0  0  0  0
  184.2610  177.0130  137.2550 C   0  0  0  0  0  1  0  0  0  0  0  0
  183.8600  176.6090  138.5330 O   0  0  0  0  0  0  0  0  0  0  0  0
  182.2420  178.3240  138.9890 C   0  0  0  0  0  2  0  0  0  0  0  0
  182.2430  179.4880  138.0120 C   0  0  0  0  0  1  0  0  0  0  0  0
  187.7460  178.2620  138.2670 O   0  0  0  0  0  0  0  0  0  0  0  0
  187.7210  176.8680  138.0810 C   0  0  0  0  0  2  0  0  0  0  0  0
  190.4420  175.5850  138.0580 F   0  0  0  0  0  0  0  0  0  0  0  0
  190.7260  176.1780  135.7590 C   0  0  2  0  0  3  0  0  0  0  0  0
  188.7800  174.8400  135.0150 O   0  0  0  0  0  0  0  0  0  0  0  0
  190.0500  176.4940  137.0880 C   0  0  1  0  0  3  0  0  0  0  0  0
  190.1960  174.8660  135.1520 C   0  0  2  0  0  3  0  0  0  0  0  0
  188.1110  175.1000  136.2440 C   0  0  2  0  0  3  0  0  0  0  0  0
  192.1150  176.1360  135.9080 O   0  0  0  0  0  1  0  0  0  0  0  0
  188.5420  176.4390  136.8660 C   0  0  1  0  0  3  0  0  0  0  0  0
  186.9660  173.4870  137.2540 C   0  0  0  0  0  1  0  0  0  0  0  0
  188.2470  174.0300  137.1390 O   0  0  0  0  0  0  0  0  0  0  0  0
  190.7550  173.6050  135.8160 C   0  0  0  0  0  2  0  0  0  0  0  0
  191.4580  172.7800  134.8470 N   0  0  0  0  0  2  0  0  0  0  0  0
  193.0280  172.4000  135.4790 S   0  0  0  0  0  0  0  0  0  0  0  0
  194.0650  172.6980  134.4320 O   0  0  0  0  0  0  0  0  0  0  0  0
  193.1060  170.9420  135.8340 O   0  0  0  0  0  0  0  0  0  0  0  0
  193.3250  173.3510  136.8960 N   0  0  0  0  0  2  0  0  0  0  0  0
  194.6400  173.9540  136.7460 C   0  0  0  0  0  2  0  0  0  0  0  0
  194.8380  172.7960  138.8280 O   0  0  0  0  0  1  0  0  0  0  0  0
  195.5560  173.5250  137.8790 C   0  0  1  0  0  3  0  0  0  0  0  0
  197.2350  173.0860  135.9700 C   0  0  1  0  0  3  0  0  0  0  0  0
  196.6160  171.2850  137.5250 O   0  0  0  0  0  1  0  0  0  0  0  0
  198.1080  173.2200  137.2190 C   0  0  2  0  0  3  0  0  0  0  0  0
  197.6560  171.9790  135.2320 O   0  0  0  0  0  1  0  0  0  0  0  0
  196.6930  172.6650  137.3300 C   0  0  2  0  0  0  0  0  0  0  0  0
  198.2060  174.6880  137.6050 C   0  0  0  0  0  2  0  0  0  0  0  0
  197.8160  174.8450  138.9350 O   0  0  0  0  0  1  0  0  0  0  0  0
  2 24  1  6  0  0  0
  2  8  1  0  0  0  0
  2 10  1  0  0  0  0
  3  7  1  0  0  0  0
  4  9  2  0  0  0  0
  5 30  1  6  0  0  0
  5  8  1  0  0  0  0
  5  9  1  0  0  0  0
  6  7  1  0  0  0  0
  6  1  1  1  0  0  0
  7 13  1  1  0  0  0
  8  6  1  0  0  0  0
  9  3  1  0  0  0  0
 10  1  1  0  0  0  0
 12 14  1  0  0  0  0
 13 11  2  0  0  0  0
 13 12  1  0  0  0  0
 14 15  1  0  0  0  0
 15 17  1  0  0  0  0
 17 18  1  0  0  0  0
 17 16  1  0  0  0  0
 19 20  2  0  0  0  0
 20 21  1  0  0  0  0
 20 18  1  0  0  0  0
 21 23  1  0  0  0  0
 23 22  1  0  0  0  0
 24 25  1  0  0  0  0
 26 27  1  0  0  0  0
 27 25  1  0  0  0  0
 28 25  1  0  0  0  0
 29 28  1  0  0  0  0
 31 30  1  0  0  0  0
 33 38  1  0  0  0  0
 33 35  1  0  0  0  0
 34 36  1  0  0  0  0
 34 37  1  0  0  0  0
 35 32  1  0  0  0  0
 36 33  1  0  0  0  0
 36 42  1  0  0  0  0
 37 39  1  0  0  0  0
 37 41  1  0  0  0  0
 39 35  1  0  0  0  0
 39 31  1  0  0  0  0
 41 40  1  0  0  0  0
 43 44  1  0  0  0  0
 43 42  1  0  0  0  0
 44 46  2  0  0  0  0
 44 47  1  0  0  0  0
 45 44  2  0  0  0  0
 48 47  1  0  0  0  0
 48 50  1  0  0  0  0
 50 49  1  0  0  0  0
 51 53  1  0  0  0  0
 51 55  1  0  0  0  0
 53 55  1  0  0  0  0
 53 56  1  0  0  0  0
 54 51  1  0  0  0  0
 55 52  1  0  0  0  0
 55 50  1  0  0  0  0
 56 57  1  0  0  0  0
M  END
>  <MODEL>
9

>  <REMARK>
 VINA RESULT:      -4.5      1.799      2.779
  Name = 
  23 active torsions:
  status: ('A' for Active; 'I' for Inactive)
    1  A    between atoms: C_1  and  C_10
    2  A    between atoms: C_2  and  C_35
    3  A    between atoms: N_3  and  C_9
    4  A    between atoms: N_3  and  S_25
    5  A    between atoms: C_7  and  O_38
    6  A    between atoms: C_9  and  C_45
    7  A    between atoms: C_10  and  O_18
    8  A    between atoms: C_10  and  O_38
    9  A    between atoms: C_13  and  O_22
   10  A    between atoms: C_13  and  C_52
   11  A    between atoms: N_15  and  C_16
   12  A    between atoms: N_15  and  S_25
   13  A    between atoms: C_16  and  C_57
   14  A    between atoms: O_22  and  C_29
   15  A    between atoms: N_27  and  O_42
   16  A    between atoms: C_28  and  C_37
   17  A    between atoms: C_33  and  C_43
   18  A    between atoms: N_40  and  O_55
   19  A    between atoms: O_42  and  C_49
   20  A    between atoms: C_43  and  C_51
   21  A    between atoms: C_46  and  O_50
   22  A    between atoms: C_49  and  C_51
   23  A    between atoms: C_54  and  C_57
                            x       y       z     vdW  Elec       q    Type
                         _______ _______ _______ _____ _____    ______ ____

>  <TORSDO>
F 23

$$$$
