=
 OpenBabel10232412323D

 29 31  0  0  1  0  0  0  0  0999 V2000
  191.0530  176.4880  144.7040 C   0  0  0  0  0  0  0  0  0  0  0  0
  189.3050  178.7010  144.4580 C   0  0  0  0  0  3  0  0  0  0  0  0
  191.1510  180.1100  144.2640 F   0  0  0  0  0  0  0  0  0  0  0  0
  190.6300  178.8640  144.3680 C   0  0  0  0  0  0  0  0  0  0  0  0
  188.6790  177.3160  144.5060 C   0  0  2  0  0  0  0  0  0  0  0  0
  191.5230  177.6920  144.3670 C   0  0  0  0  0  3  0  0  0  0  0  0
  189.6420  176.3430  145.2090 C   0  0  0  0  0  2  0  0  0  0  0  0
  189.2940  178.2190  138.6060 C   0  0  0  0  0  3  0  0  0  0  0  0
  188.6670  177.5070  140.8270 C   0  0  0  0  0  0  0  0  0  0  0  0
  190.5770  176.4940  139.7340 C   0  0  0  0  0  3  0  0  0  0  0  0
  188.8580  175.5600  142.8170 O   0  0  0  0  0  0  0  0  0  0  0  0
  189.8910  175.7820  141.9680 O   0  0  0  0  0  0  0  0  0  0  0  0
  186.9190  178.3820  142.1860 O   0  0  0  0  0  0  0  0  0  0  0  0
  191.2030  177.2160  137.5180 O   0  0  0  0  0  1  0  0  0  0  0  0
  190.3600  177.3090  138.6170 C   0  0  0  0  0  0  0  0  0  0  0  0
  187.9090  177.6100  142.0730 C   0  0  0  0  0  0  0  0  0  0  0  0
  189.7200  176.5880  140.8330 C   0  0  0  0  0  0  0  0  0  0  0  0
  188.4480  178.3260  139.7150 C   0  0  0  0  0  3  0  0  0  0  0  0
  188.3600  176.7860  143.1630 N   0  0  0  0  0  0  0  0  0  0  0  0
  192.6050  174.4150  144.6040 N   0  0  0  0  0  0  0  0  0  0  0  0
  191.9130  175.3410  144.6480 C   0  0  0  0  0  0  0  0  0  0  0  0
  187.4020  177.3810  145.3510 C   0  0  0  0  0  2  0  0  0  0  0  0
  187.9520  177.8750  147.6750 N   0  0  0  0  0  1  0  0  0  0  0  0
  187.4540  178.4510  146.4370 C   0  0  2  0  0  3  0  0  0  0  0  0
  186.0560  179.0020  146.6590 C   0  0  0  0  0  2  0  0  0  0  0  0
  185.4200  179.2920  145.3820 N   0  0  0  0  0  2  0  0  0  0  0  0
  184.0310  178.8680  145.4760 C   0  0  0  0  0  2  0  0  0  0  0  0
  183.2900  179.2030  144.1930 C   0  0  0  0  0  2  0  0  0  0  0  0
  183.7830  178.4270  143.1440 O   0  0  0  0  0  1  0  0  0  0  0  0
  1  7  1  0  0  0  0
  2  5  1  0  0  0  0
  3  4  1  0  0  0  0
  4  2  2  0  0  0  0
  5  7  1  0  0  0  0
  5 22  1  1  0  0  0
  6  4  1  0  0  0  0
  6  1  2  0  0  0  0
  8 15  2  0  0  0  0
  8 18  1  0  0  0  0
  9 17  1  0  0  0  0
  9 16  1  0  0  0  0
 10 17  2  0  0  0  0
 11 19  1  0  0  0  0
 12 11  1  0  0  0  0
 14 15  1  0  0  0  0
 15 10  1  0  0  0  0
 16 13  2  0  0  0  0
 16 19  1  0  0  0  0
 17 12  1  0  0  0  0
 18  9  2  0  0  0  0
 19  5  1  0  0  0  0
 20 21  3  0  0  0  0
 21  1  1  0  0  0  0
 22 24  1  0  0  0  0
 24 25  1  0  0  0  0
 24 23  1  1  0  0  0
 26 27  1  0  0  0  0
 26 25  1  0  0  0  0
 28 27  1  0  0  0  0
 29 28  1  0  0  0  0
M  END
>  <MODEL>
1

>  <REMARK>
 VINA RESULT:      -6.6      0.000      0.000
  Name = 
  8 active torsions:
  status: ('A' for Active; 'I' for Inactive)
    1  A    between atoms: C_1  and  C_16
    2  A    between atoms: N_9  and  C_27
    3  A    between atoms: N_9  and  C_29
    4  A    between atoms: C_15  and  C_20
    5  A    between atoms: C_15  and  N_24
    6  A    between atoms: C_20  and  C_25
    7  A    between atoms: C_22  and  C_29
    8  A    between atoms: C_25  and  C_27
                            x       y       z     vdW  Elec       q    Type
                         _______ _______ _______ _____ _____    ______ ____

>  <TORSDO>
F 8

$$$$
=
 OpenBabel10232412323D

 29 31  0  0  1  0  0  0  0  0999 V2000
  191.4950  176.8200  146.2840 C   0  0  0  0  0  0  0  0  0  0  0  0
  191.2660  175.7270  143.6830 C   0  0  0  0  0  3  0  0  0  0  0  0
  192.6450  173.9630  144.3260 F   0  0  0  0  0  0  0  0  0  0  0  0
  191.9590  175.0880  144.6330 C   0  0  0  0  0  0  0  0  0  0  0  0
  190.4270  176.9530  144.0030 C   0  0  2  0  0  0  0  0  0  0  0  0
  191.9640  175.5980  146.0160 C   0  0  0  0  0  3  0  0  0  0  0  0
  191.0780  177.7320  145.1610 C   0  0  0  0  0  2  0  0  0  0  0  0
  184.9940  179.1890  145.2230 C   0  0  0  0  0  3  0  0  0  0  0  0
  186.9820  177.8430  144.9570 C   0  0  0  0  0  0  0  0  0  0  0  0
  185.4250  178.0650  143.1150 C   0  0  0  0  0  3  0  0  0  0  0  0
  188.3020  175.8520  143.5140 O   0  0  0  0  0  0  0  0  0  0  0  0
  187.4320  176.6890  142.8970 O   0  0  0  0  0  0  0  0  0  0  0  0
  188.7330  177.5230  146.5370 O   0  0  0  0  0  0  0  0  0  0  0  0
  183.4440  179.4180  143.3850 O   0  0  0  0  0  1  0  0  0  0  0  0
  184.6190  178.8910  143.9060 C   0  0  0  0  0  0  0  0  0  0  0  0
  188.2880  177.3350  145.3730 C   0  0  0  0  0  0  0  0  0  0  0  0
  186.6010  177.5320  143.6490 C   0  0  0  0  0  0  0  0  0  0  0  0
  186.1820  178.6710  145.7510 C   0  0  0  0  0  3  0  0  0  0  0  0
  189.0370  176.6140  144.3790 N   0  0  0  0  0  0  0  0  0  0  0  0
  191.4140  177.6670  148.7320 N   0  0  0  0  0  0  0  0  0  0  0  0
  191.4520  177.2890  147.6380 C   0  0  0  0  0  0  0  0  0  0  0  0
  190.4190  177.8800  142.7820 C   0  0  0  0  0  2  0  0  0  0  0  0
  192.1250  177.6930  141.0490 N   0  0  0  0  0  1  0  0  0  0  0  0
  190.8400  177.1790  141.4940 C   0  0  2  0  0  3  0  0  0  0  0  0
  189.7920  177.4340  140.4250 C   0  0  0  0  0  2  0  0  0  0  0  0
  190.0730  176.6320  139.2420 N   0  0  0  0  0  2  0  0  0  0  0  0
  189.8020  177.4580  138.0760 C   0  0  0  0  0  2  0  0  0  0  0  0
  188.8010  178.5460  138.4230 C   0  0  0  0  0  2  0  0  0  0  0  0
  188.9910  179.6500  137.5930 O   0  0  0  0  0  1  0  0  0  0  0  0
  1 21  1  0  0  0  0
  2  5  1  0  0  0  0
  2  4  2  0  0  0  0
  3  4  1  0  0  0  0
  4  6  1  0  0  0  0
  5 22  1  6  0  0  0
  5 19  1  0  0  0  0
  5  7  1  0  0  0  0
  6  1  2  0  0  0  0
  7  1  1  0  0  0  0
  8 18  1  0  0  0  0
  9 16  1  0  0  0  0
  9 18  2  0  0  0  0
 10 17  2  0  0  0  0
 10 15  1  0  0  0  0
 11 19  1  0  0  0  0
 12 11  1  0  0  0  0
 12 17  1  0  0  0  0
 14 15  1  0  0  0  0
 15  8  2  0  0  0  0
 16 13  2  0  0  0  0
 17  9  1  0  0  0  0
 19 16  1  0  0  0  0
 21 20  3  0  0  0  0
 24 23  1  6  0  0  0
 24 22  1  0  0  0  0
 25 24  1  0  0  0  0
 26 25  1  0  0  0  0
 27 28  1  0  0  0  0
 27 26  1  0  0  0  0
 29 28  1  0  0  0  0
M  END
>  <MODEL>
2

>  <REMARK>
 VINA RESULT:      -6.6      2.406      5.785
  Name = 
  8 active torsions:
  status: ('A' for Active; 'I' for Inactive)
    1  A    between atoms: C_1  and  C_16
    2  A    between atoms: N_9  and  C_27
    3  A    between atoms: N_9  and  C_29
    4  A    between atoms: C_15  and  C_20
    5  A    between atoms: C_15  and  N_24
    6  A    between atoms: C_20  and  C_25
    7  A    between atoms: C_22  and  C_29
    8  A    between atoms: C_25  and  C_27
                            x       y       z     vdW  Elec       q    Type
                         _______ _______ _______ _____ _____    ______ ____

>  <TORSDO>
F 8

$$$$
=
 OpenBabel10232412323D

 29 31  0  0  1  0  0  0  0  0999 V2000
  191.6800  177.6460  142.3230 C   0  0  0  0  0  0  0  0  0  0  0  0
  190.4410  178.3930  144.7560 C   0  0  0  0  0  3  0  0  0  0  0  0
  190.8870  180.6280  144.2720 F   0  0  0  0  0  0  0  0  0  0  0  0
  190.9090  179.3220  143.9140 C   0  0  0  0  0  0  0  0  0  0  0  0
  190.3840  176.9250  144.3630 C   0  0  2  0  0  0  0  0  0  0  0  0
  191.4340  178.9310  142.5940 C   0  0  0  0  0  3  0  0  0  0  0  0
  191.5450  176.6060  143.4030 C   0  0  0  0  0  2  0  0  0  0  0  0
  185.0670  178.9760  142.4850 C   0  0  0  0  0  3  0  0  0  0  0  0
  186.9760  177.6690  143.1790 C   0  0  0  0  0  0  0  0  0  0  0  0
  186.8250  178.4560  140.8940 C   0  0  0  0  0  3  0  0  0  0  0  0
  189.1530  176.0950  142.4230 O   0  0  0  0  0  0  0  0  0  0  0  0
  188.7240  177.1070  141.6290 O   0  0  0  0  0  0  0  0  0  0  0  0
  187.4500  176.8510  145.3640 O   0  0  0  0  0  0  0  0  0  0  0  0
  184.9180  179.7680  140.2080 O   0  0  0  0  0  1  0  0  0  0  0  0
  185.6020  179.0680  141.1940 C   0  0  0  0  0  0  0  0  0  0  0  0
  187.8240  177.0090  144.1710 C   0  0  0  0  0  0  0  0  0  0  0  0
  187.5030  177.7460  141.8870 C   0  0  0  0  0  0  0  0  0  0  0  0
  185.7560  178.2810  143.4850 C   0  0  0  0  0  3  0  0  0  0  0  0
  189.1100  176.5570  143.7090 N   0  0  0  0  0  0  0  0  0  0  0  0
  192.5090  176.9580  139.9660 N   0  0  0  0  0  0  0  0  0  0  0  0
  192.1380  177.2640  141.0180 C   0  0  0  0  0  0  0  0  0  0  0  0
  190.5860  176.0700  145.6180 C   0  0  0  0  0  2  0  0  0  0  0  0
  191.9410  176.4250  147.6140 N   0  0  0  0  0  1  0  0  0  0  0  0
  190.7750  176.8970  146.8850 C   0  0  2  0  0  3  0  0  0  0  0  0
  189.5400  176.7600  147.7580 C   0  0  0  0  0  2  0  0  0  0  0  0
  189.1260  178.0640  148.2540 N   0  0  0  0  0  2  0  0  0  0  0  0
  187.6940  178.0050  148.5050 C   0  0  0  0  0  2  0  0  0  0  0  0
  186.9820  179.1180  147.7550 C   0  0  0  0  0  2  0  0  0  0  0  0
  185.6860  178.7180  147.4310 O   0  0  0  0  0  1  0  0  0  0  0  0
  1  6  2  0  0  0  0
  1  7  1  0  0  0  0
  4  3  1  0  0  0  0
  4  2  2  0  0  0  0
  5  2  1  0  0  0  0
  5 22  1  1  0  0  0
  6  4  1  0  0  0  0
  7  5  1  0  0  0  0
  8 18  1  0  0  0  0
  9 18  2  0  0  0  0
  9 16  1  0  0  0  0
 10 15  1  0  0  0  0
 10 17  2  0  0  0  0
 11 19  1  0  0  0  0
 12 17  1  0  0  0  0
 12 11  1  0  0  0  0
 14 15  1  0  0  0  0
 15  8  2  0  0  0  0
 16 13  2  0  0  0  0
 17  9  1  0  0  0  0
 19 16  1  0  0  0  0
 19  5  1  0  0  0  0
 20 21  3  0  0  0  0
 21  1  1  0  0  0  0
 22 24  1  0  0  0  0
 24 23  1  1  0  0  0
 24 25  1  0  0  0  0
 25 26  1  0  0  0  0
 26 27  1  0  0  0  0
 28 27  1  0  0  0  0
 29 28  1  0  0  0  0
M  END
>  <MODEL>
3

>  <REMARK>
 VINA RESULT:      -6.5      2.295      3.825
  Name = 
  8 active torsions:
  status: ('A' for Active; 'I' for Inactive)
    1  A    between atoms: C_1  and  C_16
    2  A    between atoms: N_9  and  C_27
    3  A    between atoms: N_9  and  C_29
    4  A    between atoms: C_15  and  C_20
    5  A    between atoms: C_15  and  N_24
    6  A    between atoms: C_20  and  C_25
    7  A    between atoms: C_22  and  C_29
    8  A    between atoms: C_25  and  C_27
                            x       y       z     vdW  Elec       q    Type
                         _______ _______ _______ _____ _____    ______ ____

>  <TORSDO>
F 8

$$$$
=
 OpenBabel10232412323D

 29 31  0  0  1  0  0  0  0  0999 V2000
  183.7510  176.9340  137.9840 C   0  0  0  0  0  0  0  0  0  0  0  0
  181.4710  177.3220  139.6150 C   0  0  0  0  0  3  0  0  0  0  0  0
  181.5170  175.0620  140.1800 F   0  0  0  0  0  0  0  0  0  0  0  0
  182.0670  176.1260  139.5480 C   0  0  0  0  0  0  0  0  0  0  0  0
  182.0930  178.5540  138.9780 C   0  0  2  0  0  0  0  0  0  0  0  0
  183.3270  175.9660  138.8000 C   0  0  0  0  0  3  0  0  0  0  0  0
  182.8840  178.1380  137.7250 C   0  0  0  0  0  2  0  0  0  0  0  0
  186.2530  177.9360  143.2570 C   0  0  0  0  0  3  0  0  0  0  0  0
  184.5610  178.6940  141.7070 C   0  0  0  0  0  0  0  0  0  0  0  0
  186.8790  178.6080  141.0100 C   0  0  0  0  0  3  0  0  0  0  0  0
  183.9720  180.0690  139.3520 O   0  0  0  0  0  0  0  0  0  0  0  0
  185.1410  179.3960  139.4840 O   0  0  0  0  0  0  0  0  0  0  0  0
  182.2100  178.7870  142.0670 O   0  0  0  0  0  0  0  0  0  0  0  0
  188.5640  177.8430  142.5600 O   0  0  0  0  0  1  0  0  0  0  0  0
  187.2350  178.1290  142.2750 C   0  0  0  0  0  0  0  0  0  0  0  0
  183.1830  178.9140  141.2760 C   0  0  0  0  0  0  0  0  0  0  0  0
  185.5420  178.9020  140.7340 C   0  0  0  0  0  0  0  0  0  0  0  0
  184.9110  178.2110  142.9730 C   0  0  0  0  0  3  0  0  0  0  0  0
  182.9980  179.2780  139.8950 N   0  0  0  0  0  0  0  0  0  0  0  0
  186.0170  176.6890  136.7510 N   0  0  0  0  0  0  0  0  0  0  0  0
  185.0050  176.7980  137.3010 C   0  0  0  0  0  0  0  0  0  0  0  0
  180.9710  179.4900  138.5150 C   0  0  0  0  0  2  0  0  0  0  0  0
  179.9820  180.5640  140.4680 N   0  0  0  0  0  1  0  0  0  0  0  0
  180.8760  180.7680  139.3410 C   0  0  2  0  0  3  0  0  0  0  0  0
  180.3430  181.8880  138.4650 C   0  0  0  0  0  2  0  0  0  0  0  0
  181.4100  182.4360  137.6400 N   0  0  0  0  0  2  0  0  0  0  0  0
  180.8030  183.3550  136.6890 C   0  0  0  0  0  2  0  0  0  0  0  0
  181.2510  184.7780  136.9750 C   0  0  0  0  0  2  0  0  0  0  0  0
  182.4600  184.7650  137.6690 O   0  0  0  0  0  1  0  0  0  0  0  0
  1  6  2  0  0  0  0
  4  2  2  0  0  0  0
  4  3  1  0  0  0  0
  5 22  1  6  0  0  0
  5  2  1  0  0  0  0
  5 19  1  0  0  0  0
  6  4  1  0  0  0  0
  7  1  1  0  0  0  0
  7  5  1  0  0  0  0
  9 18  2  0  0  0  0
 10 15  1  0  0  0  0
 11 12  1  0  0  0  0
 11 19  1  0  0  0  0
 12 17  1  0  0  0  0
 15 14  1  0  0  0  0
 15  8  2  0  0  0  0
 16  9  1  0  0  0  0
 16 13  2  0  0  0  0
 17 10  2  0  0  0  0
 17  9  1  0  0  0  0
 18  8  1  0  0  0  0
 19 16  1  0  0  0  0
 20 21  3  0  0  0  0
 21  1  1  0  0  0  0
 22 24  1  0  0  0  0
 24 23  1  1  0  0  0
 25 24  1  0  0  0  0
 26 25  1  0  0  0  0
 27 28  1  0  0  0  0
 27 26  1  0  0  0  0
 28 29  1  0  0  0  0
M  END
>  <MODEL>
4

>  <REMARK>
 VINA RESULT:      -6.1      5.856      8.425
  Name = 
  8 active torsions:
  status: ('A' for Active; 'I' for Inactive)
    1  A    between atoms: C_1  and  C_16
    2  A    between atoms: N_9  and  C_27
    3  A    between atoms: N_9  and  C_29
    4  A    between atoms: C_15  and  C_20
    5  A    between atoms: C_15  and  N_24
    6  A    between atoms: C_20  and  C_25
    7  A    between atoms: C_22  and  C_29
    8  A    between atoms: C_25  and  C_27
                            x       y       z     vdW  Elec       q    Type
                         _______ _______ _______ _____ _____    ______ ____

>  <TORSDO>
F 8

$$$$
=
 OpenBabel10232412323D

 29 31  0  0  1  0  0  0  0  0999 V2000
  191.2300  176.5350  144.5510 C   0  0  0  0  0  0  0  0  0  0  0  0
  190.0650  179.0380  143.9260 C   0  0  0  0  0  3  0  0  0  0  0  0
  192.1970  179.9390  143.6580 F   0  0  0  0  0  0  0  0  0  0  0  0
  191.3930  178.8750  143.8910 C   0  0  0  0  0  0  0  0  0  0  0  0
  189.1270  177.8560  144.1140 C   0  0  2  0  0  0  0  0  0  0  0  0
  191.9820  177.5390  144.0900 C   0  0  0  0  0  3  0  0  0  0  0  0
  189.8130  176.7920  144.9890 C   0  0  0  0  0  2  0  0  0  0  0  0
  189.7500  178.0750  138.1500 C   0  0  0  0  0  3  0  0  0  0  0  0
  189.0780  177.6730  140.4360 C   0  0  0  0  0  0  0  0  0  0  0  0
  190.8340  176.3310  139.4440 C   0  0  0  0  0  3  0  0  0  0  0  0
  189.0660  175.9290  142.6140 O   0  0  0  0  0  0  0  0  0  0  0  0
  190.1040  175.9380  141.7430 O   0  0  0  0  0  0  0  0  0  0  0  0
  187.4700  178.8860  141.7040 O   0  0  0  0  0  0  0  0  0  0  0  0
  191.5060  176.7430  137.1630 O   0  0  0  0  0  1  0  0  0  0  0  0
  190.6980  177.0490  138.2510 C   0  0  0  0  0  0  0  0  0  0  0  0
  188.3580  177.9930  141.6670 C   0  0  0  0  0  0  0  0  0  0  0  0
  190.0130  176.6390  140.5320 C   0  0  0  0  0  0  0  0  0  0  0  0
  188.9410  178.3960  139.2460 C   0  0  0  0  0  3  0  0  0  0  0  0
  188.7250  177.2350  142.8340 N   0  0  0  0  0  0  0  0  0  0  0  0
  192.2470  174.1650  144.8020 N   0  0  0  0  0  0  0  0  0  0  0  0
  191.7940  175.2230  144.6910 C   0  0  0  0  0  0  0  0  0  0  0  0
  187.8810  178.3310  144.8700 C   0  0  0  0  0  2  0  0  0  0  0  0
  185.6460  177.6760  144.1480 N   0  0  0  0  0  1  0  0  0  0  0  0
  186.7880  177.2710  144.9510 C   0  0  2  0  0  3  0  0  0  0  0  0
  186.3590  177.1080  146.3990 C   0  0  0  0  0  2  0  0  0  0  0  0
  186.8860  178.1990  147.2070 N   0  0  0  0  0  2  0  0  0  0  0  0
  187.6980  177.6120  148.2620 C   0  0  0  0  0  2  0  0  0  0  0  0
  188.9710  178.4180  148.4570 C   0  0  0  0  0  2  0  0  0  0  0  0
  190.0840  177.6120  148.2180 O   0  0  0  0  0  1  0  0  0  0  0  0
  1 21  1  0  0  0  0
  1  7  1  0  0  0  0
  2  5  1  0  0  0  0
  3  4  1  0  0  0  0
  4  2  2  0  0  0  0
  4  6  1  0  0  0  0
  5 22  1  1  0  0  0
  5  7  1  0  0  0  0
  6  1  2  0  0  0  0
  8 15  2  0  0  0  0
  8 18  1  0  0  0  0
  9 17  1  0  0  0  0
  9 16  1  0  0  0  0
 10 17  2  0  0  0  0
 11 19  1  0  0  0  0
 12 11  1  0  0  0  0
 14 15  1  0  0  0  0
 15 10  1  0  0  0  0
 16 13  2  0  0  0  0
 16 19  1  0  0  0  0
 17 12  1  0  0  0  0
 18  9  2  0  0  0  0
 19  5  1  0  0  0  0
 21 20  3  0  0  0  0
 22 24  1  0  0  0  0
 24 23  1  6  0  0  0
 24 25  1  0  0  0  0
 25 26  1  0  0  0  0
 26 27  1  0  0  0  0
 27 28  1  0  0  0  0
 29 28  1  0  0  0  0
M  END
>  <MODEL>
5

>  <REMARK>
 VINA RESULT:      -5.9      1.486      2.511
  Name = 
  8 active torsions:
  status: ('A' for Active; 'I' for Inactive)
    1  A    between atoms: C_1  and  C_16
    2  A    between atoms: N_9  and  C_27
    3  A    between atoms: N_9  and  C_29
    4  A    between atoms: C_15  and  C_20
    5  A    between atoms: C_15  and  N_24
    6  A    between atoms: C_20  and  C_25
    7  A    between atoms: C_22  and  C_29
    8  A    between atoms: C_25  and  C_27
                            x       y       z     vdW  Elec       q    Type
                         _______ _______ _______ _____ _____    ______ ____

>  <TORSDO>
F 8

$$$$
=
 OpenBabel10232412323D

 29 31  0  0  1  0  0  0  0  0999 V2000
  181.0550  179.5410  140.7440 C   0  0  0  0  0  0  0  0  0  0  0  0
  182.5050  178.9030  138.3980 C   0  0  0  0  0  3  0  0  0  0  0  0
  181.2420  180.4660  137.2180 F   0  0  0  0  0  0  0  0  0  0  0  0
  181.5730  179.8630  138.3850 C   0  0  0  0  0  0  0  0  0  0  0  0
  182.9530  178.2530  139.6970 C   0  0  2  0  0  0  0  0  0  0  0  0
  180.9160  180.2770  139.6380 C   0  0  0  0  0  3  0  0  0  0  0  0
  181.7750  178.2210  140.6880 C   0  0  0  0  0  2  0  0  0  0  0  0
  187.9220  177.5780  142.9920 C   0  0  0  0  0  3  0  0  0  0  0  0
  185.9780  178.3690  141.7950 C   0  0  0  0  0  0  0  0  0  0  0  0
  188.0680  178.0430  140.6140 C   0  0  0  0  0  3  0  0  0  0  0  0
  184.9650  179.6270  139.5190 O   0  0  0  0  0  0  0  0  0  0  0  0
  186.0860  178.8690  139.4470 O   0  0  0  0  0  0  0  0  0  0  0  0
  183.7800  178.6820  142.6540 O   0  0  0  0  0  0  0  0  0  0  0  0
  190.0040  177.2460  141.8140 O   0  0  0  0  0  1  0  0  0  0  0  0
  188.6670  177.6220  141.8060 C   0  0  0  0  0  0  0  0  0  0  0  0
  184.5550  178.6740  141.6600 C   0  0  0  0  0  0  0  0  0  0  0  0
  186.7250  178.4280  140.6150 C   0  0  0  0  0  0  0  0  0  0  0  0
  186.5710  177.9450  142.9890 C   0  0  0  0  0  3  0  0  0  0  0  0
  184.0880  178.9590  140.3290 N   0  0  0  0  0  0  0  0  0  0  0  0
  179.9820  180.3300  142.9680 N   0  0  0  0  0  0  0  0  0  0  0  0
  180.4600  179.9780  141.9740 C   0  0  0  0  0  0  0  0  0  0  0  0
  183.3440  176.7980  139.4120 C   0  0  0  0  0  2  0  0  0  0  0  0
  181.5540  175.1680  139.1280 N   0  0  0  0  0  1  0  0  0  0  0  0
  182.4100  176.1080  138.4240 C   0  0  2  0  0  3  0  0  0  0  0  0
  183.2400  175.3640  137.3910 C   0  0  0  0  0  2  0  0  0  0  0  0
  184.6170  175.8360  137.4160 N   0  0  0  0  0  2  0  0  0  0  0  0
  185.4470  174.8020  136.8180 C   0  0  0  0  0  2  0  0  0  0  0  0
  184.8380  173.4320  137.0620 C   0  0  0  0  0  2  0  0  0  0  0  0
  185.5140  172.7900  138.1000 O   0  0  0  0  0  1  0  0  0  0  0  0
  1 21  1  0  0  0  0
  2  5  1  0  0  0  0
  3  4  1  0  0  0  0
  4  2  2  0  0  0  0
  4  6  1  0  0  0  0
  5 22  1  6  0  0  0
  5 19  1  0  0  0  0
  5  7  1  0  0  0  0
  6  1  2  0  0  0  0
  7  1  1  0  0  0  0
  9 18  2  0  0  0  0
 10 17  2  0  0  0  0
 10 15  1  0  0  0  0
 11 19  1  0  0  0  0
 12 11  1  0  0  0  0
 12 17  1  0  0  0  0
 15 14  1  0  0  0  0
 15  8  2  0  0  0  0
 16  9  1  0  0  0  0
 16 13  2  0  0  0  0
 17  9  1  0  0  0  0
 18  8  1  0  0  0  0
 19 16  1  0  0  0  0
 21 20  3  0  0  0  0
 24 23  1  1  0  0  0
 24 22  1  0  0  0  0
 25 26  1  0  0  0  0
 25 24  1  0  0  0  0
 27 28  1  0  0  0  0
 27 26  1  0  0  0  0
 28 29  1  0  0  0  0
M  END
>  <MODEL>
6

>  <REMARK>
 VINA RESULT:      -5.8      5.132      8.375
  Name = 
  8 active torsions:
  status: ('A' for Active; 'I' for Inactive)
    1  A    between atoms: C_1  and  C_16
    2  A    between atoms: N_9  and  C_27
    3  A    between atoms: N_9  and  C_29
    4  A    between atoms: C_15  and  C_20
    5  A    between atoms: C_15  and  N_24
    6  A    between atoms: C_20  and  C_25
    7  A    between atoms: C_22  and  C_29
    8  A    between atoms: C_25  and  C_27
                            x       y       z     vdW  Elec       q    Type
                         _______ _______ _______ _____ _____    ______ ____

>  <TORSDO>
F 8

$$$$
=
 OpenBabel10232412323D

 29 31  0  0  1  0  0  0  0  0999 V2000
  186.2940  178.7350  141.9560 C   0  0  0  0  0  0  0  0  0  0  0  0
  188.3100  177.5820  143.5740 C   0  0  0  0  0  3  0  0  0  0  0  0
  186.6750  176.8960  145.0850 F   0  0  0  0  0  0  0  0  0  0  0  0
  187.0190  177.4710  143.9090 C   0  0  0  0  0  0  0  0  0  0  0  0
  188.7330  178.1580  142.2320 C   0  0  2  0  0  0  0  0  0  0  0  0
  185.9710  177.9610  142.9950 C   0  0  0  0  0  3  0  0  0  0  0  0
  187.7100  179.2160  141.7830 C   0  0  0  0  0  2  0  0  0  0  0  0
  190.8400  176.9830  136.7380 C   0  0  0  0  0  3  0  0  0  0  0  0
  189.7060  177.0070  138.8710 C   0  0  0  0  0  0  0  0  0  0  0  0
  191.9340  176.0710  138.7040 C   0  0  0  0  0  3  0  0  0  0  0  0
  189.5430  175.9850  141.4630 O   0  0  0  0  0  0  0  0  0  0  0  0
  190.7410  176.0890  140.8360 O   0  0  0  0  0  0  0  0  0  0  0  0
  187.5740  177.9450  139.3640 O   0  0  0  0  0  0  0  0  0  0  0  0
  193.0650  176.0570  136.5720 O   0  0  0  0  0  1  0  0  0  0  0  0
  191.9480  176.3700  137.3370 C   0  0  0  0  0  0  0  0  0  0  0  0
  188.6310  177.3980  139.7810 C   0  0  0  0  0  0  0  0  0  0  0  0
  190.8050  176.3810  139.4660 C   0  0  0  0  0  0  0  0  0  0  0  0
  189.7170  177.3110  137.5060 C   0  0  0  0  0  3  0  0  0  0  0  0
  188.8490  177.1280  141.1770 N   0  0  0  0  0  0  0  0  0  0  0  0
  184.4580  179.5060  140.2970 N   0  0  0  0  0  0  0  0  0  0  0  0
  185.2780  179.1630  141.0380 C   0  0  0  0  0  0  0  0  0  0  0  0
  190.0780  178.8730  142.4040 C   0  0  0  0  0  2  0  0  0  0  0  0
  191.2280  179.9140  144.2860 N   0  0  0  0  0  1  0  0  0  0  0  0
  190.7020  178.6570  143.7790 C   0  0  2  0  0  3  0  0  0  0  0  0
  191.8280  177.6450  143.6620 C   0  0  0  0  0  2  0  0  0  0  0  0
  191.5000  176.4370  144.4060 N   0  0  0  0  0  2  0  0  0  0  0  0
  191.2720  176.8210  145.7900 C   0  0  0  0  0  2  0  0  0  0  0  0
  191.9810  175.8590  146.7270 C   0  0  0  0  0  2  0  0  0  0  0  0
  192.3620  176.5240  147.8920 O   0  0  0  0  0  1  0  0  0  0  0  0
  1  6  2  0  0  0  0
  2  4  2  0  0  0  0
  4  3  1  0  0  0  0
  5 22  1  1  0  0  0
  5  2  1  0  0  0  0
  6  4  1  0  0  0  0
  7  1  1  0  0  0  0
  7  5  1  0  0  0  0
  8 15  2  0  0  0  0
  8 18  1  0  0  0  0
  9 17  1  0  0  0  0
  9 16  1  0  0  0  0
 10 17  2  0  0  0  0
 12 11  1  0  0  0  0
 13 16  2  0  0  0  0
 14 15  1  0  0  0  0
 15 10  1  0  0  0  0
 16 19  1  0  0  0  0
 17 12  1  0  0  0  0
 18  9  2  0  0  0  0
 19 11  1  0  0  0  0
 19  5  1  0  0  0  0
 20 21  3  0  0  0  0
 21  1  1  0  0  0  0
 22 24  1  0  0  0  0
 24 23  1  6  0  0  0
 25 24  1  0  0  0  0
 25 26  1  0  0  0  0
 26 27  1  0  0  0  0
 27 28  1  0  0  0  0
 28 29  1  0  0  0  0
M  END
>  <MODEL>
7

>  <REMARK>
 VINA RESULT:      -5.8      2.638      5.225
  Name = 
  8 active torsions:
  status: ('A' for Active; 'I' for Inactive)
    1  A    between atoms: C_1  and  C_16
    2  A    between atoms: N_9  and  C_27
    3  A    between atoms: N_9  and  C_29
    4  A    between atoms: C_15  and  C_20
    5  A    between atoms: C_15  and  N_24
    6  A    between atoms: C_20  and  C_25
    7  A    between atoms: C_22  and  C_29
    8  A    between atoms: C_25  and  C_27
                            x       y       z     vdW  Elec       q    Type
                         _______ _______ _______ _____ _____    ______ ____

>  <TORSDO>
F 8

$$$$
=
 OpenBabel10232412323D

 29 31  0  0  1  0  0  0  0  0999 V2000
  192.2370  175.3910  137.0750 C   0  0  0  0  0  0  0  0  0  0  0  0
  189.4110  175.4910  137.2080 C   0  0  0  0  0  3  0  0  0  0  0  0
  189.3630  173.1750  137.4620 F   0  0  0  0  0  0  0  0  0  0  0  0
  190.0610  174.3300  137.3550 C   0  0  0  0  0  0  0  0  0  0  0  0
  190.1560  176.8140  137.1540 C   0  0  2  0  0  0  0  0  0  0  0  0
  191.5340  174.3070  137.4140 C   0  0  0  0  0  3  0  0  0  0  0  0
  191.5380  176.5990  136.5110 C   0  0  0  0  0  2  0  0  0  0  0  0
  187.4560  178.1770  142.3360 C   0  0  0  0  0  3  0  0  0  0  0  0
  188.9220  177.9670  140.4270 C   0  0  0  0  0  0  0  0  0  0  0  0
  189.0210  176.3260  142.2060 C   0  0  0  0  0  3  0  0  0  0  0  0
  191.2340  176.8390  139.3470 O   0  0  0  0  0  0  0  0  0  0  0  0
  190.5060  176.1670  140.2720 O   0  0  0  0  0  0  0  0  0  0  0  0
  188.9820  179.3530  138.4930 O   0  0  0  0  0  0  0  0  0  0  0  0
  187.5490  176.5370  144.1070 O   0  0  0  0  0  1  0  0  0  0  0  0
  188.0080  177.0130  142.8850 C   0  0  0  0  0  0  0  0  0  0  0  0
  189.3910  178.3210  139.0890 C   0  0  0  0  0  0  0  0  0  0  0  0
  189.4840  176.8150  140.9820 C   0  0  0  0  0  0  0  0  0  0  0  0
  187.9070  178.6550  141.1000 C   0  0  0  0  0  3  0  0  0  0  0  0
  190.3420  177.4220  138.4900 N   0  0  0  0  0  0  0  0  0  0  0  0
  194.8200  175.3760  137.2790 N   0  0  0  0  0  0  0  0  0  0  0  0
  193.6670  175.3820  137.1880 C   0  0  0  0  0  0  0  0  0  0  0  0
  189.3820  177.7810  136.2520 C   0  0  0  0  0  2  0  0  0  0  0  0
  188.0510  176.9270  134.3950 N   0  0  0  0  0  1  0  0  0  0  0  0
  188.0250  177.2380  135.8150 C   0  0  2  0  0  3  0  0  0  0  0  0
  186.9590  178.2850  136.0870 C   0  0  0  0  0  2  0  0  0  0  0  0
  185.7720  177.6610  136.6530 N   0  0  0  0  0  2  0  0  0  0  0  0
  185.8290  177.8340  138.0960 C   0  0  0  0  0  2  0  0  0  0  0  0
  184.5730  178.5280  138.5940 C   0  0  0  0  0  2  0  0  0  0  0  0
  184.8570  179.8560  138.9080 O   0  0  0  0  0  1  0  0  0  0  0  0
  1 21  1  0  0  0  0
  1  6  2  0  0  0  0
  2  4  2  0  0  0  0
  4  6  1  0  0  0  0
  4  3  1  0  0  0  0
  5 22  1  6  0  0  0
  5  2  1  0  0  0  0
  5 19  1  0  0  0  0
  7  1  1  0  0  0  0
  7  5  1  0  0  0  0
  8 15  1  0  0  0  0
  9 17  2  0  0  0  0
  9 18  1  0  0  0  0
 10 15  2  0  0  0  0
 11 12  1  0  0  0  0
 12 17  1  0  0  0  0
 13 16  2  0  0  0  0
 15 14  1  0  0  0  0
 16  9  1  0  0  0  0
 17 10  1  0  0  0  0
 18  8  2  0  0  0  0
 19 16  1  0  0  0  0
 19 11  1  0  0  0  0
 21 20  3  0  0  0  0
 24 23  1  6  0  0  0
 24 25  1  0  0  0  0
 24 22  1  0  0  0  0
 25 26  1  0  0  0  0
 26 27  1  0  0  0  0
 27 28  1  0  0  0  0
 28 29  1  0  0  0  0
M  END
>  <MODEL>
8

>  <REMARK>
 VINA RESULT:      -5.7      4.323      7.140
  Name = 
  8 active torsions:
  status: ('A' for Active; 'I' for Inactive)
    1  A    between atoms: C_1  and  C_16
    2  A    between atoms: N_9  and  C_27
    3  A    between atoms: N_9  and  C_29
    4  A    between atoms: C_15  and  C_20
    5  A    between atoms: C_15  and  N_24
    6  A    between atoms: C_20  and  C_25
    7  A    between atoms: C_22  and  C_29
    8  A    between atoms: C_25  and  C_27
                            x       y       z     vdW  Elec       q    Type
                         _______ _______ _______ _____ _____    ______ ____

>  <TORSDO>
F 8

$$$$
=
 OpenBabel10232412323D

 29 31  0  0  1  0  0  0  0  0999 V2000
  190.7570  177.1760  142.3810 C   0  0  0  0  0  0  0  0  0  0  0  0
  190.2660  178.3070  144.9290 C   0  0  0  0  0  3  0  0  0  0  0  0
  190.8550  180.4000  144.0890 F   0  0  0  0  0  0  0  0  0  0  0  0
  190.6230  179.0800  143.8960 C   0  0  0  0  0  0  0  0  0  0  0  0
  189.9290  176.8370  144.7390 C   0  0  2  0  0  0  0  0  0  0  0  0
  190.7500  178.5010  142.5460 C   0  0  0  0  0  3  0  0  0  0  0  0
  190.7650  176.2650  143.5800 C   0  0  0  0  0  2  0  0  0  0  0  0
  184.7270  179.4930  143.3680 C   0  0  0  0  0  3  0  0  0  0  0  0
  186.5070  178.0030  144.0340 C   0  0  0  0  0  0  0  0  0  0  0  0
  185.9640  178.2550  141.6870 C   0  0  0  0  0  3  0  0  0  0  0  0
  188.1680  175.8660  143.3520 O   0  0  0  0  0  0  0  0  0  0  0  0
  187.7380  176.7350  142.4050 O   0  0  0  0  0  0  0  0  0  0  0  0
  187.3320  177.6290  146.2360 O   0  0  0  0  0  0  0  0  0  0  0  0
  184.1900  179.7510  141.0280 O   0  0  0  0  0  1  0  0  0  0  0  0
  184.9590  179.1670  142.0250 C   0  0  0  0  0  0  0  0  0  0  0  0
  187.4420  177.4240  144.9970 C   0  0  0  0  0  0  0  0  0  0  0  0
  186.7290  177.6640  142.6970 C   0  0  0  0  0  0  0  0  0  0  0  0
  185.5060  178.9170  144.3780 C   0  0  0  0  0  3  0  0  0  0  0  0
  188.4970  176.6110  144.4510 N   0  0  0  0  0  0  0  0  0  0  0  0
  190.8790  176.1670  139.9970 N   0  0  0  0  0  0  0  0  0  0  0  0
  190.8250  176.6190  141.0610 C   0  0  0  0  0  0  0  0  0  0  0  0
  190.3280  176.0720  146.0060 C   0  0  0  0  0  2  0  0  0  0  0  0
  192.4810  174.9290  146.0080 N   0  0  0  0  0  1  0  0  0  0  0  0
  191.8140  176.1790  146.3300 C   0  0  2  0  0  3  0  0  0  0  0  0
  191.9800  176.4780  147.8100 C   0  0  0  0  0  2  0  0  0  0  0  0
  193.3080  176.0840  148.2580 N   0  0  0  0  0  2  0  0  0  0  0  0
  193.2330  175.8350  149.6900 C   0  0  0  0  0  2  0  0  0  0  0  0
  193.9730  176.9190  150.4520 C   0  0  0  0  0  2  0  0  0  0  0  0
  193.4850  178.1740  150.0880 O   0  0  0  0  0  1  0  0  0  0  0  0
  1  6  2  0  0  0  0
  1  7  1  0  0  0  0
  4  3  1  0  0  0  0
  4  2  2  0  0  0  0
  5  2  1  0  0  0  0
  5 22  1  1  0  0  0
  6  4  1  0  0  0  0
  7  5  1  0  0  0  0
  8 18  1  0  0  0  0
  9 18  2  0  0  0  0
  9 16  1  0  0  0  0
 10 15  1  0  0  0  0
 10 17  2  0  0  0  0
 11 19  1  0  0  0  0
 12 17  1  0  0  0  0
 12 11  1  0  0  0  0
 14 15  1  0  0  0  0
 15  8  2  0  0  0  0
 16 13  2  0  0  0  0
 17  9  1  0  0  0  0
 19  5  1  0  0  0  0
 19 16  1  0  0  0  0
 20 21  3  0  0  0  0
 21  1  1  0  0  0  0
 22 24  1  0  0  0  0
 24 23  1  1  0  0  0
 24 25  1  0  0  0  0
 25 26  1  0  0  0  0
 26 27  1  0  0  0  0
 27 28  1  0  0  0  0
 29 28  1  0  0  0  0
M  END
>  <MODEL>
9

>  <REMARK>
 VINA RESULT:      -5.5      3.012      5.703
  Name = 
  8 active torsions:
  status: ('A' for Active; 'I' for Inactive)
    1  A    between atoms: C_1  and  C_16
    2  A    between atoms: N_9  and  C_27
    3  A    between atoms: N_9  and  C_29
    4  A    between atoms: C_15  and  C_20
    5  A    between atoms: C_15  and  N_24
    6  A    between atoms: C_20  and  C_25
    7  A    between atoms: C_22  and  C_29
    8  A    between atoms: C_25  and  C_27
                            x       y       z     vdW  Elec       q    Type
                         _______ _______ _______ _____ _____    ______ ____

>  <TORSDO>
F 8

$$$$
