=
 OpenBabel10232408093D

 38 43  0  0  1  0  0  0  0  0999 V2000
  189.3470  177.1930  139.9620 C   0  0  0  0  0  0  0  0  0  0  0  0
  185.8550  177.1140  136.3090 C   0  0  0  0  0  0  0  0  0  0  0  0
  186.8300  176.1400  135.9880 C   0  0  0  0  0  3  0  0  0  0  0  0
  190.5100  176.8600  140.8550 C   0  0  0  0  0  2  0  0  0  0  0  0
  184.7570  177.2890  135.4780 O   0  0  0  0  0  1  0  0  0  0  0  0
  188.5850  178.8480  141.6420 C   0  0  0  0  0  2  0  0  0  0  0  0
  187.9270  176.0000  136.8440 C   0  0  0  0  0  0  0  0  0  0  0  0
  188.0350  176.7840  137.9390 C   0  0  0  0  0  0  0  0  0  0  0  0
  188.3650  177.9390  142.8660 C   0  0  2  0  0  3  0  0  0  0  0  0
  188.6750  176.4470  142.6460 C   0  0  0  0  0  2  0  0  0  0  0  0
  189.8890  175.4040  138.0940 C   0  0  2  0  0  3  0  0  0  0  0  0
  185.9840  177.9060  137.4770 C   0  0  0  0  0  3  0  0  0  0  0  0
  189.0820  175.0500  136.8040 C   0  0  0  0  0  2  0  0  0  0  0  0
  189.1600  176.5110  138.7130 N   0  0  0  0  0  0  0  0  0  0  0  0
  188.4340  178.1300  140.3310 C   0  0  0  0  0  0  0  0  0  0  0  0
  187.0990  177.7220  138.3090 C   0  0  0  0  0  0  0  0  0  0  0  0
  187.3140  178.4180  139.5100 O   0  0  0  0  0  0  0  0  0  0  0  0
  190.1040  176.1630  142.1640 C   0  0  0  0  0  2  0  0  0  0  0  0
  185.4890  178.2000  145.3170 C   0  0  0  0  0  3  0  0  0  0  0  0
  186.7740  178.0390  144.7890 C   0  0  0  0  0  3  0  0  0  0  0  0
  186.9810  178.1100  143.4070 C   0  0  0  0  0  0  0  0  0  0  0  0
  184.6080  178.5050  143.0820 C   0  0  0  0  0  3  0  0  0  0  0  0
  185.8910  178.3450  142.5540 C   0  0  0  0  0  3  0  0  0  0  0  0
  184.4070  178.4330  144.4630 C   0  0  0  0  0  0  0  0  0  0  0  0
  183.1630  178.5880  144.9760 F   0  0  0  0  0  0  0  0  0  0  0  0
  192.3170  174.8420  137.7190 N   0  0  0  0  0  2  0  0  0  0  0  0
  191.5360  177.0300  137.4820 O   0  0  0  0  0  0  0  0  0  0  0  0
  191.2800  175.8220  137.7430 C   0  0  0  0  0  0  0  0  0  0  0  0
  193.6940  175.1850  137.4000 C   0  0  0  0  0  2  0  0  0  0  0  0
  195.6740  173.6990  137.2530 C   0  0  0  0  0  2  0  0  0  0  0  0
  195.3700  175.0690  139.1560 N   0  0  0  0  0  2  0  0  0  0  0  0
  194.6440  174.2860  138.1690 C   0  0  1  0  0  3  0  0  0  0  0  0
  196.6340  174.4680  139.3130 N   0  0  0  0  0  2  0  0  0  0  0  0
  196.9180  173.7050  138.1000 C   0  0  2  0  0  3  0  0  0  0  0  0
  198.1150  174.2830  137.3370 C   0  0  1  0  0  3  0  0  0  0  0  0
  197.6880  175.1400  136.1530 C   0  0  0  0  0  1  0  0  0  0  0  0
  200.0960  174.3090  138.3220 C   0  0  0  0  0  1  0  0  0  0  0  0
  198.9120  175.0360  138.2020 O   0  0  0  0  0  0  0  0  0  0  0  0
  1 15  2  0  0  0  0
  1  4  1  0  0  0  0
  2 12  1  0  0  0  0
  3  2  2  0  0  0  0
  3  7  1  0  0  0  0
  4 18  1  0  0  0  0
  5  2  1  0  0  0  0
  6  9  1  0  0  0  0
  7  8  2  0  0  0  0
  8 16  1  0  0  0  0
  8 14  1  0  0  0  0
  9 21  1  6  0  0  0
 10  9  1  0  0  0  0
 11 28  1  6  0  0  0
 11 14  1  0  0  0  0
 12 16  2  0  0  0  0
 13  7  1  0  0  0  0
 13 11  1  0  0  0  0
 14  1  1  0  0  0  0
 15  6  1  0  0  0  0
 16 17  1  0  0  0  0
 17 15  1  0  0  0  0
 18 10  1  0  0  0  0
 20 19  1  0  0  0  0
 21 20  2  0  0  0  0
 22 24  1  0  0  0  0
 23 22  2  0  0  0  0
 23 21  1  0  0  0  0
 24 25  1  0  0  0  0
 24 19  2  0  0  0  0
 26 28  1  0  0  0  0
 27 28  2  0  0  0  0
 29 26  1  0  0  0  0
 30 34  1  0  0  0  0
 30 32  1  0  0  0  0
 31 33  1  0  0  0  0
 32 29  1  6  0  0  0
 32 31  1  0  0  0  0
 34 35  1  6  0  0  0
 34 33  1  0  0  0  0
 35 36  1  6  0  0  0
 35 38  1  0  0  0  0
 38 37  1  0  0  0  0
M  END
>  <MODEL>
1

>  <REMARK>
 VINA RESULT:      -9.2      0.000      0.000
  Name = 
  6 active torsions:
  status: ('A' for Active; 'I' for Inactive)
    1  A    between atoms: C_10  and  O_26
    2  A    between atoms: C_10  and  C_36
    3  A    between atoms: C_14  and  C_15
    4  A    between atoms: C_18  and  C_33
    5  A    between atoms: C_19  and  C_20
    6  A    between atoms: C_19  and  N_24
                            x       y       z     vdW  Elec       q    Type
                         _______ _______ _______ _____ _____    ______ ____

>  <TORSDO>
F 6

$$$$
=
 OpenBabel10232408093D

 38 43  0  0  1  0  0  0  0  0999 V2000
  189.0060  177.5460  140.3770 C   0  0  0  0  0  0  0  0  0  0  0  0
  184.5670  178.1860  138.0480 C   0  0  0  0  0  0  0  0  0  0  0  0
  185.3270  177.2770  137.2750 C   0  0  0  0  0  3  0  0  0  0  0  0
  190.3610  177.0410  140.7890 C   0  0  0  0  0  2  0  0  0  0  0  0
  183.2820  178.5240  137.6460 O   0  0  0  0  0  1  0  0  0  0  0  0
  188.9120  178.8710  142.4690 C   0  0  0  0  0  2  0  0  0  0  0  0
  186.6210  176.9680  137.7060 C   0  0  0  0  0  0  0  0  0  0  0  0
  187.1130  177.5350  138.8290 C   0  0  0  0  0  0  0  0  0  0  0  0
  189.0140  177.7540  143.5250 C   0  0  2  0  0  3  0  0  0  0  0  0
  189.1380  176.3250  142.9660 C   0  0  0  0  0  2  0  0  0  0  0  0
  188.8250  176.1270  138.1550 C   0  0  2  0  0  3  0  0  0  0  0  0
  185.1020  178.7470  139.2340 C   0  0  0  0  0  3  0  0  0  0  0  0
  187.6400  176.0280  137.1420 C   0  0  0  0  0  2  0  0  0  0  0  0
  188.3990  177.1090  139.1520 N   0  0  0  0  0  0  0  0  0  0  0  0
  188.3170  178.4100  141.1700 C   0  0  0  0  0  0  0  0  0  0  0  0
  186.4030  178.3990  139.6300 C   0  0  0  0  0  0  0  0  0  0  0  0
  187.0220  178.8580  140.8030 O   0  0  0  0  0  0  0  0  0  0  0  0
  190.3280  176.1180  142.0190 C   0  0  0  0  0  2  0  0  0  0  0  0
  185.4960  178.0530  144.8970 C   0  0  0  0  0  3  0  0  0  0  0  0
  186.5730  177.9760  144.0090 C   0  0  0  0  0  3  0  0  0  0  0  0
  187.8780  177.8380  144.4940 C   0  0  0  0  0  0  0  0  0  0  0  0
  187.0230  177.8530  146.7660 C   0  0  0  0  0  3  0  0  0  0  0  0
  188.0990  177.7760  145.8790 C   0  0  0  0  0  3  0  0  0  0  0  0
  185.7210  177.9920  146.2750 C   0  0  0  0  0  0  0  0  0  0  0  0
  184.6770  178.0670  147.1350 F   0  0  0  0  0  0  0  0  0  0  0  0
  191.2350  175.7690  137.5130 N   0  0  0  0  0  2  0  0  0  0  0  0
  190.0850  177.6900  136.8510 O   0  0  0  0  0  0  0  0  0  0  0  0
  190.0680  176.5870  137.4630 C   0  0  0  0  0  0  0  0  0  0  0  0
  192.4800  176.1650  136.8730 C   0  0  0  0  0  2  0  0  0  0  0  0
  194.3200  174.8790  135.8170 C   0  0  0  0  0  2  0  0  0  0  0  0
  194.4820  175.5150  138.0880 N   0  0  0  0  0  2  0  0  0  0  0  0
  193.5320  175.0890  137.0740 C   0  0  1  0  0  3  0  0  0  0  0  0
  195.7240  174.9360  137.7610 N   0  0  0  0  0  2  0  0  0  0  0  0
  195.7130  174.6380  136.3320 C   0  0  2  0  0  3  0  0  0  0  0  0
  196.7460  175.4760  135.5720 C   0  0  1  0  0  3  0  0  0  0  0  0
  196.1650  176.7880  135.0610 C   0  0  0  0  0  1  0  0  0  0  0  0
  198.8090  174.8020  136.0080 C   0  0  0  0  0  1  0  0  0  0  0  0
  197.8460  175.7350  136.3930 O   0  0  0  0  0  0  0  0  0  0  0  0
  1  4  1  0  0  0  0
  1 15  2  0  0  0  0
  2 12  1  0  0  0  0
  3  7  1  0  0  0  0
  3  2  2  0  0  0  0
  4 18  1  0  0  0  0
  5  2  1  0  0  0  0
  6  9  1  0  0  0  0
  7  8  2  0  0  0  0
  8 14  1  0  0  0  0
  8 16  1  0  0  0  0
  9 21  1  1  0  0  0
 10  9  1  0  0  0  0
 11 28  1  6  0  0  0
 11 14  1  0  0  0  0
 12 16  2  0  0  0  0
 13  7  1  0  0  0  0
 13 11  1  0  0  0  0
 14  1  1  0  0  0  0
 15  6  1  0  0  0  0
 16 17  1  0  0  0  0
 17 15  1  0  0  0  0
 18 10  1  0  0  0  0
 19 24  1  0  0  0  0
 20 21  1  0  0  0  0
 20 19  2  0  0  0  0
 21 23  2  0  0  0  0
 23 22  1  0  0  0  0
 24 22  2  0  0  0  0
 24 25  1  0  0  0  0
 27 28  2  0  0  0  0
 28 26  1  0  0  0  0
 29 26  1  0  0  0  0
 30 34  1  0  0  0  0
 30 32  1  0  0  0  0
 32 29  1  6  0  0  0
 32 31  1  0  0  0  0
 33 31  1  0  0  0  0
 34 35  1  6  0  0  0
 34 33  1  0  0  0  0
 35 36  1  1  0  0  0
 35 38  1  0  0  0  0
 37 38  1  0  0  0  0
M  END
>  <MODEL>
2

>  <REMARK>
 VINA RESULT:      -8.8      1.460      1.980
  Name = 
  6 active torsions:
  status: ('A' for Active; 'I' for Inactive)
    1  A    between atoms: C_10  and  O_26
    2  A    between atoms: C_10  and  C_36
    3  A    between atoms: C_14  and  C_15
    4  A    between atoms: C_18  and  C_33
    5  A    between atoms: C_19  and  C_20
    6  A    between atoms: C_19  and  N_24
                            x       y       z     vdW  Elec       q    Type
                         _______ _______ _______ _____ _____    ______ ____

>  <TORSDO>
F 6

$$$$
=
 OpenBabel10232408093D

 38 43  0  0  1  0  0  0  0  0999 V2000
  189.4050  177.1860  139.9580 C   0  0  0  0  0  0  0  0  0  0  0  0
  186.0130  177.1590  136.2120 C   0  0  0  0  0  0  0  0  0  0  0  0
  186.9930  176.1840  135.9080 C   0  0  0  0  0  3  0  0  0  0  0  0
  190.5420  176.8400  140.8800 C   0  0  0  0  0  2  0  0  0  0  0  0
  184.9390  177.3480  135.3530 O   0  0  0  0  0  1  0  0  0  0  0  0
  188.6050  178.8280  141.6330 C   0  0  0  0  0  2  0  0  0  0  0  0
  188.0650  176.0310  136.7910 C   0  0  0  0  0  0  0  0  0  0  0  0
  188.1460  176.8040  137.8970 C   0  0  0  0  0  0  0  0  0  0  0  0
  188.3470  177.9080  142.8420 C   0  0  2  0  0  3  0  0  0  0  0  0
  188.6570  176.4170  142.6160 C   0  0  0  0  0  2  0  0  0  0  0  0
  189.9900  175.4130  138.0880 C   0  0  2  0  0  3  0  0  0  0  0  0
  186.1140  177.9390  137.3910 C   0  0  0  0  0  3  0  0  0  0  0  0
  189.2170  175.0760  136.7730 C   0  0  0  0  0  2  0  0  0  0  0  0
  189.2490  176.5170  138.6980 N   0  0  0  0  0  0  0  0  0  0  0  0
  188.4860  178.1240  140.3120 C   0  0  0  0  0  0  0  0  0  0  0  0
  187.2050  177.7420  138.2510 C   0  0  0  0  0  0  0  0  0  0  0  0
  187.3900  178.4250  139.4640 O   0  0  0  0  0  0  0  0  0  0  0  0
  190.0970  176.1320  142.1700 C   0  0  0  0  0  2  0  0  0  0  0  0
  185.4180  178.2310  145.2210 C   0  0  0  0  0  3  0  0  0  0  0  0
  186.7150  178.0680  144.7270 C   0  0  0  0  0  3  0  0  0  0  0  0
  186.9500  178.0800  143.3470 C   0  0  0  0  0  0  0  0  0  0  0  0
  184.5780  178.4200  142.9570 C   0  0  0  0  0  3  0  0  0  0  0  0
  185.8750  178.2570  142.4630 C   0  0  0  0  0  3  0  0  0  0  0  0
  184.3500  178.4070  144.3360 C   0  0  0  0  0  0  0  0  0  0  0  0
  183.0930  178.5640  144.8170 F   0  0  0  0  0  0  0  0  0  0  0  0
  192.4480  174.8810  137.9280 N   0  0  0  0  0  2  0  0  0  0  0  0
  191.6390  177.0070  137.4020 O   0  0  0  0  0  0  0  0  0  0  0  0
  191.3920  175.8280  137.7790 C   0  0  0  0  0  0  0  0  0  0  0  0
  193.8350  175.2250  137.6580 C   0  0  0  0  0  2  0  0  0  0  0  0
  195.4070  173.3570  137.2180 C   0  0  0  0  0  2  0  0  0  0  0  0
  193.3460  173.4580  136.0640 N   0  0  0  0  0  2  0  0  0  0  0  0
  194.4050  174.2910  136.6070 C   0  0  1  0  0  3  0  0  0  0  0  0
  193.9300  172.2280  135.7010 N   0  0  0  0  0  2  0  0  0  0  0  0
  195.1500  172.0670  136.4870 C   0  0  2  0  0  3  0  0  0  0  0  0
  195.0480  170.8830  137.4540 C   0  0  1  0  0  3  0  0  0  0  0  0
  194.1900  169.7540  136.8980 C   0  0  0  0  0  1  0  0  0  0  0  0
  196.1390  169.0470  138.0330 C   0  0  0  0  0  1  0  0  0  0  0  0
  196.3240  170.4020  137.7540 O   0  0  0  0  0  0  0  0  0  0  0  0
  1 15  2  0  0  0  0
  1  4  1  0  0  0  0
  2 12  1  0  0  0  0
  3  2  2  0  0  0  0
  3  7  1  0  0  0  0
  4 18  1  0  0  0  0
  5  2  1  0  0  0  0
  6  9  1  0  0  0  0
  7  8  2  0  0  0  0
  8 16  1  0  0  0  0
  8 14  1  0  0  0  0
  9 21  1  6  0  0  0
 10  9  1  0  0  0  0
 11 28  1  6  0  0  0
 11 14  1  0  0  0  0
 12 16  2  0  0  0  0
 13  7  1  0  0  0  0
 13 11  1  0  0  0  0
 14  1  1  0  0  0  0
 15  6  1  0  0  0  0
 16 17  1  0  0  0  0
 17 15  1  0  0  0  0
 18 10  1  0  0  0  0
 20 19  1  0  0  0  0
 21 20  2  0  0  0  0
 22 24  1  0  0  0  0
 23 22  2  0  0  0  0
 23 21  1  0  0  0  0
 24 25  1  0  0  0  0
 24 19  2  0  0  0  0
 27 28  2  0  0  0  0
 28 26  1  0  0  0  0
 29 26  1  0  0  0  0
 31 32  1  0  0  0  0
 32 30  1  0  0  0  0
 32 29  1  1  0  0  0
 33 31  1  0  0  0  0
 33 34  1  0  0  0  0
 34 30  1  0  0  0  0
 34 35  1  1  0  0  0
 35 36  1  6  0  0  0
 35 38  1  0  0  0  0
 38 37  1  0  0  0  0
M  END
>  <MODEL>
3

>  <REMARK>
 VINA RESULT:      -8.2      1.667      2.224
  Name = 
  6 active torsions:
  status: ('A' for Active; 'I' for Inactive)
    1  A    between atoms: C_10  and  O_26
    2  A    between atoms: C_10  and  C_36
    3  A    between atoms: C_14  and  C_15
    4  A    between atoms: C_18  and  C_33
    5  A    between atoms: C_19  and  C_20
    6  A    between atoms: C_19  and  N_24
                            x       y       z     vdW  Elec       q    Type
                         _______ _______ _______ _____ _____    ______ ____

>  <TORSDO>
F 6

$$$$
=
 OpenBabel10232408093D

 38 43  0  0  1  0  0  0  0  0999 V2000
  190.3460  177.4410  141.2270 C   0  0  0  0  0  0  0  0  0  0  0  0
  186.4350  177.8000  138.0460 C   0  0  0  0  0  0  0  0  0  0  0  0
  187.3750  176.9150  137.4680 C   0  0  0  0  0  3  0  0  0  0  0  0
  191.6130  177.0140  141.9150 C   0  0  0  0  0  2  0  0  0  0  0  0
  185.2420  178.0640  137.3880 O   0  0  0  0  0  1  0  0  0  0  0  0
  189.7760  178.8040  143.2160 C   0  0  0  0  0  2  0  0  0  0  0  0
  188.5700  176.6820  138.1560 C   0  0  0  0  0  0  0  0  0  0  0  0
  188.8010  177.2980  139.3370 C   0  0  0  0  0  0  0  0  0  0  0  0
  189.7170  177.7170  144.3060 C   0  0  2  0  0  3  0  0  0  0  0  0
  190.0150  176.2850  143.8280 C   0  0  0  0  0  2  0  0  0  0  0  0
  190.6760  175.9660  139.0600 C   0  0  2  0  0  3  0  0  0  0  0  0
  186.6960  178.4130  139.2970 C   0  0  0  0  0  3  0  0  0  0  0  0
  189.7220  175.7840  137.8360 C   0  0  0  0  0  2  0  0  0  0  0  0
  190.0150  176.9460  139.9200 N   0  0  0  0  0  0  0  0  0  0  0  0
  189.4730  178.2840  141.8400 C   0  0  0  0  0  0  0  0  0  0  0  0
  187.9070  178.1420  139.9530 C   0  0  0  0  0  0  0  0  0  0  0  0
  188.2580  178.6570  141.2110 O   0  0  0  0  0  0  0  0  0  0  0  0
  191.3780  176.1190  143.1420 C   0  0  0  0  0  2  0  0  0  0  0  0
  187.1870  177.9570  147.1140 C   0  0  0  0  0  3  0  0  0  0  0  0
  188.3990  177.9070  146.4200 C   0  0  0  0  0  3  0  0  0  0  0  0
  188.4080  177.7640  145.0280 C   0  0  0  0  0  0  0  0  0  0  0  0
  185.9800  177.7220  145.0280 C   0  0  0  0  0  3  0  0  0  0  0  0
  187.1910  177.6720  144.3330 C   0  0  0  0  0  3  0  0  0  0  0  0
  185.9780  177.8640  146.4180 C   0  0  0  0  0  0  0  0  0  0  0  0
  184.8040  177.9130  147.0930 F   0  0  0  0  0  0  0  0  0  0  0  0
  192.5140  176.0760  137.3390 N   0  0  0  0  0  2  0  0  0  0  0  0
  192.6850  177.2350  139.3590 O   0  0  0  0  0  0  0  0  0  0  0  0
  192.0100  176.4730  138.6130 C   0  0  0  0  0  0  0  0  0  0  0  0
  193.8100  176.5220  136.8510 C   0  0  0  0  0  2  0  0  0  0  0  0
  195.8560  175.8010  135.6480 C   0  0  0  0  0  2  0  0  0  0  0  0
  194.5150  174.1990  136.7550 N   0  0  0  0  0  2  0  0  0  0  0  0
  194.4440  175.4380  135.9990 C   0  0  1  0  0  3  0  0  0  0  0  0
  195.6530  173.5020  136.3030 N   0  0  0  0  0  2  0  0  0  0  0  0
  196.5690  174.4780  135.7170 C   0  0  2  0  0  3  0  0  0  0  0  0
  197.8700  174.5810  136.5180 C   0  0  1  0  0  3  0  0  0  0  0  0
  198.5090  173.2210  136.7650 C   0  0  0  0  0  1  0  0  0  0  0  0
  199.8720  174.5970  135.5730 C   0  0  0  0  0  1  0  0  0  0  0  0
  198.7740  175.4120  135.8520 O   0  0  0  0  0  0  0  0  0  0  0  0
  1 15  2  0  0  0  0
  1  4  1  0  0  0  0
  2 12  1  0  0  0  0
  3  2  2  0  0  0  0
  3  7  1  0  0  0  0
  4 18  1  0  0  0  0
  5  2  1  0  0  0  0
  6  9  1  0  0  0  0
  7  8  2  0  0  0  0
  8 14  1  0  0  0  0
  8 16  1  0  0  0  0
  9 21  1  6  0  0  0
 10  9  1  0  0  0  0
 11 28  1  6  0  0  0
 11 14  1  0  0  0  0
 12 16  2  0  0  0  0
 13  7  1  0  0  0  0
 13 11  1  0  0  0  0
 14  1  1  0  0  0  0
 15  6  1  0  0  0  0
 16 17  1  0  0  0  0
 17 15  1  0  0  0  0
 18 10  1  0  0  0  0
 20 19  1  0  0  0  0
 21 20  2  0  0  0  0
 22 24  1  0  0  0  0
 23 22  2  0  0  0  0
 23 21  1  0  0  0  0
 24 25  1  0  0  0  0
 24 19  2  0  0  0  0
 26 28  1  0  0  0  0
 28 27  2  0  0  0  0
 29 26  1  0  0  0  0
 30 34  1  0  0  0  0
 30 32  1  0  0  0  0
 32 31  1  0  0  0  0
 32 29  1  1  0  0  0
 33 31  1  0  0  0  0
 34 33  1  0  0  0  0
 34 35  1  1  0  0  0
 35 36  1  6  0  0  0
 37 38  1  0  0  0  0
 38 35  1  0  0  0  0
M  END
>  <MODEL>
4

>  <REMARK>
 VINA RESULT:      -8.2      1.732      2.088
  Name = 
  6 active torsions:
  status: ('A' for Active; 'I' for Inactive)
    1  A    between atoms: C_10  and  O_26
    2  A    between atoms: C_10  and  C_36
    3  A    between atoms: C_14  and  C_15
    4  A    between atoms: C_18  and  C_33
    5  A    between atoms: C_19  and  C_20
    6  A    between atoms: C_19  and  N_24
                            x       y       z     vdW  Elec       q    Type
                         _______ _______ _______ _____ _____    ______ ____

>  <TORSDO>
F 6

$$$$
=
 OpenBabel10232408093D

 38 43  0  0  1  0  0  0  0  0999 V2000
  188.2950  178.0630  139.7510 C   0  0  0  0  0  0  0  0  0  0  0  0
  183.3120  178.7540  139.2700 C   0  0  0  0  0  0  0  0  0  0  0  0
  183.7430  177.9760  138.1700 C   0  0  0  0  0  3  0  0  0  0  0  0
  189.7080  177.5790  139.5830 C   0  0  0  0  0  2  0  0  0  0  0  0
  181.9680  179.0750  139.4020 O   0  0  0  0  0  1  0  0  0  0  0  0
  188.9620  179.1340  141.8840 C   0  0  0  0  0  2  0  0  0  0  0  0
  185.1050  177.6820  138.0650 C   0  0  0  0  0  0  0  0  0  0  0  0
  185.9700  178.1390  138.9980 C   0  0  0  0  0  0  0  0  0  0  0  0
  189.4420  177.9090  142.6860 C   0  0  2  0  0  3  0  0  0  0  0  0
  189.3600  176.5620  141.9470 C   0  0  0  0  0  2  0  0  0  0  0  0
  187.3250  176.9010  137.5860 C   0  0  2  0  0  3  0  0  0  0  0  0
  184.2390  179.2000  140.2450 C   0  0  0  0  0  3  0  0  0  0  0  0
  185.8540  176.8620  137.0620 C   0  0  0  0  0  2  0  0  0  0  0  0
  187.2860  177.7410  138.7820 N   0  0  0  0  0  0  0  0  0  0  0  0
  187.9380  178.7970  140.8390 C   0  0  0  0  0  0  0  0  0  0  0  0
  185.5960  178.8720  140.1010 C   0  0  0  0  0  0  0  0  0  0  0  0
  186.5970  179.2220  141.0210 O   0  0  0  0  0  0  0  0  0  0  0  0
  190.1260  176.5210  140.6180 C   0  0  0  0  0  2  0  0  0  0  0  0
  186.6650  177.5750  145.2390 C   0  0  0  0  0  3  0  0  0  0  0  0
  187.3460  177.6560  144.0210 C   0  0  0  0  0  3  0  0  0  0  0  0
  188.7340  177.8290  144.0010 C   0  0  0  0  0  0  0  0  0  0  0  0
  188.7580  177.8360  146.4290 C   0  0  0  0  0  3  0  0  0  0  0  0
  189.4400  177.9180  145.2120 C   0  0  0  0  0  3  0  0  0  0  0  0
  187.3710  177.6650  146.4420 C   0  0  0  0  0  0  0  0  0  0  0  0
  186.7100  177.5850  147.6220 F   0  0  0  0  0  0  0  0  0  0  0  0
  189.0530  176.6320  135.7710 N   0  0  0  0  0  2  0  0  0  0  0  0
  188.2760  178.7450  136.3910 O   0  0  0  0  0  0  0  0  0  0  0  0
  188.2310  177.4940  136.5550 C   0  0  0  0  0  0  0  0  0  0  0  0
  189.9670  177.1470  134.7630 C   0  0  0  0  0  2  0  0  0  0  0  0
  192.3440  176.4410  134.7210 C   0  0  0  0  0  2  0  0  0  0  0  0
  190.6450  174.8330  135.0610 N   0  0  0  0  0  2  0  0  0  0  0  0
  190.9430  176.0620  134.3460 C   0  0  1  0  0  3  0  0  0  0  0  0
  191.8640  174.1460  135.2320 N   0  0  0  0  0  2  0  0  0  0  0  0
  192.9420  175.1280  135.1510 C   0  0  2  0  0  3  0  0  0  0  0  0
  193.6870  175.2590  136.4820 C   0  0  1  0  0  3  0  0  0  0  0  0
  192.9620  176.1690  137.4650 C   0  0  0  0  0  1  0  0  0  0  0  0
  194.8710  174.1750  138.0060 C   0  0  0  0  0  1  0  0  0  0  0  0
  193.8670  173.9970  137.0540 O   0  0  0  0  0  0  0  0  0  0  0  0
  1 15  2  0  0  0  0
  2  5  1  0  0  0  0
  2 12  1  0  0  0  0
  3  2  2  0  0  0  0
  4  1  1  0  0  0  0
  4 18  1  0  0  0  0
  6  9  1  0  0  0  0
  7  3  1  0  0  0  0
  7  8  2  0  0  0  0
  8 16  1  0  0  0  0
  9 21  1  1  0  0  0
 10  9  1  0  0  0  0
 11 28  1  6  0  0  0
 11 14  1  0  0  0  0
 13 11  1  0  0  0  0
 13  7  1  0  0  0  0
 14  8  1  0  0  0  0
 14  1  1  0  0  0  0
 15 17  1  0  0  0  0
 15  6  1  0  0  0  0
 16 12  2  0  0  0  0
 16 17  1  0  0  0  0
 18 10  1  0  0  0  0
 19 24  1  0  0  0  0
 20 19  2  0  0  0  0
 21 20  1  0  0  0  0
 21 23  2  0  0  0  0
 22 24  2  0  0  0  0
 23 22  1  0  0  0  0
 24 25  1  0  0  0  0
 26 28  1  0  0  0  0
 27 28  2  0  0  0  0
 29 26  1  0  0  0  0
 30 34  1  0  0  0  0
 31 33  1  0  0  0  0
 32 30  1  0  0  0  0
 32 29  1  1  0  0  0
 32 31  1  0  0  0  0
 34 33  1  0  0  0  0
 34 35  1  1  0  0  0
 35 38  1  0  0  0  0
 35 36  1  1  0  0  0
 38 37  1  0  0  0  0
M  END
>  <MODEL>
5

>  <REMARK>
 VINA RESULT:      -7.9      2.672      3.858
  Name = 
  6 active torsions:
  status: ('A' for Active; 'I' for Inactive)
    1  A    between atoms: C_10  and  O_26
    2  A    between atoms: C_10  and  C_36
    3  A    between atoms: C_14  and  C_15
    4  A    between atoms: C_18  and  C_33
    5  A    between atoms: C_19  and  C_20
    6  A    between atoms: C_19  and  N_24
                            x       y       z     vdW  Elec       q    Type
                         _______ _______ _______ _____ _____    ______ ____

>  <TORSDO>
F 6

$$$$
=
 OpenBabel10232408093D

 38 43  0  0  1  0  0  0  0  0999 V2000
  189.2050  177.5210  140.5600 C   0  0  0  0  0  0  0  0  0  0  0  0
  184.7820  178.2520  138.2260 C   0  0  0  0  0  0  0  0  0  0  0  0
  185.5360  177.3510  137.4380 C   0  0  0  0  0  3  0  0  0  0  0  0
  190.5520  176.9940  140.9680 C   0  0  0  0  0  2  0  0  0  0  0  0
  183.5020  178.6120  137.8260 O   0  0  0  0  0  1  0  0  0  0  0  0
  189.1150  178.8060  142.6780 C   0  0  0  0  0  2  0  0  0  0  0  0
  186.8250  177.0200  137.8680 C   0  0  0  0  0  0  0  0  0  0  0  0
  187.3170  177.5600  139.0050 C   0  0  0  0  0  0  0  0  0  0  0  0
  189.2010  177.6670  143.7120 C   0  0  2  0  0  3  0  0  0  0  0  0
  189.3130  176.2480  143.1250 C   0  0  0  0  0  2  0  0  0  0  0  0
  189.0180  176.1480  138.3100 C   0  0  2  0  0  3  0  0  0  0  0  0
  185.3170  178.7840  139.4260 C   0  0  0  0  0  3  0  0  0  0  0  0
  187.8360  176.0820  137.2910 C   0  0  0  0  0  2  0  0  0  0  0  0
  188.5980  177.1150  139.3240 N   0  0  0  0  0  0  0  0  0  0  0  0
  188.5210  178.3760  141.3670 C   0  0  0  0  0  0  0  0  0  0  0  0
  186.6130  178.4150  139.8190 C   0  0  0  0  0  0  0  0  0  0  0  0
  187.2320  178.8450  141.0040 O   0  0  0  0  0  0  0  0  0  0  0  0
  190.5050  176.0480  142.1790 C   0  0  0  0  0  2  0  0  0  0  0  0
  187.2630  177.6530  146.9650 C   0  0  0  0  0  3  0  0  0  0  0  0
  188.3120  177.5810  146.0450 C   0  0  0  0  0  3  0  0  0  0  0  0
  188.0620  177.7440  144.6780 C   0  0  0  0  0  0  0  0  0  0  0  0
  185.7020  178.0520  145.1570 C   0  0  0  0  0  3  0  0  0  0  0  0
  186.7510  177.9800  144.2360 C   0  0  0  0  0  3  0  0  0  0  0  0
  185.9580  177.8880  146.5210 C   0  0  0  0  0  0  0  0  0  0  0  0
  184.9420  177.9580  147.4150 F   0  0  0  0  0  0  0  0  0  0  0  0
  191.4960  175.9350  137.9040 N   0  0  0  0  0  2  0  0  0  0  0  0
  190.2380  177.5880  136.8370 O   0  0  0  0  0  0  0  0  0  0  0  0
  190.2680  176.6080  137.6320 C   0  0  0  0  0  0  0  0  0  0  0  0
  192.7500  176.3420  137.2890 C   0  0  0  0  0  2  0  0  0  0  0  0
  192.5130  173.9530  136.6660 C   0  0  0  0  0  2  0  0  0  0  0  0
  193.6760  175.4320  135.2350 N   0  0  0  0  0  2  0  0  0  0  0  0
  193.4190  175.1460  136.6360 C   0  0  1  0  0  3  0  0  0  0  0  0
  193.5970  174.2080  134.5410 N   0  0  0  0  0  2  0  0  0  0  0  0
  192.7780  173.2970  135.3370 C   0  0  2  0  0  3  0  0  0  0  0  0
  191.4750  172.9350  134.6190 C   0  0  1  0  0  3  0  0  0  0  0  0
  191.0150  171.5170  134.9340 C   0  0  0  0  0  1  0  0  0  0  0  0
  189.3200  173.3560  134.3460 C   0  0  0  0  0  1  0  0  0  0  0  0
  190.4720  173.8430  134.9630 O   0  0  0  0  0  0  0  0  0  0  0  0
  1  4  1  0  0  0  0
  1 15  2  0  0  0  0
  2 12  1  0  0  0  0
  3  7  1  0  0  0  0
  3  2  2  0  0  0  0
  4 18  1  0  0  0  0
  5  2  1  0  0  0  0
  6  9  1  0  0  0  0
  7  8  2  0  0  0  0
  8 14  1  0  0  0  0
  8 16  1  0  0  0  0
  9 21  1  6  0  0  0
 10  9  1  0  0  0  0
 11 28  1  6  0  0  0
 11 14  1  0  0  0  0
 12 16  2  0  0  0  0
 13  7  1  0  0  0  0
 13 11  1  0  0  0  0
 14  1  1  0  0  0  0
 15  6  1  0  0  0  0
 16 17  1  0  0  0  0
 17 15  1  0  0  0  0
 18 10  1  0  0  0  0
 20 19  2  0  0  0  0
 21 20  1  0  0  0  0
 22 24  2  0  0  0  0
 23 21  2  0  0  0  0
 23 22  1  0  0  0  0
 24 19  1  0  0  0  0
 24 25  1  0  0  0  0
 27 28  2  0  0  0  0
 28 26  1  0  0  0  0
 29 26  1  0  0  0  0
 31 32  1  0  0  0  0
 32 30  1  0  0  0  0
 32 29  1  6  0  0  0
 33 31  1  0  0  0  0
 33 34  1  0  0  0  0
 34 35  1  6  0  0  0
 34 30  1  0  0  0  0
 35 36  1  1  0  0  0
 35 38  1  0  0  0  0
 37 38  1  0  0  0  0
M  END
>  <MODEL>
6

>  <REMARK>
 VINA RESULT:      -7.7      2.815      3.674
  Name = 
  6 active torsions:
  status: ('A' for Active; 'I' for Inactive)
    1  A    between atoms: C_10  and  O_26
    2  A    between atoms: C_10  and  C_36
    3  A    between atoms: C_14  and  C_15
    4  A    between atoms: C_18  and  C_33
    5  A    between atoms: C_19  and  C_20
    6  A    between atoms: C_19  and  N_24
                            x       y       z     vdW  Elec       q    Type
                         _______ _______ _______ _____ _____    ______ ____

>  <TORSDO>
F 6

$$$$
=
 OpenBabel10232408093D

 38 43  0  0  1  0  0  0  0  0999 V2000
  186.9390  177.6280  141.8930 C   0  0  0  0  0  0  0  0  0  0  0  0
  191.7800  177.1650  140.5150 C   0  0  0  0  0  0  0  0  0  0  0  0
  191.1140  177.8900  139.4990 C   0  0  0  0  0  3  0  0  0  0  0  0
  185.4960  178.0390  141.9800 C   0  0  0  0  0  2  0  0  0  0  0  0
  193.1410  176.9130  140.4040 O   0  0  0  0  0  1  0  0  0  0  0  0
  186.7320  176.5860  144.1320 C   0  0  0  0  0  2  0  0  0  0  0  0
  189.7420  178.1150  139.6420 C   0  0  0  0  0  0  0  0  0  0  0  0
  189.0890  177.6430  140.7260 C   0  0  0  0  0  0  0  0  0  0  0  0
  186.3420  177.8080  144.9860 C   0  0  2  0  0  3  0  0  0  0  0  0
  186.2180  179.1370  144.2190 C   0  0  0  0  0  2  0  0  0  0  0  0
  187.4340  178.7750  139.5640 C   0  0  2  0  0  3  0  0  0  0  0  0
  191.0720  176.7020  141.6520 C   0  0  0  0  0  3  0  0  0  0  0  0
  188.7810  178.8690  138.7780 C   0  0  0  0  0  2  0  0  0  0  0  0
  187.7360  177.9710  140.7490 N   0  0  0  0  0  0  0  0  0  0  0  0
  187.5280  176.9430  142.9100 C   0  0  0  0  0  0  0  0  0  0  0  0
  189.6960  176.9610  141.7540 C   0  0  0  0  0  0  0  0  0  0  0  0
  188.9000  176.5890  142.8490 O   0  0  0  0  0  0  0  0  0  0  0  0
  185.2200  179.1030  143.0540 C   0  0  0  0  0  2  0  0  0  0  0  0
  189.5200  177.8040  147.0470 C   0  0  0  0  0  3  0  0  0  0  0  0
  188.6310  177.6660  145.9770 C   0  0  0  0  0  3  0  0  0  0  0  0
  187.2740  177.9600  146.1460 C   0  0  0  0  0  0  0  0  0  0  0  0
  187.6990  178.5350  148.4660 C   0  0  0  0  0  3  0  0  0  0  0  0
  186.8100  178.3970  147.3970 C   0  0  0  0  0  3  0  0  0  0  0  0
  189.0530  178.2390  148.2910 C   0  0  0  0  0  0  0  0  0  0  0  0
  189.9160  178.3730  149.3280 F   0  0  0  0  0  0  0  0  0  0  0  0
  186.7690  177.0640  137.8380 N   0  0  0  0  0  2  0  0  0  0  0  0
  185.1820  178.4760  138.8080 O   0  0  0  0  0  0  0  0  0  0  0  0
  186.3870  178.1090  138.7300 C   0  0  0  0  0  0  0  0  0  0  0  0
  185.8020  176.3860  136.9880 C   0  0  0  0  0  2  0  0  0  0  0  0
  187.6880  175.5940  135.5840 C   0  0  0  0  0  2  0  0  0  0  0  0
  186.8720  174.2320  137.3360 N   0  0  0  0  0  2  0  0  0  0  0  0
  186.4490  175.1850  136.3230 C   0  0  1  0  0  3  0  0  0  0  0  0
  188.0120  173.5720  136.8350 N   0  0  0  0  0  2  0  0  0  0  0  0
  188.6210  174.4380  135.8300 C   0  0  2  0  0  3  0  0  0  0  0  0
  190.0080  174.9190  136.2650 C   0  0  1  0  0  3  0  0  0  0  0  0
  190.1410  176.4360  136.2070 C   0  0  0  0  0  1  0  0  0  0  0  0
  191.6560  174.6640  137.7210 C   0  0  0  0  0  1  0  0  0  0  0  0
  190.2830  174.4710  137.5590 O   0  0  0  0  0  0  0  0  0  0  0  0
  1  4  1  0  0  0  0
  1 15  2  0  0  0  0
  2 12  1  0  0  0  0
  3  7  1  0  0  0  0
  3  2  2  0  0  0  0
  4 18  1  0  0  0  0
  5  2  1  0  0  0  0
  6  9  1  0  0  0  0
  7  8  2  0  0  0  0
  8 14  1  0  0  0  0
  8 16  1  0  0  0  0
  9 21  1  1  0  0  0
 10  9  1  0  0  0  0
 11 28  1  6  0  0  0
 11 14  1  0  0  0  0
 12 16  2  0  0  0  0
 13 11  1  0  0  0  0
 13  7  1  0  0  0  0
 14  1  1  0  0  0  0
 15  6  1  0  0  0  0
 16 17  1  0  0  0  0
 17 15  1  0  0  0  0
 18 10  1  0  0  0  0
 19 24  1  0  0  0  0
 20 21  1  0  0  0  0
 20 19  2  0  0  0  0
 21 23  2  0  0  0  0
 23 22  1  0  0  0  0
 24 22  2  0  0  0  0
 24 25  1  0  0  0  0
 26 28  1  0  0  0  0
 28 27  2  0  0  0  0
 29 26  1  0  0  0  0
 30 34  1  0  0  0  0
 30 32  1  0  0  0  0
 32 29  1  1  0  0  0
 32 31  1  0  0  0  0
 33 31  1  0  0  0  0
 34 35  1  1  0  0  0
 34 33  1  0  0  0  0
 35 36  1  1  0  0  0
 35 38  1  0  0  0  0
 38 37  1  0  0  0  0
M  END
>  <MODEL>
7

>  <REMARK>
 VINA RESULT:      -7.6      3.806      6.217
  Name = 
  6 active torsions:
  status: ('A' for Active; 'I' for Inactive)
    1  A    between atoms: C_10  and  O_26
    2  A    between atoms: C_10  and  C_36
    3  A    between atoms: C_14  and  C_15
    4  A    between atoms: C_18  and  C_33
    5  A    between atoms: C_19  and  C_20
    6  A    between atoms: C_19  and  N_24
                            x       y       z     vdW  Elec       q    Type
                         _______ _______ _______ _____ _____    ______ ____

>  <TORSDO>
F 6

$$$$
=
 OpenBabel10232408093D

 38 43  0  0  1  0  0  0  0  0999 V2000
  185.9740  177.7700  143.6240 C   0  0  0  0  0  0  0  0  0  0  0  0
  189.6210  177.3300  140.1530 C   0  0  0  0  0  0  0  0  0  0  0  0
  188.6170  178.1700  139.6140 C   0  0  0  0  0  3  0  0  0  0  0  0
  184.7590  178.2060  144.3940 C   0  0  0  0  0  2  0  0  0  0  0  0
  190.7620  177.0570  139.4110 O   0  0  0  0  0  1  0  0  0  0  0  0
  186.7350  176.5140  145.6210 C   0  0  0  0  0  2  0  0  0  0  0  0
  187.4780  178.4130  140.3860 C   0  0  0  0  0  0  0  0  0  0  0  0
  187.3570  177.8510  141.6090 C   0  0  0  0  0  0  0  0  0  0  0  0
  186.8580  177.6530  146.6510 C   0  0  2  0  0  3  0  0  0  0  0  0
  186.4900  179.0550  146.1340 C   0  0  0  0  0  2  0  0  0  0  0  0
  185.4360  179.1340  141.4260 C   0  0  2  0  0  3  0  0  0  0  0  0
  189.4750  176.7730  141.4470 C   0  0  0  0  0  3  0  0  0  0  0  0
  186.2830  179.2740  140.1210 C   0  0  0  0  0  2  0  0  0  0  0  0
  186.1870  178.2080  142.2740 N   0  0  0  0  0  0  0  0  0  0  0  0
  186.9120  176.9730  144.2020 C   0  0  0  0  0  0  0  0  0  0  0  0
  188.3160  177.0540  142.1880 C   0  0  0  0  0  0  0  0  0  0  0  0
  188.0800  176.5920  143.4920 O   0  0  0  0  0  0  0  0  0  0  0  0
  185.0730  179.1630  145.5550 C   0  0  0  0  0  2  0  0  0  0  0  0
  190.5280  176.9150  147.2260 C   0  0  0  0  0  3  0  0  0  0  0  0
  189.2450  176.9160  146.6710 C   0  0  0  0  0  3  0  0  0  0  0  0
  188.2220  177.6640  147.2640 C   0  0  0  0  0  0  0  0  0  0  0  0
  189.7760  178.4130  148.9730 C   0  0  0  0  0  3  0  0  0  0  0  0
  188.4930  178.4150  148.4190 C   0  0  0  0  0  3  0  0  0  0  0  0
  190.7930  177.6630  148.3760 C   0  0  0  0  0  0  0  0  0  0  0  0
  192.0370  177.6610  148.9130 F   0  0  0  0  0  0  0  0  0  0  0  0
  183.8960  177.8300  139.9160 N   0  0  0  0  0  2  0  0  0  0  0  0
  183.1150  178.7880  141.8970 O   0  0  0  0  0  0  0  0  0  0  0  0
  184.0830  178.5820  141.1140 C   0  0  0  0  0  0  0  0  0  0  0  0
  182.6020  177.2790  139.5470 C   0  0  0  0  0  2  0  0  0  0  0  0
  183.5870  177.2750  137.2700 C   0  0  0  0  0  2  0  0  0  0  0  0
  183.3570  175.2420  138.4560 N   0  0  0  0  0  2  0  0  0  0  0  0
  182.7150  176.5270  138.2330 C   0  0  1  0  0  3  0  0  0  0  0  0
  184.0660  174.9240  137.2810 N   0  0  0  0  0  2  0  0  0  0  0  0
  184.3390  176.1730  136.5740 C   0  0  2  0  0  3  0  0  0  0  0  0
  185.8400  176.4690  136.5090 C   0  0  1  0  0  3  0  0  0  0  0  0
  186.1630  177.9080  136.8900 C   0  0  0  0  0  1  0  0  0  0  0  0
  187.8680  175.7000  136.9500 C   0  0  0  0  0  1  0  0  0  0  0  0
  186.5350  175.5930  137.3460 O   0  0  0  0  0  0  0  0  0  0  0  0
  1 15  2  0  0  0  0
  1  4  1  0  0  0  0
  2 12  1  0  0  0  0
  3  2  2  0  0  0  0
  3  7  1  0  0  0  0
  4 18  1  0  0  0  0
  5  2  1  0  0  0  0
  6  9  1  0  0  0  0
  7  8  2  0  0  0  0
  8 16  1  0  0  0  0
  8 14  1  0  0  0  0
  9 21  1  6  0  0  0
 10  9  1  0  0  0  0
 11 28  1  6  0  0  0
 11 14  1  0  0  0  0
 12 16  2  0  0  0  0
 13  7  1  0  0  0  0
 13 11  1  0  0  0  0
 14  1  1  0  0  0  0
 15  6  1  0  0  0  0
 16 17  1  0  0  0  0
 17 15  1  0  0  0  0
 18 10  1  0  0  0  0
 19 24  1  0  0  0  0
 20 19  2  0  0  0  0
 20 21  1  0  0  0  0
 21 23  2  0  0  0  0
 23 22  1  0  0  0  0
 24 25  1  0  0  0  0
 24 22  2  0  0  0  0
 26 28  1  0  0  0  0
 28 27  2  0  0  0  0
 29 26  1  0  0  0  0
 30 32  1  0  0  0  0
 32 31  1  0  0  0  0
 32 29  1  1  0  0  0
 33 31  1  0  0  0  0
 34 35  1  1  0  0  0
 34 30  1  0  0  0  0
 34 33  1  0  0  0  0
 35 36  1  1  0  0  0
 35 38  1  0  0  0  0
 37 38  1  0  0  0  0
M  END
>  <MODEL>
8

>  <REMARK>
 VINA RESULT:      -7.5      5.274      8.251
  Name = 
  6 active torsions:
  status: ('A' for Active; 'I' for Inactive)
    1  A    between atoms: C_10  and  O_26
    2  A    between atoms: C_10  and  C_36
    3  A    between atoms: C_14  and  C_15
    4  A    between atoms: C_18  and  C_33
    5  A    between atoms: C_19  and  C_20
    6  A    between atoms: C_19  and  N_24
                            x       y       z     vdW  Elec       q    Type
                         _______ _______ _______ _____ _____    ______ ____

>  <TORSDO>
F 6

$$$$
=
 OpenBabel10232408093D

 38 43  0  0  1  0  0  0  0  0999 V2000
  185.9350  177.7550  143.6780 C   0  0  0  0  0  0  0  0  0  0  0  0
  189.5460  177.3490  140.1660 C   0  0  0  0  0  0  0  0  0  0  0  0
  188.5290  178.1790  139.6380 C   0  0  0  0  0  3  0  0  0  0  0  0
  184.7240  178.1790  144.4610 C   0  0  0  0  0  2  0  0  0  0  0  0
  190.6820  177.0860  139.4120 O   0  0  0  0  0  1  0  0  0  0  0  0
  186.7290  176.5060  145.6660 C   0  0  0  0  0  2  0  0  0  0  0  0
  187.3960  178.4120  140.4230 C   0  0  0  0  0  0  0  0  0  0  0  0
  187.2940  177.8480  141.6470 C   0  0  0  0  0  0  0  0  0  0  0  0
  186.8530  177.6460  146.6940 C   0  0  2  0  0  3  0  0  0  0  0  0
  186.4660  179.0440  146.1810 C   0  0  0  0  0  2  0  0  0  0  0  0
  185.3600  179.1130  141.4860 C   0  0  2  0  0  3  0  0  0  0  0  0
  189.4210  176.7900  141.4620 C   0  0  0  0  0  3  0  0  0  0  0  0
  186.1910  179.2620  140.1710 C   0  0  0  0  0  2  0  0  0  0  0  0
  186.1280  178.1940  142.3250 N   0  0  0  0  0  0  0  0  0  0  0  0
  186.8870  176.9660  144.2450 C   0  0  0  0  0  0  0  0  0  0  0  0
  188.2670  177.0600  142.2150 C   0  0  0  0  0  0  0  0  0  0  0  0
  188.0500  176.5960  143.5220 O   0  0  0  0  0  0  0  0  0  0  0  0
  185.0420  179.1390  145.6190 C   0  0  0  0  0  2  0  0  0  0  0  0
  190.5390  176.9530  147.2210 C   0  0  0  0  0  3  0  0  0  0  0  0
  189.2500  176.9410  146.6810 C   0  0  0  0  0  3  0  0  0  0  0  0
  188.2240  177.6690  147.2930 C   0  0  0  0  0  0  0  0  0  0  0  0
  189.7850  178.4230  148.9910 C   0  0  0  0  0  3  0  0  0  0  0  0
  188.4970  178.4120  148.4520 C   0  0  0  0  0  3  0  0  0  0  0  0
  190.8060  177.6930  148.3760 C   0  0  0  0  0  0  0  0  0  0  0  0
  192.0560  177.7030  148.8990 F   0  0  0  0  0  0  0  0  0  0  0  0
  183.8530  177.6580  140.0850 N   0  0  0  0  0  2  0  0  0  0  0  0
  183.0150  178.8650  141.9000 O   0  0  0  0  0  0  0  0  0  0  0  0
  184.0080  178.5490  141.1880 C   0  0  0  0  0  0  0  0  0  0  0  0
  182.5620  177.0860  139.7340 C   0  0  0  0  0  2  0  0  0  0  0  0
  184.0100  176.4990  137.8070 C   0  0  0  0  0  2  0  0  0  0  0  0
  182.0950  175.1950  138.2800 N   0  0  0  0  0  2  0  0  0  0  0  0
  182.6000  176.5580  138.3110 C   0  0  1  0  0  3  0  0  0  0  0  0
  182.7660  174.5290  137.2350 N   0  0  0  0  0  2  0  0  0  0  0  0
  184.0210  175.2350  136.9910 C   0  0  2  0  0  3  0  0  0  0  0  0
  185.2340  174.3610  137.3250 C   0  0  1  0  0  3  0  0  0  0  0  0
  184.8370  172.9420  137.7110 C   0  0  0  0  0  1  0  0  0  0  0  0
  186.3040  172.9690  135.9770 C   0  0  0  0  0  1  0  0  0  0  0  0
  186.1100  174.3260  136.2380 O   0  0  0  0  0  0  0  0  0  0  0  0
  1 15  2  0  0  0  0
  1  4  1  0  0  0  0
  2 12  1  0  0  0  0
  3  2  2  0  0  0  0
  3  7  1  0  0  0  0
  4 18  1  0  0  0  0
  5  2  1  0  0  0  0
  6  9  1  0  0  0  0
  7  8  2  0  0  0  0
  8 16  1  0  0  0  0
  8 14  1  0  0  0  0
  9 21  1  6  0  0  0
 10  9  1  0  0  0  0
 11 28  1  6  0  0  0
 11 14  1  0  0  0  0
 12 16  2  0  0  0  0
 13  7  1  0  0  0  0
 13 11  1  0  0  0  0
 14  1  1  0  0  0  0
 15  6  1  0  0  0  0
 16 17  1  0  0  0  0
 17 15  1  0  0  0  0
 18 10  1  0  0  0  0
 19 24  1  0  0  0  0
 20 19  2  0  0  0  0
 20 21  1  0  0  0  0
 21 23  2  0  0  0  0
 23 22  1  0  0  0  0
 24 25  1  0  0  0  0
 24 22  2  0  0  0  0
 26 28  1  0  0  0  0
 28 27  2  0  0  0  0
 29 26  1  0  0  0  0
 30 32  1  0  0  0  0
 31 32  1  0  0  0  0
 32 29  1  1  0  0  0
 33 31  1  0  0  0  0
 34 33  1  0  0  0  0
 34 35  1  1  0  0  0
 34 30  1  0  0  0  0
 35 36  1  6  0  0  0
 37 38  1  0  0  0  0
 38 35  1  0  0  0  0
M  END
>  <MODEL>
9

>  <REMARK>
 VINA RESULT:      -7.3      5.431      8.516
  Name = 
  6 active torsions:
  status: ('A' for Active; 'I' for Inactive)
    1  A    between atoms: C_10  and  O_26
    2  A    between atoms: C_10  and  C_36
    3  A    between atoms: C_14  and  C_15
    4  A    between atoms: C_18  and  C_33
    5  A    between atoms: C_19  and  C_20
    6  A    between atoms: C_19  and  N_24
                            x       y       z     vdW  Elec       q    Type
                         _______ _______ _______ _____ _____    ______ ____

>  <TORSDO>
F 6

$$$$
