=
 OpenBabel10222421293D

 34 39  0  0  1  0  0  0  0  0999 V2000
  187.9060  178.6490  147.7620 N   0  0  0  0  0  0  0  0  0  0  0  0
  189.9790  177.6440  148.2360 N   0  0  0  0  0  0  0  0  0  0  0  0
  188.9670  178.4800  148.5900 C   0  0  0  0  0  3  0  0  0  0  0  0
  191.1130  176.0940  146.7000 C   0  0  0  0  0  1  0  0  0  0  0  0
  187.8280  178.0060  146.5610 C   0  0  0  0  0  0  0  0  0  0  0  0
  189.9660  176.9850  147.0460 C   0  0  0  0  0  0  0  0  0  0  0  0
  188.9020  177.1770  146.1550 C   0  0  0  0  0  0  0  0  0  0  0  0
  185.4190  178.0700  143.6490 C   0  0  0  0  0  3  0  0  0  0  0  0
  184.2320  178.4920  144.2650 C   0  0  0  0  0  0  0  0  0  0  0  0
  186.5850  177.9020  144.4010 C   0  0  0  0  0  3  0  0  0  0  0  0
  184.2370  178.7830  145.6380 C   0  0  0  0  0  3  0  0  0  0  0  0
  185.4020  178.6170  146.3900 C   0  0  0  0  0  3  0  0  0  0  0  0
  186.5770  178.1440  145.7840 C   0  0  0  0  0  0  0  0  0  0  0  0
  183.0560  178.6420  142.0480 N   0  0  0  0  0  2  0  0  0  0  0  0
  182.9980  178.6520  143.4770 C   0  0  0  0  0  0  0  0  0  0  0  0
  181.8890  178.7830  144.0610 O   0  0  0  0  0  0  0  0  0  0  0  0
  182.2680  179.2060  139.9280 O   0  0  0  0  0  0  0  0  0  0  0  0
  181.8730  178.8450  141.2310 C   0  0  1  0  0  3  0  0  0  0  0  0
  181.8590  177.8760  140.1140 C   0  0  0  0  0  2  0  0  0  0  0  0
  188.9880  176.5960  144.8460 N   0  0  0  0  0  2  0  0  0  0  0  0
  189.3590  176.3770  142.5880 C   0  0  2  0  0  3  0  0  0  0  0  0
  189.4130  177.3160  143.7230 N   0  0  0  0  0  0  0  0  0  0  0  0
  190.6350  176.6470  143.2460 C   0  0  0  0  0  2  0  0  0  0  0  0
  188.1510  178.6290  139.8090 N   0  0  0  0  0  0  0  0  0  0  0  0
  190.3710  177.1410  140.3970 O   0  0  0  0  0  0  0  0  0  0  0  0
  190.2420  177.6040  139.0490 C   0  0  2  0  0  3  0  0  0  0  0  0
  188.2010  177.8460  141.0080 C   0  0  0  0  0  3  0  0  0  0  0  0
  189.2910  177.1300  141.2940 C   0  0  0  0  0  0  0  0  0  0  0  0
  189.0060  179.4060  137.7570 N   0  0  0  0  0  1  0  0  0  0  0  0
  189.1000  178.5850  138.9170 C   0  0  0  0  0  0  0  0  0  0  0  0
  192.4710  176.4510  137.9130 C   0  0  0  0  0  1  0  0  0  0  0  0
  191.2360  175.7420  137.6060 N   0  0  0  0  0  0  0  0  0  0  0  0
  190.0030  176.3960  138.1320 C   0  0  2  0  0  3  0  0  0  0  0  0
  190.4530  176.6660  136.7710 C   0  0  0  0  0  2  0  0  0  0  0  0
  1  3  1  0  0  0  0
  2  3  2  0  0  0  0
  4  6  1  0  0  0  0
  5  1  2  0  0  0  0
  6  2  1  0  0  0  0
  7  5  1  0  0  0  0
  7  6  2  0  0  0  0
  8  9  2  0  0  0  0
  8 10  1  0  0  0  0
  9 11  1  0  0  0  0
 10 13  2  0  0  0  0
 11 12  2  0  0  0  0
 13 12  1  0  0  0  0
 13  5  1  0  0  0  0
 14 15  1  0  0  0  0
 15 16  2  0  0  0  0
 15  9  1  0  0  0  0
 17 19  1  0  0  0  0
 17 18  1  0  0  0  0
 18 14  1  1  0  0  0
 19 18  1  0  0  0  0
 20  7  1  0  0  0  0
 21 28  1  6  0  0  0
 21 23  1  0  0  0  0
 21 22  1  0  0  0  0
 22 20  1  0  0  0  0
 23 22  1  0  0  0  0
 24 27  1  0  0  0  0
 25 28  1  0  0  0  0
 26 30  1  1  0  0  0
 26 25  1  0  0  0  0
 27 28  2  0  0  0  0
 29 30  1  0  0  0  0
 30 24  2  0  0  0  0
 32 31  1  0  0  0  0
 32 33  1  0  0  0  0
 33 34  1  6  0  0  0
 33 26  1  0  0  0  0
 34 32  1  0  0  0  0
M  END
>  <MODEL>
1

>  <REMARK>
 VINA RESULT:      -9.6      0.000      0.000
  Name = 
  7 active torsions:
  status: ('A' for Active; 'I' for Inactive)
    1  A    between atoms: C_8  and  C_15
    2  A    between atoms: C_9  and  C_18
    3  A    between atoms: N_10  and  N_32
    4  A    between atoms: N_11  and  C_26
    5  A    between atoms: C_13  and  C_16
    6  A    between atoms: C_25  and  C_31
    7  A    between atoms: N_32  and  C_34
                            x       y       z     vdW  Elec       q    Type
                         _______ _______ _______ _____ _____    ______ ____

>  <TORSDO>
F 7

$$$$
=
 OpenBabel10222421293D

 34 39  0  0  1  0  0  0  0  0999 V2000
  187.6530  177.5070  147.2300 N   0  0  0  0  0  0  0  0  0  0  0  0
  189.9210  176.9130  147.4270 N   0  0  0  0  0  0  0  0  0  0  0  0
  188.6990  177.0990  147.9920 C   0  0  0  0  0  3  0  0  0  0  0  0
  191.4970  176.9490  145.5390 C   0  0  0  0  0  1  0  0  0  0  0  0
  187.7960  177.7520  145.8960 C   0  0  0  0  0  0  0  0  0  0  0  0
  190.1300  177.1530  146.1040 C   0  0  0  0  0  0  0  0  0  0  0  0
  189.0770  177.6170  145.3050 C   0  0  0  0  0  0  0  0  0  0  0  0
  184.2660  178.8090  145.0540 C   0  0  0  0  0  3  0  0  0  0  0  0
  184.2150  178.5740  143.6730 C   0  0  0  0  0  0  0  0  0  0  0  0
  185.4370  178.5510  145.7730 C   0  0  0  0  0  3  0  0  0  0  0  0
  185.3400  178.0390  143.0260 C   0  0  0  0  0  3  0  0  0  0  0  0
  186.5100  177.7800  143.7440 C   0  0  0  0  0  3  0  0  0  0  0  0
  186.5780  178.0640  145.1170 C   0  0  0  0  0  0  0  0  0  0  0  0
  182.9020  178.5050  141.5290 N   0  0  0  0  0  2  0  0  0  0  0  0
  182.9880  178.8630  142.9110 C   0  0  0  0  0  0  0  0  0  0  0  0
  182.0080  179.4150  143.4800 O   0  0  0  0  0  0  0  0  0  0  0  0
  181.9770  178.4420  139.3920 O   0  0  0  0  0  0  0  0  0  0  0  0
  181.7330  178.8150  140.7270 C   0  0  1  0  0  3  0  0  0  0  0  0
  181.1750  177.5730  140.1480 C   0  0  0  0  0  2  0  0  0  0  0  0
  189.3590  178.0110  143.9560 N   0  0  0  0  0  2  0  0  0  0  0  0
  189.5950  177.3860  141.7560 C   0  0  2  0  0  3  0  0  0  0  0  0
  190.1800  177.2620  143.1030 N   0  0  0  0  0  0  0  0  0  0  0  0
  189.3300  176.1910  142.5540 C   0  0  0  0  0  2  0  0  0  0  0  0
  192.8330  177.3410  139.8160 N   0  0  0  0  0  0  0  0  0  0  0  0
  190.3860  176.1220  139.7110 O   0  0  0  0  0  0  0  0  0  0  0  0
  191.2170  176.0050  138.5510 C   0  0  2  0  0  3  0  0  0  0  0  0
  191.8130  177.6810  140.7630 C   0  0  0  0  0  3  0  0  0  0  0  0
  190.6250  177.0750  140.7120 C   0  0  0  0  0  0  0  0  0  0  0  0
  193.6700  176.2080  137.9290 N   0  0  0  0  0  1  0  0  0  0  0  0
  192.6080  176.5280  138.8220 C   0  0  0  0  0  0  0  0  0  0  0  0
  189.3920  174.6570  136.9880 C   0  0  0  0  0  1  0  0  0  0  0  0
  189.5270  176.0630  136.6330 N   0  0  0  0  0  0  0  0  0  0  0  0
  190.5750  176.7950  137.4010 C   0  0  2  0  0  3  0  0  0  0  0  0
  190.8940  176.2030  136.1080 C   0  0  0  0  0  2  0  0  0  0  0  0
  1  3  1  0  0  0  0
  2  3  2  0  0  0  0
  4  6  1  0  0  0  0
  5  1  2  0  0  0  0
  6  2  1  0  0  0  0
  7  5  1  0  0  0  0
  7  6  2  0  0  0  0
  8 10  1  0  0  0  0
  9  8  2  0  0  0  0
 11  9  1  0  0  0  0
 11 12  2  0  0  0  0
 12 13  1  0  0  0  0
 13 10  2  0  0  0  0
 13  5  1  0  0  0  0
 14 15  1  0  0  0  0
 15 16  2  0  0  0  0
 15  9  1  0  0  0  0
 17 19  1  0  0  0  0
 17 18  1  0  0  0  0
 18 14  1  1  0  0  0
 19 18  1  0  0  0  0
 20  7  1  0  0  0  0
 21 28  1  6  0  0  0
 21 23  1  0  0  0  0
 21 22  1  0  0  0  0
 22 20  1  0  0  0  0
 23 22  1  0  0  0  0
 24 27  1  0  0  0  0
 25 28  1  0  0  0  0
 26 30  1  1  0  0  0
 26 25  1  0  0  0  0
 28 27  2  0  0  0  0
 29 30  1  0  0  0  0
 30 24  2  0  0  0  0
 32 31  1  0  0  0  0
 32 33  1  0  0  0  0
 33 34  1  6  0  0  0
 33 26  1  0  0  0  0
 34 32  1  0  0  0  0
M  END
>  <MODEL>
2

>  <REMARK>
 VINA RESULT:      -9.1      1.461      2.162
  Name = 
  7 active torsions:
  status: ('A' for Active; 'I' for Inactive)
    1  A    between atoms: C_8  and  C_15
    2  A    between atoms: C_9  and  C_18
    3  A    between atoms: N_10  and  N_32
    4  A    between atoms: N_11  and  C_26
    5  A    between atoms: C_13  and  C_16
    6  A    between atoms: C_25  and  C_31
    7  A    between atoms: N_32  and  C_34
                            x       y       z     vdW  Elec       q    Type
                         _______ _______ _______ _____ _____    ______ ____

>  <TORSDO>
F 7

$$$$
=
 OpenBabel10222421293D

 34 39  0  0  1  0  0  0  0  0999 V2000
  181.0800  178.2510  141.9290 N   0  0  0  0  0  0  0  0  0  0  0  0
  180.4280  178.7580  139.7260 N   0  0  0  0  0  0  0  0  0  0  0  0
  180.1240  178.2930  140.9670 C   0  0  0  0  0  3  0  0  0  0  0  0
  181.9700  179.6490  138.0310 C   0  0  0  0  0  1  0  0  0  0  0  0
  182.3590  178.6560  141.6820 C   0  0  0  0  0  0  0  0  0  0  0  0
  181.6880  179.1650  139.4150 C   0  0  0  0  0  0  0  0  0  0  0  0
  182.7030  179.0900  140.3780 C   0  0  0  0  0  0  0  0  0  0  0  0
  185.5250  178.3110  143.7170 C   0  0  0  0  0  3  0  0  0  0  0  0
  185.0910  178.6900  144.9950 C   0  0  0  0  0  0  0  0  0  0  0  0
  184.6360  178.3120  142.6380 C   0  0  0  0  0  3  0  0  0  0  0  0
  183.7430  179.0320  145.1880 C   0  0  0  0  0  3  0  0  0  0  0  0
  182.8540  179.0320  144.1110 C   0  0  0  0  0  3  0  0  0  0  0  0
  183.3010  178.7020  142.8210 C   0  0  0  0  0  0  0  0  0  0  0  0
  187.2590  177.9800  146.0510 N   0  0  0  0  0  2  0  0  0  0  0  0
  186.0310  178.7080  146.1280 C   0  0  0  0  0  0  0  0  0  0  0  0
  185.7590  179.3750  147.1630 O   0  0  0  0  0  0  0  0  0  0  0  0
  188.4070  176.5840  147.5210 O   0  0  0  0  0  0  0  0  0  0  0  0
  188.1930  177.9280  147.1610 C   0  0  1  0  0  3  0  0  0  0  0  0
  189.4140  177.1970  146.7600 C   0  0  0  0  0  2  0  0  0  0  0  0
  184.0510  179.3750  139.9800 N   0  0  0  0  0  2  0  0  0  0  0  0
  186.0670  178.9340  138.9660 C   0  0  2  0  0  3  0  0  0  0  0  0
  185.0310  178.3820  139.8570 N   0  0  0  0  0  0  0  0  0  0  0  0
  185.0650  178.0150  138.4310 C   0  0  0  0  0  2  0  0  0  0  0  0
  188.9990  176.6220  138.4160 N   0  0  0  0  0  0  0  0  0  0  0  0
  188.2240  178.5240  140.2240 O   0  0  0  0  0  0  0  0  0  0  0  0
  189.3140  177.6770  140.6040 C   0  0  2  0  0  3  0  0  0  0  0  0
  187.7300  177.2740  138.2820 C   0  0  0  0  0  3  0  0  0  0  0  0
  187.3630  178.2080  139.1620 C   0  0  0  0  0  0  0  0  0  0  0  0
  191.0380  176.1730  139.5050 N   0  0  0  0  0  1  0  0  0  0  0  0
  189.7770  176.8310  139.4420 C   0  0  0  0  0  0  0  0  0  0  0  0
  190.0300  178.4650  143.1450 C   0  0  0  0  0  1  0  0  0  0  0  0
  189.1860  177.2780  143.1260 N   0  0  0  0  0  0  0  0  0  0  0  0
  188.8590  176.7750  141.7610 C   0  0  2  0  0  3  0  0  0  0  0  0
  190.0000  176.2310  142.4880 C   0  0  0  0  0  2  0  0  0  0  0  0
  2  3  1  0  0  0  0
  3  1  2  0  0  0  0
  4  6  1  0  0  0  0
  5  1  1  0  0  0  0
  5 13  1  0  0  0  0
  6  2  2  0  0  0  0
  6  7  1  0  0  0  0
  7  5  2  0  0  0  0
  8  9  1  0  0  0  0
  9 11  2  0  0  0  0
  9 15  1  0  0  0  0
 10 13  1  0  0  0  0
 10  8  2  0  0  0  0
 12 11  1  0  0  0  0
 13 12  2  0  0  0  0
 14 15  1  0  0  0  0
 15 16  2  0  0  0  0
 18 14  1  6  0  0  0
 18 17  1  0  0  0  0
 19 18  1  0  0  0  0
 19 17  1  0  0  0  0
 20  7  1  0  0  0  0
 21 28  1  1  0  0  0
 21 22  1  0  0  0  0
 22 20  1  0  0  0  0
 23 21  1  0  0  0  0
 23 22  1  0  0  0  0
 24 30  2  0  0  0  0
 25 26  1  0  0  0  0
 26 30  1  6  0  0  0
 26 33  1  0  0  0  0
 27 24  1  0  0  0  0
 27 28  2  0  0  0  0
 28 25  1  0  0  0  0
 30 29  1  0  0  0  0
 32 31  1  0  0  0  0
 33 34  1  6  0  0  0
 33 32  1  0  0  0  0
 34 32  1  0  0  0  0
M  END
>  <MODEL>
3

>  <REMARK>
 VINA RESULT:      -8.8      2.357      6.786
  Name = 
  7 active torsions:
  status: ('A' for Active; 'I' for Inactive)
    1  A    between atoms: C_8  and  C_15
    2  A    between atoms: C_9  and  C_18
    3  A    between atoms: N_10  and  N_32
    4  A    between atoms: N_11  and  C_26
    5  A    between atoms: C_13  and  C_16
    6  A    between atoms: C_25  and  C_31
    7  A    between atoms: N_32  and  C_34
                            x       y       z     vdW  Elec       q    Type
                         _______ _______ _______ _____ _____    ______ ____

>  <TORSDO>
F 7

$$$$
=
 OpenBabel10222421293D

 34 39  0  0  1  0  0  0  0  0999 V2000
  191.5540  176.6760  139.3790 N   0  0  0  0  0  0  0  0  0  0  0  0
  190.4470  177.0710  137.3410 N   0  0  0  0  0  0  0  0  0  0  0  0
  191.5050  176.5640  138.0270 C   0  0  0  0  0  3  0  0  0  0  0  0
  188.3070  178.2720  137.1750 C   0  0  0  0  0  1  0  0  0  0  0  0
  190.5650  177.3020  140.0790 C   0  0  0  0  0  0  0  0  0  0  0  0
  189.4360  177.7180  137.9810 C   0  0  0  0  0  0  0  0  0  0  0  0
  189.4850  177.8850  139.3710 C   0  0  0  0  0  0  0  0  0  0  0  0
  190.1280  176.1270  143.6450 C   0  0  0  0  0  3  0  0  0  0  0  0
  190.6620  177.2020  144.3710 C   0  0  0  0  0  0  0  0  0  0  0  0
  190.1080  176.1580  142.2470 C   0  0  0  0  0  3  0  0  0  0  0  0
  191.1400  178.3270  143.6800 C   0  0  0  0  0  3  0  0  0  0  0  0
  191.1190  178.3590  142.2840 C   0  0  0  0  0  3  0  0  0  0  0  0
  190.6320  177.2610  141.5560 C   0  0  0  0  0  0  0  0  0  0  0  0
  189.4980  177.3440  146.5950 N   0  0  0  0  0  2  0  0  0  0  0  0
  190.7000  177.1620  145.8420 C   0  0  0  0  0  0  0  0  0  0  0  0
  191.7910  176.9550  146.4390 O   0  0  0  0  0  0  0  0  0  0  0  0
  189.0630  178.6260  148.4910 O   0  0  0  0  0  0  0  0  0  0  0  0
  189.4970  177.3620  148.0470 C   0  0  1  0  0  3  0  0  0  0  0  0
  188.1230  177.5850  148.5470 C   0  0  0  0  0  2  0  0  0  0  0  0
  188.4900  178.7050  140.0000 N   0  0  0  0  0  2  0  0  0  0  0  0
  186.6760  179.2520  141.3020 C   0  0  2  0  0  3  0  0  0  0  0  0
  187.2730  178.1940  140.4680 N   0  0  0  0  0  0  0  0  0  0  0  0
  187.3860  178.1440  141.9350 C   0  0  0  0  0  2  0  0  0  0  0  0
  183.2350  178.7960  142.7860 N   0  0  0  0  0  0  0  0  0  0  0  0
  184.3630  179.0160  140.3030 O   0  0  0  0  0  0  0  0  0  0  0  0
  183.0140  178.5430  140.3600 C   0  0  2  0  0  3  0  0  0  0  0  0
  184.6550  178.9250  142.6440 C   0  0  0  0  0  3  0  0  0  0  0  0
  185.1980  179.0420  141.4300 C   0  0  0  0  0  0  0  0  0  0  0  0
  181.0420  178.5790  141.9590 N   0  0  0  0  0  1  0  0  0  0  0  0
  182.4480  178.6780  141.7540 C   0  0  0  0  0  0  0  0  0  0  0  0
  182.3250  178.0390  137.7410 C   0  0  0  0  0  1  0  0  0  0  0  0
  182.6980  176.8400  138.4790 N   0  0  0  0  0  0  0  0  0  0  0  0
  182.9870  177.0710  139.9240 C   0  0  2  0  0  3  0  0  0  0  0  0
  181.6520  176.6680  139.4990 C   0  0  0  0  0  2  0  0  0  0  0  0
  1  5  1  0  0  0  0
  2  6  2  0  0  0  0
  2  3  1  0  0  0  0
  3  1  2  0  0  0  0
  4  6  1  0  0  0  0
  5 13  1  0  0  0  0
  6  7  1  0  0  0  0
  7 20  1  0  0  0  0
  7  5  2  0  0  0  0
  8  9  1  0  0  0  0
  9 15  1  0  0  0  0
 10  8  2  0  0  0  0
 11  9  2  0  0  0  0
 12 11  1  0  0  0  0
 13 10  1  0  0  0  0
 13 12  2  0  0  0  0
 15 16  2  0  0  0  0
 15 14  1  0  0  0  0
 17 19  1  0  0  0  0
 18 14  1  6  0  0  0
 18 17  1  0  0  0  0
 18 19  1  0  0  0  0
 20 22  1  0  0  0  0
 21 28  1  1  0  0  0
 21 23  1  0  0  0  0
 22 21  1  0  0  0  0
 22 23  1  0  0  0  0
 25 28  1  0  0  0  0
 26 25  1  1  0  0  0
 26 30  1  0  0  0  0
 27 24  1  0  0  0  0
 28 27  2  0  0  0  0
 30 29  1  0  0  0  0
 30 24  2  0  0  0  0
 31 32  1  0  0  0  0
 32 34  1  0  0  0  0
 32 33  1  0  0  0  0
 33 34  1  1  0  0  0
 33 26  1  0  0  0  0
M  END
>  <MODEL>
4

>  <REMARK>
 VINA RESULT:      -8.8      2.404      7.868
  Name = 
  7 active torsions:
  status: ('A' for Active; 'I' for Inactive)
    1  A    between atoms: C_8  and  C_15
    2  A    between atoms: C_9  and  C_18
    3  A    between atoms: N_10  and  N_32
    4  A    between atoms: N_11  and  C_26
    5  A    between atoms: C_13  and  C_16
    6  A    between atoms: C_25  and  C_31
    7  A    between atoms: N_32  and  C_34
                            x       y       z     vdW  Elec       q    Type
                         _______ _______ _______ _____ _____    ______ ____

>  <TORSDO>
F 7

$$$$
=
 OpenBabel10222421293D

 34 39  0  0  1  0  0  0  0  0999 V2000
  185.8670  179.4340  147.0770 N   0  0  0  0  0  0  0  0  0  0  0  0
  187.6430  178.4870  148.2940 N   0  0  0  0  0  0  0  0  0  0  0  0
  186.6240  179.3810  148.2020 C   0  0  0  0  0  3  0  0  0  0  0  0
  189.0850  176.7000  147.4130 C   0  0  0  0  0  1  0  0  0  0  0  0
  186.1090  178.6130  146.0150 C   0  0  0  0  0  0  0  0  0  0  0  0
  187.9430  177.6500  147.2640 C   0  0  0  0  0  0  0  0  0  0  0  0
  187.2050  177.7160  146.0760 C   0  0  0  0  0  0  0  0  0  0  0  0
  182.8680  178.7880  144.0800 C   0  0  0  0  0  3  0  0  0  0  0  0
  183.3080  178.6150  142.7600 C   0  0  0  0  0  0  0  0  0  0  0  0
  183.7830  178.7980  145.1360 C   0  0  0  0  0  3  0  0  0  0  0  0
  184.6760  178.4120  142.5140 C   0  0  0  0  0  3  0  0  0  0  0  0
  185.5910  178.4210  143.5700 C   0  0  0  0  0  3  0  0  0  0  0  0
  185.1560  178.6460  144.8850 C   0  0  0  0  0  0  0  0  0  0  0  0
  182.7560  178.1920  140.3440 N   0  0  0  0  0  2  0  0  0  0  0  0
  182.3470  178.6230  141.6450 C   0  0  0  0  0  0  0  0  0  0  0  0
  181.1590  178.9970  141.8390 O   0  0  0  0  0  0  0  0  0  0  0  0
  181.9620  179.4850  138.5760 O   0  0  0  0  0  0  0  0  0  0  0  0
  181.8570  178.2300  139.2050 C   0  0  1  0  0  3  0  0  0  0  0  0
  182.6300  178.4170  137.9580 C   0  0  0  0  0  2  0  0  0  0  0  0
  187.6380  176.9370  144.9530 N   0  0  0  0  0  2  0  0  0  0  0  0
  189.4670  176.6850  143.5820 C   0  0  2  0  0  3  0  0  0  0  0  0
  188.2670  177.5010  143.8350 N   0  0  0  0  0  0  0  0  0  0  0  0
  189.5910  177.9530  144.2960 C   0  0  0  0  0  2  0  0  0  0  0  0
  191.6630  177.2840  140.5710 N   0  0  0  0  0  0  0  0  0  0  0  0
  189.0570  176.6300  141.0860 O   0  0  0  0  0  0  0  0  0  0  0  0
  189.3670  177.0530  139.7530 C   0  0  2  0  0  3  0  0  0  0  0  0
  191.1940  177.1860  141.9210 C   0  0  0  0  0  3  0  0  0  0  0  0
  189.9240  176.8570  142.1650 C   0  0  0  0  0  0  0  0  0  0  0  0
  191.3900  177.2490  138.2330 N   0  0  0  0  0  1  0  0  0  0  0  0
  190.8590  177.1690  139.5520 C   0  0  0  0  0  0  0  0  0  0  0  0
  187.5090  177.1510  137.7220 C   0  0  0  0  0  1  0  0  0  0  0  0
  187.6320  178.4060  138.4500 N   0  0  0  0  0  0  0  0  0  0  0  0
  188.6960  178.4100  139.4960 C   0  0  2  0  0  3  0  0  0  0  0  0
  188.9860  178.8980  138.1530 C   0  0  0  0  0  2  0  0  0  0  0  0
  1  3  1  0  0  0  0
  3  2  2  0  0  0  0
  5  7  1  0  0  0  0
  5  1  2  0  0  0  0
  6  4  1  0  0  0  0
  6  2  1  0  0  0  0
  7  6  2  0  0  0  0
  8 10  1  0  0  0  0
  9  8  2  0  0  0  0
 11  9  1  0  0  0  0
 11 12  2  0  0  0  0
 12 13  1  0  0  0  0
 13 10  2  0  0  0  0
 13  5  1  0  0  0  0
 14 15  1  0  0  0  0
 15 16  2  0  0  0  0
 15  9  1  0  0  0  0
 17 18  1  0  0  0  0
 18 14  1  1  0  0  0
 19 17  1  0  0  0  0
 19 18  1  0  0  0  0
 20  7  1  0  0  0  0
 21 28  1  6  0  0  0
 21 22  1  0  0  0  0
 21 23  1  0  0  0  0
 22 23  1  0  0  0  0
 22 20  1  0  0  0  0
 24 27  1  0  0  0  0
 25 28  1  0  0  0  0
 26 30  1  1  0  0  0
 26 25  1  0  0  0  0
 27 28  2  0  0  0  0
 29 30  1  0  0  0  0
 30 24  2  0  0  0  0
 31 32  1  0  0  0  0
 32 33  1  0  0  0  0
 33 34  1  6  0  0  0
 33 26  1  0  0  0  0
 34 32  1  0  0  0  0
M  END
>  <MODEL>
5

>  <REMARK>
 VINA RESULT:      -8.7      1.489      2.524
  Name = 
  7 active torsions:
  status: ('A' for Active; 'I' for Inactive)
    1  A    between atoms: C_8  and  C_15
    2  A    between atoms: C_9  and  C_18
    3  A    between atoms: N_10  and  N_32
    4  A    between atoms: N_11  and  C_26
    5  A    between atoms: C_13  and  C_16
    6  A    between atoms: C_25  and  C_31
    7  A    between atoms: N_32  and  C_34
                            x       y       z     vdW  Elec       q    Type
                         _______ _______ _______ _____ _____    ______ ____

>  <TORSDO>
F 7

$$$$
=
 OpenBabel10222421293D

 34 39  0  0  1  0  0  0  0  0999 V2000
  188.2560  177.3070  146.5570 N   0  0  0  0  0  0  0  0  0  0  0  0
  190.5300  176.9010  146.1080 N   0  0  0  0  0  0  0  0  0  0  0  0
  189.4860  176.9210  146.9800 C   0  0  0  0  0  3  0  0  0  0  0  0
  191.5590  177.2630  143.9040 C   0  0  0  0  0  1  0  0  0  0  0  0
  188.0330  177.6930  145.2670 C   0  0  0  0  0  0  0  0  0  0  0  0
  190.3740  177.2870  144.8130 C   0  0  0  0  0  0  0  0  0  0  0  0
  189.1240  177.7320  144.3640 C   0  0  0  0  0  0  0  0  0  0  0  0
  184.9190  177.9670  143.1440 C   0  0  0  0  0  3  0  0  0  0  0  0
  184.0160  178.5730  144.0310 C   0  0  0  0  0  0  0  0  0  0  0  0
  186.2220  177.6720  143.5530 C   0  0  0  0  0  3  0  0  0  0  0  0
  184.4490  178.9160  145.3220 C   0  0  0  0  0  3  0  0  0  0  0  0
  185.7520  178.6230  145.7310 C   0  0  0  0  0  3  0  0  0  0  0  0
  186.6390  177.9690  144.8600 C   0  0  0  0  0  0  0  0  0  0  0  0
  182.2930  178.8360  142.2190 N   0  0  0  0  0  2  0  0  0  0  0  0
  182.6370  178.8670  143.6070 C   0  0  0  0  0  0  0  0  0  0  0  0
  181.7560  179.1340  144.4680 O   0  0  0  0  0  0  0  0  0  0  0  0
  180.9710  179.2490  140.3460 O   0  0  0  0  0  0  0  0  0  0  0  0
  180.9590  179.1680  141.7520 C   0  0  1  0  0  3  0  0  0  0  0  0
  180.4370  178.0760  140.9020 C   0  0  0  0  0  2  0  0  0  0  0  0
  189.0240  178.2800  143.0420 N   0  0  0  0  0  2  0  0  0  0  0  0
  189.4290  178.1410  140.7830 C   0  0  2  0  0  3  0  0  0  0  0  0
  188.7420  177.4960  141.9160 N   0  0  0  0  0  0  0  0  0  0  0  0
  188.0000  178.3660  140.9870 C   0  0  0  0  0  2  0  0  0  0  0  0
  190.9650  175.5010  138.5660 N   0  0  0  0  0  0  0  0  0  0  0  0
  188.6110  176.8830  138.7450 O   0  0  0  0  0  0  0  0  0  0  0  0
  188.8550  176.1790  137.5230 C   0  0  2  0  0  3  0  0  0  0  0  0
  190.7850  176.4950  139.5810 C   0  0  0  0  0  3  0  0  0  0  0  0
  189.6300  177.1590  139.6690 C   0  0  0  0  0  0  0  0  0  0  0  0
  190.2960  174.2690  136.6740 N   0  0  0  0  0  1  0  0  0  0  0  0
  190.0710  175.2900  137.6410 C   0  0  0  0  0  0  0  0  0  0  0  0
  186.6610  176.7560  135.9610 C   0  0  0  0  0  1  0  0  0  0  0  0
  187.8310  177.5560  135.6280 N   0  0  0  0  0  0  0  0  0  0  0  0
  189.0600  177.2010  136.3960 C   0  0  2  0  0  3  0  0  0  0  0  0
  188.8140  176.6040  135.0880 C   0  0  0  0  0  2  0  0  0  0  0  0
  1  3  1  0  0  0  0
  2  3  2  0  0  0  0
  4  6  1  0  0  0  0
  5  1  2  0  0  0  0
  6  2  1  0  0  0  0
  7  6  2  0  0  0  0
  7  5  1  0  0  0  0
  8 10  2  0  0  0  0
  8  9  1  0  0  0  0
  9 11  2  0  0  0  0
 10 13  1  0  0  0  0
 11 12  1  0  0  0  0
 13  5  1  0  0  0  0
 13 12  2  0  0  0  0
 14 15  1  0  0  0  0
 15  9  1  0  0  0  0
 15 16  2  0  0  0  0
 17 19  1  0  0  0  0
 17 18  1  0  0  0  0
 18 14  1  6  0  0  0
 19 18  1  0  0  0  0
 20  7  1  0  0  0  0
 21 28  1  6  0  0  0
 21 23  1  0  0  0  0
 21 22  1  0  0  0  0
 22 20  1  0  0  0  0
 23 22  1  0  0  0  0
 24 27  1  0  0  0  0
 25 28  1  0  0  0  0
 26 30  1  1  0  0  0
 26 25  1  0  0  0  0
 27 28  2  0  0  0  0
 29 30  1  0  0  0  0
 30 24  2  0  0  0  0
 32 31  1  0  0  0  0
 32 33  1  0  0  0  0
 33 34  1  6  0  0  0
 33 26  1  0  0  0  0
 34 32  1  0  0  0  0
M  END
>  <MODEL>
6

>  <REMARK>
 VINA RESULT:      -8.7      1.562      2.596
  Name = 
  7 active torsions:
  status: ('A' for Active; 'I' for Inactive)
    1  A    between atoms: C_8  and  C_15
    2  A    between atoms: C_9  and  C_18
    3  A    between atoms: N_10  and  N_32
    4  A    between atoms: N_11  and  C_26
    5  A    between atoms: C_13  and  C_16
    6  A    between atoms: C_25  and  C_31
    7  A    between atoms: N_32  and  C_34
                            x       y       z     vdW  Elec       q    Type
                         _______ _______ _______ _____ _____    ______ ____

>  <TORSDO>
F 7

$$$$
=
 OpenBabel10222421293D

 34 39  0  0  1  0  0  0  0  0999 V2000
  189.8500  176.9680  145.2250 N   0  0  0  0  0  0  0  0  0  0  0  0
  191.7820  176.6410  143.9240 N   0  0  0  0  0  0  0  0  0  0  0  0
  191.1370  176.5510  145.1170 C   0  0  0  0  0  3  0  0  0  0  0  0
  191.9340  177.2580  141.5480 C   0  0  0  0  0  1  0  0  0  0  0  0
  189.1780  177.4930  144.1600 C   0  0  0  0  0  0  0  0  0  0  0  0
  191.1710  177.1670  142.8280 C   0  0  0  0  0  0  0  0  0  0  0  0
  189.8580  177.6450  142.9260 C   0  0  0  0  0  0  0  0  0  0  0  0
  185.5220  178.0370  143.3720 C   0  0  0  0  0  3  0  0  0  0  0  0
  185.0190  178.4630  144.6110 C   0  0  0  0  0  0  0  0  0  0  0  0
  186.8740  177.7120  143.2320 C   0  0  0  0  0  3  0  0  0  0  0  0
  185.8970  178.5970  145.6980 C   0  0  0  0  0  3  0  0  0  0  0  0
  187.2490  178.2730  145.5580 C   0  0  0  0  0  3  0  0  0  0  0  0
  187.7410  177.7970  144.3320 C   0  0  0  0  0  0  0  0  0  0  0  0
  182.7270  178.7720  143.6260 N   0  0  0  0  0  2  0  0  0  0  0  0
  183.5920  178.7890  144.7650 C   0  0  0  0  0  0  0  0  0  0  0  0
  183.1280  179.0690  145.9030 O   0  0  0  0  0  0  0  0  0  0  0  0
  180.9720  179.9130  142.6030 O   0  0  0  0  0  0  0  0  0  0  0  0
  181.3240  179.1340  143.7220 C   0  0  1  0  0  3  0  0  0  0  0  0
  180.5770  178.5660  142.5780 C   0  0  0  0  0  2  0  0  0  0  0  0
  189.2920  178.3360  141.8030 N   0  0  0  0  0  2  0  0  0  0  0  0
  189.1380  178.6940  139.5380 C   0  0  2  0  0  3  0  0  0  0  0  0
  188.9630  177.6920  140.6040 N   0  0  0  0  0  0  0  0  0  0  0  0
  187.8010  178.4130  140.0570 C   0  0  0  0  0  2  0  0  0  0  0  0
  188.5480  177.5530  135.9880 N   0  0  0  0  0  0  0  0  0  0  0  0
  190.4850  177.3070  137.9050 O   0  0  0  0  0  0  0  0  0  0  0  0
  190.5720  176.4250  136.7810 C   0  0  2  0  0  3  0  0  0  0  0  0
  188.3610  178.1330  137.2850 C   0  0  0  0  0  3  0  0  0  0  0  0
  189.3140  178.0180  138.2120 C   0  0  0  0  0  0  0  0  0  0  0  0
  189.7250  176.2850  134.3920 N   0  0  0  0  0  1  0  0  0  0  0  0
  189.5820  176.8120  135.7070 C   0  0  0  0  0  0  0  0  0  0  0  0
  192.7610  174.9150  137.4990 C   0  0  0  0  0  1  0  0  0  0  0  0
  191.4940  174.2330  137.7210 N   0  0  0  0  0  0  0  0  0  0  0  0
  190.2960  174.9910  137.2550 C   0  0  2  0  0  3  0  0  0  0  0  0
  190.9310  174.0120  136.3800 C   0  0  0  0  0  2  0  0  0  0  0  0
  2  3  2  0  0  0  0
  3  1  1  0  0  0  0
  4  6  1  0  0  0  0
  5 13  1  0  0  0  0
  5  1  2  0  0  0  0
  6  7  2  0  0  0  0
  6  2  1  0  0  0  0
  7  5  1  0  0  0  0
  8  9  1  0  0  0  0
  9 15  1  0  0  0  0
  9 11  2  0  0  0  0
 10  8  2  0  0  0  0
 10 13  1  0  0  0  0
 12 11  1  0  0  0  0
 13 12  2  0  0  0  0
 14 15  1  0  0  0  0
 15 16  2  0  0  0  0
 17 18  1  0  0  0  0
 18 14  1  6  0  0  0
 19 17  1  0  0  0  0
 19 18  1  0  0  0  0
 20  7  1  0  0  0  0
 21 28  1  6  0  0  0
 21 23  1  0  0  0  0
 21 22  1  0  0  0  0
 22 20  1  0  0  0  0
 23 22  1  0  0  0  0
 24 27  1  0  0  0  0
 25 28  1  0  0  0  0
 26 30  1  6  0  0  0
 26 33  1  0  0  0  0
 26 25  1  0  0  0  0
 27 28  2  0  0  0  0
 29 30  1  0  0  0  0
 30 24  2  0  0  0  0
 31 32  1  0  0  0  0
 33 34  1  6  0  0  0
 33 32  1  0  0  0  0
 34 32  1  0  0  0  0
M  END
>  <MODEL>
7

>  <REMARK>
 VINA RESULT:      -8.5      1.866      3.127
  Name = 
  7 active torsions:
  status: ('A' for Active; 'I' for Inactive)
    1  A    between atoms: C_8  and  C_15
    2  A    between atoms: C_9  and  C_18
    3  A    between atoms: N_10  and  N_32
    4  A    between atoms: N_11  and  C_26
    5  A    between atoms: C_13  and  C_16
    6  A    between atoms: C_25  and  C_31
    7  A    between atoms: N_32  and  C_34
                            x       y       z     vdW  Elec       q    Type
                         _______ _______ _______ _____ _____    ______ ____

>  <TORSDO>
F 7

$$$$
=
 OpenBabel10222421293D

 34 39  0  0  1  0  0  0  0  0999 V2000
  184.1480  180.0110  138.8580 N   0  0  0  0  0  0  0  0  0  0  0  0
  181.9910  180.0260  139.7970 N   0  0  0  0  0  0  0  0  0  0  0  0
  182.8650  180.4510  138.8460 C   0  0  0  0  0  3  0  0  0  0  0  0
  181.3860  178.7590  141.8160 C   0  0  0  0  0  1  0  0  0  0  0  0
  184.5990  179.1510  139.8170 C   0  0  0  0  0  0  0  0  0  0  0  0
  182.3830  179.1790  140.7870 C   0  0  0  0  0  0  0  0  0  0  0  0
  183.7130  178.7450  140.8460 C   0  0  0  0  0  0  0  0  0  0  0  0
  188.2060  178.3270  140.5840 C   0  0  0  0  0  3  0  0  0  0  0  0
  188.6180  177.6990  139.3990 C   0  0  0  0  0  0  0  0  0  0  0  0
  186.8940  178.7880  140.7210 C   0  0  0  0  0  3  0  0  0  0  0  0
  187.7090  177.5760  138.3360 C   0  0  0  0  0  3  0  0  0  0  0  0
  186.3980  178.0380  138.4720 C   0  0  0  0  0  3  0  0  0  0  0  0
  185.9710  178.6190  139.6770 C   0  0  0  0  0  0  0  0  0  0  0  0
  190.4210  176.6070  138.0300 N   0  0  0  0  0  2  0  0  0  0  0  0
  189.9950  177.1970  139.2610 C   0  0  0  0  0  0  0  0  0  0  0  0
  190.8030  177.2980  140.2230 O   0  0  0  0  0  0  0  0  0  0  0  0
  191.7060  174.6640  138.0900 O   0  0  0  0  0  0  0  0  0  0  0  0
  191.7530  176.0530  137.8640 C   0  0  1  0  0  3  0  0  0  0  0  0
  191.7610  175.0800  136.7500 C   0  0  0  0  0  2  0  0  0  0  0  0
  184.1380  177.9820  141.9840 N   0  0  0  0  0  2  0  0  0  0  0  0
  184.7830  178.0390  144.1900 C   0  0  2  0  0  3  0  0  0  0  0  0
  185.1910  178.3820  142.8160 N   0  0  0  0  0  0  0  0  0  0  0  0
  184.6360  179.4120  143.7110 C   0  0  0  0  0  2  0  0  0  0  0  0
  187.0870  178.4160  147.1560 N   0  0  0  0  0  0  0  0  0  0  0  0
  187.1020  177.1740  144.7180 O   0  0  0  0  0  0  0  0  0  0  0  0
  188.3580  177.2840  145.3950 C   0  0  2  0  0  3  0  0  0  0  0  0
  185.9750  178.5590  146.2640 C   0  0  0  0  0  3  0  0  0  0  0  0
  185.9850  177.9430  145.0800 C   0  0  0  0  0  0  0  0  0  0  0  0
  189.2340  177.6540  147.7490 N   0  0  0  0  0  1  0  0  0  0  0  0
  188.1730  177.7850  146.8080 C   0  0  0  0  0  0  0  0  0  0  0  0
  189.9990  176.1660  143.4860 C   0  0  0  0  0  1  0  0  0  0  0  0
  190.0690  177.6200  143.5250 N   0  0  0  0  0  0  0  0  0  0  0  0
  189.2610  178.2470  144.6110 C   0  0  2  0  0  3  0  0  0  0  0  0
  190.6710  177.9470  144.8280 C   0  0  0  0  0  2  0  0  0  0  0  0
  1  5  1  0  0  0  0
  2  6  2  0  0  0  0
  3  1  2  0  0  0  0
  3  2  1  0  0  0  0
  5  7  2  0  0  0  0
  6  7  1  0  0  0  0
  6  4  1  0  0  0  0
  7 20  1  0  0  0  0
  8 10  1  0  0  0  0
  9  8  2  0  0  0  0
 11 12  2  0  0  0  0
 11  9  1  0  0  0  0
 12 13  1  0  0  0  0
 13  5  1  0  0  0  0
 13 10  2  0  0  0  0
 14 15  1  0  0  0  0
 15  9  1  0  0  0  0
 15 16  2  0  0  0  0
 18 14  1  6  0  0  0
 18 17  1  0  0  0  0
 19 18  1  0  0  0  0
 19 17  1  0  0  0  0
 20 22  1  0  0  0  0
 21 28  1  1  0  0  0
 22 23  1  0  0  0  0
 22 21  1  0  0  0  0
 23 21  1  0  0  0  0
 25 28  1  0  0  0  0
 26 25  1  6  0  0  0
 26 30  1  0  0  0  0
 27 24  1  0  0  0  0
 28 27  2  0  0  0  0
 30 24  2  0  0  0  0
 30 29  1  0  0  0  0
 31 32  1  0  0  0  0
 32 33  1  0  0  0  0
 32 34  1  0  0  0  0
 33 34  1  1  0  0  0
 33 26  1  0  0  0  0
M  END
>  <MODEL>
8

>  <REMARK>
 VINA RESULT:      -8.3      2.132      8.066
  Name = 
  7 active torsions:
  status: ('A' for Active; 'I' for Inactive)
    1  A    between atoms: C_8  and  C_15
    2  A    between atoms: C_9  and  C_18
    3  A    between atoms: N_10  and  N_32
    4  A    between atoms: N_11  and  C_26
    5  A    between atoms: C_13  and  C_16
    6  A    between atoms: C_25  and  C_31
    7  A    between atoms: N_32  and  C_34
                            x       y       z     vdW  Elec       q    Type
                         _______ _______ _______ _____ _____    ______ ____

>  <TORSDO>
F 7

$$$$
=
 OpenBabel10222421293D

 34 39  0  0  1  0  0  0  0  0999 V2000
  188.9760  176.7250  146.5740 N   0  0  0  0  0  0  0  0  0  0  0  0
  187.3590  177.6000  148.0420 N   0  0  0  0  0  0  0  0  0  0  0  0
  188.4310  176.7960  147.8150 C   0  0  0  0  0  3  0  0  0  0  0  0
  185.6080  179.1790  147.3400 C   0  0  0  0  0  1  0  0  0  0  0  0
  188.4660  177.4390  145.5290 C   0  0  0  0  0  0  0  0  0  0  0  0
  186.7960  178.3260  147.0380 C   0  0  0  0  0  0  0  0  0  0  0  0
  187.3140  178.2370  145.7390 C   0  0  0  0  0  0  0  0  0  0  0  0
  189.7020  176.2890  142.1480 C   0  0  0  0  0  3  0  0  0  0  0  0
  190.6570  177.2690  141.8400 C   0  0  0  0  0  0  0  0  0  0  0  0
  188.9820  176.3530  143.3440 C   0  0  0  0  0  3  0  0  0  0  0  0
  190.9110  178.2940  142.7650 C   0  0  0  0  0  3  0  0  0  0  0  0
  190.1930  178.3580  143.9620 C   0  0  0  0  0  3  0  0  0  0  0  0
  189.2010  177.4060  144.2460 C   0  0  0  0  0  0  0  0  0  0  0  0
  190.7870  176.6610  139.4040 N   0  0  0  0  0  2  0  0  0  0  0  0
  191.4020  177.2130  140.5710 C   0  0  0  0  0  0  0  0  0  0  0  0
  192.5780  177.6630  140.5100 O   0  0  0  0  0  0  0  0  0  0  0  0
  191.5570  175.1820  137.7760 O   0  0  0  0  0  0  0  0  0  0  0  0
  191.5010  176.5400  138.1460 C   0  0  1  0  0  3  0  0  0  0  0  0
  190.6070  175.9740  137.1110 C   0  0  0  0  0  2  0  0  0  0  0  0
  186.6090  178.8870  144.6730 N   0  0  0  0  0  2  0  0  0  0  0  0
  185.0690  179.1940  142.9930 C   0  0  2  0  0  3  0  0  0  0  0  0
  185.8610  178.1850  143.7190 N   0  0  0  0  0  0  0  0  0  0  0  0
  184.4460  178.4130  144.0600 C   0  0  0  0  0  2  0  0  0  0  0  0
  184.8890  178.5450  139.2790 N   0  0  0  0  0  0  0  0  0  0  0  0
  183.6580  177.6610  141.5570 O   0  0  0  0  0  0  0  0  0  0  0  0
  183.0290  177.3330  140.3130 C   0  0  2  0  0  3  0  0  0  0  0  0
  185.2380  179.1010  140.5530 C   0  0  0  0  0  3  0  0  0  0  0  0
  184.6400  178.6580  141.6610 C   0  0  0  0  0  0  0  0  0  0  0  0
  183.6370  177.1500  137.8550 N   0  0  0  0  0  1  0  0  0  0  0  0
  183.9180  177.6860  139.1440 C   0  0  0  0  0  0  0  0  0  0  0  0
  180.7510  175.8220  139.9750 C   0  0  0  0  0  1  0  0  0  0  0  0
  180.4820  177.2460  140.1200 N   0  0  0  0  0  0  0  0  0  0  0  0
  181.7020  178.0980  140.2120 C   0  0  2  0  0  3  0  0  0  0  0  0
  181.0590  177.8760  138.9220 C   0  0  0  0  0  2  0  0  0  0  0  0
  1  3  1  0  0  0  0
  3  2  2  0  0  0  0
  5  7  1  0  0  0  0
  5  1  2  0  0  0  0
  6  4  1  0  0  0  0
  6  2  1  0  0  0  0
  7  6  2  0  0  0  0
  8 10  1  0  0  0  0
  9  8  2  0  0  0  0
  9 11  1  0  0  0  0
 10 13  2  0  0  0  0
 11 12  2  0  0  0  0
 12 13  1  0  0  0  0
 13  5  1  0  0  0  0
 14 15  1  0  0  0  0
 15  9  1  0  0  0  0
 16 15  2  0  0  0  0
 17 18  1  0  0  0  0
 18 14  1  1  0  0  0
 19 17  1  0  0  0  0
 19 18  1  0  0  0  0
 20  7  1  0  0  0  0
 21 28  1  6  0  0  0
 21 22  1  0  0  0  0
 21 23  1  0  0  0  0
 22 23  1  0  0  0  0
 22 20  1  0  0  0  0
 24 27  1  0  0  0  0
 25 28  1  0  0  0  0
 26 30  1  6  0  0  0
 26 25  1  0  0  0  0
 27 28  2  0  0  0  0
 29 30  1  0  0  0  0
 30 24  2  0  0  0  0
 31 32  1  0  0  0  0
 32 33  1  0  0  0  0
 33 34  1  6  0  0  0
 33 26  1  0  0  0  0
 34 32  1  0  0  0  0
M  END
>  <MODEL>
9

>  <REMARK>
 VINA RESULT:      -8.2      2.141      6.793
  Name = 
  7 active torsions:
  status: ('A' for Active; 'I' for Inactive)
    1  A    between atoms: C_8  and  C_15
    2  A    between atoms: C_9  and  C_18
    3  A    between atoms: N_10  and  N_32
    4  A    between atoms: N_11  and  C_26
    5  A    between atoms: C_13  and  C_16
    6  A    between atoms: C_25  and  C_31
    7  A    between atoms: N_32  and  C_34
                            x       y       z     vdW  Elec       q    Type
                         _______ _______ _______ _____ _____    ______ ____

>  <TORSDO>
F 7

$$$$
