=
 OpenBabel10232409003D

 46 51  0  0  1  0  0  0  0  0999 V2000
  189.8860  177.1040  134.8350 O   0  0  0  0  0  1  0  0  0  0  0  0
  190.3150  175.8160  135.1280 C   0  0  0  0  0  0  0  0  0  0  0  0
  187.7580  172.5290  134.8210 C   0  0  0  0  0  2  0  0  0  0  0  0
  191.2090  173.2540  135.6440 N   0  0  0  0  0  0  0  0  0  0  0  0
  189.8720  173.5000  135.6410 C   0  0  0  0  0  0  0  0  0  0  0  0
  187.4560  175.3650  136.9400 C   0  0  1  0  0  3  0  0  0  0  0  0
  188.9060  172.3760  135.8210 C   0  0  1  0  0  3  0  0  0  0  0  0
  191.6810  175.5360  135.1400 C   0  0  0  0  0  3  0  0  0  0  0  0
  192.1260  174.2300  135.3960 C   0  0  0  0  0  0  0  0  0  0  0  0
  185.9530  175.6750  137.0570 C   0  0  0  0  0  2  0  0  0  0  0  0
  188.4170  172.3620  137.1290 O   0  0  0  0  0  1  0  0  0  0  0  0
  187.0690  173.9100  134.8600 C   0  0  1  0  0  3  0  0  0  0  0  0
  185.6660  173.7600  135.4620 C   0  0  1  0  0  3  0  0  0  0  0  0
  189.3930  174.7970  135.4050 C   0  0  0  0  0  0  0  0  0  0  0  0
  187.9080  175.0700  135.4890 C   0  0  2  0  0  3  0  0  0  0  0  0
  185.1180  175.1090  135.9090 C   0  0  0  0  0  2  0  0  0  0  0  0
  189.0440  176.1540  138.7410 C   0  0  0  0  0  3  0  0  0  0  0  0
  188.9360  178.7440  137.7680 C   0  0  0  0  0  0  0  0  0  0  0  0
  188.2590  176.4370  137.6170 C   0  0  0  0  0  0  0  0  0  0  0  0
  189.6890  178.4470  138.8610 N   0  0  0  0  0  0  0  0  0  0  0  0
  189.7580  177.1840  139.3640 C   0  0  0  0  0  0  0  0  0  0  0  0
  188.2020  177.7440  137.1290 C   0  0  0  0  0  3  0  0  0  0  0  0
  188.8930  180.0780  137.2760 N   0  0  0  0  0  1  0  0  0  0  0  0
  190.7640  175.8960  142.8560 C   0  0  0  0  0  1  0  0  0  0  0  0
  191.7710  177.3010  140.6090 O   0  0  0  0  0  0  0  0  0  0  0  0
  190.5730  176.9110  140.5560 C   0  0  0  0  0  0  0  0  0  0  0  0
  190.0040  176.1930  141.6550 N   0  0  0  0  0  2  0  0  0  0  0  0
  194.4960  171.9600  136.6000 N   0  0  0  0  0  0  0  0  0  0  0  0
  194.1280  174.2090  136.8510 C   0  0  0  0  0  3  0  0  0  0  0  0
  193.6740  171.6950  134.4080 O   0  0  0  0  0  0  0  0  0  0  0  0
  193.8880  172.4270  135.4110 C   0  0  0  0  0  0  0  0  0  0  0  0
  193.5970  173.8950  135.4750 C   0  0  1  0  0  3  0  0  0  0  0  0
  194.5950  173.1090  137.4330 C   0  0  0  0  0  0  0  0  0  0  0  0
  194.6070  170.5650  136.9940 C   0  0  0  0  0  1  0  0  0  0  0  0
  195.9250  174.2460  139.2790 C   0  0  0  0  0  1  0  0  0  0  0  0
  195.1690  173.1260  138.7440 N   0  0  0  0  0  2  0  0  0  0  0  0
  184.7690  173.1600  134.4840 N   0  0  0  0  0  2  0  0  0  0  0  0
  182.4280  173.0090  135.1580 C   0  0  0  0  0  3  0  0  0  0  0  0
  180.1110  172.8880  135.8080 O   0  0  0  0  0  1  0  0  0  0  0  0
  182.7140  168.7960  135.2300 C   0  0  0  0  0  1  0  0  0  0  0  0
  180.3900  170.1640  135.8270 O   0  0  0  0  0  0  0  0  0  0  0  0
  183.6890  170.9770  134.8840 C   0  0  0  0  0  3  0  0  0  0  0  0
  182.5890  170.2460  135.2140 N   0  0  0  0  0  0  0  0  0  0  0  0
  183.6310  172.3760  134.8490 C   0  0  0  0  0  0  0  0  0  0  0  0
  181.3070  172.2520  135.4980 C   0  0  0  0  0  0  0  0  0  0  0  0
  181.4020  170.8530  135.5200 C   0  0  0  0  0  0  0  0  0  0  0  0
  1  2  1  0  0  0  0
  2  8  2  0  0  0  0
  2 14  1  0  0  0  0
  3  7  1  0  0  0  0
  5  4  1  0  0  0  0
  5  7  1  0  0  0  0
  6 10  1  0  0  0  0
  6 19  1  6  0  0  0
  7 11  1  1  0  0  0
  8  9  1  0  0  0  0
  9  4  2  0  0  0  0
 12  3  1  1  0  0  0
 12 13  1  0  0  0  0
 12 15  1  0  0  0  0
 13 37  1  6  0  0  0
 13 16  1  0  0  0  0
 14  5  2  0  0  0  0
 15 14  1  1  0  0  0
 15  6  1  0  0  0  0
 16 10  1  0  0  0  0
 17 21  1  0  0  0  0
 18 20  1  0  0  0  0
 19 17  2  0  0  0  0
 20 21  2  0  0  0  0
 21 26  1  0  0  0  0
 22 19  1  0  0  0  0
 22 18  2  0  0  0  0
 23 18  1  0  0  0  0
 26 25  2  0  0  0  0
 26 27  1  0  0  0  0
 27 24  1  0  0  0  0
 28 34  1  0  0  0  0
 28 33  1  0  0  0  0
 29 33  2  0  0  0  0
 30 31  2  0  0  0  0
 31 32  1  0  0  0  0
 31 28  1  0  0  0  0
 32  9  1  1  0  0  0
 32 29  1  0  0  0  0
 33 36  1  0  0  0  0
 36 35  1  0  0  0  0
 37 44  1  0  0  0  0
 38 45  2  0  0  0  0
 42 43  1  0  0  0  0
 43 40  1  0  0  0  0
 43 46  1  0  0  0  0
 44 42  2  0  0  0  0
 44 38  1  0  0  0  0
 45 46  1  0  0  0  0
 45 39  1  0  0  0  0
 46 41  2  0  0  0  0
M  END
>  <MODEL>
1

>  <REMARK>
 VINA RESULT:      -6.3      0.000      0.000
  Name = 
  6 active torsions:
  status: ('A' for Active; 'I' for Inactive)
    1  A    between atoms: C_10  and  C_23
    2  A    between atoms: N_17  and  C_38
    3  A    between atoms: N_17  and  C_39
    4  A    between atoms: C_18  and  C_20
    5  A    between atoms: C_28  and  C_33
    6  A    between atoms: C_36  and  N_43
                            x       y       z     vdW  Elec       q    Type
                         _______ _______ _______ _____ _____    ______ ____

>  <TORSDO>
F 6

$$$$
=
 OpenBabel10232409003D

 46 51  0  0  1  0  0  0  0  0999 V2000
  186.7080  175.7200  134.3740 O   0  0  0  0  0  1  0  0  0  0  0  0
  186.6250  176.3450  135.6130 C   0  0  0  0  0  0  0  0  0  0  0  0
  190.0400  177.4550  137.7430 C   0  0  0  0  0  2  0  0  0  0  0  0
  186.4370  177.6520  138.0390 N   0  0  0  0  0  0  0  0  0  0  0  0
  187.6080  177.0500  137.7010 C   0  0  0  0  0  0  0  0  0  0  0  0
  189.0160  174.1960  136.7640 C   0  0  1  0  0  3  0  0  0  0  0  0
  188.7980  177.1790  138.5930 C   0  0  1  0  0  3  0  0  0  0  0  0
  185.4350  176.9690  135.9850 C   0  0  0  0  0  3  0  0  0  0  0  0
  185.3500  177.6380  137.2160 C   0  0  0  0  0  0  0  0  0  0  0  0
  190.2960  173.4080  136.4310 C   0  0  0  0  0  2  0  0  0  0  0  0
  188.9680  176.0160  139.3460 O   0  0  0  0  0  1  0  0  0  0  0  0
  190.2640  176.4340  136.6060 C   0  0  1  0  0  3  0  0  0  0  0  0
  191.4800  175.5600  136.9410 C   0  0  1  0  0  3  0  0  0  0  0  0
  187.7210  176.3590  136.4860 C   0  0  0  0  0  0  0  0  0  0  0  0
  189.0030  175.6230  136.1640 C   0  0  2  0  0  3  0  0  0  0  0  0
  191.4920  174.2970  136.0910 C   0  0  0  0  0  2  0  0  0  0  0  0
  186.5500  173.6790  136.9670 C   0  0  0  0  0  3  0  0  0  0  0  0
  186.8100  171.5320  135.2360 C   0  0  0  0  0  0  0  0  0  0  0  0
  187.8040  173.3830  136.4160 C   0  0  0  0  0  0  0  0  0  0  0  0
  185.6030  171.8360  135.7850 N   0  0  0  0  0  0  0  0  0  0  0  0
  185.4460  172.8830  136.6410 C   0  0  0  0  0  0  0  0  0  0  0  0
  187.9350  172.2990  135.5470 C   0  0  0  0  0  3  0  0  0  0  0  0
  186.9290  170.4300  134.3460 N   0  0  0  0  0  1  0  0  0  0  0  0
  181.6620  172.6430  137.3430 C   0  0  0  0  0  1  0  0  0  0  0  0
  183.9970  174.0660  138.0950 O   0  0  0  0  0  0  0  0  0  0  0  0
  184.1260  173.1650  137.2220 C   0  0  0  0  0  0  0  0  0  0  0  0
  182.9890  172.4070  136.8010 N   0  0  0  0  0  2  0  0  0  0  0  0
  183.2900  178.2680  139.9690 N   0  0  0  0  0  0  0  0  0  0  0  0
  183.0240  177.2190  137.9470 C   0  0  0  0  0  3  0  0  0  0  0  0
  184.8740  179.8920  139.3350 O   0  0  0  0  0  0  0  0  0  0  0  0
  184.1580  178.8970  139.0460 C   0  0  0  0  0  0  0  0  0  0  0  0
  184.0650  178.2780  137.6850 C   0  0  1  0  0  3  0  0  0  0  0  0
  182.6430  177.2450  139.2210 C   0  0  0  0  0  0  0  0  0  0  0  0
  183.3670  178.3990  141.4150 C   0  0  0  0  0  1  0  0  0  0  0  0
  180.4520  175.9710  139.0150 C   0  0  0  0  0  1  0  0  0  0  0  0
  181.6530  176.3510  139.7390 N   0  0  0  0  0  2  0  0  0  0  0  0
  192.7070  176.3150  136.7230 N   0  0  0  0  0  2  0  0  0  0  0  0
  194.3170  174.9620  137.9630 C   0  0  0  0  0  3  0  0  0  0  0  0
  195.8810  173.6100  139.2000 O   0  0  0  0  0  1  0  0  0  0  0  0
  197.1750  175.5540  134.9110 C   0  0  0  0  0  1  0  0  0  0  0  0
  197.6680  174.0470  137.1720 O   0  0  0  0  0  0  0  0  0  0  0  0
  194.9820  175.9110  135.8530 C   0  0  0  0  0  3  0  0  0  0  0  0
  196.2090  175.3360  135.9760 N   0  0  0  0  0  0  0  0  0  0  0  0
  194.0080  175.7360  136.8450 C   0  0  0  0  0  0  0  0  0  0  0  0
  195.5780  174.3780  138.0820 C   0  0  0  0  0  0  0  0  0  0  0  0
  196.5260  174.5740  137.0680 C   0  0  0  0  0  0  0  0  0  0  0  0
  1  2  1  0  0  0  0
  2  8  2  0  0  0  0
  2 14  1  0  0  0  0
  3  7  1  0  0  0  0
  5  4  1  0  0  0  0
  5  7  1  0  0  0  0
  6 19  1  6  0  0  0
  7 11  1  6  0  0  0
  8  9  1  0  0  0  0
  9  4  2  0  0  0  0
 10  6  1  0  0  0  0
 12 13  1  0  0  0  0
 12  3  1  1  0  0  0
 13 37  1  6  0  0  0
 14  5  2  0  0  0  0
 15 14  1  1  0  0  0
 15 12  1  0  0  0  0
 15  6  1  0  0  0  0
 16 10  1  0  0  0  0
 16 13  1  0  0  0  0
 18 22  2  0  0  0  0
 18 20  1  0  0  0  0
 19 17  2  0  0  0  0
 20 21  2  0  0  0  0
 21 17  1  0  0  0  0
 21 26  1  0  0  0  0
 22 19  1  0  0  0  0
 23 18  1  0  0  0  0
 26 25  2  0  0  0  0
 27 26  1  0  0  0  0
 27 24  1  0  0  0  0
 28 34  1  0  0  0  0
 29 33  2  0  0  0  0
 31 30  2  0  0  0  0
 31 28  1  0  0  0  0
 32  9  1  1  0  0  0
 32 29  1  0  0  0  0
 32 31  1  0  0  0  0
 33 36  1  0  0  0  0
 33 28  1  0  0  0  0
 35 36  1  0  0  0  0
 37 44  1  0  0  0  0
 38 45  2  0  0  0  0
 40 43  1  0  0  0  0
 42 43  1  0  0  0  0
 42 44  2  0  0  0  0
 43 46  1  0  0  0  0
 44 38  1  0  0  0  0
 45 39  1  0  0  0  0
 46 41  2  0  0  0  0
 46 45  1  0  0  0  0
M  END
>  <MODEL>
2

>  <REMARK>
 VINA RESULT:      -6.3      3.319     10.086
  Name = 
  6 active torsions:
  status: ('A' for Active; 'I' for Inactive)
    1  A    between atoms: C_10  and  C_23
    2  A    between atoms: N_17  and  C_38
    3  A    between atoms: N_17  and  C_39
    4  A    between atoms: C_18  and  C_20
    5  A    between atoms: C_28  and  C_33
    6  A    between atoms: C_36  and  N_43
                            x       y       z     vdW  Elec       q    Type
                         _______ _______ _______ _____ _____    ______ ____

>  <TORSDO>
F 6

$$$$
=
 OpenBabel10232409003D

 46 51  0  0  1  0  0  0  0  0999 V2000
  189.2060  174.4780  137.6580 O   0  0  0  0  0  1  0  0  0  0  0  0
  190.5030  174.9590  137.7900 C   0  0  0  0  0  0  0  0  0  0  0  0
  191.8580  176.6580  141.3550 C   0  0  0  0  0  2  0  0  0  0  0  0
  193.1070  175.8410  138.0570 N   0  0  0  0  0  0  0  0  0  0  0  0
  192.1680  176.2750  138.9390 C   0  0  0  0  0  0  0  0  0  0  0  0
  189.2230  177.7700  139.2460 C   0  0  1  0  0  3  0  0  0  0  0  0
  192.5670  177.1400  140.0880 C   0  0  1  0  0  3  0  0  0  0  0  0
  191.4850  174.5320  136.8980 C   0  0  0  0  0  3  0  0  0  0  0  0
  192.8080  174.9790  137.0450 C   0  0  0  0  0  0  0  0  0  0  0  0
  188.1340  178.3530  140.1650 C   0  0  0  0  0  2  0  0  0  0  0  0
  192.2480  178.4730  139.8250 O   0  0  0  0  0  1  0  0  0  0  0  0
  190.3250  176.5390  141.2130 C   0  0  1  0  0  3  0  0  0  0  0  0
  189.6520  177.6470  142.0330 C   0  0  1  0  0  3  0  0  0  0  0  0
  190.8340  175.8610  138.8110 C   0  0  0  0  0  0  0  0  0  0  0  0
  189.7880  176.4190  139.7490 C   0  0  2  0  0  3  0  0  0  0  0  0
  188.2040  177.8390  141.6020 C   0  0  0  0  0  2  0  0  0  0  0  0
  187.3820  177.5330  137.5310 C   0  0  0  0  0  3  0  0  0  0  0  0
  189.2060  177.8180  135.4660 C   0  0  0  0  0  0  0  0  0  0  0  0
  188.7370  177.7310  137.8280 C   0  0  0  0  0  0  0  0  0  0  0  0
  187.8860  177.6220  135.2020 N   0  0  0  0  0  0  0  0  0  0  0  0
  186.9680  177.4750  136.1950 C   0  0  0  0  0  0  0  0  0  0  0  0
  189.6560  177.8710  136.7860 C   0  0  0  0  0  3  0  0  0  0  0  0
  190.1300  177.9670  134.3960 N   0  0  0  0  0  1  0  0  0  0  0  0
  183.1770  176.9220  136.6390 C   0  0  0  0  0  1  0  0  0  0  0  0
  185.1930  177.1580  134.6580 O   0  0  0  0  0  0  0  0  0  0  0  0
  185.5540  177.2490  135.8630 C   0  0  0  0  0  0  0  0  0  0  0  0
  184.5870  177.1430  136.9110 N   0  0  0  0  0  2  0  0  0  0  0  0
  196.2550  174.7900  136.4990 N   0  0  0  0  0  0  0  0  0  0  0  0
  194.4980  175.8190  135.4450 C   0  0  0  0  0  3  0  0  0  0  0  0
  195.1270  172.8970  137.3310 O   0  0  0  0  0  0  0  0  0  0  0  0
  195.1050  173.9950  136.7150 C   0  0  0  0  0  0  0  0  0  0  0  0
  193.8910  174.5880  136.0670 C   0  0  1  0  0  3  0  0  0  0  0  0
  195.7950  175.8920  135.7250 C   0  0  0  0  0  0  0  0  0  0  0  0
  197.5000  174.6840  137.2430 C   0  0  0  0  0  1  0  0  0  0  0  0
  196.0980  178.2310  134.7720 C   0  0  0  0  0  1  0  0  0  0  0  0
  196.6200  176.9600  135.2470 N   0  0  0  0  0  2  0  0  0  0  0  0
  189.7070  177.3150  143.4510 N   0  0  0  0  0  2  0  0  0  0  0  0
  187.3360  177.7220  143.8650 C   0  0  0  0  0  3  0  0  0  0  0  0
  184.9880  178.1070  144.2480 O   0  0  0  0  0  1  0  0  0  0  0  0
  188.1080  178.0460  148.0050 C   0  0  0  0  0  1  0  0  0  0  0  0
  185.5840  178.2990  146.9140 O   0  0  0  0  0  0  0  0  0  0  0  0
  188.8520  177.7020  145.7350 C   0  0  0  0  0  3  0  0  0  0  0  0
  187.8160  177.9400  146.5830 N   0  0  0  0  0  0  0  0  0  0  0  0
  188.6340  177.5870  144.3560 C   0  0  0  0  0  0  0  0  0  0  0  0
  186.2800  177.9700  144.7420 C   0  0  0  0  0  0  0  0  0  0  0  0
  186.5370  178.0760  146.1160 C   0  0  0  0  0  0  0  0  0  0  0  0
  1  2  1  0  0  0  0
  2 14  1  0  0  0  0
  4  5  1  0  0  0  0
  5  7  1  0  0  0  0
  6 19  1  6  0  0  0
  6 15  1  0  0  0  0
  6 10  1  0  0  0  0
  7 11  1  6  0  0  0
  7  3  1  0  0  0  0
  8  9  1  0  0  0  0
  8  2  2  0  0  0  0
  9  4  2  0  0  0  0
 10 16  1  0  0  0  0
 12  3  1  6  0  0  0
 12 13  1  0  0  0  0
 13 37  1  1  0  0  0
 14  5  2  0  0  0  0
 15 14  1  6  0  0  0
 15 12  1  0  0  0  0
 16 13  1  0  0  0  0
 17 19  1  0  0  0  0
 18 22  1  0  0  0  0
 20 18  2  0  0  0  0
 20 21  1  0  0  0  0
 21 17  2  0  0  0  0
 22 19  2  0  0  0  0
 23 18  1  0  0  0  0
 24 27  1  0  0  0  0
 25 26  2  0  0  0  0
 26 21  1  0  0  0  0
 26 27  1  0  0  0  0
 28 31  1  0  0  0  0
 28 34  1  0  0  0  0
 29 33  2  0  0  0  0
 29 32  1  0  0  0  0
 31 30  2  0  0  0  0
 32 31  1  0  0  0  0
 32  9  1  1  0  0  0
 33 28  1  0  0  0  0
 35 36  1  0  0  0  0
 36 33  1  0  0  0  0
 37 44  1  0  0  0  0
 38 44  1  0  0  0  0
 38 45  2  0  0  0  0
 39 45  1  0  0  0  0
 42 43  1  0  0  0  0
 43 40  1  0  0  0  0
 44 42  2  0  0  0  0
 45 46  1  0  0  0  0
 46 43  1  0  0  0  0
 46 41  2  0  0  0  0
M  END
>  <MODEL>
3

>  <REMARK>
 VINA RESULT:      -6.1      3.789      7.715
  Name = 
  6 active torsions:
  status: ('A' for Active; 'I' for Inactive)
    1  A    between atoms: C_10  and  C_23
    2  A    between atoms: N_17  and  C_38
    3  A    between atoms: N_17  and  C_39
    4  A    between atoms: C_18  and  C_20
    5  A    between atoms: C_28  and  C_33
    6  A    between atoms: C_36  and  N_43
                            x       y       z     vdW  Elec       q    Type
                         _______ _______ _______ _____ _____    ______ ____

>  <TORSDO>
F 6

$$$$
=
 OpenBabel10232409003D

 46 51  0  0  1  0  0  0  0  0999 V2000
  187.8060  178.3600  136.4100 O   0  0  0  0  0  1  0  0  0  0  0  0
  188.4650  178.0590  137.5960 C   0  0  0  0  0  0  0  0  0  0  0  0
  192.3590  176.5540  137.6180 C   0  0  0  0  0  2  0  0  0  0  0  0
  189.7850  177.5370  139.9660 N   0  0  0  0  0  0  0  0  0  0  0  0
  190.2460  176.9790  138.8150 C   0  0  0  0  0  0  0  0  0  0  0  0
  189.4430  175.0980  136.2030 C   0  0  1  0  0  3  0  0  0  0  0  0
  191.5020  176.1740  138.8280 C   0  0  1  0  0  3  0  0  0  0  0  0
  188.0120  178.6160  138.7900 C   0  0  0  0  0  3  0  0  0  0  0  0
  188.6930  178.3520  139.9890 C   0  0  0  0  0  0  0  0  0  0  0  0
  189.8860  174.3720  134.9200 C   0  0  0  0  0  2  0  0  0  0  0  0
  191.2060  174.8100  138.8090 O   0  0  0  0  0  1  0  0  0  0  0  0
  191.6170  176.4640  136.2670 C   0  0  1  0  0  3  0  0  0  0  0  0
  192.1620  175.2750  135.4670 C   0  0  1  0  0  3  0  0  0  0  0  0
  189.5800  177.2090  137.6020 C   0  0  0  0  0  0  0  0  0  0  0  0
  190.0560  176.5130  136.3470 C   0  0  2  0  0  3  0  0  0  0  0  0
  191.2050  174.8880  134.3470 C   0  0  0  0  0  2  0  0  0  0  0  0
  187.1490  175.9730  135.6050 C   0  0  0  0  0  3  0  0  0  0  0  0
  185.9550  174.1390  137.3030 C   0  0  0  0  0  0  0  0  0  0  0  0
  187.9480  175.0730  136.3220 C   0  0  0  0  0  0  0  0  0  0  0  0
  185.1990  175.0240  136.6000 N   0  0  0  0  0  0  0  0  0  0  0  0
  185.7580  175.9390  135.7610 C   0  0  0  0  0  0  0  0  0  0  0  0
  187.3460  174.1510  137.1800 C   0  0  0  0  0  3  0  0  0  0  0  0
  185.3290  173.2000  138.1680 N   0  0  0  0  0  1  0  0  0  0  0  0
  182.5890  177.6710  134.4100 C   0  0  0  0  0  1  0  0  0  0  0  0
  185.4200  177.8130  134.3500 O   0  0  0  0  0  0  0  0  0  0  0  0
  184.9030  176.8870  135.0320 C   0  0  0  0  0  0  0  0  0  0  0  0
  183.4800  176.7610  135.1080 N   0  0  0  0  0  2  0  0  0  0  0  0
  187.2990  177.5250  143.0860 N   0  0  0  0  0  0  0  0  0  0  0  0
  186.6960  178.8930  141.3470 C   0  0  0  0  0  3  0  0  0  0  0  0
  189.6400  177.7060  142.9010 O   0  0  0  0  0  0  0  0  0  0  0  0
  188.4890  177.9850  142.4750 C   0  0  0  0  0  0  0  0  0  0  0  0
  188.2030  178.8880  141.3140 C   0  0  1  0  0  3  0  0  0  0  0  0
  186.2490  178.1160  142.3290 C   0  0  0  0  0  0  0  0  0  0  0  0
  187.2090  176.4030  144.0070 C   0  0  0  0  0  1  0  0  0  0  0  0
  184.1890  178.4610  143.7790 C   0  0  0  0  0  1  0  0  0  0  0  0
  184.8520  177.9480  142.5930 N   0  0  0  0  0  2  0  0  0  0  0  0
  193.4660  175.6080  134.9100 N   0  0  0  0  0  2  0  0  0  0  0  0
  195.9020  175.6310  135.0680 C   0  0  0  0  0  3  0  0  0  0  0  0
  198.3060  175.6860  135.2190 O   0  0  0  0  0  1  0  0  0  0  0  0
  195.7890  172.1370  137.4370 C   0  0  0  0  0  1  0  0  0  0  0  0
  198.1340  173.4220  136.7490 O   0  0  0  0  0  0  0  0  0  0  0  0
  194.6860  173.8680  136.1670 C   0  0  0  0  0  3  0  0  0  0  0  0
  195.8550  173.3400  136.6210 N   0  0  0  0  0  0  0  0  0  0  0  0
  194.6850  175.0260  135.3790 C   0  0  0  0  0  0  0  0  0  0  0  0
  197.0950  175.0810  135.5350 C   0  0  0  0  0  0  0  0  0  0  0  0
  197.0570  173.9220  136.3230 C   0  0  0  0  0  0  0  0  0  0  0  0
  1  2  1  0  0  0  0
  2 14  2  0  0  0  0
  2  8  1  0  0  0  0
  3  7  1  0  0  0  0
  4  9  1  0  0  0  0
  5  7  1  0  0  0  0
  5  4  2  0  0  0  0
  6 19  1  6  0  0  0
  6 15  1  0  0  0  0
  7 11  1  6  0  0  0
  8  9  2  0  0  0  0
 10  6  1  0  0  0  0
 12 15  1  0  0  0  0
 12  3  1  1  0  0  0
 13 37  1  6  0  0  0
 13 12  1  0  0  0  0
 14  5  1  0  0  0  0
 15 14  1  1  0  0  0
 16 10  1  0  0  0  0
 16 13  1  0  0  0  0
 17 21  2  0  0  0  0
 17 19  1  0  0  0  0
 18 23  1  0  0  0  0
 19 22  2  0  0  0  0
 20 18  2  0  0  0  0
 21 20  1  0  0  0  0
 22 18  1  0  0  0  0
 24 27  1  0  0  0  0
 25 26  2  0  0  0  0
 26 27  1  0  0  0  0
 26 21  1  0  0  0  0
 28 34  1  0  0  0  0
 29 33  2  0  0  0  0
 31 30  2  0  0  0  0
 31 28  1  0  0  0  0
 32  9  1  6  0  0  0
 32 29  1  0  0  0  0
 32 31  1  0  0  0  0
 33 36  1  0  0  0  0
 33 28  1  0  0  0  0
 36 35  1  0  0  0  0
 37 44  1  0  0  0  0
 38 44  1  0  0  0  0
 38 45  2  0  0  0  0
 39 45  1  0  0  0  0
 42 43  1  0  0  0  0
 43 40  1  0  0  0  0
 44 42  2  0  0  0  0
 45 46  1  0  0  0  0
 46 43  1  0  0  0  0
 46 41  2  0  0  0  0
M  END
>  <MODEL>
4

>  <REMARK>
 VINA RESULT:      -6.0      3.325      9.537
  Name = 
  6 active torsions:
  status: ('A' for Active; 'I' for Inactive)
    1  A    between atoms: C_10  and  C_23
    2  A    between atoms: N_17  and  C_38
    3  A    between atoms: N_17  and  C_39
    4  A    between atoms: C_18  and  C_20
    5  A    between atoms: C_28  and  C_33
    6  A    between atoms: C_36  and  N_43
                            x       y       z     vdW  Elec       q    Type
                         _______ _______ _______ _____ _____    ______ ____

>  <TORSDO>
F 6

$$$$
=
 OpenBabel10232409003D

 46 51  0  0  1  0  0  0  0  0999 V2000
  188.2340  178.6040  136.1640 O   0  0  0  0  0  1  0  0  0  0  0  0
  188.7440  178.2460  137.4060 C   0  0  0  0  0  0  0  0  0  0  0  0
  192.5360  176.5460  137.8130 C   0  0  0  0  0  2  0  0  0  0  0  0
  189.7690  177.6110  139.8920 N   0  0  0  0  0  0  0  0  0  0  0  0
  190.3260  177.0540  138.7840 C   0  0  0  0  0  0  0  0  0  0  0  0
  189.7250  175.2680  136.0530 C   0  0  1  0  0  3  0  0  0  0  0  0
  191.5340  176.1860  138.9120 C   0  0  1  0  0  3  0  0  0  0  0  0
  188.1900  178.8020  138.5580 C   0  0  0  0  0  3  0  0  0  0  0  0
  188.7220  178.4800  139.8170 C   0  0  0  0  0  0  0  0  0  0  0  0
  190.2710  174.5460  134.8080 C   0  0  0  0  0  2  0  0  0  0  0  0
  191.1760  174.8390  138.8270 O   0  0  0  0  0  1  0  0  0  0  0  0
  191.9420  176.5200  136.3870 C   0  0  1  0  0  3  0  0  0  0  0  0
  192.5140  175.3210  135.6210 C   0  0  1  0  0  3  0  0  0  0  0  0
  189.8090  177.3410  137.5120 C   0  0  0  0  0  0  0  0  0  0  0  0
  190.3860  176.6470  136.2990 C   0  0  2  0  0  3  0  0  0  0  0  0
  191.6680  175.0060  134.3940 C   0  0  0  0  0  2  0  0  0  0  0  0
  187.4510  174.3470  136.6560 C   0  0  0  0  0  3  0  0  0  0  0  0
  186.2030  176.3670  135.2310 C   0  0  0  0  0  0  0  0  0  0  0  0
  188.2270  175.3160  136.0080 C   0  0  0  0  0  0  0  0  0  0  0  0
  185.4690  175.4140  135.8650 N   0  0  0  0  0  0  0  0  0  0  0  0
  186.0550  174.4080  136.5700 C   0  0  0  0  0  0  0  0  0  0  0  0
  187.5970  176.3320  135.2870 C   0  0  0  0  0  3  0  0  0  0  0  0
  185.5490  177.4020  134.5060 N   0  0  0  0  0  1  0  0  0  0  0  0
  183.1490  171.9550  137.2120 C   0  0  0  0  0  1  0  0  0  0  0  0
  185.5810  172.8910  138.3290 O   0  0  0  0  0  0  0  0  0  0  0  0
  185.2220  173.3900  137.2270 C   0  0  0  0  0  0  0  0  0  0  0  0
  184.0080  172.9590  136.6070 N   0  0  0  0  0  2  0  0  0  0  0  0
  187.3450  177.6360  142.9170 N   0  0  0  0  0  0  0  0  0  0  0  0
  186.6230  178.8100  141.0850 C   0  0  0  0  0  3  0  0  0  0  0  0
  189.6450  178.1300  142.7870 O   0  0  0  0  0  0  0  0  0  0  0  0
  188.4820  178.2230  142.3130 C   0  0  0  0  0  0  0  0  0  0  0  0
  188.1170  179.0130  141.0940 C   0  0  1  0  0  3  0  0  0  0  0  0
  186.2520  178.0320  142.0970 C   0  0  0  0  0  0  0  0  0  0  0  0
  187.3770  176.5630  143.8990 C   0  0  0  0  0  1  0  0  0  0  0  0
  183.7690  178.2610  141.5950 C   0  0  0  0  0  1  0  0  0  0  0  0
  184.8830  177.6860  142.3310 N   0  0  0  0  0  2  0  0  0  0  0  0
  193.8860  175.5990  135.2180 N   0  0  0  0  0  2  0  0  0  0  0  0
  196.2850  175.4890  135.6540 C   0  0  0  0  0  3  0  0  0  0  0  0
  198.6550  175.4130  136.0830 O   0  0  0  0  0  1  0  0  0  0  0  0
  195.7440  171.8670  137.7580 C   0  0  0  0  0  1  0  0  0  0  0  0
  198.2070  173.0710  137.4300 O   0  0  0  0  0  0  0  0  0  0  0  0
  194.8740  173.7260  136.4880 C   0  0  0  0  0  3  0  0  0  0  0  0
  195.9570  173.1130  137.0370 N   0  0  0  0  0  0  0  0  0  0  0  0
  195.0150  174.9290  135.7840 C   0  0  0  0  0  0  0  0  0  0  0  0
  197.3900  174.8520  136.2180 C   0  0  0  0  0  0  0  0  0  0  0  0
  197.2100  173.6510  136.9170 C   0  0  0  0  0  0  0  0  0  0  0  0
  1  2  1  0  0  0  0
  2 14  2  0  0  0  0
  2  8  1  0  0  0  0
  3  7  1  0  0  0  0
  5  7  1  0  0  0  0
  5  4  2  0  0  0  0
  6 19  1  6  0  0  0
  6 15  1  0  0  0  0
  7 11  1  6  0  0  0
  8  9  2  0  0  0  0
  9  4  1  0  0  0  0
 10  6  1  0  0  0  0
 12  3  1  1  0  0  0
 13 37  1  6  0  0  0
 13 12  1  0  0  0  0
 14  5  1  0  0  0  0
 15 12  1  0  0  0  0
 15 14  1  1  0  0  0
 16 10  1  0  0  0  0
 16 13  1  0  0  0  0
 18 22  2  0  0  0  0
 18 20  1  0  0  0  0
 19 17  2  0  0  0  0
 20 21  2  0  0  0  0
 21 17  1  0  0  0  0
 21 26  1  0  0  0  0
 22 19  1  0  0  0  0
 23 18  1  0  0  0  0
 26 25  2  0  0  0  0
 27 24  1  0  0  0  0
 27 26  1  0  0  0  0
 28 34  1  0  0  0  0
 29 32  1  0  0  0  0
 29 33  2  0  0  0  0
 31 30  2  0  0  0  0
 31 28  1  0  0  0  0
 32  9  1  6  0  0  0
 32 31  1  0  0  0  0
 33 36  1  0  0  0  0
 33 28  1  0  0  0  0
 35 36  1  0  0  0  0
 37 44  1  0  0  0  0
 38 44  1  0  0  0  0
 38 45  2  0  0  0  0
 39 45  1  0  0  0  0
 42 43  1  0  0  0  0
 43 40  1  0  0  0  0
 44 42  2  0  0  0  0
 45 46  1  0  0  0  0
 46 43  1  0  0  0  0
 46 41  2  0  0  0  0
M  END
>  <MODEL>
5

>  <REMARK>
 VINA RESULT:      -5.9      2.864      9.451
  Name = 
  6 active torsions:
  status: ('A' for Active; 'I' for Inactive)
    1  A    between atoms: C_10  and  C_23
    2  A    between atoms: N_17  and  C_38
    3  A    between atoms: N_17  and  C_39
    4  A    between atoms: C_18  and  C_20
    5  A    between atoms: C_28  and  C_33
    6  A    between atoms: C_36  and  N_43
                            x       y       z     vdW  Elec       q    Type
                         _______ _______ _______ _____ _____    ______ ____

>  <TORSDO>
F 6

$$$$
=
 OpenBabel10232409003D

 46 51  0  0  1  0  0  0  0  0999 V2000
  185.4720  176.2320  134.9520 O   0  0  0  0  0  1  0  0  0  0  0  0
  185.8850  176.8660  136.1180 C   0  0  0  0  0  0  0  0  0  0  0  0
  189.9300  177.3830  137.0150 C   0  0  0  0  0  2  0  0  0  0  0  0
  186.6860  178.1960  138.4030 N   0  0  0  0  0  0  0  0  0  0  0  0
  187.5770  177.4000  137.7540 C   0  0  0  0  0  0  0  0  0  0  0  0
  188.1380  174.3440  136.5920 C   0  0  1  0  0  3  0  0  0  0  0  0
  188.9920  177.3270  138.2230 C   0  0  1  0  0  3  0  0  0  0  0  0
  184.9910  177.6870  136.8040 C   0  0  0  0  0  3  0  0  0  0  0  0
  185.4080  178.3640  137.9600 C   0  0  0  0  0  0  0  0  0  0  0  0
  189.1030  173.3480  135.9240 C   0  0  0  0  0  2  0  0  0  0  0  0
  189.2020  176.1550  138.9520 O   0  0  0  0  0  1  0  0  0  0  0  0
  189.6160  176.3350  135.9250 C   0  0  1  0  0  3  0  0  0  0  0  0
  190.7180  175.2680  135.9160 C   0  0  1  0  0  3  0  0  0  0  0  0
  187.1890  176.6960  136.6050 C   0  0  0  0  0  0  0  0  0  0  0  0
  188.1660  175.7500  135.9440 C   0  0  2  0  0  3  0  0  0  0  0  0
  190.2570  174.0170  135.1790 C   0  0  0  0  0  2  0  0  0  0  0  0
  186.4240  172.5950  135.9680 C   0  0  0  0  0  3  0  0  0  0  0  0
  184.5180  173.8310  137.5530 C   0  0  0  0  0  0  0  0  0  0  0  0
  186.7640  173.7500  136.6840 C   0  0  0  0  0  0  0  0  0  0  0  0
  184.2090  172.7100  136.8460 N   0  0  0  0  0  0  0  0  0  0  0  0
  185.1240  172.0830  136.0570 C   0  0  0  0  0  0  0  0  0  0  0  0
  185.8010  174.3740  137.4790 C   0  0  0  0  0  3  0  0  0  0  0  0
  183.5300  174.4530  138.3650 N   0  0  0  0  0  1  0  0  0  0  0  0
  183.0880  169.0250  134.8840 C   0  0  0  0  0  1  0  0  0  0  0  0
  185.4880  170.4490  134.3800 O   0  0  0  0  0  0  0  0  0  0  0  0
  184.7420  170.8830  135.2990 C   0  0  0  0  0  0  0  0  0  0  0  0
  183.5150  170.2140  135.6020 N   0  0  0  0  0  2  0  0  0  0  0  0
  183.5470  178.5890  140.9100 N   0  0  0  0  0  0  0  0  0  0  0  0
  183.0570  178.6650  138.6720 C   0  0  0  0  0  3  0  0  0  0  0  0
  185.7030  179.5350  140.8480 O   0  0  0  0  0  0  0  0  0  0  0  0
  184.6730  179.1290  140.2470 C   0  0  0  0  0  0  0  0  0  0  0  0
  184.4570  179.2170  138.7670 C   0  0  1  0  0  3  0  0  0  0  0  0
  182.6090  178.3200  139.8740 C   0  0  0  0  0  0  0  0  0  0  0  0
  183.5410  178.0730  142.2700 C   0  0  0  0  0  1  0  0  0  0  0  0
  180.9710  176.3750  139.8800 C   0  0  0  0  0  1  0  0  0  0  0  0
  181.2990  177.7770  140.0730 N   0  0  0  0  0  2  0  0  0  0  0  0
  191.9190  175.8000  135.2860 N   0  0  0  0  0  2  0  0  0  0  0  0
  193.4070  174.7380  136.9030 C   0  0  0  0  0  3  0  0  0  0  0  0
  194.8540  173.6670  138.5040 O   0  0  0  0  0  1  0  0  0  0  0  0
  196.7420  176.4940  134.9970 C   0  0  0  0  0  1  0  0  0  0  0  0
  196.9560  174.8460  137.2020 O   0  0  0  0  0  0  0  0  0  0  0  0
  194.3630  176.1300  135.1870 C   0  0  0  0  0  3  0  0  0  0  0  0
  195.6090  175.8780  135.6720 N   0  0  0  0  0  0  0  0  0  0  0  0
  193.2340  175.5650  135.7930 C   0  0  0  0  0  0  0  0  0  0  0  0
  194.6880  174.4880  137.3950 C   0  0  0  0  0  0  0  0  0  0  0  0
  195.7940  175.0700  136.7610 C   0  0  0  0  0  0  0  0  0  0  0  0
  1  2  1  0  0  0  0
  2 14  2  0  0  0  0
  2  8  1  0  0  0  0
  3  7  1  0  0  0  0
  5  7  1  0  0  0  0
  5  4  2  0  0  0  0
  6 19  1  6  0  0  0
  7 11  1  6  0  0  0
  8  9  2  0  0  0  0
  9  4  1  0  0  0  0
 10  6  1  0  0  0  0
 12 15  1  0  0  0  0
 12  3  1  1  0  0  0
 13 37  1  6  0  0  0
 13 12  1  0  0  0  0
 14  5  1  0  0  0  0
 15  6  1  0  0  0  0
 15 14  1  1  0  0  0
 16 13  1  0  0  0  0
 16 10  1  0  0  0  0
 17 21  2  0  0  0  0
 17 19  1  0  0  0  0
 18 23  1  0  0  0  0
 19 22  2  0  0  0  0
 20 18  2  0  0  0  0
 21 20  1  0  0  0  0
 22 18  1  0  0  0  0
 24 27  1  0  0  0  0
 25 26  2  0  0  0  0
 26 27  1  0  0  0  0
 26 21  1  0  0  0  0
 28 34  1  0  0  0  0
 29 32  1  0  0  0  0
 29 33  2  0  0  0  0
 31 30  2  0  0  0  0
 31 28  1  0  0  0  0
 32  9  1  6  0  0  0
 32 31  1  0  0  0  0
 33 36  1  0  0  0  0
 33 28  1  0  0  0  0
 35 36  1  0  0  0  0
 37 44  1  0  0  0  0
 38 45  2  0  0  0  0
 40 43  1  0  0  0  0
 42 43  1  0  0  0  0
 42 44  2  0  0  0  0
 43 46  1  0  0  0  0
 44 38  1  0  0  0  0
 45 39  1  0  0  0  0
 46 41  2  0  0  0  0
 46 45  1  0  0  0  0
M  END
>  <MODEL>
6

>  <REMARK>
 VINA RESULT:      -5.8      3.436     10.039
  Name = 
  6 active torsions:
  status: ('A' for Active; 'I' for Inactive)
    1  A    between atoms: C_10  and  C_23
    2  A    between atoms: N_17  and  C_38
    3  A    between atoms: N_17  and  C_39
    4  A    between atoms: C_18  and  C_20
    5  A    between atoms: C_28  and  C_33
    6  A    between atoms: C_36  and  N_43
                            x       y       z     vdW  Elec       q    Type
                         _______ _______ _______ _____ _____    ______ ____

>  <TORSDO>
F 6

$$$$
=
 OpenBabel10232409003D

 46 51  0  0  1  0  0  0  0  0999 V2000
  188.8510  177.3360  134.3490 O   0  0  0  0  0  1  0  0  0  0  0  0
  189.4840  176.1290  134.6220 C   0  0  0  0  0  0  0  0  0  0  0  0
  187.4200  172.5010  134.5270 C   0  0  0  0  0  2  0  0  0  0  0  0
  190.7770  173.7340  135.0950 N   0  0  0  0  0  0  0  0  0  0  0  0
  189.4210  173.7840  135.1850 C   0  0  0  0  0  0  0  0  0  0  0  0
  186.8550  175.3030  136.6390 C   0  0  1  0  0  3  0  0  0  0  0  0
  188.6450  172.5350  135.4440 C   0  0  1  0  0  3  0  0  0  0  0  0
  190.8730  176.0510  134.5380 C   0  0  0  0  0  3  0  0  0  0  0  0
  191.5220  174.8290  134.7720 C   0  0  0  0  0  0  0  0  0  0  0  0
  185.3340  175.3930  136.8600 C   0  0  0  0  0  2  0  0  0  0  0  0
  188.2550  172.4750  136.7840 O   0  0  0  0  0  1  0  0  0  0  0  0
  186.5400  173.7680  134.6040 C   0  0  1  0  0  3  0  0  0  0  0  0
  185.2200  173.4270  135.3070 C   0  0  1  0  0  3  0  0  0  0  0  0
  188.7420  174.9930  134.9730 C   0  0  0  0  0  0  0  0  0  0  0  0
  187.2430  175.0490  135.1610 C   0  0  2  0  0  3  0  0  0  0  0  0
  184.5130  174.6900  135.7800 C   0  0  0  0  0  2  0  0  0  0  0  0
  188.5000  176.3400  138.2520 C   0  0  0  0  0  3  0  0  0  0  0  0
  187.8110  178.8820  137.3930 C   0  0  0  0  0  0  0  0  0  0  0  0
  187.5370  176.4920  137.2460 C   0  0  0  0  0  0  0  0  0  0  0  0
  188.7410  178.7100  138.3710 N   0  0  0  0  0  0  0  0  0  0  0  0
  189.0970  177.4740  138.8160 C   0  0  0  0  0  0  0  0  0  0  0  0
  187.1880  177.7740  136.8160 C   0  0  0  0  0  3  0  0  0  0  0  0
  187.4700  180.1920  136.9590 N   0  0  0  0  0  1  0  0  0  0  0  0
  190.6170  176.8520  142.3040 C   0  0  0  0  0  1  0  0  0  0  0  0
  191.3200  177.5060  139.6360 O   0  0  0  0  0  0  0  0  0  0  0  0
  190.0950  177.3370  139.8860 C   0  0  0  0  0  0  0  0  0  0  0  0
  189.6730  177.0010  141.2100 N   0  0  0  0  0  2  0  0  0  0  0  0
  194.4650  175.2400  136.6120 N   0  0  0  0  0  0  0  0  0  0  0  0
  193.6520  176.0800  134.6390 C   0  0  0  0  0  3  0  0  0  0  0  0
  193.4410  173.1200  136.5590 O   0  0  0  0  0  0  0  0  0  0  0  0
  193.6200  174.2570  136.0470 C   0  0  0  0  0  0  0  0  0  0  0  0
  193.0270  174.7120  134.7490 C   0  0  1  0  0  3  0  0  0  0  0  0
  194.4200  176.3280  135.6950 C   0  0  0  0  0  0  0  0  0  0  0  0
  194.9280  175.2580  137.9900 C   0  0  0  0  0  1  0  0  0  0  0  0
  196.1190  178.0350  134.8770 C   0  0  0  0  0  1  0  0  0  0  0  0
  195.1440  177.5540  135.8410 N   0  0  0  0  0  2  0  0  0  0  0  0
  184.3540  172.6850  134.4000 N   0  0  0  0  0  2  0  0  0  0  0  0
  182.9870  170.6620  134.3800 C   0  0  0  0  0  3  0  0  0  0  0  0
  181.6640  168.6480  134.3530 O   0  0  0  0  0  1  0  0  0  0  0  0
  180.3050  172.4390  137.1160 C   0  0  0  0  0  1  0  0  0  0  0  0
  179.9820  169.8810  136.1270 O   0  0  0  0  0  0  0  0  0  0  0  0
  182.2920  172.5170  135.7480 C   0  0  0  0  0  3  0  0  0  0  0  0
  181.2130  171.8050  136.1720 N   0  0  0  0  0  0  0  0  0  0  0  0
  183.2030  171.9600  134.8420 C   0  0  0  0  0  0  0  0  0  0  0  0
  181.8770  169.9410  134.8180 C   0  0  0  0  0  0  0  0  0  0  0  0
  180.9880  170.5310  135.7270 C   0  0  0  0  0  0  0  0  0  0  0  0
  1  2  1  0  0  0  0
  2 14  1  0  0  0  0
  3  7  1  0  0  0  0
  4  5  1  0  0  0  0
  5  7  1  0  0  0  0
  6 10  1  0  0  0  0
  6 19  1  6  0  0  0
  7 11  1  1  0  0  0
  8  2  2  0  0  0  0
  8  9  1  0  0  0  0
  9  4  2  0  0  0  0
 12  3  1  1  0  0  0
 12 15  1  0  0  0  0
 12 13  1  0  0  0  0
 13 37  1  6  0  0  0
 13 16  1  0  0  0  0
 14  5  2  0  0  0  0
 15 14  1  1  0  0  0
 15  6  1  0  0  0  0
 16 10  1  0  0  0  0
 17 21  1  0  0  0  0
 18 20  1  0  0  0  0
 19 17  2  0  0  0  0
 20 21  2  0  0  0  0
 21 26  1  0  0  0  0
 22 19  1  0  0  0  0
 22 18  2  0  0  0  0
 23 18  1  0  0  0  0
 25 26  2  0  0  0  0
 26 27  1  0  0  0  0
 27 24  1  0  0  0  0
 28 34  1  0  0  0  0
 29 32  1  0  0  0  0
 29 33  2  0  0  0  0
 31 30  2  0  0  0  0
 31 28  1  0  0  0  0
 32  9  1  1  0  0  0
 32 31  1  0  0  0  0
 33 36  1  0  0  0  0
 33 28  1  0  0  0  0
 35 36  1  0  0  0  0
 37 44  1  0  0  0  0
 38 45  2  0  0  0  0
 38 44  1  0  0  0  0
 39 45  1  0  0  0  0
 42 43  1  0  0  0  0
 43 40  1  0  0  0  0
 44 42  2  0  0  0  0
 45 46  1  0  0  0  0
 46 41  2  0  0  0  0
 46 43  1  0  0  0  0
M  END
>  <MODEL>
7

>  <REMARK>
 VINA RESULT:      -5.5      1.629      2.194
  Name = 
  6 active torsions:
  status: ('A' for Active; 'I' for Inactive)
    1  A    between atoms: C_10  and  C_23
    2  A    between atoms: N_17  and  C_38
    3  A    between atoms: N_17  and  C_39
    4  A    between atoms: C_18  and  C_20
    5  A    between atoms: C_28  and  C_33
    6  A    between atoms: C_36  and  N_43
                            x       y       z     vdW  Elec       q    Type
                         _______ _______ _______ _____ _____    ______ ____

>  <TORSDO>
F 6

$$$$
=
 OpenBabel10232409003D

 46 51  0  0  1  0  0  0  0  0999 V2000
  184.7940  176.4670  135.1360 O   0  0  0  0  0  1  0  0  0  0  0  0
  185.3840  177.0080  136.2710 C   0  0  0  0  0  0  0  0  0  0  0  0
  189.5310  177.1060  136.7520 C   0  0  0  0  0  2  0  0  0  0  0  0
  186.5400  178.1570  138.5020 N   0  0  0  0  0  0  0  0  0  0  0  0
  187.2780  177.3110  137.7350 C   0  0  0  0  0  0  0  0  0  0  0  0
  187.4170  174.2690  136.4200 C   0  0  1  0  0  3  0  0  0  0  0  0
  188.7200  177.0850  138.0500 C   0  0  1  0  0  3  0  0  0  0  0  0
  184.6490  177.8780  137.0750 C   0  0  0  0  0  3  0  0  0  0  0  0
  185.2460  178.4630  138.2030 C   0  0  0  0  0  0  0  0  0  0  0  0
  188.2070  173.2170  135.6210 C   0  0  0  0  0  2  0  0  0  0  0  0
  188.8880  175.8680  138.7130 O   0  0  0  0  0  1  0  0  0  0  0  0
  189.0070  176.1400  135.6670 C   0  0  1  0  0  3  0  0  0  0  0  0
  189.9920  174.9750  135.5060 C   0  0  1  0  0  3  0  0  0  0  0  0
  186.7080  176.6960  136.6110 C   0  0  0  0  0  0  0  0  0  0  0  0
  187.5160  175.6920  135.8200 C   0  0  2  0  0  3  0  0  0  0  0  0
  189.3390  173.8060  134.7800 C   0  0  0  0  0  2  0  0  0  0  0  0
  185.0650  174.6170  137.2750 C   0  0  0  0  0  3  0  0  0  0  0  0
  184.3330  172.0820  136.4350 C   0  0  0  0  0  0  0  0  0  0  0  0
  186.0080  173.8020  136.6370 C   0  0  0  0  0  0  0  0  0  0  0  0
  183.4350  172.8900  137.0590 N   0  0  0  0  0  0  0  0  0  0  0  0
  183.7660  174.1390  137.4860 C   0  0  0  0  0  0  0  0  0  0  0  0
  185.6400  172.5220  136.2180 C   0  0  0  0  0  3  0  0  0  0  0  0
  183.9430  170.7830  136.0060 N   0  0  0  0  0  1  0  0  0  0  0  0
  180.5250  176.1250  138.1330 C   0  0  0  0  0  1  0  0  0  0  0  0
  182.9790  175.3830  139.3430 O   0  0  0  0  0  0  0  0  0  0  0  0
  182.7670  174.9710  138.1700 C   0  0  0  0  0  0  0  0  0  0  0  0
  181.5470  175.3060  137.5030 N   0  0  0  0  0  2  0  0  0  0  0  0
  183.7830  178.7560  141.3640 N   0  0  0  0  0  0  0  0  0  0  0  0
  183.0310  178.9230  139.2040 C   0  0  0  0  0  3  0  0  0  0  0  0
  185.9820  179.5390  141.0490 O   0  0  0  0  0  0  0  0  0  0  0  0
  184.8580  179.2260  140.5740 C   0  0  0  0  0  0  0  0  0  0  0  0
  184.4710  179.3650  139.1340 C   0  0  1  0  0  3  0  0  0  0  0  0
  182.7080  178.5840  140.4480 C   0  0  0  0  0  0  0  0  0  0  0  0
  183.9040  178.2090  142.7060 C   0  0  0  0  0  1  0  0  0  0  0  0
  180.3960  178.9830  141.4310 C   0  0  0  0  0  1  0  0  0  0  0  0
  181.3940  178.1360  140.8000 N   0  0  0  0  0  2  0  0  0  0  0  0
  191.1680  175.4200  134.7700 N   0  0  0  0  0  2  0  0  0  0  0  0
  193.3300  176.4950  135.1240 C   0  0  0  0  0  3  0  0  0  0  0  0
  195.4510  177.5860  135.4710 O   0  0  0  0  0  1  0  0  0  0  0  0
  194.6130  173.1810  137.4050 C   0  0  0  0  0  1  0  0  0  0  0  0
  196.1940  175.3950  136.9360 O   0  0  0  0  0  0  0  0  0  0  0  0
  192.9450  174.3220  136.0850 C   0  0  0  0  0  3  0  0  0  0  0  0
  194.1960  174.3340  136.6220 N   0  0  0  0  0  0  0  0  0  0  0  0
  192.4860  175.4040  135.3240 C   0  0  0  0  0  0  0  0  0  0  0  0
  194.6110  176.4970  135.6760 C   0  0  0  0  0  0  0  0  0  0  0  0
  195.0360  175.3970  136.4340 C   0  0  0  0  0  0  0  0  0  0  0  0
  1  2  1  0  0  0  0
  2 14  2  0  0  0  0
  2  8  1  0  0  0  0
  3  7  1  0  0  0  0
  5  7  1  0  0  0  0
  5  4  2  0  0  0  0
  6 19  1  6  0  0  0
  7 11  1  6  0  0  0
  8  9  2  0  0  0  0
  9  4  1  0  0  0  0
 10  6  1  0  0  0  0
 12 15  1  0  0  0  0
 12  3  1  1  0  0  0
 13 37  1  6  0  0  0
 13 12  1  0  0  0  0
 14  5  1  0  0  0  0
 15  6  1  0  0  0  0
 15 14  1  1  0  0  0
 16 13  1  0  0  0  0
 16 10  1  0  0  0  0
 17 21  1  0  0  0  0
 18 20  1  0  0  0  0
 19 17  2  0  0  0  0
 20 21  2  0  0  0  0
 21 26  1  0  0  0  0
 22 18  2  0  0  0  0
 22 19  1  0  0  0  0
 23 18  1  0  0  0  0
 26 25  2  0  0  0  0
 27 24  1  0  0  0  0
 27 26  1  0  0  0  0
 28 34  1  0  0  0  0
 29 33  2  0  0  0  0
 31 30  2  0  0  0  0
 31 28  1  0  0  0  0
 32  9  1  6  0  0  0
 32 29  1  0  0  0  0
 32 31  1  0  0  0  0
 33 36  1  0  0  0  0
 33 28  1  0  0  0  0
 36 35  1  0  0  0  0
 37 44  1  0  0  0  0
 38 44  1  0  0  0  0
 38 45  2  0  0  0  0
 39 45  1  0  0  0  0
 42 43  1  0  0  0  0
 43 40  1  0  0  0  0
 44 42  2  0  0  0  0
 45 46  1  0  0  0  0
 46 43  1  0  0  0  0
 46 41  2  0  0  0  0
M  END
>  <MODEL>
8

>  <REMARK>
 VINA RESULT:      -5.2      3.702      9.810
  Name = 
  6 active torsions:
  status: ('A' for Active; 'I' for Inactive)
    1  A    between atoms: C_10  and  C_23
    2  A    between atoms: N_17  and  C_38
    3  A    between atoms: N_17  and  C_39
    4  A    between atoms: C_18  and  C_20
    5  A    between atoms: C_28  and  C_33
    6  A    between atoms: C_36  and  N_43
                            x       y       z     vdW  Elec       q    Type
                         _______ _______ _______ _____ _____    ______ ____

>  <TORSDO>
F 6

$$$$
=
 OpenBabel10232409003D

 46 51  0  0  1  0  0  0  0  0999 V2000
  188.4490  175.8760  142.9830 O   0  0  0  0  0  1  0  0  0  0  0  0
  187.9070  176.9450  142.2790 C   0  0  0  0  0  0  0  0  0  0  0  0
  188.4150  177.3390  138.1540 C   0  0  0  0  0  2  0  0  0  0  0  0
  186.7580  179.0370  140.8890 N   0  0  0  0  0  0  0  0  0  0  0  0
  187.7740  178.3400  140.3150 C   0  0  0  0  0  0  0  0  0  0  0  0
  190.9060  177.3110  140.6880 C   0  0  1  0  0  3  0  0  0  0  0  0
  188.1930  178.6470  138.9150 C   0  0  1  0  0  3  0  0  0  0  0  0
  186.8650  177.6780  142.8450 C   0  0  0  0  0  3  0  0  0  0  0  0
  186.2820  178.7350  142.1290 C   0  0  0  0  0  0  0  0  0  0  0  0
  192.1350  176.6000  140.0960 C   0  0  0  0  0  2  0  0  0  0  0  0
  189.3570  179.4180  138.9150 O   0  0  0  0  0  1  0  0  0  0  0  0
  189.3810  176.3580  138.8550 C   0  0  1  0  0  3  0  0  0  0  0  0
  190.6940  176.2890  138.0660 C   0  0  1  0  0  3  0  0  0  0  0  0
  188.3900  177.2890  141.0090 C   0  0  0  0  0  0  0  0  0  0  0  0
  189.5740  176.5800  140.3910 C   0  0  2  0  0  3  0  0  0  0  0  0
  191.8070  175.6870  138.9140 C   0  0  0  0  0  2  0  0  0  0  0  0
  191.4690  176.5760  143.0390 C   0  0  0  0  0  3  0  0  0  0  0  0
  191.1490  179.1630  143.9750 C   0  0  0  0  0  0  0  0  0  0  0  0
  191.1260  177.5970  142.1440 C   0  0  0  0  0  0  0  0  0  0  0  0
  191.4790  178.1560  144.8270 N   0  0  0  0  0  0  0  0  0  0  0  0
  191.6400  176.8750  144.3960 C   0  0  0  0  0  0  0  0  0  0  0  0
  190.9610  178.9000  142.6170 C   0  0  0  0  0  3  0  0  0  0  0  0
  190.9920  180.4880  144.4680 N   0  0  0  0  0  1  0  0  0  0  0  0
  192.2180  175.0600  147.7500 C   0  0  0  0  0  1  0  0  0  0  0  0
  192.3450  174.6790  144.9430 O   0  0  0  0  0  0  0  0  0  0  0  0
  191.9820  175.8140  145.3550 C   0  0  0  0  0  0  0  0  0  0  0  0
  191.8930  176.0720  146.7590 N   0  0  0  0  0  2  0  0  0  0  0  0
  183.6160  178.8320  144.3880 N   0  0  0  0  0  0  0  0  0  0  0  0
  183.8540  179.2130  142.1400 C   0  0  0  0  0  3  0  0  0  0  0  0
  185.7460  179.5330  145.1080 O   0  0  0  0  0  0  0  0  0  0  0  0
  184.9280  179.3150  144.1760 C   0  0  0  0  0  0  0  0  0  0  0  0
  185.1900  179.5910  142.7260 C   0  0  1  0  0  3  0  0  0  0  0  0
  183.0300  178.7870  143.0920 C   0  0  0  0  0  0  0  0  0  0  0  0
  183.1510  178.1700  145.5970 C   0  0  0  0  0  1  0  0  0  0  0  0
  180.5310  179.2380  142.9670 C   0  0  0  0  0  1  0  0  0  0  0  0
  181.6890  178.3740  142.8120 N   0  0  0  0  0  2  0  0  0  0  0  0
  190.5060  175.4930  136.8600 N   0  0  0  0  0  2  0  0  0  0  0  0
  191.5480  173.3990  136.1650 C   0  0  0  0  0  3  0  0  0  0  0  0
  192.5480  171.3170  135.4780 O   0  0  0  0  0  1  0  0  0  0  0  0
  194.7080  175.5560  134.3770 C   0  0  0  0  0  1  0  0  0  0  0  0
  194.5530  172.7990  134.3460 O   0  0  0  0  0  0  0  0  0  0  0  0
  192.6360  175.4740  135.6130 C   0  0  0  0  0  3  0  0  0  0  0  0
  193.6320  174.7890  134.9860 N   0  0  0  0  0  0  0  0  0  0  0  0
  191.5720  174.7920  136.2160 C   0  0  0  0  0  0  0  0  0  0  0  0
  192.5750  172.7060  135.5230 C   0  0  0  0  0  0  0  0  0  0  0  0
  193.6220  173.4220  134.9290 C   0  0  0  0  0  0  0  0  0  0  0  0
  2  8  1  0  0  0  0
  2  1  1  0  0  0  0
  3  7  1  0  0  0  0
  4  9  1  0  0  0  0
  5  4  2  0  0  0  0
  5 14  1  0  0  0  0
  6 19  1  1  0  0  0
  7 11  1  1  0  0  0
  7  5  1  0  0  0  0
  9  8  2  0  0  0  0
 10  6  1  0  0  0  0
 12  3  1  6  0  0  0
 12 15  1  0  0  0  0
 13 37  1  6  0  0  0
 13 12  1  0  0  0  0
 13 16  1  0  0  0  0
 14  2  2  0  0  0  0
 15  6  1  0  0  0  0
 15 14  1  6  0  0  0
 16 10  1  0  0  0  0
 17 21  1  0  0  0  0
 18 23  1  0  0  0  0
 18 20  1  0  0  0  0
 19 22  1  0  0  0  0
 19 17  2  0  0  0  0
 21 20  2  0  0  0  0
 21 26  1  0  0  0  0
 22 18  2  0  0  0  0
 25 26  2  0  0  0  0
 26 27  1  0  0  0  0
 27 24  1  0  0  0  0
 28 34  1  0  0  0  0
 29 32  1  0  0  0  0
 29 33  2  0  0  0  0
 31 28  1  0  0  0  0
 31 30  2  0  0  0  0
 32  9  1  6  0  0  0
 32 31  1  0  0  0  0
 33 28  1  0  0  0  0
 36 35  1  0  0  0  0
 36 33  1  0  0  0  0
 38 44  1  0  0  0  0
 39 45  1  0  0  0  0
 40 43  1  0  0  0  0
 41 46  2  0  0  0  0
 42 44  2  0  0  0  0
 43 42  1  0  0  0  0
 44 37  1  0  0  0  0
 45 38  2  0  0  0  0
 46 43  1  0  0  0  0
 46 45  1  0  0  0  0
M  END
>  <MODEL>
9

>  <REMARK>
 VINA RESULT:      -5.0      5.154      9.834
  Name = 
  6 active torsions:
  status: ('A' for Active; 'I' for Inactive)
    1  A    between atoms: C_10  and  C_23
    2  A    between atoms: N_17  and  C_38
    3  A    between atoms: N_17  and  C_39
    4  A    between atoms: C_18  and  C_20
    5  A    between atoms: C_28  and  C_33
    6  A    between atoms: C_36  and  N_43
                            x       y       z     vdW  Elec       q    Type
                         _______ _______ _______ _____ _____    ______ ____

>  <TORSDO>
F 6

$$$$
