=
 OpenBabel10232409073D

 28 30  0  0  1  0  0  0  0  0999 V2000
  189.7150  177.5300  144.3650 C   0  0  2  0  0  3  0  0  0  0  0  0
  184.3820  179.4990  144.5030 N   0  0  0  0  0  0  0  0  0  0  0  0
  184.8740  179.1730  145.7680 N   0  0  0  0  0  2  0  0  0  0  0  0
  188.2720  177.6610  144.7730 C   0  0  0  0  0  0  0  0  0  0  0  0
  186.7070  177.9040  146.6620 C   0  0  0  0  0  3  0  0  0  0  0  0
  185.6840  178.1780  145.6610 C   0  0  2  0  0  3  0  0  0  0  0  0
  187.9400  177.6490  146.2250 C   0  0  0  0  0  3  0  0  0  0  0  0
  184.5440  178.8080  142.1840 C   0  0  0  0  0  1  0  0  0  0  0  0
  187.3000  177.7300  143.8290 C   0  0  0  0  0  0  0  0  0  0  0  0
  184.9470  178.7540  143.6140 C   0  0  0  0  0  0  0  0  0  0  0  0
  185.8310  177.7150  144.2450 C   0  0  2  0  0  3  0  0  0  0  0  0
  187.6740  177.5820  142.4520 N   0  0  0  0  0  2  0  0  0  0  0  0
  187.9460  178.1840  140.1240 C   0  0  0  0  0  1  0  0  0  0  0  0
  187.8570  178.7000  141.5420 C   0  0  0  0  0  2  0  0  0  0  0  0
  192.9850  175.5300  148.6980 C   0  0  0  0  0  1  0  0  0  0  0  0
  192.1440  176.0360  147.5820 C   0  0  0  0  0  0  0  0  0  0  0  0
  192.2350  175.4480  146.3160 C   0  0  0  0  0  3  0  0  0  0  0  0
  190.4730  177.5760  146.7460 C   0  0  0  0  0  3  0  0  0  0  0  0
  190.5550  176.9870  145.4800 C   0  0  0  0  0  0  0  0  0  0  0  0
  191.4440  175.9220  145.2660 C   0  0  0  0  0  3  0  0  0  0  0  0
  191.2650  177.1010  147.7960 C   0  0  0  0  0  3  0  0  0  0  0  0
  190.2190  178.7520  143.9050 O   0  0  0  0  0  0  0  0  0  0  0  0
  191.4240  178.4300  143.2760 C   0  0  0  0  0  2  0  0  0  0  0  0
  191.1430  177.6230  142.0250 C   0  0  0  0  0  2  0  0  0  0  0  0
  191.1310  176.7790  139.3340 N   0  0  0  0  0  1  0  0  0  0  0  0
  193.5690  177.0960  139.2610 N   0  0  0  0  0  1  0  0  0  0  0  0
  192.3520  177.5400  141.2200 N   0  0  0  0  0  0  0  0  0  0  0  0
  192.3450  177.1520  139.9820 C   0  0  0  0  0  0  0  0  0  0  0  0
  1 22  1  1  0  0  0
  1  4  1  0  0  0  0
  1 19  1  0  0  0  0
  2  3  1  0  0  0  0
  4  7  1  0  0  0  0
  6  3  1  0  0  0  0
  6  5  1  6  0  0  0
  7  5  2  0  0  0  0
  8 10  1  0  0  0  0
  9 11  1  0  0  0  0
  9  4  2  0  0  0  0
 10  2  2  0  0  0  0
 11 10  1  6  0  0  0
 11  6  1  0  0  0  0
 12  9  1  0  0  0  0
 13 14  1  0  0  0  0
 14 12  1  0  0  0  0
 16 21  1  0  0  0  0
 16 15  1  0  0  0  0
 17 16  2  0  0  0  0
 18 21  2  0  0  0  0
 19 18  1  0  0  0  0
 20 19  2  0  0  0  0
 20 17  1  0  0  0  0
 23 22  1  0  0  0  0
 24 23  1  0  0  0  0
 25 28  1  0  0  0  0
 26 28  1  0  0  0  0
 27 24  1  0  0  0  0
 28 27  2  0  0  0  0
M  END
>  <MODEL>
1

>  <REMARK>
 VINA RESULT:      -7.9      0.000      0.000
  Name = 
  8 active torsions:
  status: ('A' for Active; 'I' for Inactive)
    1  A    between atoms: C_4  and  C_8
    2  A    between atoms: C_4  and  O_11
    3  A    between atoms: C_4  and  C_21
    4  A    between atoms: N_10  and  C_23
    5  A    between atoms: N_10  and  C_27
    6  A    between atoms: O_11  and  C_18
    7  A    between atoms: C_13  and  N_14
    8  A    between atoms: C_13  and  C_18
                            x       y       z     vdW  Elec       q    Type
                         _______ _______ _______ _____ _____    ______ ____

>  <TORSDO>
F 8

$$$$
=
 OpenBabel10232409073D

 28 30  0  0  1  0  0  0  0  0999 V2000
  185.0530  178.4170  142.6270 C   0  0  2  0  0  3  0  0  0  0  0  0
  179.9820  180.6610  141.3690 N   0  0  0  0  0  0  0  0  0  0  0  0
  180.1480  180.4260  142.7350 N   0  0  0  0  0  2  0  0  0  0  0  0
  183.5680  178.6580  142.6760 C   0  0  0  0  0  0  0  0  0  0  0  0
  181.6350  179.1500  144.1250 C   0  0  0  0  0  3  0  0  0  0  0  0
  180.8890  179.3840  142.8950 C   0  0  2  0  0  3  0  0  0  0  0  0
  182.9140  178.7940  144.0070 C   0  0  0  0  0  3  0  0  0  0  0  0
  180.6180  179.7570  139.2110 C   0  0  0  0  0  1  0  0  0  0  0  0
  182.8440  178.6910  141.5290 C   0  0  0  0  0  0  0  0  0  0  0  0
  180.6810  179.8110  140.6950 C   0  0  0  0  0  0  0  0  0  0  0  0
  181.3210  178.7890  141.5910 C   0  0  2  0  0  3  0  0  0  0  0  0
  183.5100  178.4000  140.2930 N   0  0  0  0  0  2  0  0  0  0  0  0
  183.4980  177.4880  138.0500 C   0  0  0  0  0  1  0  0  0  0  0  0
  183.2790  177.1930  139.5180 C   0  0  0  0  0  2  0  0  0  0  0  0
  187.3340  178.0890  147.9320 C   0  0  0  0  0  1  0  0  0  0  0  0
  186.7480  178.1650  146.5690 C   0  0  0  0  0  0  0  0  0  0  0  0
  187.1100  177.2240  145.6000 C   0  0  0  0  0  3  0  0  0  0  0  0
  185.2860  179.2480  144.9720 C   0  0  0  0  0  3  0  0  0  0  0  0
  185.6390  178.3050  144.0000 C   0  0  0  0  0  0  0  0  0  0  0  0
  186.5590  177.2940  144.3170 C   0  0  0  0  0  3  0  0  0  0  0  0
  185.8370  179.1770  146.2540 C   0  0  0  0  0  3  0  0  0  0  0  0
  185.6990  179.4120  141.8840 O   0  0  0  0  0  0  0  0  0  0  0  0
  186.5020  178.7200  140.9760 C   0  0  0  0  0  2  0  0  0  0  0  0
  187.9570  178.8720  141.3660 C   0  0  0  0  0  2  0  0  0  0  0  0
  190.0110  178.2070  143.1800 N   0  0  0  0  0  1  0  0  0  0  0  0
  190.1080  175.9570  142.1900 N   0  0  0  0  0  1  0  0  0  0  0  0
  188.5920  177.5640  141.3920 N   0  0  0  0  0  0  0  0  0  0  0  0
  189.5360  177.2580  142.2270 C   0  0  0  0  0  0  0  0  0  0  0  0
  1 22  1  1  0  0  0
  1  4  1  0  0  0  0
  1 19  1  0  0  0  0
  2  3  1  0  0  0  0
  3  6  1  0  0  0  0
  4  7  1  0  0  0  0
  6  5  1  1  0  0  0
  7  5  2  0  0  0  0
  8 10  1  0  0  0  0
  9 11  1  0  0  0  0
  9  4  2  0  0  0  0
 10  2  2  0  0  0  0
 11 10  1  6  0  0  0
 11  6  1  0  0  0  0
 12  9  1  0  0  0  0
 13 14  1  0  0  0  0
 14 12  1  0  0  0  0
 16 15  1  0  0  0  0
 17 16  2  0  0  0  0
 18 21  2  0  0  0  0
 19 20  2  0  0  0  0
 19 18  1  0  0  0  0
 20 17  1  0  0  0  0
 21 16  1  0  0  0  0
 23 24  1  0  0  0  0
 23 22  1  0  0  0  0
 24 27  1  0  0  0  0
 26 28  1  0  0  0  0
 27 28  2  0  0  0  0
 28 25  1  0  0  0  0
M  END
>  <MODEL>
2

>  <REMARK>
 VINA RESULT:      -7.9      3.293      5.201
  Name = 
  8 active torsions:
  status: ('A' for Active; 'I' for Inactive)
    1  A    between atoms: C_4  and  C_8
    2  A    between atoms: C_4  and  O_11
    3  A    between atoms: C_4  and  C_21
    4  A    between atoms: N_10  and  C_23
    5  A    between atoms: N_10  and  C_27
    6  A    between atoms: O_11  and  C_18
    7  A    between atoms: C_13  and  N_14
    8  A    between atoms: C_13  and  C_18
                            x       y       z     vdW  Elec       q    Type
                         _______ _______ _______ _____ _____    ______ ____

>  <TORSDO>
F 8

$$$$
=
 OpenBabel10232409073D

 28 30  0  0  1  0  0  0  0  0999 V2000
  188.2120  178.1830  141.5760 C   0  0  2  0  0  3  0  0  0  0  0  0
  188.5330  175.5450  136.5480 N   0  0  0  0  0  0  0  0  0  0  0  0
  189.6690  175.3520  137.3360 N   0  0  0  0  0  2  0  0  0  0  0  0
  188.8050  177.6600  140.2940 C   0  0  0  0  0  0  0  0  0  0  0  0
  190.6440  176.3670  139.2840 C   0  0  0  0  0  3  0  0  0  0  0  0
  189.8700  176.4060  138.0490 C   0  0  2  0  0  3  0  0  0  0  0  0
  190.1270  176.9790  140.3490 C   0  0  0  0  0  3  0  0  0  0  0  0
  186.8290  177.2030  136.0750 C   0  0  0  0  0  1  0  0  0  0  0  0
  188.1650  177.8640  139.1140 C   0  0  0  0  0  0  0  0  0  0  0  0
  187.9980  176.6840  136.8320 C   0  0  0  0  0  0  0  0  0  0  0  0
  188.8390  177.4620  137.8040 C   0  0  2  0  0  3  0  0  0  0  0  0
  186.9730  178.6610  139.1120 N   0  0  0  0  0  2  0  0  0  0  0  0
  184.6110  179.1880  139.1360 C   0  0  0  0  0  1  0  0  0  0  0  0
  185.6490  178.1280  138.8410 C   0  0  0  0  0  2  0  0  0  0  0  0
  191.5360  177.0300  146.1670 C   0  0  0  0  0  1  0  0  0  0  0  0
  190.6890  177.3290  144.9840 C   0  0  0  0  0  0  0  0  0  0  0  0
  190.9230  178.4840  144.2310 C   0  0  0  0  0  3  0  0  0  0  0  0
  188.8590  176.7400  143.5110 C   0  0  0  0  0  3  0  0  0  0  0  0
  189.0940  177.8900  142.7500 C   0  0  0  0  0  0  0  0  0  0  0  0
  190.1280  178.7660  143.1170 C   0  0  0  0  0  3  0  0  0  0  0  0
  189.6560  176.4590  144.6240 C   0  0  0  0  0  3  0  0  0  0  0  0
  186.9240  177.6750  141.7760 O   0  0  0  0  0  0  0  0  0  0  0  0
  186.2420  178.6830  142.4610 C   0  0  0  0  0  2  0  0  0  0  0  0
  185.3530  178.0640  143.5200 C   0  0  0  0  0  2  0  0  0  0  0  0
  183.6760  179.0770  145.5490 N   0  0  0  0  0  1  0  0  0  0  0  0
  185.6290  179.2270  147.0380 N   0  0  0  0  0  1  0  0  0  0  0  0
  185.8450  178.4280  144.8390 N   0  0  0  0  0  0  0  0  0  0  0  0
  185.0730  178.8930  145.7730 C   0  0  0  0  0  0  0  0  0  0  0  0
  1 22  1  1  0  0  0
  1 19  1  0  0  0  0
  2 10  2  0  0  0  0
  2  3  1  0  0  0  0
  3  6  1  0  0  0  0
  4  7  1  0  0  0  0
  4  1  1  0  0  0  0
  5  7  2  0  0  0  0
  6  5  1  1  0  0  0
  8 10  1  0  0  0  0
  9  4  2  0  0  0  0
 11 10  1  6  0  0  0
 11  6  1  0  0  0  0
 11  9  1  0  0  0  0
 12  9  1  0  0  0  0
 14 12  1  0  0  0  0
 14 13  1  0  0  0  0
 16 15  1  0  0  0  0
 17 16  2  0  0  0  0
 18 21  2  0  0  0  0
 19 20  2  0  0  0  0
 19 18  1  0  0  0  0
 20 17  1  0  0  0  0
 21 16  1  0  0  0  0
 22 23  1  0  0  0  0
 23 24  1  0  0  0  0
 24 27  1  0  0  0  0
 25 28  1  0  0  0  0
 27 28  2  0  0  0  0
 28 26  1  0  0  0  0
M  END
>  <MODEL>
3

>  <REMARK>
 VINA RESULT:      -7.4      2.325      6.504
  Name = 
  8 active torsions:
  status: ('A' for Active; 'I' for Inactive)
    1  A    between atoms: C_4  and  C_8
    2  A    between atoms: C_4  and  O_11
    3  A    between atoms: C_4  and  C_21
    4  A    between atoms: N_10  and  C_23
    5  A    between atoms: N_10  and  C_27
    6  A    between atoms: O_11  and  C_18
    7  A    between atoms: C_13  and  N_14
    8  A    between atoms: C_13  and  C_18
                            x       y       z     vdW  Elec       q    Type
                         _______ _______ _______ _____ _____    ______ ____

>  <TORSDO>
F 8

$$$$
=
 OpenBabel10232409073D

 28 30  0  0  1  0  0  0  0  0999 V2000
  189.3760  177.2830  142.4220 C   0  0  2  0  0  3  0  0  0  0  0  0
  191.2280  177.5220  147.7930 N   0  0  0  0  0  0  0  0  0  0  0  0
  192.0280  176.7190  146.9780 N   0  0  0  0  0  2  0  0  0  0  0  0
  189.9590  176.8260  143.7320 C   0  0  0  0  0  0  0  0  0  0  0  0
  191.8360  175.6640  144.8280 C   0  0  0  0  0  3  0  0  0  0  0  0
  191.2880  176.1570  146.0850 C   0  0  2  0  0  3  0  0  0  0  0  0
  191.1860  175.9830  143.7090 C   0  0  0  0  0  3  0  0  0  0  0  0
  188.9170  178.1970  148.0860 C   0  0  0  0  0  1  0  0  0  0  0  0
  189.3370  177.1340  144.9000 C   0  0  0  0  0  0  0  0  0  0  0  0
  190.0140  177.5100  147.3550 C   0  0  0  0  0  0  0  0  0  0  0  0
  189.8490  176.5480  146.2130 C   0  0  2  0  0  3  0  0  0  0  0  0
  188.0780  177.8170  144.8420 N   0  0  0  0  0  2  0  0  0  0  0  0
  185.6860  178.1410  145.0230 C   0  0  0  0  0  1  0  0  0  0  0  0
  186.8780  177.3510  145.5170 C   0  0  0  0  0  2  0  0  0  0  0  0
  193.1370  176.6060  138.0790 C   0  0  0  0  0  1  0  0  0  0  0  0
  192.1740  176.7880  139.1970 C   0  0  0  0  0  0  0  0  0  0  0  0
  192.5880  177.4040  140.3810 C   0  0  0  0  0  3  0  0  0  0  0  0
  189.9510  176.5110  140.1160 C   0  0  0  0  0  3  0  0  0  0  0  0
  190.3580  177.1330  141.3010 C   0  0  0  0  0  0  0  0  0  0  0  0
  191.6830  177.5760  141.4330 C   0  0  0  0  0  3  0  0  0  0  0  0
  190.8570  176.3400  139.0650 C   0  0  0  0  0  3  0  0  0  0  0  0
  188.9120  178.6000  142.5110 O   0  0  0  0  0  0  0  0  0  0  0  0
  188.2690  178.8380  141.2940 C   0  0  0  0  0  2  0  0  0  0  0  0
  186.8080  178.4530  141.4080 C   0  0  0  0  0  2  0  0  0  0  0  0
  183.9980  178.6770  141.4510 N   0  0  0  0  0  1  0  0  0  0  0  0
  184.0930  179.8370  139.2830 N   0  0  0  0  0  1  0  0  0  0  0  0
  186.0530  179.0930  140.3430 N   0  0  0  0  0  0  0  0  0  0  0  0
  184.7610  179.1970  140.3640 C   0  0  0  0  0  0  0  0  0  0  0  0
  1 22  1  1  0  0  0
  1  4  1  0  0  0  0
  3  2  1  0  0  0  0
  4  9  2  0  0  0  0
  6  5  1  6  0  0  0
  6 11  1  0  0  0  0
  6  3  1  0  0  0  0
  7  4  1  0  0  0  0
  7  5  2  0  0  0  0
 10  2  2  0  0  0  0
 10  8  1  0  0  0  0
 11  9  1  6  0  0  0
 11 10  1  0  0  0  0
 12  9  1  0  0  0  0
 12 14  1  0  0  0  0
 13 14  1  0  0  0  0
 15 16  1  0  0  0  0
 16 17  1  0  0  0  0
 17 20  2  0  0  0  0
 18 19  2  0  0  0  0
 19 20  1  0  0  0  0
 19  1  1  0  0  0  0
 21 16  2  0  0  0  0
 21 18  1  0  0  0  0
 23 24  1  0  0  0  0
 23 22  1  0  0  0  0
 26 28  1  0  0  0  0
 27 28  2  0  0  0  0
 27 24  1  0  0  0  0
 28 25  1  0  0  0  0
M  END
>  <MODEL>
4

>  <REMARK>
 VINA RESULT:      -7.3      2.673      6.196
  Name = 
  8 active torsions:
  status: ('A' for Active; 'I' for Inactive)
    1  A    between atoms: C_4  and  C_8
    2  A    between atoms: C_4  and  O_11
    3  A    between atoms: C_4  and  C_21
    4  A    between atoms: N_10  and  C_23
    5  A    between atoms: N_10  and  C_27
    6  A    between atoms: O_11  and  C_18
    7  A    between atoms: C_13  and  N_14
    8  A    between atoms: C_13  and  C_18
                            x       y       z     vdW  Elec       q    Type
                         _______ _______ _______ _____ _____    ______ ____

>  <TORSDO>
F 8

$$$$
=
 OpenBabel10232409073D

 28 30  0  0  1  0  0  0  0  0999 V2000
  184.1020  178.5970  139.2510 C   0  0  2  0  0  3  0  0  0  0  0  0
  180.5290  180.1640  135.1140 N   0  0  0  0  0  0  0  0  0  0  0  0
  180.7830  181.1870  136.0280 N   0  0  0  0  0  2  0  0  0  0  0  0
  182.9290  179.2590  138.5780 C   0  0  0  0  0  0  0  0  0  0  0  0
  181.7070  181.3730  138.2390 C   0  0  0  0  0  3  0  0  0  0  0  0
  180.9690  180.6720  137.1940 C   0  0  2  0  0  3  0  0  0  0  0  0
  182.6360  180.6830  138.9000 C   0  0  0  0  0  3  0  0  0  0  0  0
  180.3170  177.7510  134.9970 C   0  0  0  0  0  1  0  0  0  0  0  0
  182.1300  178.5470  137.7440 C   0  0  0  0  0  0  0  0  0  0  0  0
  180.6340  179.0210  135.7030 C   0  0  0  0  0  0  0  0  0  0  0  0
  180.8600  179.1800  137.1800 C   0  0  2  0  0  3  0  0  0  0  0  0
  182.3770  177.1420  137.5970 N   0  0  0  0  0  2  0  0  0  0  0  0
  181.7650  175.7040  139.4460 C   0  0  0  0  0  1  0  0  0  0  0  0
  181.4450  176.1110  138.0250 C   0  0  0  0  0  2  0  0  0  0  0  0
  183.6620  179.0450  145.0010 C   0  0  0  0  0  1  0  0  0  0  0  0
  183.7830  178.9270  143.5250 C   0  0  0  0  0  0  0  0  0  0  0  0
  185.0270  179.0970  142.9100 C   0  0  0  0  0  3  0  0  0  0  0  0
  182.7660  178.5350  141.3620 C   0  0  0  0  0  3  0  0  0  0  0  0
  184.0100  178.6980  140.7420 C   0  0  0  0  0  0  0  0  0  0  0  0
  185.1410  178.9850  141.5210 C   0  0  0  0  0  3  0  0  0  0  0  0
  182.6530  178.6470  142.7510 C   0  0  0  0  0  3  0  0  0  0  0  0
  185.3110  179.1250  138.7850 O   0  0  0  0  0  0  0  0  0  0  0  0
  185.8290  178.1440  137.9370 C   0  0  0  0  0  2  0  0  0  0  0  0
  187.3410  178.1290  138.0440 C   0  0  0  0  0  2  0  0  0  0  0  0
  189.5280  176.8270  139.2570 N   0  0  0  0  0  1  0  0  0  0  0  0
  189.0590  178.0560  141.3370 N   0  0  0  0  0  1  0  0  0  0  0  0
  187.7320  178.3680  139.4240 N   0  0  0  0  0  0  0  0  0  0  0  0
  188.7390  177.7690  139.9810 C   0  0  0  0  0  0  0  0  0  0  0  0
  1 22  1  6  0  0  0
  1 19  1  0  0  0  0
  2 10  2  0  0  0  0
  2  3  1  0  0  0  0
  3  6  1  0  0  0  0
  4  7  1  0  0  0  0
  4  1  1  0  0  0  0
  5  7  2  0  0  0  0
  6  5  1  6  0  0  0
  8 10  1  0  0  0  0
  9  4  2  0  0  0  0
 11 10  1  6  0  0  0
 11  6  1  0  0  0  0
 11  9  1  0  0  0  0
 12  9  1  0  0  0  0
 12 14  1  0  0  0  0
 14 13  1  0  0  0  0
 16 15  1  0  0  0  0
 17 16  1  0  0  0  0
 18 21  1  0  0  0  0
 19 18  2  0  0  0  0
 19 20  1  0  0  0  0
 20 17  2  0  0  0  0
 21 16  2  0  0  0  0
 23 24  1  0  0  0  0
 23 22  1  0  0  0  0
 24 27  1  0  0  0  0
 25 28  1  0  0  0  0
 27 28  2  0  0  0  0
 28 26  1  0  0  0  0
M  END
>  <MODEL>
5

>  <REMARK>
 VINA RESULT:      -7.2      5.031      8.262
  Name = 
  8 active torsions:
  status: ('A' for Active; 'I' for Inactive)
    1  A    between atoms: C_4  and  C_8
    2  A    between atoms: C_4  and  O_11
    3  A    between atoms: C_4  and  C_21
    4  A    between atoms: N_10  and  C_23
    5  A    between atoms: N_10  and  C_27
    6  A    between atoms: O_11  and  C_18
    7  A    between atoms: C_13  and  N_14
    8  A    between atoms: C_13  and  C_18
                            x       y       z     vdW  Elec       q    Type
                         _______ _______ _______ _____ _____    ______ ____

>  <TORSDO>
F 8

$$$$
=
 OpenBabel10232409073D

 28 30  0  0  1  0  0  0  0  0999 V2000
  189.7050  177.8760  141.3590 C   0  0  2  0  0  3  0  0  0  0  0  0
  191.4320  174.7010  136.9680 N   0  0  0  0  0  0  0  0  0  0  0  0
  192.4920  175.2000  137.7280 N   0  0  0  0  0  2  0  0  0  0  0  0
  190.5350  177.4260  140.1870 C   0  0  0  0  0  0  0  0  0  0  0  0
  192.8080  176.9140  139.3820 C   0  0  0  0  0  3  0  0  0  0  0  0
  192.1650  176.3530  138.2000 C   0  0  2  0  0  3  0  0  0  0  0  0
  192.0180  177.4330  140.3220 C   0  0  0  0  0  3  0  0  0  0  0  0
  189.1950  175.2910  136.2410 C   0  0  0  0  0  1  0  0  0  0  0  0
  189.9360  177.0790  139.0190 C   0  0  0  0  0  0  0  0  0  0  0  0
  190.4310  175.5130  137.0360 C   0  0  0  0  0  0  0  0  0  0  0  0
  190.7850  176.7640  137.7900 C   0  0  2  0  0  3  0  0  0  0  0  0
  188.5150  177.2420  138.9070 N   0  0  0  0  0  2  0  0  0  0  0  0
  186.3830  178.0340  138.0790 C   0  0  0  0  0  1  0  0  0  0  0  0
  187.8830  178.2260  138.0440 C   0  0  0  0  0  2  0  0  0  0  0  0
  191.9820  176.1640  146.3930 C   0  0  0  0  0  1  0  0  0  0  0  0
  191.4020  176.6110  145.1000 C   0  0  0  0  0  0  0  0  0  0  0  0
  191.2320  177.9750  144.8440 C   0  0  0  0  0  3  0  0  0  0  0  0
  190.4800  176.0880  142.9230 C   0  0  0  0  0  3  0  0  0  0  0  0
  190.3140  177.4520  142.6600 C   0  0  0  0  0  0  0  0  0  0  0  0
  190.6880  178.3960  143.6280 C   0  0  0  0  0  3  0  0  0  0  0  0
  191.0240  175.6680  144.1400 C   0  0  0  0  0  3  0  0  0  0  0  0
  188.3880  177.4180  141.2470 O   0  0  0  0  0  0  0  0  0  0  0  0
  187.6150  178.3780  141.9020 C   0  0  0  0  0  2  0  0  0  0  0  0
  186.6330  177.6930  142.8300 C   0  0  0  0  0  2  0  0  0  0  0  0
  185.5710  178.7460  145.2200 N   0  0  0  0  0  1  0  0  0  0  0  0
  187.4340  177.7220  146.4580 N   0  0  0  0  0  1  0  0  0  0  0  0
  187.2560  177.4840  144.1270 N   0  0  0  0  0  0  0  0  0  0  0  0
  186.7660  177.9680  145.2260 C   0  0  0  0  0  0  0  0  0  0  0  0
  1 22  1  6  0  0  0
  1 19  1  0  0  0  0
  2 10  2  0  0  0  0
  2  3  1  0  0  0  0
  3  6  1  0  0  0  0
  4  7  1  0  0  0  0
  4  1  1  0  0  0  0
  5  7  2  0  0  0  0
  6  5  1  1  0  0  0
  8 10  1  0  0  0  0
  9  4  2  0  0  0  0
 11 10  1  1  0  0  0
 11  6  1  0  0  0  0
 11  9  1  0  0  0  0
 12  9  1  0  0  0  0
 14 13  1  0  0  0  0
 14 12  1  0  0  0  0
 16 15  1  0  0  0  0
 17 16  1  0  0  0  0
 18 21  1  0  0  0  0
 19 18  2  0  0  0  0
 19 20  1  0  0  0  0
 20 17  2  0  0  0  0
 21 16  2  0  0  0  0
 22 23  1  0  0  0  0
 23 24  1  0  0  0  0
 24 27  1  0  0  0  0
 25 28  1  0  0  0  0
 27 28  2  0  0  0  0
 28 26  1  0  0  0  0
M  END
>  <MODEL>
6

>  <REMARK>
 VINA RESULT:      -7.1      2.220      6.563
  Name = 
  8 active torsions:
  status: ('A' for Active; 'I' for Inactive)
    1  A    between atoms: C_4  and  C_8
    2  A    between atoms: C_4  and  O_11
    3  A    between atoms: C_4  and  C_21
    4  A    between atoms: N_10  and  C_23
    5  A    between atoms: N_10  and  C_27
    6  A    between atoms: O_11  and  C_18
    7  A    between atoms: C_13  and  N_14
    8  A    between atoms: C_13  and  C_18
                            x       y       z     vdW  Elec       q    Type
                         _______ _______ _______ _____ _____    ______ ____

>  <TORSDO>
F 8

$$$$
=
 OpenBabel10232409073D

 28 30  0  0  1  0  0  0  0  0999 V2000
  189.5330  177.9130  141.1150 C   0  0  2  0  0  3  0  0  0  0  0  0
  190.8240  174.0370  137.1580 N   0  0  0  0  0  0  0  0  0  0  0  0
  191.9520  174.5810  137.7740 N   0  0  0  0  0  2  0  0  0  0  0  0
  190.2640  177.2490  139.9780 C   0  0  0  0  0  0  0  0  0  0  0  0
  192.4540  176.4980  139.1320 C   0  0  0  0  0  3  0  0  0  0  0  0
  191.7110  175.8070  138.0860 C   0  0  2  0  0  3  0  0  0  0  0  0
  191.7520  177.1930  140.0270 C   0  0  0  0  0  3  0  0  0  0  0  0
  188.5750  174.6390  136.4780 C   0  0  0  0  0  1  0  0  0  0  0  0
  189.5760  176.7690  138.9110 C   0  0  0  0  0  0  0  0  0  0  0  0
  189.8690  174.9050  137.1600 C   0  0  0  0  0  0  0  0  0  0  0  0
  190.3290  176.2310  137.6980 C   0  0  2  0  0  3  0  0  0  0  0  0
  188.1600  176.9930  138.8570 N   0  0  0  0  0  2  0  0  0  0  0  0
  186.2310  177.3510  137.4390 C   0  0  0  0  0  1  0  0  0  0  0  0
  187.5290  177.9360  137.9490 C   0  0  0  0  0  2  0  0  0  0  0  0
  191.8060  176.5090  146.2450 C   0  0  0  0  0  1  0  0  0  0  0  0
  191.2280  176.8760  144.9270 C   0  0  0  0  0  0  0  0  0  0  0  0
  191.1900  178.2160  144.5290 C   0  0  0  0  0  3  0  0  0  0  0  0
  190.1760  176.2270  142.8440 C   0  0  0  0  0  3  0  0  0  0  0  0
  190.1420  177.5660  142.4380 C   0  0  0  0  0  0  0  0  0  0  0  0
  190.6470  178.5620  143.2880 C   0  0  0  0  0  3  0  0  0  0  0  0
  190.7200  175.8820  144.0850 C   0  0  0  0  0  3  0  0  0  0  0  0
  188.1710  177.5940  141.0890 O   0  0  0  0  0  0  0  0  0  0  0  0
  187.5360  178.6780  141.6970 C   0  0  0  0  0  2  0  0  0  0  0  0
  186.0340  178.5060  141.6000 C   0  0  0  0  0  2  0  0  0  0  0  0
  183.6510  178.0400  140.1650 N   0  0  0  0  0  1  0  0  0  0  0  0
  183.9440  180.2110  139.0450 N   0  0  0  0  0  1  0  0  0  0  0  0
  185.4990  179.4520  140.6330 N   0  0  0  0  0  0  0  0  0  0  0  0
  184.4030  179.2370  139.9740 C   0  0  0  0  0  0  0  0  0  0  0  0
  1 22  1  1  0  0  0
  1 19  1  0  0  0  0
  2 10  2  0  0  0  0
  2  3  1  0  0  0  0
  3  6  1  0  0  0  0
  4  7  1  0  0  0  0
  4  1  1  0  0  0  0
  5  7  2  0  0  0  0
  6  5  1  1  0  0  0
  8 10  1  0  0  0  0
  9  4  2  0  0  0  0
 11 10  1  1  0  0  0
 11  6  1  0  0  0  0
 11  9  1  0  0  0  0
 12  9  1  0  0  0  0
 13 14  1  0  0  0  0
 14 12  1  0  0  0  0
 16 15  1  0  0  0  0
 17 16  1  0  0  0  0
 18 21  1  0  0  0  0
 19 18  2  0  0  0  0
 19 20  1  0  0  0  0
 20 17  2  0  0  0  0
 21 16  2  0  0  0  0
 22 23  1  0  0  0  0
 24 23  1  0  0  0  0
 26 28  1  0  0  0  0
 27 24  1  0  0  0  0
 28 25  1  0  0  0  0
 28 27  2  0  0  0  0
M  END
>  <MODEL>
7

>  <REMARK>
 VINA RESULT:      -7.1      2.801      6.662
  Name = 
  8 active torsions:
  status: ('A' for Active; 'I' for Inactive)
    1  A    between atoms: C_4  and  C_8
    2  A    between atoms: C_4  and  O_11
    3  A    between atoms: C_4  and  C_21
    4  A    between atoms: N_10  and  C_23
    5  A    between atoms: N_10  and  C_27
    6  A    between atoms: O_11  and  C_18
    7  A    between atoms: C_13  and  N_14
    8  A    between atoms: C_13  and  C_18
                            x       y       z     vdW  Elec       q    Type
                         _______ _______ _______ _____ _____    ______ ____

>  <TORSDO>
F 8

$$$$
=
 OpenBabel10232409073D

 28 30  0  0  1  0  0  0  0  0999 V2000
  190.8630  176.9130  140.4530 C   0  0  2  0  0  3  0  0  0  0  0  0
  187.5320  178.2590  136.0460 N   0  0  0  0  0  0  0  0  0  0  0  0
  187.0720  178.7850  137.2540 N   0  0  0  0  0  2  0  0  0  0  0  0
  189.6080  177.1780  139.6660 C   0  0  0  0  0  0  0  0  0  0  0  0
  187.4760  178.4140  139.5930 C   0  0  0  0  0  3  0  0  0  0  0  0
  187.3730  177.9730  138.2080 C   0  0  2  0  0  3  0  0  0  0  0  0
  188.5460  178.0190  140.2840 C   0  0  0  0  0  3  0  0  0  0  0  0
  188.6940  176.3270  135.1540 C   0  0  0  0  0  1  0  0  0  0  0  0
  189.4360  176.6110  138.4450 C   0  0  0  0  0  0  0  0  0  0  0  0
  188.1770  177.1640  136.2680 C   0  0  0  0  0  0  0  0  0  0  0  0
  188.1040  176.7630  137.7140 C   0  0  2  0  0  3  0  0  0  0  0  0
  190.4290  175.6890  137.9750 N   0  0  0  0  0  2  0  0  0  0  0  0
  191.2230  173.8770  136.5800 C   0  0  0  0  0  1  0  0  0  0  0  0
  190.1250  174.3460  137.5080 C   0  0  0  0  0  2  0  0  0  0  0  0
  189.8340  177.3470  146.1290 C   0  0  0  0  0  1  0  0  0  0  0  0
  190.1060  177.2380  144.6720 C   0  0  0  0  0  0  0  0  0  0  0  0
  190.9950  178.1260  144.0590 C   0  0  0  0  0  3  0  0  0  0  0  0
  189.7300  176.1450  142.5440 C   0  0  0  0  0  3  0  0  0  0  0  0
  190.6230  177.0280  141.9270 C   0  0  0  0  0  0  0  0  0  0  0  0
  191.2520  178.0240  142.6890 C   0  0  0  0  0  3  0  0  0  0  0  0
  189.4730  176.2490  143.9140 C   0  0  0  0  0  3  0  0  0  0  0  0
  191.9000  177.7590  140.0450 O   0  0  0  0  0  0  0  0  0  0  0  0
  193.0030  176.9200  139.8710 C   0  0  0  0  0  2  0  0  0  0  0  0
  193.4000  176.9020  138.4090 C   0  0  0  0  0  2  0  0  0  0  0  0
  194.7310  176.4180  135.9710 N   0  0  0  0  0  1  0  0  0  0  0  0
  195.2280  174.1330  136.7360 N   0  0  0  0  0  1  0  0  0  0  0  0
  194.0270  175.6280  138.0940 N   0  0  0  0  0  0  0  0  0  0  0  0
  194.6400  175.4060  136.9720 C   0  0  0  0  0  0  0  0  0  0  0  0
  1 22  1  6  0  0  0
  1 19  1  0  0  0  0
  2 10  2  0  0  0  0
  2  3  1  0  0  0  0
  3  6  1  0  0  0  0
  4  7  1  0  0  0  0
  4  1  1  0  0  0  0
  5  7  2  0  0  0  0
  6  5  1  1  0  0  0
  8 10  1  0  0  0  0
  9  4  2  0  0  0  0
 11 10  1  6  0  0  0
 11  6  1  0  0  0  0
 11  9  1  0  0  0  0
 12  9  1  0  0  0  0
 13 14  1  0  0  0  0
 14 12  1  0  0  0  0
 16 15  1  0  0  0  0
 17 16  1  0  0  0  0
 18 21  1  0  0  0  0
 19 18  2  0  0  0  0
 19 20  1  0  0  0  0
 20 17  2  0  0  0  0
 21 16  2  0  0  0  0
 23 22  1  0  0  0  0
 24 23  1  0  0  0  0
 25 28  1  0  0  0  0
 26 28  1  0  0  0  0
 27 24  1  0  0  0  0
 28 27  2  0  0  0  0
M  END
>  <MODEL>
8

>  <REMARK>
 VINA RESULT:      -6.7      3.581      5.756
  Name = 
  8 active torsions:
  status: ('A' for Active; 'I' for Inactive)
    1  A    between atoms: C_4  and  C_8
    2  A    between atoms: C_4  and  O_11
    3  A    between atoms: C_4  and  C_21
    4  A    between atoms: N_10  and  C_23
    5  A    between atoms: N_10  and  C_27
    6  A    between atoms: O_11  and  C_18
    7  A    between atoms: C_13  and  N_14
    8  A    between atoms: C_13  and  C_18
                            x       y       z     vdW  Elec       q    Type
                         _______ _______ _______ _____ _____    ______ ____

>  <TORSDO>
F 8

$$$$
=
 OpenBabel10232409073D

 28 30  0  0  1  0  0  0  0  0999 V2000
  189.7550  176.9630  140.5420 C   0  0  2  0  0  3  0  0  0  0  0  0
  189.1920  177.4370  134.9030 N   0  0  0  0  0  0  0  0  0  0  0  0
  188.1460  178.0380  135.6060 N   0  0  0  0  0  2  0  0  0  0  0  0
  189.0930  176.9990  139.1900 C   0  0  0  0  0  0  0  0  0  0  0  0
  187.2730  177.9740  137.8430 C   0  0  0  0  0  3  0  0  0  0  0  0
  187.9310  177.3750  136.6880 C   0  0  2  0  0  3  0  0  0  0  0  0
  187.8340  177.7790  139.0360 C   0  0  0  0  0  3  0  0  0  0  0  0
  190.7210  175.5600  135.0430 C   0  0  0  0  0  1  0  0  0  0  0  0
  189.6100  176.2850  138.1580 C   0  0  0  0  0  0  0  0  0  0  0  0
  189.6640  176.4520  135.5890 C   0  0  0  0  0  0  0  0  0  0  0  0
  188.8560  176.2070  136.8320 C   0  0  2  0  0  3  0  0  0  0  0  0
  190.7350  175.4340  138.4130 N   0  0  0  0  0  2  0  0  0  0  0  0
  192.8920  174.5800  137.7210 C   0  0  0  0  0  1  0  0  0  0  0  0
  192.1100  175.8090  138.1290 C   0  0  0  0  0  2  0  0  0  0  0  0
  185.9720  177.9170  144.8120 C   0  0  0  0  0  1  0  0  0  0  0  0
  186.9420  177.6630  143.7150 C   0  0  0  0  0  0  0  0  0  0  0  0
  187.7110  176.4960  143.7190 C   0  0  0  0  0  3  0  0  0  0  0  0
  188.0000  178.3550  141.6500 C   0  0  0  0  0  3  0  0  0  0  0  0
  188.7670  177.1850  141.6450 C   0  0  0  0  0  0  0  0  0  0  0  0
  188.6230  176.2560  142.6880 C   0  0  0  0  0  3  0  0  0  0  0  0
  187.0880  178.5930  142.6820 C   0  0  0  0  0  3  0  0  0  0  0  0
  190.8030  177.8880  140.6120 O   0  0  0  0  0  0  0  0  0  0  0  0
  191.7580  177.2880  141.4340 C   0  0  0  0  0  2  0  0  0  0  0  0
  191.9790  178.1450  142.6640 C   0  0  0  0  0  2  0  0  0  0  0  0
  190.2820  178.7780  144.8250 N   0  0  0  0  0  1  0  0  0  0  0  0
  191.0570  176.7490  145.9810 N   0  0  0  0  0  1  0  0  0  0  0  0
  191.8800  177.3180  143.8560 N   0  0  0  0  0  0  0  0  0  0  0  0
  191.0980  177.6090  144.8490 C   0  0  0  0  0  0  0  0  0  0  0  0
  1 22  1  6  0  0  0
  1 19  1  0  0  0  0
  2 10  2  0  0  0  0
  2  3  1  0  0  0  0
  3  6  1  0  0  0  0
  4  1  1  0  0  0  0
  5  7  2  0  0  0  0
  6 11  1  0  0  0  0
  6  5  1  1  0  0  0
  7  4  1  0  0  0  0
  8 10  1  0  0  0  0
  9 12  1  0  0  0  0
  9  4  2  0  0  0  0
 11 10  1  6  0  0  0
 11  9  1  0  0  0  0
 13 14  1  0  0  0  0
 14 12  1  0  0  0  0
 16 17  1  0  0  0  0
 16 15  1  0  0  0  0
 18 21  1  0  0  0  0
 19 18  2  0  0  0  0
 19 20  1  0  0  0  0
 20 17  2  0  0  0  0
 21 16  2  0  0  0  0
 22 23  1  0  0  0  0
 23 24  1  0  0  0  0
 24 27  1  0  0  0  0
 25 28  1  0  0  0  0
 27 28  2  0  0  0  0
 28 26  1  0  0  0  0
M  END
>  <MODEL>
9

>  <REMARK>
 VINA RESULT:      -6.6      2.993      6.810
  Name = 
  8 active torsions:
  status: ('A' for Active; 'I' for Inactive)
    1  A    between atoms: C_4  and  C_8
    2  A    between atoms: C_4  and  O_11
    3  A    between atoms: C_4  and  C_21
    4  A    between atoms: N_10  and  C_23
    5  A    between atoms: N_10  and  C_27
    6  A    between atoms: O_11  and  C_18
    7  A    between atoms: C_13  and  N_14
    8  A    between atoms: C_13  and  C_18
                            x       y       z     vdW  Elec       q    Type
                         _______ _______ _______ _____ _____    ______ ____

>  <TORSDO>
F 8

$$$$
