=
 OpenBabel10232409063D

 28 31  0  0  1  0  0  0  0  0999 V2000
  184.4700  178.8360  138.8770 S   0  0  1  0  0  0  0  0  0  0  0  0
  183.6450  179.0430  141.3680 O   0  0  0  0  0  0  0  0  0  0  0  0
  185.9570  178.7830  139.8110 N   0  0  0  0  0  0  0  0  0  0  0  0
  184.6690  178.1830  141.7970 C   0  0  1  0  0  3  0  0  0  0  0  0
  187.2060  178.4250  141.7890 N   0  0  0  0  0  2  0  0  0  0  0  0
  185.9650  178.4990  141.0800 C   0  0  0  0  0  0  0  0  0  0  0  0
  184.4950  177.5220  138.1090 O   0  0  0  0  0  0  0  0  0  0  0  0
  183.2070  178.5370  140.1350 C   0  0  0  0  0  2  0  0  0  0  0  0
  188.0390  178.0720  148.4030 S   0  0  0  0  0  0  0  0  0  0  0  0
  183.9590  179.0270  145.6030 C   0  0  0  0  0  3  0  0  0  0  0  0
  186.1390  178.0290  145.2670 C   0  0  0  0  0  0  0  0  0  0  0  0
  184.8140  178.2550  143.2860 C   0  0  0  0  0  0  0  0  0  0  0  0
  185.9830  177.8780  143.8270 C   0  0  0  0  0  3  0  0  0  0  0  0
  189.0960  177.4260  147.2180 C   0  0  0  0  0  3  0  0  0  0  0  0
  186.7810  178.2550  147.3230 C   0  0  0  0  0  0  0  0  0  0  0  0
  185.1200  178.6170  146.1000 C   0  0  1  0  0  3  0  0  0  0  0  0
  188.4460  177.3630  145.9700 C   0  0  0  0  0  3  0  0  0  0  0  0
  183.6600  178.8190  144.1270 C   0  0  0  0  0  3  0  0  0  0  0  0
  185.5890  178.7510  147.4490 N   0  0  0  0  0  0  0  0  0  0  0  0
  187.1440  177.8380  146.0870 C   0  0  0  0  0  0  0  0  0  0  0  0
  188.5020  178.6190  141.1600 C   0  0  0  0  0  2  0  0  0  0  0  0
  189.3000  177.3640  141.2700 C   0  0  0  0  0  0  0  0  0  0  0  0
  189.9960  177.0050  140.3340 O   0  0  0  0  0  0  0  0  0  0  0  0
  189.2330  176.5380  142.5150 C   0  0  0  0  0  2  0  0  0  0  0  0
  190.5790  175.8860  142.7790 C   0  0  0  0  0  2  0  0  0  0  0  0
  191.3470  176.6950  143.7630 C   0  0  0  0  0  0  0  0  0  0  0  0
  191.6480  176.2060  144.8820 O   0  0  0  0  0  1  0  0  0  0  0  0
  191.7630  177.9780  143.4340 O   0  0  0  0  0  0  0  0  0  0  0  0
  1  7  2  6  0  0  0
  1  3  1  0  0  0  0
  1  8  1  0  0  0  0
  2  4  1  0  0  0  0
  3  6  2  0  0  0  0
  4 12  1  1  0  0  0
  6  5  1  0  0  0  0
  6  4  1  0  0  0  0
  8  2  1  0  0  0  0
 11 20  2  0  0  0  0
 11 16  1  0  0  0  0
 12 13  2  0  0  0  0
 12 18  1  0  0  0  0
 13 11  1  0  0  0  0
 14  9  1  0  0  0  0
 15 19  2  0  0  0  0
 15  9  1  0  0  0  0
 16 10  1  6  0  0  0
 16 19  1  0  0  0  0
 17 20  1  0  0  0  0
 17 14  2  0  0  0  0
 18 10  2  0  0  0  0
 20 15  1  0  0  0  0
 21 22  1  0  0  0  0
 21  5  1  0  0  0  0
 22 24  1  0  0  0  0
 23 22  2  0  0  0  0
 24 25  1  0  0  0  0
 25 26  1  0  0  0  0
 26 27  1  0  0  0  0
 28 26  2  0  0  0  0
M  END
>  <MODEL>
1

>  <REMARK>
 VINA RESULT:      -9.3      0.000      0.000
  Name = 
  6 active torsions:
  status: ('A' for Active; 'I' for Inactive)
    1  A    between atoms: C_1  and  C_21
    2  A    between atoms: C_1  and  C_24
    3  A    between atoms: C_6  and  C_15
    4  A    between atoms: C_9  and  C_13
    5  A    between atoms: C_15  and  C_21
    6  A    between atoms: N_18  and  C_24
                            x       y       z     vdW  Elec       q    Type
                         _______ _______ _______ _____ _____    ______ ____

>  <TORSDO>
F 6

$$$$
=
 OpenBabel10232409063D

 28 31  0  0  1  0  0  0  0  0999 V2000
  184.0320  179.1640  139.1160 S   0  0  1  0  0  0  0  0  0  0  0  0
  183.4690  179.1440  141.6870 O   0  0  0  0  0  0  0  0  0  0  0  0
  185.6110  179.1090  139.8850 N   0  0  0  0  0  0  0  0  0  0  0  0
  184.5650  178.3020  141.9390 C   0  0  1  0  0  3  0  0  0  0  0  0
  187.0750  178.6600  141.6890 N   0  0  0  0  0  2  0  0  0  0  0  0
  185.7650  178.7300  141.1190 C   0  0  0  0  0  0  0  0  0  0  0  0
  184.0250  177.9140  138.2470 O   0  0  0  0  0  0  0  0  0  0  0  0
  182.9220  178.7130  140.4700 C   0  0  0  0  0  2  0  0  0  0  0  0
  188.6060  177.7450  148.1320 S   0  0  0  0  0  0  0  0  0  0  0  0
  184.2550  178.8650  145.8480 C   0  0  0  0  0  3  0  0  0  0  0  0
  186.3900  177.9110  145.2160 C   0  0  0  0  0  0  0  0  0  0  0  0
  184.8640  178.2680  143.4050 C   0  0  0  0  0  0  0  0  0  0  0  0
  186.0840  177.8630  143.7930 C   0  0  0  0  0  3  0  0  0  0  0  0
  189.5340  177.1940  146.8000 C   0  0  0  0  0  3  0  0  0  0  0  0
  187.2420  177.9940  147.2050 C   0  0  0  0  0  0  0  0  0  0  0  0
  185.4630  178.4290  146.1910 C   0  0  1  0  0  3  0  0  0  0  0  0
  188.7570  177.2150  145.6250 C   0  0  0  0  0  3  0  0  0  0  0  0
  183.8040  178.7600  144.4000 C   0  0  0  0  0  3  0  0  0  0  0  0
  186.0690  178.4700  147.4900 N   0  0  0  0  0  0  0  0  0  0  0  0
  187.4740  177.6700  145.9110 C   0  0  0  0  0  0  0  0  0  0  0  0
  188.2890  178.9610  140.9470 C   0  0  0  0  0  2  0  0  0  0  0  0
  188.9780  177.6880  140.5860 C   0  0  0  0  0  0  0  0  0  0  0  0
  189.1930  176.8510  141.4480 O   0  0  0  0  0  0  0  0  0  0  0  0
  189.4200  177.4460  139.1780 C   0  0  0  0  0  2  0  0  0  0  0  0
  188.2100  177.2790  138.2750 C   0  0  0  0  0  2  0  0  0  0  0  0
  188.1540  178.3950  137.2940 C   0  0  0  0  0  0  0  0  0  0  0  0
  187.3530  178.3440  136.3260 O   0  0  0  0  0  0  0  0  0  0  0  0
  188.9620  179.5110  137.4660 O   0  0  0  0  0  1  0  0  0  0  0  0
  1  7  2  6  0  0  0
  1  3  1  0  0  0  0
  1  8  1  0  0  0  0
  2  4  1  0  0  0  0
  3  6  2  0  0  0  0
  4 12  1  1  0  0  0
  6  5  1  0  0  0  0
  6  4  1  0  0  0  0
  8  2  1  0  0  0  0
 11 20  2  0  0  0  0
 11 16  1  0  0  0  0
 12 13  2  0  0  0  0
 12 18  1  0  0  0  0
 13 11  1  0  0  0  0
 14  9  1  0  0  0  0
 15 19  2  0  0  0  0
 15  9  1  0  0  0  0
 16 10  1  6  0  0  0
 16 19  1  0  0  0  0
 17 20  1  0  0  0  0
 17 14  2  0  0  0  0
 18 10  2  0  0  0  0
 20 15  1  0  0  0  0
 21  5  1  0  0  0  0
 22 21  1  0  0  0  0
 22 23  2  0  0  0  0
 24 22  1  0  0  0  0
 25 24  1  0  0  0  0
 26 28  1  0  0  0  0
 26 25  1  0  0  0  0
 27 26  2  0  0  0  0
M  END
>  <MODEL>
2

>  <REMARK>
 VINA RESULT:      -8.8      1.513      2.950
  Name = 
  6 active torsions:
  status: ('A' for Active; 'I' for Inactive)
    1  A    between atoms: C_1  and  C_21
    2  A    between atoms: C_1  and  C_24
    3  A    between atoms: C_6  and  C_15
    4  A    between atoms: C_9  and  C_13
    5  A    between atoms: C_15  and  C_21
    6  A    between atoms: N_18  and  C_24
                            x       y       z     vdW  Elec       q    Type
                         _______ _______ _______ _____ _____    ______ ____

>  <TORSDO>
F 6

$$$$
=
 OpenBabel10232409063D

 28 31  0  0  1  0  0  0  0  0999 V2000
  183.7920  179.1840  140.1190 S   0  0  1  0  0  0  0  0  0  0  0  0
  183.9820  178.9880  142.7370 O   0  0  0  0  0  0  0  0  0  0  0  0
  185.5230  179.0810  140.4010 N   0  0  0  0  0  0  0  0  0  0  0  0
  185.0900  178.1340  142.6100 C   0  0  1  0  0  3  0  0  0  0  0  0
  187.4320  178.5150  141.6800 N   0  0  0  0  0  2  0  0  0  0  0  0
  186.0150  178.6200  141.5130 C   0  0  0  0  0  0  0  0  0  0  0  0
  183.5170  177.9970  139.2070 O   0  0  0  0  0  0  0  0  0  0  0  0
  183.1050  178.6400  141.7000 C   0  0  0  0  0  2  0  0  0  0  0  0
  190.7050  177.1180  147.3470 S   0  0  0  0  0  0  0  0  0  0  0  0
  185.9240  178.4490  146.4700 C   0  0  0  0  0  3  0  0  0  0  0  0
  187.7580  177.5050  145.2010 C   0  0  0  0  0  0  0  0  0  0  0  0
  185.7930  178.0010  143.9250 C   0  0  0  0  0  0  0  0  0  0  0  0
  187.0580  177.5530  143.9240 C   0  0  0  0  0  3  0  0  0  0  0  0
  191.1980  176.6400  145.7750 C   0  0  0  0  0  3  0  0  0  0  0  0
  189.1430  177.4470  146.8640 C   0  0  0  0  0  0  0  0  0  0  0  0
  187.1640  177.9740  146.4280 C   0  0  1  0  0  3  0  0  0  0  0  0
  190.1200  176.7490  144.8740 C   0  0  0  0  0  3  0  0  0  0  0  0
  185.0760  178.4450  145.2090 C   0  0  0  0  0  3  0  0  0  0  0  0
  188.1160  177.9220  147.4990 N   0  0  0  0  0  0  0  0  0  0  0  0
  188.9870  177.2030  145.5410 C   0  0  0  0  0  0  0  0  0  0  0  0
  188.3890  178.8680  140.6450 C   0  0  0  0  0  2  0  0  0  0  0  0
  188.8660  177.6280  139.9670 C   0  0  0  0  0  0  0  0  0  0  0  0
  188.3140  177.2430  138.9490 O   0  0  0  0  0  0  0  0  0  0  0  0
  190.0050  176.8480  140.5420 C   0  0  0  0  0  2  0  0  0  0  0  0
  191.3130  177.2970  139.9130 C   0  0  0  0  0  2  0  0  0  0  0  0
  191.6520  176.4120  138.7670 C   0  0  0  0  0  0  0  0  0  0  0  0
  192.6060  176.7090  138.0030 O   0  0  0  0  0  0  0  0  0  0  0  0
  190.9370  175.2400  138.5600 O   0  0  0  0  0  1  0  0  0  0  0  0
  1  7  2  6  0  0  0
  1  3  1  0  0  0  0
  1  8  1  0  0  0  0
  3  6  2  0  0  0  0
  4  2  1  0  0  0  0
  4 12  1  1  0  0  0
  6  5  1  0  0  0  0
  6  4  1  0  0  0  0
  8  2  1  0  0  0  0
 11 20  2  0  0  0  0
 11 16  1  0  0  0  0
 12 18  1  0  0  0  0
 13 12  2  0  0  0  0
 13 11  1  0  0  0  0
 14  9  1  0  0  0  0
 15  9  1  0  0  0  0
 15 19  2  0  0  0  0
 16 10  1  6  0  0  0
 16 19  1  0  0  0  0
 17 20  1  0  0  0  0
 17 14  2  0  0  0  0
 18 10  2  0  0  0  0
 20 15  1  0  0  0  0
 21  5  1  0  0  0  0
 22 24  1  0  0  0  0
 22 21  1  0  0  0  0
 23 22  2  0  0  0  0
 25 24  1  0  0  0  0
 26 25  1  0  0  0  0
 27 26  2  0  0  0  0
 28 26  1  0  0  0  0
M  END
>  <MODEL>
3

>  <REMARK>
 VINA RESULT:      -8.6      2.145      2.642
  Name = 
  6 active torsions:
  status: ('A' for Active; 'I' for Inactive)
    1  A    between atoms: C_1  and  C_21
    2  A    between atoms: C_1  and  C_24
    3  A    between atoms: C_6  and  C_15
    4  A    between atoms: C_9  and  C_13
    5  A    between atoms: C_15  and  C_21
    6  A    between atoms: N_18  and  C_24
                            x       y       z     vdW  Elec       q    Type
                         _______ _______ _______ _____ _____    ______ ____

>  <TORSDO>
F 6

$$$$
=
 OpenBabel10232409063D

 28 31  0  0  1  0  0  0  0  0999 V2000
  189.2590  176.8960  138.3010 S   0  0  1  0  0  0  0  0  0  0  0  0
  190.4400  176.2070  140.5500 O   0  0  0  0  0  0  0  0  0  0  0  0
  188.2380  177.6100  139.5400 N   0  0  0  0  0  0  0  0  0  0  0  0
  190.0780  177.4310  141.1360 C   0  0  1  0  0  3  0  0  0  0  0  0
  187.8070  178.4310  141.7170 N   0  0  0  0  0  2  0  0  0  0  0  0
  188.6610  177.8060  140.7540 C   0  0  0  0  0  0  0  0  0  0  0  0
  189.6830  178.0960  137.4650 O   0  0  0  0  0  0  0  0  0  0  0  0
  190.7650  176.4970  139.2170 C   0  0  0  0  0  2  0  0  0  0  0  0
  188.2330  177.4550  148.3190 S   0  0  0  0  0  0  0  0  0  0  0  0
  191.6430  176.6640  144.6940 C   0  0  0  0  0  3  0  0  0  0  0  0
  189.3960  177.5540  144.8430 C   0  0  0  0  0  0  0  0  0  0  0  0
  190.2650  177.3680  142.6200 C   0  0  0  0  0  0  0  0  0  0  0  0
  189.2260  177.6960  143.4040 C   0  0  0  0  0  3  0  0  0  0  0  0
  186.9110  178.0370  147.3940 C   0  0  0  0  0  3  0  0  0  0  0  0
  189.2310  177.3200  146.9900 C   0  0  0  0  0  0  0  0  0  0  0  0
  190.6000  177.0240  145.4330 C   0  0  0  0  0  0  0  0  0  0  0  0
  187.2690  178.1170  146.0340 C   0  0  0  0  0  3  0  0  0  0  0  0
  191.6020  176.8700  143.1880 C   0  0  0  0  0  3  0  0  0  0  0  0
  190.4440  176.8830  146.8520 N   0  0  0  0  0  0  0  0  0  0  0  0
  188.5870  177.7060  145.8630 C   0  0  2  0  0  3  0  0  0  0  0  0
  186.4680  178.9080  141.4110 C   0  0  0  0  0  2  0  0  0  0  0  0
  185.4950  178.2990  142.3630 C   0  0  0  0  0  0  0  0  0  0  0  0
  185.8360  177.3540  143.0560 O   0  0  0  0  0  0  0  0  0  0  0  0
  184.1000  178.8310  142.4560 C   0  0  0  0  0  2  0  0  0  0  0  0
  183.9540  179.6930  143.6980 C   0  0  0  0  0  2  0  0  0  0  0  0
  183.2000  178.9500  144.7420 C   0  0  0  0  0  0  0  0  0  0  0  0
  182.0820  178.4400  144.4680 O   0  0  0  0  0  0  0  0  0  0  0  0
  183.7430  178.7890  146.0090 O   0  0  0  0  0  1  0  0  0  0  0  0
  1  7  2  6  0  0  0
  1  8  1  0  0  0  0
  1  3  1  0  0  0  0
  2  4  1  0  0  0  0
  3  6  2  0  0  0  0
  4 12  1  1  0  0  0
  6  4  1  0  0  0  0
  6  5  1  0  0  0  0
  8  2  1  0  0  0  0
 10 16  1  0  0  0  0
 11 16  2  0  0  0  0
 11 20  1  0  0  0  0
 12 18  1  0  0  0  0
 12 13  2  0  0  0  0
 13 11  1  0  0  0  0
 14  9  1  0  0  0  0
 15  9  1  0  0  0  0
 16 19  1  0  0  0  0
 17 14  2  0  0  0  0
 18 10  2  0  0  0  0
 19 15  2  0  0  0  0
 20 17  1  6  0  0  0
 20 15  1  0  0  0  0
 21  5  1  0  0  0  0
 21 22  1  0  0  0  0
 22 24  1  0  0  0  0
 22 23  2  0  0  0  0
 24 25  1  0  0  0  0
 25 26  1  0  0  0  0
 26 28  1  0  0  0  0
 27 26  2  0  0  0  0
M  END
>  <MODEL>
4

>  <REMARK>
 VINA RESULT:      -8.5      2.388      5.532
  Name = 
  6 active torsions:
  status: ('A' for Active; 'I' for Inactive)
    1  A    between atoms: C_1  and  C_21
    2  A    between atoms: C_1  and  C_24
    3  A    between atoms: C_6  and  C_15
    4  A    between atoms: C_9  and  C_13
    5  A    between atoms: C_15  and  C_21
    6  A    between atoms: N_18  and  C_24
                            x       y       z     vdW  Elec       q    Type
                         _______ _______ _______ _____ _____    ______ ____

>  <TORSDO>
F 6

$$$$
=
 OpenBabel10232409063D

 28 31  0  0  1  0  0  0  0  0999 V2000
  188.1670  177.4560  147.7740 S   0  0  1  0  0  0  0  0  0  0  0  0
  185.7840  178.2060  146.9470 O   0  0  0  0  0  0  0  0  0  0  0  0
  188.1440  176.9700  146.0860 N   0  0  0  0  0  0  0  0  0  0  0  0
  186.3040  178.5230  145.6810 C   0  0  1  0  0  3  0  0  0  0  0  0
  187.3470  177.0770  143.8610 N   0  0  0  0  0  2  0  0  0  0  0  0
  187.2990  177.4720  145.2350 C   0  0  0  0  0  0  0  0  0  0  0  0
  189.3620  178.3960  147.8490 O   0  0  0  0  0  0  0  0  0  0  0  0
  186.7630  178.5890  147.8740 C   0  0  0  0  0  2  0  0  0  0  0  0
  182.9050  178.7390  139.0930 S   0  0  0  0  0  0  0  0  0  0  0  0
  182.6670  178.7660  144.1260 C   0  0  0  0  0  3  0  0  0  0  0  0
  184.4020  178.8310  142.4380 C   0  0  0  0  0  0  0  0  0  0  0  0
  185.1910  178.7020  144.6960 C   0  0  0  0  0  0  0  0  0  0  0  0
  185.5010  178.7370  143.3900 C   0  0  0  0  0  3  0  0  0  0  0  0
  184.6030  178.7140  138.8530 C   0  0  0  0  0  3  0  0  0  0  0  0
  183.0420  178.8060  140.7530 C   0  0  0  0  0  0  0  0  0  0  0  0
  183.0200  178.8240  142.8470 C   0  0  0  0  0  0  0  0  0  0  0  0
  185.2700  178.7550  140.0930 C   0  0  0  0  0  3  0  0  0  0  0  0
  183.7430  178.7680  145.2010 C   0  0  0  0  0  2  0  0  0  0  0  0
  182.1570  178.8040  141.7020 N   0  0  0  0  0  0  0  0  0  0  0  0
  184.3430  178.8100  141.1290 C   0  0  0  0  0  0  0  0  0  0  0  0
  188.3300  176.1470  143.3280 C   0  0  0  0  0  2  0  0  0  0  0  0
  189.1750  176.8450  142.3160 C   0  0  0  0  0  0  0  0  0  0  0  0
  188.6470  177.4060  141.3690 O   0  0  0  0  0  0  0  0  0  0  0  0
  190.6640  176.8420  142.4500 C   0  0  0  0  0  2  0  0  0  0  0  0
  191.0620  176.3050  143.8140 C   0  0  0  0  0  2  0  0  0  0  0  0
  191.5460  177.4180  144.6730 C   0  0  0  0  0  0  0  0  0  0  0  0
  191.7670  177.2210  145.8960 O   0  0  0  0  0  1  0  0  0  0  0  0
  191.7880  178.6680  144.1190 O   0  0  0  0  0  0  0  0  0  0  0  0
  1  7  2  6  0  0  0
  1  8  1  0  0  0  0
  2  8  1  0  0  0  0
  3  1  1  0  0  0  0
  4 12  1  6  0  0  0
  4  2  1  0  0  0  0
  5  6  1  0  0  0  0
  6  4  1  0  0  0  0
  6  3  2  0  0  0  0
  9 15  1  0  0  0  0
 10 18  1  0  0  0  0
 11 16  1  0  0  0  0
 11 13  1  0  0  0  0
 12 18  1  0  0  0  0
 13 12  2  0  0  0  0
 14  9  1  0  0  0  0
 14 17  2  0  0  0  0
 15 20  1  0  0  0  0
 15 19  2  0  0  0  0
 16 10  2  0  0  0  0
 17 20  1  0  0  0  0
 19 16  1  0  0  0  0
 20 11  2  0  0  0  0
 21  5  1  0  0  0  0
 22 24  1  0  0  0  0
 22 21  1  0  0  0  0
 23 22  2  0  0  0  0
 24 25  1  0  0  0  0
 25 26  1  0  0  0  0
 26 27  1  0  0  0  0
 28 26  2  0  0  0  0
M  END
>  <MODEL>
5

>  <REMARK>
 VINA RESULT:      -8.5      2.128      5.544
  Name = 
  6 active torsions:
  status: ('A' for Active; 'I' for Inactive)
    1  A    between atoms: C_1  and  C_21
    2  A    between atoms: C_1  and  C_24
    3  A    between atoms: C_6  and  C_15
    4  A    between atoms: C_9  and  C_13
    5  A    between atoms: C_15  and  C_21
    6  A    between atoms: N_18  and  C_24
                            x       y       z     vdW  Elec       q    Type
                         _______ _______ _______ _____ _____    ______ ____

>  <TORSDO>
F 6

$$$$
=
 OpenBabel10232409063D

 28 31  0  0  1  0  0  0  0  0999 V2000
  190.4250  176.6740  147.1990 S   0  0  1  0  0  0  0  0  0  0  0  0
  187.9430  177.5170  147.4400 O   0  0  0  0  0  0  0  0  0  0  0  0
  189.7520  176.4420  145.5930 N   0  0  0  0  0  0  0  0  0  0  0  0
  187.9690  178.0230  146.1300 C   0  0  1  0  0  3  0  0  0  0  0  0
  188.1900  176.8700  143.8680 N   0  0  0  0  0  2  0  0  0  0  0  0
  188.6760  177.0580  145.2000 C   0  0  0  0  0  0  0  0  0  0  0  0
  191.6050  177.6040  146.9510 O   0  0  0  0  0  0  0  0  0  0  0  0
  189.2140  177.7680  147.9760 C   0  0  0  0  0  2  0  0  0  0  0  0
  182.2600  178.7400  141.4500 S   0  0  0  0  0  0  0  0  0  0  0  0
  184.0590  178.6630  146.1570 C   0  0  0  0  0  3  0  0  0  0  0  0
  184.9710  178.5990  143.9150 C   0  0  0  0  0  0  0  0  0  0  0  0
  186.5790  178.3360  145.6700 C   0  0  0  0  0  0  0  0  0  0  0  0
  186.3430  178.3730  144.3480 C   0  0  0  0  0  3  0  0  0  0  0  0
  183.7090  178.5540  140.5510 C   0  0  0  0  0  3  0  0  0  0  0  0
  183.0560  178.7510  142.9160 C   0  0  0  0  0  0  0  0  0  0  0  0
  183.8750  178.7190  144.8430 C   0  0  0  0  0  0  0  0  0  0  0  0
  184.8160  178.4970  141.4200 C   0  0  0  0  0  3  0  0  0  0  0  0
  185.4690  178.5320  146.7120 C   0  0  0  0  0  2  0  0  0  0  0  0
  182.6290  178.8120  144.1390 N   0  0  0  0  0  0  0  0  0  0  0  0
  184.3920  178.6170  142.7390 C   0  0  0  0  0  0  0  0  0  0  0  0
  188.8580  176.0380  142.8800 C   0  0  0  0  0  2  0  0  0  0  0  0
  189.2980  176.8850  141.7340 C   0  0  0  0  0  0  0  0  0  0  0  0
  190.3590  176.6490  141.1790 O   0  0  0  0  0  0  0  0  0  0  0  0
  188.4530  178.0320  141.2800 C   0  0  0  0  0  2  0  0  0  0  0  0
  188.8710  178.4650  139.8850 C   0  0  0  0  0  2  0  0  0  0  0  0
  187.9290  177.9080  138.8790 C   0  0  0  0  0  0  0  0  0  0  0  0
  186.8910  178.5470  138.5660 O   0  0  0  0  0  1  0  0  0  0  0  0
  188.2100  176.6980  138.2600 O   0  0  0  0  0  0  0  0  0  0  0  0
  1  7  2  6  0  0  0
  1  8  1  0  0  0  0
  2  8  1  0  0  0  0
  3  1  1  0  0  0  0
  4 12  1  6  0  0  0
  4  2  1  0  0  0  0
  5  6  1  0  0  0  0
  6  3  2  0  0  0  0
  6  4  1  0  0  0  0
  9 15  1  0  0  0  0
 10 18  1  0  0  0  0
 11 13  1  0  0  0  0
 11 16  1  0  0  0  0
 12 18  1  0  0  0  0
 13 12  2  0  0  0  0
 14 17  2  0  0  0  0
 14  9  1  0  0  0  0
 15 19  2  0  0  0  0
 16 10  2  0  0  0  0
 17 20  1  0  0  0  0
 19 16  1  0  0  0  0
 20 15  1  0  0  0  0
 20 11  2  0  0  0  0
 21  5  1  0  0  0  0
 22 21  1  0  0  0  0
 23 22  2  0  0  0  0
 24 22  1  0  0  0  0
 25 24  1  0  0  0  0
 26 25  1  0  0  0  0
 27 26  1  0  0  0  0
 28 26  2  0  0  0  0
M  END
>  <MODEL>
6

>  <REMARK>
 VINA RESULT:      -8.4      2.205      5.922
  Name = 
  6 active torsions:
  status: ('A' for Active; 'I' for Inactive)
    1  A    between atoms: C_1  and  C_21
    2  A    between atoms: C_1  and  C_24
    3  A    between atoms: C_6  and  C_15
    4  A    between atoms: C_9  and  C_13
    5  A    between atoms: C_15  and  C_21
    6  A    between atoms: N_18  and  C_24
                            x       y       z     vdW  Elec       q    Type
                         _______ _______ _______ _____ _____    ______ ____

>  <TORSDO>
F 6

$$$$
=
 OpenBabel10232409063D

 28 31  0  0  1  0  0  0  0  0999 V2000
  188.2240  177.4020  147.7460 S   0  0  1  0  0  0  0  0  0  0  0  0
  185.8410  178.1720  146.9350 O   0  0  0  0  0  0  0  0  0  0  0  0
  188.1870  176.9200  146.0570 N   0  0  0  0  0  0  0  0  0  0  0  0
  186.3560  178.4890  145.6670 C   0  0  1  0  0  3  0  0  0  0  0  0
  187.3780  177.0390  143.8370 N   0  0  0  0  0  2  0  0  0  0  0  0
  187.3410  177.4310  145.2120 C   0  0  0  0  0  0  0  0  0  0  0  0
  189.4260  178.3330  147.8160 O   0  0  0  0  0  0  0  0  0  0  0  0
  186.8290  178.5460  147.8570 C   0  0  0  0  0  2  0  0  0  0  0  0
  182.9300  178.7830  139.0960 S   0  0  0  0  0  0  0  0  0  0  0  0
  182.7130  178.7460  144.1310 C   0  0  0  0  0  3  0  0  0  0  0  0
  184.4410  178.8350  142.4360 C   0  0  0  0  0  0  0  0  0  0  0  0
  185.2390  178.6790  144.6880 C   0  0  0  0  0  0  0  0  0  0  0  0
  185.5440  178.7300  143.3820 C   0  0  0  0  0  3  0  0  0  0  0  0
  184.6270  178.7630  138.8480 C   0  0  0  0  0  3  0  0  0  0  0  0
  183.0740  178.8290  140.7560 C   0  0  0  0  0  0  0  0  0  0  0  0
  183.0600  178.8220  142.8500 C   0  0  0  0  0  0  0  0  0  0  0  0
  185.2990  178.7890  140.0870 C   0  0  0  0  0  3  0  0  0  0  0  0
  183.7930  178.7370  145.2010 C   0  0  0  0  0  2  0  0  0  0  0  0
  182.1930  178.8140  141.7090 N   0  0  0  0  0  0  0  0  0  0  0  0
  184.3760  178.8300  141.1270 C   0  0  0  0  0  0  0  0  0  0  0  0
  188.3500  176.1030  143.2960 C   0  0  0  0  0  2  0  0  0  0  0  0
  189.2920  176.8320  142.3980 C   0  0  0  0  0  0  0  0  0  0  0  0
  190.4960  176.7040  142.5520 O   0  0  0  0  0  0  0  0  0  0  0  0
  188.7650  177.7290  141.3250 C   0  0  0  0  0  2  0  0  0  0  0  0
  189.5570  177.5300  140.0440 C   0  0  0  0  0  2  0  0  0  0  0  0
  188.7620  178.0040  138.8800 C   0  0  0  0  0  0  0  0  0  0  0  0
  188.8450  179.2020  138.5060 O   0  0  0  0  0  1  0  0  0  0  0  0
  187.9540  177.1160  138.1830 O   0  0  0  0  0  0  0  0  0  0  0  0
  1  7  2  6  0  0  0
  1  8  1  0  0  0  0
  2  8  1  0  0  0  0
  3  1  1  0  0  0  0
  4 12  1  6  0  0  0
  4  2  1  0  0  0  0
  5  6  1  0  0  0  0
  6  4  1  0  0  0  0
  6  3  2  0  0  0  0
  9 15  1  0  0  0  0
 10 18  1  0  0  0  0
 11 16  1  0  0  0  0
 11 13  1  0  0  0  0
 12 18  1  0  0  0  0
 13 12  2  0  0  0  0
 14  9  1  0  0  0  0
 14 17  2  0  0  0  0
 15 20  1  0  0  0  0
 15 19  2  0  0  0  0
 16 10  2  0  0  0  0
 17 20  1  0  0  0  0
 19 16  1  0  0  0  0
 20 11  2  0  0  0  0
 21  5  1  0  0  0  0
 22 23  2  0  0  0  0
 22 21  1  0  0  0  0
 24 22  1  0  0  0  0
 25 24  1  0  0  0  0
 26 25  1  0  0  0  0
 27 26  1  0  0  0  0
 28 26  2  0  0  0  0
M  END
>  <MODEL>
7

>  <REMARK>
 VINA RESULT:      -8.3      2.239      5.979
  Name = 
  6 active torsions:
  status: ('A' for Active; 'I' for Inactive)
    1  A    between atoms: C_1  and  C_21
    2  A    between atoms: C_1  and  C_24
    3  A    between atoms: C_6  and  C_15
    4  A    between atoms: C_9  and  C_13
    5  A    between atoms: C_15  and  C_21
    6  A    between atoms: N_18  and  C_24
                            x       y       z     vdW  Elec       q    Type
                         _______ _______ _______ _____ _____    ______ ____

>  <TORSDO>
F 6

$$$$
=
 OpenBabel10232409063D

 28 31  0  0  1  0  0  0  0  0999 V2000
  182.2840  179.3130  142.4220 S   0  0  1  0  0  0  0  0  0  0  0  0
  183.5730  179.1020  144.7070 O   0  0  0  0  0  0  0  0  0  0  0  0
  183.9570  179.0910  141.9340 N   0  0  0  0  0  0  0  0  0  0  0  0
  184.4620  178.1740  144.1400 C   0  0  1  0  0  3  0  0  0  0  0  0
  186.1910  178.3940  142.2820 N   0  0  0  0  0  2  0  0  0  0  0  0
  184.8510  178.5960  142.7390 C   0  0  0  0  0  0  0  0  0  0  0  0
  181.5690  178.1470  141.7530 O   0  0  0  0  0  0  0  0  0  0  0  0
  182.3140  178.8160  144.1600 C   0  0  0  0  0  2  0  0  0  0  0  0
  191.5120  176.8410  146.0170 S   0  0  0  0  0  0  0  0  0  0  0  0
  186.8860  178.4010  147.2660 C   0  0  0  0  0  3  0  0  0  0  0  0
  187.9500  177.3910  145.3400 C   0  0  0  0  0  0  0  0  0  0  0  0
  185.6540  177.9930  145.0280 C   0  0  0  0  0  0  0  0  0  0  0  0
  186.7740  177.4870  144.4870 C   0  0  0  0  0  3  0  0  0  0  0  0
  191.2590  176.3610  144.3900 C   0  0  0  0  0  3  0  0  0  0  0  0
  189.9110  177.2480  146.2480 C   0  0  0  0  0  0  0  0  0  0  0  0
  187.9640  177.8700  146.7000 C   0  0  1  0  0  3  0  0  0  0  0  0
  189.9060  176.5300  144.0380 C   0  0  0  0  0  3  0  0  0  0  0  0
  185.5790  178.4520  146.4910 C   0  0  0  0  0  3  0  0  0  0  0  0
  189.2800  177.7610  147.2590 N   0  0  0  0  0  0  0  0  0  0  0  0
  189.1910  177.0280  145.1230 C   0  0  0  0  0  0  0  0  0  0  0  0
  186.6280  178.6820  140.9250 C   0  0  0  0  0  2  0  0  0  0  0  0
  188.0980  178.4530  140.8180 C   0  0  0  0  0  0  0  0  0  0  0  0
  188.8170  178.6780  141.7790 O   0  0  0  0  0  0  0  0  0  0  0  0
  188.6920  177.9690  139.5350 C   0  0  0  0  0  2  0  0  0  0  0  0
  187.6150  177.8720  138.4670 C   0  0  0  0  0  2  0  0  0  0  0  0
  188.0330  178.6300  137.2590 C   0  0  0  0  0  0  0  0  0  0  0  0
  187.4880  178.3980  136.1490 O   0  0  0  0  0  0  0  0  0  0  0  0
  189.0020  179.6190  137.3600 O   0  0  0  0  0  1  0  0  0  0  0  0
  1  7  2  6  0  0  0
  1  8  1  0  0  0  0
  3  1  1  0  0  0  0
  3  6  2  0  0  0  0
  4  2  1  0  0  0  0
  4 12  1  1  0  0  0
  5  6  1  0  0  0  0
  6  4  1  0  0  0  0
  8  2  1  0  0  0  0
  9 15  1  0  0  0  0
 11 16  1  0  0  0  0
 12 18  1  0  0  0  0
 13 12  2  0  0  0  0
 13 11  1  0  0  0  0
 14  9  1  0  0  0  0
 15 19  2  0  0  0  0
 16 19  1  0  0  0  0
 16 10  1  6  0  0  0
 17 14  2  0  0  0  0
 17 20  1  0  0  0  0
 18 10  2  0  0  0  0
 20 11  2  0  0  0  0
 20 15  1  0  0  0  0
 21  5  1  0  0  0  0
 22 21  1  0  0  0  0
 22 23  2  0  0  0  0
 24 22  1  0  0  0  0
 25 24  1  0  0  0  0
 26 28  1  0  0  0  0
 26 25  1  0  0  0  0
 27 26  2  0  0  0  0
M  END
>  <MODEL>
8

>  <REMARK>
 VINA RESULT:      -8.2      2.350      4.036
  Name = 
  6 active torsions:
  status: ('A' for Active; 'I' for Inactive)
    1  A    between atoms: C_1  and  C_21
    2  A    between atoms: C_1  and  C_24
    3  A    between atoms: C_6  and  C_15
    4  A    between atoms: C_9  and  C_13
    5  A    between atoms: C_15  and  C_21
    6  A    between atoms: N_18  and  C_24
                            x       y       z     vdW  Elec       q    Type
                         _______ _______ _______ _____ _____    ______ ____

>  <TORSDO>
F 6

$$$$
=
 OpenBabel10232409063D

 28 31  0  0  1  0  0  0  0  0999 V2000
  189.1920  176.9060  138.3480 S   0  0  1  0  0  0  0  0  0  0  0  0
  190.3400  176.1830  140.6030 O   0  0  0  0  0  0  0  0  0  0  0  0
  188.2100  177.6840  139.5800 N   0  0  0  0  0  0  0  0  0  0  0  0
  190.0400  177.4300  141.1760 C   0  0  1  0  0  3  0  0  0  0  0  0
  187.8230  178.5480  141.7480 N   0  0  0  0  0  2  0  0  0  0  0  0
  188.6430  177.8710  140.7910 C   0  0  0  0  0  0  0  0  0  0  0  0
  189.6740  178.0740  137.4990 O   0  0  0  0  0  0  0  0  0  0  0  0
  190.6770  176.4420  139.2680 C   0  0  0  0  0  2  0  0  0  0  0  0
  188.1870  177.4690  148.3570 S   0  0  0  0  0  0  0  0  0  0  0  0
  191.6070  176.6870  144.7390 C   0  0  0  0  0  3  0  0  0  0  0  0
  189.3530  177.5620  144.8820 C   0  0  0  0  0  0  0  0  0  0  0  0
  190.2270  177.3740  142.6610 C   0  0  0  0  0  0  0  0  0  0  0  0
  189.1840  177.6980  143.4420 C   0  0  0  0  0  3  0  0  0  0  0  0
  186.8630  178.0380  147.4280 C   0  0  0  0  0  3  0  0  0  0  0  0
  189.1870  177.3360  147.0300 C   0  0  0  0  0  0  0  0  0  0  0  0
  190.5600  177.0430  145.4760 C   0  0  0  0  0  0  0  0  0  0  0  0
  187.2210  178.1160  146.0680 C   0  0  0  0  0  3  0  0  0  0  0  0
  191.5660  176.8870  143.2320 C   0  0  0  0  0  3  0  0  0  0  0  0
  190.4040  176.9060  146.8950 N   0  0  0  0  0  0  0  0  0  0  0  0
  188.5420  177.7130  145.9010 C   0  0  2  0  0  3  0  0  0  0  0  0
  186.5100  179.0890  141.4380 C   0  0  0  0  0  2  0  0  0  0  0  0
  185.4770  178.3750  142.2440 C   0  0  0  0  0  0  0  0  0  0  0  0
  185.8200  177.6630  143.1740 O   0  0  0  0  0  0  0  0  0  0  0  0
  184.0280  178.5160  141.9020 C   0  0  0  0  0  2  0  0  0  0  0  0
  183.8000  178.1510  140.4450 C   0  0  0  0  0  2  0  0  0  0  0  0
  183.2840  179.3330  139.7050 C   0  0  0  0  0  0  0  0  0  0  0  0
  182.0450  179.4830  139.5430 O   0  0  0  0  0  1  0  0  0  0  0  0
  184.1660  180.2880  139.2200 O   0  0  0  0  0  0  0  0  0  0  0  0
  1  7  2  6  0  0  0
  1  8  1  0  0  0  0
  1  3  1  0  0  0  0
  2  4  1  0  0  0  0
  3  6  2  0  0  0  0
  4 12  1  1  0  0  0
  6  4  1  0  0  0  0
  6  5  1  0  0  0  0
  8  2  1  0  0  0  0
 10 16  1  0  0  0  0
 11 16  2  0  0  0  0
 11 20  1  0  0  0  0
 12 18  1  0  0  0  0
 12 13  2  0  0  0  0
 13 11  1  0  0  0  0
 14  9  1  0  0  0  0
 15  9  1  0  0  0  0
 16 19  1  0  0  0  0
 17 14  2  0  0  0  0
 18 10  2  0  0  0  0
 19 15  2  0  0  0  0
 20 17  1  6  0  0  0
 20 15  1  0  0  0  0
 21  5  1  0  0  0  0
 21 22  1  0  0  0  0
 22 23  2  0  0  0  0
 24 22  1  0  0  0  0
 25 24  1  0  0  0  0
 26 25  1  0  0  0  0
 27 26  1  0  0  0  0
 28 26  2  0  0  0  0
M  END
>  <MODEL>
9

>  <REMARK>
 VINA RESULT:      -8.2      2.277      5.692
  Name = 
  6 active torsions:
  status: ('A' for Active; 'I' for Inactive)
    1  A    between atoms: C_1  and  C_21
    2  A    between atoms: C_1  and  C_24
    3  A    between atoms: C_6  and  C_15
    4  A    between atoms: C_9  and  C_13
    5  A    between atoms: C_15  and  C_21
    6  A    between atoms: N_18  and  C_24
                            x       y       z     vdW  Elec       q    Type
                         _______ _______ _______ _____ _____    ______ ____

>  <TORSDO>
F 6

$$$$
