=
 OpenBabel10232409193D

 30 32  0  0  1  0  0  0  0  0999 V2000
  189.7700  177.6570  142.4960 C   0  0  0  0  0  0  0  0  0  0  0  0
  191.2680  177.4080  145.5160 C   0  0  0  0  0  3  0  0  0  0  0  0
  189.0660  177.9920  144.5880 C   0  0  2  0  0  3  0  0  0  0  0  0
  190.8650  177.9280  143.1380 N   0  0  0  0  0  0  0  0  0  0  0  0
  188.4250  177.6580  145.8630 C   0  0  0  0  0  3  0  0  0  0  0  0
  190.6620  176.9700  146.6390 C   0  0  0  0  0  0  0  0  0  0  0  0
  189.2050  177.1940  146.8470 C   0  0  0  0  0  3  0  0  0  0  0  0
  188.6120  177.6870  143.3840 C   0  0  2  0  0  3  0  0  0  0  0  0
  190.5300  178.2600  144.5180 C   0  0  2  0  0  3  0  0  0  0  0  0
  189.0630  178.0460  140.1980 C   0  0  0  0  0  3  0  0  0  0  0  0
  190.4370  176.1760  140.6220 O   0  0  0  0  0  1  0  0  0  0  0  0
  189.7470  177.3010  141.0650 C   0  0  0  0  0  0  0  0  0  0  0  0
  189.0000  177.7140  138.7450 C   0  0  0  0  0  2  0  0  0  0  0  0
  187.5060  179.1940  137.0770 O   0  0  0  0  0  0  0  0  0  0  0  0
  187.3860  178.0990  138.0990 S   0  0  0  0  0  0  0  0  0  0  0  0
  186.4900  178.5490  139.2180 O   0  0  0  0  0  0  0  0  0  0  0  0
  186.7300  176.6780  137.3600 N   0  0  0  0  0  2  0  0  0  0  0  0
  185.5040  177.0600  136.6790 C   0  0  0  0  0  2  0  0  0  0  0  0
  184.3220  176.3990  137.3580 C   0  0  0  0  0  1  0  0  0  0  0  0
  191.3690  176.2660  147.6190 O   0  0  0  0  0  0  0  0  0  0  0  0
  192.5100  175.4690  147.3280 C   0  0  0  0  0  1  0  0  0  0  0  0
  187.2500  177.1540  143.0810 C   0  0  0  0  0  2  0  0  0  0  0  0
  186.3600  178.2500  142.7470 N   0  0  0  0  0  2  0  0  0  0  0  0
  185.4740  178.3910  143.8240 N   0  0  0  0  0  2  0  0  0  0  0  0
  183.9220  178.4490  141.9550 C   0  0  0  0  0  3  0  0  0  0  0  0
  181.9070  178.8270  143.8280 N   0  0  0  0  0  0  0  0  0  0  0  0
  184.2720  179.0200  143.3060 C   0  0  1  0  0  3  0  0  0  0  0  0
  182.6500  178.4810  141.5350 C   0  0  0  0  0  3  0  0  0  0  0  0
  183.1250  178.7980  144.2590 C   0  0  0  0  0  3  0  0  0  0  0  0
  181.6010  179.0910  142.4310 C   0  0  0  0  0  2  0  0  0  0  0  0
  1  4  2  0  0  0  0
  1  8  1  0  0  0  0
  2  6  2  0  0  0  0
  3  5  1  1  0  0  0
  4  9  1  0  0  0  0
  5  7  2  0  0  0  0
  6  7  1  0  0  0  0
  6 20  1  0  0  0  0
  8 22  1  1  0  0  0
  8  3  1  0  0  0  0
  9  3  1  0  0  0  0
  9  2  1  1  0  0  0
 10 12  2  0  0  0  0
 11 12  1  0  0  0  0
 12  1  1  0  0  0  0
 13 10  1  0  0  0  0
 14 15  2  0  0  0  0
 15 13  1  0  0  0  0
 15 16  2  0  0  0  0
 17 15  1  0  0  0  0
 18 19  1  0  0  0  0
 18 17  1  0  0  0  0
 21 20  1  0  0  0  0
 23 22  1  0  0  0  0
 23 24  1  0  0  0  0
 25 27  1  0  0  0  0
 26 29  2  0  0  0  0
 27 24  1  1  0  0  0
 27 29  1  0  0  0  0
 28 25  2  0  0  0  0
 28 30  1  0  0  0  0
 30 26  1  0  0  0  0
M  END
>  <MODEL>
1

>  <REMARK>
 VINA RESULT:      -7.8      0.000      0.000
  Name = 
  10 active torsions:
  status: ('A' for Active; 'I' for Inactive)
    1  A    between atoms: C_1  and  C_25
    2  A    between atoms: N_4  and  C_5
    3  A    between atoms: N_4  and  S_22
    4  A    between atoms: O_6  and  C_19
    5  A    between atoms: C_7  and  C_17
    6  A    between atoms: N_8  and  N_10
    7  A    between atoms: N_8  and  C_15
    8  A    between atoms: N_10  and  C_13
    9  A    between atoms: C_15  and  C_27
   10  A    between atoms: C_17  and  S_22
                            x       y       z     vdW  Elec       q    Type
                         _______ _______ _______ _____ _____    ______ ____

>  <TORSDO>
F 10

$$$$
=
 OpenBabel10232409193D

 30 32  0  0  1  0  0  0  0  0999 V2000
  189.7410  177.6980  142.3840 C   0  0  0  0  0  0  0  0  0  0  0  0
  191.1260  177.3210  145.4440 C   0  0  0  0  0  3  0  0  0  0  0  0
  188.9760  177.9970  144.4590 C   0  0  2  0  0  3  0  0  0  0  0  0
  190.8200  177.9180  143.0690 N   0  0  0  0  0  0  0  0  0  0  0  0
  188.2810  177.6490  145.7020 C   0  0  0  0  0  3  0  0  0  0  0  0
  190.4690  176.8720  146.5330 C   0  0  0  0  0  0  0  0  0  0  0  0
  189.0130  177.1350  146.6980 C   0  0  0  0  0  3  0  0  0  0  0  0
  188.5540  177.7390  143.2330 C   0  0  2  0  0  3  0  0  0  0  0  0
  190.4490  178.2220  144.4450 C   0  0  2  0  0  3  0  0  0  0  0  0
  189.1660  178.1950  140.0690 C   0  0  0  0  0  3  0  0  0  0  0  0
  190.3850  176.2220  140.4970 O   0  0  0  0  0  1  0  0  0  0  0  0
  189.7570  177.3810  140.9430 C   0  0  0  0  0  0  0  0  0  0  0  0
  189.1440  177.9070  138.6060 C   0  0  0  0  0  2  0  0  0  0  0  0
  187.0340  176.8100  137.3620 O   0  0  0  0  0  0  0  0  0  0  0  0
  187.4950  178.1070  137.9680 S   0  0  0  0  0  0  0  0  0  0  0  0
  187.4870  179.1840  136.9190 O   0  0  0  0  0  0  0  0  0  0  0  0
  186.4440  178.5500  139.2690 N   0  0  0  0  0  2  0  0  0  0  0  0
  185.0780  178.3040  138.8380 C   0  0  0  0  0  2  0  0  0  0  0  0
  184.3050  179.6070  138.8430 C   0  0  0  0  0  1  0  0  0  0  0  0
  191.1210  176.1200  147.5160 O   0  0  0  0  0  0  0  0  0  0  0  0
  192.4870  175.7370  147.4190 C   0  0  0  0  0  1  0  0  0  0  0  0
  187.1890  177.2560  142.8690 C   0  0  0  0  0  2  0  0  0  0  0  0
  186.2770  178.3820  142.7930 N   0  0  0  0  0  2  0  0  0  0  0  0
  185.3840  178.2490  143.8650 N   0  0  0  0  0  2  0  0  0  0  0  0
  183.6790  178.4990  142.1510 C   0  0  0  0  0  3  0  0  0  0  0  0
  181.8550  178.8310  144.2200 N   0  0  0  0  0  0  0  0  0  0  0  0
  184.1720  178.9620  143.5000 C   0  0  1  0  0  3  0  0  0  0  0  0
  182.3770  178.6120  141.8520 C   0  0  0  0  0  3  0  0  0  0  0  0
  183.1040  178.7230  144.5370 C   0  0  0  0  0  3  0  0  0  0  0  0
  181.4410  179.2020  142.8760 C   0  0  0  0  0  2  0  0  0  0  0  0
  1  4  2  0  0  0  0
  1  8  1  0  0  0  0
  2  6  2  0  0  0  0
  3  5  1  1  0  0  0
  4  9  1  0  0  0  0
  5  7  2  0  0  0  0
  6  7  1  0  0  0  0
  6 20  1  0  0  0  0
  8 22  1  1  0  0  0
  8  3  1  0  0  0  0
  9  3  1  0  0  0  0
  9  2  1  1  0  0  0
 10 12  2  0  0  0  0
 11 12  1  0  0  0  0
 12  1  1  0  0  0  0
 13 10  1  0  0  0  0
 14 15  2  0  0  0  0
 15 13  1  0  0  0  0
 15 17  1  0  0  0  0
 16 15  2  0  0  0  0
 18 19  1  0  0  0  0
 18 17  1  0  0  0  0
 21 20  1  0  0  0  0
 23 22  1  0  0  0  0
 23 24  1  0  0  0  0
 25 27  1  0  0  0  0
 26 29  2  0  0  0  0
 27 24  1  1  0  0  0
 27 29  1  0  0  0  0
 28 25  2  0  0  0  0
 28 30  1  0  0  0  0
 30 26  1  0  0  0  0
M  END
>  <MODEL>
2

>  <REMARK>
 VINA RESULT:      -7.8      1.039      1.160
  Name = 
  10 active torsions:
  status: ('A' for Active; 'I' for Inactive)
    1  A    between atoms: C_1  and  C_25
    2  A    between atoms: N_4  and  C_5
    3  A    between atoms: N_4  and  S_22
    4  A    between atoms: O_6  and  C_19
    5  A    between atoms: C_7  and  C_17
    6  A    between atoms: N_8  and  N_10
    7  A    between atoms: N_8  and  C_15
    8  A    between atoms: N_10  and  C_13
    9  A    between atoms: C_15  and  C_27
   10  A    between atoms: C_17  and  S_22
                            x       y       z     vdW  Elec       q    Type
                         _______ _______ _______ _____ _____    ______ ____

>  <TORSDO>
F 10

$$$$
=
 OpenBabel10232409193D

 30 32  0  0  1  0  0  0  0  0999 V2000
  186.5550  178.3290  145.8670 C   0  0  0  0  0  0  0  0  0  0  0  0
  183.4430  179.1840  144.8640 C   0  0  0  0  0  3  0  0  0  0  0  0
  185.6450  178.7280  143.8690 C   0  0  2  0  0  3  0  0  0  0  0  0
  185.5480  179.0980  146.1470 N   0  0  0  0  0  0  0  0  0  0  0  0
  185.0130  178.4010  142.5870 C   0  0  0  0  0  3  0  0  0  0  0  0
  182.8560  178.7510  143.7290 C   0  0  0  0  0  0  0  0  0  0  0  0
  183.6760  178.4420  142.5270 C   0  0  0  0  0  3  0  0  0  0  0  0
  186.6450  178.0720  144.4330 C   0  0  2  0  0  3  0  0  0  0  0  0
  184.9120  179.5110  144.9030 C   0  0  2  0  0  3  0  0  0  0  0  0
  188.5740  177.1530  146.5550 C   0  0  0  0  0  3  0  0  0  0  0  0
  187.0650  177.8200  148.2410 O   0  0  0  0  0  1  0  0  0  0  0  0
  187.4340  177.7490  146.9000 C   0  0  0  0  0  0  0  0  0  0  0  0
  189.4860  176.5410  147.5650 C   0  0  0  0  0  2  0  0  0  0  0  0
  191.7490  175.2840  146.8550 O   0  0  0  0  0  0  0  0  0  0  0  0
  191.1750  176.6640  147.0190 S   0  0  0  0  0  0  0  0  0  0  0  0
  191.9790  177.4270  148.0350 O   0  0  0  0  0  0  0  0  0  0  0  0
  191.2110  177.4960  145.5010 N   0  0  0  0  0  2  0  0  0  0  0  0
  191.5260  176.5210  144.4700 C   0  0  0  0  0  2  0  0  0  0  0  0
  191.8640  177.2420  143.1820 C   0  0  0  0  0  1  0  0  0  0  0  0
  181.4750  178.5440  143.6590 O   0  0  0  0  0  0  0  0  0  0  0  0
  180.5700  179.5150  143.1460 C   0  0  0  0  0  1  0  0  0  0  0  0
  187.4760  177.0210  143.7720 C   0  0  0  0  0  2  0  0  0  0  0  0
  188.5000  177.6500  142.9580 N   0  0  0  0  0  2  0  0  0  0  0  0
  188.6530  176.8510  141.8170 N   0  0  0  0  0  2  0  0  0  0  0  0
  189.9380  176.9890  139.7600 C   0  0  0  0  0  3  0  0  0  0  0  0
  187.9210  178.6260  138.7800 N   0  0  0  0  0  0  0  0  0  0  0  0
  189.0550  177.7290  140.7330 C   0  0  1  0  0  3  0  0  0  0  0  0
  190.0010  177.3970  138.4840 C   0  0  0  0  0  3  0  0  0  0  0  0
  187.8350  178.2460  140.0130 C   0  0  0  0  0  3  0  0  0  0  0  0
  189.1820  178.5900  138.0590 C   0  0  0  0  0  2  0  0  0  0  0  0
  1  4  2  0  0  0  0
  1 12  1  0  0  0  0
  3  5  1  1  0  0  0
  3  8  1  0  0  0  0
  3  9  1  0  0  0  0
  6  2  2  0  0  0  0
  7  5  2  0  0  0  0
  7  6  1  0  0  0  0
  8 22  1  1  0  0  0
  8  1  1  0  0  0  0
  9  2  1  1  0  0  0
  9  4  1  0  0  0  0
 10 12  2  0  0  0  0
 10 13  1  0  0  0  0
 12 11  1  0  0  0  0
 14 15  2  0  0  0  0
 15 13  1  0  0  0  0
 15 16  2  0  0  0  0
 17 15  1  0  0  0  0
 18 17  1  0  0  0  0
 19 18  1  0  0  0  0
 20  6  1  0  0  0  0
 21 20  1  0  0  0  0
 23 22  1  0  0  0  0
 24 23  1  0  0  0  0
 25 27  1  0  0  0  0
 26 29  2  0  0  0  0
 27 24  1  1  0  0  0
 28 25  2  0  0  0  0
 29 27  1  0  0  0  0
 30 28  1  0  0  0  0
 30 26  1  0  0  0  0
M  END
>  <MODEL>
3

>  <REMARK>
 VINA RESULT:      -7.5      3.584      7.747
  Name = 
  10 active torsions:
  status: ('A' for Active; 'I' for Inactive)
    1  A    between atoms: C_1  and  C_25
    2  A    between atoms: N_4  and  C_5
    3  A    between atoms: N_4  and  S_22
    4  A    between atoms: O_6  and  C_19
    5  A    between atoms: C_7  and  C_17
    6  A    between atoms: N_8  and  N_10
    7  A    between atoms: N_8  and  C_15
    8  A    between atoms: N_10  and  C_13
    9  A    between atoms: C_15  and  C_27
   10  A    between atoms: C_17  and  S_22
                            x       y       z     vdW  Elec       q    Type
                         _______ _______ _______ _____ _____    ______ ____

>  <TORSDO>
F 10

$$$$
=
 OpenBabel10232409193D

 30 32  0  0  1  0  0  0  0  0999 V2000
  189.5030  177.8960  142.6840 C   0  0  0  0  0  0  0  0  0  0  0  0
  191.5600  177.1260  145.2530 C   0  0  0  0  0  3  0  0  0  0  0  0
  189.2320  177.8380  144.8980 C   0  0  2  0  0  3  0  0  0  0  0  0
  190.7080  178.0620  143.1350 N   0  0  0  0  0  0  0  0  0  0  0  0
  188.8470  177.2690  146.1940 C   0  0  0  0  0  3  0  0  0  0  0  0
  191.1770  176.4840  146.3770 C   0  0  0  0  0  0  0  0  0  0  0  0
  189.7950  176.6470  146.9040 C   0  0  0  0  0  3  0  0  0  0  0  0
  188.5430  177.7490  143.7730 C   0  0  2  0  0  3  0  0  0  0  0  0
  190.6590  178.1350  144.5900 C   0  0  2  0  0  3  0  0  0  0  0  0
  189.7950  176.8920  140.4840 C   0  0  0  0  0  3  0  0  0  0  0  0
  188.2680  178.6790  140.6800 O   0  0  0  0  0  1  0  0  0  0  0  0
  189.1910  177.8040  141.2450 C   0  0  0  0  0  0  0  0  0  0  0  0
  189.5210  176.7720  139.0230 C   0  0  0  0  0  2  0  0  0  0  0  0
  192.2020  176.7920  138.9100 O   0  0  0  0  0  0  0  0  0  0  0  0
  191.0010  176.2860  138.1610 S   0  0  0  0  0  0  0  0  0  0  0  0
  190.9900  176.8660  136.7740 O   0  0  0  0  0  0  0  0  0  0  0  0
  191.0510  174.5590  138.0720 N   0  0  0  0  0  2  0  0  0  0  0  0
  190.5900  174.1700  136.7490 C   0  0  0  0  0  2  0  0  0  0  0  0
  189.2530  173.4670  136.8680 C   0  0  0  0  0  1  0  0  0  0  0  0
  192.0470  175.6240  147.0540 O   0  0  0  0  0  0  0  0  0  0  0  0
  192.7250  175.9910  148.2500 C   0  0  0  0  0  1  0  0  0  0  0  0
  187.1370  177.2600  143.6540 C   0  0  0  0  0  2  0  0  0  0  0  0
  186.2720  178.3540  143.2510 N   0  0  0  0  0  2  0  0  0  0  0  0
  185.3130  178.5020  144.2610 N   0  0  0  0  0  2  0  0  0  0  0  0
  183.9370  178.5360  142.2590 C   0  0  0  0  0  3  0  0  0  0  0  0
  181.7450  178.7850  143.9450 N   0  0  0  0  0  0  0  0  0  0  0  0
  184.1360  179.0910  143.6470 C   0  0  1  0  0  3  0  0  0  0  0  0
  182.7070  178.5230  141.7250 C   0  0  0  0  0  3  0  0  0  0  0  0
  182.9180  178.7990  144.4870 C   0  0  0  0  0  3  0  0  0  0  0  0
  181.5550  179.0670  142.5320 C   0  0  0  0  0  2  0  0  0  0  0  0
  1  4  2  0  0  0  0
  1  8  1  0  0  0  0
  2  6  2  0  0  0  0
  3  5  1  6  0  0  0
  4  9  1  0  0  0  0
  5  7  2  0  0  0  0
  6  7  1  0  0  0  0
  6 20  1  0  0  0  0
  8 22  1  6  0  0  0
  8  3  1  0  0  0  0
  9  3  1  0  0  0  0
  9  2  1  1  0  0  0
 10 12  2  0  0  0  0
 11 12  1  0  0  0  0
 12  1  1  0  0  0  0
 13 10  1  0  0  0  0
 15 14  2  0  0  0  0
 15 13  1  0  0  0  0
 16 15  2  0  0  0  0
 17 15  1  0  0  0  0
 18 19  1  0  0  0  0
 18 17  1  0  0  0  0
 20 21  1  0  0  0  0
 23 22  1  0  0  0  0
 23 24  1  0  0  0  0
 25 27  1  0  0  0  0
 26 29  2  0  0  0  0
 27 24  1  1  0  0  0
 27 29  1  0  0  0  0
 28 25  2  0  0  0  0
 28 30  1  0  0  0  0
 30 26  1  0  0  0  0
M  END
>  <MODEL>
4

>  <REMARK>
 VINA RESULT:      -7.4      2.020      2.507
  Name = 
  10 active torsions:
  status: ('A' for Active; 'I' for Inactive)
    1  A    between atoms: C_1  and  C_25
    2  A    between atoms: N_4  and  C_5
    3  A    between atoms: N_4  and  S_22
    4  A    between atoms: O_6  and  C_19
    5  A    between atoms: C_7  and  C_17
    6  A    between atoms: N_8  and  N_10
    7  A    between atoms: N_8  and  C_15
    8  A    between atoms: N_10  and  C_13
    9  A    between atoms: C_15  and  C_27
   10  A    between atoms: C_17  and  S_22
                            x       y       z     vdW  Elec       q    Type
                         _______ _______ _______ _____ _____    ______ ____

>  <TORSDO>
F 10

$$$$
=
 OpenBabel10232409193D

 30 32  0  0  1  0  0  0  0  0999 V2000
  186.3530  177.9860  143.1600 C   0  0  0  0  0  0  0  0  0  0  0  0
  187.6700  177.4530  146.2270 C   0  0  0  0  0  3  0  0  0  0  0  0
  188.2890  177.1320  143.8680 C   0  0  2  0  0  3  0  0  0  0  0  0
  186.0700  177.5570  144.3510 N   0  0  0  0  0  0  0  0  0  0  0  0
  189.7110  177.1320  144.2270 C   0  0  0  0  0  3  0  0  0  0  0  0
  188.9760  177.5920  146.5360 C   0  0  0  0  0  0  0  0  0  0  0  0
  190.0250  177.3270  145.5130 C   0  0  0  0  0  3  0  0  0  0  0  0
  187.7500  177.7350  142.8220 C   0  0  2  0  0  3  0  0  0  0  0  0
  187.2420  176.8860  144.8990 C   0  0  2  0  0  3  0  0  0  0  0  0
  184.4890  178.0100  141.5920 C   0  0  0  0  0  3  0  0  0  0  0  0
  185.3910  180.0860  142.2550 O   0  0  0  0  0  1  0  0  0  0  0  0
  185.3780  178.6950  142.3110 C   0  0  0  0  0  0  0  0  0  0  0  0
  183.4940  178.6850  140.7080 C   0  0  0  0  0  2  0  0  0  0  0  0
  185.6820  178.6590  139.1530 O   0  0  0  0  0  0  0  0  0  0  0  0
  184.2420  179.0940  139.1460 S   0  0  0  0  0  0  0  0  0  0  0  0
  184.1650  180.5780  138.9220 O   0  0  0  0  0  0  0  0  0  0  0  0
  183.3890  178.2680  137.8870 N   0  0  0  0  0  2  0  0  0  0  0  0
  181.9830  178.2350  138.2540 C   0  0  0  0  0  2  0  0  0  0  0  0
  181.2250  179.2640  137.4420 C   0  0  0  0  0  1  0  0  0  0  0  0
  189.3810  178.0220  147.8030 O   0  0  0  0  0  0  0  0  0  0  0  0
  188.4820  178.1690  148.8960 C   0  0  0  0  0  1  0  0  0  0  0  0
  188.5070  178.3320  141.6810 C   0  0  0  0  0  2  0  0  0  0  0  0
  188.7050  177.3300  140.6490 N   0  0  0  0  0  2  0  0  0  0  0  0
  189.9010  177.6570  139.9970 N   0  0  0  0  0  2  0  0  0  0  0  0
  188.5840  176.6110  138.2430 C   0  0  0  0  0  3  0  0  0  0  0  0
  188.3820  179.1310  137.0930 N   0  0  0  0  0  0  0  0  0  0  0  0
  189.6220  177.6550  138.5720 C   0  0  1  0  0  3  0  0  0  0  0  0
  187.8190  176.7630  137.1530 C   0  0  0  0  0  3  0  0  0  0  0  0
  189.1250  179.0130  138.1440 C   0  0  0  0  0  3  0  0  0  0  0  0
  188.0210  177.9790  136.2830 C   0  0  0  0  0  2  0  0  0  0  0  0
  1  4  2  0  0  0  0
  2  6  2  0  0  0  0
  3  5  1  1  0  0  0
  3  9  1  0  0  0  0
  4  9  1  0  0  0  0
  5  7  2  0  0  0  0
  6 20  1  0  0  0  0
  7  6  1  0  0  0  0
  8 22  1  1  0  0  0
  8  1  1  0  0  0  0
  8  3  1  0  0  0  0
  9  2  1  1  0  0  0
 10 12  2  0  0  0  0
 11 12  1  0  0  0  0
 12  1  1  0  0  0  0
 13 10  1  0  0  0  0
 15 14  2  0  0  0  0
 15 13  1  0  0  0  0
 16 15  2  0  0  0  0
 17 18  1  0  0  0  0
 17 15  1  0  0  0  0
 19 18  1  0  0  0  0
 20 21  1  0  0  0  0
 23 22  1  0  0  0  0
 24 23  1  0  0  0  0
 25 27  1  0  0  0  0
 26 29  2  0  0  0  0
 27 24  1  1  0  0  0
 28 25  2  0  0  0  0
 29 27  1  0  0  0  0
 30 26  1  0  0  0  0
 30 28  1  0  0  0  0
M  END
>  <MODEL>
5

>  <REMARK>
 VINA RESULT:      -7.3      2.366      4.977
  Name = 
  10 active torsions:
  status: ('A' for Active; 'I' for Inactive)
    1  A    between atoms: C_1  and  C_25
    2  A    between atoms: N_4  and  C_5
    3  A    between atoms: N_4  and  S_22
    4  A    between atoms: O_6  and  C_19
    5  A    between atoms: C_7  and  C_17
    6  A    between atoms: N_8  and  N_10
    7  A    between atoms: N_8  and  C_15
    8  A    between atoms: N_10  and  C_13
    9  A    between atoms: C_15  and  C_27
   10  A    between atoms: C_17  and  S_22
                            x       y       z     vdW  Elec       q    Type
                         _______ _______ _______ _____ _____    ______ ____

>  <TORSDO>
F 10

$$$$
=
 OpenBabel10232409193D

 30 32  0  0  1  0  0  0  0  0999 V2000
  187.4340  178.4670  140.2080 C   0  0  0  0  0  0  0  0  0  0  0  0
  189.3680  177.4750  137.6200 C   0  0  0  0  0  3  0  0  0  0  0  0
  189.5420  177.7520  140.0580 C   0  0  2  0  0  3  0  0  0  0  0  0
  187.7570  178.7520  138.9840 N   0  0  0  0  0  0  0  0  0  0  0  0
  190.6440  176.7840  140.1020 C   0  0  0  0  0  3  0  0  0  0  0  0
  190.2840  176.4860  137.6810 C   0  0  0  0  0  0  0  0  0  0  0  0
  191.0070  176.2050  138.9520 C   0  0  0  0  0  3  0  0  0  0  0  0
  188.5400  177.8300  140.9160 C   0  0  2  0  0  3  0  0  0  0  0  0
  189.1600  178.4140  138.7790 C   0  0  2  0  0  3  0  0  0  0  0  0
  185.7120  178.1260  141.8970 C   0  0  0  0  0  3  0  0  0  0  0  0
  185.1990  179.5360  140.0770 O   0  0  0  0  0  1  0  0  0  0  0  0
  186.0860  178.7060  140.7570 C   0  0  0  0  0  0  0  0  0  0  0  0
  184.3550  178.3270  142.4820 C   0  0  0  0  0  2  0  0  0  0  0  0
  183.1720  178.7880  144.8460 O   0  0  0  0  0  0  0  0  0  0  0  0
  184.4900  178.9540  144.1420 S   0  0  0  0  0  0  0  0  0  0  0  0
  184.8610  180.4100  144.1030 O   0  0  0  0  0  0  0  0  0  0  0  0
  185.7160  178.0610  144.9760 N   0  0  0  0  0  2  0  0  0  0  0  0
  185.3690  178.0460  146.3880 C   0  0  0  0  0  2  0  0  0  0  0  0
  186.1580  179.1170  147.1120 C   0  0  0  0  0  1  0  0  0  0  0  0
  190.5540  175.6760  136.5740 O   0  0  0  0  0  0  0  0  0  0  0  0
  190.8150  176.1990  135.2770 C   0  0  0  0  0  1  0  0  0  0  0  0
  188.4580  177.1080  142.2210 C   0  0  0  0  0  2  0  0  0  0  0  0
  188.8230  178.0080  143.3000 N   0  0  0  0  0  2  0  0  0  0  0  0
  190.2120  177.9080  143.4530 N   0  0  0  0  0  2  0  0  0  0  0  0
  189.2540  177.6030  145.6650 C   0  0  0  0  0  3  0  0  0  0  0  0
  191.7050  176.5390  146.4210 N   0  0  0  0  0  0  0  0  0  0  0  0
  190.4880  177.9670  144.8780 C   0  0  1  0  0  3  0  0  0  0  0  0
  189.3850  177.0990  146.9010 C   0  0  0  0  0  3  0  0  0  0  0  0
  191.6050  177.0150  145.2240 C   0  0  0  0  0  3  0  0  0  0  0  0
  190.7690  176.9120  147.4690 C   0  0  0  0  0  2  0  0  0  0  0  0
  1 12  1  0  0  0  0
  1  8  1  0  0  0  0
  2  6  2  0  0  0  0
  3  5  1  6  0  0  0
  3  8  1  0  0  0  0
  4  1  2  0  0  0  0
  6  7  1  0  0  0  0
  7  5  2  0  0  0  0
  8 22  1  6  0  0  0
  9  2  1  6  0  0  0
  9  4  1  0  0  0  0
  9  3  1  0  0  0  0
 10 13  1  0  0  0  0
 11 12  1  0  0  0  0
 12 10  2  0  0  0  0
 13 15  1  0  0  0  0
 15 14  2  0  0  0  0
 15 17  1  0  0  0  0
 16 15  2  0  0  0  0
 17 18  1  0  0  0  0
 18 19  1  0  0  0  0
 20  6  1  0  0  0  0
 21 20  1  0  0  0  0
 22 23  1  0  0  0  0
 23 24  1  0  0  0  0
 25 28  2  0  0  0  0
 26 30  1  0  0  0  0
 27 24  1  6  0  0  0
 27 29  1  0  0  0  0
 27 25  1  0  0  0  0
 28 30  1  0  0  0  0
 29 26  2  0  0  0  0
M  END
>  <MODEL>
6

>  <REMARK>
 VINA RESULT:      -7.2      2.916      7.386
  Name = 
  10 active torsions:
  status: ('A' for Active; 'I' for Inactive)
    1  A    between atoms: C_1  and  C_25
    2  A    between atoms: N_4  and  C_5
    3  A    between atoms: N_4  and  S_22
    4  A    between atoms: O_6  and  C_19
    5  A    between atoms: C_7  and  C_17
    6  A    between atoms: N_8  and  N_10
    7  A    between atoms: N_8  and  C_15
    8  A    between atoms: N_10  and  C_13
    9  A    between atoms: C_15  and  C_27
   10  A    between atoms: C_17  and  S_22
                            x       y       z     vdW  Elec       q    Type
                         _______ _______ _______ _____ _____    ______ ____

>  <TORSDO>
F 10

$$$$
=
 OpenBabel10232409193D

 30 32  0  0  1  0  0  0  0  0999 V2000
  190.2970  177.5890  141.1920 C   0  0  0  0  0  0  0  0  0  0  0  0
  191.7210  177.1800  144.2300 C   0  0  0  0  0  3  0  0  0  0  0  0
  189.6760  178.1450  143.2630 C   0  0  2  0  0  3  0  0  0  0  0  0
  191.4250  177.6670  141.8300 N   0  0  0  0  0  0  0  0  0  0  0  0
  188.9830  177.9990  144.5470 C   0  0  0  0  0  3  0  0  0  0  0  0
  191.0420  176.9190  145.3670 C   0  0  0  0  0  0  0  0  0  0  0  0
  189.6580  177.4340  145.5540 C   0  0  0  0  0  3  0  0  0  0  0  0
  189.1690  177.8840  142.0700 C   0  0  2  0  0  3  0  0  0  0  0  0
  191.1640  178.1170  143.1910 C   0  0  2  0  0  3  0  0  0  0  0  0
  189.6850  178.0140  138.8730 C   0  0  0  0  0  3  0  0  0  0  0  0
  190.6490  175.9240  139.3880 O   0  0  0  0  0  1  0  0  0  0  0  0
  190.2020  177.1830  139.7780 C   0  0  0  0  0  0  0  0  0  0  0  0
  189.5560  177.6400  137.4350 C   0  0  0  0  0  2  0  0  0  0  0  0
  187.8190  177.6690  135.3890 O   0  0  0  0  0  0  0  0  0  0  0  0
  187.9350  178.0660  136.8350 S   0  0  0  0  0  0  0  0  0  0  0  0
  187.7210  179.5470  136.9700 O   0  0  0  0  0  0  0  0  0  0  0  0
  186.7530  177.2160  137.7710 N   0  0  0  0  0  2  0  0  0  0  0  0
  185.5370  178.0110  137.7750 C   0  0  0  0  0  2  0  0  0  0  0  0
  184.4600  177.2890  136.9930 C   0  0  0  0  0  1  0  0  0  0  0  0
  191.5980  176.1320  146.3800 O   0  0  0  0  0  0  0  0  0  0  0  0
  191.6850  176.5590  147.7340 C   0  0  0  0  0  1  0  0  0  0  0  0
  187.7280  177.6160  141.7800 C   0  0  0  0  0  2  0  0  0  0  0  0
  186.9790  178.8580  141.8420 N   0  0  0  0  0  2  0  0  0  0  0  0
  185.6790  178.5650  141.4100 N   0  0  0  0  0  2  0  0  0  0  0  0
  185.5520  178.8130  143.8240 C   0  0  0  0  0  3  0  0  0  0  0  0
  182.8020  179.0400  143.5100 N   0  0  0  0  0  0  0  0  0  0  0  0
  184.9020  178.2340  142.5910 C   0  0  1  0  0  3  0  0  0  0  0  0
  184.8000  179.0830  144.9000 C   0  0  0  0  0  3  0  0  0  0  0  0
  183.5030  178.7810  142.4560 C   0  0  0  0  0  3  0  0  0  0  0  0
  183.3200  178.7980  144.8470 C   0  0  0  0  0  2  0  0  0  0  0  0
  1  4  2  0  0  0  0
  1  8  1  0  0  0  0
  2  6  2  0  0  0  0
  3  5  1  1  0  0  0
  4  9  1  0  0  0  0
  5  7  2  0  0  0  0
  6  7  1  0  0  0  0
  6 20  1  0  0  0  0
  8 22  1  1  0  0  0
  8  3  1  0  0  0  0
  9  3  1  0  0  0  0
  9  2  1  1  0  0  0
 10 12  2  0  0  0  0
 11 12  1  0  0  0  0
 12  1  1  0  0  0  0
 13 10  1  0  0  0  0
 14 15  2  0  0  0  0
 15 16  2  0  0  0  0
 15 13  1  0  0  0  0
 15 17  1  0  0  0  0
 17 18  1  0  0  0  0
 19 18  1  0  0  0  0
 20 21  1  0  0  0  0
 22 23  1  0  0  0  0
 24 23  1  0  0  0  0
 25 28  2  0  0  0  0
 26 30  1  0  0  0  0
 27 24  1  6  0  0  0
 27 25  1  0  0  0  0
 29 27  1  0  0  0  0
 29 26  2  0  0  0  0
 30 28  1  0  0  0  0
M  END
>  <MODEL>
7

>  <REMARK>
 VINA RESULT:      -7.1      1.302      1.777
  Name = 
  10 active torsions:
  status: ('A' for Active; 'I' for Inactive)
    1  A    between atoms: C_1  and  C_25
    2  A    between atoms: N_4  and  C_5
    3  A    between atoms: N_4  and  S_22
    4  A    between atoms: O_6  and  C_19
    5  A    between atoms: C_7  and  C_17
    6  A    between atoms: N_8  and  N_10
    7  A    between atoms: N_8  and  C_15
    8  A    between atoms: N_10  and  C_13
    9  A    between atoms: C_15  and  C_27
   10  A    between atoms: C_17  and  S_22
                            x       y       z     vdW  Elec       q    Type
                         _______ _______ _______ _____ _____    ______ ____

>  <TORSDO>
F 10

$$$$
=
 OpenBabel10232409193D

 30 32  0  0  1  0  0  0  0  0999 V2000
  186.0100  178.0270  143.4000 C   0  0  0  0  0  0  0  0  0  0  0  0
  187.8810  177.4210  146.1490 C   0  0  0  0  0  3  0  0  0  0  0  0
  188.1240  177.3780  143.7020 C   0  0  2  0  0  3  0  0  0  0  0  0
  185.9850  177.4690  144.5710 N   0  0  0  0  0  0  0  0  0  0  0  0
  189.5760  177.5350  143.8290 C   0  0  0  0  0  3  0  0  0  0  0  0
  189.1960  177.7040  146.2600 C   0  0  0  0  0  0  0  0  0  0  0  0
  190.0800  177.6630  145.0620 C   0  0  0  0  0  3  0  0  0  0  0  0
  187.3490  177.9900  142.8220 C   0  0  2  0  0  3  0  0  0  0  0  0
  187.3030  176.9140  144.8550 C   0  0  2  0  0  3  0  0  0  0  0  0
  184.2880  178.1710  141.6830 C   0  0  0  0  0  3  0  0  0  0  0  0
  184.2840  179.8100  143.3800 O   0  0  0  0  0  1  0  0  0  0  0  0
  184.8300  178.6710  142.7940 C   0  0  0  0  0  0  0  0  0  0  0  0
  183.1040  178.7970  141.0270 C   0  0  0  0  0  2  0  0  0  0  0  0
  184.8260  179.9160  139.3010 O   0  0  0  0  0  0  0  0  0  0  0  0
  183.4920  179.2250  139.3440 S   0  0  0  0  0  0  0  0  0  0  0  0
  182.4320  180.1410  138.8000 O   0  0  0  0  0  0  0  0  0  0  0  0
  183.5520  177.7750  138.4010 N   0  0  0  0  0  2  0  0  0  0  0  0
  184.8820  177.6790  137.8220 C   0  0  0  0  0  2  0  0  0  0  0  0
  184.8500  176.7390  136.6360 C   0  0  0  0  0  1  0  0  0  0  0  0
  189.7580  178.0770  147.4840 O   0  0  0  0  0  0  0  0  0  0  0  0
  188.9780  178.3930  148.6310 C   0  0  0  0  0  1  0  0  0  0  0  0
  187.8270  178.7720  141.6420 C   0  0  0  0  0  2  0  0  0  0  0  0
  188.2000  177.8650  140.5730 N   0  0  0  0  0  2  0  0  0  0  0  0
  188.1530  178.6040  139.3840 N   0  0  0  0  0  2  0  0  0  0  0  0
  190.0950  177.1450  139.3070 C   0  0  0  0  0  3  0  0  0  0  0  0
  189.6780  176.9760  136.5670 N   0  0  0  0  0  0  0  0  0  0  0  0
  189.3280  178.2420  138.6110 C   0  0  1  0  0  3  0  0  0  0  0  0
  190.8710  176.3240  138.5860 C   0  0  0  0  0  3  0  0  0  0  0  0
  188.9150  177.7740  137.2380 C   0  0  0  0  0  3  0  0  0  0  0  0
  190.9550  176.5230  137.0940 C   0  0  0  0  0  2  0  0  0  0  0  0
  1  4  2  0  0  0  0
  2  6  2  0  0  0  0
  3  5  1  1  0  0  0
  3  9  1  0  0  0  0
  4  9  1  0  0  0  0
  5  7  2  0  0  0  0
  6 20  1  0  0  0  0
  7  6  1  0  0  0  0
  8 22  1  1  0  0  0
  8  1  1  0  0  0  0
  8  3  1  0  0  0  0
  9  2  1  1  0  0  0
 10 12  2  0  0  0  0
 12 11  1  0  0  0  0
 12  1  1  0  0  0  0
 13 10  1  0  0  0  0
 14 15  2  0  0  0  0
 15 13  1  0  0  0  0
 16 15  2  0  0  0  0
 17 15  1  0  0  0  0
 18 17  1  0  0  0  0
 19 18  1  0  0  0  0
 20 21  1  0  0  0  0
 23 22  1  0  0  0  0
 24 23  1  0  0  0  0
 26 30  1  0  0  0  0
 26 29  2  0  0  0  0
 27 25  1  0  0  0  0
 27 24  1  1  0  0  0
 28 25  2  0  0  0  0
 29 27  1  0  0  0  0
 30 28  1  0  0  0  0
M  END
>  <MODEL>
8

>  <REMARK>
 VINA RESULT:      -7.0      2.458      5.381
  Name = 
  10 active torsions:
  status: ('A' for Active; 'I' for Inactive)
    1  A    between atoms: C_1  and  C_25
    2  A    between atoms: N_4  and  C_5
    3  A    between atoms: N_4  and  S_22
    4  A    between atoms: O_6  and  C_19
    5  A    between atoms: C_7  and  C_17
    6  A    between atoms: N_8  and  N_10
    7  A    between atoms: N_8  and  C_15
    8  A    between atoms: N_10  and  C_13
    9  A    between atoms: C_15  and  C_27
   10  A    between atoms: C_17  and  S_22
                            x       y       z     vdW  Elec       q    Type
                         _______ _______ _______ _____ _____    ______ ____

>  <TORSDO>
F 10

$$$$
=
 OpenBabel10232409193D

 30 32  0  0  1  0  0  0  0  0999 V2000
  185.9990  178.5550  144.7460 C   0  0  0  0  0  0  0  0  0  0  0  0
  182.7340  179.1170  144.0750 C   0  0  0  0  0  3  0  0  0  0  0  0
  184.8920  179.1330  142.8960 C   0  0  2  0  0  3  0  0  0  0  0  0
  184.9270  179.1230  145.2060 N   0  0  0  0  0  0  0  0  0  0  0  0
  184.2090  178.9270  141.6150 C   0  0  0  0  0  3  0  0  0  0  0  0
  182.1210  178.7890  142.9190 C   0  0  0  0  0  0  0  0  0  0  0  0
  182.8780  178.7900  141.6370 C   0  0  0  0  0  3  0  0  0  0  0  0
  186.0090  178.5420  143.2870 C   0  0  2  0  0  3  0  0  0  0  0  0
  184.1480  179.6340  144.0850 C   0  0  2  0  0  3  0  0  0  0  0  0
  188.1870  177.5470  145.1090 C   0  0  0  0  0  3  0  0  0  0  0  0
  186.7670  177.7890  146.9770 O   0  0  0  0  0  1  0  0  0  0  0  0
  187.0220  177.9490  145.6180 C   0  0  0  0  0  0  0  0  0  0  0  0
  189.2440  176.9160  145.9500 C   0  0  0  0  0  2  0  0  0  0  0  0
  190.8850  178.4510  144.4820 O   0  0  0  0  0  0  0  0  0  0  0  0
  190.8390  177.1240  145.1870 S   0  0  0  0  0  0  0  0  0  0  0  0
  191.0710  176.0180  144.1950 O   0  0  0  0  0  0  0  0  0  0  0  0
  192.0550  177.0710  146.4160 N   0  0  0  0  0  2  0  0  0  0  0  0
  192.2870  175.6760  146.7500 C   0  0  0  0  0  2  0  0  0  0  0  0
  192.7230  175.5690  148.1970 C   0  0  0  0  0  1  0  0  0  0  0  0
  180.7760  178.4060  142.8930 O   0  0  0  0  0  0  0  0  0  0  0  0
  180.0030  178.2100  144.0700 C   0  0  0  0  0  1  0  0  0  0  0  0
  186.9130  177.7340  142.4140 C   0  0  0  0  0  2  0  0  0  0  0  0
  187.7940  178.6180  141.6730 N   0  0  0  0  0  2  0  0  0  0  0  0
  187.5320  178.3990  140.3140 N   0  0  0  0  0  2  0  0  0  0  0  0
  189.6290  177.1880  140.1090 C   0  0  0  0  0  3  0  0  0  0  0  0
  189.5210  177.7530  137.3920 N   0  0  0  0  0  0  0  0  0  0  0  0
  188.8150  178.3660  139.6340 C   0  0  1  0  0  3  0  0  0  0  0  0
  190.5660  176.6670  139.3040 C   0  0  0  0  0  3  0  0  0  0  0  0
  188.6040  178.2660  138.1440 C   0  0  0  0  0  3  0  0  0  0  0  0
  190.7810  177.2800  137.9430 C   0  0  0  0  0  2  0  0  0  0  0  0
  1  4  2  0  0  0  0
  1 12  1  0  0  0  0
  3  5  1  1  0  0  0
  3  8  1  0  0  0  0
  3  9  1  0  0  0  0
  5  7  2  0  0  0  0
  6  2  2  0  0  0  0
  7  6  1  0  0  0  0
  8 22  1  1  0  0  0
  8  1  1  0  0  0  0
  9  2  1  1  0  0  0
  9  4  1  0  0  0  0
 10 12  2  0  0  0  0
 10 13  1  0  0  0  0
 12 11  1  0  0  0  0
 14 15  2  0  0  0  0
 15 13  1  0  0  0  0
 15 17  1  0  0  0  0
 16 15  2  0  0  0  0
 17 18  1  0  0  0  0
 18 19  1  0  0  0  0
 20  6  1  0  0  0  0
 20 21  1  0  0  0  0
 23 22  1  0  0  0  0
 24 23  1  0  0  0  0
 26 30  1  0  0  0  0
 26 29  2  0  0  0  0
 27 25  1  0  0  0  0
 27 24  1  1  0  0  0
 28 25  2  0  0  0  0
 29 27  1  0  0  0  0
 30 28  1  0  0  0  0
M  END
>  <MODEL>
9

>  <REMARK>
 VINA RESULT:      -6.9      3.188      8.072
  Name = 
  10 active torsions:
  status: ('A' for Active; 'I' for Inactive)
    1  A    between atoms: C_1  and  C_25
    2  A    between atoms: N_4  and  C_5
    3  A    between atoms: N_4  and  S_22
    4  A    between atoms: O_6  and  C_19
    5  A    between atoms: C_7  and  C_17
    6  A    between atoms: N_8  and  N_10
    7  A    between atoms: N_8  and  C_15
    8  A    between atoms: N_10  and  C_13
    9  A    between atoms: C_15  and  C_27
   10  A    between atoms: C_17  and  S_22
                            x       y       z     vdW  Elec       q    Type
                         _______ _______ _______ _____ _____    ______ ____

>  <TORSDO>
F 10

$$$$
