=
 OpenBabel10232412153D

 48 56  0  0  1  0  0  0  0  0999 V2000
  192.1710  177.6680  141.5400 F   0  0  0  0  0  0  0  0  0  0  0  0
  190.7440  176.5930  137.7910 C   0  0  0  0  0  3  0  0  0  0  0  0
  189.8520  177.0010  138.7830 C   0  0  0  0  0  3  0  0  0  0  0  0
  192.5980  176.9120  139.3190 C   0  0  0  0  0  0  0  0  0  0  0  0
  193.9110  176.7810  139.6270 F   0  0  0  0  0  0  0  0  0  0  0  0
  191.7020  177.3280  140.3130 C   0  0  0  0  0  0  0  0  0  0  0  0
  192.1220  176.5640  138.0410 C   0  0  0  0  0  0  0  0  0  0  0  0
  190.3260  177.3830  140.0410 C   0  0  0  0  0  0  0  0  0  0  0  0
  197.1780  176.3460  135.9850 O   0  0  0  0  0  0  0  0  0  0  0  0
  196.3100  174.2040  135.4210 N   0  0  0  0  0  0  0  0  0  0  0  0
  192.9810  174.9110  136.2830 C   0  0  0  0  0  0  0  0  0  0  0  0
  194.2150  176.7410  136.7300 N   0  0  0  0  0  0  0  0  0  0  0  0
  194.1140  174.8340  135.5580 N   0  0  0  0  0  0  0  0  0  0  0  0
  194.8020  175.9320  135.8280 C   0  0  0  0  0  0  0  0  0  0  0  0
  195.0740  173.7910  135.3260 C   0  0  0  0  0  0  0  0  0  0  0  0
  196.2020  175.5910  135.7430 C   0  0  0  0  0  0  0  0  0  0  0  0
  193.0280  176.1290  136.9650 C   0  0  0  0  0  0  0  0  0  0  0  0
  194.7120  172.3680  135.0290 C   0  0  0  0  0  3  0  0  0  0  0  0
  195.9510  171.5040  135.1830 C   0  0  0  0  0  2  0  0  0  0  0  0
  194.8900  171.4920  136.2580 C   0  0  0  0  0  2  0  0  0  0  0  0
  192.0800  173.7570  136.6100 C   0  0  2  0  0  3  0  0  0  0  0  0
  191.7520  173.0460  135.4410 O   0  0  0  0  0  0  0  0  0  0  0  0
  190.7790  173.9240  135.9270 C   0  0  1  0  0  3  0  0  0  0  0  0
  189.7500  173.1690  136.6190 N   0  0  0  0  0  2  0  0  0  0  0  0
  187.9660  171.6300  137.8750 F   0  0  0  0  0  0  0  0  0  0  0  0
  185.3280  173.9770  137.0570 C   0  0  0  0  0  3  0  0  0  0  0  0
  185.9860  175.3120  137.0310 C   0  0  0  0  0  2  0  0  0  0  0  0
  188.3570  173.5040  136.5570 C   0  0  0  0  0  0  0  0  0  0  0  0
  186.0100  172.8350  137.1630 C   0  0  0  0  0  3  0  0  0  0  0  0
  187.9540  174.6360  135.6860 C   0  0  0  0  0  3  0  0  0  0  0  0
  186.8960  175.4260  135.8600 C   0  0  0  0  0  3  0  0  0  0  0  0
  187.4830  172.7030  137.2070 C   0  0  0  0  0  0  0  0  0  0  0  0
  189.3540  177.8180  141.0890 C   0  0  0  0  0  2  0  0  0  0  0  0
  184.9910  178.2070  145.3690 C   0  0  1  0  0  3  0  0  0  0  0  0
  186.7770  178.4810  141.1700 C   0  0  0  0  0  0  0  0  0  0  0  0
  185.8330  178.7980  140.1550 N   0  0  0  0  0  0  0  0  0  0  0  0
  187.4800  178.1720  143.5470 C   0  0  2  0  0  3  0  0  0  0  0  0
  184.5770  178.8700  146.5930 N   0  0  0  0  0  1  0  0  0  0  0  0
  188.0140  178.0960  140.4890 C   0  0  0  0  0  0  0  0  0  0  0  0
  187.8350  178.1770  139.2160 N   0  0  0  0  0  0  0  0  0  0  0  0
  185.8840  178.7900  137.7760 N   0  0  0  0  0  1  0  0  0  0  0  0
  188.1570  176.8230  143.7170 C   0  0  0  0  0  2  0  0  0  0  0  0
  186.7530  177.0170  144.2100 C   0  0  1  0  0  3  0  0  0  0  0  0
  186.4990  178.5300  142.4840 C   0  0  0  0  0  0  0  0  0  0  0  0
  184.6580  179.0870  144.1620 C   0  0  0  0  0  3  0  0  0  0  0  0
  185.2400  179.1770  142.9440 C   0  0  0  0  0  3  0  0  0  0  0  0
  186.4180  177.6690  145.5160 C   0  0  0  0  0  2  0  0  0  0  0  0
  186.4790  178.5930  139.0550 C   0  0  0  0  0  0  0  0  0  0  0  0
  2  7  2  0  0  0  0
  2  3  1  0  0  0  0
  3  8  2  0  0  0  0
  4  5  1  0  0  0  0
  4  6  2  0  0  0  0
  6  1  1  0  0  0  0
  7  4  1  0  0  0  0
  8  6  1  0  0  0  0
  8 33  1  0  0  0  0
 10 16  1  0  0  0  0
 11 17  2  0  0  0  0
 12 17  1  0  0  0  0
 13 14  1  0  0  0  0
 13 11  1  0  0  0  0
 14 12  2  0  0  0  0
 15 10  2  0  0  0  0
 15 13  1  0  0  0  0
 16 14  1  0  0  0  0
 16  9  2  0  0  0  0
 17  7  1  0  0  0  0
 18 19  1  0  0  0  0
 18 15  1  0  0  0  0
 18 20  1  0  0  0  0
 19 20  1  0  0  0  0
 21 11  1  6  0  0  0
 22 23  1  0  0  0  0
 22 21  1  0  0  0  0
 23 21  1  0  0  0  0
 23 24  1  1  0  0  0
 26 29  2  0  0  0  0
 27 26  1  0  0  0  0
 28 24  1  0  0  0  0
 28 32  2  0  0  0  0
 29 32  1  0  0  0  0
 30 31  2  0  0  0  0
 30 28  1  0  0  0  0
 31 27  1  0  0  0  0
 32 25  1  0  0  0  0
 34 47  1  0  0  0  0
 34 38  1  1  0  0  0
 35 44  2  0  0  0  0
 36 35  1  0  0  0  0
 37 42  1  6  0  0  0
 37 43  1  0  0  0  0
 39 33  1  0  0  0  0
 39 35  1  0  0  0  0
 40 39  2  0  0  0  0
 41 48  1  0  0  0  0
 43 42  1  1  0  0  0
 43 47  1  0  0  0  0
 44 46  1  0  0  0  0
 44 37  1  0  0  0  0
 45 34  1  0  0  0  0
 46 45  2  0  0  0  0
 48 40  1  0  0  0  0
 48 36  2  0  0  0  0
M  END
>  <MODEL>
1

>  <REMARK>
 VINA RESULT:     -10.0      0.000      0.000
  Name = 
  7 active torsions:
  status: ('A' for Active; 'I' for Inactive)
    1  A    between atoms: C_8  and  C_36
    2  A    between atoms: C_11  and  C_17
    3  A    between atoms: C_15  and  C_16
    4  A    between atoms: C_15  and  C_30
    5  A    between atoms: C_22  and  N_32
    6  A    between atoms: C_26  and  C_48
    7  A    between atoms: N_32  and  C_47
                            x       y       z     vdW  Elec       q    Type
                         _______ _______ _______ _____ _____    ______ ____

>  <TORSDO>
F 7

$$$$
=
 OpenBabel10232412153D

 48 56  0  0  1  0  0  0  0  0999 V2000
  192.0330  177.6060  139.6270 F   0  0  0  0  0  0  0  0  0  0  0  0
  188.5000  177.3460  141.7930 C   0  0  0  0  0  3  0  0  0  0  0  0
  188.4610  177.6630  140.4350 C   0  0  0  0  0  3  0  0  0  0  0  0
  190.9170  177.1990  141.6940 C   0  0  0  0  0  0  0  0  0  0  0  0
  192.1190  177.0750  142.3070 F   0  0  0  0  0  0  0  0  0  0  0  0
  190.8760  177.5110  140.3280 C   0  0  0  0  0  0  0  0  0  0  0  0
  189.7220  177.0910  142.4290 C   0  0  0  0  0  0  0  0  0  0  0  0
  189.6440  177.7330  139.6940 C   0  0  0  0  0  0  0  0  0  0  0  0
  192.5280  176.0210  146.9910 O   0  0  0  0  0  0  0  0  0  0  0  0
  190.7060  177.3120  147.8100 N   0  0  0  0  0  0  0  0  0  0  0  0
  188.8490  177.2700  144.8310 C   0  0  0  0  0  0  0  0  0  0  0  0
  190.7690  176.1500  144.4660 N   0  0  0  0  0  0  0  0  0  0  0  0
  189.3380  176.8850  146.0260 N   0  0  0  0  0  0  0  0  0  0  0  0
  190.4500  176.2130  145.7720 C   0  0  0  0  0  0  0  0  0  0  0  0
  189.5370  177.5570  147.2790 C   0  0  0  0  0  0  0  0  0  0  0  0
  191.3480  176.4410  146.8790 C   0  0  0  0  0  0  0  0  0  0  0  0
  189.7170  176.7590  143.8630 C   0  0  0  0  0  0  0  0  0  0  0  0
  188.5300  178.4670  147.9130 C   0  0  0  0  0  3  0  0  0  0  0  0
  187.2770  177.6680  148.2280 C   0  0  0  0  0  2  0  0  0  0  0  0
  188.2310  178.0380  149.3410 C   0  0  0  0  0  2  0  0  0  0  0  0
  187.8410  178.3590  144.6170 C   0  0  2  0  0  3  0  0  0  0  0  0
  186.7390  178.1820  145.4730 O   0  0  0  0  0  0  0  0  0  0  0  0
  186.5640  177.7790  144.1450 C   0  0  1  0  0  3  0  0  0  0  0  0
  185.7910  178.7820  143.4350 N   0  0  0  0  0  2  0  0  0  0  0  0
  183.9370  179.4770  145.2270 F   0  0  0  0  0  0  0  0  0  0  0  0
  181.3190  178.8340  142.8040 C   0  0  0  0  0  3  0  0  0  0  0  0
  181.9220  179.1570  141.4820 C   0  0  0  0  0  2  0  0  0  0  0  0
  184.4020  178.6200  143.1170 C   0  0  0  0  0  0  0  0  0  0  0  0
  182.0300  178.7890  143.9320 C   0  0  0  0  0  3  0  0  0  0  0  0
  184.0570  177.9520  141.8370 C   0  0  0  0  0  3  0  0  0  0  0  0
  182.9560  178.1520  141.1160 C   0  0  0  0  0  3  0  0  0  0  0  0
  183.4920  178.9850  144.0470 C   0  0  0  0  0  0  0  0  0  0  0  0
  189.5790  178.0730  138.2410 C   0  0  0  0  0  2  0  0  0  0  0  0
  191.1820  172.9250  135.3380 C   0  0  1  0  0  3  0  0  0  0  0  0
  188.3220  176.0750  137.0090 C   0  0  0  0  0  0  0  0  0  0  0  0
  186.9560  175.8540  136.6820 N   0  0  0  0  0  0  0  0  0  0  0  0
  190.7320  175.4220  137.0920 C   0  0  2  0  0  3  0  0  0  0  0  0
  191.8280  171.6310  135.4730 N   0  0  0  0  0  1  0  0  0  0  0  0
  188.4040  177.4150  137.5930 C   0  0  0  0  0  0  0  0  0  0  0  0
  187.2260  177.9340  137.6180 N   0  0  0  0  0  0  0  0  0  0  0  0
  184.9720  177.1530  136.8670 N   0  0  0  0  0  1  0  0  0  0  0  0
  191.5930  176.5400  136.5310 C   0  0  0  0  0  2  0  0  0  0  0  0
  191.3400  175.3120  135.7060 C   0  0  1  0  0  3  0  0  0  0  0  0
  189.2970  175.1790  136.7730 C   0  0  0  0  0  0  0  0  0  0  0  0
  189.7420  172.8430  135.8480 C   0  0  0  0  0  3  0  0  0  0  0  0
  188.9370  173.7890  136.3840 C   0  0  0  0  0  3  0  0  0  0  0  0
  192.0930  174.0300  135.8810 C   0  0  0  0  0  2  0  0  0  0  0  0
  186.3720  176.9510  137.0330 C   0  0  0  0  0  0  0  0  0  0  0  0
  1  6  1  0  0  0  0
  2  7  1  0  0  0  0
  3  2  2  0  0  0  0
  4  5  1  0  0  0  0
  4  7  2  0  0  0  0
  6  4  1  0  0  0  0
  7 17  1  0  0  0  0
  8  6  2  0  0  0  0
  8  3  1  0  0  0  0
 11 13  1  0  0  0  0
 12 14  2  0  0  0  0
 13 15  1  0  0  0  0
 14 13  1  0  0  0  0
 14 16  1  0  0  0  0
 15 10  2  0  0  0  0
 15 18  1  0  0  0  0
 16  9  2  0  0  0  0
 16 10  1  0  0  0  0
 17 12  1  0  0  0  0
 17 11  2  0  0  0  0
 18 19  1  0  0  0  0
 18 20  1  0  0  0  0
 19 20  1  0  0  0  0
 21 11  1  1  0  0  0
 21 22  1  0  0  0  0
 23 24  1  6  0  0  0
 23 21  1  0  0  0  0
 23 22  1  0  0  0  0
 26 29  2  0  0  0  0
 27 26  1  0  0  0  0
 28 24  1  0  0  0  0
 28 32  2  0  0  0  0
 29 32  1  0  0  0  0
 30 28  1  0  0  0  0
 31 27  1  0  0  0  0
 31 30  2  0  0  0  0
 32 25  1  0  0  0  0
 33  8  1  0  0  0  0
 34 38  1  1  0  0  0
 34 45  1  0  0  0  0
 34 47  1  0  0  0  0
 35 39  1  0  0  0  0
 36 35  1  0  0  0  0
 36 48  2  0  0  0  0
 37 42  1  6  0  0  0
 39 40  2  0  0  0  0
 39 33  1  0  0  0  0
 41 48  1  0  0  0  0
 43 47  1  1  0  0  0
 43 42  1  0  0  0  0
 43 37  1  0  0  0  0
 44 35  2  0  0  0  0
 44 37  1  0  0  0  0
 45 46  2  0  0  0  0
 46 44  1  0  0  0  0
 48 40  1  0  0  0  0
M  END
>  <MODEL>
2

>  <REMARK>
 VINA RESULT:      -9.7      3.818      9.378
  Name = 
  7 active torsions:
  status: ('A' for Active; 'I' for Inactive)
    1  A    between atoms: C_8  and  C_36
    2  A    between atoms: C_11  and  C_17
    3  A    between atoms: C_15  and  C_16
    4  A    between atoms: C_15  and  C_30
    5  A    between atoms: C_22  and  N_32
    6  A    between atoms: C_26  and  C_48
    7  A    between atoms: N_32  and  C_47
                            x       y       z     vdW  Elec       q    Type
                         _______ _______ _______ _____ _____    ______ ____

>  <TORSDO>
F 7

$$$$
=
 OpenBabel10232412153D

 48 56  0  0  1  0  0  0  0  0999 V2000
  188.1750  177.8370  137.7120 F   0  0  0  0  0  0  0  0  0  0  0  0
  191.7540  176.1670  138.9910 C   0  0  0  0  0  3  0  0  0  0  0  0
  190.7890  176.5410  139.9270 C   0  0  0  0  0  3  0  0  0  0  0  0
  190.3100  176.9130  137.1940 C   0  0  0  0  0  0  0  0  0  0  0  0
  190.1010  177.1910  135.8840 F   0  0  0  0  0  0  0  0  0  0  0  0
  189.3380  177.2820  138.1340 C   0  0  0  0  0  0  0  0  0  0  0  0
  191.5180  176.3290  137.6210 C   0  0  0  0  0  0  0  0  0  0  0  0
  189.5740  177.0850  139.5030 C   0  0  0  0  0  0  0  0  0  0  0  0
  196.8010  176.2080  136.2390 O   0  0  0  0  0  0  0  0  0  0  0  0
  196.0490  174.0600  135.5480 N   0  0  0  0  0  0  0  0  0  0  0  0
  192.6250  174.7080  135.9750 C   0  0  0  0  0  0  0  0  0  0  0  0
  193.7610  176.5510  136.5950 N   0  0  0  0  0  0  0  0  0  0  0  0
  193.8440  174.6550  135.4030 N   0  0  0  0  0  0  0  0  0  0  0  0
  194.4730  175.7610  135.7700 C   0  0  0  0  0  0  0  0  0  0  0  0
  194.8430  173.6290  135.2900 C   0  0  0  0  0  0  0  0  0  0  0  0
  195.8780  175.4410  135.8650 C   0  0  0  0  0  0  0  0  0  0  0  0
  192.5630  175.9190  136.6680 C   0  0  0  0  0  0  0  0  0  0  0  0
  194.5460  172.2040  134.9360 C   0  0  0  0  0  3  0  0  0  0  0  0
  195.7660  171.3560  135.2480 C   0  0  0  0  0  2  0  0  0  0  0  0
  194.5700  171.3190  136.1710 C   0  0  0  0  0  2  0  0  0  0  0  0
  191.7080  173.5370  136.1720 C   0  0  2  0  0  3  0  0  0  0  0  0
  191.4840  172.8790  134.9480 O   0  0  0  0  0  0  0  0  0  0  0  0
  190.4670  173.7310  135.3910 C   0  0  1  0  0  3  0  0  0  0  0  0
  189.3900  172.9420  135.9590 N   0  0  0  0  0  2  0  0  0  0  0  0
  187.7830  171.7600  137.7340 F   0  0  0  0  0  0  0  0  0  0  0  0
  185.3130  174.3730  137.2740 C   0  0  0  0  0  3  0  0  0  0  0  0
  186.0960  175.6000  136.9620 C   0  0  0  0  0  2  0  0  0  0  0  0
  188.0690  173.4560  136.1710 C   0  0  0  0  0  0  0  0  0  0  0  0
  185.8660  173.1610  137.3470 C   0  0  0  0  0  3  0  0  0  0  0  0
  187.6060  174.5620  135.2950 C   0  0  0  0  0  3  0  0  0  0  0  0
  186.7160  175.5000  135.6130 C   0  0  0  0  0  3  0  0  0  0  0  0
  187.2840  172.8340  137.0790 C   0  0  0  0  0  0  0  0  0  0  0  0
  188.5530  177.4780  140.5210 C   0  0  0  0  0  2  0  0  0  0  0  0
  184.4440  179.1460  144.7440 C   0  0  1  0  0  3  0  0  0  0  0  0
  188.5500  177.9320  143.1440 C   0  0  0  0  0  0  0  0  0  0  0  0
  189.5890  177.9720  144.1150 N   0  0  0  0  0  0  0  0  0  0  0  0
  186.1610  178.0580  142.4240 C   0  0  2  0  0  3  0  0  0  0  0  0
  183.2100  178.7790  145.4170 N   0  0  0  0  0  1  0  0  0  0  0  0
  189.1960  177.7390  141.8450 C   0  0  0  0  0  0  0  0  0  0  0  0
  190.4700  177.6670  142.0160 N   0  0  0  0  0  0  0  0  0  0  0  0
  191.9610  177.8250  144.0170 N   0  0  0  0  0  1  0  0  0  0  0  0
  186.0210  179.0200  141.2570 C   0  0  0  0  0  2  0  0  0  0  0  0
  185.5790  179.4450  142.6260 C   0  0  1  0  0  3  0  0  0  0  0  0
  187.2470  178.0740  143.4440 C   0  0  0  0  0  0  0  0  0  0  0  0
  185.6240  178.4130  145.3840 C   0  0  0  0  0  3  0  0  0  0  0  0
  186.8120  178.0240  144.8660 C   0  0  0  0  0  3  0  0  0  0  0  0
  184.2610  179.0610  143.2250 C   0  0  0  0  0  2  0  0  0  0  0  0
  190.6680  177.8330  143.4200 C   0  0  0  0  0  0  0  0  0  0  0  0
  1  6  1  0  0  0  0
  2  3  1  0  0  0  0
  4  7  1  0  0  0  0
  4  6  2  0  0  0  0
  5  4  1  0  0  0  0
  6  8  1  0  0  0  0
  7  2  2  0  0  0  0
  8  3  2  0  0  0  0
  8 33  1  0  0  0  0
 10 16  1  0  0  0  0
 11 17  2  0  0  0  0
 12 17  1  0  0  0  0
 13 14  1  0  0  0  0
 13 11  1  0  0  0  0
 14 16  1  0  0  0  0
 14 12  2  0  0  0  0
 15 13  1  0  0  0  0
 15 10  2  0  0  0  0
 16  9  2  0  0  0  0
 17  7  1  0  0  0  0
 18 19  1  0  0  0  0
 18 15  1  0  0  0  0
 18 20  1  0  0  0  0
 19 20  1  0  0  0  0
 21 11  1  6  0  0  0
 22 23  1  0  0  0  0
 22 21  1  0  0  0  0
 23 24  1  1  0  0  0
 23 21  1  0  0  0  0
 24 28  1  0  0  0  0
 26 29  2  0  0  0  0
 27 26  1  0  0  0  0
 28 32  2  0  0  0  0
 30 31  2  0  0  0  0
 30 28  1  0  0  0  0
 31 27  1  0  0  0  0
 32 29  1  0  0  0  0
 32 25  1  0  0  0  0
 33 39  1  0  0  0  0
 34 45  1  0  0  0  0
 34 38  1  1  0  0  0
 35 44  2  0  0  0  0
 35 36  1  0  0  0  0
 37 42  1  6  0  0  0
 37 43  1  0  0  0  0
 37 44  1  0  0  0  0
 39 40  2  0  0  0  0
 39 35  1  0  0  0  0
 40 48  1  0  0  0  0
 43 42  1  6  0  0  0
 43 47  1  0  0  0  0
 44 46  1  0  0  0  0
 46 45  2  0  0  0  0
 47 34  1  0  0  0  0
 48 41  1  0  0  0  0
 48 36  2  0  0  0  0
M  END
>  <MODEL>
3

>  <REMARK>
 VINA RESULT:      -9.6      1.874      2.579
  Name = 
  7 active torsions:
  status: ('A' for Active; 'I' for Inactive)
    1  A    between atoms: C_8  and  C_36
    2  A    between atoms: C_11  and  C_17
    3  A    between atoms: C_15  and  C_16
    4  A    between atoms: C_15  and  C_30
    5  A    between atoms: C_22  and  N_32
    6  A    between atoms: C_26  and  C_48
    7  A    between atoms: N_32  and  C_47
                            x       y       z     vdW  Elec       q    Type
                         _______ _______ _______ _____ _____    ______ ____

>  <TORSDO>
F 7

$$$$
=
 OpenBabel10232412153D

 48 56  0  0  1  0  0  0  0  0999 V2000
  185.6650  178.6020  137.4530 F   0  0  0  0  0  0  0  0  0  0  0  0
  183.6830  177.5390  140.9430 C   0  0  0  0  0  3  0  0  0  0  0  0
  183.1270  177.2200  139.7040 C   0  0  0  0  0  3  0  0  0  0  0  0
  185.5760  178.5700  139.8350 C   0  0  0  0  0  0  0  0  0  0  0  0
  186.7100  179.3100  139.8780 F   0  0  0  0  0  0  0  0  0  0  0  0
  185.0190  178.2440  138.5910 C   0  0  0  0  0  0  0  0  0  0  0  0
  184.9170  178.1960  141.0220 C   0  0  0  0  0  0  0  0  0  0  0  0
  183.7970  177.5560  138.5250 C   0  0  0  0  0  0  0  0  0  0  0  0
  184.1080  178.8770  146.3810 O   0  0  0  0  0  0  0  0  0  0  0  0
  186.2300  177.8030  146.3220 N   0  0  0  0  0  0  0  0  0  0  0  0
  186.7020  178.0970  142.8560 C   0  0  0  0  0  0  0  0  0  0  0  0
  184.6940  178.9850  143.3590 N   0  0  0  0  0  0  0  0  0  0  0  0
  186.7030  178.4090  144.1670 N   0  0  0  0  0  0  0  0  0  0  0  0
  185.5200  178.9460  144.4210 C   0  0  0  0  0  0  0  0  0  0  0  0
  187.1010  177.7040  145.3530 C   0  0  0  0  0  0  0  0  0  0  0  0
  185.1780  178.6020  145.7800 C   0  0  0  0  0  0  0  0  0  0  0  0
  185.4680  178.5120  142.3500 C   0  0  0  0  0  0  0  0  0  0  0  0
  188.3680  176.9140  145.4760 C   0  0  0  0  0  3  0  0  0  0  0  0
  189.5350  177.8760  145.6080 C   0  0  0  0  0  2  0  0  0  0  0  0
  189.0250  177.1440  146.8270 C   0  0  0  0  0  2  0  0  0  0  0  0
  187.6450  177.1380  142.1920 C   0  0  2  0  0  3  0  0  0  0  0  0
  188.9770  177.4650  142.5050 O   0  0  0  0  0  0  0  0  0  0  0  0
  188.5190  177.8630  141.2450 C   0  0  1  0  0  3  0  0  0  0  0  0
  189.0280  176.9520  140.2360 N   0  0  0  0  0  2  0  0  0  0  0  0
  189.8770  175.1370  138.4720 F   0  0  0  0  0  0  0  0  0  0  0  0
  189.5890  177.5650  135.7970 C   0  0  0  0  0  3  0  0  0  0  0  0
  188.4580  178.4500  136.1910 C   0  0  0  0  0  2  0  0  0  0  0  0
  189.2750  177.3450  138.8790 C   0  0  0  0  0  0  0  0  0  0  0  0
  190.1070  176.6450  136.6110 C   0  0  0  0  0  3  0  0  0  0  0  0
  189.1620  178.7860  138.5420 C   0  0  0  0  0  3  0  0  0  0  0  0
  188.8330  179.2940  137.3570 C   0  0  0  0  0  3  0  0  0  0  0  0
  189.7020  176.3980  138.0130 C   0  0  0  0  0  0  0  0  0  0  0  0
  183.1850  177.2050  137.2080 C   0  0  0  0  0  2  0  0  0  0  0  0
  187.2980  172.9560  135.6190 C   0  0  1  0  0  3  0  0  0  0  0  0
  183.2990  174.5450  137.1580 C   0  0  0  0  0  0  0  0  0  0  0  0
  182.3300  173.5360  137.4140 N   0  0  0  0  0  0  0  0  0  0  0  0
  185.5960  175.3400  136.5820 C   0  0  2  0  0  3  0  0  0  0  0  0
  188.6120  172.4030  135.9010 N   0  0  0  0  0  1  0  0  0  0  0  0
  182.6010  175.8300  137.2440 C   0  0  0  0  0  0  0  0  0  0  0  0
  181.3620  175.6160  137.5240 N   0  0  0  0  0  0  0  0  0  0  0  0
  179.9980  173.5520  137.8840 N   0  0  0  0  0  1  0  0  0  0  0  0
  185.5270  176.3460  135.4460 C   0  0  0  0  0  2  0  0  0  0  0  0
  185.9970  174.9480  135.1720 C   0  0  1  0  0  3  0  0  0  0  0  0
  184.5870  174.2840  136.8760 C   0  0  0  0  0  0  0  0  0  0  0  0
  186.2730  172.3880  136.6020 C   0  0  0  0  0  3  0  0  0  0  0  0
  185.1170  172.9080  137.0760 C   0  0  0  0  0  3  0  0  0  0  0  0
  187.3910  174.4750  135.4480 C   0  0  0  0  0  2  0  0  0  0  0  0
  181.2360  174.1960  137.6010 C   0  0  0  0  0  0  0  0  0  0  0  0
  1  6  1  0  0  0  0
  2  7  1  0  0  0  0
  3  2  2  0  0  0  0
  4  5  1  0  0  0  0
  4  7  2  0  0  0  0
  6  4  1  0  0  0  0
  7 17  1  0  0  0  0
  8  6  2  0  0  0  0
  8  3  1  0  0  0  0
 11 13  1  0  0  0  0
 12 14  2  0  0  0  0
 13 14  1  0  0  0  0
 13 15  1  0  0  0  0
 14 16  1  0  0  0  0
 15 18  1  0  0  0  0
 15 10  2  0  0  0  0
 16 10  1  0  0  0  0
 16  9  2  0  0  0  0
 17 11  2  0  0  0  0
 17 12  1  0  0  0  0
 18 19  1  0  0  0  0
 18 20  1  0  0  0  0
 19 20  1  0  0  0  0
 21 22  1  0  0  0  0
 21 11  1  1  0  0  0
 23 24  1  6  0  0  0
 23 21  1  0  0  0  0
 23 22  1  0  0  0  0
 26 27  1  0  0  0  0
 26 29  2  0  0  0  0
 27 31  1  0  0  0  0
 28 24  1  0  0  0  0
 29 32  1  0  0  0  0
 30 28  1  0  0  0  0
 31 30  2  0  0  0  0
 32 25  1  0  0  0  0
 32 28  2  0  0  0  0
 33 39  1  0  0  0  0
 33  8  1  0  0  0  0
 34 38  1  1  0  0  0
 34 45  1  0  0  0  0
 35 39  1  0  0  0  0
 35 36  1  0  0  0  0
 36 48  2  0  0  0  0
 37 42  1  6  0  0  0
 37 44  1  0  0  0  0
 39 40  2  0  0  0  0
 40 48  1  0  0  0  0
 43 42  1  6  0  0  0
 43 47  1  0  0  0  0
 43 37  1  0  0  0  0
 44 46  1  0  0  0  0
 44 35  2  0  0  0  0
 45 46  2  0  0  0  0
 47 34  1  0  0  0  0
 48 41  1  0  0  0  0
M  END
>  <MODEL>
4

>  <REMARK>
 VINA RESULT:      -9.4      3.999      9.306
  Name = 
  7 active torsions:
  status: ('A' for Active; 'I' for Inactive)
    1  A    between atoms: C_8  and  C_36
    2  A    between atoms: C_11  and  C_17
    3  A    between atoms: C_15  and  C_16
    4  A    between atoms: C_15  and  C_30
    5  A    between atoms: C_22  and  N_32
    6  A    between atoms: C_26  and  C_48
    7  A    between atoms: N_32  and  C_47
                            x       y       z     vdW  Elec       q    Type
                         _______ _______ _______ _____ _____    ______ ____

>  <TORSDO>
F 7

$$$$
=
 OpenBabel10232412153D

 48 56  0  0  1  0  0  0  0  0999 V2000
  190.4730  177.0080  141.4500 F   0  0  0  0  0  0  0  0  0  0  0  0
  188.2120  177.6310  138.0240 C   0  0  0  0  0  3  0  0  0  0  0  0
  187.8630  178.2730  139.2130 C   0  0  0  0  0  3  0  0  0  0  0  0
  190.0850  176.5720  139.1390 C   0  0  0  0  0  0  0  0  0  0  0  0
  191.1030  175.6770  139.1470 F   0  0  0  0  0  0  0  0  0  0  0  0
  189.7380  177.2230  140.3300 C   0  0  0  0  0  0  0  0  0  0  0  0
  189.3330  176.7950  137.9700 C   0  0  0  0  0  0  0  0  0  0  0  0
  188.6310  178.0850  140.3650 C   0  0  0  0  0  0  0  0  0  0  0  0
  193.1030  174.6050  134.6790 O   0  0  0  0  0  0  0  0  0  0  0  0
  191.2420  173.1620  134.3460 N   0  0  0  0  0  0  0  0  0  0  0  0
  188.9090  175.1630  136.0410 C   0  0  0  0  0  0  0  0  0  0  0  0
  190.9130  176.1820  136.1640 N   0  0  0  0  0  0  0  0  0  0  0  0
  189.6810  174.6800  135.0480 N   0  0  0  0  0  0  0  0  0  0  0  0
  190.8390  175.3150  135.1370 C   0  0  0  0  0  0  0  0  0  0  0  0
  189.9700  173.3560  134.5710 C   0  0  0  0  0  0  0  0  0  0  0  0
  191.8630  174.4000  134.6920 C   0  0  0  0  0  0  0  0  0  0  0  0
  189.6660  176.1380  136.6940 C   0  0  0  0  0  0  0  0  0  0  0  0
  188.9360  172.2920  134.3700 C   0  0  0  0  0  3  0  0  0  0  0  0
  189.6180  170.9350  134.3860 C   0  0  0  0  0  2  0  0  0  0  0  0
  188.8320  171.3940  135.5920 C   0  0  0  0  0  2  0  0  0  0  0  0
  187.6770  174.5000  136.5830 C   0  0  2  0  0  3  0  0  0  0  0  0
  186.7830  174.2000  135.5390 O   0  0  0  0  0  0  0  0  0  0  0  0
  186.4890  175.3350  136.3020 C   0  0  1  0  0  3  0  0  0  0  0  0
  185.4260  175.0240  137.2400 N   0  0  0  0  0  2  0  0  0  0  0  0
  185.4350  172.4960  138.1000 F   0  0  0  0  0  0  0  0  0  0  0  0
  182.0680  172.0310  136.8410 C   0  0  0  0  0  3  0  0  0  0  0  0
  181.4150  173.3620  136.9690 C   0  0  0  0  0  2  0  0  0  0  0  0
  184.3250  174.1630  136.9200 C   0  0  0  0  0  0  0  0  0  0  0  0
  183.3710  171.8400  137.0510 C   0  0  0  0  0  3  0  0  0  0  0  0
  183.2750  174.6880  136.0120 C   0  0  0  0  0  3  0  0  0  0  0  0
  181.9940  174.3280  135.9970 C   0  0  0  0  0  3  0  0  0  0  0  0
  184.3620  172.8900  137.3740 C   0  0  0  0  0  0  0  0  0  0  0  0
  188.2410  178.7820  141.6280 C   0  0  0  0  0  2  0  0  0  0  0  0
  187.8340  177.2910  147.5530 C   0  0  1  0  0  3  0  0  0  0  0  0
  186.2900  178.2510  143.3590 C   0  0  0  0  0  0  0  0  0  0  0  0
  184.8830  178.1060  143.2090 N   0  0  0  0  0  0  0  0  0  0  0  0
  188.3960  178.3200  144.7000 C   0  0  2  0  0  3  0  0  0  0  0  0
  188.1010  177.7250  148.9130 N   0  0  0  0  0  1  0  0  0  0  0  0
  186.8400  178.4350  142.0150 C   0  0  0  0  0  0  0  0  0  0  0  0
  185.8770  178.4090  141.1600 N   0  0  0  0  0  0  0  0  0  0  0  0
  183.4050  178.0830  141.3450 N   0  0  0  0  0  1  0  0  0  0  0  0
  189.4380  177.4060  144.0780 C   0  0  0  0  0  2  0  0  0  0  0  0
  188.7200  176.9740  145.3220 C   0  0  1  0  0  3  0  0  0  0  0  0
  186.9200  178.1950  144.5460 C   0  0  0  0  0  0  0  0  0  0  0  0
  186.5310  177.9160  147.0530 C   0  0  0  0  0  3  0  0  0  0  0  0
  186.1230  178.2330  145.8020 C   0  0  0  0  0  3  0  0  0  0  0  0
  189.0960  177.4350  146.6960 C   0  0  0  0  0  2  0  0  0  0  0  0
  184.6980  178.1870  141.9340 C   0  0  0  0  0  0  0  0  0  0  0  0
  2  3  1  0  0  0  0
  3  8  2  0  0  0  0
  4  5  1  0  0  0  0
  4  6  2  0  0  0  0
  6  8  1  0  0  0  0
  6  1  1  0  0  0  0
  7  2  2  0  0  0  0
  7  4  1  0  0  0  0
  8 33  1  0  0  0  0
  9 16  2  0  0  0  0
 10 15  2  0  0  0  0
 10 16  1  0  0  0  0
 11 17  2  0  0  0  0
 12 17  1  0  0  0  0
 13 14  1  0  0  0  0
 13 11  1  0  0  0  0
 14 12  2  0  0  0  0
 15 13  1  0  0  0  0
 16 14  1  0  0  0  0
 17  7  1  0  0  0  0
 18 19  1  0  0  0  0
 18 15  1  0  0  0  0
 18 20  1  0  0  0  0
 19 20  1  0  0  0  0
 21 11  1  6  0  0  0
 22 23  1  0  0  0  0
 22 21  1  0  0  0  0
 23 21  1  0  0  0  0
 23 24  1  1  0  0  0
 26 27  1  0  0  0  0
 26 29  2  0  0  0  0
 28 24  1  0  0  0  0
 28 32  2  0  0  0  0
 29 32  1  0  0  0  0
 30 28  1  0  0  0  0
 31 30  2  0  0  0  0
 31 27  1  0  0  0  0
 32 25  1  0  0  0  0
 33 39  1  0  0  0  0
 34 38  1  1  0  0  0
 35 44  2  0  0  0  0
 36 35  1  0  0  0  0
 37 42  1  6  0  0  0
 37 43  1  0  0  0  0
 39 35  1  0  0  0  0
 40 48  1  0  0  0  0
 40 39  2  0  0  0  0
 41 48  1  0  0  0  0
 43 42  1  6  0  0  0
 43 47  1  0  0  0  0
 44 37  1  0  0  0  0
 44 46  1  0  0  0  0
 45 34  1  0  0  0  0
 46 45  2  0  0  0  0
 47 34  1  0  0  0  0
 48 36  2  0  0  0  0
M  END
>  <MODEL>
5

>  <REMARK>
 VINA RESULT:      -9.3      2.518      3.790
  Name = 
  7 active torsions:
  status: ('A' for Active; 'I' for Inactive)
    1  A    between atoms: C_8  and  C_36
    2  A    between atoms: C_11  and  C_17
    3  A    between atoms: C_15  and  C_16
    4  A    between atoms: C_15  and  C_30
    5  A    between atoms: C_22  and  N_32
    6  A    between atoms: C_26  and  C_48
    7  A    between atoms: N_32  and  C_47
                            x       y       z     vdW  Elec       q    Type
                         _______ _______ _______ _____ _____    ______ ____

>  <TORSDO>
F 7

$$$$
=
 OpenBabel10232412153D

 48 56  0  0  1  0  0  0  0  0999 V2000
  183.7530  178.0370  144.0790 F   0  0  0  0  0  0  0  0  0  0  0  0
  184.2250  179.1640  140.1110 C   0  0  0  0  0  3  0  0  0  0  0  0
  185.3380  178.7840  140.8620 C   0  0  0  0  0  3  0  0  0  0  0  0
  182.7930  178.7820  142.0280 C   0  0  0  0  0  0  0  0  0  0  0  0
  181.5850  178.8690  142.6370 F   0  0  0  0  0  0  0  0  0  0  0  0
  183.9100  178.3940  142.7800 C   0  0  0  0  0  0  0  0  0  0  0  0
  182.9450  179.1470  140.6770 C   0  0  0  0  0  0  0  0  0  0  0  0
  185.1850  178.3840  142.1920 C   0  0  0  0  0  0  0  0  0  0  0  0
  180.1820  183.1180  138.1400 O   0  0  0  0  0  0  0  0  0  0  0  0
  179.9950  181.3110  136.6040 N   0  0  0  0  0  0  0  0  0  0  0  0
  181.2700  178.8530  138.7620 C   0  0  0  0  0  0  0  0  0  0  0  0
  181.3200  180.8230  139.8520 N   0  0  0  0  0  0  0  0  0  0  0  0
  180.3940  179.6810  138.1600 N   0  0  0  0  0  0  0  0  0  0  0  0
  180.4330  180.8180  138.8380 C   0  0  0  0  0  0  0  0  0  0  0  0
  180.1350  180.0260  136.7900 C   0  0  0  0  0  0  0  0  0  0  0  0
  180.1750  181.8840  137.8990 C   0  0  0  0  0  0  0  0  0  0  0  0
  181.7980  179.5540  139.8480 C   0  0  0  0  0  0  0  0  0  0  0  0
  180.0550  179.0290  135.6750 C   0  0  0  0  0  3  0  0  0  0  0  0
  180.1520  179.7650  134.3500 C   0  0  0  0  0  2  0  0  0  0  0  0
  181.3470  179.0020  134.8730 C   0  0  0  0  0  2  0  0  0  0  0  0
  181.8540  177.6150  138.1480 C   0  0  2  0  0  3  0  0  0  0  0  0
  180.8310  176.7700  137.6800 O   0  0  0  0  0  0  0  0  0  0  0  0
  181.4140  176.4220  138.9030 C   0  0  1  0  0  3  0  0  0  0  0  0
  182.3460  175.3280  138.6990 N   0  0  0  0  0  2  0  0  0  0  0  0
  184.0460  175.3140  136.6400 F   0  0  0  0  0  0  0  0  0  0  0  0
  182.5440  172.2620  135.3880 C   0  0  0  0  0  3  0  0  0  0  0  0
  182.0850  171.5270  136.5980 C   0  0  0  0  0  2  0  0  0  0  0  0
  182.1930  174.3510  137.6610 C   0  0  0  0  0  0  0  0  0  0  0  0
  183.0040  173.5140  135.4320 C   0  0  0  0  0  3  0  0  0  0  0  0
  181.0090  173.4580  137.7170 C   0  0  0  0  0  3  0  0  0  0  0  0
  180.9300  172.2220  137.2290 C   0  0  0  0  0  3  0  0  0  0  0  0
  183.0740  174.3730  136.6350 C   0  0  0  0  0  0  0  0  0  0  0  0
  186.3890  177.9790  142.9790 C   0  0  0  0  0  2  0  0  0  0  0  0
  191.4120  176.5830  146.1910 C   0  0  1  0  0  3  0  0  0  0  0  0
  188.9630  177.5480  142.4540 C   0  0  0  0  0  0  0  0  0  0  0  0
  189.7350  177.6620  141.2650 N   0  0  0  0  0  0  0  0  0  0  0  0
  188.6550  177.0010  144.8720 C   0  0  2  0  0  3  0  0  0  0  0  0
  192.0440  175.5940  147.0460 N   0  0  0  0  0  1  0  0  0  0  0  0
  187.6190  178.0290  142.1310 C   0  0  0  0  0  0  0  0  0  0  0  0
  187.5860  178.3840  140.8930 N   0  0  0  0  0  0  0  0  0  0  0  0
  189.2890  178.4440  139.0630 N   0  0  0  0  0  1  0  0  0  0  0  0
  187.9740  178.1570  145.5830 C   0  0  0  0  0  2  0  0  0  0  0  0
  189.4460  177.9320  145.7710 C   0  0  1  0  0  3  0  0  0  0  0  0
  189.4570  177.0950  143.6190 C   0  0  0  0  0  0  0  0  0  0  0  0
  191.5680  176.1790  144.7240 C   0  0  0  0  0  3  0  0  0  0  0  0
  190.7940  176.4430  143.6450 C   0  0  0  0  0  3  0  0  0  0  0  0
  190.0130  176.9200  146.7180 C   0  0  0  0  0  2  0  0  0  0  0  0
  188.9090  178.1600  140.4060 C   0  0  0  0  0  0  0  0  0  0  0  0
  2  7  2  0  0  0  0
  2  3  1  0  0  0  0
  3  8  2  0  0  0  0
  4  5  1  0  0  0  0
  4  6  2  0  0  0  0
  6  1  1  0  0  0  0
  7  4  1  0  0  0  0
  8  6  1  0  0  0  0
  8 33  1  0  0  0  0
 10 15  2  0  0  0  0
 10 16  1  0  0  0  0
 11 17  2  0  0  0  0
 13 11  1  0  0  0  0
 13 14  1  0  0  0  0
 14 12  2  0  0  0  0
 15 13  1  0  0  0  0
 16  9  2  0  0  0  0
 16 14  1  0  0  0  0
 17 12  1  0  0  0  0
 17  7  1  0  0  0  0
 18 15  1  0  0  0  0
 19 20  1  0  0  0  0
 19 18  1  0  0  0  0
 20 18  1  0  0  0  0
 21 11  1  1  0  0  0
 21 23  1  0  0  0  0
 22 21  1  0  0  0  0
 22 23  1  0  0  0  0
 23 24  1  6  0  0  0
 26 29  2  0  0  0  0
 26 27  1  0  0  0  0
 27 31  1  0  0  0  0
 28 30  1  0  0  0  0
 28 24  1  0  0  0  0
 29 32  1  0  0  0  0
 31 30  2  0  0  0  0
 32 25  1  0  0  0  0
 32 28  2  0  0  0  0
 34 47  1  0  0  0  0
 34 38  1  1  0  0  0
 35 44  2  0  0  0  0
 36 35  1  0  0  0  0
 37 42  1  6  0  0  0
 37 43  1  0  0  0  0
 39 35  1  0  0  0  0
 39 33  1  0  0  0  0
 40 39  2  0  0  0  0
 41 48  1  0  0  0  0
 43 42  1  1  0  0  0
 43 47  1  0  0  0  0
 44 46  1  0  0  0  0
 44 37  1  0  0  0  0
 45 34  1  0  0  0  0
 46 45  2  0  0  0  0
 48 40  1  0  0  0  0
 48 36  2  0  0  0  0
M  END
>  <MODEL>
6

>  <REMARK>
 VINA RESULT:      -9.1      6.111      9.814
  Name = 
  7 active torsions:
  status: ('A' for Active; 'I' for Inactive)
    1  A    between atoms: C_8  and  C_36
    2  A    between atoms: C_11  and  C_17
    3  A    between atoms: C_15  and  C_16
    4  A    between atoms: C_15  and  C_30
    5  A    between atoms: C_22  and  N_32
    6  A    between atoms: C_26  and  C_48
    7  A    between atoms: N_32  and  C_47
                            x       y       z     vdW  Elec       q    Type
                         _______ _______ _______ _____ _____    ______ ____

>  <TORSDO>
F 7

$$$$
=
 OpenBabel10232412153D

 48 56  0  0  1  0  0  0  0  0999 V2000
  188.3630  174.7540  137.2920 F   0  0  0  0  0  0  0  0  0  0  0  0
  186.7040  178.5350  136.8460 C   0  0  0  0  0  3  0  0  0  0  0  0
  188.0770  178.3540  136.6730 C   0  0  0  0  0  3  0  0  0  0  0  0
  186.4450  176.1710  137.3150 C   0  0  0  0  0  0  0  0  0  0  0  0
  185.6880  175.1230  137.7210 F   0  0  0  0  0  0  0  0  0  0  0  0
  187.8230  175.9890  137.1350 C   0  0  0  0  0  0  0  0  0  0  0  0
  185.8750  177.4470  137.1460 C   0  0  0  0  0  0  0  0  0  0  0  0
  188.6390  177.0810  136.8020 C   0  0  0  0  0  0  0  0  0  0  0  0
  180.7980  175.4410  137.3470 O   0  0  0  0  0  0  0  0  0  0  0  0
  180.7510  177.1060  139.0450 N   0  0  0  0  0  0  0  0  0  0  0  0
  183.8370  178.5640  138.2240 C   0  0  0  0  0  0  0  0  0  0  0  0
  183.4980  176.8300  136.8270 N   0  0  0  0  0  0  0  0  0  0  0  0
  182.5170  178.2970  138.2080 N   0  0  0  0  0  0  0  0  0  0  0  0
  182.3520  177.2910  137.3640 C   0  0  0  0  0  0  0  0  0  0  0  0
  181.5240  178.1420  139.2350 C   0  0  0  0  0  0  0  0  0  0  0  0
  181.2360  176.5100  137.8420 C   0  0  0  0  0  0  0  0  0  0  0  0
  184.4320  177.6830  137.3180 C   0  0  0  0  0  0  0  0  0  0  0  0
  181.3900  179.0520  140.4170 C   0  0  0  0  0  3  0  0  0  0  0  0
  180.0410  178.8110  141.0710 C   0  0  0  0  0  2  0  0  0  0  0  0
  181.2930  178.2570  141.7090 C   0  0  0  0  0  2  0  0  0  0  0  0
  184.5520  179.3410  139.2900 C   0  0  2  0  0  3  0  0  0  0  0  0
  185.8220  178.7860  139.5320 O   0  0  0  0  0  0  0  0  0  0  0  0
  184.8200  178.4710  140.4560 C   0  0  1  0  0  3  0  0  0  0  0  0
  184.9950  179.2750  141.6510 N   0  0  0  0  0  2  0  0  0  0  0  0
  187.2890  178.0080  142.1620 F   0  0  0  0  0  0  0  0  0  0  0  0
  186.3510  177.6630  145.6460 C   0  0  0  0  0  3  0  0  0  0  0  0
  185.5250  178.8630  145.9490 C   0  0  0  0  0  2  0  0  0  0  0  0
  185.2180  178.7110  142.9500 C   0  0  0  0  0  0  0  0  0  0  0  0
  186.7460  177.3490  144.4110 C   0  0  0  0  0  3  0  0  0  0  0  0
  184.1010  178.7510  143.9260 C   0  0  0  0  0  3  0  0  0  0  0  0
  184.2130  178.7890  145.2520 C   0  0  0  0  0  3  0  0  0  0  0  0
  186.3920  178.0780  143.1730 C   0  0  0  0  0  0  0  0  0  0  0  0
  190.1110  176.9080  136.6120 C   0  0  0  0  0  2  0  0  0  0  0  0
  194.7690  172.9360  136.4630 C   0  0  1  0  0  3  0  0  0  0  0  0
  192.0880  176.1820  138.2420 C   0  0  0  0  0  0  0  0  0  0  0  0
  192.4040  176.5280  139.5840 N   0  0  0  0  0  0  0  0  0  0  0  0
  192.5130  175.0040  136.0810 C   0  0  2  0  0  3  0  0  0  0  0  0
  196.0020  172.5690  135.7890 N   0  0  0  0  0  1  0  0  0  0  0  0
  190.8110  176.8270  137.9310 C   0  0  0  0  0  0  0  0  0  0  0  0
  190.4110  177.4860  138.9620 N   0  0  0  0  0  0  0  0  0  0  0  0
  191.3250  177.8190  141.2660 N   0  0  0  0  0  1  0  0  0  0  0  0
  191.2680  174.2520  135.6450 C   0  0  0  0  0  2  0  0  0  0  0  0
  192.4260  173.4970  136.2270 C   0  0  1  0  0  3  0  0  0  0  0  0
  192.8590  175.3890  137.4780 C   0  0  0  0  0  0  0  0  0  0  0  0
  195.0380  174.0610  137.4630 C   0  0  0  0  0  3  0  0  0  0  0  0
  194.2310  175.0400  137.9350 C   0  0  0  0  0  3  0  0  0  0  0  0
  193.6420  173.1130  135.4410 C   0  0  0  0  0  2  0  0  0  0  0  0
  191.4080  177.2610  139.9590 C   0  0  0  0  0  0  0  0  0  0  0  0
  2  7  1  0  0  0  0
  3  8  1  0  0  0  0
  3  2  2  0  0  0  0
  4  5  1  0  0  0  0
  6  1  1  0  0  0  0
  6  4  1  0  0  0  0
  7  4  2  0  0  0  0
  7 17  1  0  0  0  0
  8  6  2  0  0  0  0
  9 16  2  0  0  0  0
 10 15  2  0  0  0  0
 12 17  1  0  0  0  0
 12 14  2  0  0  0  0
 13 11  1  0  0  0  0
 13 15  1  0  0  0  0
 14 16  1  0  0  0  0
 14 13  1  0  0  0  0
 15 18  1  0  0  0  0
 16 10  1  0  0  0  0
 17 11  2  0  0  0  0
 18 19  1  0  0  0  0
 18 20  1  0  0  0  0
 19 20  1  0  0  0  0
 21 11  1  6  0  0  0
 21 22  1  0  0  0  0
 21 23  1  0  0  0  0
 22 23  1  0  0  0  0
 23 24  1  1  0  0  0
 24 28  1  0  0  0  0
 25 32  1  0  0  0  0
 26 27  1  0  0  0  0
 28 32  2  0  0  0  0
 28 30  1  0  0  0  0
 29 26  2  0  0  0  0
 30 31  2  0  0  0  0
 31 27  1  0  0  0  0
 32 29  1  0  0  0  0
 33  8  1  0  0  0  0
 33 39  1  0  0  0  0
 34 38  1  6  0  0  0
 34 45  1  0  0  0  0
 35 36  1  0  0  0  0
 36 48  2  0  0  0  0
 37 42  1  1  0  0  0
 37 43  1  0  0  0  0
 37 44  1  0  0  0  0
 39 35  1  0  0  0  0
 39 40  2  0  0  0  0
 40 48  1  0  0  0  0
 42 43  1  0  0  0  0
 43 47  1  6  0  0  0
 44 46  1  0  0  0  0
 44 35  2  0  0  0  0
 45 46  2  0  0  0  0
 47 34  1  0  0  0  0
 48 41  1  0  0  0  0
M  END
>  <MODEL>
7

>  <REMARK>
 VINA RESULT:      -9.0      3.436     10.448
  Name = 
  7 active torsions:
  status: ('A' for Active; 'I' for Inactive)
    1  A    between atoms: C_8  and  C_36
    2  A    between atoms: C_11  and  C_17
    3  A    between atoms: C_15  and  C_16
    4  A    between atoms: C_15  and  C_30
    5  A    between atoms: C_22  and  N_32
    6  A    between atoms: C_26  and  C_48
    7  A    between atoms: N_32  and  C_47
                            x       y       z     vdW  Elec       q    Type
                         _______ _______ _______ _____ _____    ______ ____

>  <TORSDO>
F 7

$$$$
=
 OpenBabel10232412153D

 48 56  0  0  1  0  0  0  0  0999 V2000
  190.0350  177.7780  140.8070 F   0  0  0  0  0  0  0  0  0  0  0  0
  186.7490  177.5300  138.2810 C   0  0  0  0  0  3  0  0  0  0  0  0
  187.9280  176.8600  137.9550 C   0  0  0  0  0  3  0  0  0  0  0  0
  187.7790  178.3650  140.3110 C   0  0  0  0  0  0  0  0  0  0  0  0
  187.7570  179.1670  141.4020 F   0  0  0  0  0  0  0  0  0  0  0  0
  188.9600  177.6860  139.9850 C   0  0  0  0  0  0  0  0  0  0  0  0
  186.6550  178.2690  139.4670 C   0  0  0  0  0  0  0  0  0  0  0  0
  189.0320  176.9220  138.8100 C   0  0  0  0  0  0  0  0  0  0  0  0
  181.8560  180.2250  137.7420 O   0  0  0  0  0  0  0  0  0  0  0  0
  181.3060  179.3570  139.8870 N   0  0  0  0  0  0  0  0  0  0  0  0
  184.6130  178.7950  140.9210 C   0  0  0  0  0  0  0  0  0  0  0  0
  184.6740  179.6070  138.8220 N   0  0  0  0  0  0  0  0  0  0  0  0
  183.4480  179.4300  140.6900 N   0  0  0  0  0  0  0  0  0  0  0  0
  183.5270  179.9120  139.4590 C   0  0  0  0  0  0  0  0  0  0  0  0
  182.0710  179.0890  140.9120 C   0  0  0  0  0  0  0  0  0  0  0  0
  182.1930  179.8980  138.9080 C   0  0  0  0  0  0  0  0  0  0  0  0
  185.3920  178.9600  139.7730 C   0  0  0  0  0  0  0  0  0  0  0  0
  181.5540  178.4670  142.1730 C   0  0  0  0  0  3  0  0  0  0  0  0
  180.8400  179.5310  142.9880 C   0  0  0  0  0  2  0  0  0  0  0  0
  180.0350  178.5100  142.2190 C   0  0  0  0  0  2  0  0  0  0  0  0
  184.8480  177.7820  142.0030 C   0  0  2  0  0  3  0  0  0  0  0  0
  184.2210  178.1840  143.1960 O   0  0  0  0  0  0  0  0  0  0  0  0
  185.6010  178.3980  143.1170 C   0  0  1  0  0  3  0  0  0  0  0  0
  186.2920  177.3750  143.8800 N   0  0  0  0  0  2  0  0  0  0  0  0
  185.0210  178.0410  146.1320 F   0  0  0  0  0  0  0  0  0  0  0  0
  188.1580  177.9890  147.9470 C   0  0  0  0  0  3  0  0  0  0  0  0
  188.9840  176.9510  147.2710 C   0  0  0  0  0  2  0  0  0  0  0  0
  187.0500  177.6580  145.0640 C   0  0  0  0  0  0  0  0  0  0  0  0
  186.9910  178.4150  147.4610 C   0  0  0  0  0  3  0  0  0  0  0  0
  188.5290  177.6870  144.9500 C   0  0  0  0  0  3  0  0  0  0  0  0
  189.4000  177.4080  145.9180 C   0  0  0  0  0  3  0  0  0  0  0  0
  186.3730  177.9900  146.1860 C   0  0  0  0  0  0  0  0  0  0  0  0
  190.2850  176.1960  138.4420 C   0  0  0  0  0  2  0  0  0  0  0  0
  195.4220  173.7030  136.2310 C   0  0  1  0  0  3  0  0  0  0  0  0
  190.9230  174.0970  136.9330 C   0  0  0  0  0  0  0  0  0  0  0  0
  190.1370  173.1480  136.2240 N   0  0  0  0  0  0  0  0  0  0  0  0
  193.0890  175.0520  137.7300 C   0  0  2  0  0  3  0  0  0  0  0  0
  196.6870  173.0770  136.5740 N   0  0  0  0  0  1  0  0  0  0  0  0
  189.9930  175.0810  137.4910 C   0  0  0  0  0  0  0  0  0  0  0  0
  188.7910  174.7570  137.1600 N   0  0  0  0  0  0  0  0  0  0  0  0
  187.8100  172.9050  135.7950 N   0  0  0  0  0  1  0  0  0  0  0  0
  193.1440  176.5390  137.4260 C   0  0  0  0  0  2  0  0  0  0  0  0
  193.9340  175.5800  136.5860 C   0  0  1  0  0  3  0  0  0  0  0  0
  192.2640  174.0420  137.0100 C   0  0  0  0  0  0  0  0  0  0  0  0
  194.2960  172.6710  136.2980 C   0  0  0  0  0  3  0  0  0  0  0  0
  192.9750  172.8160  136.5570 C   0  0  0  0  0  3  0  0  0  0  0  0
  195.2610  175.0200  136.9970 C   0  0  0  0  0  2  0  0  0  0  0  0
  188.9270  173.5760  136.3680 C   0  0  0  0  0  0  0  0  0  0  0  0
  2  7  1  0  0  0  0
  3  2  2  0  0  0  0
  3  8  1  0  0  0  0
  4  5  1  0  0  0  0
  6  4  1  0  0  0  0
  6  1  1  0  0  0  0
  7 17  1  0  0  0  0
  7  4  2  0  0  0  0
  8  6  2  0  0  0  0
  9 16  2  0  0  0  0
 10 15  2  0  0  0  0
 12 14  2  0  0  0  0
 12 17  1  0  0  0  0
 13 15  1  0  0  0  0
 13 11  1  0  0  0  0
 14 13  1  0  0  0  0
 15 18  1  0  0  0  0
 16 14  1  0  0  0  0
 16 10  1  0  0  0  0
 17 11  2  0  0  0  0
 18 20  1  0  0  0  0
 18 19  1  0  0  0  0
 20 19  1  0  0  0  0
 21 11  1  6  0  0  0
 21 23  1  0  0  0  0
 21 22  1  0  0  0  0
 23 22  1  0  0  0  0
 23 24  1  1  0  0  0
 24 28  1  0  0  0  0
 25 32  1  0  0  0  0
 27 26  1  0  0  0  0
 28 32  2  0  0  0  0
 29 26  2  0  0  0  0
 30 28  1  0  0  0  0
 30 31  2  0  0  0  0
 31 27  1  0  0  0  0
 32 29  1  0  0  0  0
 33  8  1  0  0  0  0
 34 45  1  0  0  0  0
 34 38  1  1  0  0  0
 34 47  1  0  0  0  0
 35 44  2  0  0  0  0
 35 39  1  0  0  0  0
 36 48  2  0  0  0  0
 36 35  1  0  0  0  0
 37 42  1  6  0  0  0
 39 33  1  0  0  0  0
 40 39  2  0  0  0  0
 41 48  1  0  0  0  0
 43 47  1  1  0  0  0
 43 42  1  0  0  0  0
 43 37  1  0  0  0  0
 44 37  1  0  0  0  0
 45 46  2  0  0  0  0
 46 44  1  0  0  0  0
 48 40  1  0  0  0  0
M  END
>  <MODEL>
8

>  <REMARK>
 VINA RESULT:      -8.9      3.596     10.766
  Name = 
  7 active torsions:
  status: ('A' for Active; 'I' for Inactive)
    1  A    between atoms: C_8  and  C_36
    2  A    between atoms: C_11  and  C_17
    3  A    between atoms: C_15  and  C_16
    4  A    between atoms: C_15  and  C_30
    5  A    between atoms: C_22  and  N_32
    6  A    between atoms: C_26  and  C_48
    7  A    between atoms: N_32  and  C_47
                            x       y       z     vdW  Elec       q    Type
                         _______ _______ _______ _____ _____    ______ ____

>  <TORSDO>
F 7

$$$$
=
 OpenBabel10232412153D

 48 56  0  0  1  0  0  0  0  0999 V2000
  190.0550  177.7290  134.5660 F   0  0  0  0  0  0  0  0  0  0  0  0
  187.9440  175.4490  137.3200 C   0  0  0  0  0  3  0  0  0  0  0  0
  189.2340  175.0700  136.9480 C   0  0  0  0  0  3  0  0  0  0  0  0
  188.0750  177.3660  135.8430 C   0  0  0  0  0  0  0  0  0  0  0  0
  187.4940  178.4230  135.2240 F   0  0  0  0  0  0  0  0  0  0  0  0
  189.3730  176.9880  135.4750 C   0  0  0  0  0  0  0  0  0  0  0  0
  187.3620  176.6070  136.7900 C   0  0  0  0  0  0  0  0  0  0  0  0
  189.9590  175.8430  136.0370 C   0  0  0  0  0  0  0  0  0  0  0  0
  182.2990  175.0410  138.1160 O   0  0  0  0  0  0  0  0  0  0  0  0
  182.6960  176.8180  139.6460 N   0  0  0  0  0  0  0  0  0  0  0  0
  185.6530  177.9590  138.1370 C   0  0  0  0  0  0  0  0  0  0  0  0
  184.9320  176.1660  136.9800 N   0  0  0  0  0  0  0  0  0  0  0  0
  184.3400  177.8010  138.3940 N   0  0  0  0  0  0  0  0  0  0  0  0
  183.9460  176.7560  137.6830 C   0  0  0  0  0  0  0  0  0  0  0  0
  183.5580  177.7990  139.5990 C   0  0  0  0  0  0  0  0  0  0  0  0
  182.8960  176.1030  138.4270 C   0  0  0  0  0  0  0  0  0  0  0  0
  185.9990  176.9710  137.2120 C   0  0  0  0  0  0  0  0  0  0  0  0
  183.7190  178.7960  140.7050 C   0  0  0  0  0  3  0  0  0  0  0  0
  182.7810  178.4250  141.8400 C   0  0  0  0  0  2  0  0  0  0  0  0
  184.2580  178.1330  141.9630 C   0  0  0  0  0  2  0  0  0  0  0  0
  186.6120  178.7460  138.9790 C   0  0  2  0  0  3  0  0  0  0  0  0
  187.9350  178.3340  138.7310 O   0  0  0  0  0  0  0  0  0  0  0  0
  187.3390  177.8420  139.8970 C   0  0  1  0  0  3  0  0  0  0  0  0
  187.8340  178.5830  141.0430 N   0  0  0  0  0  2  0  0  0  0  0  0
  190.3930  177.8220  141.0080 F   0  0  0  0  0  0  0  0  0  0  0  0
  190.1970  176.9150  144.5120 C   0  0  0  0  0  3  0  0  0  0  0  0
  189.2110  177.8600  145.1050 C   0  0  0  0  0  2  0  0  0  0  0  0
  188.4010  177.9530  142.1990 C   0  0  0  0  0  0  0  0  0  0  0  0
  190.4160  176.8290  143.1990 C   0  0  0  0  0  3  0  0  0  0  0  0
  187.4960  177.6390  143.3320 C   0  0  0  0  0  3  0  0  0  0  0  0
  187.8380  177.5640  144.6170 C   0  0  0  0  0  3  0  0  0  0  0  0
  189.7010  177.5830  142.1460 C   0  0  0  0  0  0  0  0  0  0  0  0
  191.3390  175.4200  135.6530 C   0  0  0  0  0  2  0  0  0  0  0  0
  195.3530  170.8030  135.9220 C   0  0  1  0  0  3  0  0  0  0  0  0
  193.5080  174.8230  137.0760 C   0  0  0  0  0  0  0  0  0  0  0  0
  194.1350  175.4550  138.1850 N   0  0  0  0  0  0  0  0  0  0  0  0
  193.3320  173.0540  135.3210 C   0  0  2  0  0  3  0  0  0  0  0  0
  196.3660  170.0600  135.1930 N   0  0  0  0  0  1  0  0  0  0  0  0
  192.2810  175.5730  136.8030 C   0  0  0  0  0  0  0  0  0  0  0  0
  192.1860  176.5430  137.6440 N   0  0  0  0  0  0  0  0  0  0  0  0
  193.5910  177.3160  139.5630 N   0  0  0  0  0  1  0  0  0  0  0  0
  191.9420  172.4420  135.3380 C   0  0  0  0  0  2  0  0  0  0  0  0
  193.0960  171.6800  135.9190 C   0  0  1  0  0  3  0  0  0  0  0  0
  194.0030  173.7320  136.4650 C   0  0  0  0  0  0  0  0  0  0  0  0
  195.9570  172.0900  136.4860 C   0  0  0  0  0  3  0  0  0  0  0  0
  195.3880  173.2840  136.7730 C   0  0  0  0  0  3  0  0  0  0  0  0
  194.0680  170.8940  135.0930 C   0  0  0  0  0  2  0  0  0  0  0  0
  193.3340  176.4220  138.4840 C   0  0  0  0  0  0  0  0  0  0  0  0
  1  6  1  0  0  0  0
  3  2  1  0  0  0  0
  4  7  1  0  0  0  0
  5  4  1  0  0  0  0
  6  4  2  0  0  0  0
  6  8  1  0  0  0  0
  7 17  1  0  0  0  0
  7  2  2  0  0  0  0
  8  3  2  0  0  0  0
  9 16  2  0  0  0  0
 11 13  1  0  0  0  0
 12 17  1  0  0  0  0
 12 14  2  0  0  0  0
 13 15  1  0  0  0  0
 14 13  1  0  0  0  0
 14 16  1  0  0  0  0
 15 10  2  0  0  0  0
 15 18  1  0  0  0  0
 16 10  1  0  0  0  0
 17 11  2  0  0  0  0
 18 19  1  0  0  0  0
 18 20  1  0  0  0  0
 19 20  1  0  0  0  0
 21 11  1  6  0  0  0
 21 23  1  0  0  0  0
 22 21  1  0  0  0  0
 22 23  1  0  0  0  0
 23 24  1  1  0  0  0
 24 28  1  0  0  0  0
 25 32  1  0  0  0  0
 26 27  1  0  0  0  0
 28 30  1  0  0  0  0
 29 26  2  0  0  0  0
 30 31  2  0  0  0  0
 31 27  1  0  0  0  0
 32 28  2  0  0  0  0
 32 29  1  0  0  0  0
 33  8  1  0  0  0  0
 33 39  1  0  0  0  0
 34 38  1  6  0  0  0
 34 45  1  0  0  0  0
 35 36  1  0  0  0  0
 36 48  2  0  0  0  0
 37 42  1  1  0  0  0
 37 43  1  0  0  0  0
 37 44  1  0  0  0  0
 39 35  1  0  0  0  0
 39 40  2  0  0  0  0
 40 48  1  0  0  0  0
 42 43  1  0  0  0  0
 43 47  1  6  0  0  0
 44 46  1  0  0  0  0
 44 35  2  0  0  0  0
 45 46  2  0  0  0  0
 47 34  1  0  0  0  0
 48 41  1  0  0  0  0
M  END
>  <MODEL>
9

>  <REMARK>
 VINA RESULT:      -8.9      3.035     10.164
  Name = 
  7 active torsions:
  status: ('A' for Active; 'I' for Inactive)
    1  A    between atoms: C_8  and  C_36
    2  A    between atoms: C_11  and  C_17
    3  A    between atoms: C_15  and  C_16
    4  A    between atoms: C_15  and  C_30
    5  A    between atoms: C_22  and  N_32
    6  A    between atoms: C_26  and  C_48
    7  A    between atoms: N_32  and  C_47
                            x       y       z     vdW  Elec       q    Type
                         _______ _______ _______ _____ _____    ______ ____

>  <TORSDO>
F 7

$$$$
