=
 OpenBabel10222422053D

 44 47  0  0  1  0  0  0  0  0999 V2000
  185.7340  178.4390  138.1070 C   0  0  0  0  0  0  0  0  0  0  0  0
  183.5700  177.8530  141.7450 C   0  0  0  0  0  3  0  0  0  0  0  0
  182.6530  177.4700  140.7090 N   0  0  0  0  0  0  0  0  0  0  0  0
  184.3870  178.5880  137.8590 O   0  0  0  0  0  0  0  0  0  0  0  0
  187.8860  177.6410  138.1910 C   0  0  0  0  0  0  0  0  0  0  0  0
  184.8370  179.0230  140.1100 N   0  0  0  0  0  0  0  0  0  0  0  0
  182.7070  177.9280  139.4900 C   0  0  0  0  0  0  0  0  0  0  0  0
  186.7610  177.8560  137.3770 C   0  0  0  0  0  0  0  0  0  0  0  0
  186.6230  177.3960  135.9660 C   0  0  0  0  0  1  0  0  0  0  0  0
  181.7240  177.4850  138.5500 N   0  0  0  0  0  2  0  0  0  0  0  0
  187.5350  178.1610  139.7870 S   0  0  0  0  0  0  0  0  0  0  0  0
  184.6270  178.6120  141.4690 C   0  0  0  0  0  0  0  0  0  0  0  0
  186.0170  178.7450  139.3720 C   0  0  0  0  0  0  0  0  0  0  0  0
  183.7510  178.9600  139.0980 C   0  0  2  0  0  3  0  0  0  0  0  0
  188.9820  175.5250  137.3480 C   0  0  0  0  0  2  0  0  0  0  0  0
  189.1660  177.0030  137.7320 C   0  0  0  0  0  3  0  0  0  0  0  0
  191.5860  176.5380  138.3440 C   0  0  0  0  0  2  0  0  0  0  0  0
  190.2790  174.7230  137.4980 C   0  0  0  0  0  2  0  0  0  0  0  0
  190.2560  177.1700  138.7920 C   0  0  0  0  0  2  0  0  0  0  0  0
  191.4340  175.5860  137.2350 N   0  0  0  0  0  0  0  0  0  0  0  0
  192.6240  174.7470  137.2470 C   0  0  0  0  0  2  0  0  0  0  0  0
  194.8600  174.9930  136.0100 N   0  0  0  0  0  2  0  0  0  0  0  0
  195.7400  174.7090  137.1090 C   0  0  0  0  0  0  0  0  0  0  0  0
  193.4260  174.9450  135.9980 C   0  0  0  0  0  0  0  0  0  0  0  0
  192.8200  175.1350  134.9090 O   0  0  0  0  0  0  0  0  0  0  0  0
  197.0040  174.9430  136.9640 N   0  0  0  0  0  2  0  0  0  0  0  0
  195.3580  172.5890  138.3490 C   0  0  0  0  0  1  0  0  0  0  0  0
  195.2400  174.1010  138.3840 C   0  0  0  0  0  3  0  0  0  0  0  0
  195.9850  174.6530  139.5840 C   0  0  0  0  0  1  0  0  0  0  0  0
  185.1840  178.9080  143.8250 C   0  0  0  0  0  0  0  0  0  0  0  0
  183.6180  179.1240  145.5450 O   0  0  0  0  0  1  0  0  0  0  0  0
  185.5120  179.0260  142.5660 C   0  0  0  0  0  3  0  0  0  0  0  0
  184.8850  178.7840  145.0890 C   0  0  0  0  0  0  0  0  0  0  0  0
  185.9020  178.2540  146.0380 C   0  0  0  0  0  2  0  0  0  0  0  0
  186.7720  177.3130  145.3530 N   0  0  0  0  0  2  0  0  0  0  0  0
  188.1230  177.5830  145.8160 C   0  0  0  0  0  2  0  0  0  0  0  0
  189.8540  178.7870  144.7450 F   0  0  0  0  0  0  0  0  0  0  0  0
  189.0860  177.6430  144.6420 C   0  0  0  0  0  0  0  0  0  0  0  0
  189.9150  176.5360  144.6530 F   0  0  0  0  0  0  0  0  0  0  0  0
  188.3800  177.6770  143.4540 F   0  0  0  0  0  0  0  0  0  0  0  0
  181.5630  178.0670  137.2260 C   0  0  0  0  0  2  0  0  0  0  0  0
  180.1970  178.7160  137.1240 C   0  0  0  0  0  2  0  0  0  0  0  0
  181.1100  180.9960  137.4290 C   0  0  0  0  0  1  0  0  0  0  0  0
  180.3380  180.0850  136.4940 C   0  0  0  0  0  2  0  0  0  0  0  0
  1 13  2  0  0  0  0
  3  2  1  0  0  0  0
  4  1  1  0  0  0  0
  5 11  1  0  0  0  0
  6 12  1  0  0  0  0
  7  3  2  0  0  0  0
  8  1  1  0  0  0  0
  8  5  2  0  0  0  0
  9  8  1  0  0  0  0
 10  7  1  0  0  0  0
 12  2  2  0  0  0  0
 12 32  1  0  0  0  0
 13 11  1  0  0  0  0
 13  6  1  0  0  0  0
 14  4  1  6  0  0  0
 14  7  1  0  0  0  0
 14  6  1  0  0  0  0
 15 18  1  0  0  0  0
 15 16  1  0  0  0  0
 16  5  1  0  0  0  0
 16 19  1  0  0  0  0
 17 19  1  0  0  0  0
 20 21  1  0  0  0  0
 20 18  1  0  0  0  0
 20 17  1  0  0  0  0
 22 23  1  0  0  0  0
 23 28  1  0  0  0  0
 24 22  1  0  0  0  0
 24 21  1  0  0  0  0
 25 24  2  0  0  0  0
 26 23  2  0  0  0  0
 27 28  1  0  0  0  0
 28 29  1  0  0  0  0
 30 33  2  0  0  0  0
 32 30  2  0  0  0  0
 33 31  1  0  0  0  0
 33 34  1  0  0  0  0
 35 36  1  0  0  0  0
 35 34  1  0  0  0  0
 38 39  1  0  0  0  0
 38 37  1  0  0  0  0
 38 36  1  0  0  0  0
 40 38  1  0  0  0  0
 41 10  1  0  0  0  0
 42 41  1  0  0  0  0
 44 42  1  0  0  0  0
 44 43  1  0  0  0  0
M  END
>  <MODEL>
1

>  <REMARK>
 VINA RESULT:      -7.3      0.000      0.000
  Name = 
  12 active torsions:
  status: ('A' for Active; 'I' for Inactive)
    1  A    between atoms: N_4  and  C_19
    2  A    between atoms: N_4  and  C_26
    3  A    between atoms: C_8  and  N_30
    4  A    between atoms: C_8  and  C_42
    5  A    between atoms: C_10  and  C_26
    6  A    between atoms: C_12  and  C_32
    7  A    between atoms: C_15  and  C_24
    8  A    between atoms: C_17  and  C_20
    9  A    between atoms: C_17  and  N_44
   10  A    between atoms: C_19  and  C_41
   11  A    between atoms: C_22  and  C_42
   12  A    between atoms: C_31  and  C_38
                            x       y       z     vdW  Elec       q    Type
                         _______ _______ _______ _____ _____    ______ ____

>  <TORSDO>
F 12

$$$$
=
 OpenBabel10222422053D

 44 47  0  0  1  0  0  0  0  0999 V2000
  189.4570  177.2880  138.0650 C   0  0  0  0  0  0  0  0  0  0  0  0
  185.4050  176.3490  137.0850 C   0  0  0  0  0  3  0  0  0  0  0  0
  186.1890  175.4160  136.3280 N   0  0  0  0  0  0  0  0  0  0  0  0
  189.4140  176.7400  136.8020 O   0  0  0  0  0  0  0  0  0  0  0  0
  189.7930  177.6270  140.3110 C   0  0  0  0  0  0  0  0  0  0  0  0
  187.3480  177.6950  137.3280 N   0  0  0  0  0  0  0  0  0  0  0  0
  187.4170  175.6400  135.9530 C   0  0  0  0  0  0  0  0  0  0  0  0
  190.3540  177.1500  139.1150 C   0  0  0  0  0  0  0  0  0  0  0  0
  191.6680  176.4560  139.0020 C   0  0  0  0  0  1  0  0  0  0  0  0
  188.0900  174.6380  135.1850 N   0  0  0  0  0  2  0  0  0  0  0  0
  188.1960  178.1710  140.0070 S   0  0  0  0  0  0  0  0  0  0  0  0
  185.9520  177.4610  137.5680 C   0  0  0  0  0  0  0  0  0  0  0  0
  188.3060  177.8920  138.3560 C   0  0  0  0  0  0  0  0  0  0  0  0
  188.0920  176.9630  136.2710 C   0  0  2  0  0  3  0  0  0  0  0  0
  190.2320  176.2930  142.4140 C   0  0  0  0  0  2  0  0  0  0  0  0
  190.4780  177.6040  141.6480 C   0  0  0  0  0  3  0  0  0  0  0  0
  190.7640  178.8330  143.8520 C   0  0  0  0  0  2  0  0  0  0  0  0
  190.3500  176.4790  143.9300 C   0  0  0  0  0  2  0  0  0  0  0  0
  190.0660  178.8200  142.4810 C   0  0  0  0  0  2  0  0  0  0  0  0
  191.3260  177.5280  144.2320 N   0  0  0  0  0  0  0  0  0  0  0  0
  191.5060  177.5640  145.6760 C   0  0  0  0  0  2  0  0  0  0  0  0
  190.3470  175.8250  147.1670 N   0  0  0  0  0  2  0  0  0  0  0  0
  189.1910  176.5960  147.5270 C   0  0  0  0  0  0  0  0  0  0  0  0
  191.3970  176.1890  146.2590 C   0  0  0  0  0  0  0  0  0  0  0  0
  192.2890  175.3400  145.9900 O   0  0  0  0  0  0  0  0  0  0  0  0
  188.4240  176.1550  148.4720 N   0  0  0  0  0  2  0  0  0  0  0  0
  187.7730  177.5860  145.7410 C   0  0  0  0  0  1  0  0  0  0  0  0
  188.8230  177.8550  146.8020 C   0  0  0  0  0  3  0  0  0  0  0  0
  188.3290  178.9180  147.7650 C   0  0  0  0  0  1  0  0  0  0  0  0
  184.2450  178.0500  139.2070 C   0  0  0  0  0  0  0  0  0  0  0  0
  182.5680  176.6070  139.9590 O   0  0  0  0  0  1  0  0  0  0  0  0
  185.1030  178.4160  138.2930 C   0  0  0  0  0  3  0  0  0  0  0  0
  183.3940  177.7100  140.1360 C   0  0  0  0  0  0  0  0  0  0  0  0
  183.3280  178.4960  141.3990 C   0  0  0  0  0  2  0  0  0  0  0  0
  184.4280  178.1210  142.2710 N   0  0  0  0  0  2  0  0  0  0  0  0
  184.7760  179.3070  143.0340 C   0  0  0  0  0  2  0  0  0  0  0  0
  185.3740  179.8980  145.2450 F   0  0  0  0  0  0  0  0  0  0  0  0
  184.5360  179.0760  144.5170 C   0  0  0  0  0  0  0  0  0  0  0  0
  183.2230  179.3690  144.8350 F   0  0  0  0  0  0  0  0  0  0  0  0
  184.8050  177.7580  144.8380 F   0  0  0  0  0  0  0  0  0  0  0  0
  189.3810  174.8510  134.5480 C   0  0  0  0  0  2  0  0  0  0  0  0
  190.3450  173.7670  134.9880 C   0  0  0  0  0  2  0  0  0  0  0  0
  192.3180  173.3760  136.4290 C   0  0  0  0  0  1  0  0  0  0  0  0
  191.5700  174.4060  135.6060 C   0  0  0  0  0  2  0  0  0  0  0  0
  1 13  2  0  0  0  0
  1  8  1  0  0  0  0
  2 12  2  0  0  0  0
  3  2  1  0  0  0  0
  4  1  1  0  0  0  0
  5 16  1  0  0  0  0
  6 12  1  0  0  0  0
  6 13  1  0  0  0  0
  7  3  2  0  0  0  0
  8  5  2  0  0  0  0
  9  8  1  0  0  0  0
 10  7  1  0  0  0  0
 11  5  1  0  0  0  0
 12 32  1  0  0  0  0
 13 11  1  0  0  0  0
 14  7  1  1  0  0  0
 14  4  1  0  0  0  0
 14  6  1  0  0  0  0
 15 18  1  0  0  0  0
 16 15  1  0  0  0  0
 16 19  1  0  0  0  0
 17 20  1  0  0  0  0
 18 20  1  0  0  0  0
 19 17  1  0  0  0  0
 20 21  1  0  0  0  0
 21 24  1  0  0  0  0
 22 23  1  0  0  0  0
 23 26  2  0  0  0  0
 24 22  1  0  0  0  0
 25 24  2  0  0  0  0
 27 28  1  0  0  0  0
 28 23  1  0  0  0  0
 28 29  1  0  0  0  0
 30 33  2  0  0  0  0
 31 33  1  0  0  0  0
 32 30  2  0  0  0  0
 33 34  1  0  0  0  0
 34 35  1  0  0  0  0
 35 36  1  0  0  0  0
 36 38  1  0  0  0  0
 38 39  1  0  0  0  0
 38 40  1  0  0  0  0
 38 37  1  0  0  0  0
 41 42  1  0  0  0  0
 41 10  1  0  0  0  0
 42 44  1  0  0  0  0
 44 43  1  0  0  0  0
M  END
>  <MODEL>
2

>  <REMARK>
 VINA RESULT:      -7.1      3.384      7.695
  Name = 
  12 active torsions:
  status: ('A' for Active; 'I' for Inactive)
    1  A    between atoms: N_4  and  C_19
    2  A    between atoms: N_4  and  C_26
    3  A    between atoms: C_8  and  N_30
    4  A    between atoms: C_8  and  C_42
    5  A    between atoms: C_10  and  C_26
    6  A    between atoms: C_12  and  C_32
    7  A    between atoms: C_15  and  C_24
    8  A    between atoms: C_17  and  C_20
    9  A    between atoms: C_17  and  N_44
   10  A    between atoms: C_19  and  C_41
   11  A    between atoms: C_22  and  C_42
   12  A    between atoms: C_31  and  C_38
                            x       y       z     vdW  Elec       q    Type
                         _______ _______ _______ _____ _____    ______ ____

>  <TORSDO>
F 12

$$$$
=
 OpenBabel10222422053D

 44 47  0  0  1  0  0  0  0  0999 V2000
  186.7610  178.4580  139.0320 C   0  0  0  0  0  0  0  0  0  0  0  0
  184.8030  177.8450  142.7810 C   0  0  0  0  0  3  0  0  0  0  0  0
  183.7420  177.8800  141.8150 N   0  0  0  0  0  0  0  0  0  0  0  0
  185.4870  178.9790  138.9650 O   0  0  0  0  0  0  0  0  0  0  0  0
  188.6240  177.1440  138.7540 C   0  0  0  0  0  0  0  0  0  0  0  0
  186.2070  178.9120  141.1870 N   0  0  0  0  0  0  0  0  0  0  0  0
  183.8220  178.5030  140.6730 C   0  0  0  0  0  0  0  0  0  0  0  0
  187.5380  177.7640  138.1150 C   0  0  0  0  0  0  0  0  0  0  0  0
  187.1760  177.5900  136.6790 C   0  0  0  0  0  1  0  0  0  0  0  0
  182.6880  178.4800  139.8020 N   0  0  0  0  0  2  0  0  0  0  0  0
  188.5460  177.4670  140.4360 S   0  0  0  0  0  0  0  0  0  0  0  0
  186.0000  178.3500  142.4920 C   0  0  0  0  0  0  0  0  0  0  0  0
  187.2110  178.4720  140.2850 C   0  0  0  0  0  0  0  0  0  0  0  0
  185.0690  179.2890  140.3100 C   0  0  2  0  0  3  0  0  0  0  0  0
  190.8960  176.0500  138.9360 C   0  0  0  0  0  2  0  0  0  0  0  0
  189.6500  176.2890  138.0660 C   0  0  0  0  0  3  0  0  0  0  0  0
  191.0650  176.0310  135.9740 C   0  0  0  0  0  2  0  0  0  0  0  0
  192.1430  175.7650  138.0920 C   0  0  0  0  0  2  0  0  0  0  0  0
  190.0260  176.8930  136.7110 C   0  0  0  0  0  2  0  0  0  0  0  0
  191.7640  175.0820  136.8530 N   0  0  0  0  0  0  0  0  0  0  0  0
  192.9890  174.7070  136.1620 C   0  0  0  0  0  2  0  0  0  0  0  0
  194.1730  172.4370  135.9640 N   0  0  0  0  0  2  0  0  0  0  0  0
  195.4350  172.8090  136.5390 C   0  0  0  0  0  0  0  0  0  0  0  0
  192.9920  173.2440  135.8420 C   0  0  0  0  0  0  0  0  0  0  0  0
  191.9400  172.7160  135.3930 O   0  0  0  0  0  0  0  0  0  0  0  0
  196.4290  171.9860  136.4330 N   0  0  0  0  0  2  0  0  0  0  0  0
  195.5360  173.8450  138.7970 C   0  0  0  0  0  1  0  0  0  0  0  0
  195.6100  174.0880  137.3010 C   0  0  0  0  0  3  0  0  0  0  0  0
  196.9230  174.7610  136.9480 C   0  0  0  0  0  1  0  0  0  0  0  0
  186.7770  178.3420  144.8030 C   0  0  0  0  0  0  0  0  0  0  0  0
  185.5470  179.1390  146.6230 O   0  0  0  0  0  1  0  0  0  0  0  0
  187.0450  178.3440  143.5250 C   0  0  0  0  0  3  0  0  0  0  0  0
  186.5340  178.3220  146.0850 C   0  0  0  0  0  0  0  0  0  0  0  0
  187.3040  177.4040  146.9680 C   0  0  0  0  0  2  0  0  0  0  0  0
  188.6170  177.9660  147.2380 N   0  0  0  0  0  2  0  0  0  0  0  0
  189.5880  176.9480  146.8760 C   0  0  0  0  0  2  0  0  0  0  0  0
  189.7490  176.5110  144.5570 F   0  0  0  0  0  0  0  0  0  0  0  0
  190.2670  177.3020  145.5630 C   0  0  0  0  0  0  0  0  0  0  0  0
  190.0420  178.6320  145.2570 F   0  0  0  0  0  0  0  0  0  0  0  0
  191.6280  177.0770  145.6610 F   0  0  0  0  0  0  0  0  0  0  0  0
  182.5860  179.2920  138.6000 C   0  0  0  0  0  2  0  0  0  0  0  0
  181.1710  179.8190  138.4650 C   0  0  0  0  0  2  0  0  0  0  0  0
  180.9050  182.0370  137.4000 C   0  0  0  0  0  1  0  0  0  0  0  0
  181.1670  181.3130  138.7060 C   0  0  0  0  0  2  0  0  0  0  0  0
  1 13  2  0  0  0  0
  3  2  1  0  0  0  0
  4  1  1  0  0  0  0
  5 11  1  0  0  0  0
  6 12  1  0  0  0  0
  7  3  2  0  0  0  0
  8  5  2  0  0  0  0
  8  1  1  0  0  0  0
  9  8  1  0  0  0  0
 10  7  1  0  0  0  0
 12  2  2  0  0  0  0
 12 32  1  0  0  0  0
 13 11  1  0  0  0  0
 13  6  1  0  0  0  0
 14  4  1  6  0  0  0
 14  7  1  0  0  0  0
 14  6  1  0  0  0  0
 16  5  1  0  0  0  0
 16 15  1  0  0  0  0
 17 19  1  0  0  0  0
 17 20  1  0  0  0  0
 18 15  1  0  0  0  0
 19 16  1  0  0  0  0
 20 18  1  0  0  0  0
 21 20  1  0  0  0  0
 22 23  1  0  0  0  0
 23 28  1  0  0  0  0
 24 22  1  0  0  0  0
 24 21  1  0  0  0  0
 25 24  2  0  0  0  0
 26 23  2  0  0  0  0
 28 27  1  0  0  0  0
 29 28  1  0  0  0  0
 30 33  2  0  0  0  0
 32 30  2  0  0  0  0
 33 31  1  0  0  0  0
 33 34  1  0  0  0  0
 34 35  1  0  0  0  0
 36 35  1  0  0  0  0
 37 38  1  0  0  0  0
 38 40  1  0  0  0  0
 38 36  1  0  0  0  0
 39 38  1  0  0  0  0
 41 10  1  0  0  0  0
 42 41  1  0  0  0  0
 42 44  1  0  0  0  0
 43 44  1  0  0  0  0
M  END
>  <MODEL>
3

>  <REMARK>
 VINA RESULT:      -7.0      1.546      1.992
  Name = 
  12 active torsions:
  status: ('A' for Active; 'I' for Inactive)
    1  A    between atoms: N_4  and  C_19
    2  A    between atoms: N_4  and  C_26
    3  A    between atoms: C_8  and  N_30
    4  A    between atoms: C_8  and  C_42
    5  A    between atoms: C_10  and  C_26
    6  A    between atoms: C_12  and  C_32
    7  A    between atoms: C_15  and  C_24
    8  A    between atoms: C_17  and  C_20
    9  A    between atoms: C_17  and  N_44
   10  A    between atoms: C_19  and  C_41
   11  A    between atoms: C_22  and  C_42
   12  A    between atoms: C_31  and  C_38
                            x       y       z     vdW  Elec       q    Type
                         _______ _______ _______ _____ _____    ______ ____

>  <TORSDO>
F 12

$$$$
=
 OpenBabel10222422053D

 44 47  0  0  1  0  0  0  0  0999 V2000
  186.0070  178.1060  137.8390 C   0  0  0  0  0  0  0  0  0  0  0  0
  183.7360  177.7620  141.4430 C   0  0  0  0  0  3  0  0  0  0  0  0
  182.8990  177.1900  140.4280 N   0  0  0  0  0  0  0  0  0  0  0  0
  184.6650  178.1140  137.5280 O   0  0  0  0  0  0  0  0  0  0  0  0
  188.2080  177.5040  138.0910 C   0  0  0  0  0  0  0  0  0  0  0  0
  184.9790  178.8390  139.7270 N   0  0  0  0  0  0  0  0  0  0  0  0
  182.9710  177.5090  139.1660 C   0  0  0  0  0  0  0  0  0  0  0  0
  187.1070  177.5310  137.2190 C   0  0  0  0  0  0  0  0  0  0  0  0
  187.0690  176.9020  135.8680 C   0  0  0  0  0  1  0  0  0  0  0  0
  182.0680  176.8810  138.2510 N   0  0  0  0  0  2  0  0  0  0  0  0
  187.7480  178.1720  139.6020 S   0  0  0  0  0  0  0  0  0  0  0  0
  184.7430  178.5700  141.1170 C   0  0  0  0  0  0  0  0  0  0  0  0
  186.2090  178.5770  139.0680 C   0  0  0  0  0  0  0  0  0  0  0  0
  183.9470  178.5710  138.6930 C   0  0  2  0  0  3  0  0  0  0  0  0
  189.4620  175.4690  137.2660 C   0  0  0  0  0  2  0  0  0  0  0  0
  189.5530  176.9250  137.7550 C   0  0  0  0  0  3  0  0  0  0  0  0
  191.8960  176.4810  138.6290 C   0  0  0  0  0  2  0  0  0  0  0  0
  190.7560  174.6910  137.5260 C   0  0  0  0  0  2  0  0  0  0  0  0
  190.5030  177.0520  138.9480 C   0  0  0  0  0  2  0  0  0  0  0  0
  191.9070  175.5950  137.4560 N   0  0  0  0  0  0  0  0  0  0  0  0
  193.1120  174.7850  137.5640 C   0  0  0  0  0  2  0  0  0  0  0  0
  194.9000  174.4140  135.7600 N   0  0  0  0  0  2  0  0  0  0  0  0
  194.6470  173.0260  135.4960 C   0  0  0  0  0  0  0  0  0  0  0  0
  194.1750  175.2880  136.6370 C   0  0  0  0  0  0  0  0  0  0  0  0
  194.4840  176.5100  136.6700 O   0  0  0  0  0  0  0  0  0  0  0  0
  195.4990  172.3680  134.7770 N   0  0  0  0  0  2  0  0  0  0  0  0
  192.2890  172.4530  134.9580 C   0  0  0  0  0  1  0  0  0  0  0  0
  193.4030  172.3440  135.9810 C   0  0  0  0  0  3  0  0  0  0  0  0
  193.6690  170.8870  136.3070 C   0  0  0  0  0  1  0  0  0  0  0  0
  185.2120  179.1050  143.4500 C   0  0  0  0  0  0  0  0  0  0  0  0
  183.6020  179.2230  145.1380 O   0  0  0  0  0  1  0  0  0  0  0  0
  185.5440  179.1780  142.1880 C   0  0  0  0  0  3  0  0  0  0  0  0
  184.9120  179.0290  144.7170 C   0  0  0  0  0  0  0  0  0  0  0  0
  185.9750  178.7130  145.7100 C   0  0  0  0  0  2  0  0  0  0  0  0
  186.4920  177.3760  145.4680 N   0  0  0  0  0  2  0  0  0  0  0  0
  187.9350  177.5030  145.3570 C   0  0  0  0  0  2  0  0  0  0  0  0
  189.5740  176.3470  144.1020 F   0  0  0  0  0  0  0  0  0  0  0  0
  188.4040  177.0720  143.9770 C   0  0  0  0  0  0  0  0  0  0  0  0
  187.4410  176.2810  143.3760 F   0  0  0  0  0  0  0  0  0  0  0  0
  188.6420  178.1840  143.1910 F   0  0  0  0  0  0  0  0  0  0  0  0
  181.9200  177.2930  136.8640 C   0  0  0  0  0  2  0  0  0  0  0  0
  181.7210  176.0690  135.9920 C   0  0  0  0  0  2  0  0  0  0  0  0
  183.9260  175.0400  135.5400 C   0  0  0  0  0  1  0  0  0  0  0  0
  182.8580  175.9700  134.9980 C   0  0  0  0  0  2  0  0  0  0  0  0
  1 13  2  0  0  0  0
  3  2  1  0  0  0  0
  4  1  1  0  0  0  0
  5 11  1  0  0  0  0
  6 12  1  0  0  0  0
  7  3  2  0  0  0  0
  8  1  1  0  0  0  0
  8  5  2  0  0  0  0
  9  8  1  0  0  0  0
 10  7  1  0  0  0  0
 12  2  2  0  0  0  0
 12 32  1  0  0  0  0
 13 11  1  0  0  0  0
 13  6  1  0  0  0  0
 14  4  1  6  0  0  0
 14  7  1  0  0  0  0
 14  6  1  0  0  0  0
 15 18  1  0  0  0  0
 15 16  1  0  0  0  0
 16  5  1  0  0  0  0
 16 19  1  0  0  0  0
 17 19  1  0  0  0  0
 20 18  1  0  0  0  0
 20 21  1  0  0  0  0
 20 17  1  0  0  0  0
 22 24  1  0  0  0  0
 23 22  1  0  0  0  0
 23 28  1  0  0  0  0
 24 25  2  0  0  0  0
 24 21  1  0  0  0  0
 26 23  2  0  0  0  0
 27 28  1  0  0  0  0
 28 29  1  0  0  0  0
 30 33  2  0  0  0  0
 32 30  2  0  0  0  0
 33 31  1  0  0  0  0
 33 34  1  0  0  0  0
 35 34  1  0  0  0  0
 36 35  1  0  0  0  0
 38 37  1  0  0  0  0
 38 36  1  0  0  0  0
 39 38  1  0  0  0  0
 40 38  1  0  0  0  0
 41 10  1  0  0  0  0
 42 41  1  0  0  0  0
 44 43  1  0  0  0  0
 44 42  1  0  0  0  0
M  END
>  <MODEL>
4

>  <REMARK>
 VINA RESULT:      -7.0      1.436      2.129
  Name = 
  12 active torsions:
  status: ('A' for Active; 'I' for Inactive)
    1  A    between atoms: N_4  and  C_19
    2  A    between atoms: N_4  and  C_26
    3  A    between atoms: C_8  and  N_30
    4  A    between atoms: C_8  and  C_42
    5  A    between atoms: C_10  and  C_26
    6  A    between atoms: C_12  and  C_32
    7  A    between atoms: C_15  and  C_24
    8  A    between atoms: C_17  and  C_20
    9  A    between atoms: C_17  and  N_44
   10  A    between atoms: C_19  and  C_41
   11  A    between atoms: C_22  and  C_42
   12  A    between atoms: C_31  and  C_38
                            x       y       z     vdW  Elec       q    Type
                         _______ _______ _______ _____ _____    ______ ____

>  <TORSDO>
F 12

$$$$
=
 OpenBabel10222422053D

 44 47  0  0  1  0  0  0  0  0999 V2000
  188.4490  178.2520  144.0280 C   0  0  0  0  0  0  0  0  0  0  0  0
  192.0110  176.2920  142.7100 C   0  0  0  0  0  3  0  0  0  0  0  0
  191.8290  175.8490  144.0620 N   0  0  0  0  0  0  0  0  0  0  0  0
  189.2570  178.0060  145.1160 O   0  0  0  0  0  0  0  0  0  0  0  0
  186.7520  178.1880  142.4820 C   0  0  0  0  0  0  0  0  0  0  0  0
  190.5470  178.1070  143.1710 N   0  0  0  0  0  0  0  0  0  0  0  0
  191.1860  176.5320  144.9680 C   0  0  0  0  0  0  0  0  0  0  0  0
  187.0740  178.1860  143.8490 C   0  0  0  0  0  0  0  0  0  0  0  0
  186.0980  177.9950  144.9600 C   0  0  0  0  0  1  0  0  0  0  0  0
  191.0880  175.9910  146.2880 N   0  0  0  0  0  2  0  0  0  0  0  0
  188.1980  178.2400  141.5620 S   0  0  0  0  0  0  0  0  0  0  0  0
  191.4020  177.3900  142.2680 C   0  0  0  0  0  0  0  0  0  0  0  0
  189.1770  178.3750  142.9200 C   0  0  0  0  0  0  0  0  0  0  0  0
  190.6140  177.8990  144.6400 C   0  0  2  0  0  3  0  0  0  0  0  0
  185.2710  178.5770  140.4710 C   0  0  0  0  0  2  0  0  0  0  0  0
  185.3570  178.0990  141.9300 C   0  0  0  0  0  3  0  0  0  0  0  0
  182.9380  178.7790  142.2930 C   0  0  0  0  0  2  0  0  0  0  0  0
  183.8710  179.0880  140.1130 C   0  0  0  0  0  2  0  0  0  0  0  0
  184.3800  178.8640  142.8240 C   0  0  0  0  0  2  0  0  0  0  0  0
  182.8600  178.3620  140.8850 N   0  0  0  0  0  0  0  0  0  0  0  0
  181.5510  178.7810  140.4040 C   0  0  0  0  0  2  0  0  0  0  0  0
  180.0780  176.8180  139.6520 N   0  0  0  0  0  2  0  0  0  0  0  0
  180.6150  176.6480  138.3310 C   0  0  0  0  0  0  0  0  0  0  0  0
  180.5240  177.7240  140.6710 C   0  0  0  0  0  0  0  0  0  0  0  0
  179.9900  177.6680  141.8110 O   0  0  0  0  0  0  0  0  0  0  0  0
  179.9870  175.8740  137.5040 N   0  0  0  0  0  2  0  0  0  0  0  0
  183.0120  176.2650  137.7970 C   0  0  0  0  0  1  0  0  0  0  0  0
  181.9020  177.2910  137.9120 C   0  0  0  0  0  3  0  0  0  0  0  0
  181.7420  178.0330  136.5990 C   0  0  0  0  0  1  0  0  0  0  0  0
  191.0870  177.2930  139.8510 C   0  0  0  0  0  0  0  0  0  0  0  0
  190.4000  175.3960  138.6750 O   0  0  0  0  0  1  0  0  0  0  0  0
  191.6550  177.8410  140.8930 C   0  0  0  0  0  3  0  0  0  0  0  0
  190.5190  176.7750  138.7980 C   0  0  0  0  0  0  0  0  0  0  0  0
  189.9750  177.6670  137.7380 C   0  0  0  0  0  2  0  0  0  0  0  0
  188.6160  178.0590  138.0730 N   0  0  0  0  0  2  0  0  0  0  0  0
  187.9130  178.2370  136.8140 C   0  0  0  0  0  2  0  0  0  0  0  0
  186.2220  177.1460  135.5720 F   0  0  0  0  0  0  0  0  0  0  0  0
  186.5670  177.5330  136.8520 C   0  0  0  0  0  0  0  0  0  0  0  0
  186.6410  176.4130  137.6610 F   0  0  0  0  0  0  0  0  0  0  0  0
  185.5990  178.3910  137.3420 F   0  0  0  0  0  0  0  0  0  0  0  0
  190.5710  176.7400  147.4230 C   0  0  0  0  0  2  0  0  0  0  0  0
  189.2350  176.1600  147.8440 C   0  0  0  0  0  2  0  0  0  0  0  0
  189.0180  178.5080  148.5960 C   0  0  0  0  0  1  0  0  0  0  0  0
  188.2610  177.2870  148.1120 C   0  0  0  0  0  2  0  0  0  0  0  0
  1  4  1  0  0  0  0
  2  3  1  0  0  0  0
  3  7  2  0  0  0  0
  5  8  2  0  0  0  0
  6 14  1  0  0  0  0
  7 10  1  0  0  0  0
  8  1  1  0  0  0  0
  8  9  1  0  0  0  0
 10 41  1  0  0  0  0
 11  5  1  0  0  0  0
 11 13  1  0  0  0  0
 12  2  2  0  0  0  0
 12  6  1  0  0  0  0
 13  6  1  0  0  0  0
 13  1  2  0  0  0  0
 14  7  1  6  0  0  0
 14  4  1  0  0  0  0
 15 16  1  0  0  0  0
 16  5  1  0  0  0  0
 16 19  1  0  0  0  0
 17 19  1  0  0  0  0
 18 15  1  0  0  0  0
 18 20  1  0  0  0  0
 20 17  1  0  0  0  0
 21 24  1  0  0  0  0
 21 20  1  0  0  0  0
 22 24  1  0  0  0  0
 23 22  1  0  0  0  0
 24 25  2  0  0  0  0
 26 23  2  0  0  0  0
 27 28  1  0  0  0  0
 28 23  1  0  0  0  0
 29 28  1  0  0  0  0
 30 32  2  0  0  0  0
 31 33  1  0  0  0  0
 32 12  1  0  0  0  0
 33 30  2  0  0  0  0
 34 35  1  0  0  0  0
 34 33  1  0  0  0  0
 36 38  1  0  0  0  0
 36 35  1  0  0  0  0
 37 38  1  0  0  0  0
 38 40  1  0  0  0  0
 38 39  1  0  0  0  0
 41 42  1  0  0  0  0
 42 44  1  0  0  0  0
 44 43  1  0  0  0  0
M  END
>  <MODEL>
5

>  <REMARK>
 VINA RESULT:      -6.9      3.849     10.364
  Name = 
  12 active torsions:
  status: ('A' for Active; 'I' for Inactive)
    1  A    between atoms: N_4  and  C_19
    2  A    between atoms: N_4  and  C_26
    3  A    between atoms: C_8  and  N_30
    4  A    between atoms: C_8  and  C_42
    5  A    between atoms: C_10  and  C_26
    6  A    between atoms: C_12  and  C_32
    7  A    between atoms: C_15  and  C_24
    8  A    between atoms: C_17  and  C_20
    9  A    between atoms: C_17  and  N_44
   10  A    between atoms: C_19  and  C_41
   11  A    between atoms: C_22  and  C_42
   12  A    between atoms: C_31  and  C_38
                            x       y       z     vdW  Elec       q    Type
                         _______ _______ _______ _____ _____    ______ ____

>  <TORSDO>
F 12

$$$$
=
 OpenBabel10222422053D

 44 47  0  0  1  0  0  0  0  0999 V2000
  190.9900  177.1850  139.3680 C   0  0  0  0  0  0  0  0  0  0  0  0
  189.7310  175.2360  135.7790 C   0  0  0  0  0  3  0  0  0  0  0  0
  190.9270  174.5450  136.1700 N   0  0  0  0  0  0  0  0  0  0  0  0
  192.0920  176.6560  138.7330 O   0  0  0  0  0  0  0  0  0  0  0  0
  189.2700  177.5800  140.8380 C   0  0  0  0  0  0  0  0  0  0  0  0
  190.3840  177.0380  137.1840 N   0  0  0  0  0  0  0  0  0  0  0  0
  191.8710  175.0830  136.8900 C   0  0  0  0  0  0  0  0  0  0  0  0
  190.6350  177.2750  140.7070 C   0  0  0  0  0  0  0  0  0  0  0  0
  191.5520  176.9470  141.8360 C   0  0  0  0  0  1  0  0  0  0  0  0
  193.0250  174.2970  137.2000 N   0  0  0  0  0  2  0  0  0  0  0  0
  188.5660  177.6940  139.2790 S   0  0  0  0  0  0  0  0  0  0  0  0
  189.4610  176.4480  136.2570 C   0  0  0  0  0  0  0  0  0  0  0  0
  190.0300  177.4670  138.4900 C   0  0  0  0  0  0  0  0  0  0  0  0
  191.7730  176.5330  137.3310 C   0  0  2  0  0  3  0  0  0  0  0  0
  188.6590  176.4650  143.0240 C   0  0  0  0  0  2  0  0  0  0  0  0
  188.5470  177.7240  142.1470 C   0  0  0  0  0  3  0  0  0  0  0  0
  186.3190  178.2760  143.2340 C   0  0  0  0  0  2  0  0  0  0  0  0
  187.4820  176.3300  143.9950 C   0  0  0  0  0  2  0  0  0  0  0  0
  187.0850  178.1060  141.9090 C   0  0  0  0  0  2  0  0  0  0  0  0
  186.9970  177.6570  144.3820 N   0  0  0  0  0  0  0  0  0  0  0  0
  185.9820  177.4760  145.4090 C   0  0  0  0  0  2  0  0  0  0  0  0
  186.6170  178.9890  147.3840 N   0  0  0  0  0  2  0  0  0  0  0  0
  187.7560  178.2510  147.8550 C   0  0  0  0  0  0  0  0  0  0  0  0
  185.8190  178.7230  146.2220 C   0  0  0  0  0  0  0  0  0  0  0  0
  184.9100  179.5390  145.9090 O   0  0  0  0  0  0  0  0  0  0  0  0
  188.2620  178.5640  149.0040 N   0  0  0  0  0  2  0  0  0  0  0  0
  189.7080  177.6610  146.4340 C   0  0  0  0  0  1  0  0  0  0  0  0
  188.3990  177.1790  147.0290 C   0  0  0  0  0  3  0  0  0  0  0  0
  188.6310  175.9230  147.8470 C   0  0  0  0  0  1  0  0  0  0  0  0
  187.0680  176.5950  135.8080 C   0  0  0  0  0  0  0  0  0  0  0  0
  185.6730  174.7620  135.4200 O   0  0  0  0  0  1  0  0  0  0  0  0
  188.2530  177.1440  135.7920 C   0  0  0  0  0  3  0  0  0  0  0  0
  185.8720  176.0740  135.8310 C   0  0  0  0  0  0  0  0  0  0  0  0
  184.7240  176.8840  136.3210 C   0  0  0  0  0  2  0  0  0  0  0  0
  185.0000  177.3680  137.6640 N   0  0  0  0  0  2  0  0  0  0  0  0
  183.7830  178.0080  138.1330 C   0  0  0  0  0  2  0  0  0  0  0  0
  183.6760  178.2500  140.4830 F   0  0  0  0  0  0  0  0  0  0  0  0
  184.0770  178.8970  139.3300 C   0  0  0  0  0  0  0  0  0  0  0  0
  185.4330  179.1600  139.4040 F   0  0  0  0  0  0  0  0  0  0  0  0
  183.3830  180.0870  139.2150 F   0  0  0  0  0  0  0  0  0  0  0  0
  194.2210  174.8420  137.8230 C   0  0  0  0  0  2  0  0  0  0  0  0
  195.0480  173.7120  138.4020 C   0  0  0  0  0  2  0  0  0  0  0  0
  197.4540  174.2880  138.3430 C   0  0  0  0  0  1  0  0  0  0  0  0
  196.2010  174.2890  139.1950 C   0  0  0  0  0  2  0  0  0  0  0  0
  1  8  1  0  0  0  0
  2  3  1  0  0  0  0
  2 12  2  0  0  0  0
  3  7  2  0  0  0  0
  4  1  1  0  0  0  0
  5 16  1  0  0  0  0
  6 14  1  0  0  0  0
  6 13  1  0  0  0  0
  7 10  1  0  0  0  0
  8  5  2  0  0  0  0
  8  9  1  0  0  0  0
 10 41  1  0  0  0  0
 11  5  1  0  0  0  0
 12  6  1  0  0  0  0
 13 11  1  0  0  0  0
 13  1  2  0  0  0  0
 14  7  1  1  0  0  0
 14  4  1  0  0  0  0
 15 18  1  0  0  0  0
 16 15  1  0  0  0  0
 17 20  1  0  0  0  0
 18 20  1  0  0  0  0
 19 16  1  0  0  0  0
 19 17  1  0  0  0  0
 20 21  1  0  0  0  0
 21 24  1  0  0  0  0
 22 23  1  0  0  0  0
 23 26  2  0  0  0  0
 24 22  1  0  0  0  0
 25 24  2  0  0  0  0
 27 28  1  0  0  0  0
 28 29  1  0  0  0  0
 28 23  1  0  0  0  0
 30 33  2  0  0  0  0
 31 33  1  0  0  0  0
 32 30  2  0  0  0  0
 32 12  1  0  0  0  0
 33 34  1  0  0  0  0
 34 35  1  0  0  0  0
 35 36  1  0  0  0  0
 36 38  1  0  0  0  0
 38 39  1  0  0  0  0
 38 37  1  0  0  0  0
 40 38  1  0  0  0  0
 41 42  1  0  0  0  0
 42 44  1  0  0  0  0
 43 44  1  0  0  0  0
M  END
>  <MODEL>
6

>  <REMARK>
 VINA RESULT:      -6.8      2.820      9.995
  Name = 
  12 active torsions:
  status: ('A' for Active; 'I' for Inactive)
    1  A    between atoms: N_4  and  C_19
    2  A    between atoms: N_4  and  C_26
    3  A    between atoms: C_8  and  N_30
    4  A    between atoms: C_8  and  C_42
    5  A    between atoms: C_10  and  C_26
    6  A    between atoms: C_12  and  C_32
    7  A    between atoms: C_15  and  C_24
    8  A    between atoms: C_17  and  C_20
    9  A    between atoms: C_17  and  N_44
   10  A    between atoms: C_19  and  C_41
   11  A    between atoms: C_22  and  C_42
   12  A    between atoms: C_31  and  C_38
                            x       y       z     vdW  Elec       q    Type
                         _______ _______ _______ _____ _____    ______ ____

>  <TORSDO>
F 12

$$$$
=
 OpenBabel10222422053D

 44 47  0  0  1  0  0  0  0  0999 V2000
  192.6650  176.4330  138.0480 C   0  0  0  0  0  0  0  0  0  0  0  0
  192.0990  173.0340  135.5210 C   0  0  0  0  0  3  0  0  0  0  0  0
  193.4340  172.8940  136.0280 N   0  0  0  0  0  0  0  0  0  0  0  0
  193.8860  176.0330  137.5510 O   0  0  0  0  0  0  0  0  0  0  0  0
  190.8750  176.8520  139.4240 C   0  0  0  0  0  0  0  0  0  0  0  0
  192.1740  175.3310  136.1240 N   0  0  0  0  0  0  0  0  0  0  0  0
  194.1670  173.8970  136.4210 C   0  0  0  0  0  0  0  0  0  0  0  0
  192.2720  176.9090  139.2920 C   0  0  0  0  0  0  0  0  0  0  0  0
  193.2210  177.2860  140.3780 C   0  0  0  0  0  1  0  0  0  0  0  0
  195.4930  173.6310  136.8900 N   0  0  0  0  0  2  0  0  0  0  0  0
  190.2000  176.1840  137.9950 S   0  0  0  0  0  0  0  0  0  0  0  0
  191.4800  174.2120  135.5540 C   0  0  0  0  0  0  0  0  0  0  0  0
  191.6840  176.0960  137.2150 C   0  0  0  0  0  0  0  0  0  0  0  0
  193.6470  175.3200  136.3200 C   0  0  2  0  0  3  0  0  0  0  0  0
  190.1060  176.1680  141.7330 C   0  0  0  0  0  2  0  0  0  0  0  0
  190.1120  177.2620  140.6510 C   0  0  0  0  0  3  0  0  0  0  0  0
  187.8870  178.1270  141.5170 C   0  0  0  0  0  2  0  0  0  0  0  0
  188.8850  176.2740  142.6530 C   0  0  0  0  0  2  0  0  0  0  0  0
  188.6900  177.6860  140.2810 C   0  0  0  0  0  2  0  0  0  0  0  0
  188.4770  177.6740  142.7860 N   0  0  0  0  0  0  0  0  0  0  0  0
  187.4140  177.7340  143.7780 C   0  0  0  0  0  2  0  0  0  0  0  0
  187.3080  178.3350  146.2710 N   0  0  0  0  0  2  0  0  0  0  0  0
  185.9860  178.8970  146.2950 C   0  0  0  0  0  0  0  0  0  0  0  0
  187.9780  177.7150  145.1650 C   0  0  0  0  0  0  0  0  0  0  0  0
  189.1080  177.1890  145.3550 O   0  0  0  0  0  0  0  0  0  0  0  0
  185.6070  179.5380  147.3530 N   0  0  0  0  0  2  0  0  0  0  0  0
  183.6300  178.4130  145.6690 C   0  0  0  0  0  1  0  0  0  0  0  0
  185.0270  178.7090  145.1590 C   0  0  0  0  0  3  0  0  0  0  0  0
  185.0040  179.9270  144.2550 C   0  0  0  0  0  1  0  0  0  0  0  0
  189.0640  173.8790  135.5810 C   0  0  0  0  0  0  0  0  0  0  0  0
  187.9640  172.2170  136.8010 O   0  0  0  0  0  1  0  0  0  0  0  0
  190.1330  174.3260  134.9780 C   0  0  0  0  0  3  0  0  0  0  0  0
  187.9810  173.4560  136.1720 C   0  0  0  0  0  0  0  0  0  0  0  0
  186.7670  174.3170  136.1900 C   0  0  0  0  0  2  0  0  0  0  0  0
  186.7650  175.1910  135.0280 N   0  0  0  0  0  2  0  0  0  0  0  0
  186.0900  176.4140  135.4280 C   0  0  0  0  0  2  0  0  0  0  0  0
  187.0530  178.0860  136.7950 F   0  0  0  0  0  0  0  0  0  0  0  0
  187.0790  177.5640  135.5160 C   0  0  0  0  0  0  0  0  0  0  0  0
  188.3560  177.1140  135.2340 F   0  0  0  0  0  0  0  0  0  0  0  0
  186.7300  178.5540  134.6160 F   0  0  0  0  0  0  0  0  0  0  0  0
  196.4670  174.6750  137.1690 C   0  0  0  0  0  2  0  0  0  0  0  0
  197.3640  174.8640  135.9620 C   0  0  0  0  0  2  0  0  0  0  0  0
  196.2370  176.3610  134.3460 C   0  0  0  0  0  1  0  0  0  0  0  0
  197.2510  176.2910  135.4710 C   0  0  0  0  0  2  0  0  0  0  0  0
  1  8  1  0  0  0  0
  2 12  2  0  0  0  0
  2  3  1  0  0  0  0
  3  7  2  0  0  0  0
  4  1  1  0  0  0  0
  5 16  1  0  0  0  0
  6 14  1  0  0  0  0
  6 13  1  0  0  0  0
  7 10  1  0  0  0  0
  8  5  2  0  0  0  0
  8  9  1  0  0  0  0
 10 41  1  0  0  0  0
 11  5  1  0  0  0  0
 12  6  1  0  0  0  0
 13 11  1  0  0  0  0
 13  1  2  0  0  0  0
 14  7  1  1  0  0  0
 14  4  1  0  0  0  0
 15 18  1  0  0  0  0
 16 15  1  0  0  0  0
 17 20  1  0  0  0  0
 18 20  1  0  0  0  0
 19 16  1  0  0  0  0
 19 17  1  0  0  0  0
 20 21  1  0  0  0  0
 21 24  1  0  0  0  0
 22 23  1  0  0  0  0
 23 26  2  0  0  0  0
 24 25  2  0  0  0  0
 24 22  1  0  0  0  0
 28 27  1  0  0  0  0
 28 23  1  0  0  0  0
 29 28  1  0  0  0  0
 30 33  2  0  0  0  0
 32 12  1  0  0  0  0
 32 30  2  0  0  0  0
 33 34  1  0  0  0  0
 33 31  1  0  0  0  0
 35 36  1  0  0  0  0
 35 34  1  0  0  0  0
 36 38  1  0  0  0  0
 38 37  1  0  0  0  0
 39 38  1  0  0  0  0
 40 38  1  0  0  0  0
 42 41  1  0  0  0  0
 43 44  1  0  0  0  0
 44 42  1  0  0  0  0
M  END
>  <MODEL>
7

>  <REMARK>
 VINA RESULT:      -6.4      4.076     10.853
  Name = 
  12 active torsions:
  status: ('A' for Active; 'I' for Inactive)
    1  A    between atoms: N_4  and  C_19
    2  A    between atoms: N_4  and  C_26
    3  A    between atoms: C_8  and  N_30
    4  A    between atoms: C_8  and  C_42
    5  A    between atoms: C_10  and  C_26
    6  A    between atoms: C_12  and  C_32
    7  A    between atoms: C_15  and  C_24
    8  A    between atoms: C_17  and  C_20
    9  A    between atoms: C_17  and  N_44
   10  A    between atoms: C_19  and  C_41
   11  A    between atoms: C_22  and  C_42
   12  A    between atoms: C_31  and  C_38
                            x       y       z     vdW  Elec       q    Type
                         _______ _______ _______ _____ _____    ______ ____

>  <TORSDO>
F 12

$$$$
=
 OpenBabel10222422053D

 44 47  0  0  1  0  0  0  0  0999 V2000
  190.7920  176.8210  137.5040 C   0  0  0  0  0  0  0  0  0  0  0  0
  187.8300  175.1170  134.9380 C   0  0  0  0  0  3  0  0  0  0  0  0
  189.0420  174.4260  134.6050 N   0  0  0  0  0  0  0  0  0  0  0  0
  191.4000  176.3650  136.3540 O   0  0  0  0  0  0  0  0  0  0  0  0
  190.0820  177.0670  139.6740 C   0  0  0  0  0  0  0  0  0  0  0  0
  189.1470  176.8230  135.9380 N   0  0  0  0  0  0  0  0  0  0  0  0
  190.2320  174.9300  134.7750 C   0  0  0  0  0  0  0  0  0  0  0  0
  191.1790  176.8030  138.8370 C   0  0  0  0  0  0  0  0  0  0  0  0
  192.5390  176.4120  139.3050 C   0  0  0  0  0  1  0  0  0  0  0  0
  191.3660  174.1480  134.3870 N   0  0  0  0  0  2  0  0  0  0  0  0
  188.6780  177.2810  138.7120 S   0  0  0  0  0  0  0  0  0  0  0  0
  187.8670  176.2850  135.5760 C   0  0  0  0  0  0  0  0  0  0  0  0
  189.5230  177.1470  137.2680 C   0  0  0  0  0  0  0  0  0  0  0  0
  190.4040  176.3400  135.3120 C   0  0  2  0  0  3  0  0  0  0  0  0
  188.7990  177.5220  141.8040 C   0  0  0  0  0  2  0  0  0  0  0  0
  190.1370  177.0970  141.1750 C   0  0  0  0  0  3  0  0  0  0  0  0
  191.3750  178.0320  143.1850 C   0  0  0  0  0  2  0  0  0  0  0  0
  188.9870  178.1570  143.1860 C   0  0  0  0  0  2  0  0  0  0  0  0
  191.2830  177.9920  141.6490 C   0  0  0  0  0  2  0  0  0  0  0  0
  190.1500  177.5690  143.8530 N   0  0  0  0  0  0  0  0  0  0  0  0
  190.1970  178.0970  145.2090 C   0  0  0  0  0  2  0  0  0  0  0  0
  189.7030  176.7150  147.3150 N   0  0  0  0  0  2  0  0  0  0  0  0
  188.3930  177.2290  147.6000 C   0  0  0  0  0  0  0  0  0  0  0  0
  190.5390  177.0180  146.1890 C   0  0  0  0  0  0  0  0  0  0  0  0
  191.6270  176.3960  146.0550 O   0  0  0  0  0  0  0  0  0  0  0  0
  187.8510  176.9430  148.7400 N   0  0  0  0  0  2  0  0  0  0  0  0
  186.8380  177.1260  145.6620 C   0  0  0  0  0  1  0  0  0  0  0  0
  187.6220  178.0300  146.5940 C   0  0  0  0  0  3  0  0  0  0  0  0
  186.6880  179.0110  147.2750 C   0  0  0  0  0  1  0  0  0  0  0  0
  185.5850  176.4100  136.4280 C   0  0  0  0  0  0  0  0  0  0  0  0
  184.1510  174.5810  136.6640 O   0  0  0  0  0  1  0  0  0  0  0  0
  186.6060  176.9860  135.8520 C   0  0  0  0  0  3  0  0  0  0  0  0
  184.5590  175.8610  137.0180 C   0  0  0  0  0  0  0  0  0  0  0  0
  183.8410  176.6020  138.0900 C   0  0  0  0  0  2  0  0  0  0  0  0
  184.1130  178.0250  137.9720 N   0  0  0  0  0  2  0  0  0  0  0  0
  184.8830  178.4000  139.1460 C   0  0  0  0  0  2  0  0  0  0  0  0
  184.5830  179.5390  141.1960 F   0  0  0  0  0  0  0  0  0  0  0  0
  183.9610  178.6670  140.3240 C   0  0  0  0  0  0  0  0  0  0  0  0
  182.7780  179.2320  139.8820 F   0  0  0  0  0  0  0  0  0  0  0  0
  183.6870  177.4840  140.9860 F   0  0  0  0  0  0  0  0  0  0  0  0
  192.7230  174.6720  134.3460 C   0  0  0  0  0  2  0  0  0  0  0  0
  193.6210  173.8150  135.2150 C   0  0  0  0  0  2  0  0  0  0  0  0
  194.6430  176.0530  135.4860 C   0  0  0  0  0  1  0  0  0  0  0  0
  194.4190  174.7050  136.1430 C   0  0  0  0  0  2  0  0  0  0  0  0
  1  8  1  0  0  0  0
  2 12  2  0  0  0  0
  3  7  2  0  0  0  0
  3  2  1  0  0  0  0
  4  1  1  0  0  0  0
  5 16  1  0  0  0  0
  6 13  1  0  0  0  0
  8  9  1  0  0  0  0
  8  5  2  0  0  0  0
 10  7  1  0  0  0  0
 11  5  1  0  0  0  0
 12 32  1  0  0  0  0
 12  6  1  0  0  0  0
 13  1  2  0  0  0  0
 13 11  1  0  0  0  0
 14  7  1  1  0  0  0
 14  6  1  0  0  0  0
 14  4  1  0  0  0  0
 15 18  1  0  0  0  0
 16 19  1  0  0  0  0
 16 15  1  0  0  0  0
 17 20  1  0  0  0  0
 18 20  1  0  0  0  0
 19 17  1  0  0  0  0
 20 21  1  0  0  0  0
 21 24  1  0  0  0  0
 22 23  1  0  0  0  0
 23 26  2  0  0  0  0
 24 22  1  0  0  0  0
 25 24  2  0  0  0  0
 27 28  1  0  0  0  0
 28 29  1  0  0  0  0
 28 23  1  0  0  0  0
 30 33  2  0  0  0  0
 31 33  1  0  0  0  0
 32 30  2  0  0  0  0
 33 34  1  0  0  0  0
 35 34  1  0  0  0  0
 35 36  1  0  0  0  0
 36 38  1  0  0  0  0
 38 40  1  0  0  0  0
 38 37  1  0  0  0  0
 39 38  1  0  0  0  0
 41 10  1  0  0  0  0
 41 42  1  0  0  0  0
 42 44  1  0  0  0  0
 43 44  1  0  0  0  0
M  END
>  <MODEL>
8

>  <REMARK>
 VINA RESULT:      -6.4      3.308      9.131
  Name = 
  12 active torsions:
  status: ('A' for Active; 'I' for Inactive)
    1  A    between atoms: N_4  and  C_19
    2  A    between atoms: N_4  and  C_26
    3  A    between atoms: C_8  and  N_30
    4  A    between atoms: C_8  and  C_42
    5  A    between atoms: C_10  and  C_26
    6  A    between atoms: C_12  and  C_32
    7  A    between atoms: C_15  and  C_24
    8  A    between atoms: C_17  and  C_20
    9  A    between atoms: C_17  and  N_44
   10  A    between atoms: C_19  and  C_41
   11  A    between atoms: C_22  and  C_42
   12  A    between atoms: C_31  and  C_38
                            x       y       z     vdW  Elec       q    Type
                         _______ _______ _______ _____ _____    ______ ____

>  <TORSDO>
F 12

$$$$
=
 OpenBabel10222422053D

 44 47  0  0  1  0  0  0  0  0999 V2000
  191.7980  176.5380  137.5140 C   0  0  0  0  0  0  0  0  0  0  0  0
  190.0020  173.7140  134.8560 C   0  0  0  0  0  3  0  0  0  0  0  0
  191.4120  173.4680  134.7520 N   0  0  0  0  0  0  0  0  0  0  0  0
  192.6890  176.2370  136.5070 O   0  0  0  0  0  0  0  0  0  0  0  0
  190.7290  176.6850  139.5410 C   0  0  0  0  0  0  0  0  0  0  0  0
  190.5030  175.8450  135.7820 N   0  0  0  0  0  0  0  0  0  0  0  0
  192.3230  174.3680  134.9940 C   0  0  0  0  0  0  0  0  0  0  0  0
  191.9630  176.7580  138.8750 C   0  0  0  0  0  0  0  0  0  0  0  0
  193.2890  176.9050  139.5400 C   0  0  0  0  0  1  0  0  0  0  0  0
  193.6980  174.0050  134.8380 N   0  0  0  0  0  2  0  0  0  0  0  0
  189.4960  176.3200  138.4060 S   0  0  0  0  0  0  0  0  0  0  0  0
  189.5480  174.8660  135.3450 C   0  0  0  0  0  0  0  0  0  0  0  0
  190.5440  176.3800  137.0960 C   0  0  0  0  0  0  0  0  0  0  0  0
  191.9280  175.7850  135.3680 C   0  0  2  0  0  3  0  0  0  0  0  0
  189.1240  177.3090  141.3930 C   0  0  0  0  0  2  0  0  0  0  0  0
  190.5440  176.8470  141.0230 C   0  0  0  0  0  3  0  0  0  0  0  0
  191.4490  177.9680  143.1140 C   0  0  0  0  0  2  0  0  0  0  0  0
  189.0910  178.0640  142.7250 C   0  0  0  0  0  2  0  0  0  0  0  0
  191.6020  177.7930  141.5930 C   0  0  0  0  0  2  0  0  0  0  0  0
  190.1330  177.5510  143.6180 N   0  0  0  0  0  0  0  0  0  0  0  0
  189.9640  178.1960  144.9120 C   0  0  0  0  0  2  0  0  0  0  0  0
  189.6030  177.0450  147.1780 N   0  0  0  0  0  2  0  0  0  0  0  0
  188.2420  177.4450  147.4010 C   0  0  0  0  0  0  0  0  0  0  0  0
  190.4120  177.2930  146.0190 C   0  0  0  0  0  0  0  0  0  0  0  0
  191.5620  176.7810  145.9600 O   0  0  0  0  0  0  0  0  0  0  0  0
  187.7230  177.2480  148.5700 N   0  0  0  0  0  2  0  0  0  0  0  0
  186.8020  176.9300  145.4410 C   0  0  0  0  0  1  0  0  0  0  0  0
  187.3990  178.0240  146.3050 C   0  0  0  0  0  3  0  0  0  0  0  0
  186.2970  178.9020  146.8670 C   0  0  0  0  0  1  0  0  0  0  0  0
  187.2530  174.2330  135.8740 C   0  0  0  0  0  0  0  0  0  0  0  0
  186.4960  172.0330  136.0880 O   0  0  0  0  0  1  0  0  0  0  0  0
  188.0980  175.1010  135.3860 C   0  0  0  0  0  3  0  0  0  0  0  0
  186.3920  173.3890  136.3720 C   0  0  0  0  0  0  0  0  0  0  0  0
  185.3090  173.8820  137.2660 C   0  0  0  0  0  2  0  0  0  0  0  0
  184.5010  174.8660  136.5650 N   0  0  0  0  0  2  0  0  0  0  0  0
  184.2410  175.9400  137.5090 C   0  0  0  0  0  2  0  0  0  0  0  0
  183.4960  177.7130  136.1340 F   0  0  0  0  0  0  0  0  0  0  0  0
  184.5710  177.2870  136.8890 C   0  0  0  0  0  0  0  0  0  0  0  0
  184.8260  178.2160  137.8820 F   0  0  0  0  0  0  0  0  0  0  0  0
  185.6800  177.1710  136.0720 F   0  0  0  0  0  0  0  0  0  0  0  0
  194.7890  174.9660  134.8880 C   0  0  0  0  0  2  0  0  0  0  0  0
  195.6760  174.6620  136.0790 C   0  0  0  0  0  2  0  0  0  0  0  0
  195.6190  173.7370  138.3740 C   0  0  0  0  0  1  0  0  0  0  0  0
  194.9550  173.7120  137.0110 C   0  0  0  0  0  2  0  0  0  0  0  0
  1  8  1  0  0  0  0
  2 12  2  0  0  0  0
  3  2  1  0  0  0  0
  3  7  2  0  0  0  0
  4  1  1  0  0  0  0
  5 16  1  0  0  0  0
  6 13  1  0  0  0  0
  8  9  1  0  0  0  0
  8  5  2  0  0  0  0
 10 41  1  0  0  0  0
 10  7  1  0  0  0  0
 11  5  1  0  0  0  0
 12 32  1  0  0  0  0
 12  6  1  0  0  0  0
 13  1  2  0  0  0  0
 13 11  1  0  0  0  0
 14  7  1  1  0  0  0
 14  6  1  0  0  0  0
 14  4  1  0  0  0  0
 15 18  1  0  0  0  0
 16 15  1  0  0  0  0
 16 19  1  0  0  0  0
 17 20  1  0  0  0  0
 18 20  1  0  0  0  0
 19 17  1  0  0  0  0
 20 21  1  0  0  0  0
 21 24  1  0  0  0  0
 22 23  1  0  0  0  0
 23 26  2  0  0  0  0
 24 22  1  0  0  0  0
 25 24  2  0  0  0  0
 27 28  1  0  0  0  0
 28 29  1  0  0  0  0
 28 23  1  0  0  0  0
 30 33  2  0  0  0  0
 31 33  1  0  0  0  0
 32 30  2  0  0  0  0
 33 34  1  0  0  0  0
 35 34  1  0  0  0  0
 35 36  1  0  0  0  0
 37 38  1  0  0  0  0
 38 36  1  0  0  0  0
 38 39  1  0  0  0  0
 40 38  1  0  0  0  0
 41 42  1  0  0  0  0
 42 44  1  0  0  0  0
 44 43  1  0  0  0  0
M  END
>  <MODEL>
9

>  <REMARK>
 VINA RESULT:      -6.4      3.895     10.083
  Name = 
  12 active torsions:
  status: ('A' for Active; 'I' for Inactive)
    1  A    between atoms: N_4  and  C_19
    2  A    between atoms: N_4  and  C_26
    3  A    between atoms: C_8  and  N_30
    4  A    between atoms: C_8  and  C_42
    5  A    between atoms: C_10  and  C_26
    6  A    between atoms: C_12  and  C_32
    7  A    between atoms: C_15  and  C_24
    8  A    between atoms: C_17  and  C_20
    9  A    between atoms: C_17  and  N_44
   10  A    between atoms: C_19  and  C_41
   11  A    between atoms: C_22  and  C_42
   12  A    between atoms: C_31  and  C_38
                            x       y       z     vdW  Elec       q    Type
                         _______ _______ _______ _____ _____    ______ ____

>  <TORSDO>
F 12

$$$$
