=
 OpenBabel10232411313D

 27 31  0  0  1  0  0  0  0  0999 V2000
  188.0180  174.4510  135.5100 O   0  0  0  0  0  0  0  0  0  0  0  0
  189.2350  177.6320  138.7680 N   0  0  0  0  0  0  0  0  0  0  0  0
  190.8380  177.3960  140.3440 C   0  0  0  0  0  0  0  0  0  0  0  0
  188.4040  177.5400  142.4120 N   0  0  0  0  0  0  0  0  0  0  0  0
  191.5640  177.0410  144.3530 N   0  0  0  0  0  0  0  0  0  0  0  0
  187.0120  177.6990  142.8320 C   0  0  0  0  0  1  0  0  0  0  0  0
  186.4080  176.8440  135.2760 N   0  0  0  0  0  1  0  0  0  0  0  0
  189.5020  177.5210  140.1610 C   0  0  0  0  0  0  0  0  0  0  0  0
  189.7250  173.9940  137.1510 C   0  0  0  0  0  2  0  0  0  0  0  0
  187.3710  177.6750  135.9820 C   0  0  1  0  0  3  0  0  0  0  0  0
  190.6560  174.9770  137.8650 C   0  0  0  0  0  2  0  0  0  0  0  0
  188.5080  177.5960  141.0780 N   0  0  0  0  0  0  0  0  0  0  0  0
  189.7260  177.1170  145.8360 C   0  0  0  0  0  3  0  0  0  0  0  0
  190.5100  177.5410  138.0600 C   0  0  1  0  0  3  0  0  0  0  0  0
  187.1500  177.5830  137.5010 C   0  0  1  0  0  3  0  0  0  0  0  0
  191.5270  177.4210  139.1030 N   0  0  0  0  0  0  0  0  0  0  0  0
  188.1430  178.4480  138.2580 C   0  0  0  0  0  2  0  0  0  0  0  0
  191.6180  177.2350  141.8010 S   0  0  0  0  0  0  0  0  0  0  0  0
  190.7740  177.2090  143.2550 C   0  0  0  0  0  0  0  0  0  0  0  0
  191.0830  176.9920  145.6170 C   0  0  0  0  0  3  0  0  0  0  0  0
  188.8910  177.2940  144.7410 C   0  0  0  0  0  3  0  0  0  0  0  0
  185.7490  178.0430  137.8570 C   0  0  0  0  0  1  0  0  0  0  0  0
  189.3600  177.3480  143.4050 C   0  0  0  0  0  0  0  0  0  0  0  0
  190.5540  176.3210  137.1200 C   0  0  2  0  0  3  0  0  0  0  0  0
  188.7930  177.3190  135.5230 C   0  0  0  0  0  2  0  0  0  0  0  0
  189.3620  176.2170  136.2960 N   0  0  0  0  0  0  0  0  0  0  0  0
  188.9420  174.8670  136.2570 C   0  0  0  0  0  0  0  0  0  0  0  0
  1 27  2  0  0  0  0
  2  8  1  0  0  0  0
  3 18  1  0  0  0  0
  4  6  1  0  0  0  0
  4 23  1  0  0  0  0
  5 20  1  0  0  0  0
  8  3  1  0  0  0  0
  8 12  2  0  0  0  0
  9 11  1  0  0  0  0
 10  7  1  6  0  0  0
 10 15  1  0  0  0  0
 12  4  1  0  0  0  0
 14  2  1  0  0  0  0
 14 16  1  1  0  0  0
 15 22  1  6  0  0  0
 15 17  1  0  0  0  0
 16  3  2  0  0  0  0
 17  2  1  0  0  0  0
 18 19  1  0  0  0  0
 19 23  1  0  0  0  0
 19  5  2  0  0  0  0
 20 13  2  0  0  0  0
 21 13  1  0  0  0  0
 23 21  2  0  0  0  0
 24 11  1  1  0  0  0
 24 14  1  0  0  0  0
 25 10  1  0  0  0  0
 25 26  1  0  0  0  0
 26 24  1  0  0  0  0
 27 26  1  0  0  0  0
 27  9  1  0  0  0  0
M  END
>  <MODEL>
1

>  <REMARK>
 VINA RESULT:      -7.9      0.000      0.000
  Name = 
  0 active torsions:
  status: ('A' for Active; 'I' for Inactive)
                            x       y       z     vdW  Elec       q    Type
                         _______ _______ _______ _____ _____    ______ ____

>  <TORSDO>
F 0

$$$$
=
 OpenBabel10232411313D

 27 31  0  0  1  0  0  0  0  0999 V2000
  180.4980  176.4060  140.3880 O   0  0  0  0  0  0  0  0  0  0  0  0
  184.3990  178.8280  141.4490 N   0  0  0  0  0  0  0  0  0  0  0  0
  186.4390  178.5680  140.5100 C   0  0  0  0  0  0  0  0  0  0  0  0
  187.3270  177.6090  143.4280 N   0  0  0  0  0  0  0  0  0  0  0  0
  190.2930  177.3660  141.1610 N   0  0  0  0  0  0  0  0  0  0  0  0
  187.1590  177.3300  144.8540 C   0  0  0  0  0  1  0  0  0  0  0  0
  179.9820  178.3410  142.4760 N   0  0  0  0  0  1  0  0  0  0  0  0
  185.7460  178.4250  141.6650 C   0  0  0  0  0  0  0  0  0  0  0  0
  182.6060  175.9450  139.3120 C   0  0  0  0  0  2  0  0  0  0  0  0
  181.1340  179.1590  142.1330 C   0  0  1  0  0  3  0  0  0  0  0  0
  183.7750  176.8970  139.0480 C   0  0  0  0  0  2  0  0  0  0  0  0
  186.1770  178.0300  142.8880 N   0  0  0  0  0  0  0  0  0  0  0  0
  190.8880  176.6310  143.3270 C   0  0  0  0  0  3  0  0  0  0  0  0
  184.2690  179.2190  140.0460 C   0  0  1  0  0  3  0  0  0  0  0  0
  182.3980  178.6300  142.8310 C   0  0  1  0  0  3  0  0  0  0  0  0
  185.6070  179.0710  139.4760 N   0  0  0  0  0  0  0  0  0  0  0  0
  183.6140  179.4740  142.4900 C   0  0  0  0  0  2  0  0  0  0  0  0
  188.0460  178.2200  140.2820 S   0  0  0  0  0  0  0  0  0  0  0  0
  189.0060  177.6250  141.5270 C   0  0  0  0  0  0  0  0  0  0  0  0
  191.2280  176.8830  142.0130 C   0  0  0  0  0  3  0  0  0  0  0  0
  189.5860  176.8880  143.7360 C   0  0  0  0  0  3  0  0  0  0  0  0
  182.2130  178.6480  144.3360 C   0  0  0  0  0  1  0  0  0  0  0  0
  188.5830  177.3920  142.8720 C   0  0  0  0  0  0  0  0  0  0  0  0
  183.2610  178.3270  139.2970 C   0  0  2  0  0  3  0  0  0  0  0  0
  181.2500  179.2710  140.6060 C   0  0  0  0  0  2  0  0  0  0  0  0
  182.0160  178.1680  140.0290 N   0  0  0  0  0  0  0  0  0  0  0  0
  181.6100  176.8160  139.9640 C   0  0  0  0  0  0  0  0  0  0  0  0
  2  8  1  0  0  0  0
  2 17  1  0  0  0  0
  3  8  1  0  0  0  0
  4  6  1  0  0  0  0
  5 19  2  0  0  0  0
  5 20  1  0  0  0  0
  8 12  2  0  0  0  0
  9 27  1  0  0  0  0
 10  7  1  6  0  0  0
 10 15  1  0  0  0  0
 11  9  1  0  0  0  0
 12  4  1  0  0  0  0
 13 21  1  0  0  0  0
 14 16  1  6  0  0  0
 14  2  1  0  0  0  0
 15 22  1  1  0  0  0
 16  3  2  0  0  0  0
 17 15  1  0  0  0  0
 18  3  1  0  0  0  0
 18 19  1  0  0  0  0
 19 23  1  0  0  0  0
 20 13  2  0  0  0  0
 23  4  1  0  0  0  0
 23 21  2  0  0  0  0
 24 11  1  1  0  0  0
 24 26  1  0  0  0  0
 24 14  1  0  0  0  0
 25 10  1  0  0  0  0
 26 25  1  0  0  0  0
 27 26  1  0  0  0  0
 27  1  2  0  0  0  0
M  END
>  <MODEL>
2

>  <REMARK>
 VINA RESULT:      -7.7      4.168      6.190
  Name = 
  0 active torsions:
  status: ('A' for Active; 'I' for Inactive)
                            x       y       z     vdW  Elec       q    Type
                         _______ _______ _______ _____ _____    ______ ____

>  <TORSDO>
F 0

$$$$
=
 OpenBabel10232411313D

 27 31  0  0  1  0  0  0  0  0999 V2000
  185.1920  174.0000  135.7200 O   0  0  0  0  0  0  0  0  0  0  0  0
  187.6910  177.4200  137.7850 N   0  0  0  0  0  0  0  0  0  0  0  0
  189.7210  177.2020  138.7560 C   0  0  0  0  0  0  0  0  0  0  0  0
  188.1750  177.9400  141.4560 N   0  0  0  0  0  0  0  0  0  0  0  0
  191.7680  177.3170  142.2940 N   0  0  0  0  0  0  0  0  0  0  0  0
  187.0310  178.3320  142.2780 C   0  0  0  0  0  1  0  0  0  0  0  0
  183.7780  176.5220  135.6200 N   0  0  0  0  0  1  0  0  0  0  0  0
  188.4180  177.4700  139.0070 C   0  0  0  0  0  0  0  0  0  0  0  0
  187.3250  173.5610  136.7550 C   0  0  0  0  0  2  0  0  0  0  0  0
  184.9840  177.3130  135.8110 C   0  0  1  0  0  3  0  0  0  0  0  0
  188.5150  174.5070  136.9380 C   0  0  0  0  0  2  0  0  0  0  0  0
  187.8120  177.7970  140.1740 N   0  0  0  0  0  0  0  0  0  0  0  0
  190.5700  177.8320  144.2660 C   0  0  0  0  0  3  0  0  0  0  0  0
  188.6310  177.0700  136.7210 C   0  0  1  0  0  3  0  0  0  0  0  0
  185.2980  177.4610  137.3090 C   0  0  1  0  0  3  0  0  0  0  0  0
  189.9350  176.9680  137.3720 N   0  0  0  0  0  0  0  0  0  0  0  0
  186.5520  178.2900  137.5330 C   0  0  0  0  0  2  0  0  0  0  0  0
  190.9450  177.1480  139.8770 S   0  0  0  0  0  0  0  0  0  0  0  0
  190.6600  177.4300  141.5090 C   0  0  0  0  0  0  0  0  0  0  0  0
  191.7540  177.5050  143.6350 C   0  0  0  0  0  3  0  0  0  0  0  0
  189.4220  177.9590  143.4960 C   0  0  0  0  0  3  0  0  0  0  0  0
  184.1460  178.1410  138.0230 C   0  0  0  0  0  1  0  0  0  0  0  0
  189.4000  177.7680  142.0920 C   0  0  0  0  0  0  0  0  0  0  0  0
  188.2570  175.7370  136.0470 C   0  0  2  0  0  3  0  0  0  0  0  0
  186.1280  176.7190  134.9770 C   0  0  0  0  0  2  0  0  0  0  0  0
  186.8490  175.6720  135.6970 N   0  0  0  0  0  0  0  0  0  0  0  0
  186.3450  174.3940  136.0340 C   0  0  0  0  0  0  0  0  0  0  0  0
  1 27  2  0  0  0  0
  2  8  1  0  0  0  0
  3  8  1  0  0  0  0
  3 18  1  0  0  0  0
  4 23  1  0  0  0  0
  4  6  1  0  0  0  0
  5 20  1  0  0  0  0
  8 12  2  0  0  0  0
  9 11  1  0  0  0  0
 10  7  1  1  0  0  0
 10 15  1  0  0  0  0
 12  4  1  0  0  0  0
 14 16  1  1  0  0  0
 14  2  1  0  0  0  0
 15 17  1  0  0  0  0
 15 22  1  1  0  0  0
 16  3  2  0  0  0  0
 17  2  1  0  0  0  0
 18 19  1  0  0  0  0
 19 23  1  0  0  0  0
 19  5  2  0  0  0  0
 20 13  2  0  0  0  0
 21 13  1  0  0  0  0
 23 21  2  0  0  0  0
 24 14  1  0  0  0  0
 24 11  1  1  0  0  0
 25 26  1  0  0  0  0
 25 10  1  0  0  0  0
 26 27  1  0  0  0  0
 26 24  1  0  0  0  0
 27  9  1  0  0  0  0
M  END
>  <MODEL>
3

>  <REMARK>
 VINA RESULT:      -7.1      1.620      2.099
  Name = 
  0 active torsions:
  status: ('A' for Active; 'I' for Inactive)
                            x       y       z     vdW  Elec       q    Type
                         _______ _______ _______ _____ _____    ______ ____

>  <TORSDO>
F 0

$$$$
=
 OpenBabel10232411313D

 27 31  0  0  1  0  0  0  0  0999 V2000
  181.3840  175.7930  137.7570 O   0  0  0  0  0  0  0  0  0  0  0  0
  184.5140  178.6720  139.7880 N   0  0  0  0  0  0  0  0  0  0  0  0
  186.7590  178.4130  139.8110 C   0  0  0  0  0  0  0  0  0  0  0  0
  186.3860  178.0660  142.9670 N   0  0  0  0  0  0  0  0  0  0  0  0
  190.0180  177.6610  142.1650 N   0  0  0  0  0  0  0  0  0  0  0  0
  185.6530  178.0330  144.2320 C   0  0  0  0  0  1  0  0  0  0  0  0
  180.0610  178.0220  139.0440 N   0  0  0  0  0  1  0  0  0  0  0  0
  185.6570  178.4240  140.5970 C   0  0  0  0  0  0  0  0  0  0  0  0
  183.7470  175.3190  137.7230 C   0  0  0  0  0  2  0  0  0  0  0  0
  181.2530  178.8560  139.0340 C   0  0  1  0  0  3  0  0  0  0  0  0
  184.9230  176.2990  137.7660 C   0  0  0  0  0  2  0  0  0  0  0  0
  185.5540  178.2890  141.9410 N   0  0  0  0  0  0  0  0  0  0  0  0
  189.6810  177.3760  144.4870 C   0  0  0  0  0  3  0  0  0  0  0  0
  184.9660  178.7940  138.4020 C   0  0  1  0  0  3  0  0  0  0  0  0
  182.1240  178.5630  140.2670 C   0  0  1  0  0  3  0  0  0  0  0  0
  186.4190  178.6550  138.4540 N   0  0  0  0  0  0  0  0  0  0  0  0
  183.3730  179.4280  140.2810 C   0  0  0  0  0  2  0  0  0  0  0  0
  188.3210  178.1610  140.3150 S   0  0  0  0  0  0  0  0  0  0  0  0
  188.6930  177.8780  141.9290 C   0  0  0  0  0  0  0  0  0  0  0  0
  190.5260  177.4150  143.3950 C   0  0  0  0  0  3  0  0  0  0  0  0
  188.3250  177.5960  144.2840 C   0  0  0  0  0  3  0  0  0  0  0  0
  181.3430  178.8340  141.5390 C   0  0  0  0  0  1  0  0  0  0  0  0
  187.7600  177.8550  143.0110 C   0  0  0  0  0  0  0  0  0  0  0  0
  184.3500  177.7050  137.5050 C   0  0  2  0  0  3  0  0  0  0  0  0
  181.9800  178.7020  137.6910 C   0  0  0  0  0  2  0  0  0  0  0  0
  182.9150  177.5790  137.6950 N   0  0  0  0  0  0  0  0  0  0  0  0
  182.5720  176.2080  137.7400 C   0  0  0  0  0  0  0  0  0  0  0  0
  2 17  1  0  0  0  0
  2  8  1  0  0  0  0
  3 18  1  0  0  0  0
  3  8  1  0  0  0  0
  4 23  1  0  0  0  0
  4  6  1  0  0  0  0
  5 20  1  0  0  0  0
  8 12  2  0  0  0  0
  9 27  1  0  0  0  0
  9 11  1  0  0  0  0
 10  7  1  6  0  0  0
 10 15  1  0  0  0  0
 12  4  1  0  0  0  0
 14 16  1  1  0  0  0
 14  2  1  0  0  0  0
 15 17  1  0  0  0  0
 15 22  1  1  0  0  0
 16  3  2  0  0  0  0
 18 19  1  0  0  0  0
 19  5  2  0  0  0  0
 19 23  1  0  0  0  0
 20 13  2  0  0  0  0
 21 13  1  0  0  0  0
 23 21  2  0  0  0  0
 24 26  1  0  0  0  0
 24 11  1  1  0  0  0
 24 14  1  0  0  0  0
 25 26  1  0  0  0  0
 25 10  1  0  0  0  0
 26 27  1  0  0  0  0
 27  1  2  0  0  0  0
M  END
>  <MODEL>
4

>  <REMARK>
 VINA RESULT:      -6.6      3.546      5.027
  Name = 
  0 active torsions:
  status: ('A' for Active; 'I' for Inactive)
                            x       y       z     vdW  Elec       q    Type
                         _______ _______ _______ _____ _____    ______ ____

>  <TORSDO>
F 0

$$$$
=
 OpenBabel10232411313D

 27 31  0  0  1  0  0  0  0  0999 V2000
  190.9770  176.2170  140.5350 O   0  0  0  0  0  0  0  0  0  0  0  0
  187.5100  176.6120  137.3670 N   0  0  0  0  0  0  0  0  0  0  0  0
  185.5510  177.7030  137.6490 C   0  0  0  0  0  0  0  0  0  0  0  0
  184.2410  174.7980  137.3820 N   0  0  0  0  0  0  0  0  0  0  0  0
  181.4980  177.2690  137.9850 N   0  0  0  0  0  0  0  0  0  0  0  0
  184.2260  173.3520  137.1620 C   0  0  0  0  0  1  0  0  0  0  0  0
  191.6510  174.8380  138.0810 N   0  0  0  0  0  1  0  0  0  0  0  0
  186.0980  176.4770  137.4720 C   0  0  0  0  0  0  0  0  0  0  0  0
  188.9260  177.3790  141.0410 C   0  0  0  0  0  2  0  0  0  0  0  0
  190.7050  175.6010  137.2820 C   0  0  1  0  0  3  0  0  0  0  0  0
  187.9810  178.1150  140.0870 C   0  0  0  0  0  2  0  0  0  0  0  0
  185.4940  175.2710  137.3460 N   0  0  0  0  0  0  0  0  0  0  0  0
  180.5850  175.0960  137.8170 C   0  0  0  0  0  3  0  0  0  0  0  0
  187.8360  178.0300  137.5180 C   0  0  1  0  0  3  0  0  0  0  0  0
  189.3080  174.9620  137.3470 C   0  0  1  0  0  3  0  0  0  0  0  0
  186.5500  178.7100  137.6660 N   0  0  0  0  0  0  0  0  0  0  0  0
  188.3040  175.7400  136.5140 C   0  0  0  0  0  2  0  0  0  0  0  0
  183.9340  178.0380  137.8230 S   0  0  0  0  0  0  0  0  0  0  0  0
  182.7720  176.8230  137.7990 C   0  0  0  0  0  0  0  0  0  0  0  0
  180.4170  176.4540  137.9990 C   0  0  0  0  0  3  0  0  0  0  0  0
  181.8690  174.6070  137.6200 C   0  0  0  0  0  3  0  0  0  0  0  0
  189.3560  173.5380  136.8260 C   0  0  0  0  0  1  0  0  0  0  0  0
  183.0220  175.4310  137.6000 C   0  0  0  0  0  0  0  0  0  0  0  0
  188.7250  178.2810  138.7500 C   0  0  2  0  0  3  0  0  0  0  0  0
  190.7500  177.0770  137.7010 C   0  0  0  0  0  2  0  0  0  0  0  0
  189.8480  177.3620  138.8150 N   0  0  0  0  0  0  0  0  0  0  0  0
  190.0030  176.9130  140.1470 C   0  0  0  0  0  0  0  0  0  0  0  0
  2  8  1  0  0  0  0
  2 14  1  0  0  0  0
  3 16  2  0  0  0  0
  3 18  1  0  0  0  0
  4 23  1  0  0  0  0
  5 20  1  0  0  0  0
  6  4  1  0  0  0  0
  8  3  1  0  0  0  0
 10 15  1  0  0  0  0
 10 25  1  0  0  0  0
 10  7  1  1  0  0  0
 11  9  1  0  0  0  0
 12  4  1  0  0  0  0
 12  8  2  0  0  0  0
 13 20  2  0  0  0  0
 14 16  1  1  0  0  0
 14 24  1  0  0  0  0
 15 22  1  6  0  0  0
 17 15  1  0  0  0  0
 17  2  1  0  0  0  0
 19 18  1  0  0  0  0
 19  5  2  0  0  0  0
 21 13  1  0  0  0  0
 23 21  2  0  0  0  0
 23 19  1  0  0  0  0
 24 26  1  0  0  0  0
 24 11  1  1  0  0  0
 25 26  1  0  0  0  0
 26 27  1  0  0  0  0
 27  1  2  0  0  0  0
 27  9  1  0  0  0  0
M  END
>  <MODEL>
5

>  <REMARK>
 VINA RESULT:      -6.2      3.559      6.941
  Name = 
  0 active torsions:
  status: ('A' for Active; 'I' for Inactive)
                            x       y       z     vdW  Elec       q    Type
                         _______ _______ _______ _____ _____    ______ ____

>  <TORSDO>
F 0

$$$$
=
 OpenBabel10232411313D

 27 31  0  0  1  0  0  0  0  0999 V2000
  182.1980  174.9150  138.3100 O   0  0  0  0  0  0  0  0  0  0  0  0
  185.9470  177.7170  137.7600 N   0  0  0  0  0  0  0  0  0  0  0  0
  187.9320  177.1410  136.8470 C   0  0  0  0  0  0  0  0  0  0  0  0
  189.0940  177.6740  139.7780 N   0  0  0  0  0  0  0  0  0  0  0  0
  191.9090  176.5400  137.5900 N   0  0  0  0  0  0  0  0  0  0  0  0
  189.0470  178.0770  141.1830 C   0  0  0  0  0  1  0  0  0  0  0  0
  181.6650  177.5710  139.3270 N   0  0  0  0  0  1  0  0  0  0  0  0
  187.3340  177.5180  138.0020 C   0  0  0  0  0  0  0  0  0  0  0  0
  184.2580  174.1000  137.3590 C   0  0  0  0  0  2  0  0  0  0  0  0
  182.7190  178.1870  138.5360 C   0  0  1  0  0  3  0  0  0  0  0  0
  185.3240  174.8730  136.5760 C   0  0  0  0  0  2  0  0  0  0  0  0
  187.8780  177.7490  139.2210 N   0  0  0  0  0  0  0  0  0  0  0  0
  192.7080  176.9130  139.7820 C   0  0  0  0  0  3  0  0  0  0  0  0
  185.6900  177.4110  136.3540 C   0  0  1  0  0  3  0  0  0  0  0  0
  184.0670  178.0930  139.2700 C   0  0  1  0  0  3  0  0  0  0  0  0
  186.9930  177.0750  135.7850 N   0  0  0  0  0  0  0  0  0  0  0  0
  185.1830  178.7360  138.4650 C   0  0  0  0  0  2  0  0  0  0  0  0
  189.5440  176.7960  136.6450 S   0  0  0  0  0  0  0  0  0  0  0  0
  190.6320  176.8840  137.9220 C   0  0  0  0  0  0  0  0  0  0  0  0
  192.9360  176.5440  138.4710 C   0  0  0  0  0  3  0  0  0  0  0  0
  191.4210  177.2740  140.1560 C   0  0  0  0  0  3  0  0  0  0  0  0
  183.9840  178.7960  140.6130 C   0  0  0  0  0  1  0  0  0  0  0  0
  190.3230  177.2800  139.2600 C   0  0  0  0  0  0  0  0  0  0  0  0
  184.7110  176.2330  136.1970 C   0  0  2  0  0  3  0  0  0  0  0  0
  182.7220  177.5870  137.1230 C   0  0  0  0  0  2  0  0  0  0  0  0
  183.5360  176.3770  137.0390 N   0  0  0  0  0  0  0  0  0  0  0  0
  183.2400  175.1300  137.6380 C   0  0  0  0  0  0  0  0  0  0  0  0
  2  8  1  0  0  0  0
  2 17  1  0  0  0  0
  3  8  1  0  0  0  0
  4  6  1  0  0  0  0
  5 19  2  0  0  0  0
  5 20  1  0  0  0  0
  8 12  2  0  0  0  0
  9 27  1  0  0  0  0
 10 15  1  0  0  0  0
 10  7  1  1  0  0  0
 11  9  1  0  0  0  0
 12  4  1  0  0  0  0
 13 21  1  0  0  0  0
 14 16  1  6  0  0  0
 14  2  1  0  0  0  0
 15 22  1  1  0  0  0
 16  3  2  0  0  0  0
 17 15  1  0  0  0  0
 18  3  1  0  0  0  0
 18 19  1  0  0  0  0
 19 23  1  0  0  0  0
 20 13  2  0  0  0  0
 23  4  1  0  0  0  0
 23 21  2  0  0  0  0
 24 14  1  0  0  0  0
 24 11  1  1  0  0  0
 24 26  1  0  0  0  0
 25 10  1  0  0  0  0
 26 25  1  0  0  0  0
 26 27  1  0  0  0  0
 27  1  2  0  0  0  0
M  END
>  <MODEL>
6

>  <REMARK>
 VINA RESULT:      -6.2      3.016      5.150
  Name = 
  0 active torsions:
  status: ('A' for Active; 'I' for Inactive)
                            x       y       z     vdW  Elec       q    Type
                         _______ _______ _______ _____ _____    ______ ____

>  <TORSDO>
F 0

$$$$
=
 OpenBabel10232411313D

 27 31  0  0  1  0  0  0  0  0999 V2000
  191.6150  175.1750  138.0950 O   0  0  0  0  0  0  0  0  0  0  0  0
  187.3950  176.6500  136.6030 N   0  0  0  0  0  0  0  0  0  0  0  0
  185.9540  177.9690  137.7390 C   0  0  0  0  0  0  0  0  0  0  0  0
  184.0560  175.3960  137.7220 N   0  0  0  0  0  0  0  0  0  0  0  0
  182.3140  178.1250  139.5970 N   0  0  0  0  0  0  0  0  0  0  0  0
  183.6560  174.0310  137.3830 C   0  0  0  0  0  1  0  0  0  0  0  0
  191.0340  174.1530  135.4510 N   0  0  0  0  0  1  0  0  0  0  0  0
  186.1260  176.7220  137.2410 C   0  0  0  0  0  0  0  0  0  0  0  0
  190.1880  176.5380  139.4800 C   0  0  0  0  0  2  0  0  0  0  0  0
  190.0450  175.1810  135.1680 C   0  0  1  0  0  3  0  0  0  0  0  0
  189.1380  177.5670  139.0530 C   0  0  0  0  0  2  0  0  0  0  0  0
  185.2770  175.6660  137.2430 N   0  0  0  0  0  0  0  0  0  0  0  0
  180.9660  176.1830  139.5870 C   0  0  0  0  0  3  0  0  0  0  0  0
  188.0450  177.9510  136.7540 C   0  0  1  0  0  3  0  0  0  0  0  0
  188.6680  174.7680  135.7140 C   0  0  1  0  0  3  0  0  0  0  0  0
  187.0790  178.7880  137.4620 N   0  0  0  0  0  0  0  0  0  0  0  0
  187.6170  175.8260  135.4240 C   0  0  0  0  0  2  0  0  0  0  0  0
  184.6240  178.5190  138.5680 S   0  0  0  0  0  0  0  0  0  0  0  0
  183.3060  177.5240  138.8810 C   0  0  0  0  0  0  0  0  0  0  0  0
  181.1680  177.4990  139.9550 C   0  0  0  0  0  3  0  0  0  0  0  0
  181.9540  175.5400  138.8530 C   0  0  0  0  0  3  0  0  0  0  0  0
  188.2200  173.4660  135.0770 C   0  0  0  0  0  1  0  0  0  0  0  0
  183.1650  176.1650  138.4640 C   0  0  0  0  0  0  0  0  0  0  0  0
  189.3560  177.8430  137.5540 C   0  0  2  0  0  3  0  0  0  0  0  0
  190.5510  176.5370  135.6800 C   0  0  0  0  0  2  0  0  0  0  0  0
  190.2040  176.7630  137.0810 N   0  0  0  0  0  0  0  0  0  0  0  0
  190.7380  176.0720  138.1940 C   0  0  0  0  0  0  0  0  0  0  0  0
  1 27  2  0  0  0  0
  2 14  1  0  0  0  0
  2  8  1  0  0  0  0
  3 18  1  0  0  0  0
  4 23  1  0  0  0  0
  5 20  1  0  0  0  0
  6  4  1  0  0  0  0
  8 12  2  0  0  0  0
  8  3  1  0  0  0  0
 10  7  1  1  0  0  0
 10 25  1  0  0  0  0
 10 15  1  0  0  0  0
 11  9  1  0  0  0  0
 12  4  1  0  0  0  0
 13 20  2  0  0  0  0
 14 16  1  1  0  0  0
 14 24  1  0  0  0  0
 15 22  1  6  0  0  0
 16  3  2  0  0  0  0
 17 15  1  0  0  0  0
 17  2  1  0  0  0  0
 18 19  1  0  0  0  0
 19  5  2  0  0  0  0
 21 13  1  0  0  0  0
 23 21  2  0  0  0  0
 23 19  1  0  0  0  0
 24 11  1  1  0  0  0
 25 26  1  0  0  0  0
 26 24  1  0  0  0  0
 26 27  1  0  0  0  0
 27  9  1  0  0  0  0
M  END
>  <MODEL>
7

>  <REMARK>
 VINA RESULT:      -6.0      3.726      6.179
  Name = 
  0 active torsions:
  status: ('A' for Active; 'I' for Inactive)
                            x       y       z     vdW  Elec       q    Type
                         _______ _______ _______ _____ _____    ______ ____

>  <TORSDO>
F 0

$$$$
=
 OpenBabel10232411313D

 27 31  0  0  1  0  0  0  0  0999 V2000
  183.2960  173.1710  136.9520 O   0  0  0  0  0  0  0  0  0  0  0  0
  186.6380  176.4850  136.7080 N   0  0  0  0  0  0  0  0  0  0  0  0
  188.8650  176.1370  136.5440 C   0  0  0  0  0  0  0  0  0  0  0  0
  188.9870  177.5060  139.4310 N   0  0  0  0  0  0  0  0  0  0  0  0
  192.4610  176.5190  138.4550 N   0  0  0  0  0  0  0  0  0  0  0  0
  188.4570  178.1820  140.6150 C   0  0  0  0  0  1  0  0  0  0  0  0
  182.1390  175.8210  137.0530 N   0  0  0  0  0  1  0  0  0  0  0  0
  187.8970  176.6240  137.3550 C   0  0  0  0  0  0  0  0  0  0  0  0
  185.6370  172.6020  136.8370 C   0  0  0  0  0  2  0  0  0  0  0  0
  183.2970  176.4520  136.4400 C   0  0  1  0  0  3  0  0  0  0  0  0
  186.7830  173.3870  136.1930 C   0  0  0  0  0  2  0  0  0  0  0  0
  188.0030  177.2150  138.5700 N   0  0  0  0  0  0  0  0  0  0  0  0
  192.4900  177.5050  140.6030 C   0  0  0  0  0  3  0  0  0  0  0  0
  186.8690  175.8400  135.4160 C   0  0  1  0  0  3  0  0  0  0  0  0
  184.3520  176.7900  137.5060 C   0  0  1  0  0  3  0  0  0  0  0  0
  188.3170  175.6580  135.3260 N   0  0  0  0  0  0  0  0  0  0  0  0
  185.5700  177.4560  136.8880 C   0  0  0  0  0  2  0  0  0  0  0  0
  190.4910  176.0870  136.8790 S   0  0  0  0  0  0  0  0  0  0  0  0
  191.1110  176.6630  138.3310 C   0  0  0  0  0  0  0  0  0  0  0  0
  193.1570  176.9180  139.5460 C   0  0  0  0  0  3  0  0  0  0  0  0
  191.1150  177.6710  140.5100 C   0  0  0  0  0  3  0  0  0  0  0  0
  183.7700  177.7320  138.5430 C   0  0  0  0  0  1  0  0  0  0  0  0
  190.3560  177.2650  139.3840 C   0  0  0  0  0  0  0  0  0  0  0  0
  186.1470  174.4840  135.3190 C   0  0  2  0  0  3  0  0  0  0  0  0
  183.8120  175.5770  135.2890 C   0  0  0  0  0  2  0  0  0  0  0  0
  184.7620  174.5650  135.7480 N   0  0  0  0  0  0  0  0  0  0  0  0
  184.4580  173.4420  136.5510 C   0  0  0  0  0  0  0  0  0  0  0  0
  2 17  1  0  0  0  0
  2  8  1  0  0  0  0
  3 18  1  0  0  0  0
  3  8  1  0  0  0  0
  4  6  1  0  0  0  0
  5 20  1  0  0  0  0
  8 12  2  0  0  0  0
 10  7  1  1  0  0  0
 10 15  1  0  0  0  0
 11  9  1  0  0  0  0
 12  4  1  0  0  0  0
 14 16  1  1  0  0  0
 14  2  1  0  0  0  0
 15 22  1  1  0  0  0
 16  3  2  0  0  0  0
 17 15  1  0  0  0  0
 18 19  1  0  0  0  0
 19  5  2  0  0  0  0
 19 23  1  0  0  0  0
 20 13  2  0  0  0  0
 21 13  1  0  0  0  0
 23  4  1  0  0  0  0
 23 21  2  0  0  0  0
 24 14  1  0  0  0  0
 24 26  1  0  0  0  0
 24 11  1  1  0  0  0
 25 26  1  0  0  0  0
 25 10  1  0  0  0  0
 26 27  1  0  0  0  0
 27  9  1  0  0  0  0
 27  1  2  0  0  0  0
M  END
>  <MODEL>
8

>  <REMARK>
 VINA RESULT:      -5.7      2.921      4.513
  Name = 
  0 active torsions:
  status: ('A' for Active; 'I' for Inactive)
                            x       y       z     vdW  Elec       q    Type
                         _______ _______ _______ _____ _____    ______ ____

>  <TORSDO>
F 0

$$$$
=
 OpenBabel10232411313D

 27 31  0  0  1  0  0  0  0  0999 V2000
  190.6990  175.4780  143.2590 O   0  0  0  0  0  0  0  0  0  0  0  0
  188.4440  178.2100  140.1500 N   0  0  0  0  0  0  0  0  0  0  0  0
  186.2280  178.6530  140.1110 C   0  0  0  0  0  0  0  0  0  0  0  0
  186.2670  177.0740  137.3310 N   0  0  0  0  0  0  0  0  0  0  0  0
  182.7430  178.1120  138.0410 N   0  0  0  0  0  0  0  0  0  0  0  0
  186.8690  176.3580  136.2070 C   0  0  0  0  0  1  0  0  0  0  0  0
  192.5380  176.5650  141.3070 N   0  0  0  0  0  1  0  0  0  0  0  0
  187.2270  178.0400  139.4340 C   0  0  0  0  0  0  0  0  0  0  0  0
  188.3100  175.7880  143.3460 C   0  0  0  0  0  2  0  0  0  0  0  0
  191.6540  177.6620  140.9460 C   0  0  1  0  0  3  0  0  0  0  0  0
  187.4820  176.9910  142.8830 C   0  0  0  0  0  2  0  0  0  0  0  0
  187.1940  177.3960  138.2420 N   0  0  0  0  0  0  0  0  0  0  0  0
  182.8210  176.9060  136.0100 C   0  0  0  0  0  3  0  0  0  0  0  0
  188.1440  178.9630  141.3670 C   0  0  1  0  0  3  0  0  0  0  0  0
  190.6540  177.2150  139.8670 C   0  0  1  0  0  3  0  0  0  0  0  0
  186.7150  179.2620  141.2970 N   0  0  0  0  0  0  0  0  0  0  0  0
  189.7230  178.3480  139.4700 C   0  0  0  0  0  2  0  0  0  0  0  0
  184.6320  178.7190  139.6580 S   0  0  0  0  0  0  0  0  0  0  0  0
  184.0850  177.9880  138.2460 C   0  0  0  0  0  0  0  0  0  0  0  0
  182.1020  177.5970  136.9650 C   0  0  0  0  0  3  0  0  0  0  0  0
  184.1910  176.7630  136.1850 C   0  0  0  0  0  3  0  0  0  0  0  0
  191.3930  176.7500  138.6260 C   0  0  0  0  0  1  0  0  0  0  0  0
  184.8930  177.2880  137.2990 C   0  0  0  0  0  0  0  0  0  0  0  0
  188.4650  178.1490  142.6340 C   0  0  2  0  0  3  0  0  0  0  0  0
  191.0070  178.2400  142.2130 C   0  0  0  0  0  2  0  0  0  0  0  0
  189.7800  177.5350  142.5770 N   0  0  0  0  0  0  0  0  0  0  0  0
  189.6940  176.2090  143.0610 C   0  0  0  0  0  0  0  0  0  0  0  0
  2 14  1  0  0  0  0
  3 16  2  0  0  0  0
  4 12  1  0  0  0  0
  5 19  1  0  0  0  0
  6  4  1  0  0  0  0
  8  3  1  0  0  0  0
  8  2  1  0  0  0  0
 10  7  1  1  0  0  0
 10 25  1  0  0  0  0
 11  9  1  0  0  0  0
 12  8  2  0  0  0  0
 13 21  2  0  0  0  0
 13 20  1  0  0  0  0
 14 16  1  6  0  0  0
 14 24  1  0  0  0  0
 15 22  1  6  0  0  0
 15 10  1  0  0  0  0
 17 15  1  0  0  0  0
 17  2  1  0  0  0  0
 18  3  1  0  0  0  0
 19 18  1  0  0  0  0
 20  5  2  0  0  0  0
 21 23  1  0  0  0  0
 23  4  1  0  0  0  0
 23 19  2  0  0  0  0
 24 11  1  6  0  0  0
 25 26  1  0  0  0  0
 26 24  1  0  0  0  0
 26 27  1  0  0  0  0
 27  1  2  0  0  0  0
 27  9  1  0  0  0  0
M  END
>  <MODEL>
9

>  <REMARK>
 VINA RESULT:      -5.6      2.979      7.119
  Name = 
  0 active torsions:
  status: ('A' for Active; 'I' for Inactive)
                            x       y       z     vdW  Elec       q    Type
                         _______ _______ _______ _____ _____    ______ ____

>  <TORSDO>
F 0

$$$$
