=
 OpenBabel10232408393D

 28 33  0  0  1  0  0  0  0  0999 V2000
  190.3880  176.7860  144.2180 C   0  0  0  0  0  0  0  0  0  0  0  0
  187.9530  177.8020  142.6820 N   0  0  0  0  0  0  0  0  0  0  0  0
  191.4460  176.3840  145.0400 C   0  0  0  0  0  3  0  0  0  0  0  0
  188.8230  177.5120  141.6060 C   0  0  0  0  0  0  0  0  0  0  0  0
  191.3380  176.3540  146.4170 C   0  0  0  0  0  0  0  0  0  0  0  0
  190.0400  177.0220  141.6970 C   0  0  0  0  0  3  0  0  0  0  0  0
  192.6930  175.8430  147.3970 Cl  0  0  0  0  0  0  0  0  0  0  0  0
  184.6110  178.5310  145.0830 C   0  0  0  0  0  1  0  0  0  0  0  0
  190.7390  176.7140  142.9320 C   0  0  0  0  0  3  0  0  0  0  0  0
  189.1190  177.1570  144.8010 C   0  0  0  0  0  0  0  0  0  0  0  0
  188.3620  176.3050  138.1060 C   0  0  0  0  0  3  0  0  0  0  0  0
  187.9890  177.4500  144.0750 C   0  0  0  0  0  0  0  0  0  0  0  0
  188.1150  177.8660  140.3570 C   0  0  1  0  0  0  0  0  0  0  0  0
  189.0750  177.1760  146.2470 C   0  0  0  0  0  0  0  0  0  0  0  0
  185.8610  178.6120  144.3430 N   0  0  0  0  0  0  0  0  0  0  0  0
  189.0620  176.9990  137.0510 C   0  0  0  0  0  0  0  0  0  0  0  0
  189.2680  176.3140  135.8200 N   0  0  0  0  0  1  0  0  0  0  0  0
  188.7830  178.4790  139.2960 C   0  0  0  0  0  0  0  0  0  0  0  0
  189.4370  179.1240  138.3040 C   0  0  0  0  0  3  0  0  0  0  0  0
  187.7930  177.8730  147.2430 Cl  0  0  0  0  0  0  0  0  0  0  0  0
  189.5500  178.3150  137.1810 N   0  0  0  0  0  0  0  0  0  0  0  0
  185.5290  178.6010  142.9090 C   0  0  1  0  0  3  0  0  0  0  0  0
  184.9760  179.8930  142.5260 N   0  0  0  0  0  1  0  0  0  0  0  0
  186.6140  177.4070  144.6940 C   0  0  0  0  0  2  0  0  0  0  0  0
  188.2640  177.1130  139.1930 C   0  0  0  0  0  0  0  0  0  0  0  0
  186.7710  178.3530  140.7460 C   0  0  0  0  0  3  0  0  0  0  0  0
  186.7500  178.3120  142.0820 C   0  0  0  0  0  0  0  0  0  0  0  0
  190.1670  176.7710  147.0120 C   0  0  0  0  0  3  0  0  0  0  0  0
  1 10  1  0  0  0  0
  1  3  1  0  0  0  0
  2 12  1  0  0  0  0
  3  5  2  0  0  0  0
  4  6  2  0  0  0  0
  4  2  1  0  0  0  0
  5 28  1  0  0  0  0
  5  7  1  0  0  0  0
  6  9  1  0  0  0  0
  9  1  2  0  0  0  0
 10 14  1  0  0  0  0
 11 25  1  0  0  0  0
 12 24  1  0  0  0  0
 12 10  2  0  0  0  0
 13 26  1  1  0  0  0
 13  4  1  0  0  0  0
 14 28  2  0  0  0  0
 14 20  1  0  0  0  0
 15 24  1  0  0  0  0
 15  8  1  0  0  0  0
 16 21  1  0  0  0  0
 16 11  2  0  0  0  0
 17 16  1  0  0  0  0
 18 13  1  0  0  0  0
 19 18  1  0  0  0  0
 21 19  2  0  0  0  0
 22 23  1  6  0  0  0
 22 15  1  0  0  0  0
 25 18  2  0  0  0  0
 25 13  1  0  0  0  0
 26 27  2  0  0  0  0
 27  2  1  0  0  0  0
 27 22  1  0  0  0  0
M  END
>  <MODEL>
1

>  <REMARK>
 VINA RESULT:      -9.8      0.000      0.000
  Name = 
  0 active torsions:
  status: ('A' for Active; 'I' for Inactive)
                            x       y       z     vdW  Elec       q    Type
                         _______ _______ _______ _____ _____    ______ ____

>  <TORSDO>
F 0

$$$$
=
 OpenBabel10232408393D

 28 33  0  0  1  0  0  0  0  0999 V2000
  184.4910  178.5060  142.6400 C   0  0  0  0  0  0  0  0  0  0  0  0
  187.0470  178.2870  140.9830 N   0  0  0  0  0  0  0  0  0  0  0  0
  183.2600  178.6740  143.2830 C   0  0  0  0  0  3  0  0  0  0  0  0
  187.5670  178.0560  142.2770 C   0  0  0  0  0  0  0  0  0  0  0  0
  182.0950  178.9300  142.5860 C   0  0  0  0  0  0  0  0  0  0  0  0
  186.8830  178.0260  143.4000 C   0  0  0  0  0  3  0  0  0  0  0  0
  180.5820  179.1320  143.4410 Cl  0  0  0  0  0  0  0  0  0  0  0  0
  186.4140  178.4180  136.8550 C   0  0  0  0  0  1  0  0  0  0  0  0
  185.4550  178.2580  143.5290 C   0  0  0  0  0  3  0  0  0  0  0  0
  184.5680  178.5670  141.1980 C   0  0  0  0  0  0  0  0  0  0  0  0
  190.3490  175.9900  143.6610 C   0  0  0  0  0  3  0  0  0  0  0  0
  185.7030  178.2980  140.4710 C   0  0  0  0  0  0  0  0  0  0  0  0
  189.0270  177.8600  142.1380 C   0  0  1  0  0  0  0  0  0  0  0  0
  183.3370  178.9040  140.5180 C   0  0  0  0  0  0  0  0  0  0  0  0
  186.6360  178.7290  138.2580 N   0  0  0  0  0  0  0  0  0  0  0  0
  191.2530  176.6100  144.6000 C   0  0  0  0  0  0  0  0  0  0  0  0
  192.0090  175.7660  145.4600 N   0  0  0  0  0  1  0  0  0  0  0  0
  189.9200  178.3940  143.0680 C   0  0  0  0  0  0  0  0  0  0  0  0
  190.7690  178.9700  143.9490 C   0  0  0  0  0  3  0  0  0  0  0  0
  183.1740  179.3540  138.8170 Cl  0  0  0  0  0  0  0  0  0  0  0  0
  191.4220  178.0060  144.7050 N   0  0  0  0  0  0  0  0  0  0  0  0
  187.9940  178.2790  138.6030 C   0  0  1  0  0  3  0  0  0  0  0  0
  188.9730  179.1930  138.0290 N   0  0  0  0  0  1  0  0  0  0  0  0
  185.6440  177.9520  139.0040 C   0  0  0  0  0  2  0  0  0  0  0  0
  189.7210  176.9500  142.9340 C   0  0  0  0  0  0  0  0  0  0  0  0
  189.3390  177.9570  140.6940 C   0  0  0  0  0  3  0  0  0  0  0  0
  188.1740  178.2210  140.0940 C   0  0  0  0  0  0  0  0  0  0  0  0
  182.1430  179.0670  141.2160 C   0  0  0  0  0  3  0  0  0  0  0  0
  1  3  1  0  0  0  0
  1  9  2  0  0  0  0
  2  4  1  0  0  0  0
  4  6  2  0  0  0  0
  5  3  2  0  0  0  0
  5  7  1  0  0  0  0
  6  9  1  0  0  0  0
  8 15  1  0  0  0  0
 10  1  1  0  0  0  0
 11 16  1  0  0  0  0
 12  2  1  0  0  0  0
 12 10  2  0  0  0  0
 13 26  1  6  0  0  0
 13  4  1  0  0  0  0
 13 25  1  0  0  0  0
 13 18  1  0  0  0  0
 14 10  1  0  0  0  0
 14 28  2  0  0  0  0
 15 22  1  0  0  0  0
 15 24  1  0  0  0  0
 16 21  2  0  0  0  0
 16 17  1  0  0  0  0
 18 19  2  0  0  0  0
 19 21  1  0  0  0  0
 20 14  1  0  0  0  0
 22 23  1  6  0  0  0
 22 27  1  0  0  0  0
 24 12  1  0  0  0  0
 25 18  1  0  0  0  0
 25 11  2  0  0  0  0
 27 26  2  0  0  0  0
 27  2  1  0  0  0  0
 28  5  1  0  0  0  0
M  END
>  <MODEL>
2

>  <REMARK>
 VINA RESULT:      -9.4      3.453      6.842
  Name = 
  0 active torsions:
  status: ('A' for Active; 'I' for Inactive)
                            x       y       z     vdW  Elec       q    Type
                         _______ _______ _______ _____ _____    ______ ____

>  <TORSDO>
F 0

$$$$
=
 OpenBabel10232408393D

 28 33  0  0  1  0  0  0  0  0999 V2000
  185.8780  178.3110  143.5850 C   0  0  0  0  0  0  0  0  0  0  0  0
  186.1120  178.2690  140.5410 N   0  0  0  0  0  0  0  0  0  0  0  0
  185.8950  178.2520  144.9830 C   0  0  0  0  0  3  0  0  0  0  0  0
  184.7530  178.6300  140.6820 C   0  0  0  0  0  0  0  0  0  0  0  0
  187.0410  177.9520  145.6930 C   0  0  0  0  0  0  0  0  0  0  0  0
  184.1050  178.8060  141.8130 C   0  0  0  0  0  3  0  0  0  0  0  0
  187.0060  177.8920  147.4410 Cl  0  0  0  0  0  0  0  0  0  0  0  0
  190.0070  177.6900  139.1430 C   0  0  0  0  0  1  0  0  0  0  0  0
  184.6600  178.6310  143.1440 C   0  0  0  0  0  3  0  0  0  0  0  0
  187.0940  178.0860  142.8370 C   0  0  0  0  0  0  0  0  0  0  0  0
  182.3830  180.7590  138.7390 C   0  0  0  0  0  3  0  0  0  0  0  0
  187.2040  178.2380  141.4750 C   0  0  0  0  0  0  0  0  0  0  0  0
  184.1880  178.7670  139.3220 C   0  0  1  0  0  0  0  0  0  0  0  0
  188.2510  177.7090  143.6190 C   0  0  0  0  0  0  0  0  0  0  0  0
  188.6490  177.5330  139.6410 N   0  0  0  0  0  0  0  0  0  0  0  0
  181.0760  180.2230  138.4420 C   0  0  0  0  0  0  0  0  0  0  0  0
  180.0340  181.1370  138.1220 N   0  0  0  0  0  1  0  0  0  0  0  0
  182.9020  178.3160  139.0240 C   0  0  0  0  0  0  0  0  0  0  0  0
  181.6760  177.8190  138.7440 C   0  0  0  0  0  3  0  0  0  0  0  0
  189.7740  177.0740  142.9890 Cl  0  0  0  0  0  0  0  0  0  0  0  0
  180.7840  178.8430  138.4550 N   0  0  0  0  0  0  0  0  0  0  0  0
  187.7340  177.9810  138.5790 C   0  0  1  0  0  3  0  0  0  0  0  0
  187.6850  176.9800  137.5210 N   0  0  0  0  0  1  0  0  0  0  0  0
  188.5430  178.4180  140.8020 C   0  0  0  0  0  2  0  0  0  0  0  0
  183.2380  179.7410  139.0190 C   0  0  0  0  0  0  0  0  0  0  0  0
  185.2900  178.4980  138.3690 C   0  0  0  0  0  3  0  0  0  0  0  0
  186.3510  178.2010  139.1250 C   0  0  0  0  0  0  0  0  0  0  0  0
  188.2020  177.6600  145.0100 C   0  0  0  0  0  3  0  0  0  0  0  0
  1  3  1  0  0  0  0
  2  4  1  0  0  0  0
  2 12  1  0  0  0  0
  3  5  2  0  0  0  0
  4  6  2  0  0  0  0
  5  7  1  0  0  0  0
  6  9  1  0  0  0  0
  8 15  1  0  0  0  0
  9  1  2  0  0  0  0
 10  1  1  0  0  0  0
 10 14  1  0  0  0  0
 11 25  1  0  0  0  0
 12 10  2  0  0  0  0
 13 26  1  6  0  0  0
 13  4  1  0  0  0  0
 14 28  2  0  0  0  0
 15 24  1  0  0  0  0
 16 21  1  0  0  0  0
 16 11  2  0  0  0  0
 17 16  1  0  0  0  0
 18 13  1  0  0  0  0
 19 18  1  0  0  0  0
 20 14  1  0  0  0  0
 21 19  2  0  0  0  0
 22 23  1  6  0  0  0
 22 27  1  0  0  0  0
 22 15  1  0  0  0  0
 24 12  1  0  0  0  0
 25 18  2  0  0  0  0
 25 13  1  0  0  0  0
 26 27  2  0  0  0  0
 27  2  1  0  0  0  0
 28  5  1  0  0  0  0
M  END
>  <MODEL>
3

>  <REMARK>
 VINA RESULT:      -9.2      3.266      5.813
  Name = 
  0 active torsions:
  status: ('A' for Active; 'I' for Inactive)
                            x       y       z     vdW  Elec       q    Type
                         _______ _______ _______ _____ _____    ______ ____

>  <TORSDO>
F 0

$$$$
=
 OpenBabel10232408393D

 28 33  0  0  1  0  0  0  0  0999 V2000
  188.0280  177.7170  143.5160 C   0  0  0  0  0  0  0  0  0  0  0  0
  186.2730  178.2750  141.0800 N   0  0  0  0  0  0  0  0  0  0  0  0
  188.7330  177.5350  144.7110 C   0  0  0  0  0  3  0  0  0  0  0  0
  187.4850  177.9280  140.4410 C   0  0  0  0  0  0  0  0  0  0  0  0
  188.1350  177.6800  145.9470 C   0  0  0  0  0  0  0  0  0  0  0  0
  188.6060  177.5760  141.0310 C   0  0  0  0  0  3  0  0  0  0  0  0
  189.0630  177.4410  147.4100 Cl  0  0  0  0  0  0  0  0  0  0  0  0
  182.2610  178.9910  142.0040 C   0  0  0  0  0  1  0  0  0  0  0  0
  188.8240  177.5070  142.4650 C   0  0  0  0  0  3  0  0  0  0  0  0
  186.6190  178.0380  143.5480 C   0  0  0  0  0  0  0  0  0  0  0  0
  188.3750  176.2220  137.2440 C   0  0  0  0  0  3  0  0  0  0  0  0
  185.8170  178.1180  142.4350 C   0  0  0  0  0  0  0  0  0  0  0  0
  187.2630  178.0400  138.9820 C   0  0  1  0  0  0  0  0  0  0  0  0
  186.0540  178.2470  144.8630 C   0  0  0  0  0  0  0  0  0  0  0  0
  183.6890  179.0930  141.7470 N   0  0  0  0  0  0  0  0  0  0  0  0
  189.3790  176.8320  136.4050 C   0  0  0  0  0  0  0  0  0  0  0  0
  190.0450  176.0110  135.4530 N   0  0  0  0  0  1  0  0  0  0  0  0
  188.2430  178.5660  138.1400 C   0  0  0  0  0  0  0  0  0  0  0  0
  189.1840  179.1330  137.3520 C   0  0  0  0  0  3  0  0  0  0  0  0
  184.4700  178.9430  145.2200 Cl  0  0  0  0  0  0  0  0  0  0  0  0
  189.7300  178.1950  136.4850 N   0  0  0  0  0  0  0  0  0  0  0  0
  183.9000  178.8560  140.3100 C   0  0  1  0  0  3  0  0  0  0  0  0
  183.4680  180.0240  139.5540 N   0  0  0  0  0  1  0  0  0  0  0  0
  184.3150  178.0250  142.5290 C   0  0  0  0  0  2  0  0  0  0  0  0
  187.8560  177.1550  138.0830 C   0  0  0  0  0  0  0  0  0  0  0  0
  185.8500  178.4410  138.7910 C   0  0  0  0  0  3  0  0  0  0  0  0
  185.3490  178.5780  140.0220 C   0  0  0  0  0  0  0  0  0  0  0  0
  186.8110  178.0570  146.0180 C   0  0  0  0  0  3  0  0  0  0  0  0
  1 10  1  0  0  0  0
  1  3  1  0  0  0  0
  2 12  1  0  0  0  0
  3  5  2  0  0  0  0
  4  6  2  0  0  0  0
  4  2  1  0  0  0  0
  5 28  1  0  0  0  0
  5  7  1  0  0  0  0
  6  9  1  0  0  0  0
  9  1  2  0  0  0  0
 10 14  1  0  0  0  0
 11 25  1  0  0  0  0
 12 24  1  0  0  0  0
 12 10  2  0  0  0  0
 13 26  1  6  0  0  0
 13  4  1  0  0  0  0
 14 20  1  0  0  0  0
 14 28  2  0  0  0  0
 15  8  1  0  0  0  0
 15 24  1  0  0  0  0
 16 21  1  0  0  0  0
 16 11  2  0  0  0  0
 17 16  1  0  0  0  0
 18 13  1  0  0  0  0
 19 18  1  0  0  0  0
 21 19  2  0  0  0  0
 22 23  1  6  0  0  0
 22 15  1  0  0  0  0
 25 18  2  0  0  0  0
 25 13  1  0  0  0  0
 26 27  2  0  0  0  0
 27 22  1  0  0  0  0
 27  2  1  0  0  0  0
M  END
>  <MODEL>
4

>  <REMARK>
 VINA RESULT:      -8.8      1.776      2.652
  Name = 
  0 active torsions:
  status: ('A' for Active; 'I' for Inactive)
                            x       y       z     vdW  Elec       q    Type
                         _______ _______ _______ _____ _____    ______ ____

>  <TORSDO>
F 0

$$$$
=
 OpenBabel10232408393D

 28 33  0  0  1  0  0  0  0  0999 V2000
  189.1780  177.7550  140.6120 C   0  0  0  0  0  0  0  0  0  0  0  0
  186.5820  178.1290  142.1760 N   0  0  0  0  0  0  0  0  0  0  0  0
  190.4380  177.6190  140.0190 C   0  0  0  0  0  3  0  0  0  0  0  0
  186.0880  178.1880  140.8540 C   0  0  0  0  0  0  0  0  0  0  0  0
  191.5880  177.4540  140.7660 C   0  0  0  0  0  0  0  0  0  0  0  0
  186.7930  178.0700  139.7500 C   0  0  0  0  0  3  0  0  0  0  0  0
  193.1380  177.2880  139.9720 Cl  0  0  0  0  0  0  0  0  0  0  0  0
  187.0050  177.6640  146.3070 C   0  0  0  0  0  1  0  0  0  0  0  0
  188.2320  177.8870  139.6800 C   0  0  0  0  0  3  0  0  0  0  0  0
  189.0450  177.6930  142.0500 C   0  0  0  0  0  0  0  0  0  0  0  0
  182.9070  177.1690  139.1900 C   0  0  0  0  0  3  0  0  0  0  0  0
  187.8430  177.6970  142.7170 C   0  0  0  0  0  0  0  0  0  0  0  0
  184.6280  178.4140  140.9370 C   0  0  1  0  0  0  0  0  0  0  0  0
  190.2830  177.5880  142.7900 C   0  0  0  0  0  0  0  0  0  0  0  0
  186.9570  178.1620  144.9420 N   0  0  0  0  0  0  0  0  0  0  0  0
  182.2710  178.1160  138.3050 C   0  0  0  0  0  0  0  0  0  0  0  0
  181.3510  177.6170  137.3400 N   0  0  0  0  0  1  0  0  0  0  0  0
  183.9780  179.2740  140.0520 C   0  0  0  0  0  0  0  0  0  0  0  0
  183.3780  180.1560  139.2210 C   0  0  0  0  0  3  0  0  0  0  0  0
  190.4770  177.8020  144.5330 Cl  0  0  0  0  0  0  0  0  0  0  0  0
  182.5170  179.5040  138.3490 N   0  0  0  0  0  0  0  0  0  0  0  0
  185.5470  178.1640  144.5200 C   0  0  1  0  0  3  0  0  0  0  0  0
  184.8440  179.2630  145.1680 N   0  0  0  0  0  1  0  0  0  0  0  0
  187.7210  177.2060  144.1390 C   0  0  0  0  0  2  0  0  0  0  0  0
  183.7450  177.8280  140.0320 C   0  0  0  0  0  0  0  0  0  0  0  0
  184.2800  178.4560  142.3760 C   0  0  0  0  0  3  0  0  0  0  0  0
  185.4380  178.3080  143.0270 C   0  0  0  0  0  0  0  0  0  0  0  0
  191.5090  177.4640  142.1410 C   0  0  0  0  0  3  0  0  0  0  0  0
  1 10  1  0  0  0  0
  2 12  1  0  0  0  0
  2 27  1  0  0  0  0
  3  1  1  0  0  0  0
  3  5  2  0  0  0  0
  4 13  1  0  0  0  0
  4  2  1  0  0  0  0
  5 28  1  0  0  0  0
  6  4  2  0  0  0  0
  7  5  1  0  0  0  0
  9  6  1  0  0  0  0
  9  1  2  0  0  0  0
 10 12  2  0  0  0  0
 10 14  1  0  0  0  0
 11 25  1  0  0  0  0
 12 24  1  0  0  0  0
 13 26  1  1  0  0  0
 14 20  1  0  0  0  0
 15  8  1  0  0  0  0
 16 21  1  0  0  0  0
 16 11  2  0  0  0  0
 17 16  1  0  0  0  0
 18 13  1  0  0  0  0
 19 18  1  0  0  0  0
 21 19  2  0  0  0  0
 22 15  1  0  0  0  0
 22 23  1  1  0  0  0
 24 15  1  0  0  0  0
 25 18  2  0  0  0  0
 25 13  1  0  0  0  0
 26 27  2  0  0  0  0
 27 22  1  0  0  0  0
 28 14  2  0  0  0  0
M  END
>  <MODEL>
5

>  <REMARK>
 VINA RESULT:      -8.4      3.012      4.520
  Name = 
  0 active torsions:
  status: ('A' for Active; 'I' for Inactive)
                            x       y       z     vdW  Elec       q    Type
                         _______ _______ _______ _____ _____    ______ ____

>  <TORSDO>
F 0

$$$$
=
 OpenBabel10232408393D

 28 33  0  0  1  0  0  0  0  0999 V2000
  186.5650  178.4130  140.4070 C   0  0  0  0  0  0  0  0  0  0  0  0
  189.4280  177.3890  140.1370 N   0  0  0  0  0  0  0  0  0  0  0  0
  185.2550  178.9050  140.3850 C   0  0  0  0  0  3  0  0  0  0  0  0
  189.3800  177.6320  141.5280 C   0  0  0  0  0  0  0  0  0  0  0  0
  184.5090  178.9610  139.2240 C   0  0  0  0  0  0  0  0  0  0  0  0
  188.3480  178.0830  142.2070 C   0  0  0  0  0  3  0  0  0  0  0  0
  182.8750  179.5860  139.2550 Cl  0  0  0  0  0  0  0  0  0  0  0  0
  190.3770  175.9800  136.3190 C   0  0  0  0  0  1  0  0  0  0  0  0
  187.0610  178.4520  141.6450 C   0  0  0  0  0  3  0  0  0  0  0  0
  187.1690  177.9120  139.1930 C   0  0  0  0  0  0  0  0  0  0  0  0
  190.9380  176.0500  144.5280 C   0  0  0  0  0  3  0  0  0  0  0  0
  188.4000  177.3030  139.1360 C   0  0  0  0  0  0  0  0  0  0  0  0
  190.7080  177.2900  142.0830 C   0  0  1  0  0  0  0  0  0  0  0  0
  186.3760  178.0550  137.9920 C   0  0  0  0  0  0  0  0  0  0  0  0
  190.1400  176.7860  137.5060 N   0  0  0  0  0  0  0  0  0  0  0  0
  191.5560  176.9130  145.5060 C   0  0  0  0  0  0  0  0  0  0  0  0
  191.7410  176.4080  146.8230 N   0  0  0  0  0  1  0  0  0  0  0  0
  191.3000  178.0710  143.0770 C   0  0  0  0  0  0  0  0  0  0  0  0
  191.8790  178.8750  143.9970 C   0  0  0  0  0  3  0  0  0  0  0  0
  186.9430  177.8320  136.3340 Cl  0  0  0  0  0  0  0  0  0  0  0  0
  191.9820  178.2270  145.2210 N   0  0  0  0  0  0  0  0  0  0  0  0
  191.1450  176.4020  138.5110 C   0  0  1  0  0  3  0  0  0  0  0  0
  192.4420  176.9520  138.1400 N   0  0  0  0  0  1  0  0  0  0  0  0
  188.8000  176.4280  137.9730 C   0  0  0  0  0  2  0  0  0  0  0  0
  190.8460  176.7030  143.3400 C   0  0  0  0  0  0  0  0  0  0  0  0
  191.5350  176.8050  140.9540 C   0  0  0  0  0  3  0  0  0  0  0  0
  190.7560  176.9050  139.8730 C   0  0  0  0  0  0  0  0  0  0  0  0
  185.0780  178.5600  138.0350 C   0  0  0  0  0  3  0  0  0  0  0  0
  1  9  2  0  0  0  0
  2  4  1  0  0  0  0
  3  1  1  0  0  0  0
  4 13  1  0  0  0  0
  4  6  2  0  0  0  0
  5  7  1  0  0  0  0
  5  3  2  0  0  0  0
  8 15  1  0  0  0  0
  9  6  1  0  0  0  0
 10  1  1  0  0  0  0
 11 16  1  0  0  0  0
 12 10  2  0  0  0  0
 12  2  1  0  0  0  0
 13 26  1  6  0  0  0
 13 18  1  0  0  0  0
 13 25  1  0  0  0  0
 14 28  2  0  0  0  0
 14 10  1  0  0  0  0
 15 24  1  0  0  0  0
 15 22  1  0  0  0  0
 16 17  1  0  0  0  0
 18 25  1  0  0  0  0
 18 19  2  0  0  0  0
 19 21  1  0  0  0  0
 20 14  1  0  0  0  0
 21 16  2  0  0  0  0
 22 23  1  6  0  0  0
 22 27  1  0  0  0  0
 24 12  1  0  0  0  0
 25 11  2  0  0  0  0
 27  2  1  0  0  0  0
 27 26  2  0  0  0  0
 28  5  1  0  0  0  0
M  END
>  <MODEL>
6

>  <REMARK>
 VINA RESULT:      -8.2      3.755      7.601
  Name = 
  0 active torsions:
  status: ('A' for Active; 'I' for Inactive)
                            x       y       z     vdW  Elec       q    Type
                         _______ _______ _______ _____ _____    ______ ____

>  <TORSDO>
F 0

$$$$
=
 OpenBabel10232408393D

 28 33  0  0  1  0  0  0  0  0999 V2000
  185.8700  178.3100  142.9790 C   0  0  0  0  0  0  0  0  0  0  0  0
  188.7430  177.4920  142.3440 N   0  0  0  0  0  0  0  0  0  0  0  0
  184.5780  178.6350  143.4060 C   0  0  0  0  0  3  0  0  0  0  0  0
  188.2240  177.6200  141.0360 C   0  0  0  0  0  0  0  0  0  0  0  0
  184.2530  178.7550  144.7430 C   0  0  0  0  0  0  0  0  0  0  0  0
  186.9990  177.9720  140.7120 C   0  0  0  0  0  3  0  0  0  0  0  0
  182.6210  179.1630  145.2210 Cl  0  0  0  0  0  0  0  0  0  0  0  0
  191.2320  177.2880  145.6940 C   0  0  0  0  0  1  0  0  0  0  0  0
  185.9270  178.2680  141.6460 C   0  0  0  0  0  3  0  0  0  0  0  0
  186.9260  178.1200  143.9480 C   0  0  0  0  0  0  0  0  0  0  0  0
  189.6310  178.6690  137.7430 C   0  0  0  0  0  3  0  0  0  0  0  0
  188.2460  177.9170  143.6250 C   0  0  0  0  0  0  0  0  0  0  0  0
  189.3130  177.2780  140.0940 C   0  0  1  0  0  0  0  0  0  0  0  0
  186.5230  178.1890  145.3360 C   0  0  0  0  0  0  0  0  0  0  0  0
  190.2850  177.0230  144.6230 N   0  0  0  0  0  0  0  0  0  0  0  0
  189.3560  177.8410  136.5920 C   0  0  0  0  0  0  0  0  0  0  0  0
  189.4790  178.4260  135.3010 N   0  0  0  0  0  1  0  0  0  0  0  0
  189.0630  176.5340  138.9400 C   0  0  0  0  0  0  0  0  0  0  0  0
  188.8080  175.7620  137.8600 C   0  0  0  0  0  3  0  0  0  0  0  0
  187.4930  177.7010  146.7290 Cl  0  0  0  0  0  0  0  0  0  0  0  0
  188.9740  176.4870  136.6870 N   0  0  0  0  0  0  0  0  0  0  0  0
  191.0400  176.9900  143.3610 C   0  0  1  0  0  3  0  0  0  0  0  0
  191.8000  175.7500  143.2780 N   0  0  0  0  0  1  0  0  0  0  0  0
  189.3540  178.1530  144.6220 C   0  0  0  0  0  2  0  0  0  0  0  0
  189.4610  177.9420  138.8770 C   0  0  0  0  0  0  0  0  0  0  0  0
  190.5090  176.9710  140.9110 C   0  0  0  0  0  3  0  0  0  0  0  0
  190.1130  177.0910  142.1820 C   0  0  0  0  0  0  0  0  0  0  0  0
  185.2160  178.5090  145.6980 C   0  0  0  0  0  3  0  0  0  0  0  0
  1  3  1  0  0  0  0
  1 10  1  0  0  0  0
  2 12  1  0  0  0  0
  3  5  2  0  0  0  0
  4  2  1  0  0  0  0
  5  7  1  0  0  0  0
  5 28  1  0  0  0  0
  6  4  2  0  0  0  0
  6  9  1  0  0  0  0
  9  1  2  0  0  0  0
 10 14  1  0  0  0  0
 11 25  1  0  0  0  0
 12 10  2  0  0  0  0
 12 24  1  0  0  0  0
 13 26  1  1  0  0  0
 13  4  1  0  0  0  0
 14 28  2  0  0  0  0
 14 20  1  0  0  0  0
 15  8  1  0  0  0  0
 16 21  1  0  0  0  0
 16 11  2  0  0  0  0
 17 16  1  0  0  0  0
 18 13  1  0  0  0  0
 19 18  1  0  0  0  0
 21 19  2  0  0  0  0
 22 23  1  6  0  0  0
 22 15  1  0  0  0  0
 24 15  1  0  0  0  0
 25 18  2  0  0  0  0
 25 13  1  0  0  0  0
 26 27  2  0  0  0  0
 27  2  1  0  0  0  0
 27 22  1  0  0  0  0
M  END
>  <MODEL>
7

>  <REMARK>
 VINA RESULT:      -7.9      1.802      4.548
  Name = 
  0 active torsions:
  status: ('A' for Active; 'I' for Inactive)
                            x       y       z     vdW  Elec       q    Type
                         _______ _______ _______ _____ _____    ______ ____

>  <TORSDO>
F 0

$$$$
=
 OpenBabel10232408393D

 28 33  0  0  1  0  0  0  0  0999 V2000
  188.2280  178.1820  141.5830 C   0  0  0  0  0  0  0  0  0  0  0  0
  186.9120  177.9150  138.8410 N   0  0  0  0  0  0  0  0  0  0  0  0
  188.9390  178.2200  142.7870 C   0  0  0  0  0  3  0  0  0  0  0  0
  185.8100  178.3640  139.6040 C   0  0  0  0  0  0  0  0  0  0  0  0
  190.2820  177.9030  142.8590 C   0  0  0  0  0  0  0  0  0  0  0  0
  185.8160  178.6560  140.8860 C   0  0  0  0  0  3  0  0  0  0  0  0
  191.1220  177.9670  144.3920 Cl  0  0  0  0  0  0  0  0  0  0  0  0
  189.5800  177.0130  135.7550 C   0  0  0  0  0  1  0  0  0  0  0  0
  186.9580  178.5420  141.7770 C   0  0  0  0  0  3  0  0  0  0  0  0
  188.9050  177.8350  140.3540 C   0  0  0  0  0  0  0  0  0  0  0  0
  182.8220  180.4880  138.9090 C   0  0  0  0  0  3  0  0  0  0  0  0
  188.3240  177.8850  139.1090 C   0  0  0  0  0  0  0  0  0  0  0  0
  184.6440  178.4390  138.6970 C   0  0  1  0  0  0  0  0  0  0  0  0
  190.2910  177.4460  140.4900 C   0  0  0  0  0  0  0  0  0  0  0  0
  188.6490  176.9710  136.8710 N   0  0  0  0  0  0  0  0  0  0  0  0
  181.5330  180.0100  139.3490 C   0  0  0  0  0  0  0  0  0  0  0  0
  180.4850  180.9600  139.5070 N   0  0  0  0  0  1  0  0  0  0  0  0
  183.3740  178.0450  139.1170 C   0  0  0  0  0  0  0  0  0  0  0  0
  182.1640  177.6020  139.5280 C   0  0  0  0  0  3  0  0  0  0  0  0
  191.2870  176.6810  139.2470 Cl  0  0  0  0  0  0  0  0  0  0  0  0
  181.2630  178.6550  139.6280 N   0  0  0  0  0  0  0  0  0  0  0  0
  187.3330  177.3960  136.3680 C   0  0  1  0  0  3  0  0  0  0  0  0
  186.7480  176.3290  135.5680 N   0  0  0  0  0  1  0  0  0  0  0  0
  189.1510  177.9390  137.8480 C   0  0  0  0  0  2  0  0  0  0  0  0
  183.6860  179.4440  138.8190 C   0  0  0  0  0  0  0  0  0  0  0  0
  185.1190  178.0400  137.3520 C   0  0  0  0  0  3  0  0  0  0  0  0
  186.4110  177.7350  137.5060 C   0  0  0  0  0  0  0  0  0  0  0  0
  190.9430  177.4970  141.7200 C   0  0  0  0  0  3  0  0  0  0  0  0
  1  9  2  0  0  0  0
  1  3  1  0  0  0  0
  2 12  1  0  0  0  0
  2  4  1  0  0  0  0
  3  5  2  0  0  0  0
  4  6  2  0  0  0  0
  5  7  1  0  0  0  0
  6  9  1  0  0  0  0
  8 15  1  0  0  0  0
 10 14  1  0  0  0  0
 10  1  1  0  0  0  0
 11 16  1  0  0  0  0
 12 10  2  0  0  0  0
 13 26  1  6  0  0  0
 13 25  1  0  0  0  0
 13 18  1  0  0  0  0
 13  4  1  0  0  0  0
 14 28  2  0  0  0  0
 15 24  1  0  0  0  0
 16 17  1  0  0  0  0
 16 21  2  0  0  0  0
 18 19  2  0  0  0  0
 19 21  1  0  0  0  0
 20 14  1  0  0  0  0
 22 23  1  1  0  0  0
 22 15  1  0  0  0  0
 22 27  1  0  0  0  0
 24 12  1  0  0  0  0
 25 11  2  0  0  0  0
 25 18  1  0  0  0  0
 26 27  2  0  0  0  0
 27  2  1  0  0  0  0
 28  5  1  0  0  0  0
M  END
>  <MODEL>
8

>  <REMARK>
 VINA RESULT:      -7.7      3.335      6.361
  Name = 
  0 active torsions:
  status: ('A' for Active; 'I' for Inactive)
                            x       y       z     vdW  Elec       q    Type
                         _______ _______ _______ _____ _____    ______ ____

>  <TORSDO>
F 0

$$$$
=
 OpenBabel10232408393D

 28 33  0  0  1  0  0  0  0  0999 V2000
  189.1020  177.0430  142.7900 C   0  0  0  0  0  0  0  0  0  0  0  0
  188.8670  177.3760  139.7640 N   0  0  0  0  0  0  0  0  0  0  0  0
  189.1050  176.9920  144.1880 C   0  0  0  0  0  3  0  0  0  0  0  0
  190.1180  176.7230  139.8470 C   0  0  0  0  0  0  0  0  0  0  0  0
  188.0540  177.4730  144.9440 C   0  0  0  0  0  0  0  0  0  0  0  0
  190.7180  176.3220  140.9460 C   0  0  0  0  0  3  0  0  0  0  0  0
  188.1100  177.3850  146.6900 Cl  0  0  0  0  0  0  0  0  0  0  0  0
  185.1820  178.8870  138.5000 C   0  0  0  0  0  1  0  0  0  0  0  0
  190.2200  176.5050  142.2980 C   0  0  0  0  0  3  0  0  0  0  0  0
  187.9590  177.5820  142.0880 C   0  0  0  0  0  0  0  0  0  0  0  0
  191.9630  174.2970  137.6940 C   0  0  0  0  0  3  0  0  0  0  0  0
  187.8120  177.5660  140.7210 C   0  0  0  0  0  0  0  0  0  0  0  0
  190.6330  176.5760  138.4670 C   0  0  1  0  0  0  0  0  0  0  0  0
  186.9150  178.1350  142.9220 C   0  0  0  0  0  0  0  0  0  0  0  0
  186.5440  178.7090  138.9780 N   0  0  0  0  0  0  0  0  0  0  0  0
  193.3530  174.5620  137.4100 C   0  0  0  0  0  0  0  0  0  0  0  0
  194.1720  173.4740  136.9980 N   0  0  0  0  0  1  0  0  0  0  0  0
  191.9840  176.7630  138.1770 C   0  0  0  0  0  0  0  0  0  0  0  0
  193.2870  177.0070  137.9090 C   0  0  0  0  0  3  0  0  0  0  0  0
  185.5610  179.1300  142.3760 Cl  0  0  0  0  0  0  0  0  0  0  0  0
  193.9360  175.8410  137.5230 N   0  0  0  0  0  0  0  0  0  0  0  0
  187.3360  178.1610  137.8650 C   0  0  1  0  0  3  0  0  0  0  0  0
  187.5940  179.2090  136.8870 N   0  0  0  0  0  1  0  0  0  0  0  0
  186.4630  177.7320  140.0660 C   0  0  0  0  0  2  0  0  0  0  0  0
  191.3490  175.4480  138.0710 C   0  0  0  0  0  0  0  0  0  0  0  0
  189.6100  177.1500  137.5630 C   0  0  0  0  0  3  0  0  0  0  0  0
  188.6420  177.6060  138.3630 C   0  0  0  0  0  0  0  0  0  0  0  0
  186.9800  178.0610  144.3110 C   0  0  0  0  0  3  0  0  0  0  0  0
  1  3  1  0  0  0  0
  2  4  1  0  0  0  0
  2 12  1  0  0  0  0
  3  5  2  0  0  0  0
  4  6  2  0  0  0  0
  5  7  1  0  0  0  0
  6  9  1  0  0  0  0
  8 15  1  0  0  0  0
  9  1  2  0  0  0  0
 10  1  1  0  0  0  0
 10 14  1  0  0  0  0
 11 25  1  0  0  0  0
 12 10  2  0  0  0  0
 13 26  1  6  0  0  0
 13  4  1  0  0  0  0
 14 28  2  0  0  0  0
 15 24  1  0  0  0  0
 16 21  1  0  0  0  0
 16 11  2  0  0  0  0
 17 16  1  0  0  0  0
 18 13  1  0  0  0  0
 19 18  1  0  0  0  0
 20 14  1  0  0  0  0
 21 19  2  0  0  0  0
 22 23  1  6  0  0  0
 22 27  1  0  0  0  0
 22 15  1  0  0  0  0
 24 12  1  0  0  0  0
 25 18  2  0  0  0  0
 25 13  1  0  0  0  0
 26 27  2  0  0  0  0
 27  2  1  0  0  0  0
 28  5  1  0  0  0  0
M  END
>  <MODEL>
9

>  <REMARK>
 VINA RESULT:      -7.2      2.818      4.274
  Name = 
  0 active torsions:
  status: ('A' for Active; 'I' for Inactive)
                            x       y       z     vdW  Elec       q    Type
                         _______ _______ _______ _____ _____    ______ ____

>  <TORSDO>
F 0

$$$$
