=
 OpenBabel10232412153D

 48 53  0  0  1  0  0  0  0  0999 V2000
  189.7060  178.0780  138.7230 C   0  0  0  0  0  3  0  0  0  0  0  0
  187.0630  177.9140  137.8650 C   0  0  0  0  0  0  0  0  0  0  0  0
  181.0280  178.1940  138.8530 O   0  0  0  0  0  0  0  0  0  0  0  0
  185.7300  177.8260  137.4180 C   0  0  0  0  0  0  0  0  0  0  0  0
  184.1190  178.7770  140.7780 N   0  0  0  0  0  0  0  0  0  0  0  0
  183.2650  177.9760  137.8490 N   0  0  0  0  0  0  0  0  0  0  0  0
  189.4140  177.7400  137.4390 N   0  0  0  0  0  0  0  0  0  0  0  0
  181.9820  178.0280  139.8970 C   0  0  2  0  0  0  0  0  0  0  0  0
  184.6450  178.0750  138.3080 C   0  0  0  0  0  0  0  0  0  0  0  0
  187.3490  178.2700  139.1980 C   0  0  0  0  0  0  0  0  0  0  0  0
  185.5000  177.5100  136.0810 O   0  0  0  0  0  1  0  0  0  0  0  0
  184.9390  179.0440  141.9560 C   0  0  2  0  0  3  0  0  0  0  0  0
  188.1310  177.6530  136.9970 C   0  0  0  0  0  3  0  0  0  0  0  0
  182.6630  178.9940  140.8330 C   0  0  0  0  0  2  0  0  0  0  0  0
  184.9780  178.4680  139.6560 C   0  0  0  0  0  0  0  0  0  0  0  0
  182.2120  180.2360  138.3650 C   0  0  0  0  0  1  0  0  0  0  0  0
  186.2910  178.5400  140.0630 C   0  0  0  0  0  0  0  0  0  0  0  0
  188.6780  178.3500  139.6280 C   0  0  0  0  0  3  0  0  0  0  0  0
  186.3990  178.9150  141.5000 C   0  0  0  0  0  2  0  0  0  0  0  0
  182.2850  178.7250  138.5990 C   0  0  2  0  0  0  0  0  0  0  0  0
  182.4510  176.7110  139.9680 O   0  0  0  0  0  1  0  0  0  0  0  0
  184.6400  178.0180  143.0420 C   0  0  0  0  0  2  0  0  0  0  0  0
  184.2750  178.6970  144.3570 C   0  0  0  0  0  2  0  0  0  0  0  0
  185.5090  179.2050  145.0920 C   0  0  0  0  0  2  0  0  0  0  0  0
  186.2960  178.0550  145.7110 C   0  0  2  0  0  3  0  0  0  0  0  0
  186.3120  178.2270  147.2240 C   0  0  0  0  0  1  0  0  0  0  0  0
  187.7270  178.0180  145.1630 C   0  0  1  0  0  3  0  0  0  0  0  0
  188.6390  177.9110  146.2150 O   0  0  0  0  0  1  0  0  0  0  0  0
  187.9290  176.8290  144.2310 C   0  0  0  0  0  2  0  0  0  0  0  0
  188.9860  177.1230  143.1750 C   0  0  0  0  0  2  0  0  0  0  0  0
  191.2360  176.7540  144.2590 N   0  0  0  0  0  1  0  0  0  0  0  0
  190.2030  176.2920  143.3960 C   0  0  0  0  0  0  0  0  0  0  0  0
  190.3050  175.1670  142.8400 O   0  0  0  0  0  0  0  0  0  0  0  0
  182.8520  177.3650  136.5870 C   0  0  0  0  0  2  0  0  0  0  0  0
  182.7410  175.8530  136.7250 C   0  0  0  0  0  2  0  0  0  0  0  0
  181.2920  175.4170  136.8870 C   0  0  0  0  0  2  0  0  0  0  0  0
  181.1630  173.9020  136.8900 C   0  0  0  0  0  2  0  0  0  0  0  0
  182.2730  173.2760  136.0650 C   0  0  0  0  0  2  0  0  0  0  0  0
  184.1460  170.6510  135.3270 C   0  0  0  0  0  2  0  0  0  0  0  0
  182.6870  172.0160  136.6700 N   0  0  0  0  0  0  0  0  0  0  0  0
  184.9610  173.2750  137.7330 O   0  0  0  0  0  0  0  0  0  0  0  0
  183.9990  171.7550  136.2460 N   0  0  0  0  0  0  0  0  0  0  0  0
  181.8730  170.9640  136.0620 C   0  0  0  0  0  2  0  0  0  0  0  0
  182.6530  168.8110  135.3960 O   0  0  0  0  0  1  0  0  0  0  0  0
  185.1320  172.4010  136.8390 C   0  0  0  0  0  0  0  0  0  0  0  0
  182.7390  170.1680  135.0930 C   0  0  2  0  0  3  0  0  0  0  0  0
  187.5760  172.5390  137.0950 C   0  0  0  0  0  1  0  0  0  0  0  0
  186.4210  172.0580  136.4240 O   0  0  0  0  0  0  0  0  0  0  0  0
  1 18  1  0  0  0  0
  2 10  1  0  0  0  0
  3  8  1  0  0  0  0
  4  2  1  0  0  0  0
  4  9  2  0  0  0  0
  5 14  1  0  0  0  0
  5 12  1  0  0  0  0
  6  9  1  0  0  0  0
  6 20  1  0  0  0  0
  7  1  2  0  0  0  0
  8 21  1  1  0  0  0
  8 14  1  0  0  0  0
  9 15  1  0  0  0  0
 10 18  2  0  0  0  0
 10 17  1  0  0  0  0
 11  4  1  0  0  0  0
 12 22  1  1  0  0  0
 13  7  1  0  0  0  0
 13  2  2  0  0  0  0
 15 17  2  0  0  0  0
 15  5  1  0  0  0  0
 17 19  1  0  0  0  0
 19 12  1  0  0  0  0
 20 16  1  1  0  0  0
 20  3  1  0  0  0  0
 20  8  1  0  0  0  0
 22 23  1  0  0  0  0
 23 24  1  0  0  0  0
 24 25  1  0  0  0  0
 25 26  1  1  0  0  0
 27 25  1  0  0  0  0
 27 28  1  1  0  0  0
 29 27  1  0  0  0  0
 30 32  1  0  0  0  0
 30 29  1  0  0  0  0
 32 31  1  0  0  0  0
 33 32  2  0  0  0  0
 34 35  1  0  0  0  0
 34  6  1  0  0  0  0
 35 36  1  0  0  0  0
 36 37  1  0  0  0  0
 38 40  1  0  0  0  0
 38 37  1  0  0  0  0
 39 42  1  0  0  0  0
 42 40  1  0  0  0  0
 42 45  1  0  0  0  0
 43 40  1  0  0  0  0
 45 41  2  0  0  0  0
 46 39  1  0  0  0  0
 46 44  1  1  0  0  0
 46 43  1  0  0  0  0
 48 45  1  0  0  0  0
 48 47  1  0  0  0  0
M  END
>  <MODEL>
1

>  <REMARK>
 VINA RESULT:      -7.3      0.000      0.000
  Name = 
  15 active torsions:
  status: ('A' for Active; 'I' for Inactive)
    1  A    between atoms: C_3  and  C_5
    2  A    between atoms: C_3  and  C_29
    3  A    between atoms: C_4  and  C_9
    4  A    between atoms: C_4  and  N_13
    5  A    between atoms: C_5  and  C_45
    6  A    between atoms: C_6  and  C_20
    7  A    between atoms: C_6  and  C_31
    8  A    between atoms: C_9  and  C_23
    9  A    between atoms: O_14  and  C_43
   10  A    between atoms: N_16  and  C_32
   11  A    between atoms: C_17  and  C_38
   12  A    between atoms: C_20  and  C_29
   13  A    between atoms: C_23  and  C_46
   14  A    between atoms: C_32  and  C_46
   15  A    between atoms: C_38  and  C_45
                            x       y       z     vdW  Elec       q    Type
                         _______ _______ _______ _____ _____    ______ ____

>  <TORSDO>
F 15

$$$$
=
 OpenBabel10232412153D

 48 53  0  0  1  0  0  0  0  0999 V2000
  190.9170  177.8420  143.8530 C   0  0  0  0  0  3  0  0  0  0  0  0
  190.6280  177.2940  141.1390 C   0  0  0  0  0  0  0  0  0  0  0  0
  187.3370  177.0950  135.9810 O   0  0  0  0  0  0  0  0  0  0  0  0
  190.4960  177.0110  139.7650 C   0  0  0  0  0  0  0  0  0  0  0  0
  186.8670  178.2460  139.4530 N   0  0  0  0  0  0  0  0  0  0  0  0
  189.1300  176.9690  137.6640 N   0  0  0  0  0  0  0  0  0  0  0  0
  191.9430  177.3030  143.1420 N   0  0  0  0  0  0  0  0  0  0  0  0
  186.7520  177.1710  137.2770 C   0  0  2  0  0  0  0  0  0  0  0  0
  189.2710  177.2690  139.0840 C   0  0  0  0  0  0  0  0  0  0  0  0
  189.5570  177.8560  141.8610 C   0  0  0  0  0  0  0  0  0  0  0  0
  191.5970  176.4940  139.0870 O   0  0  0  0  0  1  0  0  0  0  0  0
  186.1440  178.7530  140.6150 C   0  0  2  0  0  3  0  0  0  0  0  0
  191.8250  177.0270  141.8160 C   0  0  0  0  0  3  0  0  0  0  0  0
  186.2530  178.3190  138.1160 C   0  0  0  0  0  2  0  0  0  0  0  0
  188.2080  177.8750  139.8490 C   0  0  0  0  0  0  0  0  0  0  0  0
  188.4310  179.1600  136.5710 C   0  0  0  0  0  1  0  0  0  0  0  0
  188.3680  178.1340  141.1910 C   0  0  0  0  0  0  0  0  0  0  0  0
  189.7040  178.1290  143.2260 C   0  0  0  0  0  3  0  0  0  0  0  0
  187.1320  178.7110  141.7880 C   0  0  0  0  0  2  0  0  0  0  0  0
  188.1170  177.7100  136.9500 C   0  0  2  0  0  0  0  0  0  0  0  0
  186.7620  175.9300  137.9250 O   0  0  0  0  0  1  0  0  0  0  0  0
  184.9440  177.8610  140.9120 C   0  0  0  0  0  2  0  0  0  0  0  0
  183.8640  178.6210  141.6720 C   0  0  0  0  0  2  0  0  0  0  0  0
  184.4360  179.3650  142.8720 C   0  0  0  0  0  2  0  0  0  0  0  0
  184.1940  178.5950  144.1670 C   0  0  2  0  0  3  0  0  0  0  0  0
  182.7400  178.7750  144.5810 C   0  0  0  0  0  1  0  0  0  0  0  0
  185.1300  179.0870  145.2760 C   0  0  1  0  0  3  0  0  0  0  0  0
  184.5500  178.8610  146.5260 O   0  0  0  0  0  1  0  0  0  0  0  0
  186.4680  178.3600  145.2300 C   0  0  0  0  0  2  0  0  0  0  0  0
  186.6160  177.3940  146.3980 C   0  0  0  0  0  2  0  0  0  0  0  0
  187.8030  178.1130  148.5060 N   0  0  0  0  0  1  0  0  0  0  0  0
  187.8690  177.6650  147.1560 C   0  0  0  0  0  0  0  0  0  0  0  0
  188.9880  177.4730  146.6130 O   0  0  0  0  0  0  0  0  0  0  0  0
  190.0640  176.1520  136.8910 C   0  0  0  0  0  2  0  0  0  0  0  0
  189.6870  174.6780  136.9640 C   0  0  0  0  0  2  0  0  0  0  0  0
  190.6680  173.8170  136.1810 C   0  0  0  0  0  2  0  0  0  0  0  0
  191.7060  174.6670  135.4660 C   0  0  0  0  0  2  0  0  0  0  0  0
  193.1000  174.1180  135.7170 C   0  0  0  0  0  2  0  0  0  0  0  0
  196.0480  174.4410  137.1850 C   0  0  0  0  0  2  0  0  0  0  0  0
  193.6800  174.7640  136.8880 N   0  0  0  0  0  0  0  0  0  0  0  0
  194.2570  177.0380  135.3440 O   0  0  0  0  0  0  0  0  0  0  0  0
  194.9780  175.1710  136.5450 N   0  0  0  0  0  0  0  0  0  0  0  0
  193.8610  173.7260  137.9020 C   0  0  0  0  0  2  0  0  0  0  0  0
  195.7500  173.5000  139.3400 O   0  0  0  0  0  1  0  0  0  0  0  0
  195.2260  176.3560  135.7790 C   0  0  0  0  0  0  0  0  0  0  0  0
  195.3440  173.3960  138.0110 C   0  0  2  0  0  3  0  0  0  0  0  0
  197.2290  176.3410  134.3480 C   0  0  0  0  0  1  0  0  0  0  0  0
  196.5400  176.7520  135.5190 O   0  0  0  0  0  0  0  0  0  0  0  0
  2 13  2  0  0  0  0
  2 10  1  0  0  0  0
  3 20  1  0  0  0  0
  3  8  1  0  0  0  0
  4  2  1  0  0  0  0
  5 15  1  0  0  0  0
  5 12  1  0  0  0  0
  6  9  1  0  0  0  0
  7  1  2  0  0  0  0
  8 21  1  1  0  0  0
  8 14  1  0  0  0  0
  9  4  2  0  0  0  0
  9 15  1  0  0  0  0
 10 18  2  0  0  0  0
 11  4  1  0  0  0  0
 12 22  1  1  0  0  0
 12 19  1  0  0  0  0
 13  7  1  0  0  0  0
 14  5  1  0  0  0  0
 15 17  2  0  0  0  0
 17 19  1  0  0  0  0
 17 10  1  0  0  0  0
 18  1  1  0  0  0  0
 20 16  1  6  0  0  0
 20  8  1  0  0  0  0
 20  6  1  0  0  0  0
 22 23  1  0  0  0  0
 23 24  1  0  0  0  0
 24 25  1  0  0  0  0
 25 26  1  1  0  0  0
 25 27  1  0  0  0  0
 27 28  1  1  0  0  0
 29 27  1  0  0  0  0
 29 30  1  0  0  0  0
 30 32  1  0  0  0  0
 32 31  1  0  0  0  0
 33 32  2  0  0  0  0
 34 35  1  0  0  0  0
 34  6  1  0  0  0  0
 36 35  1  0  0  0  0
 37 38  1  0  0  0  0
 37 36  1  0  0  0  0
 38 40  1  0  0  0  0
 39 46  1  0  0  0  0
 40 43  1  0  0  0  0
 41 45  2  0  0  0  0
 42 40  1  0  0  0  0
 42 39  1  0  0  0  0
 43 46  1  0  0  0  0
 45 42  1  0  0  0  0
 46 44  1  1  0  0  0
 47 48  1  0  0  0  0
 48 45  1  0  0  0  0
M  END
>  <MODEL>
2

>  <REMARK>
 VINA RESULT:      -7.1      4.000      7.279
  Name = 
  15 active torsions:
  status: ('A' for Active; 'I' for Inactive)
    1  A    between atoms: C_3  and  C_5
    2  A    between atoms: C_3  and  C_29
    3  A    between atoms: C_4  and  C_9
    4  A    between atoms: C_4  and  N_13
    5  A    between atoms: C_5  and  C_45
    6  A    between atoms: C_6  and  C_20
    7  A    between atoms: C_6  and  C_31
    8  A    between atoms: C_9  and  C_23
    9  A    between atoms: O_14  and  C_43
   10  A    between atoms: N_16  and  C_32
   11  A    between atoms: C_17  and  C_38
   12  A    between atoms: C_20  and  C_29
   13  A    between atoms: C_23  and  C_46
   14  A    between atoms: C_32  and  C_46
   15  A    between atoms: C_38  and  C_45
                            x       y       z     vdW  Elec       q    Type
                         _______ _______ _______ _____ _____    ______ ____

>  <TORSDO>
F 15

$$$$
=
 OpenBabel10232412153D

 48 53  0  0  1  0  0  0  0  0999 V2000
  190.6120  177.9060  143.2720 C   0  0  0  0  0  3  0  0  0  0  0  0
  190.0500  177.2730  140.6200 C   0  0  0  0  0  0  0  0  0  0  0  0
  186.2940  177.0510  135.7910 O   0  0  0  0  0  0  0  0  0  0  0  0
  189.7790  176.9460  139.2770 C   0  0  0  0  0  0  0  0  0  0  0  0
  186.2000  178.3550  139.2400 N   0  0  0  0  0  0  0  0  0  0  0  0
  188.2250  176.8950  137.3110 N   0  0  0  0  0  0  0  0  0  0  0  0
  191.5420  177.2890  142.4950 N   0  0  0  0  0  0  0  0  0  0  0  0
  185.8340  177.2060  137.1300 C   0  0  2  0  0  0  0  0  0  0  0  0
  188.5100  177.2410  138.6980 C   0  0  0  0  0  0  0  0  0  0  0  0
  189.0780  177.9170  141.4110 C   0  0  0  0  0  0  0  0  0  0  0  0
  190.7860  176.3460  138.5250 O   0  0  0  0  0  1  0  0  0  0  0  0
  185.6120  178.9420  140.4400 C   0  0  2  0  0  3  0  0  0  0  0  0
  191.2900  176.9700  141.1970 C   0  0  0  0  0  3  0  0  0  0  0  0
  185.4710  178.4090  137.9610 C   0  0  0  0  0  2  0  0  0  0  0  0
  187.5520  177.9290  139.5290 C   0  0  0  0  0  0  0  0  0  0  0  0
  187.5360  179.0770  136.1930 C   0  0  0  0  0  1  0  0  0  0  0  0
  187.8470  178.2300  140.8390 C   0  0  0  0  0  0  0  0  0  0  0  0
  189.3620  178.2330  142.7440 C   0  0  0  0  0  3  0  0  0  0  0  0
  186.7000  178.8930  141.5190 C   0  0  0  0  0  2  0  0  0  0  0  0
  187.1880  177.6610  136.6600 C   0  0  2  0  0  0  0  0  0  0  0  0
  185.8440  175.9920  137.8270 O   0  0  0  0  0  1  0  0  0  0  0  0
  184.4030  178.1250  140.8800 C   0  0  0  0  0  2  0  0  0  0  0  0
  183.9610  178.5070  142.2880 C   0  0  0  0  0  2  0  0  0  0  0  0
  184.9420  178.0100  143.3420 C   0  0  0  0  0  2  0  0  0  0  0  0
  184.4670  178.3610  144.7480 C   0  0  2  0  0  3  0  0  0  0  0  0
  183.4910  179.5260  144.6610 C   0  0  0  0  0  1  0  0  0  0  0  0
  185.6530  178.7250  145.6480 C   0  0  1  0  0  3  0  0  0  0  0  0
  185.1940  179.1360  146.9010 O   0  0  0  0  0  1  0  0  0  0  0  0
  186.5810  177.5310  145.8460 C   0  0  0  0  0  2  0  0  0  0  0  0
  188.0180  177.9760  146.0800 C   0  0  0  0  0  2  0  0  0  0  0  0
  188.1460  178.1720  148.5930 N   0  0  0  0  0  1  0  0  0  0  0  0
  188.5150  177.4920  147.3980 C   0  0  0  0  0  0  0  0  0  0  0  0
  189.2400  176.4650  147.4580 O   0  0  0  0  0  0  0  0  0  0  0  0
  189.0430  176.0030  136.4920 C   0  0  0  0  0  2  0  0  0  0  0  0
  188.5590  174.5630  136.6060 C   0  0  0  0  0  2  0  0  0  0  0  0
  189.7240  173.5990  136.7770 C   0  0  0  0  0  2  0  0  0  0  0  0
  190.9000  173.9850  135.8940 C   0  0  0  0  0  2  0  0  0  0  0  0
  192.0970  173.1010  136.1940 C   0  0  0  0  0  2  0  0  0  0  0  0
  194.7550  174.7300  137.3020 C   0  0  0  0  0  2  0  0  0  0  0  0
  193.3090  173.7160  135.6660 N   0  0  0  0  0  0  0  0  0  0  0  0
  194.6950  171.3020  136.0430 O   0  0  0  0  0  0  0  0  0  0  0  0
  194.3240  173.5340  136.6170 N   0  0  0  0  0  0  0  0  0  0  0  0
  193.0740  175.1580  135.6290 C   0  0  0  0  0  2  0  0  0  0  0  0
  194.6550  176.8410  136.2270 O   0  0  0  0  0  1  0  0  0  0  0  0
  195.0240  172.2910  136.7550 C   0  0  0  0  0  0  0  0  0  0  0  0
  193.8690  175.8160  136.7510 C   0  0  2  0  0  3  0  0  0  0  0  0
  197.2710  171.4920  137.3650 C   0  0  0  0  0  1  0  0  0  0  0  0
  196.0700  172.1820  137.6740 O   0  0  0  0  0  0  0  0  0  0  0  0
  2 13  2  0  0  0  0
  2 10  1  0  0  0  0
  3 20  1  0  0  0  0
  3  8  1  0  0  0  0
  4  2  1  0  0  0  0
  5 15  1  0  0  0  0
  5 12  1  0  0  0  0
  6  9  1  0  0  0  0
  7  1  2  0  0  0  0
  8 21  1  1  0  0  0
  8 14  1  0  0  0  0
  9  4  2  0  0  0  0
  9 15  1  0  0  0  0
 10 18  2  0  0  0  0
 11  4  1  0  0  0  0
 12 22  1  1  0  0  0
 12 19  1  0  0  0  0
 13  7  1  0  0  0  0
 14  5  1  0  0  0  0
 15 17  2  0  0  0  0
 17 10  1  0  0  0  0
 17 19  1  0  0  0  0
 18  1  1  0  0  0  0
 20 16  1  6  0  0  0
 20  8  1  0  0  0  0
 20  6  1  0  0  0  0
 22 23  1  0  0  0  0
 23 24  1  0  0  0  0
 24 25  1  0  0  0  0
 25 26  1  6  0  0  0
 25 27  1  0  0  0  0
 27 29  1  0  0  0  0
 27 28  1  1  0  0  0
 29 30  1  0  0  0  0
 30 32  1  0  0  0  0
 32 33  2  0  0  0  0
 32 31  1  0  0  0  0
 34 35  1  0  0  0  0
 34  6  1  0  0  0  0
 35 36  1  0  0  0  0
 37 38  1  0  0  0  0
 37 36  1  0  0  0  0
 40 38  1  0  0  0  0
 40 42  1  0  0  0  0
 41 45  2  0  0  0  0
 42 45  1  0  0  0  0
 42 39  1  0  0  0  0
 43 40  1  0  0  0  0
 43 46  1  0  0  0  0
 45 48  1  0  0  0  0
 46 44  1  6  0  0  0
 46 39  1  0  0  0  0
 47 48  1  0  0  0  0
M  END
>  <MODEL>
3

>  <REMARK>
 VINA RESULT:      -7.0      3.838      6.671
  Name = 
  15 active torsions:
  status: ('A' for Active; 'I' for Inactive)
    1  A    between atoms: C_3  and  C_5
    2  A    between atoms: C_3  and  C_29
    3  A    between atoms: C_4  and  C_9
    4  A    between atoms: C_4  and  N_13
    5  A    between atoms: C_5  and  C_45
    6  A    between atoms: C_6  and  C_20
    7  A    between atoms: C_6  and  C_31
    8  A    between atoms: C_9  and  C_23
    9  A    between atoms: O_14  and  C_43
   10  A    between atoms: N_16  and  C_32
   11  A    between atoms: C_17  and  C_38
   12  A    between atoms: C_20  and  C_29
   13  A    between atoms: C_23  and  C_46
   14  A    between atoms: C_32  and  C_46
   15  A    between atoms: C_38  and  C_45
                            x       y       z     vdW  Elec       q    Type
                         _______ _______ _______ _____ _____    ______ ____

>  <TORSDO>
F 15

$$$$
=
 OpenBabel10232412153D

 48 53  0  0  1  0  0  0  0  0999 V2000
  183.4080  178.8050  143.2800 C   0  0  0  0  0  3  0  0  0  0  0  0
  184.5350  178.5720  140.7450 C   0  0  0  0  0  0  0  0  0  0  0  0
  189.3030  177.7000  137.0050 O   0  0  0  0  0  0  0  0  0  0  0  0
  185.0930  178.4590  139.4570 C   0  0  0  0  0  0  0  0  0  0  0  0
  188.6700  177.6820  140.6390 N   0  0  0  0  0  0  0  0  0  0  0  0
  187.0600  178.0700  137.9530 N   0  0  0  0  0  0  0  0  0  0  0  0
  182.6470  178.9710  142.1660 N   0  0  0  0  0  0  0  0  0  0  0  0
  189.4410  178.0830  138.3700 C   0  0  2  0  0  0  0  0  0  0  0  0
  186.4800  178.1790  139.2860 C   0  0  0  0  0  0  0  0  0  0  0  0
  185.3360  178.3920  141.8910 C   0  0  0  0  0  0  0  0  0  0  0  0
  184.2520  178.6050  138.3560 O   0  0  0  0  0  1  0  0  0  0  0  0
  188.9970  177.6350  142.0600 C   0  0  2  0  0  3  0  0  0  0  0  0
  183.1760  178.8630  140.9170 C   0  0  0  0  0  3  0  0  0  0  0  0
  189.6830  177.3060  139.6380 C   0  0  0  0  0  2  0  0  0  0  0  0
  187.2600  177.9700  140.4810 C   0  0  0  0  0  0  0  0  0  0  0  0
  188.1480  175.7690  137.8710 C   0  0  0  0  0  1  0  0  0  0  0  0
  186.6860  178.0930  141.7260 C   0  0  0  0  0  0  0  0  0  0  0  0
  184.7670  178.5110  143.1640 C   0  0  0  0  0  3  0  0  0  0  0  0
  187.6830  177.8840  142.8120 C   0  0  0  0  0  2  0  0  0  0  0  0
  188.2740  177.2950  137.8440 C   0  0  2  0  0  0  0  0  0  0  0  0
  189.1810  179.4450  138.5560 O   0  0  0  0  0  1  0  0  0  0  0  0
  190.0060  178.7270  142.3980 C   0  0  0  0  0  2  0  0  0  0  0  0
  191.2140  178.1560  143.1310 C   0  0  0  0  0  2  0  0  0  0  0  0
  191.1420  178.4210  144.6290 C   0  0  0  0  0  2  0  0  0  0  0  0
  191.3870  177.1450  145.4290 C   0  0  2  0  0  3  0  0  0  0  0  0
  191.5340  175.9790  144.4610 C   0  0  0  0  0  1  0  0  0  0  0  0
  190.2360  176.8860  146.4070 C   0  0  1  0  0  3  0  0  0  0  0  0
  190.6090  177.2710  147.6960 O   0  0  0  0  0  1  0  0  0  0  0  0
  188.9910  177.6730  146.0130 C   0  0  0  0  0  2  0  0  0  0  0  0
  188.0880  177.9210  147.2130 C   0  0  0  0  0  2  0  0  0  0  0  0
  185.9000  179.1800  147.2450 N   0  0  0  0  0  1  0  0  0  0  0  0
  186.6680  178.0730  146.7860 C   0  0  0  0  0  0  0  0  0  0  0  0
  186.1560  177.2370  145.9960 O   0  0  0  0  0  0  0  0  0  0  0  0
  186.3980  178.4950  136.7210 C   0  0  0  0  0  2  0  0  0  0  0  0
  186.3290  177.3510  135.7190 C   0  0  0  0  0  2  0  0  0  0  0  0
  184.9820  177.3170  135.0100 C   0  0  0  0  0  2  0  0  0  0  0  0
  183.9280  176.6140  135.8490 C   0  0  0  0  0  2  0  0  0  0  0  0
  184.2810  175.1460  136.0180 C   0  0  0  0  0  2  0  0  0  0  0  0
  181.7160  173.4490  137.2360 C   0  0  0  0  0  2  0  0  0  0  0  0
  183.7920  174.6660  137.3040 N   0  0  0  0  0  0  0  0  0  0  0  0
  185.1460  172.2380  136.9100 O   0  0  0  0  0  0  0  0  0  0  0  0
  183.1520  173.4380  137.0810 N   0  0  0  0  0  0  0  0  0  0  0  0
  182.7300  175.5800  137.7240 C   0  0  0  0  0  2  0  0  0  0  0  0
  180.6740  174.9440  138.7530 O   0  0  0  0  0  1  0  0  0  0  0  0
  183.8840  172.2180  136.9130 C   0  0  0  0  0  0  0  0  0  0  0  0
  181.3850  174.8830  137.5560 C   0  0  2  0  0  3  0  0  0  0  0  0
  183.7170  169.9490  135.9730 C   0  0  0  0  0  1  0  0  0  0  0  0
  183.1970  171.0120  136.7570 O   0  0  0  0  0  0  0  0  0  0  0  0
  2 13  2  0  0  0  0
  2 10  1  0  0  0  0
  3 20  1  0  0  0  0
  3  8  1  0  0  0  0
  4  2  1  0  0  0  0
  5 12  1  0  0  0  0
  6  9  1  0  0  0  0
  7  1  2  0  0  0  0
  8 21  1  1  0  0  0
  8 14  1  0  0  0  0
  9  4  2  0  0  0  0
  9 15  1  0  0  0  0
 10 18  2  0  0  0  0
 11  4  1  0  0  0  0
 12 22  1  6  0  0  0
 12 19  1  0  0  0  0
 13  7  1  0  0  0  0
 14  5  1  0  0  0  0
 15  5  1  0  0  0  0
 15 17  2  0  0  0  0
 17 10  1  0  0  0  0
 17 19  1  0  0  0  0
 18  1  1  0  0  0  0
 20 16  1  1  0  0  0
 20  6  1  0  0  0  0
 20  8  1  0  0  0  0
 22 23  1  0  0  0  0
 23 24  1  0  0  0  0
 24 25  1  0  0  0  0
 25 26  1  6  0  0  0
 25 27  1  0  0  0  0
 27 28  1  1  0  0  0
 29 27  1  0  0  0  0
 29 30  1  0  0  0  0
 32 30  1  0  0  0  0
 32 31  1  0  0  0  0
 33 32  2  0  0  0  0
 34  6  1  0  0  0  0
 35 34  1  0  0  0  0
 36 35  1  0  0  0  0
 36 37  1  0  0  0  0
 37 38  1  0  0  0  0
 38 40  1  0  0  0  0
 39 46  1  0  0  0  0
 40 43  1  0  0  0  0
 41 45  2  0  0  0  0
 42 39  1  0  0  0  0
 42 40  1  0  0  0  0
 45 42  1  0  0  0  0
 46 43  1  0  0  0  0
 46 44  1  1  0  0  0
 47 48  1  0  0  0  0
 48 45  1  0  0  0  0
M  END
>  <MODEL>
4

>  <REMARK>
 VINA RESULT:      -7.0      2.199      5.029
  Name = 
  15 active torsions:
  status: ('A' for Active; 'I' for Inactive)
    1  A    between atoms: C_3  and  C_5
    2  A    between atoms: C_3  and  C_29
    3  A    between atoms: C_4  and  C_9
    4  A    between atoms: C_4  and  N_13
    5  A    between atoms: C_5  and  C_45
    6  A    between atoms: C_6  and  C_20
    7  A    between atoms: C_6  and  C_31
    8  A    between atoms: C_9  and  C_23
    9  A    between atoms: O_14  and  C_43
   10  A    between atoms: N_16  and  C_32
   11  A    between atoms: C_17  and  C_38
   12  A    between atoms: C_20  and  C_29
   13  A    between atoms: C_23  and  C_46
   14  A    between atoms: C_32  and  C_46
   15  A    between atoms: C_38  and  C_45
                            x       y       z     vdW  Elec       q    Type
                         _______ _______ _______ _____ _____    ______ ____

>  <TORSDO>
F 15

$$$$
=
 OpenBabel10232412153D

 48 53  0  0  1  0  0  0  0  0999 V2000
  183.0230  178.7870  142.8660 C   0  0  0  0  0  3  0  0  0  0  0  0
  184.3500  178.5450  140.4310 C   0  0  0  0  0  0  0  0  0  0  0  0
  189.4030  177.6670  137.0880 O   0  0  0  0  0  0  0  0  0  0  0  0
  185.0080  178.4260  139.1910 C   0  0  0  0  0  0  0  0  0  0  0  0
  188.4820  177.6660  140.6590 N   0  0  0  0  0  0  0  0  0  0  0  0
  187.0900  178.0360  137.8520 N   0  0  0  0  0  0  0  0  0  0  0  0
  182.3530  178.9460  141.6940 N   0  0  0  0  0  0  0  0  0  0  0  0
  189.4310  178.0580  138.4570 C   0  0  2  0  0  0  0  0  0  0  0  0
  186.4060  178.1500  139.1340 C   0  0  0  0  0  0  0  0  0  0  0  0
  185.0570  178.3740  141.6370 C   0  0  0  0  0  0  0  0  0  0  0  0
  184.2580  178.5640  138.0270 O   0  0  0  0  0  1  0  0  0  0  0  0
  188.6950  177.6290  142.1030 C   0  0  2  0  0  3  0  0  0  0  0  0
  182.9800  178.8320  140.4920 C   0  0  0  0  0  3  0  0  0  0  0  0
  189.5720  177.2880  139.7450 C   0  0  0  0  0  2  0  0  0  0  0  0
  187.0890  177.9490  140.3880 C   0  0  0  0  0  0  0  0  0  0  0  0
  188.1880  175.7370  137.8700 C   0  0  0  0  0  1  0  0  0  0  0  0
  186.4170  178.0780  141.5820 C   0  0  0  0  0  0  0  0  0  0  0  0
  184.3880  178.4980  142.8600 C   0  0  0  0  0  3  0  0  0  0  0  0
  187.3250  177.8770  142.7460 C   0  0  0  0  0  2  0  0  0  0  0  0
  188.3110  177.2630  137.8440 C   0  0  2  0  0  0  0  0  0  0  0  0
  189.1530  179.4200  138.6150 O   0  0  0  0  0  1  0  0  0  0  0  0
  189.6710  178.7250  142.5130 C   0  0  0  0  0  2  0  0  0  0  0  0
  190.7270  178.1930  143.4740 C   0  0  0  0  0  2  0  0  0  0  0  0
  190.1640  177.1180  144.3950 C   0  0  0  0  0  2  0  0  0  0  0  0
  190.3700  177.4820  145.8620 C   0  0  2  0  0  3  0  0  0  0  0  0
  191.4530  176.5840  146.4430 C   0  0  0  0  0  1  0  0  0  0  0  0
  189.0650  177.3250  146.6500 C   0  0  1  0  0  3  0  0  0  0  0  0
  189.2400  177.7800  147.9580 O   0  0  0  0  0  1  0  0  0  0  0  0
  187.9360  178.1250  146.0110 C   0  0  0  0  0  2  0  0  0  0  0  0
  186.5720  177.5740  146.4040 C   0  0  0  0  0  2  0  0  0  0  0  0
  184.2850  178.6410  146.3500 N   0  0  0  0  0  1  0  0  0  0  0  0
  185.6420  178.6760  146.7800 C   0  0  0  0  0  0  0  0  0  0  0  0
  186.0490  179.6240  147.5000 O   0  0  0  0  0  0  0  0  0  0  0  0
  186.5270  178.4510  136.5690 C   0  0  0  0  0  2  0  0  0  0  0  0
  186.3620  177.2600  135.6350 C   0  0  0  0  0  2  0  0  0  0  0  0
  185.1710  177.4460  134.7060 C   0  0  0  0  0  2  0  0  0  0  0  0
  184.0270  176.5140  135.0730 C   0  0  0  0  0  2  0  0  0  0  0  0
  184.5090  175.4400  136.0320 C   0  0  0  0  0  2  0  0  0  0  0  0
  184.6750  172.2380  136.8480 C   0  0  0  0  0  2  0  0  0  0  0  0
  184.4460  174.1360  135.3850 N   0  0  0  0  0  0  0  0  0  0  0  0
  181.6740  174.0530  135.8290 O   0  0  0  0  0  0  0  0  0  0  0  0
  183.8200  173.2510  136.2760 N   0  0  0  0  0  0  0  0  0  0  0  0
  185.8210  173.6510  135.2670 C   0  0  0  0  0  2  0  0  0  0  0  0
  186.5410  171.4090  135.6440 O   0  0  0  0  0  1  0  0  0  0  0  0
  182.3980  173.2260  136.4490 C   0  0  0  0  0  0  0  0  0  0  0  0
  186.0400  172.5390  136.2860 C   0  0  2  0  0  3  0  0  0  0  0  0
  180.4160  172.2110  137.4990 C   0  0  0  0  0  1  0  0  0  0  0  0
  181.8200  172.2820  137.3020 O   0  0  0  0  0  0  0  0  0  0  0  0
  2 13  2  0  0  0  0
  2 10  1  0  0  0  0
  3 20  1  0  0  0  0
  3  8  1  0  0  0  0
  4  2  1  0  0  0  0
  5 12  1  0  0  0  0
  6  9  1  0  0  0  0
  7  1  2  0  0  0  0
  8 21  1  1  0  0  0
  8 14  1  0  0  0  0
  9  4  2  0  0  0  0
  9 15  1  0  0  0  0
 10 18  2  0  0  0  0
 11  4  1  0  0  0  0
 12 22  1  6  0  0  0
 12 19  1  0  0  0  0
 13  7  1  0  0  0  0
 14  5  1  0  0  0  0
 15  5  1  0  0  0  0
 15 17  2  0  0  0  0
 17 10  1  0  0  0  0
 17 19  1  0  0  0  0
 18  1  1  0  0  0  0
 20  6  1  0  0  0  0
 20 16  1  1  0  0  0
 20  8  1  0  0  0  0
 22 23  1  0  0  0  0
 23 24  1  0  0  0  0
 24 25  1  0  0  0  0
 25 26  1  1  0  0  0
 25 27  1  0  0  0  0
 27 28  1  1  0  0  0
 29 30  1  0  0  0  0
 29 27  1  0  0  0  0
 30 32  1  0  0  0  0
 31 32  1  0  0  0  0
 32 33  2  0  0  0  0
 34  6  1  0  0  0  0
 35 34  1  0  0  0  0
 36 37  1  0  0  0  0
 36 35  1  0  0  0  0
 37 38  1  0  0  0  0
 40 38  1  0  0  0  0
 40 42  1  0  0  0  0
 41 45  2  0  0  0  0
 42 45  1  0  0  0  0
 42 39  1  0  0  0  0
 43 40  1  0  0  0  0
 43 46  1  0  0  0  0
 45 48  1  0  0  0  0
 46 44  1  6  0  0  0
 46 39  1  0  0  0  0
 48 47  1  0  0  0  0
M  END
>  <MODEL>
5

>  <REMARK>
 VINA RESULT:      -7.0      2.213      5.041
  Name = 
  15 active torsions:
  status: ('A' for Active; 'I' for Inactive)
    1  A    between atoms: C_3  and  C_5
    2  A    between atoms: C_3  and  C_29
    3  A    between atoms: C_4  and  C_9
    4  A    between atoms: C_4  and  N_13
    5  A    between atoms: C_5  and  C_45
    6  A    between atoms: C_6  and  C_20
    7  A    between atoms: C_6  and  C_31
    8  A    between atoms: C_9  and  C_23
    9  A    between atoms: O_14  and  C_43
   10  A    between atoms: N_16  and  C_32
   11  A    between atoms: C_17  and  C_38
   12  A    between atoms: C_20  and  C_29
   13  A    between atoms: C_23  and  C_46
   14  A    between atoms: C_32  and  C_46
   15  A    between atoms: C_38  and  C_45
                            x       y       z     vdW  Elec       q    Type
                         _______ _______ _______ _____ _____    ______ ____

>  <TORSDO>
F 15

$$$$
=
 OpenBabel10232412153D

 48 53  0  0  1  0  0  0  0  0999 V2000
  189.7620  178.0780  139.2990 C   0  0  0  0  0  3  0  0  0  0  0  0
  187.1660  177.9790  138.2980 C   0  0  0  0  0  0  0  0  0  0  0  0
  181.0950  178.4090  138.9570 O   0  0  0  0  0  0  0  0  0  0  0  0
  185.8580  177.9240  137.7780 C   0  0  0  0  0  0  0  0  0  0  0  0
  184.0910  178.9140  141.0480 N   0  0  0  0  0  0  0  0  0  0  0  0
  183.3780  178.1360  138.0750 N   0  0  0  0  0  0  0  0  0  0  0  0
  189.5330  177.7480  138.0000 N   0  0  0  0  0  0  0  0  0  0  0  0
  181.9870  178.2190  140.0500 C   0  0  2  0  0  0  0  0  0  0  0  0
  184.7330  178.2010  138.6090 C   0  0  0  0  0  0  0  0  0  0  0  0
  187.3880  178.3270  139.6450 C   0  0  0  0  0  0  0  0  0  0  0  0
  185.6930  177.6150  136.4310 O   0  0  0  0  0  1  0  0  0  0  0  0
  184.8520  179.1600  142.2690 C   0  0  2  0  0  3  0  0  0  0  0  0
  188.2740  177.6930  137.4890 C   0  0  0  0  0  3  0  0  0  0  0  0
  182.6400  179.1660  141.0240 C   0  0  0  0  0  2  0  0  0  0  0  0
  185.0020  178.5840  139.9740 C   0  0  0  0  0  0  0  0  0  0  0  0
  182.3550  180.4210  138.5380 C   0  0  0  0  0  1  0  0  0  0  0  0
  186.2920  178.6230  140.4510 C   0  0  0  0  0  0  0  0  0  0  0  0
  188.6940  178.3740  140.1460 C   0  0  0  0  0  3  0  0  0  0  0  0
  186.3300  178.9950  141.8930 C   0  0  0  0  0  2  0  0  0  0  0  0
  182.3770  178.9090  138.7730 C   0  0  2  0  0  0  0  0  0  0  0  0
  182.4190  176.8910  140.1440 O   0  0  0  0  0  1  0  0  0  0  0  0
  184.4680  178.1410  143.3360 C   0  0  0  0  0  2  0  0  0  0  0  0
  185.1130  178.4750  144.6750 C   0  0  0  0  0  2  0  0  0  0  0  0
  186.3510  177.6260  144.9340 C   0  0  0  0  0  2  0  0  0  0  0  0
  186.7400  177.6480  146.4090 C   0  0  2  0  0  3  0  0  0  0  0  0
  185.9920  178.7810  147.0970 C   0  0  0  0  0  1  0  0  0  0  0  0
  188.2530  177.8310  146.5710 C   0  0  1  0  0  3  0  0  0  0  0  0
  188.8100  176.6970  147.1660 O   0  0  0  0  0  1  0  0  0  0  0  0
  188.9290  178.0450  145.2210 C   0  0  0  0  0  2  0  0  0  0  0  0
  190.1590  177.1610  145.0700 C   0  0  0  0  0  2  0  0  0  0  0  0
  191.7070  176.8020  143.1080 N   0  0  0  0  0  1  0  0  0  0  0  0
  191.0680  177.6940  144.0150 C   0  0  0  0  0  0  0  0  0  0  0  0
  191.2500  178.9350  143.9090 O   0  0  0  0  0  0  0  0  0  0  0  0
  183.0190  177.5360  136.7920 C   0  0  0  0  0  2  0  0  0  0  0  0
  182.6990  176.0560  136.9530 C   0  0  0  0  0  2  0  0  0  0  0  0
  182.2160  175.4480  135.6440 C   0  0  0  0  0  2  0  0  0  0  0  0
  183.3800  175.0850  134.7360 C   0  0  0  0  0  2  0  0  0  0  0  0
  184.4480  174.3410  135.5190 C   0  0  0  0  0  2  0  0  0  0  0  0
  186.3280  171.6390  135.8450 C   0  0  0  0  0  2  0  0  0  0  0  0
  185.0460  173.3100  134.6800 N   0  0  0  0  0  0  0  0  0  0  0  0
  182.7680  171.7050  135.0330 O   0  0  0  0  0  0  0  0  0  0  0  0
  185.0350  172.1130  135.4100 N   0  0  0  0  0  0  0  0  0  0  0  0
  186.4590  173.6520  134.5260 C   0  0  0  0  0  2  0  0  0  0  0  0
  188.2770  172.1090  134.5790 O   0  0  0  0  0  1  0  0  0  0  0  0
  183.8550  171.3110  135.5400 C   0  0  0  0  0  0  0  0  0  0  0  0
  187.2920  172.6950  135.3710 C   0  0  2  0  0  3  0  0  0  0  0  0
  183.3930  168.8970  135.6700 C   0  0  0  0  0  1  0  0  0  0  0  0
  183.9140  170.0950  136.2250 O   0  0  0  0  0  0  0  0  0  0  0  0
  1 18  1  0  0  0  0
  2 10  1  0  0  0  0
  3  8  1  0  0  0  0
  4  2  1  0  0  0  0
  4  9  2  0  0  0  0
  5 12  1  0  0  0  0
  6  9  1  0  0  0  0
  6 20  1  0  0  0  0
  7  1  2  0  0  0  0
  8 21  1  1  0  0  0
  8 14  1  0  0  0  0
  9 15  1  0  0  0  0
 10 18  2  0  0  0  0
 10 17  1  0  0  0  0
 11  4  1  0  0  0  0
 12 22  1  1  0  0  0
 13  7  1  0  0  0  0
 13  2  2  0  0  0  0
 14  5  1  0  0  0  0
 15 17  2  0  0  0  0
 15  5  1  0  0  0  0
 17 19  1  0  0  0  0
 19 12  1  0  0  0  0
 20 16  1  1  0  0  0
 20  3  1  0  0  0  0
 20  8  1  0  0  0  0
 22 23  1  0  0  0  0
 23 24  1  0  0  0  0
 24 25  1  0  0  0  0
 25 27  1  0  0  0  0
 25 26  1  1  0  0  0
 27 28  1  6  0  0  0
 29 27  1  0  0  0  0
 30 29  1  0  0  0  0
 31 32  1  0  0  0  0
 32 30  1  0  0  0  0
 33 32  2  0  0  0  0
 34 35  1  0  0  0  0
 34  6  1  0  0  0  0
 36 35  1  0  0  0  0
 37 38  1  0  0  0  0
 37 36  1  0  0  0  0
 40 42  1  0  0  0  0
 40 38  1  0  0  0  0
 41 45  2  0  0  0  0
 42 45  1  0  0  0  0
 42 39  1  0  0  0  0
 43 40  1  0  0  0  0
 43 46  1  0  0  0  0
 45 48  1  0  0  0  0
 46 44  1  6  0  0  0
 46 39  1  0  0  0  0
 47 48  1  0  0  0  0
M  END
>  <MODEL>
6

>  <REMARK>
 VINA RESULT:      -6.7      1.433      2.257
  Name = 
  15 active torsions:
  status: ('A' for Active; 'I' for Inactive)
    1  A    between atoms: C_3  and  C_5
    2  A    between atoms: C_3  and  C_29
    3  A    between atoms: C_4  and  C_9
    4  A    between atoms: C_4  and  N_13
    5  A    between atoms: C_5  and  C_45
    6  A    between atoms: C_6  and  C_20
    7  A    between atoms: C_6  and  C_31
    8  A    between atoms: C_9  and  C_23
    9  A    between atoms: O_14  and  C_43
   10  A    between atoms: N_16  and  C_32
   11  A    between atoms: C_17  and  C_38
   12  A    between atoms: C_20  and  C_29
   13  A    between atoms: C_23  and  C_46
   14  A    between atoms: C_32  and  C_46
   15  A    between atoms: C_38  and  C_45
                            x       y       z     vdW  Elec       q    Type
                         _______ _______ _______ _____ _____    ______ ____

>  <TORSDO>
F 15

$$$$
=
 OpenBabel10232412153D

 48 53  0  0  1  0  0  0  0  0999 V2000
  189.8650  177.9480  144.3830 C   0  0  0  0  0  3  0  0  0  0  0  0
  190.1710  177.3910  141.6720 C   0  0  0  0  0  0  0  0  0  0  0  0
  188.0620  177.1380  135.9310 O   0  0  0  0  0  0  0  0  0  0  0  0
  190.3390  177.1040  140.3030 C   0  0  0  0  0  0  0  0  0  0  0  0
  186.8460  178.2910  139.2160 N   0  0  0  0  0  0  0  0  0  0  0  0
  189.4550  177.0390  137.9590 N   0  0  0  0  0  0  0  0  0  0  0  0
  191.0260  177.4220  143.9100 N   0  0  0  0  0  0  0  0  0  0  0  0
  187.2130  177.2090  137.0710 C   0  0  2  0  0  0  0  0  0  0  0  0
  189.2850  177.3440  139.3740 C   0  0  0  0  0  0  0  0  0  0  0  0
  188.9630  177.9410  142.1450 C   0  0  0  0  0  0  0  0  0  0  0  0
  191.5660  176.5990  139.8790 O   0  0  0  0  0  1  0  0  0  0  0  0
  185.8850  178.7910  140.1940 C   0  0  2  0  0  3  0  0  0  0  0  0
  191.1990  177.1410  142.5910 C   0  0  0  0  0  3  0  0  0  0  0  0
  186.5320  178.3530  137.7780 C   0  0  0  0  0  2  0  0  0  0  0  0
  188.0760  177.9380  139.8910 C   0  0  0  0  0  0  0  0  0  0  0  0
  188.9790  179.2190  136.7310 C   0  0  0  0  0  1  0  0  0  0  0  0
  187.9420  178.2020  141.2350 C   0  0  0  0  0  0  0  0  0  0  0  0
  188.8110  178.2190  143.5090 C   0  0  0  0  0  3  0  0  0  0  0  0
  186.6000  178.7640  141.5510 C   0  0  0  0  0  2  0  0  0  0  0  0
  188.6090  177.7660  137.0410 C   0  0  2  0  0  0  0  0  0  0  0  0
  187.0990  175.9700  137.7130 O   0  0  0  0  0  1  0  0  0  0  0  0
  184.6600  177.8840  140.2320 C   0  0  0  0  0  2  0  0  0  0  0  0
  183.4790  178.5190  139.5080 C   0  0  0  0  0  2  0  0  0  0  0  0
  182.5850  179.2990  140.4630 C   0  0  0  0  0  2  0  0  0  0  0  0
  182.0870  178.4150  141.6020 C   0  0  2  0  0  3  0  0  0  0  0  0
  180.6040  178.1390  141.3970 C   0  0  0  0  0  1  0  0  0  0  0  0
  182.3220  179.0900  142.9580 C   0  0  1  0  0  3  0  0  0  0  0  0
  181.2780  178.7820  143.8320 O   0  0  0  0  0  1  0  0  0  0  0  0
  183.6290  178.6220  143.5870 C   0  0  0  0  0  2  0  0  0  0  0  0
  183.8120  179.2000  144.9830 C   0  0  0  0  0  2  0  0  0  0  0  0
  185.4180  179.0910  146.9280 N   0  0  0  0  0  1  0  0  0  0  0  0
  185.0640  178.6880  145.6100 C   0  0  0  0  0  0  0  0  0  0  0  0
  185.7940  177.8760  144.9830 O   0  0  0  0  0  0  0  0  0  0  0  0
  190.5420  176.2330  137.4070 C   0  0  0  0  0  2  0  0  0  0  0  0
  190.1640  174.7580  137.3770 C   0  0  0  0  0  2  0  0  0  0  0  0
  190.1250  174.2270  135.9510 C   0  0  0  0  0  2  0  0  0  0  0  0
  191.2200  173.2010  135.7090 C   0  0  0  0  0  2  0  0  0  0  0  0
  192.5780  173.8790  135.6660 C   0  0  0  0  0  2  0  0  0  0  0  0
  195.6940  172.7700  135.7560 C   0  0  0  0  0  2  0  0  0  0  0  0
  193.4860  173.2260  136.6000 N   0  0  0  0  0  0  0  0  0  0  0  0
  194.4090  175.7370  137.4560 O   0  0  0  0  0  0  0  0  0  0  0  0
  194.7760  173.7150  136.3480 N   0  0  0  0  0  0  0  0  0  0  0  0
  193.5340  171.8120  136.2300 C   0  0  0  0  0  2  0  0  0  0  0  0
  195.4910  170.4490  136.1940 O   0  0  0  0  0  1  0  0  0  0  0  0
  195.2130  174.9920  136.8290 C   0  0  0  0  0  0  0  0  0  0  0  0
  194.8710  171.5240  135.5590 C   0  0  2  0  0  3  0  0  0  0  0  0
  196.8920  176.1570  135.4570 C   0  0  0  0  0  1  0  0  0  0  0  0
  196.5280  175.4050  136.6050 O   0  0  0  0  0  0  0  0  0  0  0  0
  2 10  1  0  0  0  0
  2 13  1  0  0  0  0
  3 20  1  0  0  0  0
  3  8  1  0  0  0  0
  4  2  2  0  0  0  0
  5 15  1  0  0  0  0
  5 12  1  0  0  0  0
  6  9  1  0  0  0  0
  7  1  1  0  0  0  0
  8 21  1  1  0  0  0
  8 14  1  0  0  0  0
  9 15  2  0  0  0  0
  9  4  1  0  0  0  0
 10 18  1  0  0  0  0
 11  4  1  0  0  0  0
 12 22  1  1  0  0  0
 12 19  1  0  0  0  0
 13  7  2  0  0  0  0
 14  5  1  0  0  0  0
 15 17  1  0  0  0  0
 17 19  1  0  0  0  0
 17 10  2  0  0  0  0
 18  1  2  0  0  0  0
 20 16  1  6  0  0  0
 20  8  1  0  0  0  0
 20  6  1  0  0  0  0
 23 22  1  0  0  0  0
 23 24  1  0  0  0  0
 24 25  1  0  0  0  0
 25 26  1  6  0  0  0
 25 27  1  0  0  0  0
 27 29  1  0  0  0  0
 27 28  1  1  0  0  0
 29 30  1  0  0  0  0
 30 32  1  0  0  0  0
 32 31  1  0  0  0  0
 33 32  2  0  0  0  0
 34  6  1  0  0  0  0
 35 34  1  0  0  0  0
 36 35  1  0  0  0  0
 37 36  1  0  0  0  0
 38 37  1  0  0  0  0
 38 40  1  0  0  0  0
 39 42  1  0  0  0  0
 42 40  1  0  0  0  0
 42 45  1  0  0  0  0
 43 40  1  0  0  0  0
 45 41  2  0  0  0  0
 46 39  1  0  0  0  0
 46 44  1  1  0  0  0
 46 43  1  0  0  0  0
 47 48  1  0  0  0  0
 48 45  1  0  0  0  0
M  END
>  <MODEL>
7

>  <REMARK>
 VINA RESULT:      -6.5      4.046      7.459
  Name = 
  15 active torsions:
  status: ('A' for Active; 'I' for Inactive)
    1  A    between atoms: C_3  and  C_5
    2  A    between atoms: C_3  and  C_29
    3  A    between atoms: C_4  and  C_9
    4  A    between atoms: C_4  and  N_13
    5  A    between atoms: C_5  and  C_45
    6  A    between atoms: C_6  and  C_20
    7  A    between atoms: C_6  and  C_31
    8  A    between atoms: C_9  and  C_23
    9  A    between atoms: O_14  and  C_43
   10  A    between atoms: N_16  and  C_32
   11  A    between atoms: C_17  and  C_38
   12  A    between atoms: C_20  and  C_29
   13  A    between atoms: C_23  and  C_46
   14  A    between atoms: C_32  and  C_46
   15  A    between atoms: C_38  and  C_45
                            x       y       z     vdW  Elec       q    Type
                         _______ _______ _______ _____ _____    ______ ____

>  <TORSDO>
F 15

$$$$
=
 OpenBabel10232412153D

 48 53  0  0  1  0  0  0  0  0999 V2000
  184.8870  178.8430  143.7890 C   0  0  0  0  0  3  0  0  0  0  0  0
  185.6580  178.6380  141.1220 C   0  0  0  0  0  0  0  0  0  0  0  0
  189.7160  177.2380  136.7570 O   0  0  0  0  0  0  0  0  0  0  0  0
  186.0360  178.5420  139.7680 C   0  0  0  0  0  0  0  0  0  0  0  0
  189.4990  177.0040  140.4310 N   0  0  0  0  0  0  0  0  0  0  0  0
  187.7090  177.9320  138.0040 N   0  0  0  0  0  0  0  0  0  0  0  0
  184.0540  179.2510  142.7940 N   0  0  0  0  0  0  0  0  0  0  0  0
  190.0780  177.4610  138.1160 C   0  0  2  0  0  0  0  0  0  0  0  0
  187.3140  178.0240  139.4040 C   0  0  0  0  0  0  0  0  0  0  0  0
  186.5300  178.2070  142.1410 C   0  0  0  0  0  0  0  0  0  0  0  0
  185.1230  178.9430  138.7960 O   0  0  0  0  0  1  0  0  0  0  0  0
  189.9670  176.7670  141.7930 C   0  0  2  0  0  3  0  0  0  0  0  0
  184.4100  179.1610  141.4840 C   0  0  0  0  0  3  0  0  0  0  0  0
  190.3010  176.5390  139.2870 C   0  0  0  0  0  2  0  0  0  0  0  0
  188.1650  177.5640  140.4740 C   0  0  0  0  0  0  0  0  0  0  0  0
  188.3080  175.4850  137.6270 C   0  0  0  0  0  1  0  0  0  0  0  0
  187.7680  177.6770  141.7860 C   0  0  0  0  0  0  0  0  0  0  0  0
  186.1410  178.3130  143.4810 C   0  0  0  0  0  3  0  0  0  0  0  0
  188.8190  177.1870  142.7200 C   0  0  0  0  0  2  0  0  0  0  0  0
  188.7270  176.9570  137.6890 C   0  0  2  0  0  0  0  0  0  0  0  0
  190.1120  178.8250  138.4270 O   0  0  0  0  0  1  0  0  0  0  0  0
  191.2020  177.6150  142.0740 C   0  0  0  0  0  2  0  0  0  0  0  0
  191.3400  177.9140  143.5620 C   0  0  0  0  0  2  0  0  0  0  0  0
  191.4890  176.6400  144.3830 C   0  0  0  0  0  2  0  0  0  0  0  0
  191.2180  176.8990  145.8610 C   0  0  2  0  0  3  0  0  0  0  0  0
  192.0550  175.9350  146.6910 C   0  0  0  0  0  1  0  0  0  0  0  0
  189.7290  176.7250  146.1810 C   0  0  1  0  0  3  0  0  0  0  0  0
  189.5720  176.2510  147.4850 O   0  0  0  0  0  1  0  0  0  0  0  0
  188.9820  178.0480  146.0590 C   0  0  0  0  0  2  0  0  0  0  0  0
  188.2170  178.3740  147.3340 C   0  0  0  0  0  2  0  0  0  0  0  0
  185.9120  179.3930  147.4720 N   0  0  0  0  0  1  0  0  0  0  0  0
  186.7470  178.3000  147.1050 C   0  0  0  0  0  0  0  0  0  0  0  0
  186.2450  177.2820  146.5610 O   0  0  0  0  0  0  0  0  0  0  0  0
  187.0100  178.5840  136.8980 C   0  0  0  0  0  2  0  0  0  0  0  0
  186.4710  177.5560  135.9140 C   0  0  0  0  0  2  0  0  0  0  0  0
  185.3530  176.7300  136.5330 C   0  0  0  0  0  2  0  0  0  0  0  0
  184.0750  176.8180  135.7140 C   0  0  0  0  0  2  0  0  0  0  0  0
  183.0420  177.6630  136.4370 C   0  0  0  0  0  2  0  0  0  0  0  0
  182.0270  175.4130  138.6400 C   0  0  0  0  0  2  0  0  0  0  0  0
  181.8600  176.8600  136.7220 N   0  0  0  0  0  0  0  0  0  0  0  0
  180.8980  178.8800  138.4200 O   0  0  0  0  0  0  0  0  0  0  0  0
  181.7620  176.7330  138.1160 N   0  0  0  0  0  0  0  0  0  0  0  0
  182.1350  175.5090  136.2340 C   0  0  0  0  0  2  0  0  0  0  0  0
  181.5540  173.4820  137.3490 O   0  0  0  0  0  1  0  0  0  0  0  0
  181.2380  177.7810  138.9400 C   0  0  0  0  0  0  0  0  0  0  0  0
  182.3880  174.5950  137.4270 C   0  0  2  0  0  3  0  0  0  0  0  0
  180.7020  178.6240  141.1900 C   0  0  0  0  0  1  0  0  0  0  0  0
  181.1020  177.5800  140.3160 O   0  0  0  0  0  0  0  0  0  0  0  0
  2 13  2  0  0  0  0
  2 10  1  0  0  0  0
  3 20  1  0  0  0  0
  3  8  1  0  0  0  0
  4  2  1  0  0  0  0
  5 15  1  0  0  0  0
  5 12  1  0  0  0  0
  6  9  1  0  0  0  0
  7  1  2  0  0  0  0
  8 21  1  1  0  0  0
  8 14  1  0  0  0  0
  9  4  2  0  0  0  0
  9 15  1  0  0  0  0
 10 18  2  0  0  0  0
 11  4  1  0  0  0  0
 12 22  1  1  0  0  0
 12 19  1  0  0  0  0
 13  7  1  0  0  0  0
 14  5  1  0  0  0  0
 15 17  2  0  0  0  0
 17 10  1  0  0  0  0
 17 19  1  0  0  0  0
 18  1  1  0  0  0  0
 20 16  1  1  0  0  0
 20  6  1  0  0  0  0
 20  8  1  0  0  0  0
 22 23  1  0  0  0  0
 23 24  1  0  0  0  0
 24 25  1  0  0  0  0
 25 27  1  0  0  0  0
 25 26  1  1  0  0  0
 27 28  1  1  0  0  0
 29 27  1  0  0  0  0
 29 30  1  0  0  0  0
 32 30  1  0  0  0  0
 32 31  1  0  0  0  0
 33 32  2  0  0  0  0
 34  6  1  0  0  0  0
 35 36  1  0  0  0  0
 35 34  1  0  0  0  0
 37 38  1  0  0  0  0
 37 36  1  0  0  0  0
 38 40  1  0  0  0  0
 40 42  1  0  0  0  0
 41 45  2  0  0  0  0
 42 39  1  0  0  0  0
 42 45  1  0  0  0  0
 43 40  1  0  0  0  0
 43 46  1  0  0  0  0
 45 48  1  0  0  0  0
 46 44  1  6  0  0  0
 46 39  1  0  0  0  0
 48 47  1  0  0  0  0
M  END
>  <MODEL>
8

>  <REMARK>
 VINA RESULT:      -6.4      2.616      5.763
  Name = 
  15 active torsions:
  status: ('A' for Active; 'I' for Inactive)
    1  A    between atoms: C_3  and  C_5
    2  A    between atoms: C_3  and  C_29
    3  A    between atoms: C_4  and  C_9
    4  A    between atoms: C_4  and  N_13
    5  A    between atoms: C_5  and  C_45
    6  A    between atoms: C_6  and  C_20
    7  A    between atoms: C_6  and  C_31
    8  A    between atoms: C_9  and  C_23
    9  A    between atoms: O_14  and  C_43
   10  A    between atoms: N_16  and  C_32
   11  A    between atoms: C_17  and  C_38
   12  A    between atoms: C_20  and  C_29
   13  A    between atoms: C_23  and  C_46
   14  A    between atoms: C_32  and  C_46
   15  A    between atoms: C_38  and  C_45
                            x       y       z     vdW  Elec       q    Type
                         _______ _______ _______ _____ _____    ______ ____

>  <TORSDO>
F 15

$$$$
=
 OpenBabel10232412153D

 48 53  0  0  1  0  0  0  0  0999 V2000
  191.3960  177.8080  142.5830 C   0  0  0  0  0  3  0  0  0  0  0  0
  189.2950  177.8650  140.7580 C   0  0  0  0  0  0  0  0  0  0  0  0
  186.8970  176.7600  135.2350 O   0  0  0  0  0  0  0  0  0  0  0  0
  188.2230  177.9010  139.8440 C   0  0  0  0  0  0  0  0  0  0  0  0
  190.0820  176.1280  136.9820 N   0  0  0  0  0  0  0  0  0  0  0  0
  187.2630  177.4100  137.5820 N   0  0  0  0  0  0  0  0  0  0  0  0
  190.2020  178.3660  142.9190 N   0  0  0  0  0  0  0  0  0  0  0  0
  188.2980  176.8110  135.4800 C   0  0  2  0  0  0  0  0  0  0  0  0
  188.3680  177.3650  138.5310 C   0  0  0  0  0  0  0  0  0  0  0  0
  190.5240  177.2790  140.3970 C   0  0  0  0  0  0  0  0  0  0  0  0
  187.0150  178.4550  140.2610 O   0  0  0  0  0  1  0  0  0  0  0  0
  191.4750  175.7160  137.1320 C   0  0  2  0  0  3  0  0  0  0  0  0
  189.1610  178.4050  142.0430 C   0  0  0  0  0  3  0  0  0  0  0  0
  189.3320  175.7540  135.7710 C   0  0  0  0  0  2  0  0  0  0  0  0
  189.6310  176.7450  138.2100 C   0  0  0  0  0  0  0  0  0  0  0  0
  186.8740  174.9940  136.8750 C   0  0  0  0  0  1  0  0  0  0  0  0
  190.6590  176.7310  139.1240 C   0  0  0  0  0  0  0  0  0  0  0  0
  191.5790  177.2530  141.3160 C   0  0  0  0  0  3  0  0  0  0  0  0
  191.8790  176.0860  138.5650 C   0  0  0  0  0  2  0  0  0  0  0  0
  187.2860  176.4260  136.5240 C   0  0  2  0  0  0  0  0  0  0  0  0
  188.7600  178.1280  135.5830 O   0  0  0  0  0  1  0  0  0  0  0  0
  192.3490  176.4640  136.1330 C   0  0  0  0  0  2  0  0  0  0  0  0
  193.3580  175.5310  135.4740 C   0  0  0  0  0  2  0  0  0  0  0  0
  194.7230  175.6100  136.1460 C   0  0  0  0  0  2  0  0  0  0  0  0
  195.4340  174.2610  136.1150 C   0  0  2  0  0  3  0  0  0  0  0  0
  194.7400  173.3160  137.0860 C   0  0  0  0  0  1  0  0  0  0  0  0
  196.9130  174.4160  136.4850 C   0  0  1  0  0  3  0  0  0  0  0  0
  197.2370  175.7690  136.6030 O   0  0  0  0  0  1  0  0  0  0  0  0
  197.2220  173.7320  137.8120 C   0  0  0  0  0  2  0  0  0  0  0  0
  197.9760  174.6610  138.7540 C   0  0  0  0  0  2  0  0  0  0  0  0
  197.6700  175.2730  141.1830 N   0  0  0  0  0  1  0  0  0  0  0  0
  197.1090  175.0840  139.8890 C   0  0  0  0  0  0  0  0  0  0  0  0
  195.8840  175.3020  139.6980 O   0  0  0  0  0  0  0  0  0  0  0  0
  186.0550  178.2160  137.7490 C   0  0  0  0  0  2  0  0  0  0  0  0
  184.9140  177.3770  138.3060 C   0  0  0  0  0  2  0  0  0  0  0  0
  183.5890  177.7380  137.6490 C   0  0  0  0  0  2  0  0  0  0  0  0
  182.4100  177.3710  138.5350 C   0  0  0  0  0  2  0  0  0  0  0  0
  182.7880  177.5050  139.9990 C   0  0  0  0  0  2  0  0  0  0  0  0
  181.1080  179.4140  142.1160 C   0  0  0  0  0  2  0  0  0  0  0  0
  182.7190  178.9040  140.4010 N   0  0  0  0  0  0  0  0  0  0  0  0
  184.6070  178.4150  142.4210 O   0  0  0  0  0  0  0  0  0  0  0  0
  182.4270  178.9360  141.7730 N   0  0  0  0  0  0  0  0  0  0  0  0
  181.5440  179.4780  139.7470 C   0  0  0  0  0  2  0  0  0  0  0  0
  180.0000  180.9980  140.7430 O   0  0  0  0  0  1  0  0  0  0  0  0
  183.4300  178.7080  142.7690 C   0  0  0  0  0  0  0  0  0  0  0  0
  180.4500  179.6800  140.7870 C   0  0  2  0  0  3  0  0  0  0  0  0
  184.0950  178.9140  145.1310 C   0  0  0  0  0  1  0  0  0  0  0  0
  183.1000  178.8140  144.1230 O   0  0  0  0  0  0  0  0  0  0  0  0
  1  7  1  0  0  0  0
  2 13  1  0  0  0  0
  3  8  1  0  0  0  0
  3 20  1  0  0  0  0
  4 11  1  0  0  0  0
  4  2  2  0  0  0  0
  5 12  1  0  0  0  0
  5 15  1  0  0  0  0
  6 34  1  0  0  0  0
  6  9  1  0  0  0  0
  8 21  1  1  0  0  0
  8 14  1  0  0  0  0
  8 20  1  0  0  0  0
  9  4  1  0  0  0  0
 10  2  1  0  0  0  0
 10 18  1  0  0  0  0
 12 22  1  6  0  0  0
 12 19  1  0  0  0  0
 13  7  2  0  0  0  0
 14  5  1  0  0  0  0
 15  9  2  0  0  0  0
 15 17  1  0  0  0  0
 17 10  2  0  0  0  0
 18  1  2  0  0  0  0
 19 17  1  0  0  0  0
 20 16  1  1  0  0  0
 20  6  1  0  0  0  0
 23 22  1  0  0  0  0
 23 24  1  0  0  0  0
 25 24  1  0  0  0  0
 25 27  1  0  0  0  0
 25 26  1  1  0  0  0
 27 28  1  1  0  0  0
 27 29  1  0  0  0  0
 29 30  1  0  0  0  0
 30 32  1  0  0  0  0
 32 31  1  0  0  0  0
 33 32  2  0  0  0  0
 34 35  1  0  0  0  0
 36 35  1  0  0  0  0
 36 37  1  0  0  0  0
 37 38  1  0  0  0  0
 38 40  1  0  0  0  0
 40 42  1  0  0  0  0
 41 45  2  0  0  0  0
 42 39  1  0  0  0  0
 42 45  1  0  0  0  0
 43 40  1  0  0  0  0
 43 46  1  0  0  0  0
 45 48  1  0  0  0  0
 46 44  1  1  0  0  0
 46 39  1  0  0  0  0
 48 47  1  0  0  0  0
M  END
>  <MODEL>
9

>  <REMARK>
 VINA RESULT:      -6.3      4.204      8.484
  Name = 
  15 active torsions:
  status: ('A' for Active; 'I' for Inactive)
    1  A    between atoms: C_3  and  C_5
    2  A    between atoms: C_3  and  C_29
    3  A    between atoms: C_4  and  C_9
    4  A    between atoms: C_4  and  N_13
    5  A    between atoms: C_5  and  C_45
    6  A    between atoms: C_6  and  C_20
    7  A    between atoms: C_6  and  C_31
    8  A    between atoms: C_9  and  C_23
    9  A    between atoms: O_14  and  C_43
   10  A    between atoms: N_16  and  C_32
   11  A    between atoms: C_17  and  C_38
   12  A    between atoms: C_20  and  C_29
   13  A    between atoms: C_23  and  C_46
   14  A    between atoms: C_32  and  C_46
   15  A    between atoms: C_38  and  C_45
                            x       y       z     vdW  Elec       q    Type
                         _______ _______ _______ _____ _____    ______ ____

>  <TORSDO>
F 15

$$$$
