=
 OpenBabel10232411333D

 27 28  0  0  1  0  0  0  0  0999 V2000
  185.9720  179.5330  140.9790 O   0  0  0  0  0  0  0  0  0  0  0  0
  186.0490  178.7520  142.1070 N   0  0  0  0  0  2  0  0  0  0  0  0
  181.8620  178.6600  140.0760 N   0  0  0  0  0  1  0  0  0  0  0  0
  183.8850  178.6540  141.3730 C   0  0  0  0  0  0  0  0  0  0  0  0
  184.7000  178.4210  142.5530 C   0  0  2  0  0  3  0  0  0  0  0  0
  182.5840  178.3820  141.2730 C   0  0  0  0  0  3  0  0  0  0  0  0
  184.7450  179.2450  140.3440 C   0  0  2  0  0  3  0  0  0  0  0  0
  184.2830  179.3530  143.6820 C   0  0  0  0  0  2  0  0  0  0  0  0
  184.3020  178.6120  145.0070 C   0  0  0  0  0  2  0  0  0  0  0  0
  185.4200  179.1370  145.8880 C   0  0  0  0  0  2  0  0  0  0  0  0
  186.1080  178.0290  146.5340 N   0  0  0  0  0  2  0  0  0  0  0  0
  189.2410  177.0580  144.7980 C   0  0  0  0  0  3  0  0  0  0  0  0
  187.9120  177.4090  145.0400 C   0  0  0  0  0  3  0  0  0  0  0  0
  188.4200  177.5730  147.4010 C   0  0  0  0  0  0  0  0  0  0  0  0
  188.0620  177.8250  148.7560 N   0  0  0  0  0  1  0  0  0  0  0  0
  189.7400  177.2170  147.1100 C   0  0  0  0  0  3  0  0  0  0  0  0
  187.4850  177.6720  146.3450 C   0  0  0  0  0  0  0  0  0  0  0  0
  190.1200  176.9690  145.8300 N   0  0  0  0  0  0  0  0  0  0  0  0
  184.9710  178.2630  139.2020 C   0  0  0  0  0  2  0  0  0  0  0  0
  185.5640  178.9180  138.1210 O   0  0  0  0  0  0  0  0  0  0  0  0
  186.4210  177.9700  137.5520 C   0  0  1  0  0  3  0  0  0  0  0  0
  188.7260  178.4800  138.4620 C   0  0  0  0  0  0  0  0  0  0  0  0
  189.6370  178.2150  139.2870 O   0  0  0  0  0  0  0  0  0  0  0  0
  187.5270  177.7030  138.4600 N   0  0  0  0  0  2  0  0  0  0  0  0
  188.9030  179.5470  137.5340 N   0  0  0  0  0  1  0  0  0  0  0  0
  186.6980  175.8370  137.0410 C   0  0  0  0  0  1  0  0  0  0  0  0
  185.7160  176.7870  137.3210 O   0  0  0  0  0  0  0  0  0  0  0  0
  1  2  1  0  0  0  0
  2  5  1  0  0  0  0
  3  6  1  0  0  0  0
  4  5  1  0  0  0  0
  5  8  1  1  0  0  0
  6  4  2  0  0  0  0
  7 19  1  6  0  0  0
  7  1  1  0  0  0  0
  7  4  1  0  0  0  0
  8  9  1  0  0  0  0
  9 10  1  0  0  0  0
 10 11  1  0  0  0  0
 12 13  2  0  0  0  0
 12 18  1  0  0  0  0
 13 17  1  0  0  0  0
 14 15  1  0  0  0  0
 16 14  1  0  0  0  0
 17 11  1  0  0  0  0
 17 14  2  0  0  0  0
 18 16  2  0  0  0  0
 20 19  1  0  0  0  0
 21 27  1  1  0  0  0
 21 20  1  0  0  0  0
 21 24  1  0  0  0  0
 22 23  2  0  0  0  0
 24 22  1  0  0  0  0
 25 22  1  0  0  0  0
 26 27  1  0  0  0  0
M  END
>  <MODEL>
1

>  <REMARK>
 VINA RESULT:      -7.1      0.000      0.000
  Name = 
  10 active torsions:
  status: ('A' for Active; 'I' for Inactive)
    1  A    between atoms: O_2  and  C_5
    2  A    between atoms: O_2  and  C_27
    3  A    between atoms: C_5  and  O_11
    4  A    between atoms: C_5  and  N_14
    5  A    between atoms: C_9  and  N_13
    6  A    between atoms: C_9  and  C_25
    7  A    between atoms: N_13  and  C_23
    8  A    between atoms: C_17  and  C_18
    9  A    between atoms: C_18  and  C_25
   10  A    between atoms: C_22  and  C_27
                            x       y       z     vdW  Elec       q    Type
                         _______ _______ _______ _____ _____    ______ ____

>  <TORSDO>
F 10

$$$$
=
 OpenBabel10232411333D

 27 28  0  0  1  0  0  0  0  0999 V2000
  185.8240  178.9350  142.2670 O   0  0  0  0  0  0  0  0  0  0  0  0
  186.1690  178.1360  143.3300 N   0  0  0  0  0  2  0  0  0  0  0  0
  181.6640  179.3040  143.2810 N   0  0  0  0  0  1  0  0  0  0  0  0
  183.9650  178.6830  143.5950 C   0  0  0  0  0  0  0  0  0  0  0  0
  185.1150  178.1960  144.3360 C   0  0  2  0  0  3  0  0  0  0  0  0
  182.7300  178.8000  144.0820 C   0  0  0  0  0  3  0  0  0  0  0  0
  184.4170  179.0290  142.2440 C   0  0  2  0  0  3  0  0  0  0  0  0
  185.4990  179.1790  145.4340 C   0  0  0  0  0  2  0  0  0  0  0  0
  185.7100  178.4440  146.7450 C   0  0  0  0  0  2  0  0  0  0  0  0
  186.8790  177.4840  146.6280 C   0  0  0  0  0  2  0  0  0  0  0  0
  188.1090  178.2240  146.3840 N   0  0  0  0  0  2  0  0  0  0  0  0
  191.2610  176.5990  147.4760 C   0  0  0  0  0  3  0  0  0  0  0  0
  189.9820  177.1590  147.4910 C   0  0  0  0  0  3  0  0  0  0  0  0
  190.1820  177.5890  145.1170 C   0  0  0  0  0  0  0  0  0  0  0  0
  189.6850  178.0780  143.8750 N   0  0  0  0  0  1  0  0  0  0  0  0
  191.4580  177.0200  145.1520 C   0  0  0  0  0  3  0  0  0  0  0  0
  189.4260  177.6600  146.3100 C   0  0  0  0  0  0  0  0  0  0  0  0
  191.9670  176.5430  146.3170 N   0  0  0  0  0  0  0  0  0  0  0  0
  183.8500  178.0530  141.2210 C   0  0  0  0  0  2  0  0  0  0  0  0
  183.1720  178.7530  140.2200 O   0  0  0  0  0  0  0  0  0  0  0  0
  184.1790  179.3420  139.4500 C   0  0  1  0  0  3  0  0  0  0  0  0
  185.8560  178.0280  138.0840 C   0  0  0  0  0  0  0  0  0  0  0  0
  186.0830  177.2530  137.1200 O   0  0  0  0  0  0  0  0  0  0  0  0
  184.5210  178.4670  138.3370 N   0  0  0  0  0  2  0  0  0  0  0  0
  186.9340  178.4650  138.9070 N   0  0  0  0  0  1  0  0  0  0  0  0
  182.3800  180.3600  138.6630 C   0  0  0  0  0  1  0  0  0  0  0  0
  183.7290  180.5670  138.9540 O   0  0  0  0  0  0  0  0  0  0  0  0
  1  2  1  0  0  0  0
  2  5  1  0  0  0  0
  3  6  1  0  0  0  0
  4  6  2  0  0  0  0
  4  5  1  0  0  0  0
  5  8  1  1  0  0  0
  7 19  1  6  0  0  0
  7  1  1  0  0  0  0
  7  4  1  0  0  0  0
  8  9  1  0  0  0  0
 10  9  1  0  0  0  0
 11 10  1  0  0  0  0
 12 13  1  0  0  0  0
 14 16  2  0  0  0  0
 14 17  1  0  0  0  0
 15 14  1  0  0  0  0
 16 18  1  0  0  0  0
 17 11  1  0  0  0  0
 17 13  2  0  0  0  0
 18 12  2  0  0  0  0
 20 19  1  0  0  0  0
 21 24  1  6  0  0  0
 21 20  1  0  0  0  0
 22 24  1  0  0  0  0
 22 25  1  0  0  0  0
 23 22  2  0  0  0  0
 26 27  1  0  0  0  0
 27 21  1  0  0  0  0
M  END
>  <MODEL>
2

>  <REMARK>
 VINA RESULT:      -7.0      1.823      3.086
  Name = 
  10 active torsions:
  status: ('A' for Active; 'I' for Inactive)
    1  A    between atoms: O_2  and  C_5
    2  A    between atoms: O_2  and  C_27
    3  A    between atoms: C_5  and  O_11
    4  A    between atoms: C_5  and  N_14
    5  A    between atoms: C_9  and  N_13
    6  A    between atoms: C_9  and  C_25
    7  A    between atoms: N_13  and  C_23
    8  A    between atoms: C_17  and  C_18
    9  A    between atoms: C_18  and  C_25
   10  A    between atoms: C_22  and  C_27
                            x       y       z     vdW  Elec       q    Type
                         _______ _______ _______ _____ _____    ______ ____

>  <TORSDO>
F 10

$$$$
=
 OpenBabel10232411333D

 27 28  0  0  1  0  0  0  0  0999 V2000
  189.3100  175.7180  143.0070 O   0  0  0  0  0  0  0  0  0  0  0  0
  188.1320  176.3160  143.3860 N   0  0  0  0  0  2  0  0  0  0  0  0
  191.8650  179.0230  144.0170 N   0  0  0  0  0  1  0  0  0  0  0  0
  189.8170  177.7690  143.9120 C   0  0  0  0  0  0  0  0  0  0  0  0
  188.4300  177.4720  144.2230 C   0  0  2  0  0  3  0  0  0  0  0  0
  190.4980  178.8210  144.3650 C   0  0  0  0  0  3  0  0  0  0  0  0
  190.3180  176.7050  143.0360 C   0  0  2  0  0  3  0  0  0  0  0  0
  188.2790  177.1030  145.6920 C   0  0  0  0  0  2  0  0  0  0  0  0
  187.2950  178.0400  146.3700 C   0  0  0  0  0  2  0  0  0  0  0  0
  185.8910  177.7940  145.8480 C   0  0  0  0  0  2  0  0  0  0  0  0
  185.5010  178.8650  144.9430 N   0  0  0  0  0  2  0  0  0  0  0  0
  181.9990  178.8800  143.7170 C   0  0  0  0  0  3  0  0  0  0  0  0
  183.1090  178.9110  144.5630 C   0  0  0  0  0  3  0  0  0  0  0  0
  184.5470  178.7160  142.6250 C   0  0  0  0  0  0  0  0  0  0  0  0
  185.8250  178.6280  142.0040 N   0  0  0  0  0  1  0  0  0  0  0  0
  183.4060  178.6890  141.8190 C   0  0  0  0  0  3  0  0  0  0  0  0
  184.3980  178.8290  144.0270 C   0  0  0  0  0  0  0  0  0  0  0  0
  182.1680  178.7700  142.3740 N   0  0  0  0  0  0  0  0  0  0  0  0
  190.5620  177.2370  141.6290 C   0  0  0  0  0  2  0  0  0  0  0  0
  190.3610  176.2190  140.6940 O   0  0  0  0  0  0  0  0  0  0  0  0
  190.7230  176.7820  139.4670 C   0  0  1  0  0  3  0  0  0  0  0  0
  189.3500  178.2780  137.9570 C   0  0  0  0  0  0  0  0  0  0  0  0
  188.6570  179.3190  137.8190 O   0  0  0  0  0  0  0  0  0  0  0  0
  189.9330  177.9820  139.2270 N   0  0  0  0  0  2  0  0  0  0  0  0
  189.5490  177.4110  136.8440 N   0  0  0  0  0  1  0  0  0  0  0  0
  192.6380  176.4150  138.4230 C   0  0  0  0  0  1  0  0  0  0  0  0
  192.0790  177.1180  139.4900 O   0  0  0  0  0  0  0  0  0  0  0  0
  1  7  1  0  0  0  0
  1  2  1  0  0  0  0
  2  5  1  0  0  0  0
  3  6  1  0  0  0  0
  4  5  1  0  0  0  0
  4  6  2  0  0  0  0
  5  8  1  1  0  0  0
  7 19  1  6  0  0  0
  7  4  1  0  0  0  0
  8  9  1  0  0  0  0
 10  9  1  0  0  0  0
 11 10  1  0  0  0  0
 12 13  1  0  0  0  0
 14 17  1  0  0  0  0
 15 14  1  0  0  0  0
 16 18  1  0  0  0  0
 16 14  2  0  0  0  0
 17 13  2  0  0  0  0
 17 11  1  0  0  0  0
 18 12  2  0  0  0  0
 20 19  1  0  0  0  0
 21 24  1  1  0  0  0
 21 27  1  0  0  0  0
 21 20  1  0  0  0  0
 22 24  1  0  0  0  0
 23 22  2  0  0  0  0
 25 22  1  0  0  0  0
 26 27  1  0  0  0  0
M  END
>  <MODEL>
3

>  <REMARK>
 VINA RESULT:      -7.0      2.365      5.814
  Name = 
  10 active torsions:
  status: ('A' for Active; 'I' for Inactive)
    1  A    between atoms: O_2  and  C_5
    2  A    between atoms: O_2  and  C_27
    3  A    between atoms: C_5  and  O_11
    4  A    between atoms: C_5  and  N_14
    5  A    between atoms: C_9  and  N_13
    6  A    between atoms: C_9  and  C_25
    7  A    between atoms: N_13  and  C_23
    8  A    between atoms: C_17  and  C_18
    9  A    between atoms: C_18  and  C_25
   10  A    between atoms: C_22  and  C_27
                            x       y       z     vdW  Elec       q    Type
                         _______ _______ _______ _____ _____    ______ ____

>  <TORSDO>
F 10

$$$$
=
 OpenBabel10232411333D

 27 28  0  0  1  0  0  0  0  0999 V2000
  186.7390  177.2340  143.3290 O   0  0  0  0  0  0  0  0  0  0  0  0
  186.3660  178.3220  142.5760 N   0  0  0  0  0  2  0  0  0  0  0  0
  184.7220  178.4330  146.9290 N   0  0  0  0  0  1  0  0  0  0  0  0
  185.3380  178.5310  144.6080 C   0  0  0  0  0  0  0  0  0  0  0  0
  185.2580  179.0030  143.2360 C   0  0  2  0  0  3  0  0  0  0  0  0
  184.5820  178.9670  145.6160 C   0  0  0  0  0  3  0  0  0  0  0  0
  186.3740  177.4950  144.6660 C   0  0  2  0  0  3  0  0  0  0  0  0
  183.9390  178.5840  142.6030 C   0  0  0  0  0  2  0  0  0  0  0  0
  184.1750  178.0610  141.1970 C   0  0  0  0  0  2  0  0  0  0  0  0
  183.9140  179.1550  140.1780 C   0  0  0  0  0  2  0  0  0  0  0  0
  185.0820  179.3330  139.3280 N   0  0  0  0  0  2  0  0  0  0  0  0
  185.2780  176.7460  136.6750 C   0  0  0  0  0  3  0  0  0  0  0  0
  184.7840  177.7180  137.5470 C   0  0  0  0  0  3  0  0  0  0  0  0
  187.0080  177.9690  138.4700 C   0  0  0  0  0  0  0  0  0  0  0  0
  187.9450  178.5590  139.3650 N   0  0  0  0  0  1  0  0  0  0  0  0
  187.4550  176.9920  137.5780 C   0  0  0  0  0  3  0  0  0  0  0  0
  185.6440  178.3420  138.4560 C   0  0  0  0  0  0  0  0  0  0  0  0
  186.5920  176.4050  136.7080 N   0  0  0  0  0  0  0  0  0  0  0  0
  187.5850  177.9890  145.4480 C   0  0  0  0  0  2  0  0  0  0  0  0
  187.7190  177.2560  146.6290 O   0  0  0  0  0  0  0  0  0  0  0  0
  189.0940  177.2270  146.8800 C   0  0  1  0  0  3  0  0  0  0  0  0
  191.1840  177.4000  145.4640 C   0  0  0  0  0  0  0  0  0  0  0  0
  191.7440  177.8370  144.4260 O   0  0  0  0  0  0  0  0  0  0  0  0
  189.8140  177.7190  145.7130 N   0  0  0  0  0  2  0  0  0  0  0  0
  191.9240  176.6010  146.3820 N   0  0  0  0  0  1  0  0  0  0  0  0
  188.2440  177.9720  148.7810 C   0  0  0  0  0  1  0  0  0  0  0  0
  189.3840  178.0380  147.9790 O   0  0  0  0  0  0  0  0  0  0  0  0
  1  7  1  0  0  0  0
  2  5  1  0  0  0  0
  2  1  1  0  0  0  0
  4  7  1  0  0  0  0
  4  6  2  0  0  0  0
  5  8  1  6  0  0  0
  5  4  1  0  0  0  0
  6  3  1  0  0  0  0
  7 19  1  1  0  0  0
  9  8  1  0  0  0  0
 10  9  1  0  0  0  0
 11 10  1  0  0  0  0
 12 18  2  0  0  0  0
 12 13  1  0  0  0  0
 13 17  2  0  0  0  0
 14 15  1  0  0  0  0
 16 14  2  0  0  0  0
 17 14  1  0  0  0  0
 17 11  1  0  0  0  0
 18 16  1  0  0  0  0
 19 20  1  0  0  0  0
 20 21  1  0  0  0  0
 21 24  1  6  0  0  0
 21 27  1  0  0  0  0
 22 24  1  0  0  0  0
 22 25  1  0  0  0  0
 23 22  2  0  0  0  0
 27 26  1  0  0  0  0
M  END
>  <MODEL>
4

>  <REMARK>
 VINA RESULT:      -6.9      2.678      7.568
  Name = 
  10 active torsions:
  status: ('A' for Active; 'I' for Inactive)
    1  A    between atoms: O_2  and  C_5
    2  A    between atoms: O_2  and  C_27
    3  A    between atoms: C_5  and  O_11
    4  A    between atoms: C_5  and  N_14
    5  A    between atoms: C_9  and  N_13
    6  A    between atoms: C_9  and  C_25
    7  A    between atoms: N_13  and  C_23
    8  A    between atoms: C_17  and  C_18
    9  A    between atoms: C_18  and  C_25
   10  A    between atoms: C_22  and  C_27
                            x       y       z     vdW  Elec       q    Type
                         _______ _______ _______ _____ _____    ______ ____

>  <TORSDO>
F 10

$$$$
=
 OpenBabel10232411333D

 27 28  0  0  1  0  0  0  0  0999 V2000
  186.9170  177.0900  143.4960 O   0  0  0  0  0  0  0  0  0  0  0  0
  186.5310  178.1490  142.7100 N   0  0  0  0  0  2  0  0  0  0  0  0
  185.0060  178.4500  147.0970 N   0  0  0  0  0  1  0  0  0  0  0  0
  185.5590  178.4480  144.7580 C   0  0  0  0  0  0  0  0  0  0  0  0
  185.4460  178.8650  143.3710 C   0  0  2  0  0  3  0  0  0  0  0  0
  184.8340  178.9310  145.7670 C   0  0  0  0  0  3  0  0  0  0  0  0
  186.5900  177.4080  144.8300 C   0  0  2  0  0  3  0  0  0  0  0  0
  184.1070  178.4310  142.7910 C   0  0  0  0  0  2  0  0  0  0  0  0
  184.2740  178.0160  141.3390 C   0  0  0  0  0  2  0  0  0  0  0  0
  183.8910  179.1600  140.4190 C   0  0  0  0  0  2  0  0  0  0  0  0
  184.9450  179.3880  139.4410 N   0  0  0  0  0  2  0  0  0  0  0  0
  185.0260  176.8490  136.7360 C   0  0  0  0  0  3  0  0  0  0  0  0
  184.5710  177.8060  137.6450 C   0  0  0  0  0  3  0  0  0  0  0  0
  186.8310  178.0360  138.4810 C   0  0  0  0  0  0  0  0  0  0  0  0
  187.8050  178.6080  139.3480 N   0  0  0  0  0  1  0  0  0  0  0  0
  187.2390  177.0740  137.5540 C   0  0  0  0  0  3  0  0  0  0  0  0
  185.4690  178.4120  138.5290 C   0  0  0  0  0  0  0  0  0  0  0  0
  186.3400  176.5050  136.7100 N   0  0  0  0  0  0  0  0  0  0  0  0
  187.8250  177.9240  145.5580 C   0  0  0  0  0  2  0  0  0  0  0  0
  188.7840  176.9130  145.6420 O   0  0  0  0  0  0  0  0  0  0  0  0
  189.9990  177.5460  145.3600 C   0  0  1  0  0  3  0  0  0  0  0  0
  191.7740  176.2700  146.6340 C   0  0  0  0  0  0  0  0  0  0  0  0
  192.6870  175.4050  146.6280 O   0  0  0  0  0  0  0  0  0  0  0  0
  191.0830  176.5750  145.4220 N   0  0  0  0  0  2  0  0  0  0  0  0
  191.4470  176.9410  147.8480 N   0  0  0  0  0  1  0  0  0  0  0  0
  190.5470  177.1500  143.2550 C   0  0  0  0  0  1  0  0  0  0  0  0
  189.9470  178.1010  144.0800 O   0  0  0  0  0  0  0  0  0  0  0  0
  1  7  1  0  0  0  0
  2  5  1  0  0  0  0
  2  1  1  0  0  0  0
  4  7  1  0  0  0  0
  4  6  2  0  0  0  0
  5  8  1  6  0  0  0
  5  4  1  0  0  0  0
  6  3  1  0  0  0  0
  7 19  1  1  0  0  0
  9  8  1  0  0  0  0
 10  9  1  0  0  0  0
 11 10  1  0  0  0  0
 12 13  1  0  0  0  0
 13 17  2  0  0  0  0
 14 17  1  0  0  0  0
 14 15  1  0  0  0  0
 16 14  2  0  0  0  0
 17 11  1  0  0  0  0
 18 12  2  0  0  0  0
 18 16  1  0  0  0  0
 19 20  1  0  0  0  0
 21 27  1  6  0  0  0
 21 24  1  0  0  0  0
 21 20  1  0  0  0  0
 22 25  1  0  0  0  0
 23 22  2  0  0  0  0
 24 22  1  0  0  0  0
 26 27  1  0  0  0  0
M  END
>  <MODEL>
5

>  <REMARK>
 VINA RESULT:      -6.8      2.707      7.384
  Name = 
  10 active torsions:
  status: ('A' for Active; 'I' for Inactive)
    1  A    between atoms: O_2  and  C_5
    2  A    between atoms: O_2  and  C_27
    3  A    between atoms: C_5  and  O_11
    4  A    between atoms: C_5  and  N_14
    5  A    between atoms: C_9  and  N_13
    6  A    between atoms: C_9  and  C_25
    7  A    between atoms: N_13  and  C_23
    8  A    between atoms: C_17  and  C_18
    9  A    between atoms: C_18  and  C_25
   10  A    between atoms: C_22  and  C_27
                            x       y       z     vdW  Elec       q    Type
                         _______ _______ _______ _____ _____    ______ ____

>  <TORSDO>
F 10

$$$$
=
 OpenBabel10232411333D

 27 28  0  0  1  0  0  0  0  0999 V2000
  185.8260  179.5450  141.1030 O   0  0  0  0  0  0  0  0  0  0  0  0
  185.8720  178.7320  142.2110 N   0  0  0  0  0  2  0  0  0  0  0  0
  181.7330  178.7250  140.0810 N   0  0  0  0  0  1  0  0  0  0  0  0
  183.7250  178.6700  141.4250 C   0  0  0  0  0  0  0  0  0  0  0  0
  184.5110  178.4000  142.6160 C   0  0  2  0  0  3  0  0  0  0  0  0
  182.4250  178.4110  141.2860 C   0  0  0  0  0  3  0  0  0  0  0  0
  184.6130  179.2830  140.4320 C   0  0  2  0  0  3  0  0  0  0  0  0
  184.0730  179.3040  143.7600 C   0  0  0  0  0  2  0  0  0  0  0  0
  184.2290  178.5820  145.0870 C   0  0  0  0  0  2  0  0  0  0  0  0
  185.4220  179.1310  145.8480 C   0  0  0  0  0  2  0  0  0  0  0  0
  186.1170  178.0500  146.5330 N   0  0  0  0  0  2  0  0  0  0  0  0
  189.2590  177.0740  144.8180 C   0  0  0  0  0  3  0  0  0  0  0  0
  187.9290  177.4270  145.0510 C   0  0  0  0  0  3  0  0  0  0  0  0
  188.4220  177.5930  147.4140 C   0  0  0  0  0  0  0  0  0  0  0  0
  188.0560  177.8460  148.7670 N   0  0  0  0  0  1  0  0  0  0  0  0
  189.7430  177.2350  147.1330 C   0  0  0  0  0  3  0  0  0  0  0  0
  187.4940  177.6920  146.3530 C   0  0  0  0  0  0  0  0  0  0  0  0
  190.1320  176.9850  145.8550 N   0  0  0  0  0  0  0  0  0  0  0  0
  184.8590  178.3300  139.2690 C   0  0  0  0  0  2  0  0  0  0  0  0
  185.6420  178.9580  138.2980 O   0  0  0  0  0  0  0  0  0  0  0  0
  186.6490  178.0360  137.9970 C   0  0  1  0  0  3  0  0  0  0  0  0
  186.7520  176.1520  136.3100 C   0  0  0  0  0  0  0  0  0  0  0  0
  186.5260  175.7430  135.1420 O   0  0  0  0  0  0  0  0  0  0  0  0
  186.4380  177.5010  136.6580 N   0  0  0  0  0  2  0  0  0  0  0  0
  187.3250  175.2680  137.2680 N   0  0  0  0  0  1  0  0  0  0  0  0
  188.4950  178.1670  139.2060 C   0  0  0  0  0  1  0  0  0  0  0  0
  187.8920  178.6690  138.0530 O   0  0  0  0  0  0  0  0  0  0  0  0
  1  2  1  0  0  0  0
  2  5  1  0  0  0  0
  3  6  1  0  0  0  0
  4  5  1  0  0  0  0
  5  8  1  1  0  0  0
  6  4  2  0  0  0  0
  7 19  1  6  0  0  0
  7  1  1  0  0  0  0
  7  4  1  0  0  0  0
  8  9  1  0  0  0  0
  9 10  1  0  0  0  0
 10 11  1  0  0  0  0
 12 13  2  0  0  0  0
 12 18  1  0  0  0  0
 13 17  1  0  0  0  0
 14 15  1  0  0  0  0
 16 14  1  0  0  0  0
 17 11  1  0  0  0  0
 17 14  2  0  0  0  0
 18 16  2  0  0  0  0
 20 19  1  0  0  0  0
 21 24  1  6  0  0  0
 21 27  1  0  0  0  0
 21 20  1  0  0  0  0
 22 24  1  0  0  0  0
 22 25  1  0  0  0  0
 23 22  2  0  0  0  0
 27 26  1  0  0  0  0
M  END
>  <MODEL>
6

>  <REMARK>
 VINA RESULT:      -6.8      1.017      1.876
  Name = 
  10 active torsions:
  status: ('A' for Active; 'I' for Inactive)
    1  A    between atoms: O_2  and  C_5
    2  A    between atoms: O_2  and  C_27
    3  A    between atoms: C_5  and  O_11
    4  A    between atoms: C_5  and  N_14
    5  A    between atoms: C_9  and  N_13
    6  A    between atoms: C_9  and  C_25
    7  A    between atoms: N_13  and  C_23
    8  A    between atoms: C_17  and  C_18
    9  A    between atoms: C_18  and  C_25
   10  A    between atoms: C_22  and  C_27
                            x       y       z     vdW  Elec       q    Type
                         _______ _______ _______ _____ _____    ______ ____

>  <TORSDO>
F 10

$$$$
=
 OpenBabel10232411333D

 27 28  0  0  1  0  0  0  0  0999 V2000
  191.3220  177.2670  140.1630 O   0  0  0  0  0  0  0  0  0  0  0  0
  190.7580  176.6510  141.2550 N   0  0  0  0  0  2  0  0  0  0  0  0
  187.6270  178.5500  138.3820 N   0  0  0  0  0  1  0  0  0  0  0  0
  189.0520  177.6160  140.0770 C   0  0  0  0  0  0  0  0  0  0  0  0
  189.3760  177.0960  141.3940 C   0  0  2  0  0  3  0  0  0  0  0  0
  187.8480  178.0410  139.6950 C   0  0  0  0  0  3  0  0  0  0  0  0
  190.2770  177.5970  139.2740 C   0  0  2  0  0  3  0  0  0  0  0  0
  189.2880  178.1980  142.4400 C   0  0  0  0  0  2  0  0  0  0  0  0
  190.1890  177.8770  143.6190 C   0  0  0  0  0  2  0  0  0  0  0  0
  189.3680  177.7370  144.8870 C   0  0  0  0  0  2  0  0  0  0  0  0
  188.0290  177.2660  144.5640 N   0  0  0  0  0  2  0  0  0  0  0  0
  185.5300  178.4130  147.0560 C   0  0  0  0  0  3  0  0  0  0  0  0
  186.6990  177.9080  146.4850 C   0  0  0  0  0  3  0  0  0  0  0  0
  185.7090  178.1890  144.2940 C   0  0  0  0  0  0  0  0  0  0  0  0
  185.7390  178.1000  142.8730 N   0  0  0  0  0  1  0  0  0  0  0  0
  184.5590  178.6880  144.9110 C   0  0  0  0  0  3  0  0  0  0  0  0
  186.8040  177.7910  145.0950 C   0  0  0  0  0  0  0  0  0  0  0  0
  184.4920  178.7880  146.2650 N   0  0  0  0  0  0  0  0  0  0  0  0
  190.1830  176.5480  138.1730 C   0  0  0  0  0  2  0  0  0  0  0  0
  190.8490  175.3850  138.5660 O   0  0  0  0  0  0  0  0  0  0  0  0
  191.4870  174.9270  137.4090 C   0  0  1  0  0  3  0  0  0  0  0  0
  193.9480  175.4350  137.7030 C   0  0  0  0  0  0  0  0  0  0  0  0
  195.0980  175.0300  138.0130 O   0  0  0  0  0  0  0  0  0  0  0  0
  192.8490  174.5230  137.7290 N   0  0  0  0  0  2  0  0  0  0  0  0
  193.7570  176.7950  137.3250 N   0  0  0  0  0  1  0  0  0  0  0  0
  191.0020  173.8920  135.5160 C   0  0  0  0  0  1  0  0  0  0  0  0
  190.7880  173.8340  136.8940 O   0  0  0  0  0  0  0  0  0  0  0  0
  1  2  1  0  0  0  0
  2  5  1  0  0  0  0
  3  6  1  0  0  0  0
  4  5  1  0  0  0  0
  5  8  1  1  0  0  0
  6  4  2  0  0  0  0
  7 19  1  6  0  0  0
  7  4  1  0  0  0  0
  7  1  1  0  0  0  0
  8  9  1  0  0  0  0
  9 10  1  0  0  0  0
 11 10  1  0  0  0  0
 11 17  1  0  0  0  0
 13 12  1  0  0  0  0
 14 16  2  0  0  0  0
 14 17  1  0  0  0  0
 15 14  1  0  0  0  0
 16 18  1  0  0  0  0
 17 13  2  0  0  0  0
 18 12  2  0  0  0  0
 19 20  1  0  0  0  0
 21 27  1  1  0  0  0
 21 24  1  0  0  0  0
 21 20  1  0  0  0  0
 22 24  1  0  0  0  0
 22 23  2  0  0  0  0
 25 22  1  0  0  0  0
 26 27  1  0  0  0  0
M  END
>  <MODEL>
7

>  <REMARK>
 VINA RESULT:      -6.6      3.387      5.363
  Name = 
  10 active torsions:
  status: ('A' for Active; 'I' for Inactive)
    1  A    between atoms: O_2  and  C_5
    2  A    between atoms: O_2  and  C_27
    3  A    between atoms: C_5  and  O_11
    4  A    between atoms: C_5  and  N_14
    5  A    between atoms: C_9  and  N_13
    6  A    between atoms: C_9  and  C_25
    7  A    between atoms: N_13  and  C_23
    8  A    between atoms: C_17  and  C_18
    9  A    between atoms: C_18  and  C_25
   10  A    between atoms: C_22  and  C_27
                            x       y       z     vdW  Elec       q    Type
                         _______ _______ _______ _____ _____    ______ ____

>  <TORSDO>
F 10

$$$$
=
 OpenBabel10232411333D

 27 28  0  0  1  0  0  0  0  0999 V2000
  192.1090  177.6630  141.1240 O   0  0  0  0  0  0  0  0  0  0  0  0
  191.7780  177.0610  142.3140 N   0  0  0  0  0  2  0  0  0  0  0  0
  188.0940  177.9990  139.6280 N   0  0  0  0  0  1  0  0  0  0  0  0
  189.8170  177.5420  141.2410 C   0  0  0  0  0  0  0  0  0  0  0  0
  190.3500  177.2330  142.5560 C   0  0  2  0  0  3  0  0  0  0  0  0
  188.5230  177.6790  140.9490 C   0  0  0  0  0  3  0  0  0  0  0  0
  190.9490  177.6870  140.3210 C   0  0  2  0  0  3  0  0  0  0  0  0
  190.1210  178.3960  143.5120 C   0  0  0  0  0  2  0  0  0  0  0  0
  189.7050  177.8780  144.8770 C   0  0  0  0  0  2  0  0  0  0  0  0
  188.3460  177.2090  144.7950 C   0  0  0  0  0  2  0  0  0  0  0  0
  187.3320  178.0680  145.3910 N   0  0  0  0  0  2  0  0  0  0  0  0
  184.5830  178.3990  142.9200 C   0  0  0  0  0  3  0  0  0  0  0  0
  185.8410  178.1820  143.4850 C   0  0  0  0  0  3  0  0  0  0  0  0
  184.9040  178.6470  145.6670 C   0  0  0  0  0  0  0  0  0  0  0  0
  185.0040  178.7880  147.0810 N   0  0  0  0  0  1  0  0  0  0  0  0
  183.6650  178.8550  145.0580 C   0  0  0  0  0  3  0  0  0  0  0  0
  186.0170  178.3020  144.8660 C   0  0  0  0  0  0  0  0  0  0  0  0
  183.5300  178.7290  143.7110 N   0  0  0  0  0  0  0  0  0  0  0  0
  190.9840  176.5350  139.3250 C   0  0  0  0  0  2  0  0  0  0  0  0
  192.1800  176.5660  138.6040 O   0  0  0  0  0  0  0  0  0  0  0  0
  192.0680  175.5230  137.6790 C   0  0  1  0  0  3  0  0  0  0  0  0
  194.4820  175.0410  137.0910 C   0  0  0  0  0  0  0  0  0  0  0  0
  195.4830  174.2870  137.2000 O   0  0  0  0  0  0  0  0  0  0  0  0
  193.2590  174.6860  137.7390 N   0  0  0  0  0  2  0  0  0  0  0  0
  194.5770  176.2330  136.3180 N   0  0  0  0  0  1  0  0  0  0  0  0
  190.7950  173.8970  136.8890 C   0  0  0  0  0  1  0  0  0  0  0  0
  190.9450  174.7510  137.9820 O   0  0  0  0  0  0  0  0  0  0  0  0
  1  2  1  0  0  0  0
  2  5  1  0  0  0  0
  3  6  1  0  0  0  0
  4  5  1  0  0  0  0
  5  8  1  1  0  0  0
  6  4  2  0  0  0  0
  7 19  1  6  0  0  0
  7  1  1  0  0  0  0
  7  4  1  0  0  0  0
  8  9  1  0  0  0  0
 10  9  1  0  0  0  0
 10 11  1  0  0  0  0
 12 13  2  0  0  0  0
 12 18  1  0  0  0  0
 13 17  1  0  0  0  0
 14 15  1  0  0  0  0
 16 14  1  0  0  0  0
 17 11  1  0  0  0  0
 17 14  2  0  0  0  0
 18 16  2  0  0  0  0
 20 19  1  0  0  0  0
 21 24  1  1  0  0  0
 21 27  1  0  0  0  0
 21 20  1  0  0  0  0
 22 23  2  0  0  0  0
 22 24  1  0  0  0  0
 25 22  1  0  0  0  0
 26 27  1  0  0  0  0
M  END
>  <MODEL>
8

>  <REMARK>
 VINA RESULT:      -6.6      3.585      5.691
  Name = 
  10 active torsions:
  status: ('A' for Active; 'I' for Inactive)
    1  A    between atoms: O_2  and  C_5
    2  A    between atoms: O_2  and  C_27
    3  A    between atoms: C_5  and  O_11
    4  A    between atoms: C_5  and  N_14
    5  A    between atoms: C_9  and  N_13
    6  A    between atoms: C_9  and  C_25
    7  A    between atoms: N_13  and  C_23
    8  A    between atoms: C_17  and  C_18
    9  A    between atoms: C_18  and  C_25
   10  A    between atoms: C_22  and  C_27
                            x       y       z     vdW  Elec       q    Type
                         _______ _______ _______ _____ _____    ______ ____

>  <TORSDO>
F 10

$$$$
=
 OpenBabel10232411333D

 27 28  0  0  1  0  0  0  0  0999 V2000
  189.2980  175.9050  143.3300 O   0  0  0  0  0  0  0  0  0  0  0  0
  190.4550  176.4250  142.8010 N   0  0  0  0  0  2  0  0  0  0  0  0
  186.6210  178.6920  141.4510 N   0  0  0  0  0  1  0  0  0  0  0  0
  188.7180  177.6040  141.8960 C   0  0  0  0  0  0  0  0  0  0  0  0
  190.1190  177.2920  141.6770 C   0  0  2  0  0  3  0  0  0  0  0  0
  187.9990  178.4610  141.1700 C   0  0  0  0  0  3  0  0  0  0  0  0
  188.2520  176.8030  143.0320 C   0  0  2  0  0  3  0  0  0  0  0  0
  190.3010  176.5390  140.3670 C   0  0  0  0  0  2  0  0  0  0  0  0
  191.2540  177.2940  139.4560 C   0  0  0  0  0  2  0  0  0  0  0  0
  191.4590  176.5300  138.1610 C   0  0  0  0  0  2  0  0  0  0  0  0
  190.5860  177.0640  137.1250 N   0  0  0  0  0  2  0  0  0  0  0  0
  187.0980  175.8000  137.0410 C   0  0  0  0  0  3  0  0  0  0  0  0
  188.4930  175.8490  137.0150 C   0  0  0  0  0  3  0  0  0  0  0  0
  188.3810  178.2460  137.3280 C   0  0  0  0  0  0  0  0  0  0  0  0
  188.9780  179.5300  137.4800 N   0  0  0  0  0  1  0  0  0  0  0  0
  186.9870  178.1480  137.3460 C   0  0  0  0  0  3  0  0  0  0  0  0
  189.1520  177.0730  137.1590 C   0  0  0  0  0  0  0  0  0  0  0  0
  186.3800  176.9400  137.2040 N   0  0  0  0  0  0  0  0  0  0  0  0
  187.9700  177.6910  144.2370 C   0  0  0  0  0  2  0  0  0  0  0  0
  188.5320  177.1270  145.3850 O   0  0  0  0  0  0  0  0  0  0  0  0
  187.8610  177.7360  146.4500 C   0  0  1  0  0  3  0  0  0  0  0  0
  185.5100  178.6330  146.7180 C   0  0  0  0  0  0  0  0  0  0  0  0
  184.2810  178.5110  146.4830 O   0  0  0  0  0  0  0  0  0  0  0  0
  186.4230  177.6450  146.2370 N   0  0  0  0  0  2  0  0  0  0  0  0
  185.9770  179.7510  147.4680 N   0  0  0  0  0  1  0  0  0  0  0  0
  189.4030  177.6650  148.0330 C   0  0  0  0  0  1  0  0  0  0  0  0
  188.1950  177.0890  147.6410 O   0  0  0  0  0  0  0  0  0  0  0  0
  2  1  1  0  0  0  0
  4  7  1  0  0  0  0
  5  8  1  6  0  0  0
  5  4  1  0  0  0  0
  5  2  1  0  0  0  0
  6  3  1  0  0  0  0
  6  4  2  0  0  0  0
  7  1  1  0  0  0  0
  7 19  1  1  0  0  0
  9  8  1  0  0  0  0
 10  9  1  0  0  0  0
 11 17  1  0  0  0  0
 11 10  1  0  0  0  0
 12 18  1  0  0  0  0
 13 12  2  0  0  0  0
 13 17  1  0  0  0  0
 14 16  1  0  0  0  0
 14 15  1  0  0  0  0
 17 14  2  0  0  0  0
 18 16  2  0  0  0  0
 19 20  1  0  0  0  0
 21 20  1  6  0  0  0
 21 27  1  0  0  0  0
 22 25  1  0  0  0  0
 23 22  2  0  0  0  0
 24 21  1  0  0  0  0
 24 22  1  0  0  0  0
 27 26  1  0  0  0  0
M  END
>  <MODEL>
9

>  <REMARK>
 VINA RESULT:      -6.6      3.344      8.472
  Name = 
  10 active torsions:
  status: ('A' for Active; 'I' for Inactive)
    1  A    between atoms: O_2  and  C_5
    2  A    between atoms: O_2  and  C_27
    3  A    between atoms: C_5  and  O_11
    4  A    between atoms: C_5  and  N_14
    5  A    between atoms: C_9  and  N_13
    6  A    between atoms: C_9  and  C_25
    7  A    between atoms: N_13  and  C_23
    8  A    between atoms: C_17  and  C_18
    9  A    between atoms: C_18  and  C_25
   10  A    between atoms: C_22  and  C_27
                            x       y       z     vdW  Elec       q    Type
                         _______ _______ _______ _____ _____    ______ ____

>  <TORSDO>
F 10

$$$$
