=
 OpenBabel10232412233D

 38 40  0  0  1  0  0  0  0  0999 V2000
  189.0370  177.8840  139.8100 C   0  0  2  0  0  3  0  0  0  0  0  0
  188.7070  176.7350  138.7730 C   0  0  2  0  0  3  0  0  0  0  0  0
  190.2050  177.1720  139.1220 C   0  0  2  0  0  3  0  0  0  0  0  0
  188.2220  177.3120  137.3910 C   0  0  0  0  0  2  0  0  0  0  0  0
  187.3920  179.6800  136.7430 O   0  0  0  0  0  1  0  0  0  0  0  0
  187.0510  178.3280  137.0910 C   0  0  2  0  0  3  0  0  0  0  0  0
  185.7640  178.0910  137.9120 C   0  0  0  0  0  2  0  0  0  0  0  0
  185.3600  179.2300  138.6100 O   0  0  0  0  0  0  0  0  0  0  0  0
  184.6580  179.1070  139.8850 C   0  0  0  0  0  2  0  0  0  0  0  0
  185.5140  179.1370  141.1940 C   0  0  0  0  0  2  0  0  0  0  0  0
  184.7480  178.0370  141.7920 C   0  0  0  0  0  2  0  0  0  0  0  0
  184.0670  178.4260  143.0070 C   0  0  0  0  0  2  0  0  0  0  0  0
  185.2030  178.8070  143.7800 N   0  0  0  0  0  2  0  0  0  0  0  0
  183.2560  178.8740  144.8860 C   0  0  0  0  0  1  0  0  0  0  0  0
  184.7170  179.1420  145.0510 C   0  0  1  0  0  3  0  0  0  0  0  0
  187.3080  178.3700  147.6810 O   0  0  0  0  0  0  0  0  0  0  0  0
  185.4650  178.4340  146.2470 C   0  0  1  0  0  3  0  0  0  0  0  0
  186.4050  177.4640  145.7450 N   0  0  0  0  0  2  0  0  0  0  0  0
  186.1640  179.1180  147.3830 C   0  0  0  0  0  0  0  0  0  0  0  0
  185.8840  180.1680  147.9330 O   0  0  0  0  0  0  0  0  0  0  0  0
  187.4620  177.3140  146.7680 C   0  0  0  0  0  2  0  0  0  0  0  0
  189.2970  177.3820  141.1390 C   0  0  0  0  0  2  0  0  0  0  0  0
  190.6140  177.4600  141.5380 N   0  0  0  0  0  2  0  0  0  0  0  0
  190.7540  176.6640  142.6550 C   0  0  0  0  0  0  0  0  0  0  0  0
  189.9030  175.7140  142.9390 O   0  0  0  0  0  0  0  0  0  0  0  0
  191.5960  177.2230  143.5650 C   0  0  0  0  0  2  0  0  0  0  0  0
  189.7520  178.5120  144.4220 O   0  0  0  0  0  0  0  0  0  0  0  0
  190.7260  177.7420  144.6050 C   0  0  0  0  0  0  0  0  0  0  0  0
  191.8810  176.2910  146.1390 C   0  0  0  0  0  2  0  0  0  0  0  0
  190.8910  176.9930  145.8320 N   0  0  0  0  0  0  0  0  0  0  0  0
  190.6810  175.7860  138.9130 O   0  0  0  0  0  0  0  0  0  0  0  0
  192.9630  176.0280  138.3360 C   0  0  0  0  0  0  0  0  0  0  0  0
  193.4810  177.1460  139.6300 Cl  0  0  0  0  0  0  0  0  0  0  0  0
  191.8150  174.7310  136.8820 C   0  0  0  0  0  3  0  0  0  0  0  0
  193.8550  175.3780  137.3560 C   0  0  0  0  0  0  0  0  0  0  0  0
  195.0470  175.5060  137.1530 O   0  0  0  0  0  0  0  0  0  0  0  0
  191.7790  175.5760  138.0670 C   0  0  0  0  0  0  0  0  0  0  0  0
  192.9850  174.5910  136.4910 N   0  0  0  0  0  0  0  0  0  0  0  0
  1 22  1  1  0  0  0
  2  4  1  6  0  0  0
  2  3  1  0  0  0  0
  2  1  1  0  0  0  0
  3 31  1  1  0  0  0
  3  1  1  0  0  0  0
  6  5  1  1  0  0  0
  6  4  1  0  0  0  0
  6  7  1  0  0  0  0
  7  8  1  0  0  0  0
  8  9  1  0  0  0  0
  9 10  1  0  0  0  0
 10 11  1  0  0  0  0
 11 12  1  0  0  0  0
 12 13  1  0  0  0  0
 13 15  1  0  0  0  0
 15 14  1  6  0  0  0
 17 15  1  6  0  0  0
 17 19  1  0  0  0  0
 18 17  1  0  0  0  0
 18 21  1  0  0  0  0
 19 16  1  0  0  0  0
 19 20  2  0  0  0  0
 21 16  1  0  0  0  0
 22 23  1  0  0  0  0
 23 24  1  0  0  0  0
 24 25  2  0  0  0  0
 24 26  1  0  0  0  0
 26 28  1  0  0  0  0
 27 28  2  0  0  0  0
 28 30  1  0  0  0  0
 30 29  2  0  0  0  0
 32 33  1  0  0  0  0
 34 37  1  0  0  0  0
 35 32  1  0  0  0  0
 36 35  2  0  0  0  0
 37 32  2  0  0  0  0
 37 31  1  0  0  0  0
 38 34  2  0  0  0  0
 38 35  1  0  0  0  0
M  END
>  <MODEL>
1

>  <REMARK>
 VINA RESULT:      -7.0      0.000      0.000
  Name = 
  18 active torsions:
  status: ('A' for Active; 'I' for Inactive)
    1  A    between atoms: N_2  and  C_26
    2  A    between atoms: C_5  and  C_15
    3  A    between atoms: C_7  and  C_13
    4  A    between atoms: C_7  and  C_37
    5  A    between atoms: C_8  and  O_21
    6  A    between atoms: C_8  and  C_37
    7  A    between atoms: C_10  and  C_26
    8  A    between atoms: C_13  and  N_38
    9  A    between atoms: C_15  and  N_38
   10  A    between atoms: C_17  and  O_21
   11  A    between atoms: C_17  and  C_29
   12  A    between atoms: C_19  and  C_33
   13  A    between atoms: C_22  and  C_25
   14  A    between atoms: N_24  and  C_31
   15  A    between atoms: C_25  and  C_29
   16  A    between atoms: O_27  and  C_30
   17  A    between atoms: O_27  and  C_34
   18  A    between atoms: C_31  and  C_33
                            x       y       z     vdW  Elec       q    Type
                         _______ _______ _______ _____ _____    ______ ____

>  <TORSDO>
F 18

$$$$
=
 OpenBabel10232412233D

 38 40  0  0  1  0  0  0  0  0999 V2000
  187.6000  177.0900  142.9490 C   0  0  2  0  0  3  0  0  0  0  0  0
  187.1230  178.1850  143.9880 C   0  0  2  0  0  3  0  0  0  0  0  0
  188.0820  176.9720  144.3970 C   0  0  2  0  0  3  0  0  0  0  0  0
  185.6340  177.9500  144.4470 C   0  0  0  0  0  2  0  0  0  0  0  0
  184.9640  178.5340  146.8810 O   0  0  0  0  0  1  0  0  0  0  0  0
  184.7680  178.7740  145.4780 C   0  0  2  0  0  3  0  0  0  0  0  0
  183.3440  179.1230  144.9920 C   0  0  0  0  0  2  0  0  0  0  0  0
  183.1510  178.8240  143.6430 O   0  0  0  0  0  0  0  0  0  0  0  0
  181.8260  178.9380  143.0400 C   0  0  0  0  0  2  0  0  0  0  0  0
  181.7310  178.9130  141.4780 C   0  0  0  0  0  2  0  0  0  0  0  0
  183.1400  178.5300  141.3380 C   0  0  0  0  0  2  0  0  0  0  0  0
  183.3440  177.5070  140.3350 C   0  0  0  0  0  2  0  0  0  0  0  0
  183.7320  178.3440  139.2470 N   0  0  0  0  0  2  0  0  0  0  0  0
  182.5910  177.9240  137.3660 C   0  0  0  0  0  1  0  0  0  0  0  0
  183.8120  177.5110  138.1230 C   0  0  1  0  0  3  0  0  0  0  0  0
  187.3930  176.7820  137.1920 O   0  0  0  0  0  0  0  0  0  0  0  0
  185.1970  177.5580  137.3690 C   0  0  1  0  0  3  0  0  0  0  0  0
  186.0750  178.5150  137.9940 N   0  0  0  0  0  2  0  0  0  0  0  0
  186.0620  176.3810  137.0330 C   0  0  0  0  0  0  0  0  0  0  0  0
  185.7310  175.2450  136.7430 O   0  0  0  0  0  0  0  0  0  0  0  0
  187.4600  178.0890  137.7010 C   0  0  0  0  0  2  0  0  0  0  0  0
  188.8870  177.3920  142.3690 C   0  0  0  0  0  2  0  0  0  0  0  0
  189.0630  176.9300  141.0820 N   0  0  0  0  0  2  0  0  0  0  0  0
  190.3560  177.2300  140.7100 C   0  0  0  0  0  0  0  0  0  0  0  0
  191.2900  177.4750  141.5900 O   0  0  0  0  0  0  0  0  0  0  0  0
  190.4270  177.6090  139.4050 C   0  0  0  0  0  2  0  0  0  0  0  0
  192.5850  176.6820  138.8770 O   0  0  0  0  0  0  0  0  0  0  0  0
  191.3330  176.6560  138.7920 C   0  0  0  0  0  0  0  0  0  0  0  0
  191.0510  174.5940  137.5840 C   0  0  0  0  0  2  0  0  0  0  0  0
  190.6190  175.4730  138.3630 N   0  0  0  0  0  0  0  0  0  0  0  0
  188.7580  177.8200  145.4050 O   0  0  0  0  0  0  0  0  0  0  0  0
  190.2780  177.3830  147.1660 C   0  0  0  0  0  0  0  0  0  0  0  0
  189.3320  178.0210  148.5410 Cl  0  0  0  0  0  0  0  0  0  0  0  0
  191.0910  176.8170  145.1330 C   0  0  0  0  0  3  0  0  0  0  0  0
  191.5570  176.6530  147.2690 C   0  0  0  0  0  0  0  0  0  0  0  0
  192.2620  176.4090  148.2290 O   0  0  0  0  0  0  0  0  0  0  0  0
  190.0030  177.4070  145.9000 C   0  0  0  0  0  0  0  0  0  0  0  0
  191.9590  176.3650  145.8970 N   0  0  0  0  0  0  0  0  0  0  0  0
  1 22  1  6  0  0  0
  1  2  1  0  0  0  0
  1  3  1  0  0  0  0
  2  3  1  0  0  0  0
  2  4  1  1  0  0  0
  3 31  1  6  0  0  0
  4  6  1  0  0  0  0
  6  5  1  1  0  0  0
  7  6  1  0  0  0  0
  8  7  1  0  0  0  0
  9  8  1  0  0  0  0
 10  9  1  0  0  0  0
 11 10  1  0  0  0  0
 12 11  1  0  0  0  0
 13 12  1  0  0  0  0
 15 14  1  6  0  0  0
 15 13  1  0  0  0  0
 16 21  1  0  0  0  0
 17 18  1  0  0  0  0
 17 15  1  1  0  0  0
 19 16  1  0  0  0  0
 19 17  1  0  0  0  0
 20 19  2  0  0  0  0
 21 18  1  0  0  0  0
 23 22  1  0  0  0  0
 24 23  1  0  0  0  0
 24 25  2  0  0  0  0
 26 24  1  0  0  0  0
 28 27  2  0  0  0  0
 28 26  1  0  0  0  0
 29 30  2  0  0  0  0
 30 28  1  0  0  0  0
 31 37  1  0  0  0  0
 32 35  1  0  0  0  0
 32 33  1  0  0  0  0
 34 38  2  0  0  0  0
 34 37  1  0  0  0  0
 35 36  2  0  0  0  0
 37 32  2  0  0  0  0
 38 35  1  0  0  0  0
M  END
>  <MODEL>
2

>  <REMARK>
 VINA RESULT:      -6.9      3.026      7.495
  Name = 
  18 active torsions:
  status: ('A' for Active; 'I' for Inactive)
    1  A    between atoms: N_2  and  C_26
    2  A    between atoms: C_5  and  C_15
    3  A    between atoms: C_7  and  C_13
    4  A    between atoms: C_7  and  C_37
    5  A    between atoms: C_8  and  O_21
    6  A    between atoms: C_8  and  C_37
    7  A    between atoms: C_10  and  C_26
    8  A    between atoms: C_13  and  N_38
    9  A    between atoms: C_15  and  N_38
   10  A    between atoms: C_17  and  O_21
   11  A    between atoms: C_17  and  C_29
   12  A    between atoms: C_19  and  C_33
   13  A    between atoms: C_22  and  C_25
   14  A    between atoms: N_24  and  C_31
   15  A    between atoms: C_25  and  C_29
   16  A    between atoms: O_27  and  C_30
   17  A    between atoms: O_27  and  C_34
   18  A    between atoms: C_31  and  C_33
                            x       y       z     vdW  Elec       q    Type
                         _______ _______ _______ _____ _____    ______ ____

>  <TORSDO>
F 18

$$$$
=
 OpenBabel10232412233D

 38 40  0  0  1  0  0  0  0  0999 V2000
  187.3670  177.4460  142.3760 C   0  0  2  0  0  3  0  0  0  0  0  0
  186.9550  178.5010  143.4830 C   0  0  2  0  0  3  0  0  0  0  0  0
  187.9170  177.2630  143.7920 C   0  0  2  0  0  3  0  0  0  0  0  0
  185.4870  178.2630  144.0040 C   0  0  0  0  0  2  0  0  0  0  0  0
  185.3170  179.2540  146.3920 O   0  0  0  0  0  1  0  0  0  0  0  0
  184.6870  179.0440  145.1170 C   0  0  2  0  0  3  0  0  0  0  0  0
  183.1590  178.8230  145.0890 C   0  0  0  0  0  2  0  0  0  0  0  0
  182.6370  178.8590  143.7960 O   0  0  0  0  0  0  0  0  0  0  0  0
  181.1930  178.8310  143.5770 C   0  0  0  0  0  2  0  0  0  0  0  0
  180.6380  179.5140  142.2840 C   0  0  0  0  0  2  0  0  0  0  0  0
  180.2710  178.2250  141.6870 C   0  0  0  0  0  2  0  0  0  0  0  0
  180.5970  178.1480  140.2790 C   0  0  0  0  0  2  0  0  0  0  0  0
  182.0150  178.0370  140.3910 N   0  0  0  0  0  2  0  0  0  0  0  0
  182.0130  179.4630  138.6630 C   0  0  0  0  0  1  0  0  0  0  0  0
  182.5170  178.1210  139.0850 C   0  0  1  0  0  3  0  0  0  0  0  0
  186.2000  178.6530  138.4670 O   0  0  0  0  0  0  0  0  0  0  0  0
  184.0650  177.8410  138.9580 C   0  0  1  0  0  3  0  0  0  0  0  0
  184.3970  177.4730  137.6050 N   0  0  0  0  0  2  0  0  0  0  0  0
  185.1690  178.7500  139.4080 C   0  0  0  0  0  0  0  0  0  0  0  0
  185.1950  179.5100  140.3590 O   0  0  0  0  0  0  0  0  0  0  0  0
  185.8150  177.8350  137.3920 C   0  0  0  0  0  2  0  0  0  0  0  0
  188.6280  177.7590  141.7470 C   0  0  0  0  0  2  0  0  0  0  0  0
  188.6800  177.4940  140.3940 N   0  0  0  0  0  2  0  0  0  0  0  0
  189.8760  176.8560  140.1450 C   0  0  0  0  0  0  0  0  0  0  0  0
  190.5480  176.2520  141.0890 O   0  0  0  0  0  0  0  0  0  0  0  0
  190.4220  177.2580  138.9660 C   0  0  0  0  0  2  0  0  0  0  0  0
  190.6650  174.9920  138.1900 O   0  0  0  0  0  0  0  0  0  0  0  0
  191.1630  176.1050  138.4890 C   0  0  0  0  0  0  0  0  0  0  0  0
  193.4600  175.7160  137.8870 C   0  0  0  0  0  2  0  0  0  0  0  0
  192.4920  176.4890  138.0660 N   0  0  0  0  0  0  0  0  0  0  0  0
  188.6530  178.0600  144.8010 O   0  0  0  0  0  0  0  0  0  0  0  0
  190.7520  177.1910  145.4630 C   0  0  0  0  0  0  0  0  0  0  0  0
  191.6800  177.4790  143.9640 Cl  0  0  0  0  0  0  0  0  0  0  0  0
  189.1570  176.9590  147.0490 C   0  0  0  0  0  3  0  0  0  0  0  0
  191.3120  176.7040  146.7390 C   0  0  0  0  0  0  0  0  0  0  0  0
  192.4320  176.3270  147.0270 O   0  0  0  0  0  0  0  0  0  0  0  0
  189.4940  177.3890  145.7000 C   0  0  0  0  0  0  0  0  0  0  0  0
  190.1800  176.5970  147.6520 N   0  0  0  0  0  0  0  0  0  0  0  0
  1 22  1  6  0  0  0
  1  2  1  0  0  0  0
  1  3  1  0  0  0  0
  2  3  1  0  0  0  0
  2  4  1  1  0  0  0
  3 31  1  6  0  0  0
  4  6  1  0  0  0  0
  6  5  1  1  0  0  0
  7  6  1  0  0  0  0
  8  7  1  0  0  0  0
  9  8  1  0  0  0  0
 10  9  1  0  0  0  0
 11 10  1  0  0  0  0
 12 13  1  0  0  0  0
 12 11  1  0  0  0  0
 15 14  1  1  0  0  0
 15 13  1  0  0  0  0
 16 19  1  0  0  0  0
 17 15  1  6  0  0  0
 17 19  1  0  0  0  0
 18 17  1  0  0  0  0
 19 20  2  0  0  0  0
 21 18  1  0  0  0  0
 21 16  1  0  0  0  0
 23 22  1  0  0  0  0
 24 23  1  0  0  0  0
 24 25  2  0  0  0  0
 26 24  1  0  0  0  0
 27 28  2  0  0  0  0
 28 26  1  0  0  0  0
 29 30  2  0  0  0  0
 30 28  1  0  0  0  0
 31 37  1  0  0  0  0
 32 37  2  0  0  0  0
 32 35  1  0  0  0  0
 33 32  1  0  0  0  0
 34 38  2  0  0  0  0
 35 36  2  0  0  0  0
 35 38  1  0  0  0  0
 37 34  1  0  0  0  0
M  END
>  <MODEL>
3

>  <REMARK>
 VINA RESULT:      -6.8      2.668      7.087
  Name = 
  18 active torsions:
  status: ('A' for Active; 'I' for Inactive)
    1  A    between atoms: N_2  and  C_26
    2  A    between atoms: C_5  and  C_15
    3  A    between atoms: C_7  and  C_13
    4  A    between atoms: C_7  and  C_37
    5  A    between atoms: C_8  and  O_21
    6  A    between atoms: C_8  and  C_37
    7  A    between atoms: C_10  and  C_26
    8  A    between atoms: C_13  and  N_38
    9  A    between atoms: C_15  and  N_38
   10  A    between atoms: C_17  and  O_21
   11  A    between atoms: C_17  and  C_29
   12  A    between atoms: C_19  and  C_33
   13  A    between atoms: C_22  and  C_25
   14  A    between atoms: N_24  and  C_31
   15  A    between atoms: C_25  and  C_29
   16  A    between atoms: O_27  and  C_30
   17  A    between atoms: O_27  and  C_34
   18  A    between atoms: C_31  and  C_33
                            x       y       z     vdW  Elec       q    Type
                         _______ _______ _______ _____ _____    ______ ____

>  <TORSDO>
F 18

$$$$
=
 OpenBabel10232412233D

 38 40  0  0  1  0  0  0  0  0999 V2000
  185.2010  178.7570  139.6770 C   0  0  2  0  0  3  0  0  0  0  0  0
  184.0860  178.1000  140.5880 C   0  0  2  0  0  3  0  0  0  0  0  0
  183.7680  179.2830  139.5610 C   0  0  2  0  0  3  0  0  0  0  0  0
  184.1700  178.6060  142.0770 C   0  0  0  0  0  3  0  0  0  0  0  0
  181.6510  178.7780  142.6610 O   0  0  0  0  0  1  0  0  0  0  0  0
  183.0100  178.8030  143.1290 C   0  0  0  0  0  0  0  0  0  0  0  0
  183.3560  179.7420  144.3050 C   0  0  0  0  0  2  0  0  0  0  0  0
  183.7200  179.0440  145.4570 O   0  0  0  0  0  0  0  0  0  0  0  0
  185.1180  178.7030  145.7070 C   0  0  0  0  0  2  0  0  0  0  0  0
  185.6870  178.9650  147.1410 C   0  0  0  0  0  2  0  0  0  0  0  0
  186.7880  178.0170  146.9430 C   0  0  0  0  0  2  0  0  0  0  0  0
  187.1490  177.8620  145.5510 C   0  0  0  0  0  2  0  0  0  0  0  0
  188.5410  177.5980  145.7150 N   0  0  0  0  0  2  0  0  0  0  0  0
  187.7820  177.0310  143.6860 C   0  0  0  0  0  1  0  0  0  0  0  0
  188.9180  176.7990  144.6280 C   0  0  1  0  0  3  0  0  0  0  0  0
  191.7840  178.1710  142.5960 O   0  0  0  0  0  0  0  0  0  0  0  0
  190.3820  177.0600  144.0970 C   0  0  1  0  0  3  0  0  0  0  0  0
  190.6830  176.1690  143.0050 N   0  0  0  0  0  2  0  0  0  0  0  0
  190.9560  178.3860  143.7030 C   0  0  0  0  0  0  0  0  0  0  0  0
  190.7270  179.4890  144.1680 O   0  0  0  0  0  0  0  0  0  0  0  0
  191.7140  176.8320  142.1780 C   0  0  0  0  0  2  0  0  0  0  0  0
  185.2680  178.1670  138.3610 C   0  0  0  0  0  2  0  0  0  0  0  0
  186.0480  178.8580  137.4570 N   0  0  0  0  0  2  0  0  0  0  0  0
  187.0730  178.0200  137.0720 C   0  0  0  0  0  0  0  0  0  0  0  0
  186.9960  176.7230  137.2110 O   0  0  0  0  0  0  0  0  0  0  0  0
  188.2430  178.6970  136.9210 C   0  0  0  0  0  2  0  0  0  0  0  0
  190.1650  177.4960  137.7340 O   0  0  0  0  0  0  0  0  0  0  0  0
  189.1180  178.1550  137.9450 C   0  0  0  0  0  0  0  0  0  0  0  0
  188.8150  178.1660  140.3320 C   0  0  0  0  0  2  0  0  0  0  0  0
  188.8370  178.7580  139.2300 N   0  0  0  0  0  0  0  0  0  0  0  0
  182.4110  178.7400  139.3230 O   0  0  0  0  0  0  0  0  0  0  0  0
  181.1800  180.1850  137.9100 C   0  0  0  0  0  0  0  0  0  0  0  0
  180.8350  181.5050  139.0630 Cl  0  0  0  0  0  0  0  0  0  0  0  0
  181.7830  178.2570  136.8950 C   0  0  0  0  0  3  0  0  0  0  0  0
  180.8770  180.2060  136.4660 C   0  0  0  0  0  0  0  0  0  0  0  0
  180.2850  181.0220  135.7860 O   0  0  0  0  0  0  0  0  0  0  0  0
  181.7690  179.0490  138.1150 C   0  0  0  0  0  0  0  0  0  0  0  0
  181.3070  178.9110  135.9530 N   0  0  0  0  0  0  0  0  0  0  0  0
  1 22  1  6  0  0  0
  1  2  1  0  0  0  0
  2  4  1  1  0  0  0
  3 31  1  6  0  0  0
  3  1  1  0  0  0  0
  3  2  1  0  0  0  0
  4  6  2  0  0  0  0
  5  6  1  0  0  0  0
  6  7  1  0  0  0  0
  7  8  1  0  0  0  0
  8  9  1  0  0  0  0
  9 10  1  0  0  0  0
 11 10  1  0  0  0  0
 12 13  1  0  0  0  0
 12 11  1  0  0  0  0
 15 14  1  6  0  0  0
 15 13  1  0  0  0  0
 16 19  1  0  0  0  0
 17 15  1  6  0  0  0
 18 17  1  0  0  0  0
 19 17  1  0  0  0  0
 19 20  2  0  0  0  0
 21 16  1  0  0  0  0
 21 18  1  0  0  0  0
 23 22  1  0  0  0  0
 24 25  2  0  0  0  0
 24 23  1  0  0  0  0
 26 24  1  0  0  0  0
 26 28  1  0  0  0  0
 27 28  2  0  0  0  0
 28 30  1  0  0  0  0
 30 29  2  0  0  0  0
 32 37  2  0  0  0  0
 32 33  1  0  0  0  0
 34 37  1  0  0  0  0
 35 32  1  0  0  0  0
 36 35  2  0  0  0  0
 37 31  1  0  0  0  0
 38 35  1  0  0  0  0
 38 34  2  0  0  0  0
M  END
>  <MODEL>
4

>  <REMARK>
 VINA RESULT:      -6.5      3.732      7.925
  Name = 
  18 active torsions:
  status: ('A' for Active; 'I' for Inactive)
    1  A    between atoms: N_2  and  C_26
    2  A    between atoms: C_5  and  C_15
    3  A    between atoms: C_7  and  C_13
    4  A    between atoms: C_7  and  C_37
    5  A    between atoms: C_8  and  O_21
    6  A    between atoms: C_8  and  C_37
    7  A    between atoms: C_10  and  C_26
    8  A    between atoms: C_13  and  N_38
    9  A    between atoms: C_15  and  N_38
   10  A    between atoms: C_17  and  O_21
   11  A    between atoms: C_17  and  C_29
   12  A    between atoms: C_19  and  C_33
   13  A    between atoms: C_22  and  C_25
   14  A    between atoms: N_24  and  C_31
   15  A    between atoms: C_25  and  C_29
   16  A    between atoms: O_27  and  C_30
   17  A    between atoms: O_27  and  C_34
   18  A    between atoms: C_31  and  C_33
                            x       y       z     vdW  Elec       q    Type
                         _______ _______ _______ _____ _____    ______ ____

>  <TORSDO>
F 18

$$$$
=
 OpenBabel10232412233D

 38 40  0  0  1  0  0  0  0  0999 V2000
  190.3760  176.8870  140.6860 C   0  0  2  0  0  3  0  0  0  0  0  0
  189.7750  178.0350  139.7750 C   0  0  2  0  0  3  0  0  0  0  0  0
  188.9310  177.3300  140.9360 C   0  0  2  0  0  3  0  0  0  0  0  0
  189.3840  177.5050  138.3450 C   0  0  0  0  0  2  0  0  0  0  0  0
  187.3130  178.8330  137.5320 O   0  0  0  0  0  1  0  0  0  0  0  0
  188.5750  178.2310  137.2000 C   0  0  2  0  0  3  0  0  0  0  0  0
  188.7350  177.6050  135.7980 C   0  0  0  0  0  2  0  0  0  0  0  0
  188.7570  176.2100  135.8350 O   0  0  0  0  0  0  0  0  0  0  0  0
  189.7780  175.4640  135.1050 C   0  0  0  0  0  2  0  0  0  0  0  0
  191.2600  175.5870  135.5920 C   0  0  0  0  0  2  0  0  0  0  0  0
  191.0380  174.6510  136.6990 C   0  0  0  0  0  2  0  0  0  0  0  0
  192.2210  174.4500  137.5060 C   0  0  0  0  0  2  0  0  0  0  0  0
  193.1530  174.1790  136.4600 N   0  0  0  0  0  2  0  0  0  0  0  0
  193.5640  172.0330  135.9700 C   0  0  0  0  0  1  0  0  0  0  0  0
  193.9540  173.1220  136.9150 C   0  0  1  0  0  3  0  0  0  0  0  0
  197.1350  174.9710  137.7470 O   0  0  0  0  0  0  0  0  0  0  0  0
  195.4880  173.4700  137.0460 C   0  0  1  0  0  3  0  0  0  0  0  0
  195.9250  174.2380  135.9070 N   0  0  0  0  0  2  0  0  0  0  0  0
  196.1550  174.0970  138.2320 C   0  0  0  0  0  0  0  0  0  0  0  0
  195.8910  173.9700  139.4140 O   0  0  0  0  0  0  0  0  0  0  0  0
  197.0890  175.0380  136.3450 C   0  0  0  0  0  2  0  0  0  0  0  0
  190.9180  177.3850  141.9280 C   0  0  0  0  0  2  0  0  0  0  0  0
  190.5900  176.6400  143.0410 N   0  0  0  0  0  2  0  0  0  0  0  0
  191.0750  177.3100  144.1430 C   0  0  0  0  0  0  0  0  0  0  0  0
  191.3580  178.5860  144.1090 O   0  0  0  0  0  0  0  0  0  0  0  0
  191.5670  176.4510  145.0760 C   0  0  0  0  0  2  0  0  0  0  0  0
  189.7150  176.9950  146.5160 O   0  0  0  0  0  0  0  0  0  0  0  0
  190.9480  176.8650  146.3230 C   0  0  0  0  0  0  0  0  0  0  0  0
  192.4400  175.7260  147.8300 C   0  0  0  0  0  2  0  0  0  0  0  0
  191.8910  176.7730  147.4170 N   0  0  0  0  0  0  0  0  0  0  0  0
  188.1930  178.5870  141.1920 O   0  0  0  0  0  0  0  0  0  0  0  0
  186.4440  178.1500  142.7250 C   0  0  0  0  0  0  0  0  0  0  0  0
  187.3980  177.4900  144.0840 Cl  0  0  0  0  0  0  0  0  0  0  0  0
  185.7040  178.9370  140.7390 C   0  0  0  0  0  3  0  0  0  0  0  0
  184.9990  178.4490  142.7560 C   0  0  0  0  0  0  0  0  0  0  0  0
  184.1610  178.2500  143.6150 O   0  0  0  0  0  0  0  0  0  0  0  0
  186.8380  178.5080  141.5440 C   0  0  0  0  0  0  0  0  0  0  0  0
  184.6670  178.9340  141.4220 N   0  0  0  0  0  0  0  0  0  0  0  0
  1  3  1  0  0  0  0
  1 22  1  1  0  0  0
  2  4  1  6  0  0  0
  2  1  1  0  0  0  0
  2  3  1  0  0  0  0
  3 31  1  1  0  0  0
  6  5  1  1  0  0  0
  6  4  1  0  0  0  0
  7  8  1  0  0  0  0
  7  6  1  0  0  0  0
  9 10  1  0  0  0  0
  9  8  1  0  0  0  0
 10 11  1  0  0  0  0
 11 12  1  0  0  0  0
 13 15  1  0  0  0  0
 13 12  1  0  0  0  0
 15 14  1  6  0  0  0
 16 19  1  0  0  0  0
 17 15  1  1  0  0  0
 17 19  1  0  0  0  0
 18 21  1  0  0  0  0
 18 17  1  0  0  0  0
 19 20  2  0  0  0  0
 21 16  1  0  0  0  0
 22 23  1  0  0  0  0
 23 24  1  0  0  0  0
 24 26  1  0  0  0  0
 25 24  2  0  0  0  0
 26 28  1  0  0  0  0
 28 27  2  0  0  0  0
 28 30  1  0  0  0  0
 30 29  2  0  0  0  0
 31 37  1  0  0  0  0
 32 35  1  0  0  0  0
 32 33  1  0  0  0  0
 34 38  2  0  0  0  0
 34 37  1  0  0  0  0
 35 36  2  0  0  0  0
 37 32  2  0  0  0  0
 38 35  1  0  0  0  0
M  END
>  <MODEL>
5

>  <REMARK>
 VINA RESULT:      -6.5      2.619      8.712
  Name = 
  18 active torsions:
  status: ('A' for Active; 'I' for Inactive)
    1  A    between atoms: N_2  and  C_26
    2  A    between atoms: C_5  and  C_15
    3  A    between atoms: C_7  and  C_13
    4  A    between atoms: C_7  and  C_37
    5  A    between atoms: C_8  and  O_21
    6  A    between atoms: C_8  and  C_37
    7  A    between atoms: C_10  and  C_26
    8  A    between atoms: C_13  and  N_38
    9  A    between atoms: C_15  and  N_38
   10  A    between atoms: C_17  and  O_21
   11  A    between atoms: C_17  and  C_29
   12  A    between atoms: C_19  and  C_33
   13  A    between atoms: C_22  and  C_25
   14  A    between atoms: N_24  and  C_31
   15  A    between atoms: C_25  and  C_29
   16  A    between atoms: O_27  and  C_30
   17  A    between atoms: O_27  and  C_34
   18  A    between atoms: C_31  and  C_33
                            x       y       z     vdW  Elec       q    Type
                         _______ _______ _______ _____ _____    ______ ____

>  <TORSDO>
F 18

$$$$
=
 OpenBabel10232412233D

 38 40  0  0  1  0  0  0  0  0999 V2000
  184.5930  179.0050  139.6910 C   0  0  2  0  0  3  0  0  0  0  0  0
  184.3770  178.1960  141.0340 C   0  0  2  0  0  3  0  0  0  0  0  0
  183.3280  178.1530  139.8290 C   0  0  2  0  0  3  0  0  0  0  0  0
  183.8990  179.1270  142.2110 C   0  0  0  0  0  2  0  0  0  0  0  0
  181.4940  179.2920  143.1610 O   0  0  0  0  0  1  0  0  0  0  0  0
  182.8440  178.8340  143.3470 C   0  0  2  0  0  3  0  0  0  0  0  0
  183.4190  178.8350  144.7800 C   0  0  0  0  0  2  0  0  0  0  0  0
  184.7610  179.2180  144.8170 O   0  0  0  0  0  0  0  0  0  0  0  0
  185.5660  178.9860  146.0130 C   0  0  0  0  0  2  0  0  0  0  0  0
  186.3730  177.6490  146.1010 C   0  0  0  0  0  2  0  0  0  0  0  0
  187.1640  178.1310  147.2390 C   0  0  0  0  0  2  0  0  0  0  0  0
  188.5330  177.6650  147.2050 C   0  0  0  0  0  2  0  0  0  0  0  0
  188.5910  177.2610  145.8380 N   0  0  0  0  0  2  0  0  0  0  0  0
  190.7700  176.8800  146.1890 C   0  0  0  0  0  1  0  0  0  0  0  0
  189.8330  177.6930  145.3550 C   0  0  1  0  0  3  0  0  0  0  0  0
  190.4920  176.3440  141.8950 O   0  0  0  0  0  0  0  0  0  0  0  0
  189.9900  177.6190  143.7860 C   0  0  1  0  0  3  0  0  0  0  0  0
  191.3570  177.8760  143.4080 N   0  0  0  0  0  2  0  0  0  0  0  0
  189.5340  176.4980  142.9030 C   0  0  0  0  0  0  0  0  0  0  0  0
  188.5640  175.7710  143.0270 O   0  0  0  0  0  0  0  0  0  0  0  0
  191.5810  177.2040  142.1100 C   0  0  0  0  0  2  0  0  0  0  0  0
  185.2130  178.2140  138.6540 C   0  0  0  0  0  2  0  0  0  0  0  0
  186.1400  178.8900  137.8890 N   0  0  0  0  0  2  0  0  0  0  0  0
  187.1700  178.0140  137.6200 C   0  0  0  0  0  0  0  0  0  0  0  0
  187.0160  176.7180  137.7040 O   0  0  0  0  0  0  0  0  0  0  0  0
  188.3790  178.6360  137.6520 C   0  0  0  0  0  2  0  0  0  0  0  0
  188.3680  178.2550  140.0300 O   0  0  0  0  0  0  0  0  0  0  0  0
  188.9610  178.2470  138.9240 C   0  0  0  0  0  0  0  0  0  0  0  0
  190.5180  176.8940  137.6850 C   0  0  0  0  0  2  0  0  0  0  0  0
  190.1940  177.5180  138.7200 N   0  0  0  0  0  0  0  0  0  0  0  0
  182.9730  176.7540  140.1600 O   0  0  0  0  0  0  0  0  0  0  0  0
  182.2680  175.3070  138.4250 C   0  0  0  0  0  0  0  0  0  0  0  0
  183.8490  174.9520  137.6730 Cl  0  0  0  0  0  0  0  0  0  0  0  0
  180.5510  176.1300  139.6450 C   0  0  0  0  0  3  0  0  0  0  0  0
  180.9860  174.6670  138.0720 C   0  0  0  0  0  0  0  0  0  0  0  0
  180.7050  173.8740  137.1940 O   0  0  0  0  0  0  0  0  0  0  0  0
  181.9850  176.1170  139.3960 C   0  0  0  0  0  0  0  0  0  0  0  0
  179.9820  175.2950  138.9220 N   0  0  0  0  0  0  0  0  0  0  0  0
  1 22  1  6  0  0  0
  1  3  1  0  0  0  0
  1  2  1  0  0  0  0
  2  4  1  1  0  0  0
  3 31  1  6  0  0  0
  3  2  1  0  0  0  0
  4  6  1  0  0  0  0
  6  5  1  1  0  0  0
  6  7  1  0  0  0  0
  7  8  1  0  0  0  0
  8  9  1  0  0  0  0
  9 10  1  0  0  0  0
 10 11  1  0  0  0  0
 12 11  1  0  0  0  0
 13 12  1  0  0  0  0
 15 13  1  0  0  0  0
 15 14  1  1  0  0  0
 16 21  1  0  0  0  0
 16 19  1  0  0  0  0
 17 15  1  1  0  0  0
 18 17  1  0  0  0  0
 19 20  2  0  0  0  0
 19 17  1  0  0  0  0
 21 18  1  0  0  0  0
 23 22  1  0  0  0  0
 24 26  1  0  0  0  0
 24 25  2  0  0  0  0
 24 23  1  0  0  0  0
 26 28  1  0  0  0  0
 28 27  2  0  0  0  0
 29 30  2  0  0  0  0
 30 28  1  0  0  0  0
 32 37  2  0  0  0  0
 33 32  1  0  0  0  0
 35 32  1  0  0  0  0
 35 38  1  0  0  0  0
 36 35  2  0  0  0  0
 37 34  1  0  0  0  0
 37 31  1  0  0  0  0
 38 34  2  0  0  0  0
M  END
>  <MODEL>
6

>  <REMARK>
 VINA RESULT:      -6.5      3.546      7.737
  Name = 
  18 active torsions:
  status: ('A' for Active; 'I' for Inactive)
    1  A    between atoms: N_2  and  C_26
    2  A    between atoms: C_5  and  C_15
    3  A    between atoms: C_7  and  C_13
    4  A    between atoms: C_7  and  C_37
    5  A    between atoms: C_8  and  O_21
    6  A    between atoms: C_8  and  C_37
    7  A    between atoms: C_10  and  C_26
    8  A    between atoms: C_13  and  N_38
    9  A    between atoms: C_15  and  N_38
   10  A    between atoms: C_17  and  O_21
   11  A    between atoms: C_17  and  C_29
   12  A    between atoms: C_19  and  C_33
   13  A    between atoms: C_22  and  C_25
   14  A    between atoms: N_24  and  C_31
   15  A    between atoms: C_25  and  C_29
   16  A    between atoms: O_27  and  C_30
   17  A    between atoms: O_27  and  C_34
   18  A    between atoms: C_31  and  C_33
                            x       y       z     vdW  Elec       q    Type
                         _______ _______ _______ _____ _____    ______ ____

>  <TORSDO>
F 18

$$$$
=
 OpenBabel10232412233D

 38 40  0  0  1  0  0  0  0  0999 V2000
  188.2480  176.8560  142.8890 C   0  0  2  0  0  3  0  0  0  0  0  0
  188.2840  177.7850  144.1710 C   0  0  2  0  0  3  0  0  0  0  0  0
  189.3570  176.6260  143.9190 C   0  0  2  0  0  3  0  0  0  0  0  0
  187.1930  177.3700  145.2280 C   0  0  0  0  0  2  0  0  0  0  0  0
  187.4940  177.6730  147.7840 O   0  0  0  0  0  1  0  0  0  0  0  0
  186.8050  178.0730  146.5870 C   0  0  2  0  0  3  0  0  0  0  0  0
  185.3190  178.4770  146.7050 C   0  0  0  0  0  2  0  0  0  0  0  0
  184.7840  178.9040  145.4900 O   0  0  0  0  0  0  0  0  0  0  0  0
  183.3530  178.7830  145.2250 C   0  0  0  0  0  2  0  0  0  0  0  0
  182.8310  179.2230  143.8170 C   0  0  0  0  0  2  0  0  0  0  0  0
  184.0170  178.6840  143.1420 C   0  0  0  0  0  2  0  0  0  0  0  0
  183.8190  178.5080  141.7200 C   0  0  0  0  0  2  0  0  0  0  0  0
  182.3940  178.4390  141.7070 N   0  0  0  0  0  2  0  0  0  0  0  0
  181.8590  179.4660  139.7900 C   0  0  0  0  0  1  0  0  0  0  0  0
  182.0310  178.1100  140.3940 C   0  0  1  0  0  3  0  0  0  0  0  0
  183.8370  176.2140  137.6790 O   0  0  0  0  0  0  0  0  0  0  0  0
  183.0090  177.1020  139.6740 C   0  0  1  0  0  3  0  0  0  0  0  0
  182.3370  175.8550  139.4120 N   0  0  0  0  0  2  0  0  0  0  0  0
  183.8250  177.3820  138.4490 C   0  0  0  0  0  0  0  0  0  0  0  0
  184.3430  178.4270  138.0970 O   0  0  0  0  0  0  0  0  0  0  0  0
  183.0120  175.2330  138.2530 C   0  0  0  0  0  2  0  0  0  0  0  0
  189.1030  177.3320  141.8280 C   0  0  0  0  0  2  0  0  0  0  0  0
  188.5180  177.3510  140.5790 N   0  0  0  0  0  2  0  0  0  0  0  0
  189.4900  177.0070  139.6640 C   0  0  0  0  0  0  0  0  0  0  0  0
  190.5740  176.3670  140.0130 O   0  0  0  0  0  0  0  0  0  0  0  0
  189.3720  177.7260  138.5150 C   0  0  0  0  0  2  0  0  0  0  0  0
  188.8700  175.6240  137.4540 O   0  0  0  0  0  0  0  0  0  0  0  0
  188.6560  176.8510  137.6040 C   0  0  0  0  0  0  0  0  0  0  0  0
  187.3600  178.4870  136.4060 C   0  0  0  0  0  2  0  0  0  0  0  0
  187.4360  177.4790  137.1440 N   0  0  0  0  0  0  0  0  0  0  0  0
  190.4030  177.4180  144.6060 O   0  0  0  0  0  0  0  0  0  0  0  0
  191.8110  175.9400  145.8040 C   0  0  0  0  0  0  0  0  0  0  0  0
  192.3440  174.8850  144.4640 Cl  0  0  0  0  0  0  0  0  0  0  0  0
  190.7880  177.4590  147.1310 C   0  0  0  0  0  3  0  0  0  0  0  0
  192.3250  175.8960  147.1870 C   0  0  0  0  0  0  0  0  0  0  0  0
  193.1050  175.1350  147.7260 O   0  0  0  0  0  0  0  0  0  0  0  0
  190.9540  176.9110  145.7920 C   0  0  0  0  0  0  0  0  0  0  0  0
  191.5770  176.9120  147.9180 N   0  0  0  0  0  0  0  0  0  0  0  0
  1 22  1  6  0  0  0
  1  3  1  0  0  0  0
  1  2  1  0  0  0  0
  2  4  1  1  0  0  0
  3  2  1  0  0  0  0
  3 31  1  6  0  0  0
  4  6  1  0  0  0  0
  6  7  1  0  0  0  0
  6  5  1  1  0  0  0
  8  7  1  0  0  0  0
  9  8  1  0  0  0  0
 10  9  1  0  0  0  0
 11 10  1  0  0  0  0
 12 11  1  0  0  0  0
 13 12  1  0  0  0  0
 15 14  1  6  0  0  0
 15 13  1  0  0  0  0
 16 21  1  0  0  0  0
 16 19  1  0  0  0  0
 17 15  1  6  0  0  0
 18 17  1  0  0  0  0
 19 17  1  0  0  0  0
 20 19  2  0  0  0  0
 21 18  1  0  0  0  0
 23 22  1  0  0  0  0
 24 25  2  0  0  0  0
 24 23  1  0  0  0  0
 26 24  1  0  0  0  0
 27 28  2  0  0  0  0
 28 26  1  0  0  0  0
 29 30  2  0  0  0  0
 30 28  1  0  0  0  0
 31 37  1  0  0  0  0
 32 35  1  0  0  0  0
 33 32  1  0  0  0  0
 34 38  2  0  0  0  0
 35 36  2  0  0  0  0
 35 38  1  0  0  0  0
 37 32  2  0  0  0  0
 37 34  1  0  0  0  0
M  END
>  <MODEL>
7

>  <REMARK>
 VINA RESULT:      -6.5      2.746      7.487
  Name = 
  18 active torsions:
  status: ('A' for Active; 'I' for Inactive)
    1  A    between atoms: N_2  and  C_26
    2  A    between atoms: C_5  and  C_15
    3  A    between atoms: C_7  and  C_13
    4  A    between atoms: C_7  and  C_37
    5  A    between atoms: C_8  and  O_21
    6  A    between atoms: C_8  and  C_37
    7  A    between atoms: C_10  and  C_26
    8  A    between atoms: C_13  and  N_38
    9  A    between atoms: C_15  and  N_38
   10  A    between atoms: C_17  and  O_21
   11  A    between atoms: C_17  and  C_29
   12  A    between atoms: C_19  and  C_33
   13  A    between atoms: C_22  and  C_25
   14  A    between atoms: N_24  and  C_31
   15  A    between atoms: C_25  and  C_29
   16  A    between atoms: O_27  and  C_30
   17  A    between atoms: O_27  and  C_34
   18  A    between atoms: C_31  and  C_33
                            x       y       z     vdW  Elec       q    Type
                         _______ _______ _______ _____ _____    ______ ____

>  <TORSDO>
F 18

$$$$
=
 OpenBabel10232412233D

 38 40  0  0  1  0  0  0  0  0999 V2000
  188.3300  178.0570  142.1230 C   0  0  2  0  0  3  0  0  0  0  0  0
  188.6490  176.5990  142.6540 C   0  0  2  0  0  3  0  0  0  0  0  0
  188.6000  177.8730  143.6190 C   0  0  2  0  0  3  0  0  0  0  0  0
  190.1230  176.1600  142.3160 C   0  0  0  0  0  2  0  0  0  0  0  0
  191.7470  177.9820  143.1860 O   0  0  0  0  0  1  0  0  0  0  0  0
  191.4130  177.0520  142.1420 C   0  0  2  0  0  3  0  0  0  0  0  0
  191.7310  177.4520  140.6840 C   0  0  0  0  0  2  0  0  0  0  0  0
  190.9070  176.8070  139.7610 O   0  0  0  0  0  0  0  0  0  0  0  0
  190.0140  177.5750  138.8990 C   0  0  0  0  0  2  0  0  0  0  0  0
  188.7760  176.8390  138.2890 C   0  0  0  0  0  2  0  0  0  0  0  0
  188.0080  178.0840  138.1880 C   0  0  0  0  0  2  0  0  0  0  0  0
  186.8120  177.9400  137.3860 C   0  0  0  0  0  2  0  0  0  0  0  0
  187.1450  176.7240  136.7180 N   0  0  0  0  0  2  0  0  0  0  0  0
  186.2600  176.7020  134.6610 C   0  0  0  0  0  1  0  0  0  0  0  0
  185.9750  176.3010  136.0720 C   0  0  1  0  0  3  0  0  0  0  0  0
  185.1310  173.1100  137.8970 O   0  0  0  0  0  0  0  0  0  0  0  0
  185.5810  174.7980  136.3460 C   0  0  1  0  0  3  0  0  0  0  0  0
  186.7640  173.9910  136.5030 N   0  0  0  0  0  2  0  0  0  0  0  0
  184.6220  174.3100  137.3890 C   0  0  0  0  0  0  0  0  0  0  0  0
  183.6150  174.8480  137.8140 O   0  0  0  0  0  0  0  0  0  0  0  0
  186.3900  172.8310  137.3410 C   0  0  0  0  0  2  0  0  0  0  0  0
  186.9350  178.4060  142.2480 C   0  0  0  0  0  2  0  0  0  0  0  0
  186.2480  178.4760  141.0550 N   0  0  0  0  0  2  0  0  0  0  0  0
  184.9740  178.9190  141.3390 C   0  0  0  0  0  0  0  0  0  0  0  0
  184.6930  179.5570  142.4440 O   0  0  0  0  0  0  0  0  0  0  0  0
  184.0430  178.2960  140.5660 C   0  0  0  0  0  2  0  0  0  0  0  0
  184.4790  180.2460  139.2230 O   0  0  0  0  0  0  0  0  0  0  0  0
  183.9150  179.1380  139.3910 C   0  0  0  0  0  0  0  0  0  0  0  0
  182.1680  178.4870  137.8690 C   0  0  0  0  0  2  0  0  0  0  0  0
  183.3430  178.3940  138.2890 N   0  0  0  0  0  0  0  0  0  0  0  0
  188.1020  177.0350  144.7340 O   0  0  0  0  0  0  0  0  0  0  0  0
  187.7010  177.7610  146.9500 C   0  0  0  0  0  0  0  0  0  0  0  0
  185.9920  178.2580  146.7960 Cl  0  0  0  0  0  0  0  0  0  0  0  0
  189.8370  177.1030  146.6070 C   0  0  0  0  0  3  0  0  0  0  0  0
  188.4690  177.7070  148.2090 C   0  0  0  0  0  0  0  0  0  0  0  0
  188.1740  178.0460  149.3400 O   0  0  0  0  0  0  0  0  0  0  0  0
  188.5190  177.3400  146.0370 C   0  0  0  0  0  0  0  0  0  0  0  0
  189.8120  177.2800  147.8350 N   0  0  0  0  0  0  0  0  0  0  0  0
  1 22  1  1  0  0  0
  1  2  1  0  0  0  0
  1  3  1  0  0  0  0
  2  4  1  6  0  0  0
  2  3  1  0  0  0  0
  3 31  1  1  0  0  0
  6  4  1  0  0  0  0
  6  5  1  1  0  0  0
  7  6  1  0  0  0  0
  8  7  1  0  0  0  0
  9  8  1  0  0  0  0
 10  9  1  0  0  0  0
 11 10  1  0  0  0  0
 12 11  1  0  0  0  0
 13 12  1  0  0  0  0
 15 14  1  6  0  0  0
 15 13  1  0  0  0  0
 17 15  1  1  0  0  0
 17 18  1  0  0  0  0
 17 19  1  0  0  0  0
 18 21  1  0  0  0  0
 19 20  2  0  0  0  0
 19 16  1  0  0  0  0
 21 16  1  0  0  0  0
 23 24  1  0  0  0  0
 23 22  1  0  0  0  0
 24 25  2  0  0  0  0
 26 24  1  0  0  0  0
 27 28  2  0  0  0  0
 28 26  1  0  0  0  0
 29 30  2  0  0  0  0
 30 28  1  0  0  0  0
 31 37  1  0  0  0  0
 32 35  1  0  0  0  0
 33 32  1  0  0  0  0
 34 38  2  0  0  0  0
 35 36  2  0  0  0  0
 37 34  1  0  0  0  0
 37 32  2  0  0  0  0
 38 35  1  0  0  0  0
M  END
>  <MODEL>
8

>  <REMARK>
 VINA RESULT:      -6.4      3.403      8.722
  Name = 
  18 active torsions:
  status: ('A' for Active; 'I' for Inactive)
    1  A    between atoms: N_2  and  C_26
    2  A    between atoms: C_5  and  C_15
    3  A    between atoms: C_7  and  C_13
    4  A    between atoms: C_7  and  C_37
    5  A    between atoms: C_8  and  O_21
    6  A    between atoms: C_8  and  C_37
    7  A    between atoms: C_10  and  C_26
    8  A    between atoms: C_13  and  N_38
    9  A    between atoms: C_15  and  N_38
   10  A    between atoms: C_17  and  O_21
   11  A    between atoms: C_17  and  C_29
   12  A    between atoms: C_19  and  C_33
   13  A    between atoms: C_22  and  C_25
   14  A    between atoms: N_24  and  C_31
   15  A    between atoms: C_25  and  C_29
   16  A    between atoms: O_27  and  C_30
   17  A    between atoms: O_27  and  C_34
   18  A    between atoms: C_31  and  C_33
                            x       y       z     vdW  Elec       q    Type
                         _______ _______ _______ _____ _____    ______ ____

>  <TORSDO>
F 18

$$$$
=
 OpenBabel10232412233D

 38 40  0  0  1  0  0  0  0  0999 V2000
  190.0490  176.8380  141.2560 C   0  0  2  0  0  3  0  0  0  0  0  0
  189.3360  177.9660  140.4050 C   0  0  2  0  0  3  0  0  0  0  0  0
  188.6350  177.2650  141.6590 C   0  0  2  0  0  3  0  0  0  0  0  0
  188.7960  177.4140  139.0320 C   0  0  0  0  0  2  0  0  0  0  0  0
  188.9990  179.5310  137.5520 O   0  0  0  0  0  1  0  0  0  0  0  0
  188.4850  178.1960  137.6970 C   0  0  2  0  0  3  0  0  0  0  0  0
  187.1160  177.8720  137.0610 C   0  0  0  0  0  2  0  0  0  0  0  0
  187.2140  176.9380  136.0290 O   0  0  0  0  0  0  0  0  0  0  0  0
  186.6230  175.6100  136.1710 C   0  0  0  0  0  2  0  0  0  0  0  0
  187.4620  174.3830  135.6850 C   0  0  0  0  0  2  0  0  0  0  0  0
  188.0410  174.1740  137.0160 C   0  0  0  0  0  2  0  0  0  0  0  0
  189.3100  173.4800  136.9720 C   0  0  0  0  0  2  0  0  0  0  0  0
  190.1620  174.6020  136.7480 N   0  0  0  0  0  2  0  0  0  0  0  0
  191.7590  173.2880  135.8870 C   0  0  0  0  0  1  0  0  0  0  0  0
  191.4610  174.1730  137.0530 C   0  0  1  0  0  3  0  0  0  0  0  0
  194.1560  176.1860  138.7600 O   0  0  0  0  0  0  0  0  0  0  0  0
  192.4780  175.3370  137.3750 C   0  0  1  0  0  3  0  0  0  0  0  0
  191.8860  176.2790  138.2900 N   0  0  0  0  0  2  0  0  0  0  0  0
  193.8960  175.1720  137.8310 C   0  0  0  0  0  0  0  0  0  0  0  0
  194.6960  174.3000  137.5440 O   0  0  0  0  0  0  0  0  0  0  0  0
  192.9950  176.9320  139.0190 C   0  0  0  0  0  2  0  0  0  0  0  0
  190.7180  177.3570  142.4250 C   0  0  0  0  0  2  0  0  0  0  0  0
  190.3460  176.7660  143.6140 N   0  0  0  0  0  2  0  0  0  0  0  0
  191.1930  177.2410  144.5930 C   0  0  0  0  0  0  0  0  0  0  0  0
  191.8690  178.3500  144.4450 O   0  0  0  0  0  0  0  0  0  0  0  0
  191.5180  176.2690  145.4870 C   0  0  0  0  0  2  0  0  0  0  0  0
  191.9930  177.1950  147.6590 O   0  0  0  0  0  0  0  0  0  0  0  0
  191.1740  176.8290  146.7820 C   0  0  0  0  0  0  0  0  0  0  0  0
  188.9150  176.8420  147.6120 C   0  0  0  0  0  2  0  0  0  0  0  0
  189.7870  177.2410  146.8080 N   0  0  0  0  0  0  0  0  0  0  0  0
  187.9120  178.5170  141.9810 O   0  0  0  0  0  0  0  0  0  0  0  0
  185.9980  178.2230  143.3410 C   0  0  0  0  0  0  0  0  0  0  0  0
  186.7880  177.7290  144.8660 Cl  0  0  0  0  0  0  0  0  0  0  0  0
  185.4920  178.7780  141.2080 C   0  0  0  0  0  3  0  0  0  0  0  0
  184.5580  178.5020  143.1720 C   0  0  0  0  0  0  0  0  0  0  0  0
  183.6260  178.3850  143.9440 O   0  0  0  0  0  0  0  0  0  0  0  0
  186.5260  178.4560  142.1810 C   0  0  0  0  0  0  0  0  0  0  0  0
  184.3830  178.8340  141.7630 N   0  0  0  0  0  0  0  0  0  0  0  0
  1  3  1  0  0  0  0
  1 22  1  1  0  0  0
  2  4  1  6  0  0  0
  2  1  1  0  0  0  0
  2  3  1  0  0  0  0
  3 31  1  1  0  0  0
  6  5  1  1  0  0  0
  6  4  1  0  0  0  0
  7  6  1  0  0  0  0
  8  9  1  0  0  0  0
  8  7  1  0  0  0  0
 10  9  1  0  0  0  0
 10 11  1  0  0  0  0
 12 11  1  0  0  0  0
 13 12  1  0  0  0  0
 13 15  1  0  0  0  0
 15 14  1  6  0  0  0
 16 21  1  0  0  0  0
 17 15  1  1  0  0  0
 17 19  1  0  0  0  0
 17 18  1  0  0  0  0
 18 21  1  0  0  0  0
 19 16  1  0  0  0  0
 20 19  2  0  0  0  0
 22 23  1  0  0  0  0
 23 24  1  0  0  0  0
 24 26  1  0  0  0  0
 25 24  2  0  0  0  0
 26 28  1  0  0  0  0
 28 30  1  0  0  0  0
 28 27  2  0  0  0  0
 30 29  2  0  0  0  0
 31 37  1  0  0  0  0
 32 33  1  0  0  0  0
 34 38  2  0  0  0  0
 34 37  1  0  0  0  0
 35 32  1  0  0  0  0
 35 36  2  0  0  0  0
 37 32  2  0  0  0  0
 38 35  1  0  0  0  0
M  END
>  <MODEL>
9

>  <REMARK>
 VINA RESULT:      -6.4      2.574      7.808
  Name = 
  18 active torsions:
  status: ('A' for Active; 'I' for Inactive)
    1  A    between atoms: N_2  and  C_26
    2  A    between atoms: C_5  and  C_15
    3  A    between atoms: C_7  and  C_13
    4  A    between atoms: C_7  and  C_37
    5  A    between atoms: C_8  and  O_21
    6  A    between atoms: C_8  and  C_37
    7  A    between atoms: C_10  and  C_26
    8  A    between atoms: C_13  and  N_38
    9  A    between atoms: C_15  and  N_38
   10  A    between atoms: C_17  and  O_21
   11  A    between atoms: C_17  and  C_29
   12  A    between atoms: C_19  and  C_33
   13  A    between atoms: C_22  and  C_25
   14  A    between atoms: N_24  and  C_31
   15  A    between atoms: C_25  and  C_29
   16  A    between atoms: O_27  and  C_30
   17  A    between atoms: O_27  and  C_34
   18  A    between atoms: C_31  and  C_33
                            x       y       z     vdW  Elec       q    Type
                         _______ _______ _______ _____ _____    ______ ____

>  <TORSDO>
F 18

$$$$
