=
 OpenBabel10232410143D

 41 44  0  0  1  0  0  0  0  0999 V2000
  190.7110  176.2650  136.0360 N   0  0  0  0  0  0  0  0  0  0  0  0
  186.4280  178.8820  140.7420 C   0  0  0  0  0  3  0  0  0  0  0  0
  188.0650  177.6850  139.3890 C   0  0  0  0  0  0  0  0  0  0  0  0
  191.7940  176.8980  139.4250 C   0  0  0  0  0  3  0  0  0  0  0  0
  187.0920  177.6110  138.3260 C   0  0  0  0  0  0  0  0  0  0  0  0
  189.4180  176.4080  135.7240 N   0  0  0  0  0  0  0  0  0  0  0  0
  185.8000  178.1120  138.5410 C   0  0  0  0  0  3  0  0  0  0  0  0
  190.5220  177.1390  140.0360 C   0  0  0  0  0  0  0  0  0  0  0  0
  187.4470  177.1020  137.0480 C   0  0  0  0  0  0  0  0  0  0  0  0
  190.4750  177.1900  141.3900 C   0  0  1  0  0  3  0  0  0  0  0  0
  185.4670  178.7340  139.7430 C   0  0  0  0  0  3  0  0  0  0  0  0
  188.7730  176.7220  136.8740 C   0  0  0  0  0  0  0  0  0  0  0  0
  191.9250  176.5920  138.0980 N   0  0  0  0  0  2  0  0  0  0  0  0
  190.7970  176.4950  137.3620 C   0  0  0  0  0  0  0  0  0  0  0  0
  189.6180  176.7680  137.8920 N   0  0  0  0  0  0  0  0  0  0  0  0
  189.3810  177.1700  139.1570 C   0  0  0  0  0  0  0  0  0  0  0  0
  187.7140  178.3740  140.5570 C   0  0  0  0  0  3  0  0  0  0  0  0
  189.0440  175.7510  142.8140 C   0  0  0  0  0  1  0  0  0  0  0  0
  189.2830  176.9440  142.0790 O   0  0  0  0  0  0  0  0  0  0  0  0
  186.6590  178.0530  134.8770 C   0  0  0  0  0  1  0  0  0  0  0  0
  186.5240  177.0780  135.9510 N   0  0  0  0  0  0  0  0  0  0  0  0
  185.4570  176.0750  135.9270 C   0  0  1  0  0  3  0  0  0  0  0  0
  184.5500  176.3320  134.8930 O   0  0  0  0  0  0  0  0  0  0  0  0
  183.3430  176.6070  135.5380 C   0  0  0  0  0  1  0  0  0  0  0  0
  186.0090  174.6510  135.8330 C   0  0  0  0  0  2  0  0  0  0  0  0
  185.5670  173.8050  136.9500 C   0  0  0  0  0  0  0  0  0  0  0  0
  185.2020  173.1130  137.8660 C   0  0  0  0  0  3  0  0  0  0  0  0
  191.7430  177.4010  142.1850 C   0  0  0  0  0  2  0  0  0  0  0  0
  191.1660  178.0180  144.5810 C   0  0  0  0  0  0  0  0  0  0  0  0
  190.9710  179.2250  144.2740 O   0  0  0  0  0  0  0  0  0  0  0  0
  191.5330  177.0590  143.5850 N   0  0  0  0  0  2  0  0  0  0  0  0
  191.0190  177.5890  145.9990 C   0  0  0  0  0  2  0  0  0  0  0  0
  189.7470  176.9080  146.1860 N   0  0  0  0  0  2  0  0  0  0  0  0
  188.7890  177.8860  146.6880 C   0  0  2  0  0  3  0  0  0  0  0  0
  188.0530  177.5480  148.7990 O   0  0  0  0  0  1  0  0  0  0  0  0
  189.0420  178.1520  148.0980 N   0  0  0  0  0  2  0  0  0  0  0  0
  187.3600  177.3890  146.4800 C   0  0  0  0  0  2  0  0  0  0  0  0
  186.2930  177.6930  144.2670 C   0  0  0  0  0  1  0  0  0  0  0  0
  186.5440  178.3390  145.6160 C   0  0  1  0  0  3  0  0  0  0  0  0
  184.1250  178.8440  145.2860 C   0  0  0  0  0  1  0  0  0  0  0  0
  185.2260  178.6350  146.3080 C   0  0  0  0  0  2  0  0  0  0  0  0
  1 14  2  0  0  0  0
  3 17  1  0  0  0  0
  4  8  2  0  0  0  0
  5  7  1  0  0  0  0
  5  3  1  0  0  0  0
  6  1  1  0  0  0  0
  6 12  2  0  0  0  0
  7 11  2  0  0  0  0
  8 10  1  0  0  0  0
  9  5  2  0  0  0  0
 10 19  1  0  0  0  0
 10 28  1  1  0  0  0
 11  2  1  0  0  0  0
 12  9  1  0  0  0  0
 12 15  1  0  0  0  0
 13  4  1  0  0  0  0
 14 15  1  0  0  0  0
 14 13  1  0  0  0  0
 15 16  1  0  0  0  0
 16  3  2  0  0  0  0
 16  8  1  0  0  0  0
 17  2  2  0  0  0  0
 19 18  1  0  0  0  0
 20 21  1  0  0  0  0
 21  9  1  0  0  0  0
 22 25  1  6  0  0  0
 22 21  1  0  0  0  0
 23 24  1  0  0  0  0
 23 22  1  0  0  0  0
 25 26  1  0  0  0  0
 26 27  3  0  0  0  0
 28 31  1  0  0  0  0
 29 32  1  0  0  0  0
 30 29  2  0  0  0  0
 31 29  1  0  0  0  0
 32 33  1  0  0  0  0
 33 34  1  0  0  0  0
 34 37  1  1  0  0  0
 34 36  1  0  0  0  0
 36 35  1  0  0  0  0
 39 38  1  6  0  0  0
 39 41  1  0  0  0  0
 39 37  1  0  0  0  0
 40 41  1  0  0  0  0
M  END
>  <MODEL>
1

>  <REMARK>
 VINA RESULT:      -7.2      0.000      0.000
  Name = 
  15 active torsions:
  status: ('A' for Active; 'I' for Inactive)
    1  A    between atoms: C_6  and  C_11
    2  A    between atoms: C_6  and  C_25
    3  A    between atoms: C_11  and  N_13
    4  A    between atoms: C_11  and  N_31
    5  A    between atoms: C_14  and  N_39
    6  A    between atoms: O_15  and  C_18
    7  A    between atoms: C_16  and  O_24
    8  A    between atoms: C_16  and  C_34
    9  A    between atoms: C_16  and  N_39
   10  A    between atoms: C_17  and  C_40
   11  A    between atoms: C_18  and  C_37
   12  A    between atoms: C_23  and  C_25
   13  A    between atoms: N_31  and  C_40
   14  A    between atoms: C_34  and  C_38
   15  A    between atoms: N_35  and  C_37
                            x       y       z     vdW  Elec       q    Type
                         _______ _______ _______ _____ _____    ______ ____

>  <TORSDO>
F 15

$$$$
=
 OpenBabel10232410143D

 41 44  0  0  1  0  0  0  0  0999 V2000
  189.3180  177.9290  139.0500 N   0  0  0  0  0  0  0  0  0  0  0  0
  182.5320  178.4700  138.0410 C   0  0  0  0  0  3  0  0  0  0  0  0
  184.8280  178.1130  138.7810 C   0  0  0  0  0  0  0  0  0  0  0  0
  187.1200  179.1640  141.6390 C   0  0  0  0  0  3  0  0  0  0  0  0
  185.1250  177.5390  137.4920 C   0  0  0  0  0  0  0  0  0  0  0  0
  188.7900  177.4350  137.9250 N   0  0  0  0  0  0  0  0  0  0  0  0
  184.0950  177.3870  136.5520 C   0  0  0  0  0  3  0  0  0  0  0  0
  185.8570  178.8120  141.0620 C   0  0  0  0  0  0  0  0  0  0  0  0
  186.4580  177.1910  137.1390 C   0  0  0  0  0  0  0  0  0  0  0  0
  184.7590  178.9030  141.8520 C   0  0  1  0  0  3  0  0  0  0  0  0
  182.8060  177.8400  136.8290 C   0  0  0  0  0  3  0  0  0  0  0  0
  187.4440  177.4680  138.0780 C   0  0  0  0  0  0  0  0  0  0  0  0
  188.3100  178.8890  141.0240 N   0  0  0  0  0  2  0  0  0  0  0  0
  188.2700  178.2390  139.8420 C   0  0  0  0  0  0  0  0  0  0  0  0
  187.1160  177.9550  139.2650 N   0  0  0  0  0  0  0  0  0  0  0  0
  185.8880  178.2620  139.7310 C   0  0  0  0  0  0  0  0  0  0  0  0
  183.5380  178.6150  138.9970 C   0  0  0  0  0  3  0  0  0  0  0  0
  182.3260  178.4930  142.0890 C   0  0  0  0  0  1  0  0  0  0  0  0
  183.6060  178.1620  141.5690 O   0  0  0  0  0  0  0  0  0  0  0  0
  187.1300  177.6130  134.7700 C   0  0  0  0  0  1  0  0  0  0  0  0
  186.7970  176.6840  135.8420 N   0  0  0  0  0  0  0  0  0  0  0  0
  186.8030  175.2380  135.6110 C   0  0  1  0  0  3  0  0  0  0  0  0
  187.8080  174.8780  134.7070 O   0  0  0  0  0  0  0  0  0  0  0  0
  188.6990  174.1040  135.4530 C   0  0  0  0  0  1  0  0  0  0  0  0
  186.9290  174.4480  136.9150 C   0  0  0  0  0  2  0  0  0  0  0  0
  185.6620  173.8220  137.3150 C   0  0  0  0  0  0  0  0  0  0  0  0
  184.6240  173.3060  137.6440 C   0  0  0  0  0  3  0  0  0  0  0  0
  184.8030  179.7220  143.1210 C   0  0  0  0  0  2  0  0  0  0  0  0
  184.7920  178.7500  145.4680 C   0  0  0  0  0  0  0  0  0  0  0  0
  183.6360  179.1950  145.6990 O   0  0  0  0  0  0  0  0  0  0  0  0
  185.4190  178.9630  144.2000 N   0  0  0  0  0  2  0  0  0  0  0  0
  185.5160  178.0020  146.5320 C   0  0  0  0  0  2  0  0  0  0  0  0
  186.9000  178.4440  146.6010 N   0  0  0  0  0  2  0  0  0  0  0  0
  187.7080  177.3080  147.0280 C   0  0  2  0  0  3  0  0  0  0  0  0
  188.9370  178.4860  148.5160 O   0  0  0  0  0  1  0  0  0  0  0  0
  188.0660  177.4520  148.4330 N   0  0  0  0  0  2  0  0  0  0  0  0
  188.9600  177.1890  146.1610 C   0  0  0  0  0  2  0  0  0  0  0  0
  190.0240  178.2530  144.1950 C   0  0  0  0  0  1  0  0  0  0  0  0
  188.7260  177.6940  144.7450 C   0  0  1  0  0  3  0  0  0  0  0  0
  189.3700  176.0220  143.0100 C   0  0  0  0  0  1  0  0  0  0  0  0
  188.2420  176.5450  143.8790 C   0  0  0  0  0  2  0  0  0  0  0  0
  1 14  2  0  0  0  0
  2 17  2  0  0  0  0
  3 17  1  0  0  0  0
  3 16  2  0  0  0  0
  5  3  1  0  0  0  0
  6 12  2  0  0  0  0
  6  1  1  0  0  0  0
  7 11  2  0  0  0  0
  7  5  1  0  0  0  0
  8  4  2  0  0  0  0
  8 10  1  0  0  0  0
  9  5  2  0  0  0  0
  9 12  1  0  0  0  0
 10 28  1  1  0  0  0
 11  2  1  0  0  0  0
 12 15  1  0  0  0  0
 13  4  1  0  0  0  0
 14 13  1  0  0  0  0
 15 16  1  0  0  0  0
 15 14  1  0  0  0  0
 16  8  1  0  0  0  0
 19 10  1  0  0  0  0
 19 18  1  0  0  0  0
 20 21  1  0  0  0  0
 21  9  1  0  0  0  0
 22 21  1  0  0  0  0
 22 25  1  1  0  0  0
 23 24  1  0  0  0  0
 23 22  1  0  0  0  0
 25 26  1  0  0  0  0
 26 27  3  0  0  0  0
 28 31  1  0  0  0  0
 29 30  2  0  0  0  0
 29 32  1  0  0  0  0
 31 29  1  0  0  0  0
 32 33  1  0  0  0  0
 33 34  1  0  0  0  0
 34 37  1  6  0  0  0
 34 36  1  0  0  0  0
 36 35  1  0  0  0  0
 39 38  1  6  0  0  0
 39 37  1  0  0  0  0
 40 41  1  0  0  0  0
 41 39  1  0  0  0  0
M  END
>  <MODEL>
2

>  <REMARK>
 VINA RESULT:      -7.1      2.306      4.218
  Name = 
  15 active torsions:
  status: ('A' for Active; 'I' for Inactive)
    1  A    between atoms: C_6  and  C_11
    2  A    between atoms: C_6  and  C_25
    3  A    between atoms: C_11  and  N_13
    4  A    between atoms: C_11  and  N_31
    5  A    between atoms: C_14  and  N_39
    6  A    between atoms: O_15  and  C_18
    7  A    between atoms: C_16  and  O_24
    8  A    between atoms: C_16  and  C_34
    9  A    between atoms: C_16  and  N_39
   10  A    between atoms: C_17  and  C_40
   11  A    between atoms: C_18  and  C_37
   12  A    between atoms: C_23  and  C_25
   13  A    between atoms: N_31  and  C_40
   14  A    between atoms: C_34  and  C_38
   15  A    between atoms: N_35  and  C_37
                            x       y       z     vdW  Elec       q    Type
                         _______ _______ _______ _____ _____    ______ ____

>  <TORSDO>
F 15

$$$$
=
 OpenBabel10232410143D

 41 44  0  0  1  0  0  0  0  0999 V2000
  191.5780  177.1910  139.6190 N   0  0  0  0  0  0  0  0  0  0  0  0
  185.8320  177.8410  143.3490 C   0  0  0  0  0  3  0  0  0  0  0  0
  187.6980  177.9210  141.7820 C   0  0  0  0  0  0  0  0  0  0  0  0
  188.3350  177.4780  138.0500 C   0  0  0  0  0  3  0  0  0  0  0  0
  188.6050  177.9170  142.9040 C   0  0  0  0  0  0  0  0  0  0  0  0
  191.6820  177.3550  140.9430 N   0  0  0  0  0  0  0  0  0  0  0  0
  188.0870  177.9480  144.2070 C   0  0  0  0  0  3  0  0  0  0  0  0
  187.5580  177.8710  139.1870 C   0  0  0  0  0  0  0  0  0  0  0  0
  190.0080  177.8120  142.7060 C   0  0  0  0  0  0  0  0  0  0  0  0
  186.2960  178.3130  138.9640 C   0  0  1  0  0  3  0  0  0  0  0  0
  186.7100  177.9200  144.4270 C   0  0  0  0  0  3  0  0  0  0  0  0
  190.4450  177.6780  141.3930 C   0  0  0  0  0  0  0  0  0  0  0  0
  189.6810  177.2450  138.1250 N   0  0  0  0  0  2  0  0  0  0  0  0
  190.2830  177.4230  139.3210 C   0  0  0  0  0  0  0  0  0  0  0  0
  189.5770  177.7310  140.3940 N   0  0  0  0  0  0  0  0  0  0  0  0
  188.2400  177.8900  140.4570 C   0  0  0  0  0  0  0  0  0  0  0  0
  186.3250  177.8280  142.0440 C   0  0  0  0  0  3  0  0  0  0  0  0
  184.2630  179.4460  139.8170 C   0  0  0  0  0  1  0  0  0  0  0  0
  185.6490  179.1390  139.8880 O   0  0  0  0  0  0  0  0  0  0  0  0
  191.6910  178.9180  144.1850 C   0  0  0  0  0  1  0  0  0  0  0  0
  190.9310  177.7360  143.8000 N   0  0  0  0  0  0  0  0  0  0  0  0
  191.0970  176.4690  144.5170 C   0  0  1  0  0  3  0  0  0  0  0  0
  191.9920  175.6270  143.8480 O   0  0  0  0  0  0  0  0  0  0  0  0
  192.1900  174.5530  144.7180 C   0  0  0  0  0  1  0  0  0  0  0  0
  191.5260  176.6830  145.9700 C   0  0  0  0  0  2  0  0  0  0  0  0
  190.3860  176.9450  146.8580 C   0  0  0  0  0  0  0  0  0  0  0  0
  189.4510  177.1570  147.5870 C   0  0  0  0  0  3  0  0  0  0  0  0
  185.6090  178.0120  137.6520 C   0  0  0  0  0  2  0  0  0  0  0  0
  183.6760  176.3650  137.5740 C   0  0  0  0  0  0  0  0  0  0  0  0
  182.8280  177.2910  137.4650 O   0  0  0  0  0  0  0  0  0  0  0  0
  185.0740  176.6570  137.6530 N   0  0  0  0  0  2  0  0  0  0  0  0
  183.2140  174.9510  137.6290 C   0  0  0  0  0  2  0  0  0  0  0  0
  184.3560  174.0560  137.7350 N   0  0  0  0  0  2  0  0  0  0  0  0
  184.2530  173.0760  136.6600 C   0  0  2  0  0  3  0  0  0  0  0  0
  182.7800  171.3780  136.4220 O   0  0  0  0  0  1  0  0  0  0  0  0
  183.8130  171.7940  137.1940 N   0  0  0  0  0  2  0  0  0  0  0  0
  185.5930  172.9310  135.9410 C   0  0  0  0  0  2  0  0  0  0  0  0
  187.6840  172.3590  137.1380 C   0  0  0  0  0  1  0  0  0  0  0  0
  186.7460  173.4900  136.7610 C   0  0  1  0  0  3  0  0  0  0  0  0
  188.4250  173.8610  134.9550 C   0  0  0  0  0  1  0  0  0  0  0  0
  187.4850  174.5300  135.9390 C   0  0  0  0  0  2  0  0  0  0  0  0
  1  6  1  0  0  0  0
  2 11  1  0  0  0  0
  3 17  1  0  0  0  0
  3  5  1  0  0  0  0
  4 13  1  0  0  0  0
  4  8  2  0  0  0  0
  5  7  1  0  0  0  0
  6 12  2  0  0  0  0
  7 11  2  0  0  0  0
  8 16  1  0  0  0  0
  9  5  2  0  0  0  0
  9 21  1  0  0  0  0
 10 28  1  6  0  0  0
 10  8  1  0  0  0  0
 10 19  1  0  0  0  0
 12  9  1  0  0  0  0
 13 14  1  0  0  0  0
 14  1  2  0  0  0  0
 14 15  1  0  0  0  0
 15 16  1  0  0  0  0
 15 12  1  0  0  0  0
 16  3  2  0  0  0  0
 17  2  2  0  0  0  0
 18 19  1  0  0  0  0
 21 20  1  0  0  0  0
 21 22  1  0  0  0  0
 22 25  1  1  0  0  0
 23 22  1  0  0  0  0
 23 24  1  0  0  0  0
 25 26  1  0  0  0  0
 26 27  3  0  0  0  0
 28 31  1  0  0  0  0
 29 32  1  0  0  0  0
 29 31  1  0  0  0  0
 30 29  2  0  0  0  0
 32 33  1  0  0  0  0
 34 37  1  1  0  0  0
 34 36  1  0  0  0  0
 34 33  1  0  0  0  0
 35 36  1  0  0  0  0
 37 39  1  0  0  0  0
 39 38  1  6  0  0  0
 40 41  1  0  0  0  0
 41 39  1  0  0  0  0
M  END
>  <MODEL>
3

>  <REMARK>
 VINA RESULT:      -6.9      2.364      8.704
  Name = 
  15 active torsions:
  status: ('A' for Active; 'I' for Inactive)
    1  A    between atoms: C_6  and  C_11
    2  A    between atoms: C_6  and  C_25
    3  A    between atoms: C_11  and  N_13
    4  A    between atoms: C_11  and  N_31
    5  A    between atoms: C_14  and  N_39
    6  A    between atoms: O_15  and  C_18
    7  A    between atoms: C_16  and  O_24
    8  A    between atoms: C_16  and  C_34
    9  A    between atoms: C_16  and  N_39
   10  A    between atoms: C_17  and  C_40
   11  A    between atoms: C_18  and  C_37
   12  A    between atoms: C_23  and  C_25
   13  A    between atoms: N_31  and  C_40
   14  A    between atoms: C_34  and  C_38
   15  A    between atoms: N_35  and  C_37
                            x       y       z     vdW  Elec       q    Type
                         _______ _______ _______ _____ _____    ______ ____

>  <TORSDO>
F 15

$$$$
=
 OpenBabel10232410143D

 41 44  0  0  1  0  0  0  0  0999 V2000
  185.7140  178.7170  139.0030 N   0  0  0  0  0  0  0  0  0  0  0  0
  189.9970  173.8780  136.6380 C   0  0  0  0  0  3  0  0  0  0  0  0
  188.8270  175.8460  137.4770 C   0  0  0  0  0  0  0  0  0  0  0  0
  188.9970  178.2430  140.4350 C   0  0  0  0  0  3  0  0  0  0  0  0
  187.7760  175.5950  136.5210 C   0  0  0  0  0  0  0  0  0  0  0  0
  185.3750  178.0370  137.9010 N   0  0  0  0  0  0  0  0  0  0  0  0
  187.9120  174.5360  135.6120 C   0  0  0  0  0  3  0  0  0  0  0  0
  189.5610  177.3730  139.4470 C   0  0  0  0  0  0  0  0  0  0  0  0
  186.5800  176.3620  136.5360 C   0  0  0  0  0  0  0  0  0  0  0  0
  190.8960  177.1430  139.5010 C   0  0  1  0  0  3  0  0  0  0  0  0
  189.0180  173.6900  135.6640 C   0  0  0  0  0  3  0  0  0  0  0  0
  186.4680  177.3250  137.5330 C   0  0  0  0  0  0  0  0  0  0  0  0
  187.7240  178.7330  140.3410 N   0  0  0  0  0  2  0  0  0  0  0  0
  186.9990  178.3920  139.2550 C   0  0  0  0  0  0  0  0  0  0  0  0
  187.4780  177.5470  138.3600 N   0  0  0  0  0  0  0  0  0  0  0  0
  188.6770  176.9300  138.3990 C   0  0  0  0  0  0  0  0  0  0  0  0
  189.8910  174.9360  137.5400 C   0  0  0  0  0  3  0  0  0  0  0  0
  192.9960  176.4540  138.3780 C   0  0  0  0  0  1  0  0  0  0  0  0
  191.6020  176.7290  138.3660 O   0  0  0  0  0  0  0  0  0  0  0  0
  185.4280  176.7690  134.3570 C   0  0  0  0  0  1  0  0  0  0  0  0
  185.4890  176.0930  135.6460 N   0  0  0  0  0  0  0  0  0  0  0  0
  184.4480  175.1430  136.0460 C   0  0  1  0  0  3  0  0  0  0  0  0
  183.2790  175.8090  136.4280 O   0  0  0  0  0  0  0  0  0  0  0  0
  182.2700  175.2330  135.6530 C   0  0  0  0  0  1  0  0  0  0  0  0
  184.1600  174.1110  134.9530 C   0  0  0  0  0  2  0  0  0  0  0  0
  184.8340  172.8300  135.2020 C   0  0  0  0  0  0  0  0  0  0  0  0
  185.3880  171.7800  135.4090 C   0  0  0  0  0  3  0  0  0  0  0  0
  191.6660  177.4410  140.7670 C   0  0  0  0  0  2  0  0  0  0  0  0
  191.0310  177.4260  143.2260 C   0  0  0  0  0  0  0  0  0  0  0  0
  191.6100  178.5270  143.4310 O   0  0  0  0  0  0  0  0  0  0  0  0
  191.0090  176.8430  141.9200 N   0  0  0  0  0  2  0  0  0  0  0  0
  190.3720  176.7220  144.3600 C   0  0  0  0  0  2  0  0  0  0  0  0
  188.9530  177.0420  144.3900 N   0  0  0  0  0  2  0  0  0  0  0  0
  188.6530  177.6070  145.7010 C   0  0  2  0  0  3  0  0  0  0  0  0
  189.4230  177.7780  147.8200 O   0  0  0  0  0  1  0  0  0  0  0  0
  189.5160  177.0070  146.7100 N   0  0  0  0  0  2  0  0  0  0  0  0
  187.1830  177.3920  146.0510 C   0  0  0  0  0  2  0  0  0  0  0  0
  186.0410  178.0510  143.9550 C   0  0  0  0  0  1  0  0  0  0  0  0
  186.2820  178.4330  145.4030 C   0  0  1  0  0  3  0  0  0  0  0  0
  183.8370  178.8890  145.2230 C   0  0  0  0  0  1  0  0  0  0  0  0
  184.9650  178.4900  146.1550 C   0  0  0  0  0  2  0  0  0  0  0  0
  1 14  2  0  0  0  0
  2 17  2  0  0  0  0
  3 17  1  0  0  0  0
  3 16  2  0  0  0  0
  5  9  2  0  0  0  0
  5  3  1  0  0  0  0
  6  1  1  0  0  0  0
  7 11  2  0  0  0  0
  7  5  1  0  0  0  0
  8 10  1  0  0  0  0
  8  4  2  0  0  0  0
  9 12  1  0  0  0  0
 10 28  1  6  0  0  0
 11  2  1  0  0  0  0
 12  6  2  0  0  0  0
 12 15  1  0  0  0  0
 13  4  1  0  0  0  0
 14 13  1  0  0  0  0
 15 16  1  0  0  0  0
 15 14  1  0  0  0  0
 16  8  1  0  0  0  0
 19 18  1  0  0  0  0
 19 10  1  0  0  0  0
 20 21  1  0  0  0  0
 21 22  1  0  0  0  0
 21  9  1  0  0  0  0
 22 25  1  6  0  0  0
 22 23  1  0  0  0  0
 24 23  1  0  0  0  0
 25 26  1  0  0  0  0
 26 27  3  0  0  0  0
 28 31  1  0  0  0  0
 29 30  2  0  0  0  0
 29 32  1  0  0  0  0
 31 29  1  0  0  0  0
 32 33  1  0  0  0  0
 33 34  1  0  0  0  0
 34 37  1  1  0  0  0
 34 36  1  0  0  0  0
 36 35  1  0  0  0  0
 39 38  1  6  0  0  0
 39 37  1  0  0  0  0
 39 41  1  0  0  0  0
 40 41  1  0  0  0  0
M  END
>  <MODEL>
4

>  <REMARK>
 VINA RESULT:      -6.7      1.880      3.239
  Name = 
  15 active torsions:
  status: ('A' for Active; 'I' for Inactive)
    1  A    between atoms: C_6  and  C_11
    2  A    between atoms: C_6  and  C_25
    3  A    between atoms: C_11  and  N_13
    4  A    between atoms: C_11  and  N_31
    5  A    between atoms: C_14  and  N_39
    6  A    between atoms: O_15  and  C_18
    7  A    between atoms: C_16  and  O_24
    8  A    between atoms: C_16  and  C_34
    9  A    between atoms: C_16  and  N_39
   10  A    between atoms: C_17  and  C_40
   11  A    between atoms: C_18  and  C_37
   12  A    between atoms: C_23  and  C_25
   13  A    between atoms: N_31  and  C_40
   14  A    between atoms: C_34  and  C_38
   15  A    between atoms: N_35  and  C_37
                            x       y       z     vdW  Elec       q    Type
                         _______ _______ _______ _____ _____    ______ ____

>  <TORSDO>
F 15

$$$$
=
 OpenBabel10232410143D

 41 44  0  0  1  0  0  0  0  0999 V2000
  186.4430  178.8570  141.5120 N   0  0  0  0  0  0  0  0  0  0  0  0
  192.5140  176.9660  138.8820 C   0  0  0  0  0  3  0  0  0  0  0  0
  190.2040  177.3070  139.5850 C   0  0  0  0  0  0  0  0  0  0  0  0
  186.8000  178.0010  138.0190 C   0  0  0  0  0  3  0  0  0  0  0  0
  190.6680  177.4470  140.9440 C   0  0  0  0  0  0  0  0  0  0  0  0
  187.4760  178.6680  142.3410 N   0  0  0  0  0  0  0  0  0  0  0  0
  192.0300  177.2690  141.2290 C   0  0  0  0  0  3  0  0  0  0  0  0
  188.1100  177.4230  138.0520 C   0  0  0  0  0  0  0  0  0  0  0  0
  189.7750  177.8310  141.9820 C   0  0  0  0  0  0  0  0  0  0  0  0
  188.5280  176.7530  136.9500 C   0  0  1  0  0  3  0  0  0  0  0  0
  192.9440  177.0200  140.2070 C   0  0  0  0  0  3  0  0  0  0  0  0
  188.4620  178.0950  141.6100 C   0  0  0  0  0  0  0  0  0  0  0  0
  186.1840  178.4880  139.1390 N   0  0  0  0  0  2  0  0  0  0  0  0
  186.8450  178.3880  140.3120 C   0  0  0  0  0  0  0  0  0  0  0  0
  188.0750  177.9100  140.3570 N   0  0  0  0  0  0  0  0  0  0  0  0
  188.8120  177.4920  139.3080 C   0  0  0  0  0  0  0  0  0  0  0  0
  191.1620  177.1220  138.5780 C   0  0  0  0  0  3  0  0  0  0  0  0
  190.1760  175.2300  135.8970 C   0  0  0  0  0  1  0  0  0  0  0  0
  189.5320  175.7830  137.0370 O   0  0  0  0  0  0  0  0  0  0  0  0
  190.8050  179.3260  143.6970 C   0  0  0  0  0  1  0  0  0  0  0  0
  190.2170  178.0460  143.3280 N   0  0  0  0  0  0  0  0  0  0  0  0
  190.0710  176.9740  144.3160 C   0  0  1  0  0  3  0  0  0  0  0  0
  191.2820  176.3010  144.5090 O   0  0  0  0  0  0  0  0  0  0  0  0
  191.6210  176.5500  145.8400 C   0  0  0  0  0  1  0  0  0  0  0  0
  189.5100  177.4880  145.6440 C   0  0  0  0  0  2  0  0  0  0  0  0
  188.0420  177.5080  145.6610 C   0  0  0  0  0  0  0  0  0  0  0  0
  186.8370  177.5260  145.6770 C   0  0  0  0  0  3  0  0  0  0  0  0
  187.8320  176.9610  135.6260 C   0  0  0  0  0  2  0  0  0  0  0  0
  185.5700  176.0000  134.9830 C   0  0  0  0  0  0  0  0  0  0  0  0
  185.0560  177.1460  134.8890 O   0  0  0  0  0  0  0  0  0  0  0  0
  186.9490  175.8420  135.3280 N   0  0  0  0  0  2  0  0  0  0  0  0
  184.7280  174.7960  134.7410 C   0  0  0  0  0  2  0  0  0  0  0  0
  183.4990  174.8820  135.5150 N   0  0  0  0  0  2  0  0  0  0  0  0
  183.8340  174.6200  136.9100 C   0  0  2  0  0  3  0  0  0  0  0  0
  184.9670  172.9770  137.9710 O   0  0  0  0  0  1  0  0  0  0  0  0
  183.9170  173.1840  137.1400 N   0  0  0  0  0  2  0  0  0  0  0  0
  182.8000  175.2570  137.8350 C   0  0  0  0  0  2  0  0  0  0  0  0
  182.8350  177.7250  137.6440 C   0  0  0  0  0  1  0  0  0  0  0  0
  183.3110  176.5430  138.4660 C   0  0  1  0  0  3  0  0  0  0  0  0
  182.7640  178.0930  140.3420 C   0  0  0  0  0  1  0  0  0  0  0  0
  182.7830  176.6470  139.8860 C   0  0  0  0  0  2  0  0  0  0  0  0
  1  6  1  0  0  0  0
  2 11  1  0  0  0  0
  3  5  1  0  0  0  0
  4  8  2  0  0  0  0
  4 13  1  0  0  0  0
  5  7  1  0  0  0  0
  5  9  2  0  0  0  0
  8 16  1  0  0  0  0
  9 21  1  0  0  0  0
 10 28  1  1  0  0  0
 10 19  1  0  0  0  0
 10  8  1  0  0  0  0
 11  7  2  0  0  0  0
 12  9  1  0  0  0  0
 12  6  2  0  0  0  0
 13 14  1  0  0  0  0
 14 15  1  0  0  0  0
 14  1  2  0  0  0  0
 15 12  1  0  0  0  0
 16  3  2  0  0  0  0
 16 15  1  0  0  0  0
 17  2  2  0  0  0  0
 17  3  1  0  0  0  0
 18 19  1  0  0  0  0
 21 20  1  0  0  0  0
 21 22  1  0  0  0  0
 22 23  1  0  0  0  0
 22 25  1  1  0  0  0
 23 24  1  0  0  0  0
 25 26  1  0  0  0  0
 26 27  3  0  0  0  0
 29 31  1  0  0  0  0
 30 29  2  0  0  0  0
 31 28  1  0  0  0  0
 32 29  1  0  0  0  0
 32 33  1  0  0  0  0
 33 34  1  0  0  0  0
 34 36  1  0  0  0  0
 34 37  1  1  0  0  0
 36 35  1  0  0  0  0
 37 39  1  0  0  0  0
 39 38  1  6  0  0  0
 39 41  1  0  0  0  0
 41 40  1  0  0  0  0
M  END
>  <MODEL>
5

>  <REMARK>
 VINA RESULT:      -6.6      2.452      8.435
  Name = 
  15 active torsions:
  status: ('A' for Active; 'I' for Inactive)
    1  A    between atoms: C_6  and  C_11
    2  A    between atoms: C_6  and  C_25
    3  A    between atoms: C_11  and  N_13
    4  A    between atoms: C_11  and  N_31
    5  A    between atoms: C_14  and  N_39
    6  A    between atoms: O_15  and  C_18
    7  A    between atoms: C_16  and  O_24
    8  A    between atoms: C_16  and  C_34
    9  A    between atoms: C_16  and  N_39
   10  A    between atoms: C_17  and  C_40
   11  A    between atoms: C_18  and  C_37
   12  A    between atoms: C_23  and  C_25
   13  A    between atoms: N_31  and  C_40
   14  A    between atoms: C_34  and  C_38
   15  A    between atoms: N_35  and  C_37
                            x       y       z     vdW  Elec       q    Type
                         _______ _______ _______ _____ _____    ______ ____

>  <TORSDO>
F 15

$$$$
=
 OpenBabel10232410143D

 41 44  0  0  1  0  0  0  0  0999 V2000
  185.6040  178.7050  146.3900 N   0  0  0  0  0  0  0  0  0  0  0  0
  187.0520  178.5470  139.6640 C   0  0  0  0  0  3  0  0  0  0  0  0
  186.2100  178.3450  141.9440 C   0  0  0  0  0  0  0  0  0  0  0  0
  183.0120  179.0450  143.8950 C   0  0  0  0  0  3  0  0  0  0  0  0
  187.5600  178.1090  142.3930 C   0  0  0  0  0  0  0  0  0  0  0  0
  186.8490  178.4010  146.0040 N   0  0  0  0  0  0  0  0  0  0  0  0
  188.5950  178.0300  141.4490 C   0  0  0  0  0  3  0  0  0  0  0  0
  183.7540  178.6630  142.7320 C   0  0  0  0  0  0  0  0  0  0  0  0
  187.8630  178.0270  143.7790 C   0  0  0  0  0  0  0  0  0  0  0  0
  183.0590  178.4340  141.5910 C   0  0  1  0  0  3  0  0  0  0  0  0
  188.3410  178.2380  140.0940 C   0  0  0  0  0  3  0  0  0  0  0  0
  186.8070  178.2210  144.6610 C   0  0  0  0  0  0  0  0  0  0  0  0
  183.5670  179.0710  145.1450 N   0  0  0  0  0  2  0  0  0  0  0  0
  184.8580  178.6930  145.2660 C   0  0  0  0  0  0  0  0  0  0  0  0
  185.5760  178.3910  144.2000 N   0  0  0  0  0  0  0  0  0  0  0  0
  185.1630  178.4240  142.9170 C   0  0  0  0  0  0  0  0  0  0  0  0
  186.0050  178.6130  140.5840 C   0  0  0  0  0  3  0  0  0  0  0  0
  182.9320  176.4600  140.0970 C   0  0  0  0  0  1  0  0  0  0  0  0
  183.5860  177.6260  140.5770 O   0  0  0  0  0  0  0  0  0  0  0  0
  190.0910  179.0170  144.3260 C   0  0  0  0  0  1  0  0  0  0  0  0
  189.2030  177.8630  144.2600 N   0  0  0  0  0  0  0  0  0  0  0  0
  189.6630  176.5370  144.6780 C   0  0  1  0  0  3  0  0  0  0  0  0
  190.3040  175.8730  143.6270 O   0  0  0  0  0  0  0  0  0  0  0  0
  191.6070  175.6590  144.0810 C   0  0  0  0  0  1  0  0  0  0  0  0
  190.5620  176.6030  145.9150 C   0  0  0  0  0  2  0  0  0  0  0  0
  189.8760  177.1880  147.0750 C   0  0  0  0  0  0  0  0  0  0  0  0
  189.3110  177.6640  148.0260 C   0  0  0  0  0  3  0  0  0  0  0  0
  181.6490  178.9560  141.4440 C   0  0  0  0  0  2  0  0  0  0  0  0
  180.5790  180.0560  139.4190 C   0  0  0  0  0  0  0  0  0  0  0  0
  180.3360  181.1120  140.0610 O   0  0  0  0  0  0  0  0  0  0  0  0
  181.2450  178.9550  140.0450 N   0  0  0  0  0  2  0  0  0  0  0  0
  180.1580  179.9500  137.9950 C   0  0  0  0  0  2  0  0  0  0  0  0
  181.0270  180.7620  137.1560 N   0  0  0  0  0  2  0  0  0  0  0  0
  180.1820  181.4930  136.2200 C   0  0  2  0  0  3  0  0  0  0  0  0
  180.8180  180.1250  134.5360 O   0  0  0  0  0  1  0  0  0  0  0  0
  180.7550  181.4340  134.8810 N   0  0  0  0  0  2  0  0  0  0  0  0
  180.0160  182.9420  136.6720 C   0  0  0  0  0  2  0  0  0  0  0  0
  180.4140  184.7590  135.0370 C   0  0  0  0  0  1  0  0  0  0  0  0
  181.0700  183.8560  136.0650 C   0  0  1  0  0  3  0  0  0  0  0  0
  180.6350  185.4210  137.9570 C   0  0  0  0  0  1  0  0  0  0  0  0
  181.7010  184.6890  137.1660 C   0  0  0  0  0  2  0  0  0  0  0  0
  2 11  1  0  0  0  0
  2 17  2  0  0  0  0
  3  5  1  0  0  0  0
  3 16  2  0  0  0  0
  4 13  1  0  0  0  0
  5  9  2  0  0  0  0
  6  1  1  0  0  0  0
  7  5  1  0  0  0  0
  8 16  1  0  0  0  0
  8  4  2  0  0  0  0
  9 21  1  0  0  0  0
  9 12  1  0  0  0  0
 10 28  1  1  0  0  0
 10  8  1  0  0  0  0
 11  7  2  0  0  0  0
 12  6  2  0  0  0  0
 13 14  1  0  0  0  0
 14  1  2  0  0  0  0
 15 12  1  0  0  0  0
 15 14  1  0  0  0  0
 16 15  1  0  0  0  0
 17  3  1  0  0  0  0
 18 19  1  0  0  0  0
 19 10  1  0  0  0  0
 21 20  1  0  0  0  0
 21 22  1  0  0  0  0
 22 25  1  1  0  0  0
 23 24  1  0  0  0  0
 23 22  1  0  0  0  0
 25 26  1  0  0  0  0
 26 27  3  0  0  0  0
 29 31  1  0  0  0  0
 29 30  2  0  0  0  0
 31 28  1  0  0  0  0
 32 29  1  0  0  0  0
 33 32  1  0  0  0  0
 34 37  1  1  0  0  0
 34 33  1  0  0  0  0
 35 36  1  0  0  0  0
 36 34  1  0  0  0  0
 39 38  1  6  0  0  0
 39 37  1  0  0  0  0
 39 41  1  0  0  0  0
 41 40  1  0  0  0  0
M  END
>  <MODEL>
6

>  <REMARK>
 VINA RESULT:      -6.5      4.575     10.225
  Name = 
  15 active torsions:
  status: ('A' for Active; 'I' for Inactive)
    1  A    between atoms: C_6  and  C_11
    2  A    between atoms: C_6  and  C_25
    3  A    between atoms: C_11  and  N_13
    4  A    between atoms: C_11  and  N_31
    5  A    between atoms: C_14  and  N_39
    6  A    between atoms: O_15  and  C_18
    7  A    between atoms: C_16  and  O_24
    8  A    between atoms: C_16  and  C_34
    9  A    between atoms: C_16  and  N_39
   10  A    between atoms: C_17  and  C_40
   11  A    between atoms: C_18  and  C_37
   12  A    between atoms: C_23  and  C_25
   13  A    between atoms: N_31  and  C_40
   14  A    between atoms: C_34  and  C_38
   15  A    between atoms: N_35  and  C_37
                            x       y       z     vdW  Elec       q    Type
                         _______ _______ _______ _____ _____    ______ ____

>  <TORSDO>
F 15

$$$$
=
 OpenBabel10232410143D

 41 44  0  0  1  0  0  0  0  0999 V2000
  184.8330  178.7140  138.4270 N   0  0  0  0  0  0  0  0  0  0  0  0
  187.7710  172.7990  136.4930 C   0  0  0  0  0  3  0  0  0  0  0  0
  187.0940  175.0770  137.0390 C   0  0  0  0  0  0  0  0  0  0  0  0
  188.2930  177.9930  139.1810 C   0  0  0  0  0  3  0  0  0  0  0  0
  185.8130  174.8130  136.4310 C   0  0  0  0  0  0  0  0  0  0  0  0
  184.1480  177.8810  137.6360 N   0  0  0  0  0  0  0  0  0  0  0  0
  185.5860  173.5740  135.8130 C   0  0  0  0  0  3  0  0  0  0  0  0
  188.4800  176.8440  138.3480 C   0  0  0  0  0  0  0  0  0  0  0  0
  184.7590  175.7630  136.5120 C   0  0  0  0  0  0  0  0  0  0  0  0
  189.7480  176.3990  138.1670 C   0  0  1  0  0  3  0  0  0  0  0  0
  186.5620  172.5790  135.8360 C   0  0  0  0  0  3  0  0  0  0  0  0
  185.0190  176.9240  137.2310 C   0  0  0  0  0  0  0  0  0  0  0  0
  187.1050  178.6670  139.2460 N   0  0  0  0  0  2  0  0  0  0  0  0
  186.0920  178.2300  138.4670 C   0  0  0  0  0  0  0  0  0  0  0  0
  186.2250  177.1400  137.7340 N   0  0  0  0  0  0  0  0  0  0  0  0
  187.3120  176.3460  137.6660 C   0  0  0  0  0  0  0  0  0  0  0  0
  188.0240  174.0310  137.0980 C   0  0  0  0  0  3  0  0  0  0  0  0
  191.1650  175.9580  136.1810 C   0  0  0  0  0  1  0  0  0  0  0  0
  190.0880  175.6310  137.0480 O   0  0  0  0  0  0  0  0  0  0  0  0
  183.1320  175.9260  134.6230 C   0  0  0  0  0  1  0  0  0  0  0  0
  183.4530  175.5040  135.9800 N   0  0  0  0  0  0  0  0  0  0  0  0
  182.4590  174.8170  136.8080 C   0  0  1  0  0  3  0  0  0  0  0  0
  181.5120  175.7170  137.3050 O   0  0  0  0  0  0  0  0  0  0  0  0
  181.5650  175.5620  138.6920 C   0  0  0  0  0  1  0  0  0  0  0  0
  181.7830  173.6660  136.0590 C   0  0  0  0  0  2  0  0  0  0  0  0
  182.3240  172.3550  136.4430 C   0  0  0  0  0  0  0  0  0  0  0  0
  182.7640  171.2790  136.7580 C   0  0  0  0  0  3  0  0  0  0  0  0
  190.8440  176.8250  139.1150 C   0  0  0  0  0  2  0  0  0  0  0  0
  191.0950  177.1450  141.6230 C   0  0  0  0  0  0  0  0  0  0  0  0
  191.9860  178.0230  141.4700 O   0  0  0  0  0  0  0  0  0  0  0  0
  190.4760  176.5260  140.4920 N   0  0  0  0  0  2  0  0  0  0  0  0
  190.6890  176.7440  142.9980 C   0  0  0  0  0  2  0  0  0  0  0  0
  190.2760  177.9130  143.7590 N   0  0  0  0  0  2  0  0  0  0  0  0
  190.4260  177.5970  145.1740 C   0  0  2  0  0  3  0  0  0  0  0  0
  191.9790  176.8960  146.6590 O   0  0  0  0  0  1  0  0  0  0  0  0
  191.5870  176.7390  145.3730 N   0  0  0  0  0  2  0  0  0  0  0  0
  189.1610  176.9280  145.7080 C   0  0  0  0  0  2  0  0  0  0  0  0
  186.8760  177.6370  145.0740 C   0  0  0  0  0  1  0  0  0  0  0  0
  188.0530  177.9330  145.9830 C   0  0  1  0  0  3  0  0  0  0  0  0
  188.7440  178.3040  148.3500 C   0  0  0  0  0  1  0  0  0  0  0  0
  187.6320  177.8250  147.4370 C   0  0  0  0  0  2  0  0  0  0  0  0
  1 14  2  0  0  0  0
  2 17  2  0  0  0  0
  3 17  1  0  0  0  0
  3 16  2  0  0  0  0
  4 13  1  0  0  0  0
  5  9  2  0  0  0  0
  5  3  1  0  0  0  0
  6  1  1  0  0  0  0
  7 11  2  0  0  0  0
  7  5  1  0  0  0  0
  8  4  2  0  0  0  0
  9 12  1  0  0  0  0
 10  8  1  0  0  0  0
 10 28  1  6  0  0  0
 11  2  1  0  0  0  0
 12  6  2  0  0  0  0
 12 15  1  0  0  0  0
 14 13  1  0  0  0  0
 15 14  1  0  0  0  0
 16 15  1  0  0  0  0
 16  8  1  0  0  0  0
 18 19  1  0  0  0  0
 19 10  1  0  0  0  0
 20 21  1  0  0  0  0
 21  9  1  0  0  0  0
 21 22  1  0  0  0  0
 22 25  1  6  0  0  0
 22 23  1  0  0  0  0
 23 24  1  0  0  0  0
 25 26  1  0  0  0  0
 26 27  3  0  0  0  0
 28 31  1  0  0  0  0
 29 32  1  0  0  0  0
 30 29  2  0  0  0  0
 31 29  1  0  0  0  0
 32 33  1  0  0  0  0
 33 34  1  0  0  0  0
 34 36  1  0  0  0  0
 34 37  1  6  0  0  0
 36 35  1  0  0  0  0
 37 39  1  0  0  0  0
 39 38  1  6  0  0  0
 39 41  1  0  0  0  0
 41 40  1  0  0  0  0
M  END
>  <MODEL>
7

>  <REMARK>
 VINA RESULT:      -6.5      2.327      4.251
  Name = 
  15 active torsions:
  status: ('A' for Active; 'I' for Inactive)
    1  A    between atoms: C_6  and  C_11
    2  A    between atoms: C_6  and  C_25
    3  A    between atoms: C_11  and  N_13
    4  A    between atoms: C_11  and  N_31
    5  A    between atoms: C_14  and  N_39
    6  A    between atoms: O_15  and  C_18
    7  A    between atoms: C_16  and  O_24
    8  A    between atoms: C_16  and  C_34
    9  A    between atoms: C_16  and  N_39
   10  A    between atoms: C_17  and  C_40
   11  A    between atoms: C_18  and  C_37
   12  A    between atoms: C_23  and  C_25
   13  A    between atoms: N_31  and  C_40
   14  A    between atoms: C_34  and  C_38
   15  A    between atoms: N_35  and  C_37
                            x       y       z     vdW  Elec       q    Type
                         _______ _______ _______ _____ _____    ______ ____

>  <TORSDO>
F 15

$$$$
=
 OpenBabel10232410143D

 41 44  0  0  1  0  0  0  0  0999 V2000
  186.5070  178.8430  141.4990 N   0  0  0  0  0  0  0  0  0  0  0  0
  192.6340  176.9290  139.0190 C   0  0  0  0  0  3  0  0  0  0  0  0
  190.3110  177.2710  139.6750 C   0  0  0  0  0  0  0  0  0  0  0  0
  186.9280  177.8990  138.0360 C   0  0  0  0  0  3  0  0  0  0  0  0
  190.7500  177.4490  141.0370 C   0  0  0  0  0  0  0  0  0  0  0  0
  187.5270  178.6830  142.3490 N   0  0  0  0  0  0  0  0  0  0  0  0
  192.1080  177.2890  141.3490 C   0  0  0  0  0  3  0  0  0  0  0  0
  188.2410  177.3320  138.1050 C   0  0  0  0  0  0  0  0  0  0  0  0
  189.8380  177.8530  142.0500 C   0  0  0  0  0  0  0  0  0  0  0  0
  188.6820  176.6360  137.0280 C   0  0  1  0  0  3  0  0  0  0  0  0
  193.0410  177.0210  140.3480 C   0  0  0  0  0  3  0  0  0  0  0  0
  188.5300  178.0980  141.6500 C   0  0  0  0  0  0  0  0  0  0  0  0
  186.2900  178.4110  139.1320 N   0  0  0  0  0  2  0  0  0  0  0  0
  186.9320  178.3450  140.3180 C   0  0  0  0  0  0  0  0  0  0  0  0
  188.1640  177.8780  140.3950 N   0  0  0  0  0  0  0  0  0  0  0  0
  188.9220  177.4380  139.3700 C   0  0  0  0  0  0  0  0  0  0  0  0
  191.2860  177.0670  138.6890 C   0  0  0  0  0  3  0  0  0  0  0  0
  190.2510  174.9880  136.0470 C   0  0  0  0  0  1  0  0  0  0  0  0
  189.6920  175.6760  137.1560 O   0  0  0  0  0  0  0  0  0  0  0  0
  190.8620  179.3870  143.7350 C   0  0  0  0  0  1  0  0  0  0  0  0
  190.2550  178.1060  143.3970 N   0  0  0  0  0  0  0  0  0  0  0  0
  190.0680  177.0720  144.4180 C   0  0  1  0  0  3  0  0  0  0  0  0
  191.2540  176.3650  144.6410 O   0  0  0  0  0  0  0  0  0  0  0  0
  191.5400  176.5650  145.9930 C   0  0  0  0  0  1  0  0  0  0  0  0
  189.5160  177.6460  145.7240 C   0  0  0  0  0  2  0  0  0  0  0  0
  188.0480  177.6550  145.7570 C   0  0  0  0  0  0  0  0  0  0  0  0
  186.8440  177.6620  145.7790 C   0  0  0  0  0  3  0  0  0  0  0  0
  188.0070  176.8060  135.6870 C   0  0  0  0  0  2  0  0  0  0  0  0
  185.6640  176.0540  135.0550 C   0  0  0  0  0  0  0  0  0  0  0  0
  185.3050  177.2330  134.7920 O   0  0  0  0  0  0  0  0  0  0  0  0
  186.9980  175.7740  135.4870 N   0  0  0  0  0  2  0  0  0  0  0  0
  184.6830  174.9420  134.9220 C   0  0  0  0  0  2  0  0  0  0  0  0
  185.3270  173.6700  135.2150 N   0  0  0  0  0  2  0  0  0  0  0  0
  184.5350  172.9970  136.2370 C   0  0  2  0  0  3  0  0  0  0  0  0
  186.4210  173.0120  137.4840 O   0  0  0  0  0  1  0  0  0  0  0  0
  185.0920  173.2670  137.5560 N   0  0  0  0  0  2  0  0  0  0  0  0
  184.4840  171.4950  135.9680 C   0  0  0  0  0  2  0  0  0  0  0  0
  182.0700  171.8330  136.4030 C   0  0  0  0  0  1  0  0  0  0  0  0
  183.2230  170.8550  136.5300 C   0  0  1  0  0  3  0  0  0  0  0  0
  184.0880  168.6230  135.8320 C   0  0  0  0  0  1  0  0  0  0  0  0
  182.9190  169.5860  135.7540 C   0  0  0  0  0  2  0  0  0  0  0  0
  1  6  1  0  0  0  0
  2 11  1  0  0  0  0
  3  5  1  0  0  0  0
  4  8  2  0  0  0  0
  4 13  1  0  0  0  0
  5  7  1  0  0  0  0
  5  9  2  0  0  0  0
  8 16  1  0  0  0  0
  9 21  1  0  0  0  0
 10 28  1  1  0  0  0
 10 19  1  0  0  0  0
 10  8  1  0  0  0  0
 11  7  2  0  0  0  0
 12  9  1  0  0  0  0
 12  6  2  0  0  0  0
 13 14  1  0  0  0  0
 14 15  1  0  0  0  0
 14  1  2  0  0  0  0
 15 12  1  0  0  0  0
 16  3  2  0  0  0  0
 16 15  1  0  0  0  0
 17  2  2  0  0  0  0
 17  3  1  0  0  0  0
 18 19  1  0  0  0  0
 21 20  1  0  0  0  0
 21 22  1  0  0  0  0
 22 23  1  0  0  0  0
 22 25  1  1  0  0  0
 23 24  1  0  0  0  0
 25 26  1  0  0  0  0
 26 27  3  0  0  0  0
 29 31  1  0  0  0  0
 30 29  2  0  0  0  0
 31 28  1  0  0  0  0
 32 29  1  0  0  0  0
 32 33  1  0  0  0  0
 33 34  1  0  0  0  0
 34 37  1  6  0  0  0
 34 36  1  0  0  0  0
 35 36  1  0  0  0  0
 37 39  1  0  0  0  0
 39 38  1  6  0  0  0
 41 40  1  0  0  0  0
 41 39  1  0  0  0  0
M  END
>  <MODEL>
8

>  <REMARK>
 VINA RESULT:      -6.4      2.589      9.143
  Name = 
  15 active torsions:
  status: ('A' for Active; 'I' for Inactive)
    1  A    between atoms: C_6  and  C_11
    2  A    between atoms: C_6  and  C_25
    3  A    between atoms: C_11  and  N_13
    4  A    between atoms: C_11  and  N_31
    5  A    between atoms: C_14  and  N_39
    6  A    between atoms: O_15  and  C_18
    7  A    between atoms: C_16  and  O_24
    8  A    between atoms: C_16  and  C_34
    9  A    between atoms: C_16  and  N_39
   10  A    between atoms: C_17  and  C_40
   11  A    between atoms: C_18  and  C_37
   12  A    between atoms: C_23  and  C_25
   13  A    between atoms: N_31  and  C_40
   14  A    between atoms: C_34  and  C_38
   15  A    between atoms: N_35  and  C_37
                            x       y       z     vdW  Elec       q    Type
                         _______ _______ _______ _____ _____    ______ ____

>  <TORSDO>
F 15

$$$$
=
 OpenBabel10232410143D

 41 44  0  0  1  0  0  0  0  0999 V2000
  183.5970  179.1590  141.9530 N   0  0  0  0  0  0  0  0  0  0  0  0
  185.6400  176.5230  135.9350 C   0  0  0  0  0  3  0  0  0  0  0  0
  185.2430  177.7320  138.0140 C   0  0  0  0  0  0  0  0  0  0  0  0
  187.0920  178.5900  141.2350 C   0  0  0  0  0  3  0  0  0  0  0  0
  183.8380  177.7750  137.6890 C   0  0  0  0  0  0  0  0  0  0  0  0
  182.6920  178.9880  140.9820 N   0  0  0  0  0  0  0  0  0  0  0  0
  183.4000  177.2530  136.4630 C   0  0  0  0  0  3  0  0  0  0  0  0
  187.0040  178.3320  139.8290 C   0  0  0  0  0  0  0  0  0  0  0  0
  182.8900  178.2750  138.6220 C   0  0  0  0  0  0  0  0  0  0  0  0
  188.1600  178.2980  139.1230 C   0  0  1  0  0  3  0  0  0  0  0  0
  184.2950  176.6400  135.5890 C   0  0  0  0  0  3  0  0  0  0  0  0
  183.3820  178.6770  139.8580 C   0  0  0  0  0  0  0  0  0  0  0  0
  185.9950  178.8810  141.9980 N   0  0  0  0  0  2  0  0  0  0  0  0
  184.7980  178.9470  141.3780 C   0  0  0  0  0  0  0  0  0  0  0  0
  184.6860  178.6590  140.0940 N   0  0  0  0  0  0  0  0  0  0  0  0
  185.6780  178.2690  139.2680 C   0  0  0  0  0  0  0  0  0  0  0  0
  186.1010  177.0520  137.1400 C   0  0  0  0  0  3  0  0  0  0  0  0
  188.9630  179.5380  137.1320 C   0  0  0  0  0  1  0  0  0  0  0  0
  188.1690  178.5310  137.7430 O   0  0  0  0  0  0  0  0  0  0  0  0
  180.7050  177.0630  138.6250 C   0  0  0  0  0  1  0  0  0  0  0  0
  181.4810  178.2670  138.3580 N   0  0  0  0  0  0  0  0  0  0  0  0
  180.8400  179.4700  137.8210 C   0  0  1  0  0  3  0  0  0  0  0  0
  181.7360  180.5440  137.7870 O   0  0  0  0  0  0  0  0  0  0  0  0
  181.2090  181.4770  138.6820 C   0  0  0  0  0  1  0  0  0  0  0  0
  180.2220  179.2260  136.4430 C   0  0  0  0  0  2  0  0  0  0  0  0
  180.6100  180.2520  135.4660 C   0  0  0  0  0  0  0  0  0  0  0  0
  180.9290  181.0910  134.6620 C   0  0  0  0  0  3  0  0  0  0  0  0
  189.4800  178.1210  139.8370 C   0  0  0  0  0  2  0  0  0  0  0  0
  190.4190  176.8070  141.7980 C   0  0  0  0  0  0  0  0  0  0  0  0
  191.5990  177.1590  141.5310 O   0  0  0  0  0  0  0  0  0  0  0  0
  189.3200  177.2660  141.0050 N   0  0  0  0  0  2  0  0  0  0  0  0
  190.1680  175.8950  142.9480 C   0  0  0  0  0  2  0  0  0  0  0  0
  191.0670  176.2170  144.0470 N   0  0  0  0  0  2  0  0  0  0  0  0
  190.5330  177.3910  144.7270 C   0  0  2  0  0  3  0  0  0  0  0  0
  191.9400  179.0490  144.1070 O   0  0  0  0  0  1  0  0  0  0  0  0
  191.6240  178.2550  145.1590 N   0  0  0  0  0  2  0  0  0  0  0  0
  189.6730  176.9720  145.9170 C   0  0  0  0  0  2  0  0  0  0  0  0
  187.4650  177.3660  144.8680 C   0  0  0  0  0  1  0  0  0  0  0  0
  188.3840  177.7760  146.0030 C   0  0  1  0  0  3  0  0  0  0  0  0
  188.5960  177.9840  148.4790 C   0  0  0  0  0  1  0  0  0  0  0  0
  187.7170  177.5070  147.3400 C   0  0  0  0  0  2  0  0  0  0  0  0
  2 17  2  0  0  0  0
  3 16  2  0  0  0  0
  4 13  1  0  0  0  0
  5  3  1  0  0  0  0
  5  9  2  0  0  0  0
  6  1  1  0  0  0  0
  7  5  1  0  0  0  0
  8  4  2  0  0  0  0
  9 12  1  0  0  0  0
 10  8  1  0  0  0  0
 10 28  1  1  0  0  0
 11  2  1  0  0  0  0
 11  7  2  0  0  0  0
 12 15  1  0  0  0  0
 12  6  2  0  0  0  0
 14  1  2  0  0  0  0
 14 13  1  0  0  0  0
 15 14  1  0  0  0  0
 16  8  1  0  0  0  0
 16 15  1  0  0  0  0
 17  3  1  0  0  0  0
 18 19  1  0  0  0  0
 19 10  1  0  0  0  0
 21  9  1  0  0  0  0
 21 20  1  0  0  0  0
 22 25  1  6  0  0  0
 22 21  1  0  0  0  0
 23 22  1  0  0  0  0
 23 24  1  0  0  0  0
 26 25  1  0  0  0  0
 27 26  3  0  0  0  0
 28 31  1  0  0  0  0
 29 32  1  0  0  0  0
 30 29  2  0  0  0  0
 31 29  1  0  0  0  0
 32 33  1  0  0  0  0
 33 34  1  0  0  0  0
 34 36  1  0  0  0  0
 34 37  1  1  0  0  0
 35 36  1  0  0  0  0
 37 39  1  0  0  0  0
 39 38  1  6  0  0  0
 39 41  1  0  0  0  0
 41 40  1  0  0  0  0
M  END
>  <MODEL>
9

>  <REMARK>
 VINA RESULT:      -6.3      3.267      5.429
  Name = 
  15 active torsions:
  status: ('A' for Active; 'I' for Inactive)
    1  A    between atoms: C_6  and  C_11
    2  A    between atoms: C_6  and  C_25
    3  A    between atoms: C_11  and  N_13
    4  A    between atoms: C_11  and  N_31
    5  A    between atoms: C_14  and  N_39
    6  A    between atoms: O_15  and  C_18
    7  A    between atoms: C_16  and  O_24
    8  A    between atoms: C_16  and  C_34
    9  A    between atoms: C_16  and  N_39
   10  A    between atoms: C_17  and  C_40
   11  A    between atoms: C_18  and  C_37
   12  A    between atoms: C_23  and  C_25
   13  A    between atoms: N_31  and  C_40
   14  A    between atoms: C_34  and  C_38
   15  A    between atoms: N_35  and  C_37
                            x       y       z     vdW  Elec       q    Type
                         _______ _______ _______ _____ _____    ______ ____

>  <TORSDO>
F 15

$$$$
