=
 OpenBabel10232408383D

 28 31  0  0  1  0  0  0  0  0999 V2000
  190.4910  176.9950  145.8770 C   0  0  0  0  0  0  0  0  0  0  0  0
  186.1430  178.1040  144.8950 N   0  0  0  0  0  0  0  0  0  0  0  0
  191.2640  176.8350  142.3590 C   0  0  0  0  0  3  0  0  0  0  0  0
  186.1610  178.4720  146.2830 C   0  0  0  0  0  0  0  0  0  0  0  0
  187.1040  177.9520  147.1870 O   0  0  0  0  0  0  0  0  0  0  0  0
  187.3080  177.5960  143.0700 C   0  0  0  0  0  0  0  0  0  0  0  0
  186.6170  178.6200  142.6870 N   0  0  0  0  0  0  0  0  0  0  0  0
  189.3660  177.9000  146.2890 C   0  0  0  0  0  2  0  0  0  0  0  0
  188.4390  177.0240  142.3400 C   0  0  2  0  0  3  0  0  0  0  0  0
  190.4460  176.1730  143.3970 C   0  0  0  0  0  0  0  0  0  0  0  0
  187.0270  177.2150  144.3610 O   0  0  0  0  0  0  0  0  0  0  0  0
  190.5300  176.5740  144.6390 C   0  0  0  0  0  0  0  0  0  0  0  0
  189.0780  175.7990  142.9350 C   0  0  0  0  0  2  0  0  0  0  0  0
  188.1890  177.0950  146.8360 C   0  0  0  0  0  2  0  0  0  0  0  0
  189.1770  177.8140  141.5410 C   0  0  0  0  0  2  0  0  0  0  0  0
  190.6410  177.5850  141.4320 C   0  0  0  0  0  3  0  0  0  0  0  0
  185.3120  179.2990  146.7080 O   0  0  0  0  0  0  0  0  0  0  0  0
  185.7660  179.0180  143.8180 C   0  0  1  0  0  3  0  0  0  0  0  0
  182.6070  178.5070  141.7900 C   0  0  0  0  0  3  0  0  0  0  0  0
  183.3240  178.9250  144.4600 C   0  0  0  0  0  3  0  0  0  0  0  0
  181.6200  178.5710  142.7780 C   0  0  0  0  0  0  0  0  0  0  0  0
  181.9780  178.7800  144.1120 C   0  0  0  0  0  3  0  0  0  0  0  0
  184.3180  178.8610  143.4720 C   0  0  0  0  0  0  0  0  0  0  0  0
  180.3160  178.4300  142.4410 F   0  0  0  0  0  0  0  0  0  0  0  0
  183.9540  178.6510  142.1370 C   0  0  0  0  0  3  0  0  0  0  0  0
  191.4810  176.5250  146.8590 C   0  0  0  0  0  0  0  0  0  0  0  0
  191.6580  177.1590  147.9340 O   0  0  0  0  0  1  0  0  0  0  0  0
  192.2360  175.3840  146.6110 O   0  0  0  0  0  0  0  0  0  0  0  0
  1  8  1  0  0  0  0
  1 26  1  0  0  0  0
  2  4  1  0  0  0  0
  3 10  1  0  0  0  0
  4 17  2  0  0  0  0
  4  5  1  0  0  0  0
  6 11  1  0  0  0  0
  7  6  2  0  0  0  0
  7 18  1  0  0  0  0
  8 14  1  0  0  0  0
  9 15  1  1  0  0  0
  9 13  1  0  0  0  0
  9  6  1  0  0  0  0
 10 12  2  0  0  0  0
 11  2  1  0  0  0  0
 12  1  2  0  0  0  0
 13 10  1  0  0  0  0
 14  5  1  0  0  0  0
 16 15  1  0  0  0  0
 16  3  2  0  0  0  0
 18 23  1  6  0  0  0
 18  2  1  0  0  0  0
 19 25  2  0  0  0  0
 19 21  1  0  0  0  0
 21 22  2  0  0  0  0
 22 20  1  0  0  0  0
 23 20  2  0  0  0  0
 24 21  1  0  0  0  0
 25 23  1  0  0  0  0
 26 27  1  0  0  0  0
 28 26  2  0  0  0  0
M  END
>  <MODEL>
1

>  <REMARK>
 VINA RESULT:     -10.6      0.000      0.000
  Name = 
  2 active torsions:
  status: ('A' for Active; 'I' for Inactive)
    1  A    between atoms: C_1  and  C_20
    2  A    between atoms: C_24  and  C_26
                            x       y       z     vdW  Elec       q    Type
                         _______ _______ _______ _____ _____    ______ ____

>  <TORSDO>
F 2

$$$$
=
 OpenBabel10232408383D

 28 31  0  0  1  0  0  0  0  0999 V2000
  188.0000  178.0220  146.6950 C   0  0  0  0  0  0  0  0  0  0  0  0
  184.9930  178.3960  143.2420 N   0  0  0  0  0  0  0  0  0  0  0  0
  190.6950  177.6360  144.3310 C   0  0  0  0  0  3  0  0  0  0  0  0
  184.1720  178.8950  144.3100 C   0  0  0  0  0  0  0  0  0  0  0  0
  184.4360  178.6050  145.6600 O   0  0  0  0  0  0  0  0  0  0  0  0
  187.0340  177.8870  142.5220 C   0  0  0  0  0  0  0  0  0  0  0  0
  186.6380  178.7600  141.6530 N   0  0  0  0  0  0  0  0  0  0  0  0
  186.7940  178.7920  146.2380 C   0  0  0  0  0  2  0  0  0  0  0  0
  188.4100  177.4150  142.6720 C   0  0  2  0  0  3  0  0  0  0  0  0
  189.4650  176.9670  144.8070 C   0  0  0  0  0  0  0  0  0  0  0  0
  186.0750  177.5960  143.4610 O   0  0  0  0  0  0  0  0  0  0  0  0
  188.7810  177.4940  145.7890 C   0  0  0  0  0  0  0  0  0  0  0  0
  188.6520  176.3580  143.7150 C   0  0  0  0  0  2  0  0  0  0  0  0
  185.5710  177.8830  146.1370 C   0  0  0  0  0  2  0  0  0  0  0  0
  189.4270  178.2230  142.3220 C   0  0  0  0  0  2  0  0  0  0  0  0
  190.6890  178.1960  143.1080 C   0  0  0  0  0  3  0  0  0  0  0  0
  183.1870  179.6290  144.0340 O   0  0  0  0  0  0  0  0  0  0  0  0
  185.2650  179.1380  142.0120 C   0  0  1  0  0  3  0  0  0  0  0  0
  183.3790  179.1380  138.7260 C   0  0  0  0  0  3  0  0  0  0  0  0
  183.4430  177.6490  141.0920 C   0  0  0  0  0  3  0  0  0  0  0  0
  182.5220  178.0460  138.8890 C   0  0  0  0  0  0  0  0  0  0  0  0
  182.5540  177.3020  140.0710 C   0  0  0  0  0  3  0  0  0  0  0  0
  184.3060  178.7430  140.9330 C   0  0  0  0  0  0  0  0  0  0  0  0
  181.6600  177.7100  137.8990 F   0  0  0  0  0  0  0  0  0  0  0  0
  184.2700  179.4860  139.7470 C   0  0  0  0  0  3  0  0  0  0  0  0
  188.2530  177.7960  148.1270 C   0  0  0  0  0  0  0  0  0  0  0  0
  187.5080  177.0250  148.7890 O   0  0  0  0  0  1  0  0  0  0  0  0
  189.3110  178.4340  148.7660 O   0  0  0  0  0  0  0  0  0  0  0  0
  1 26  1  0  0  0  0
  2 11  1  0  0  0  0
  2  4  1  0  0  0  0
  3 10  1  0  0  0  0
  4  5  1  0  0  0  0
  5 14  1  0  0  0  0
  6  9  1  0  0  0  0
  6 11  1  0  0  0  0
  7 18  1  0  0  0  0
  7  6  2  0  0  0  0
  8  1  1  0  0  0  0
  9 15  1  1  0  0  0
  9 13  1  0  0  0  0
 10 12  2  0  0  0  0
 12  1  2  0  0  0  0
 13 10  1  0  0  0  0
 14  8  1  0  0  0  0
 15 16  1  0  0  0  0
 16  3  2  0  0  0  0
 17  4  2  0  0  0  0
 18 23  1  6  0  0  0
 18  2  1  0  0  0  0
 19 21  2  0  0  0  0
 19 25  1  0  0  0  0
 21 22  1  0  0  0  0
 22 20  2  0  0  0  0
 23 20  1  0  0  0  0
 24 21  1  0  0  0  0
 25 23  2  0  0  0  0
 26 28  2  0  0  0  0
 26 27  1  0  0  0  0
M  END
>  <MODEL>
2

>  <REMARK>
 VINA RESULT:      -9.8      1.991      2.876
  Name = 
  2 active torsions:
  status: ('A' for Active; 'I' for Inactive)
    1  A    between atoms: C_1  and  C_20
    2  A    between atoms: C_24  and  C_26
                            x       y       z     vdW  Elec       q    Type
                         _______ _______ _______ _____ _____    ______ ____

>  <TORSDO>
F 2

$$$$
=
 OpenBabel10232408383D

 28 31  0  0  1  0  0  0  0  0999 V2000
  185.6070  178.6460  144.8690 C   0  0  0  0  0  0  0  0  0  0  0  0
  186.6760  178.2310  140.4210 N   0  0  0  0  0  0  0  0  0  0  0  0
  189.0140  177.8950  145.7780 C   0  0  0  0  0  3  0  0  0  0  0  0
  185.4140  178.9020  140.2870 C   0  0  0  0  0  0  0  0  0  0  0  0
  184.4450  178.8920  141.3060 O   0  0  0  0  0  0  0  0  0  0  0  0
  188.3700  177.6600  141.7450 C   0  0  0  0  0  0  0  0  0  0  0  0
  188.9570  178.3300  140.8080 N   0  0  0  0  0  0  0  0  0  0  0  0
  185.3800  179.2690  143.5220 C   0  0  0  0  0  2  0  0  0  0  0  0
  188.9830  177.2740  143.0150 C   0  0  2  0  0  3  0  0  0  0  0  0
  187.8240  177.2910  145.1420 C   0  0  0  0  0  0  0  0  0  0  0  0
  187.0170  177.5270  141.5370 O   0  0  0  0  0  0  0  0  0  0  0  0
  186.7130  177.9770  145.0670 C   0  0  0  0  0  0  0  0  0  0  0  0
  188.1410  176.4510  143.9510 C   0  0  0  0  0  2  0  0  0  0  0  0
  184.6220  178.3170  142.6000 C   0  0  0  0  0  2  0  0  0  0  0  0
  189.9690  178.0320  143.5290 C   0  0  0  0  0  2  0  0  0  0  0  0
  190.0700  178.2030  145.0020 C   0  0  0  0  0  3  0  0  0  0  0  0
  185.1640  179.5320  139.2270 O   0  0  0  0  0  0  0  0  0  0  0  0
  187.9230  178.7250  139.8410 C   0  0  1  0  0  3  0  0  0  0  0  0
  189.1390  178.2340  136.2870 C   0  0  0  0  0  3  0  0  0  0  0  0
  187.6970  176.8080  138.2110 C   0  0  0  0  0  3  0  0  0  0  0  0
  188.6620  176.9540  135.9960 C   0  0  0  0  0  0  0  0  0  0  0  0
  187.9410  176.2400  136.9570 C   0  0  0  0  0  3  0  0  0  0  0  0
  188.1750  178.0930  138.5080 C   0  0  0  0  0  0  0  0  0  0  0  0
  188.8990  176.4040  134.7810 F   0  0  0  0  0  0  0  0  0  0  0  0
  188.8960  178.8030  137.5410 C   0  0  0  0  0  3  0  0  0  0  0  0
  184.5760  178.7150  145.9170 C   0  0  0  0  0  0  0  0  0  0  0  0
  184.8560  178.3980  147.1040 O   0  0  0  0  0  1  0  0  0  0  0  0
  183.2830  179.1240  145.6090 O   0  0  0  0  0  0  0  0  0  0  0  0
  1 12  2  0  0  0  0
  1 26  1  0  0  0  0
  2 11  1  0  0  0  0
  4  2  1  0  0  0  0
  4  5  1  0  0  0  0
  5 14  1  0  0  0  0
  6  9  1  0  0  0  0
  7  6  2  0  0  0  0
  8  1  1  0  0  0  0
  9 15  1  1  0  0  0
  9 13  1  0  0  0  0
 10  3  1  0  0  0  0
 11  6  1  0  0  0  0
 12 10  2  0  0  0  0
 13 10  1  0  0  0  0
 14  8  1  0  0  0  0
 15 16  1  0  0  0  0
 16  3  2  0  0  0  0
 17  4  2  0  0  0  0
 18 23  1  6  0  0  0
 18  2  1  0  0  0  0
 18  7  1  0  0  0  0
 19 25  1  0  0  0  0
 20 23  1  0  0  0  0
 21 19  2  0  0  0  0
 21 22  1  0  0  0  0
 22 20  2  0  0  0  0
 24 21  1  0  0  0  0
 25 23  2  0  0  0  0
 26 27  1  0  0  0  0
 28 26  2  0  0  0  0
M  END
>  <MODEL>
3

>  <REMARK>
 VINA RESULT:      -9.7      3.668      6.252
  Name = 
  2 active torsions:
  status: ('A' for Active; 'I' for Inactive)
    1  A    between atoms: C_1  and  C_20
    2  A    between atoms: C_24  and  C_26
                            x       y       z     vdW  Elec       q    Type
                         _______ _______ _______ _____ _____    ______ ____

>  <TORSDO>
F 2

$$$$
=
 OpenBabel10232408383D

 28 31  0  0  1  0  0  0  0  0999 V2000
  185.7830  178.7720  142.8760 C   0  0  0  0  0  0  0  0  0  0  0  0
  189.0360  177.4670  139.9070 N   0  0  0  0  0  0  0  0  0  0  0  0
  187.8460  177.7040  145.6330 C   0  0  0  0  0  3  0  0  0  0  0  0
  188.2430  178.2800  139.0280 C   0  0  0  0  0  0  0  0  0  0  0  0
  186.8950  178.5800  139.2930 O   0  0  0  0  0  0  0  0  0  0  0  0
  189.5310  176.8900  141.9960 C   0  0  0  0  0  0  0  0  0  0  0  0
  190.6690  177.3020  141.5400 N   0  0  0  0  0  0  0  0  0  0  0  0
  186.4870  179.1860  141.6160 C   0  0  0  0  0  2  0  0  0  0  0  0
  189.2310  176.6390  143.4050 C   0  0  2  0  0  3  0  0  0  0  0  0
  187.1180  177.1790  144.4590 C   0  0  0  0  0  0  0  0  0  0  0  0
  188.5350  176.9190  141.0500 O   0  0  0  0  0  0  0  0  0  0  0  0
  186.4160  177.9950  143.7160 C   0  0  0  0  0  0  0  0  0  0  0  0
  187.8570  176.1140  143.7210 C   0  0  0  0  0  2  0  0  0  0  0  0
  186.1910  178.2110  140.4790 C   0  0  0  0  0  2  0  0  0  0  0  0
  189.8960  177.3230  144.3530 C   0  0  0  0  0  2  0  0  0  0  0  0
  189.1910  177.7230  145.5990 C   0  0  0  0  0  3  0  0  0  0  0  0
  188.7700  178.7520  137.9870 O   0  0  0  0  0  0  0  0  0  0  0  0
  190.4650  177.6730  140.1330 C   0  0  1  0  0  3  0  0  0  0  0  0
  193.4370  176.1880  138.3110 C   0  0  0  0  0  3  0  0  0  0  0  0
  190.6740  175.7880  138.4620 C   0  0  0  0  0  3  0  0  0  0  0  0
  192.8330  175.1850  137.5480 C   0  0  0  0  0  0  0  0  0  0  0  0
  191.4510  174.9850  137.6240 C   0  0  0  0  0  3  0  0  0  0  0  0
  191.2760  176.7960  139.2300 C   0  0  0  0  0  0  0  0  0  0  0  0
  193.5870  174.4070  136.7360 F   0  0  0  0  0  0  0  0  0  0  0  0
  192.6600  176.9920  139.1510 C   0  0  0  0  0  3  0  0  0  0  0  0
  184.3870  179.1640  143.1240 C   0  0  0  0  0  0  0  0  0  0  0  0
  184.1010  179.9130  144.0960 O   0  0  0  0  0  1  0  0  0  0  0  0
  183.3670  178.7080  142.2950 O   0  0  0  0  0  0  0  0  0  0  0  0
  1 26  1  0  0  0  0
  1 12  2  0  0  0  0
  2 18  1  0  0  0  0
  2 11  1  0  0  0  0
  4  5  1  0  0  0  0
  4  2  1  0  0  0  0
  5 14  1  0  0  0  0
  6  9  1  0  0  0  0
  7  6  2  0  0  0  0
  8  1  1  0  0  0  0
  9 13  1  6  0  0  0
  9 15  1  0  0  0  0
 10  3  1  0  0  0  0
 11  6  1  0  0  0  0
 12 10  2  0  0  0  0
 13 10  1  0  0  0  0
 14  8  1  0  0  0  0
 15 16  1  0  0  0  0
 16  3  2  0  0  0  0
 17  4  2  0  0  0  0
 18 23  1  6  0  0  0
 18  7  1  0  0  0  0
 19 25  1  0  0  0  0
 20 23  1  0  0  0  0
 21 22  1  0  0  0  0
 21 19  2  0  0  0  0
 22 20  2  0  0  0  0
 24 21  1  0  0  0  0
 25 23  2  0  0  0  0
 26 27  1  0  0  0  0
 28 26  2  0  0  0  0
M  END
>  <MODEL>
4

>  <REMARK>
 VINA RESULT:      -9.3      4.244      7.806
  Name = 
  2 active torsions:
  status: ('A' for Active; 'I' for Inactive)
    1  A    between atoms: C_1  and  C_20
    2  A    between atoms: C_24  and  C_26
                            x       y       z     vdW  Elec       q    Type
                         _______ _______ _______ _____ _____    ______ ____

>  <TORSDO>
F 2

$$$$
=
 OpenBabel10232408383D

 28 31  0  0  1  0  0  0  0  0999 V2000
  186.4510  178.7420  140.8800 C   0  0  0  0  0  0  0  0  0  0  0  0
  189.7510  177.4820  143.8160 N   0  0  0  0  0  0  0  0  0  0  0  0
  184.1930  179.3130  143.6330 C   0  0  0  0  0  3  0  0  0  0  0  0
  190.5570  177.6840  142.6460 C   0  0  0  0  0  0  0  0  0  0  0  0
  190.0170  177.6620  141.3470 O   0  0  0  0  0  0  0  0  0  0  0  0
  187.8060  177.8190  144.8400 C   0  0  0  0  0  0  0  0  0  0  0  0
  188.6520  178.3550  145.6580 N   0  0  0  0  0  0  0  0  0  0  0  0
  187.9200  178.8830  141.1600 C   0  0  0  0  0  2  0  0  0  0  0  0
  186.3540  177.9910  144.8980 C   0  0  2  0  0  3  0  0  0  0  0  0
  184.9370  178.2350  142.9490 C   0  0  0  0  0  0  0  0  0  0  0  0
  188.4110  177.2390  143.7510 O   0  0  0  0  0  0  0  0  0  0  0  0
  185.6450  178.5120  141.8840 C   0  0  0  0  0  0  0  0  0  0  0  0
  185.5430  177.2380  143.8790 C   0  0  0  0  0  2  0  0  0  0  0  0
  188.6300  177.5360  141.0390 C   0  0  0  0  0  2  0  0  0  0  0  0
  185.8440  179.1160  145.4290 C   0  0  0  0  0  2  0  0  0  0  0  0
  184.6030  179.7000  144.8550 C   0  0  0  0  0  3  0  0  0  0  0  0
  191.7890  177.9020  142.7800 O   0  0  0  0  0  0  0  0  0  0  0  0
  189.9930  178.1490  145.0940 C   0  0  1  0  0  3  0  0  0  0  0  0
  191.6190  176.7720  148.2260 C   0  0  0  0  0  3  0  0  0  0  0  0
  191.5640  176.2100  145.4880 C   0  0  0  0  0  3  0  0  0  0  0  0
  192.3600  175.7020  147.7170 C   0  0  0  0  0  0  0  0  0  0  0  0
  192.3320  175.4200  146.3480 C   0  0  0  0  0  3  0  0  0  0  0  0
  190.8200  177.2850  145.9950 C   0  0  0  0  0  0  0  0  0  0  0  0
  193.1030  174.9360  148.5510 F   0  0  0  0  0  0  0  0  0  0  0  0
  190.8510  177.5620  147.3660 C   0  0  0  0  0  3  0  0  0  0  0  0
  185.9370  178.7820  139.5020 C   0  0  0  0  0  0  0  0  0  0  0  0
  184.8560  179.3740  139.2440 O   0  0  0  0  0  1  0  0  0  0  0  0
  186.6350  178.1620  138.4710 O   0  0  0  0  0  0  0  0  0  0  0  0
  1  8  1  0  0  0  0
  1 12  2  0  0  0  0
  2 18  1  0  0  0  0
  3 16  2  0  0  0  0
  4 17  2  0  0  0  0
  4  2  1  0  0  0  0
  5  4  1  0  0  0  0
  6  9  1  0  0  0  0
  6  7  2  0  0  0  0
  9 13  1  6  0  0  0
  9 15  1  0  0  0  0
 10  3  1  0  0  0  0
 10 13  1  0  0  0  0
 11  2  1  0  0  0  0
 11  6  1  0  0  0  0
 12 10  2  0  0  0  0
 14  8  1  0  0  0  0
 14  5  1  0  0  0  0
 16 15  1  0  0  0  0
 18  7  1  0  0  0  0
 18 23  1  1  0  0  0
 20 23  2  0  0  0  0
 20 22  1  0  0  0  0
 21 19  1  0  0  0  0
 21 24  1  0  0  0  0
 22 21  2  0  0  0  0
 23 25  1  0  0  0  0
 25 19  2  0  0  0  0
 26  1  1  0  0  0  0
 27 26  1  0  0  0  0
 28 26  2  0  0  0  0
M  END
>  <MODEL>
5

>  <REMARK>
 VINA RESULT:      -8.3      3.764      7.718
  Name = 
  2 active torsions:
  status: ('A' for Active; 'I' for Inactive)
    1  A    between atoms: C_1  and  C_20
    2  A    between atoms: C_24  and  C_26
                            x       y       z     vdW  Elec       q    Type
                         _______ _______ _______ _____ _____    ______ ____

>  <TORSDO>
F 2

$$$$
=
 OpenBabel10232408383D

 28 31  0  0  1  0  0  0  0  0999 V2000
  185.3030  178.6000  139.5410 C   0  0  0  0  0  0  0  0  0  0  0  0
  187.5770  177.7360  143.4380 N   0  0  0  0  0  0  0  0  0  0  0  0
  188.0620  177.2970  137.6200 C   0  0  0  0  0  3  0  0  0  0  0  0
  186.2630  177.9320  143.9830 C   0  0  0  0  0  0  0  0  0  0  0  0
  185.2620  178.6420  143.2970 O   0  0  0  0  0  0  0  0  0  0  0  0
  188.8280  177.3560  141.6390 C   0  0  0  0  0  0  0  0  0  0  0  0
  189.1230  176.3560  142.4040 N   0  0  0  0  0  0  0  0  0  0  0  0
  185.1280  178.0680  140.9350 C   0  0  0  0  0  2  0  0  0  0  0  0
  189.1710  177.4600  140.2210 C   0  0  2  0  0  3  0  0  0  0  0  0
  187.7070  178.4010  138.5360 C   0  0  0  0  0  0  0  0  0  0  0  0
  187.9500  178.2360  142.2260 O   0  0  0  0  0  0  0  0  0  0  0  0
  186.4810  178.5030  138.9810 C   0  0  0  0  0  0  0  0  0  0  0  0
  188.7760  178.7320  139.5210 C   0  0  0  0  0  2  0  0  0  0  0  0
  185.3860  179.1590  141.9720 C   0  0  0  0  0  2  0  0  0  0  0  0
  189.3140  176.3390  139.4920 C   0  0  0  0  0  2  0  0  0  0  0  0
  188.8810  176.3290  138.0700 C   0  0  0  0  0  3  0  0  0  0  0  0
  185.9890  177.4440  145.1100 O   0  0  0  0  0  0  0  0  0  0  0  0
  188.3750  176.5310  143.6570 C   0  0  1  0  0  3  0  0  0  0  0  0
  191.5760  176.6950  145.6770 C   0  0  0  0  0  3  0  0  0  0  0  0
  188.8350  177.0700  146.0820 C   0  0  0  0  0  3  0  0  0  0  0  0
  191.0970  177.0460  146.9420 C   0  0  0  0  0  0  0  0  0  0  0  0
  189.7270  177.2340  147.1450 C   0  0  0  0  0  3  0  0  0  0  0  0
  189.3110  176.7170  144.8110 C   0  0  0  0  0  0  0  0  0  0  0  0
  191.9630  177.2060  147.9720 F   0  0  0  0  0  0  0  0  0  0  0  0
  190.6830  176.5310  144.6130 C   0  0  0  0  0  3  0  0  0  0  0  0
  184.2000  179.2880  138.8520 C   0  0  0  0  0  0  0  0  0  0  0  0
  183.3200  178.6220  138.2430 O   0  0  0  0  0  0  0  0  0  0  0  0
  184.1190  180.6760  138.8590 O   0  0  0  0  0  1  0  0  0  0  0  0
  1  8  1  0  0  0  0
  2 18  1  0  0  0  0
  2  4  1  0  0  0  0
  3 16  2  0  0  0  0
  3 10  1  0  0  0  0
  4 17  2  0  0  0  0
  5  4  1  0  0  0  0
  6 11  1  0  0  0  0
  6  7  2  0  0  0  0
  7 18  1  0  0  0  0
  8 14  1  0  0  0  0
  9 15  1  6  0  0  0
  9  6  1  0  0  0  0
 10 12  2  0  0  0  0
 10 13  1  0  0  0  0
 11  2  1  0  0  0  0
 12  1  2  0  0  0  0
 13  9  1  0  0  0  0
 14  5  1  0  0  0  0
 16 15  1  0  0  0  0
 18 23  1  1  0  0  0
 19 21  1  0  0  0  0
 20 22  1  0  0  0  0
 21 22  2  0  0  0  0
 21 24  1  0  0  0  0
 23 20  2  0  0  0  0
 25 23  1  0  0  0  0
 25 19  2  0  0  0  0
 26 28  1  0  0  0  0
 26  1  1  0  0  0  0
 27 26  2  0  0  0  0
M  END
>  <MODEL>
6

>  <REMARK>
 VINA RESULT:      -8.3      3.801      7.090
  Name = 
  2 active torsions:
  status: ('A' for Active; 'I' for Inactive)
    1  A    between atoms: C_1  and  C_20
    2  A    between atoms: C_24  and  C_26
                            x       y       z     vdW  Elec       q    Type
                         _______ _______ _______ _____ _____    ______ ____

>  <TORSDO>
F 2

$$$$
=
 OpenBabel10232408383D

 28 31  0  0  1  0  0  0  0  0999 V2000
  186.1540  178.1370  145.4380 C   0  0  0  0  0  0  0  0  0  0  0  0
  189.5770  177.2150  142.5160 N   0  0  0  0  0  0  0  0  0  0  0  0
  183.9990  178.9870  142.6750 C   0  0  0  0  0  3  0  0  0  0  0  0
  190.1080  176.5820  143.6910 C   0  0  0  0  0  0  0  0  0  0  0  0
  189.6790  176.9210  144.9870 O   0  0  0  0  0  0  0  0  0  0  0  0
  187.8060  178.0770  141.4840 C   0  0  0  0  0  0  0  0  0  0  0  0
  188.1800  177.1440  140.6700 N   0  0  0  0  0  0  0  0  0  0  0  0
  187.2630  177.1620  145.1660 C   0  0  0  0  0  2  0  0  0  0  0  0
  186.5290  178.7880  141.4190 C   0  0  2  0  0  3  0  0  0  0  0  0
  185.2320  179.4270  143.3620 C   0  0  0  0  0  0  0  0  0  0  0  0
  188.6330  178.1970  142.5750 O   0  0  0  0  0  0  0  0  0  0  0  0
  185.6390  178.7920  144.4300 C   0  0  0  0  0  0  0  0  0  0  0  0
  186.3090  179.8770  142.4340 C   0  0  0  0  0  2  0  0  0  0  0  0
  188.6270  177.8370  145.2890 C   0  0  0  0  0  2  0  0  0  0  0  0
  185.4580  178.1730  140.8870 C   0  0  0  0  0  2  0  0  0  0  0  0
  184.1090  178.4290  141.4560 C   0  0  0  0  0  3  0  0  0  0  0  0
  190.9790  175.6840  143.5620 O   0  0  0  0  0  0  0  0  0  0  0  0
  189.3860  176.5280  141.2410 C   0  0  1  0  0  3  0  0  0  0  0  0
  191.5730  176.5280  138.1470 C   0  0  0  0  0  3  0  0  0  0  0  0
  191.7470  177.3230  140.8220 C   0  0  0  0  0  3  0  0  0  0  0  0
  192.7490  177.1100  138.6280 C   0  0  0  0  0  0  0  0  0  0  0  0
  192.8360  177.5070  139.9650 C   0  0  0  0  0  3  0  0  0  0  0  0
  190.5650  176.7400  140.3430 C   0  0  0  0  0  0  0  0  0  0  0  0
  193.8040  177.2880  137.7980 F   0  0  0  0  0  0  0  0  0  0  0  0
  190.4830  176.3440  139.0030 C   0  0  0  0  0  3  0  0  0  0  0  0
  185.7110  178.4110  146.8140 C   0  0  0  0  0  0  0  0  0  0  0  0
  184.4820  178.4130  147.0960 O   0  0  0  0  0  0  0  0  0  0  0  0
  186.6390  178.6740  147.8160 O   0  0  0  0  0  1  0  0  0  0  0  0
  1 26  1  0  0  0  0
  2 11  1  0  0  0  0
  2  4  1  0  0  0  0
  3 10  1  0  0  0  0
  4  5  1  0  0  0  0
  5 14  1  0  0  0  0
  6 11  1  0  0  0  0
  7 18  1  0  0  0  0
  7  6  2  0  0  0  0
  8 14  1  0  0  0  0
  8  1  1  0  0  0  0
  9 15  1  1  0  0  0
  9  6  1  0  0  0  0
  9 13  1  0  0  0  0
 10 12  2  0  0  0  0
 12  1  2  0  0  0  0
 13 10  1  0  0  0  0
 15 16  1  0  0  0  0
 16  3  2  0  0  0  0
 17  4  2  0  0  0  0
 18 23  1  6  0  0  0
 18  2  1  0  0  0  0
 19 21  2  0  0  0  0
 19 25  1  0  0  0  0
 21 22  1  0  0  0  0
 22 20  2  0  0  0  0
 23 20  1  0  0  0  0
 24 21  1  0  0  0  0
 25 23  2  0  0  0  0
 26 27  2  0  0  0  0
 26 28  1  0  0  0  0
M  END
>  <MODEL>
7

>  <REMARK>
 VINA RESULT:      -7.7      3.388      6.851
  Name = 
  2 active torsions:
  status: ('A' for Active; 'I' for Inactive)
    1  A    between atoms: C_1  and  C_20
    2  A    between atoms: C_24  and  C_26
                            x       y       z     vdW  Elec       q    Type
                         _______ _______ _______ _____ _____    ______ ____

>  <TORSDO>
F 2

$$$$
=
 OpenBabel10232408383D

 28 31  0  0  1  0  0  0  0  0999 V2000
  191.7420  176.5380  138.0290 C   0  0  0  0  0  0  0  0  0  0  0  0
  188.6610  177.6800  141.2390 N   0  0  0  0  0  0  0  0  0  0  0  0
  189.3060  177.1590  135.4440 C   0  0  0  0  0  3  0  0  0  0  0  0
  189.8520  177.7440  142.0380 C   0  0  0  0  0  0  0  0  0  0  0  0
  191.0360  177.0760  141.6790 O   0  0  0  0  0  0  0  0  0  0  0  0
  187.7630  177.6130  139.2050 C   0  0  0  0  0  0  0  0  0  0  0  0
  187.2220  178.6700  139.7180 N   0  0  0  0  0  0  0  0  0  0  0  0
  191.5810  177.2950  139.3170 C   0  0  0  0  0  2  0  0  0  0  0  0
  187.7220  177.2490  137.7890 C   0  0  2  0  0  3  0  0  0  0  0  0
  189.5800  176.2630  136.5880 C   0  0  0  0  0  0  0  0  0  0  0  0
  188.5890  176.9560  140.0860 O   0  0  0  0  0  0  0  0  0  0  0  0
  190.6960  176.3930  137.2580 C   0  0  0  0  0  0  0  0  0  0  0  0
  188.3740  175.9490  137.4070 C   0  0  0  0  0  2  0  0  0  0  0  0
  191.2320  176.3520  140.4650 C   0  0  0  0  0  2  0  0  0  0  0  0
  187.6170  178.2170  136.8620 C   0  0  0  0  0  2  0  0  0  0  0  0
  188.3210  178.0670  135.5620 C   0  0  0  0  0  3  0  0  0  0  0  0
  189.8460  178.4310  143.0930 O   0  0  0  0  0  0  0  0  0  0  0  0
  187.7190  178.7880  141.0960 C   0  0  1  0  0  3  0  0  0  0  0  0
  184.2700  179.0580  142.6420 C   0  0  0  0  0  3  0  0  0  0  0  0
  186.7860  178.0470  143.3240 C   0  0  0  0  0  3  0  0  0  0  0  0
  184.4650  178.4470  143.8840 C   0  0  0  0  0  0  0  0  0  0  0  0
  185.7230  177.9420  144.2250 C   0  0  0  0  0  3  0  0  0  0  0  0
  186.5950  178.6590  142.0770 C   0  0  0  0  0  0  0  0  0  0  0  0
  183.4340  178.3450  144.7560 F   0  0  0  0  0  0  0  0  0  0  0  0
  185.3340  179.1630  141.7400 C   0  0  0  0  0  3  0  0  0  0  0  0
  193.0240  175.9050  137.6810 C   0  0  0  0  0  0  0  0  0  0  0  0
  194.0080  176.6130  137.3380 O   0  0  0  0  0  0  0  0  0  0  0  0
  193.1620  174.5220  137.7210 O   0  0  0  0  0  1  0  0  0  0  0  0
  1  8  1  0  0  0  0
  2  4  1  0  0  0  0
  3 16  2  0  0  0  0
  3 10  1  0  0  0  0
  4 17  2  0  0  0  0
  5  4  1  0  0  0  0
  6  7  2  0  0  0  0
  6 11  1  0  0  0  0
  7 18  1  0  0  0  0
  8 14  1  0  0  0  0
  9 15  1  6  0  0  0
  9  6  1  0  0  0  0
 10 12  2  0  0  0  0
 10 13  1  0  0  0  0
 11  2  1  0  0  0  0
 12  1  2  0  0  0  0
 13  9  1  0  0  0  0
 14  5  1  0  0  0  0
 16 15  1  0  0  0  0
 18  2  1  0  0  0  0
 18 23  1  1  0  0  0
 19 21  1  0  0  0  0
 20 22  1  0  0  0  0
 21 22  2  0  0  0  0
 21 24  1  0  0  0  0
 23 20  2  0  0  0  0
 25 23  1  0  0  0  0
 25 19  2  0  0  0  0
 26 28  1  0  0  0  0
 26  1  1  0  0  0  0
 27 26  2  0  0  0  0
M  END
>  <MODEL>
8

>  <REMARK>
 VINA RESULT:      -7.7      4.239      5.915
  Name = 
  2 active torsions:
  status: ('A' for Active; 'I' for Inactive)
    1  A    between atoms: C_1  and  C_20
    2  A    between atoms: C_24  and  C_26
                            x       y       z     vdW  Elec       q    Type
                         _______ _______ _______ _____ _____    ______ ____

>  <TORSDO>
F 2

$$$$
