=
 OpenBabel10232412273D

 55 61  0  0  1  0  0  0  0  0999 V2000
  189.7440  177.2780  140.2370 C   0  0  0  0  0  3  0  0  0  0  0  0
  187.0140  177.7780  143.4100 C   0  0  0  0  0  0  0  0  0  0  0  0
  189.2030  177.1450  142.5800 N   0  0  0  0  0  0  0  0  0  0  0  0
  187.5450  177.9920  141.0110 C   0  0  0  0  0  0  0  0  0  0  0  0
  184.4120  178.7520  142.9110 C   0  0  0  0  0  3  0  0  0  0  0  0
  188.3280  177.2970  143.6250 C   0  0  0  0  0  0  0  0  0  0  0  0
  186.6260  178.1320  142.0870 C   0  0  0  0  0  0  0  0  0  0  0  0
  189.4260  177.6010  138.9280 C   0  0  0  0  0  0  0  0  0  0  0  0
  187.2270  178.3390  139.6610 C   0  0  0  0  0  0  0  0  0  0  0  0
  188.7150  177.0170  144.7950 O   0  0  0  0  0  0  0  0  0  0  0  0
  188.1710  178.1330  138.6470 C   0  0  0  0  0  3  0  0  0  0  0  0
  188.8380  177.4730  141.2950 C   0  0  0  0  0  0  0  0  0  0  0  0
  186.3490  177.5900  145.8960 C   0  0  0  0  0  1  0  0  0  0  0  0
  190.5480  176.6780  142.8520 C   0  0  0  0  0  0  0  0  0  0  0  0
  191.5370  177.3680  142.4780 O   0  0  0  0  0  0  0  0  0  0  0  0
  186.0650  177.9300  144.4690 C   0  0  0  0  0  0  0  0  0  0  0  0
  184.7850  178.4120  144.2030 C   0  0  0  0  0  3  0  0  0  0  0  0
  185.3220  178.6110  141.8710 C   0  0  0  0  0  3  0  0  0  0  0  0
  190.3870  177.3360  137.9000 N   0  0  0  0  0  2  0  0  0  0  0  0
  191.0730  176.0980  137.6810 C   0  0  0  0  0  0  0  0  0  0  0  0
  190.7130  175.0460  138.2710 O   0  0  0  0  0  0  0  0  0  0  0  0
  195.6990  175.0990  137.3510 O   0  0  0  0  0  0  0  0  0  0  0  0
  190.8620  174.8110  135.1920 O   0  0  0  0  0  0  0  0  0  0  0  0
  192.2170  176.0400  136.7180 C   0  0  1  0  0  3  0  0  0  0  0  0
  193.4630  175.7630  137.4390 N   0  0  0  0  0  2  0  0  0  0  0  0
  193.1520  174.2860  134.9900 C   0  0  0  0  0  2  0  0  0  0  0  0
  194.6090  175.2710  136.7420 C   0  0  0  0  0  0  0  0  0  0  0  0
  191.9910  175.0230  135.6190 C   0  0  0  0  0  0  0  0  0  0  0  0
  194.4980  174.9550  135.2830 C   0  0  0  0  0  2  0  0  0  0  0  0
  191.3360  175.5220  144.9830 C   0  0  2  0  0  3  0  0  0  0  0  0
  192.1790  175.2480  143.8860 O   0  0  0  0  0  0  0  0  0  0  0  0
  190.8080  175.3850  143.5840 C   0  0  2  0  0  3  0  0  0  0  0  0
  191.6130  176.9450  145.4670 C   0  0  0  0  0  2  0  0  0  0  0  0
  190.1550  177.1440  147.4510 C   0  0  0  0  0  1  0  0  0  0  0  0
  191.5900  177.0260  146.9830 C   0  0  0  0  0  3  0  0  0  0  0  0
  192.2030  175.7790  147.5860 C   0  0  0  0  0  1  0  0  0  0  0  0
  185.9830  178.8960  139.3310 O   0  0  0  0  0  0  0  0  0  0  0  0
  185.2200  178.4860  138.2010 C   0  0  0  0  0  2  0  0  0  0  0  0
  183.8380  178.0460  138.6410 C   0  0  0  0  0  2  0  0  0  0  0  0
  183.2470  177.0860  137.6230 C   0  0  0  0  0  2  0  0  0  0  0  0
  185.6950  173.1280  135.7000 N   0  0  0  0  0  0  0  0  0  0  0  0
  183.8960  175.7860  137.7420 N   0  0  0  0  0  2  0  0  0  0  0  0
  184.6270  175.1680  136.6790 C   0  0  0  0  0  0  0  0  0  0  0  0
  185.1390  173.2520  137.9800 O   0  0  0  0  0  0  0  0  0  0  0  0
  184.8200  175.7940  135.5500 N   0  0  0  0  0  0  0  0  0  0  0  0
  185.1560  173.8050  136.8510 C   0  0  0  0  0  0  0  0  0  0  0  0
  185.4720  173.7190  134.3830 C   0  0  0  0  0  2  0  0  0  0  0  0
  185.6400  175.2370  134.4660 C   0  0  0  0  0  2  0  0  0  0  0  0
  187.9180  172.1240  135.3240 C   0  0  0  0  0  2  0  0  0  0  0  0
  186.4750  171.8960  135.7970 C   0  0  0  0  0  3  0  0  0  0  0  0
  188.9240  168.2660  135.1680 Cl  0  0  0  0  0  0  0  0  0  0  0  0
  188.6340  170.8170  134.9600 C   0  0  0  0  0  2  0  0  0  0  0  0
  187.9750  169.6690  135.5790 N   0  0  0  0  0  0  0  0  0  0  0  0
  186.6710  169.4930  134.9400 C   0  0  0  0  0  2  0  0  0  0  0  0
  185.7830  170.7430  135.0580 C   0  0  0  0  0  2  0  0  0  0  0  0
  1 12  1  0  0  0  0
  2  6  1  0  0  0  0
  2 16  1  0  0  0  0
  3 14  1  0  0  0  0
  3  6  1  0  0  0  0
  4 12  2  0  0  0  0
  4  7  1  0  0  0  0
  5 17  1  0  0  0  0
  6 10  2  0  0  0  0
  7  2  2  0  0  0  0
  8  1  2  0  0  0  0
  9  4  1  0  0  0  0
 11  8  1  0  0  0  0
 11  9  2  0  0  0  0
 12  3  1  0  0  0  0
 15 14  2  0  0  0  0
 16 13  1  0  0  0  0
 17 16  2  0  0  0  0
 18  7  1  0  0  0  0
 18  5  2  0  0  0  0
 19  8  1  0  0  0  0
 20 19  1  0  0  0  0
 20 21  2  0  0  0  0
 23 28  2  0  0  0  0
 24 25  1  0  0  0  0
 24 20  1  1  0  0  0
 26 29  1  0  0  0  0
 26 28  1  0  0  0  0
 27 22  2  0  0  0  0
 27 25  1  0  0  0  0
 28 24  1  0  0  0  0
 29 27  1  0  0  0  0
 30 33  1  6  0  0  0
 31 30  1  0  0  0  0
 32 14  1  6  0  0  0
 32 31  1  0  0  0  0
 32 30  1  0  0  0  0
 33 35  1  0  0  0  0
 35 34  1  0  0  0  0
 35 36  1  0  0  0  0
 37  9  1  0  0  0  0
 38 39  1  0  0  0  0
 38 37  1  0  0  0  0
 40 42  1  0  0  0  0
 40 39  1  0  0  0  0
 41 50  1  0  0  0  0
 41 46  1  0  0  0  0
 43 46  1  0  0  0  0
 43 42  1  0  0  0  0
 45 43  2  0  0  0  0
 46 44  2  0  0  0  0
 47 48  1  0  0  0  0
 47 41  1  0  0  0  0
 48 45  1  0  0  0  0
 49 50  1  0  0  0  0
 51 53  1  0  0  0  0
 52 49  1  0  0  0  0
 52 53  1  0  0  0  0
 54 55  1  0  0  0  0
 54 53  1  0  0  0  0
 55 50  1  0  0  0  0
M  END
>  <MODEL>
1

>  <REMARK>
 VINA RESULT:      -9.7      0.000      0.000
  Name = 
  11 active torsions:
  status: ('A' for Active; 'I' for Inactive)
    1  A    between atoms: C_3  and  C_23
    2  A    between atoms: C_3  and  C_37
    3  A    between atoms: N_4  and  C_21
    4  A    between atoms: C_6  and  C_25
    5  A    between atoms: C_7  and  N_17
    6  A    between atoms: C_10  and  O_35
    7  A    between atoms: C_10  and  C_52
    8  A    between atoms: N_20  and  C_36
    9  A    between atoms: C_22  and  O_35
   10  A    between atoms: C_36  and  C_52
   11  A    between atoms: C_39  and  C_51
                            x       y       z     vdW  Elec       q    Type
                         _______ _______ _______ _____ _____    ______ ____

>  <TORSDO>
F 11

$$$$
=
 OpenBabel10232412273D

 55 61  0  0  1  0  0  0  0  0999 V2000
  189.7950  177.3350  140.3520 C   0  0  0  0  0  3  0  0  0  0  0  0
  187.0440  177.8000  143.5120 C   0  0  0  0  0  0  0  0  0  0  0  0
  189.2400  177.1800  142.6900 N   0  0  0  0  0  0  0  0  0  0  0  0
  187.5890  178.0350  141.1190 C   0  0  0  0  0  0  0  0  0  0  0  0
  184.4420  178.7700  143.0050 C   0  0  0  0  0  3  0  0  0  0  0  0
  188.3590  177.3210  143.7310 C   0  0  0  0  0  0  0  0  0  0  0  0
  186.6630  178.1630  142.1890 C   0  0  0  0  0  0  0  0  0  0  0  0
  189.4840  177.6670  139.0430 C   0  0  0  0  0  0  0  0  0  0  0  0
  187.2780  178.3930  139.7700 C   0  0  0  0  0  0  0  0  0  0  0  0
  188.7390  177.0320  144.9010 O   0  0  0  0  0  0  0  0  0  0  0  0
  188.2300  178.1980  138.7600 C   0  0  0  0  0  3  0  0  0  0  0  0
  188.8820  177.5180  141.4060 C   0  0  0  0  0  0  0  0  0  0  0  0
  186.3650  177.5890  145.9920 C   0  0  0  0  0  1  0  0  0  0  0  0
  190.5850  176.7160  142.9670 C   0  0  0  0  0  0  0  0  0  0  0  0
  191.5740  177.4110  142.6040 O   0  0  0  0  0  0  0  0  0  0  0  0
  186.0880  177.9390  144.5660 C   0  0  0  0  0  0  0  0  0  0  0  0
  184.8080  178.4200  144.2960 C   0  0  0  0  0  3  0  0  0  0  0  0
  185.3590  178.6410  141.9690 C   0  0  0  0  0  3  0  0  0  0  0  0
  190.4520  177.4150  138.0190 N   0  0  0  0  0  2  0  0  0  0  0  0
  191.1760  176.1940  137.8220 C   0  0  0  0  0  0  0  0  0  0  0  0
  190.8490  175.1430  138.4310 O   0  0  0  0  0  0  0  0  0  0  0  0
  195.7540  175.0110  137.4250 O   0  0  0  0  0  0  0  0  0  0  0  0
  190.9180  175.1050  135.2450 O   0  0  0  0  0  0  0  0  0  0  0  0
  192.3210  176.1550  136.8590 C   0  0  1  0  0  3  0  0  0  0  0  0
  193.5490  175.7690  137.5590 N   0  0  0  0  0  2  0  0  0  0  0  0
  193.1830  174.4910  135.0070 C   0  0  0  0  0  2  0  0  0  0  0  0
  194.6750  175.2770  136.8300 C   0  0  0  0  0  0  0  0  0  0  0  0
  192.0540  175.2320  135.6880 C   0  0  0  0  0  0  0  0  0  0  0  0
  194.5570  175.0740  135.3510 C   0  0  0  0  0  2  0  0  0  0  0  0
  191.3500  175.5440  145.0980 C   0  0  2  0  0  3  0  0  0  0  0  0
  192.2110  175.2880  144.0120 O   0  0  0  0  0  0  0  0  0  0  0  0
  190.8440  175.4170  143.6900 C   0  0  2  0  0  3  0  0  0  0  0  0
  191.6070  176.9640  145.6010 C   0  0  0  0  0  2  0  0  0  0  0  0
  190.2320  177.0800  147.6490 C   0  0  0  0  0  1  0  0  0  0  0  0
  191.6480  177.0130  147.1180 C   0  0  0  0  0  3  0  0  0  0  0  0
  192.3210  175.7710  147.6660 C   0  0  0  0  0  1  0  0  0  0  0  0
  186.0350  178.9490  139.4360 O   0  0  0  0  0  0  0  0  0  0  0  0
  185.1960  178.4250  138.4120 C   0  0  0  0  0  2  0  0  0  0  0  0
  183.7530  178.8100  138.6760 C   0  0  0  0  0  2  0  0  0  0  0  0
  183.0180  177.6570  139.3370 C   0  0  0  0  0  2  0  0  0  0  0  0
  182.0370  173.4210  136.7980 N   0  0  0  0  0  0  0  0  0  0  0  0
  183.4190  176.4010  138.7150 N   0  0  0  0  0  2  0  0  0  0  0  0
  182.5460  175.6020  137.9120 C   0  0  0  0  0  0  0  0  0  0  0  0
  184.2060  173.9530  137.5290 O   0  0  0  0  0  0  0  0  0  0  0  0
  181.3410  176.0160  137.6230 N   0  0  0  0  0  0  0  0  0  0  0  0
  183.0010  174.2930  137.4160 C   0  0  0  0  0  0  0  0  0  0  0  0
  180.6210  173.7640  136.9090 C   0  0  0  0  0  2  0  0  0  0  0  0
  180.4440  175.2730  136.7290 C   0  0  0  0  0  2  0  0  0  0  0  0
  181.1750  171.5300  135.4650 C   0  0  0  0  0  2  0  0  0  0  0  0
  182.4150  172.2270  136.0430 C   0  0  0  0  0  3  0  0  0  0  0  0
  183.0420  168.1700  134.3960 Cl  0  0  0  0  0  0  0  0  0  0  0  0
  181.4430  170.0690  135.0830 C   0  0  0  0  0  2  0  0  0  0  0  0
  182.8740  169.8270  134.9110 N   0  0  0  0  0  0  0  0  0  0  0  0
  183.5140  169.9230  136.2230 C   0  0  0  0  0  2  0  0  0  0  0  0
  183.2820  171.2880  136.8920 C   0  0  0  0  0  2  0  0  0  0  0  0
  1 12  1  0  0  0  0
  2  6  1  0  0  0  0
  2 16  1  0  0  0  0
  3 14  1  0  0  0  0
  3  6  1  0  0  0  0
  4 12  2  0  0  0  0
  4  7  1  0  0  0  0
  5 17  1  0  0  0  0
  6 10  2  0  0  0  0
  7  2  2  0  0  0  0
  8  1  2  0  0  0  0
  9  4  1  0  0  0  0
 11  8  1  0  0  0  0
 11  9  2  0  0  0  0
 12  3  1  0  0  0  0
 15 14  2  0  0  0  0
 16 13  1  0  0  0  0
 17 16  2  0  0  0  0
 18  7  1  0  0  0  0
 18  5  2  0  0  0  0
 19  8  1  0  0  0  0
 20 19  1  0  0  0  0
 20 21  2  0  0  0  0
 23 28  2  0  0  0  0
 24 25  1  0  0  0  0
 24 20  1  1  0  0  0
 26 29  1  0  0  0  0
 26 28  1  0  0  0  0
 27 22  2  0  0  0  0
 27 25  1  0  0  0  0
 28 24  1  0  0  0  0
 29 27  1  0  0  0  0
 30 33  1  6  0  0  0
 31 30  1  0  0  0  0
 32 14  1  6  0  0  0
 32 31  1  0  0  0  0
 32 30  1  0  0  0  0
 33 35  1  0  0  0  0
 35 34  1  0  0  0  0
 35 36  1  0  0  0  0
 37  9  1  0  0  0  0
 38 39  1  0  0  0  0
 38 37  1  0  0  0  0
 39 40  1  0  0  0  0
 41 47  1  0  0  0  0
 41 46  1  0  0  0  0
 42 40  1  0  0  0  0
 43 42  1  0  0  0  0
 45 43  2  0  0  0  0
 46 44  2  0  0  0  0
 46 43  1  0  0  0  0
 48 47  1  0  0  0  0
 48 45  1  0  0  0  0
 49 50  1  0  0  0  0
 50 41  1  0  0  0  0
 50 55  1  0  0  0  0
 51 53  1  0  0  0  0
 52 49  1  0  0  0  0
 53 52  1  0  0  0  0
 53 54  1  0  0  0  0
 54 55  1  0  0  0  0
M  END
>  <MODEL>
2

>  <REMARK>
 VINA RESULT:      -9.3      2.001      2.376
  Name = 
  11 active torsions:
  status: ('A' for Active; 'I' for Inactive)
    1  A    between atoms: C_3  and  C_23
    2  A    between atoms: C_3  and  C_37
    3  A    between atoms: N_4  and  C_21
    4  A    between atoms: C_6  and  C_25
    5  A    between atoms: C_7  and  N_17
    6  A    between atoms: C_10  and  O_35
    7  A    between atoms: C_10  and  C_52
    8  A    between atoms: N_20  and  C_36
    9  A    between atoms: C_22  and  O_35
   10  A    between atoms: C_36  and  C_52
   11  A    between atoms: C_39  and  C_51
                            x       y       z     vdW  Elec       q    Type
                         _______ _______ _______ _____ _____    ______ ____

>  <TORSDO>
F 11

$$$$
=
 OpenBabel10232412273D

 55 61  0  0  1  0  0  0  0  0999 V2000
  188.0760  177.8680  140.3970 C   0  0  0  0  0  3  0  0  0  0  0  0
  185.9870  178.2010  144.0440 C   0  0  0  0  0  0  0  0  0  0  0  0
  187.9820  177.6250  142.7910 N   0  0  0  0  0  0  0  0  0  0  0  0
  186.0600  178.5270  141.6010 C   0  0  0  0  0  0  0  0  0  0  0  0
  183.3370  179.1730  144.0840 C   0  0  0  0  0  3  0  0  0  0  0  0
  187.3180  177.7210  143.9870 C   0  0  0  0  0  0  0  0  0  0  0  0
  185.3590  178.6100  142.8340 C   0  0  0  0  0  0  0  0  0  0  0  0
  187.5190  178.2470  139.1870 C   0  0  0  0  0  0  0  0  0  0  0  0
  185.4950  178.9320  140.3510 C   0  0  0  0  0  0  0  0  0  0  0  0
  187.9170  177.3930  145.0510 O   0  0  0  0  0  0  0  0  0  0  0  0
  186.2340  178.7800  139.1700 C   0  0  0  0  0  3  0  0  0  0  0  0
  187.3840  178.0070  141.6140 C   0  0  0  0  0  0  0  0  0  0  0  0
  185.7980  177.8950  146.5980 C   0  0  0  0  0  1  0  0  0  0  0  0
  189.3550  177.1580  142.7860 C   0  0  0  0  0  0  0  0  0  0  0  0
  190.2560  177.8720  142.2660 O   0  0  0  0  0  0  0  0  0  0  0  0
  185.2520  178.2960  145.2670 C   0  0  0  0  0  0  0  0  0  0  0  0
  183.9450  178.7780  145.2670 C   0  0  0  0  0  3  0  0  0  0  0  0
  184.0370  179.0870  142.8870 C   0  0  0  0  0  3  0  0  0  0  0  0
  188.2710  178.0370  137.9860 N   0  0  0  0  0  2  0  0  0  0  0  0
  188.5160  176.7780  137.3510 C   0  0  0  0  0  0  0  0  0  0  0  0
  187.8890  175.7440  137.7000 O   0  0  0  0  0  0  0  0  0  0  0  0
  192.9800  175.5160  136.3510 O   0  0  0  0  0  0  0  0  0  0  0  0
  187.8830  175.5980  134.8800 O   0  0  0  0  0  0  0  0  0  0  0  0
  189.5120  176.6870  136.2360 C   0  0  1  0  0  3  0  0  0  0  0  0
  190.8240  176.3090  136.7690 N   0  0  0  0  0  2  0  0  0  0  0  0
  190.0850  174.9440  134.3460 C   0  0  0  0  0  2  0  0  0  0  0  0
  191.8300  175.7750  135.9060 C   0  0  0  0  0  0  0  0  0  0  0  0
  189.0720  175.7260  135.1520 C   0  0  0  0  0  0  0  0  0  0  0  0
  191.4990  175.5200  134.4680 C   0  0  0  0  0  2  0  0  0  0  0  0
  190.5410  175.9140  144.6690 C   0  0  2  0  0  3  0  0  0  0  0  0
  191.1490  175.6900  143.4170 O   0  0  0  0  0  0  0  0  0  0  0  0
  189.7470  175.8350  143.3970 C   0  0  2  0  0  3  0  0  0  0  0  0
  190.9150  177.3150  145.1490 C   0  0  0  0  0  2  0  0  0  0  0  0
  190.1100  177.3470  147.4850 C   0  0  0  0  0  1  0  0  0  0  0  0
  191.3430  177.3030  146.6070 C   0  0  0  0  0  3  0  0  0  0  0  0
  192.1220  176.0410  146.9150 C   0  0  0  0  0  1  0  0  0  0  0  0
  184.2120  179.4930  140.2850 O   0  0  0  0  0  0  0  0  0  0  0  0
  183.5990  179.8960  139.0640 C   0  0  0  0  0  2  0  0  0  0  0  0
  182.1010  179.6730  139.1380 C   0  0  0  0  0  2  0  0  0  0  0  0
  181.5900  179.1180  137.8200 C   0  0  0  0  0  2  0  0  0  0  0  0
  183.1010  174.5380  136.3700 N   0  0  0  0  0  0  0  0  0  0  0  0
  181.5470  177.6620  137.8860 N   0  0  0  0  0  2  0  0  0  0  0  0
  182.4740  176.8130  137.2030 C   0  0  0  0  0  0  0  0  0  0  0  0
  181.4420  174.8340  138.0080 O   0  0  0  0  0  0  0  0  0  0  0  0
  183.4780  177.3180  136.5390 N   0  0  0  0  0  0  0  0  0  0  0  0
  182.2890  175.3530  137.2360 C   0  0  0  0  0  0  0  0  0  0  0  0
  183.8890  175.2020  135.3340 C   0  0  0  0  0  2  0  0  0  0  0  0
  184.5030  176.4840  135.9000 C   0  0  0  0  0  2  0  0  0  0  0  0
  184.6070  172.5930  136.1660 C   0  0  0  0  0  2  0  0  0  0  0  0
  183.1910  173.0850  136.5020 C   0  0  0  0  0  3  0  0  0  0  0  0
  183.6740  168.7180  135.9910 Cl  0  0  0  0  0  0  0  0  0  0  0  0
  184.6480  171.0970  135.8300 C   0  0  0  0  0  2  0  0  0  0  0  0
  183.4700  170.4100  136.3550 N   0  0  0  0  0  0  0  0  0  0  0  0
  182.3030  170.8620  135.5970 C   0  0  0  0  0  2  0  0  0  0  0  0
  182.1080  172.3860  135.6710 C   0  0  0  0  0  2  0  0  0  0  0  0
  1 12  1  0  0  0  0
  2 16  1  0  0  0  0
  3  6  1  0  0  0  0
  4 12  2  0  0  0  0
  4  7  1  0  0  0  0
  5 17  1  0  0  0  0
  6  2  1  0  0  0  0
  6 10  2  0  0  0  0
  7 18  1  0  0  0  0
  7  2  2  0  0  0  0
  8  1  2  0  0  0  0
  9  4  1  0  0  0  0
 11  8  1  0  0  0  0
 11  9  2  0  0  0  0
 12  3  1  0  0  0  0
 14  3  1  0  0  0  0
 15 14  2  0  0  0  0
 16 17  2  0  0  0  0
 16 13  1  0  0  0  0
 18  5  2  0  0  0  0
 19  8  1  0  0  0  0
 20 21  2  0  0  0  0
 20 19  1  0  0  0  0
 23 28  2  0  0  0  0
 24 25  1  0  0  0  0
 24 20  1  1  0  0  0
 26 29  1  0  0  0  0
 26 28  1  0  0  0  0
 27 22  2  0  0  0  0
 27 25  1  0  0  0  0
 28 24  1  0  0  0  0
 29 27  1  0  0  0  0
 30 33  1  6  0  0  0
 31 30  1  0  0  0  0
 32 14  1  6  0  0  0
 32 31  1  0  0  0  0
 32 30  1  0  0  0  0
 33 35  1  0  0  0  0
 35 36  1  0  0  0  0
 35 34  1  0  0  0  0
 37  9  1  0  0  0  0
 38 39  1  0  0  0  0
 38 37  1  0  0  0  0
 40 42  1  0  0  0  0
 40 39  1  0  0  0  0
 41 50  1  0  0  0  0
 41 46  1  0  0  0  0
 43 46  1  0  0  0  0
 43 42  1  0  0  0  0
 45 43  2  0  0  0  0
 46 44  2  0  0  0  0
 47 48  1  0  0  0  0
 47 41  1  0  0  0  0
 48 45  1  0  0  0  0
 49 50  1  0  0  0  0
 51 53  1  0  0  0  0
 52 49  1  0  0  0  0
 52 53  1  0  0  0  0
 54 55  1  0  0  0  0
 54 53  1  0  0  0  0
 55 50  1  0  0  0  0
M  END
>  <MODEL>
3

>  <REMARK>
 VINA RESULT:      -9.2      2.075      2.561
  Name = 
  11 active torsions:
  status: ('A' for Active; 'I' for Inactive)
    1  A    between atoms: C_3  and  C_23
    2  A    between atoms: C_3  and  C_37
    3  A    between atoms: N_4  and  C_21
    4  A    between atoms: C_6  and  C_25
    5  A    between atoms: C_7  and  N_17
    6  A    between atoms: C_10  and  O_35
    7  A    between atoms: C_10  and  C_52
    8  A    between atoms: N_20  and  C_36
    9  A    between atoms: C_22  and  O_35
   10  A    between atoms: C_36  and  C_52
   11  A    between atoms: C_39  and  C_51
                            x       y       z     vdW  Elec       q    Type
                         _______ _______ _______ _____ _____    ______ ____

>  <TORSDO>
F 11

$$$$
=
 OpenBabel10232412273D

 55 61  0  0  1  0  0  0  0  0999 V2000
  186.6560  175.4350  137.0050 C   0  0  0  0  0  3  0  0  0  0  0  0
  182.4670  175.4110  136.5400 C   0  0  0  0  0  0  0  0  0  0  0  0
  184.6280  174.3340  136.3170 N   0  0  0  0  0  0  0  0  0  0  0  0
  184.5110  176.5500  137.3170 C   0  0  0  0  0  0  0  0  0  0  0  0
  180.9310  177.6410  137.3400 C   0  0  0  0  0  3  0  0  0  0  0  0
  183.2670  174.3080  136.1540 C   0  0  0  0  0  0  0  0  0  0  0  0
  183.1020  176.5390  137.1310 C   0  0  0  0  0  0  0  0  0  0  0  0
  187.3340  176.5030  137.5700 C   0  0  0  0  0  0  0  0  0  0  0  0
  185.2120  177.6440  137.9150 C   0  0  0  0  0  0  0  0  0  0  0  0
  182.7260  173.2740  135.6670 O   0  0  0  0  0  0  0  0  0  0  0  0
  186.6080  177.6000  138.0250 C   0  0  0  0  0  3  0  0  0  0  0  0
  185.2560  175.4210  136.8780 C   0  0  0  0  0  0  0  0  0  0  0  0
  180.2670  174.3140  135.7560 C   0  0  0  0  0  1  0  0  0  0  0  0
  185.4030  173.1690  135.9360 C   0  0  0  0  0  0  0  0  0  0  0  0
  186.1580  172.6160  136.7840 O   0  0  0  0  0  0  0  0  0  0  0  0
  181.0480  175.4330  136.3660 C   0  0  0  0  0  0  0  0  0  0  0  0
  180.3070  176.5430  136.7660 C   0  0  0  0  0  3  0  0  0  0  0  0
  182.3100  177.6350  137.5160 C   0  0  0  0  0  3  0  0  0  0  0  0
  188.7640  176.4600  137.6290 N   0  0  0  0  0  2  0  0  0  0  0  0
  189.6630  176.7250  136.5460 C   0  0  0  0  0  0  0  0  0  0  0  0
  189.2510  177.2390  135.4740 O   0  0  0  0  0  0  0  0  0  0  0  0
  193.3310  177.1000  139.5320 O   0  0  0  0  0  0  0  0  0  0  0  0
  190.7120  174.1860  135.9560 O   0  0  0  0  0  0  0  0  0  0  0  0
  191.1200  176.4140  136.6950 C   0  0  1  0  0  3  0  0  0  0  0  0
  191.6330  177.0080  137.9320 N   0  0  0  0  0  2  0  0  0  0  0  0
  192.5440  174.3250  137.4340 C   0  0  0  0  0  2  0  0  0  0  0  0
  192.8560  176.5420  138.5070 C   0  0  0  0  0  0  0  0  0  0  0  0
  191.3950  174.9250  136.6560 C   0  0  0  0  0  0  0  0  0  0  0  0
  193.5610  175.3790  137.8820 C   0  0  0  0  0  2  0  0  0  0  0  0
  184.8850  171.1540  134.4640 C   0  0  2  0  0  3  0  0  0  0  0  0
  186.2450  171.5210  134.4030 O   0  0  0  0  0  0  0  0  0  0  0  0
  185.3300  172.5850  134.5470 C   0  0  2  0  0  3  0  0  0  0  0  0
  184.6310  170.4440  135.7930 C   0  0  0  0  0  2  0  0  0  0  0  0
  182.6320  169.9010  134.4460 C   0  0  0  0  0  1  0  0  0  0  0  0
  183.3630  169.6100  135.7400 C   0  0  0  0  0  3  0  0  0  0  0  0
  183.7020  168.1340  135.7920 C   0  0  0  0  0  1  0  0  0  0  0  0
  184.5240  178.7630  138.4060 O   0  0  0  0  0  0  0  0  0  0  0  0
  184.5330  179.1430  139.7780 C   0  0  0  0  0  2  0  0  0  0  0  0
  183.1270  179.0800  140.3420 C   0  0  0  0  0  2  0  0  0  0  0  0
  183.1770  178.8530  141.8430 C   0  0  0  0  0  2  0  0  0  0  0  0
  186.8810  178.0150  145.1490 N   0  0  0  0  0  0  0  0  0  0  0  0
  184.4800  178.3150  142.2140 N   0  0  0  0  0  2  0  0  0  0  0  0
  184.9700  178.2890  143.5580 C   0  0  0  0  0  0  0  0  0  0  0  0
  187.0220  177.2850  142.9200 O   0  0  0  0  0  0  0  0  0  0  0  0
  184.2170  178.6800  144.5500 N   0  0  0  0  0  0  0  0  0  0  0  0
  186.3420  177.8300  143.8270 C   0  0  0  0  0  0  0  0  0  0  0  0
  186.1430  178.8610  146.0850 C   0  0  0  0  0  2  0  0  0  0  0  0
  184.6440  178.5850  145.9520 C   0  0  0  0  0  2  0  0  0  0  0  0
  188.1930  177.3600  147.1350 C   0  0  0  0  0  2  0  0  0  0  0  0
  188.1150  177.3740  145.6010 C   0  0  0  0  0  3  0  0  0  0  0  0
  192.0240  176.2670  147.3490 Cl  0  0  0  0  0  0  0  0  0  0  0  0
  189.6210  177.1440  147.6510 C   0  0  0  0  0  2  0  0  0  0  0  0
  190.4650  176.5430  146.6200 N   0  0  0  0  0  0  0  0  0  0  0  0
  190.6680  177.5340  145.5630 C   0  0  0  0  0  2  0  0  0  0  0  0
  189.3440  178.0200  144.9500 C   0  0  0  0  0  2  0  0  0  0  0  0
  1  8  1  0  0  0  0
  2  7  1  0  0  0  0
  3 12  1  0  0  0  0
  4  9  2  0  0  0  0
  5 18  1  0  0  0  0
  6  3  1  0  0  0  0
  6  2  1  0  0  0  0
  7  4  1  0  0  0  0
  7 18  2  0  0  0  0
  8 19  1  0  0  0  0
  8 11  2  0  0  0  0
  9 11  1  0  0  0  0
  9 37  1  0  0  0  0
 10  6  2  0  0  0  0
 12  1  2  0  0  0  0
 12  4  1  0  0  0  0
 13 16  1  0  0  0  0
 14  3  1  0  0  0  0
 14 15  2  0  0  0  0
 16  2  2  0  0  0  0
 16 17  1  0  0  0  0
 17  5  2  0  0  0  0
 20 19  1  0  0  0  0
 21 20  2  0  0  0  0
 23 28  2  0  0  0  0
 24 20  1  1  0  0  0
 24 25  1  0  0  0  0
 25 27  1  0  0  0  0
 26 29  1  0  0  0  0
 27 22  2  0  0  0  0
 28 24  1  0  0  0  0
 28 26  1  0  0  0  0
 29 27  1  0  0  0  0
 30 32  1  0  0  0  0
 30 33  1  1  0  0  0
 31 30  1  0  0  0  0
 31 32  1  0  0  0  0
 32 14  1  1  0  0  0
 34 35  1  0  0  0  0
 35 36  1  0  0  0  0
 35 33  1  0  0  0  0
 37 38  1  0  0  0  0
 38 39  1  0  0  0  0
 39 40  1  0  0  0  0
 40 42  1  0  0  0  0
 41 50  1  0  0  0  0
 41 47  1  0  0  0  0
 42 43  1  0  0  0  0
 43 46  1  0  0  0  0
 43 45  2  0  0  0  0
 44 46  2  0  0  0  0
 45 48  1  0  0  0  0
 46 41  1  0  0  0  0
 48 47  1  0  0  0  0
 49 52  1  0  0  0  0
 50 49  1  0  0  0  0
 53 51  1  0  0  0  0
 53 52  1  0  0  0  0
 54 53  1  0  0  0  0
 55 54  1  0  0  0  0
 55 50  1  0  0  0  0
M  END
>  <MODEL>
4

>  <REMARK>
 VINA RESULT:      -8.5      3.094      9.093
  Name = 
  11 active torsions:
  status: ('A' for Active; 'I' for Inactive)
    1  A    between atoms: C_3  and  C_23
    2  A    between atoms: C_3  and  C_37
    3  A    between atoms: N_4  and  C_21
    4  A    between atoms: C_6  and  C_25
    5  A    between atoms: C_7  and  N_17
    6  A    between atoms: C_10  and  O_35
    7  A    between atoms: C_10  and  C_52
    8  A    between atoms: N_20  and  C_36
    9  A    between atoms: C_22  and  O_35
   10  A    between atoms: C_36  and  C_52
   11  A    between atoms: C_39  and  C_51
                            x       y       z     vdW  Elec       q    Type
                         _______ _______ _______ _____ _____    ______ ____

>  <TORSDO>
F 11

$$$$
=
 OpenBabel10232412273D

 55 61  0  0  1  0  0  0  0  0999 V2000
  186.2980  178.3180  141.3210 C   0  0  0  0  0  3  0  0  0  0  0  0
  188.9170  177.5080  144.5230 C   0  0  0  0  0  0  0  0  0  0  0  0
  186.6890  177.9340  143.6660 N   0  0  0  0  0  0  0  0  0  0  0  0
  188.5550  177.8330  142.1060 C   0  0  0  0  0  0  0  0  0  0  0  0
  191.6820  177.1780  144.0550 C   0  0  0  0  0  3  0  0  0  0  0  0
  187.5250  177.6750  144.7210 C   0  0  0  0  0  0  0  0  0  0  0  0
  189.4300  177.5850  143.1980 C   0  0  0  0  0  0  0  0  0  0  0  0
  186.7360  178.4080  140.0100 C   0  0  0  0  0  0  0  0  0  0  0  0
  189.0000  177.9100  140.7490 C   0  0  0  0  0  0  0  0  0  0  0  0
  187.0350  177.5680  145.8820 O   0  0  0  0  0  0  0  0  0  0  0  0
  188.0830  178.2000  139.7300 C   0  0  0  0  0  3  0  0  0  0  0  0
  187.1730  178.0210  142.3820 C   0  0  0  0  0  0  0  0  0  0  0  0
  189.4120  177.1610  147.0310 C   0  0  0  0  0  1  0  0  0  0  0  0
  185.2670  178.0660  143.9130 C   0  0  0  0  0  0  0  0  0  0  0  0
  184.4530  177.3320  143.2870 O   0  0  0  0  0  0  0  0  0  0  0  0
  189.8260  177.2600  145.5990 C   0  0  0  0  0  0  0  0  0  0  0  0
  191.1870  177.1000  145.3480 C   0  0  0  0  0  3  0  0  0  0  0  0
  190.8120  177.4190  142.9980 C   0  0  0  0  0  3  0  0  0  0  0  0
  185.7920  178.7550  138.9900 N   0  0  0  0  0  2  0  0  0  0  0  0
  184.3730  178.5700  139.0530 C   0  0  0  0  0  0  0  0  0  0  0  0
  183.8070  178.2690  140.1360 O   0  0  0  0  0  0  0  0  0  0  0  0
  181.6070  176.2770  135.9540 O   0  0  0  0  0  0  0  0  0  0  0  0
  182.4880  180.6420  138.8370 O   0  0  0  0  0  0  0  0  0  0  0  0
  183.5420  178.7620  137.8220 C   0  0  1  0  0  3  0  0  0  0  0  0
  183.0740  177.4640  137.3290 N   0  0  0  0  0  2  0  0  0  0  0  0
  181.0790  179.5370  137.3030 C   0  0  0  0  0  2  0  0  0  0  0  0
  181.9650  177.3870  136.4310 C   0  0  0  0  0  0  0  0  0  0  0  0
  182.3790  179.7020  138.0570 C   0  0  0  0  0  0  0  0  0  0  0  0
  181.2280  178.6390  136.0700 C   0  0  0  0  0  2  0  0  0  0  0  0
  183.3250  179.5430  144.6530 C   0  0  2  0  0  3  0  0  0  0  0  0
  184.4600  180.2980  144.2930 O   0  0  0  0  0  0  0  0  0  0  0  0
  184.7220  179.0580  144.9110 C   0  0  2  0  0  3  0  0  0  0  0  0
  182.6540  179.0320  143.3780 C   0  0  0  0  0  2  0  0  0  0  0  0
  180.7280  179.4460  141.8870 C   0  0  0  0  0  1  0  0  0  0  0  0
  181.1880  179.4250  143.3300 C   0  0  0  0  0  3  0  0  0  0  0  0
  180.3500  178.4240  144.0990 C   0  0  0  0  0  1  0  0  0  0  0  0
  190.3440  177.6890  140.4140 O   0  0  0  0  0  0  0  0  0  0  0  0
  190.7910  176.5390  139.7040 C   0  0  0  0  0  2  0  0  0  0  0  0
  191.6490  176.9590  138.5260 C   0  0  0  0  0  2  0  0  0  0  0  0
  190.8350  176.9130  137.2450 C   0  0  0  0  0  2  0  0  0  0  0  0
  186.6630  174.1250  136.8310 N   0  0  0  0  0  0  0  0  0  0  0  0
  190.1390  175.6360  137.1520 N   0  0  0  0  0  2  0  0  0  0  0  0
  188.7410  175.5170  136.8700 C   0  0  0  0  0  0  0  0  0  0  0  0
  188.7940  173.1480  136.9920 O   0  0  0  0  0  0  0  0  0  0  0  0
  188.0240  176.5720  136.5930 N   0  0  0  0  0  0  0  0  0  0  0  0
  188.0990  174.1930  136.9050 C   0  0  0  0  0  0  0  0  0  0  0  0
  185.9030  175.3650  136.9720 C   0  0  0  0  0  2  0  0  0  0  0  0
  186.6090  176.4880  136.2090 C   0  0  0  0  0  2  0  0  0  0  0  0
  185.7470  172.6320  135.0910 C   0  0  0  0  0  2  0  0  0  0  0  0
  185.9380  172.8780  136.5950 C   0  0  0  0  0  3  0  0  0  0  0  0
  183.1130  169.6610  135.4810 Cl  0  0  0  0  0  0  0  0  0  0  0  0
  184.6240  171.6310  134.7940 C   0  0  0  0  0  2  0  0  0  0  0  0
  184.3310  170.8090  135.9660 N   0  0  0  0  0  0  0  0  0  0  0  0
  183.7170  171.6650  136.9810 C   0  0  0  0  0  2  0  0  0  0  0  0
  184.6160  172.8510  137.3730 C   0  0  0  0  0  2  0  0  0  0  0  0
  1 12  1  0  0  0  0
  2  6  1  0  0  0  0
  2 16  1  0  0  0  0
  3 14  1  0  0  0  0
  3  6  1  0  0  0  0
  4 12  2  0  0  0  0
  4  7  1  0  0  0  0
  5 17  1  0  0  0  0
  6 10  2  0  0  0  0
  7  2  2  0  0  0  0
  8  1  2  0  0  0  0
  9  4  1  0  0  0  0
 11  8  1  0  0  0  0
 11  9  2  0  0  0  0
 12  3  1  0  0  0  0
 15 14  2  0  0  0  0
 16 13  1  0  0  0  0
 17 16  2  0  0  0  0
 18  7  1  0  0  0  0
 18  5  2  0  0  0  0
 19 20  1  0  0  0  0
 19  8  1  0  0  0  0
 20 21  2  0  0  0  0
 22 27  2  0  0  0  0
 24 28  1  0  0  0  0
 24 20  1  1  0  0  0
 25 24  1  0  0  0  0
 26 28  1  0  0  0  0
 27 25  1  0  0  0  0
 28 23  2  0  0  0  0
 29 27  1  0  0  0  0
 29 26  1  0  0  0  0
 30 33  1  6  0  0  0
 30 32  1  0  0  0  0
 31 30  1  0  0  0  0
 31 32  1  0  0  0  0
 32 14  1  6  0  0  0
 34 35  1  0  0  0  0
 35 33  1  0  0  0  0
 35 36  1  0  0  0  0
 37  9  1  0  0  0  0
 38 37  1  0  0  0  0
 39 38  1  0  0  0  0
 40 39  1  0  0  0  0
 41 46  1  0  0  0  0
 41 47  1  0  0  0  0
 42 40  1  0  0  0  0
 43 46  1  0  0  0  0
 43 42  1  0  0  0  0
 45 43  2  0  0  0  0
 46 44  2  0  0  0  0
 48 45  1  0  0  0  0
 48 47  1  0  0  0  0
 49 50  1  0  0  0  0
 50 41  1  0  0  0  0
 50 55  1  0  0  0  0
 51 53  1  0  0  0  0
 52 49  1  0  0  0  0
 52 53  1  0  0  0  0
 53 54  1  0  0  0  0
 54 55  1  0  0  0  0
M  END
>  <MODEL>
5

>  <REMARK>
 VINA RESULT:      -8.4      2.524      7.037
  Name = 
  11 active torsions:
  status: ('A' for Active; 'I' for Inactive)
    1  A    between atoms: C_3  and  C_23
    2  A    between atoms: C_3  and  C_37
    3  A    between atoms: N_4  and  C_21
    4  A    between atoms: C_6  and  C_25
    5  A    between atoms: C_7  and  N_17
    6  A    between atoms: C_10  and  O_35
    7  A    between atoms: C_10  and  C_52
    8  A    between atoms: N_20  and  C_36
    9  A    between atoms: C_22  and  O_35
   10  A    between atoms: C_36  and  C_52
   11  A    between atoms: C_39  and  C_51
                            x       y       z     vdW  Elec       q    Type
                         _______ _______ _______ _____ _____    ______ ____

>  <TORSDO>
F 11

$$$$
=
 OpenBabel10232412273D

 55 61  0  0  1  0  0  0  0  0999 V2000
  185.6220  175.7020  136.4360 C   0  0  0  0  0  3  0  0  0  0  0  0
  188.6090  172.9330  135.3520 C   0  0  0  0  0  0  0  0  0  0  0  0
  186.2760  173.5730  135.5190 N   0  0  0  0  0  0  0  0  0  0  0  0
  187.9880  175.1480  136.2380 C   0  0  0  0  0  0  0  0  0  0  0  0
  191.3360  173.5500  135.7460 C   0  0  0  0  0  3  0  0  0  0  0  0
  187.2330  172.6570  135.1640 C   0  0  0  0  0  0  0  0  0  0  0  0
  188.9840  174.1950  135.8910 C   0  0  0  0  0  0  0  0  0  0  0  0
  185.9210  176.9450  136.9680 C   0  0  0  0  0  0  0  0  0  0  0  0
  188.2930  176.4390  136.7710 C   0  0  0  0  0  0  0  0  0  0  0  0
  186.8730  171.5620  134.6460 O   0  0  0  0  0  0  0  0  0  0  0  0
  187.2540  177.3090  137.1290 C   0  0  0  0  0  3  0  0  0  0  0  0
  186.6240  174.7930  136.0500 C   0  0  0  0  0  0  0  0  0  0  0  0
  189.3720  170.6400  134.4470 C   0  0  0  0  0  1  0  0  0  0  0  0
  184.8810  173.2610  135.2790 C   0  0  0  0  0  0  0  0  0  0  0  0
  184.1740  174.0470  134.5890 O   0  0  0  0  0  0  0  0  0  0  0  0
  189.6370  171.9960  135.0160 C   0  0  0  0  0  0  0  0  0  0  0  0
  190.9770  172.3190  135.2180 C   0  0  0  0  0  3  0  0  0  0  0  0
  190.3500  174.4710  136.0780 C   0  0  0  0  0  3  0  0  0  0  0  0
  184.8450  177.7990  137.3730 N   0  0  0  0  0  2  0  0  0  0  0  0
  183.7080  177.4150  138.1540 C   0  0  0  0  0  0  0  0  0  0  0  0
  183.6730  176.3020  138.7410 O   0  0  0  0  0  0  0  0  0  0  0  0
  182.6010  181.9760  138.8440 O   0  0  0  0  0  0  0  0  0  0  0  0
  181.5470  177.4100  136.3580 O   0  0  0  0  0  0  0  0  0  0  0  0
  182.5530  178.3550  138.3000 C   0  0  1  0  0  3  0  0  0  0  0  0
  183.0390  179.6900  138.6590 N   0  0  0  0  0  2  0  0  0  0  0  0
  180.9660  179.6750  136.6630 C   0  0  0  0  0  2  0  0  0  0  0  0
  182.2090  180.8380  138.4720 C   0  0  0  0  0  0  0  0  0  0  0  0
  181.6960  178.4100  137.0530 C   0  0  0  0  0  0  0  0  0  0  0  0
  180.8710  180.6750  137.8200 C   0  0  0  0  0  2  0  0  0  0  0  0
  183.0320  172.2170  136.6900 C   0  0  2  0  0  3  0  0  0  0  0  0
  184.3120  171.9840  137.2340 O   0  0  0  0  0  0  0  0  0  0  0  0
  184.2420  172.0080  135.8250 C   0  0  2  0  0  3  0  0  0  0  0  0
  182.6400  173.6670  136.9690 C   0  0  0  0  0  2  0  0  0  0  0  0
  180.5900  174.0320  135.6410 C   0  0  0  0  0  1  0  0  0  0  0  0
  181.1320  173.8270  137.0400 C   0  0  0  0  0  3  0  0  0  0  0  0
  180.4990  172.5860  137.6350 C   0  0  0  0  0  1  0  0  0  0  0  0
  189.6210  176.8590  136.9360 O   0  0  0  0  0  0  0  0  0  0  0  0
  190.0540  177.6660  138.0260 C   0  0  0  0  0  2  0  0  0  0  0  0
  190.7300  176.8010  139.0730 C   0  0  0  0  0  2  0  0  0  0  0  0
  190.4240  177.3300  140.4630 C   0  0  0  0  0  2  0  0  0  0  0  0
  186.0290  178.1350  142.7850 N   0  0  0  0  0  0  0  0  0  0  0  0
  189.0590  177.8400  140.5040 N   0  0  0  0  0  2  0  0  0  0  0  0
  188.2670  177.8800  141.6940 C   0  0  0  0  0  0  0  0  0  0  0  0
  186.4020  178.8170  140.5670 O   0  0  0  0  0  0  0  0  0  0  0  0
  188.7730  177.5290  142.8450 N   0  0  0  0  0  0  0  0  0  0  0  0
  186.8600  178.3080  141.6220 C   0  0  0  0  0  0  0  0  0  0  0  0
  186.5440  177.3280  143.8890 C   0  0  0  0  0  2  0  0  0  0  0  0
  188.0260  177.6400  144.1050 C   0  0  0  0  0  2  0  0  0  0  0  0
  184.1790  178.6010  144.3510 C   0  0  0  0  0  2  0  0  0  0  0  0
  184.7110  178.7520  142.9180 C   0  0  0  0  0  3  0  0  0  0  0  0
  180.4480  179.7560  143.5370 Cl  0  0  0  0  0  0  0  0  0  0  0  0
  182.6600  178.7940  144.4400 C   0  0  0  0  0  2  0  0  0  0  0  0
  182.1550  179.5230  143.2780 N   0  0  0  0  0  0  0  0  0  0  0  0
  182.2860  178.6580  142.1060 C   0  0  0  0  0  2  0  0  0  0  0  0
  183.7370  178.2100  141.8630 C   0  0  0  0  0  2  0  0  0  0  0  0
  1  8  1  0  0  0  0
  2  7  1  0  0  0  0
  3 12  1  0  0  0  0
  4  9  2  0  0  0  0
  5 18  1  0  0  0  0
  6  2  1  0  0  0  0
  6  3  1  0  0  0  0
  7 18  2  0  0  0  0
  7  4  1  0  0  0  0
  8 11  2  0  0  0  0
  8 19  1  0  0  0  0
  9 37  1  0  0  0  0
  9 11  1  0  0  0  0
 10  6  2  0  0  0  0
 12  4  1  0  0  0  0
 12  1  2  0  0  0  0
 13 16  1  0  0  0  0
 14  3  1  0  0  0  0
 15 14  2  0  0  0  0
 16 17  1  0  0  0  0
 16  2  2  0  0  0  0
 17  5  2  0  0  0  0
 19 20  1  0  0  0  0
 20 21  2  0  0  0  0
 23 28  2  0  0  0  0
 24 20  1  6  0  0  0
 24 25  1  0  0  0  0
 26 28  1  0  0  0  0
 26 29  1  0  0  0  0
 27 25  1  0  0  0  0
 27 22  2  0  0  0  0
 28 24  1  0  0  0  0
 29 27  1  0  0  0  0
 30 33  1  1  0  0  0
 30 31  1  0  0  0  0
 32 14  1  1  0  0  0
 32 30  1  0  0  0  0
 32 31  1  0  0  0  0
 33 35  1  0  0  0  0
 34 35  1  0  0  0  0
 35 36  1  0  0  0  0
 37 38  1  0  0  0  0
 38 39  1  0  0  0  0
 39 40  1  0  0  0  0
 40 42  1  0  0  0  0
 41 50  1  0  0  0  0
 41 47  1  0  0  0  0
 42 43  1  0  0  0  0
 43 45  2  0  0  0  0
 44 46  2  0  0  0  0
 45 48  1  0  0  0  0
 46 43  1  0  0  0  0
 46 41  1  0  0  0  0
 47 48  1  0  0  0  0
 49 52  1  0  0  0  0
 50 49  1  0  0  0  0
 53 51  1  0  0  0  0
 53 52  1  0  0  0  0
 54 53  1  0  0  0  0
 55 54  1  0  0  0  0
 55 50  1  0  0  0  0
M  END
>  <MODEL>
6

>  <REMARK>
 VINA RESULT:      -8.1      3.659     10.427
  Name = 
  11 active torsions:
  status: ('A' for Active; 'I' for Inactive)
    1  A    between atoms: C_3  and  C_23
    2  A    between atoms: C_3  and  C_37
    3  A    between atoms: N_4  and  C_21
    4  A    between atoms: C_6  and  C_25
    5  A    between atoms: C_7  and  N_17
    6  A    between atoms: C_10  and  O_35
    7  A    between atoms: C_10  and  C_52
    8  A    between atoms: N_20  and  C_36
    9  A    between atoms: C_22  and  O_35
   10  A    between atoms: C_36  and  C_52
   11  A    between atoms: C_39  and  C_51
                            x       y       z     vdW  Elec       q    Type
                         _______ _______ _______ _____ _____    ______ ____

>  <TORSDO>
F 11

$$$$
=
 OpenBabel10232412273D

 55 61  0  0  1  0  0  0  0  0999 V2000
  187.3260  178.0300  141.8660 C   0  0  0  0  0  3  0  0  0  0  0  0
  188.6140  177.4300  145.8340 C   0  0  0  0  0  0  0  0  0  0  0  0
  186.8570  177.8700  144.2220 N   0  0  0  0  0  0  0  0  0  0  0  0
  189.1310  177.5210  143.4250 C   0  0  0  0  0  0  0  0  0  0  0  0
  191.3360  176.9220  146.3880 C   0  0  0  0  0  3  0  0  0  0  0  0
  187.2570  177.6820  145.5200 C   0  0  0  0  0  0  0  0  0  0  0  0
  189.5560  177.3460  144.7700 C   0  0  0  0  0  0  0  0  0  0  0  0
  188.1930  177.9640  140.7870 C   0  0  0  0  0  0  0  0  0  0  0  0
  190.0180  177.4370  142.3070 C   0  0  0  0  0  0  0  0  0  0  0  0
  186.3920  177.7170  146.4410 O   0  0  0  0  0  0  0  0  0  0  0  0
  189.5330  177.6650  141.0130 C   0  0  0  0  0  3  0  0  0  0  0  0
  187.7570  177.8010  143.1850 C   0  0  0  0  0  0  0  0  0  0  0  0
  188.1890  177.3180  148.3770 C   0  0  0  0  0  1  0  0  0  0  0  0
  185.4520  178.0940  143.9460 C   0  0  0  0  0  0  0  0  0  0  0  0
  184.8460  177.3390  143.1360 O   0  0  0  0  0  0  0  0  0  0  0  0
  189.0760  177.2500  147.1760 C   0  0  0  0  0  0  0  0  0  0  0  0
  190.4230  177.0010  147.4290 C   0  0  0  0  0  3  0  0  0  0  0  0
  190.9040  177.0940  145.0790 C   0  0  0  0  0  3  0  0  0  0  0  0
  187.6870  178.2480  139.4780 N   0  0  0  0  0  2  0  0  0  0  0  0
  186.3100  178.4140  139.1210 C   0  0  0  0  0  0  0  0  0  0  0  0
  185.4220  178.5330  140.0050 O   0  0  0  0  0  0  0  0  0  0  0  0
  188.0160  178.0230  134.7110 O   0  0  0  0  0  0  0  0  0  0  0  0
  184.0800  177.0240  138.1240 O   0  0  0  0  0  0  0  0  0  0  0  0
  185.9170  178.4740  137.6780 C   0  0  1  0  0  3  0  0  0  0  0  0
  187.1100  178.3890  136.8320 N   0  0  0  0  0  2  0  0  0  0  0  0
  184.8920  176.7990  135.9220 C   0  0  0  0  0  2  0  0  0  0  0  0
  186.9980  178.0280  135.4540 C   0  0  0  0  0  0  0  0  0  0  0  0
  184.9170  177.3980  137.3100 C   0  0  0  0  0  0  0  0  0  0  0  0
  185.6580  177.6490  134.9040 C   0  0  0  0  0  2  0  0  0  0  0  0
  183.3470  179.5320  143.9970 C   0  0  2  0  0  3  0  0  0  0  0  0
  184.5030  180.2910  143.7240 O   0  0  0  0  0  0  0  0  0  0  0  0
  184.6790  179.2080  144.6090 C   0  0  2  0  0  3  0  0  0  0  0  0
  182.9690  178.7480  142.7400 C   0  0  0  0  0  2  0  0  0  0  0  0
  180.9240  178.4610  144.0950 C   0  0  0  0  0  1  0  0  0  0  0  0
  181.4760  178.4790  142.6850 C   0  0  0  0  0  3  0  0  0  0  0  0
  180.7750  179.5670  141.8970 C   0  0  0  0  0  1  0  0  0  0  0  0
  191.3730  177.1200  142.4810 O   0  0  0  0  0  0  0  0  0  0  0  0
  192.1810  176.5600  141.4500 C   0  0  0  0  0  2  0  0  0  0  0  0
  192.9260  177.6620  140.7210 C   0  0  0  0  0  2  0  0  0  0  0  0
  193.1370  177.2740  139.2680 C   0  0  0  0  0  2  0  0  0  0  0  0
  190.5420  174.1610  136.2800 N   0  0  0  0  0  0  0  0  0  0  0  0
  191.8930  176.7530  138.7140 N   0  0  0  0  0  2  0  0  0  0  0  0
  191.8250  175.5900  137.8830 C   0  0  0  0  0  0  0  0  0  0  0  0
  189.4730  175.7610  137.6290 O   0  0  0  0  0  0  0  0  0  0  0  0
  192.8920  174.8760  137.6460 N   0  0  0  0  0  0  0  0  0  0  0  0
  190.5420  175.2000  137.2770 C   0  0  0  0  0  0  0  0  0  0  0  0
  191.8270  173.7170  135.7440 C   0  0  0  0  0  2  0  0  0  0  0  0
  192.8520  173.6260  136.8760 C   0  0  0  0  0  2  0  0  0  0  0  0
  188.4770  174.4890  134.9680 C   0  0  0  0  0  2  0  0  0  0  0  0
  189.3190  173.5150  135.8060 C   0  0  0  0  0  3  0  0  0  0  0  0
  185.1930  172.2260  134.8690 Cl  0  0  0  0  0  0  0  0  0  0  0  0
  187.0130  174.0480  134.8440 C   0  0  0  0  0  2  0  0  0  0  0  0
  186.8700  172.6210  135.1280 N   0  0  0  0  0  0  0  0  0  0  0  0
  187.1340  172.4110  136.5510 C   0  0  0  0  0  2  0  0  0  0  0  0
  188.5320  172.9000  136.9690 C   0  0  0  0  0  2  0  0  0  0  0  0
  1 12  1  0  0  0  0
  2 16  1  0  0  0  0
  3  6  1  0  0  0  0
  4  7  1  0  0  0  0
  5 17  1  0  0  0  0
  6  2  1  0  0  0  0
  6 10  2  0  0  0  0
  7 18  1  0  0  0  0
  7  2  2  0  0  0  0
  8 11  1  0  0  0  0
  8  1  2  0  0  0  0
  9 37  1  0  0  0  0
  9  4  1  0  0  0  0
 11  9  2  0  0  0  0
 12  4  2  0  0  0  0
 12  3  1  0  0  0  0
 14  3  1  0  0  0  0
 15 14  2  0  0  0  0
 16 17  2  0  0  0  0
 16 13  1  0  0  0  0
 18  5  2  0  0  0  0
 19  8  1  0  0  0  0
 20 19  1  0  0  0  0
 20 21  2  0  0  0  0
 22 27  2  0  0  0  0
 24 20  1  1  0  0  0
 25 24  1  0  0  0  0
 26 28  1  0  0  0  0
 27 25  1  0  0  0  0
 28 24  1  0  0  0  0
 28 23  2  0  0  0  0
 29 27  1  0  0  0  0
 29 26  1  0  0  0  0
 30 33  1  6  0  0  0
 30 32  1  0  0  0  0
 31 30  1  0  0  0  0
 31 32  1  0  0  0  0
 32 14  1  6  0  0  0
 35 33  1  0  0  0  0
 35 34  1  0  0  0  0
 36 35  1  0  0  0  0
 38 37  1  0  0  0  0
 39 38  1  0  0  0  0
 40 39  1  0  0  0  0
 41 46  1  0  0  0  0
 42 40  1  0  0  0  0
 43 42  1  0  0  0  0
 45 43  2  0  0  0  0
 46 44  2  0  0  0  0
 46 43  1  0  0  0  0
 47 41  1  0  0  0  0
 47 48  1  0  0  0  0
 48 45  1  0  0  0  0
 49 50  1  0  0  0  0
 50 41  1  0  0  0  0
 50 55  1  0  0  0  0
 51 53  1  0  0  0  0
 52 49  1  0  0  0  0
 52 53  1  0  0  0  0
 53 54  1  0  0  0  0
 54 55  1  0  0  0  0
M  END
>  <MODEL>
7

>  <REMARK>
 VINA RESULT:      -8.0      2.328      6.625
  Name = 
  11 active torsions:
  status: ('A' for Active; 'I' for Inactive)
    1  A    between atoms: C_3  and  C_23
    2  A    between atoms: C_3  and  C_37
    3  A    between atoms: N_4  and  C_21
    4  A    between atoms: C_6  and  C_25
    5  A    between atoms: C_7  and  N_17
    6  A    between atoms: C_10  and  O_35
    7  A    between atoms: C_10  and  C_52
    8  A    between atoms: N_20  and  C_36
    9  A    between atoms: C_22  and  O_35
   10  A    between atoms: C_36  and  C_52
   11  A    between atoms: C_39  and  C_51
                            x       y       z     vdW  Elec       q    Type
                         _______ _______ _______ _____ _____    ______ ____

>  <TORSDO>
F 11

$$$$
=
 OpenBabel10232412273D

 55 61  0  0  1  0  0  0  0  0999 V2000
  186.2410  178.3610  141.1600 C   0  0  0  0  0  3  0  0  0  0  0  0
  188.9830  177.5890  144.2670 C   0  0  0  0  0  0  0  0  0  0  0  0
  186.7260  178.0210  143.4940 N   0  0  0  0  0  0  0  0  0  0  0  0
  188.5240  177.8670  141.8610 C   0  0  0  0  0  0  0  0  0  0  0  0
  191.7220  177.2190  143.6920 C   0  0  0  0  0  3  0  0  0  0  0  0
  187.6020  177.7740  144.5200 C   0  0  0  0  0  0  0  0  0  0  0  0
  189.4420  177.6330  142.9210 C   0  0  0  0  0  0  0  0  0  0  0  0
  186.6250  178.4190  139.8300 C   0  0  0  0  0  0  0  0  0  0  0  0
  188.9130  177.9120  140.4860 C   0  0  0  0  0  0  0  0  0  0  0  0
  187.1600  177.6960  145.7010 O   0  0  0  0  0  0  0  0  0  0  0  0
  187.9570  178.1910  139.5000 C   0  0  0  0  0  3  0  0  0  0  0  0
  187.1560  178.0760  142.1900 C   0  0  0  0  0  0  0  0  0  0  0  0
  189.5780  177.2880  146.7600 C   0  0  0  0  0  1  0  0  0  0  0  0
  185.3160  178.1730  143.7970 C   0  0  0  0  0  0  0  0  0  0  0  0
  184.4690  177.4350  143.2210 O   0  0  0  0  0  0  0  0  0  0  0  0
  189.9330  177.3530  145.3100 C   0  0  0  0  0  0  0  0  0  0  0  0
  191.2810  177.1730  145.0060 C   0  0  0  0  0  3  0  0  0  0  0  0
  190.8120  177.4480  142.6670 C   0  0  0  0  0  3  0  0  0  0  0  0
  185.6430  178.7540  138.8440 N   0  0  0  0  0  2  0  0  0  0  0  0
  184.3050  178.2480  138.7760 C   0  0  0  0  0  0  0  0  0  0  0  0
  183.8070  177.6050  139.7360 O   0  0  0  0  0  0  0  0  0  0  0  0
  181.6700  176.1040  135.4630 O   0  0  0  0  0  0  0  0  0  0  0  0
  182.3210  180.2380  138.7240 O   0  0  0  0  0  0  0  0  0  0  0  0
  183.4720  178.5070  137.5590 C   0  0  1  0  0  3  0  0  0  0  0  0
  183.0700  177.2360  136.9500 N   0  0  0  0  0  2  0  0  0  0  0  0
  180.9760  179.2040  137.0860 C   0  0  0  0  0  2  0  0  0  0  0  0
  181.9710  177.1840  136.0390 C   0  0  0  0  0  0  0  0  0  0  0  0
  182.2620  179.3650  137.8640 C   0  0  0  0  0  0  0  0  0  0  0  0
  181.1750  178.4260  135.7810 C   0  0  0  0  0  2  0  0  0  0  0  0
  183.3340  179.3650  144.8690 C   0  0  2  0  0  3  0  0  0  0  0  0
  184.1580  180.2500  144.1450 O   0  0  0  0  0  0  0  0  0  0  0  0
  184.8230  179.1910  144.7960 C   0  0  2  0  0  3  0  0  0  0  0  0
  182.5060  178.5480  143.8780 C   0  0  0  0  0  2  0  0  0  0  0  0
  181.1330  179.1520  141.9160 C   0  0  0  0  0  1  0  0  0  0  0  0
  181.2820  179.3180  143.4130 C   0  0  0  0  0  3  0  0  0  0  0  0
  180.0370  178.7870  144.0940 C   0  0  0  0  0  1  0  0  0  0  0  0
  190.2390  177.6690  140.1000 O   0  0  0  0  0  0  0  0  0  0  0  0
  190.6350  177.4810  138.7450 C   0  0  0  0  0  2  0  0  0  0  0  0
  191.3850  176.1710  138.6020 C   0  0  0  0  0  2  0  0  0  0  0  0
  192.6810  176.3920  137.8420 C   0  0  0  0  0  2  0  0  0  0  0  0
  195.1530  172.0270  137.4050 N   0  0  0  0  0  0  0  0  0  0  0  0
  193.6770  175.4220  138.2800 N   0  0  0  0  0  2  0  0  0  0  0  0
  194.0390  174.2650  137.5210 C   0  0  0  0  0  0  0  0  0  0  0  0
  195.6020  173.5360  139.1500 O   0  0  0  0  0  0  0  0  0  0  0  0
  193.5400  174.0630  136.3320 N   0  0  0  0  0  0  0  0  0  0  0  0
  194.9740  173.2800  138.0910 C   0  0  0  0  0  0  0  0  0  0  0  0
  194.2290  171.6920  136.3240 C   0  0  0  0  0  2  0  0  0  0  0  0
  193.9510  172.9390  135.4820 C   0  0  0  0  0  2  0  0  0  0  0  0
  197.3940  171.2420  136.7310 C   0  0  0  0  0  2  0  0  0  0  0  0
  196.2320  171.0940  137.7240 C   0  0  0  0  0  3  0  0  0  0  0  0
  199.3200  167.9290  137.8420 Cl  0  0  0  0  0  0  0  0  0  0  0  0
  198.3170  170.0160  136.7150 C   0  0  0  0  0  2  0  0  0  0  0  0
  198.1660  169.2310  137.9380 N   0  0  0  0  0  0  0  0  0  0  0  0
  196.8390  168.6160  137.9250 C   0  0  0  0  0  2  0  0  0  0  0  0
  195.7100  169.6550  137.8160 C   0  0  0  0  0  2  0  0  0  0  0  0
  1 12  1  0  0  0  0
  2  6  1  0  0  0  0
  2 16  1  0  0  0  0
  3 14  1  0  0  0  0
  3  6  1  0  0  0  0
  4 12  2  0  0  0  0
  4  7  1  0  0  0  0
  5 17  1  0  0  0  0
  6 10  2  0  0  0  0
  7  2  2  0  0  0  0
  8  1  2  0  0  0  0
  9  4  1  0  0  0  0
 11  8  1  0  0  0  0
 11  9  2  0  0  0  0
 12  3  1  0  0  0  0
 15 14  2  0  0  0  0
 16 13  1  0  0  0  0
 17 16  2  0  0  0  0
 18  7  1  0  0  0  0
 18  5  2  0  0  0  0
 19  8  1  0  0  0  0
 20 19  1  0  0  0  0
 20 21  2  0  0  0  0
 22 27  2  0  0  0  0
 24 28  1  0  0  0  0
 24 20  1  1  0  0  0
 25 24  1  0  0  0  0
 26 28  1  0  0  0  0
 27 25  1  0  0  0  0
 28 23  2  0  0  0  0
 29 27  1  0  0  0  0
 29 26  1  0  0  0  0
 30 33  1  6  0  0  0
 31 32  1  0  0  0  0
 31 30  1  0  0  0  0
 32 14  1  6  0  0  0
 32 30  1  0  0  0  0
 34 35  1  0  0  0  0
 35 33  1  0  0  0  0
 35 36  1  0  0  0  0
 37  9  1  0  0  0  0
 38 37  1  0  0  0  0
 39 38  1  0  0  0  0
 40 42  1  0  0  0  0
 40 39  1  0  0  0  0
 41 50  1  0  0  0  0
 41 46  1  0  0  0  0
 43 46  1  0  0  0  0
 43 42  1  0  0  0  0
 45 43  2  0  0  0  0
 46 44  2  0  0  0  0
 47 41  1  0  0  0  0
 48 47  1  0  0  0  0
 48 45  1  0  0  0  0
 49 50  1  0  0  0  0
 50 55  1  0  0  0  0
 51 53  1  0  0  0  0
 52 49  1  0  0  0  0
 52 53  1  0  0  0  0
 54 53  1  0  0  0  0
 55 54  1  0  0  0  0
M  END
>  <MODEL>
8

>  <REMARK>
 VINA RESULT:      -7.9      3.621      8.502
  Name = 
  11 active torsions:
  status: ('A' for Active; 'I' for Inactive)
    1  A    between atoms: C_3  and  C_23
    2  A    between atoms: C_3  and  C_37
    3  A    between atoms: N_4  and  C_21
    4  A    between atoms: C_6  and  C_25
    5  A    between atoms: C_7  and  N_17
    6  A    between atoms: C_10  and  O_35
    7  A    between atoms: C_10  and  C_52
    8  A    between atoms: N_20  and  C_36
    9  A    between atoms: C_22  and  O_35
   10  A    between atoms: C_36  and  C_52
   11  A    between atoms: C_39  and  C_51
                            x       y       z     vdW  Elec       q    Type
                         _______ _______ _______ _____ _____    ______ ____

>  <TORSDO>
F 11

$$$$
=
 OpenBabel10232412273D

 55 61  0  0  1  0  0  0  0  0999 V2000
  189.4640  177.6640  140.7490 C   0  0  0  0  0  3  0  0  0  0  0  0
  187.9610  177.2330  136.8340 C   0  0  0  0  0  0  0  0  0  0  0  0
  189.7420  176.9740  138.4580 N   0  0  0  0  0  0  0  0  0  0  0  0
  187.6080  177.8940  139.1830 C   0  0  0  0  0  0  0  0  0  0  0  0
  185.3290  178.0510  136.2200 C   0  0  0  0  0  3  0  0  0  0  0  0
  189.2740  176.8290  137.1780 C   0  0  0  0  0  0  0  0  0  0  0  0
  187.1230  177.7670  137.8540 C   0  0  0  0  0  0  0  0  0  0  0  0
  188.7000  178.1780  141.7840 C   0  0  0  0  0  0  0  0  0  0  0  0
  186.8180  178.4090  140.2580 C   0  0  0  0  0  0  0  0  0  0  0  0
  190.0250  176.3110  136.3030 O   0  0  0  0  0  0  0  0  0  0  0  0
  187.3810  178.5440  141.5340 C   0  0  0  0  0  3  0  0  0  0  0  0
  188.9470  177.4970  139.4510 C   0  0  0  0  0  0  0  0  0  0  0  0
  188.2210  176.5810  134.3510 C   0  0  0  0  0  1  0  0  0  0  0  0
  191.0830  176.5180  138.7710 C   0  0  0  0  0  0  0  0  0  0  0  0
  191.2570  175.6820  139.7010 O   0  0  0  0  0  0  0  0  0  0  0  0
  187.4410  177.1200  135.5060 C   0  0  0  0  0  0  0  0  0  0  0  0
  186.1400  177.5290  135.2220 C   0  0  0  0  0  3  0  0  0  0  0  0
  185.8180  178.1670  137.5150 C   0  0  0  0  0  3  0  0  0  0  0  0
  189.3090  178.3550  143.0680 N   0  0  0  0  0  2  0  0  0  0  0  0
  189.1040  177.5300  144.2210 C   0  0  0  0  0  0  0  0  0  0  0  0
  188.5110  176.4240  144.1290 O   0  0  0  0  0  0  0  0  0  0  0  0
  187.9210  177.9570  148.7960 O   0  0  0  0  0  0  0  0  0  0  0  0
  191.6070  176.7030  145.1930 O   0  0  0  0  0  0  0  0  0  0  0  0
  189.6230  177.9720  145.5540 C   0  0  1  0  0  3  0  0  0  0  0  0
  188.5460  177.9350  146.5470 N   0  0  0  0  0  2  0  0  0  0  0  0
  191.0600  176.8920  147.4790 C   0  0  0  0  0  2  0  0  0  0  0  0
  188.8480  177.9200  147.9430 C   0  0  0  0  0  0  0  0  0  0  0  0
  190.8070  177.1460  146.0100 C   0  0  0  0  0  0  0  0  0  0  0  0
  190.2780  177.8510  148.3820 C   0  0  0  0  0  2  0  0  0  0  0  0
  193.1090  175.9470  137.3330 C   0  0  2  0  0  3  0  0  0  0  0  0
  193.4780  176.5060  138.5730 O   0  0  0  0  0  0  0  0  0  0  0  0
  192.2880  177.0080  138.0070 C   0  0  2  0  0  3  0  0  0  0  0  0
  192.6680  174.5020  137.5600 C   0  0  0  0  0  2  0  0  0  0  0  0
  193.6420  172.5680  136.3700 C   0  0  0  0  0  1  0  0  0  0  0  0
  192.6610  173.7160  136.2600 C   0  0  0  0  0  3  0  0  0  0  0  0
  191.2780  173.1580  135.9920 C   0  0  0  0  0  1  0  0  0  0  0  0
  185.4790  178.7740  140.0620 O   0  0  0  0  0  0  0  0  0  0  0  0
  184.4050  178.2400  140.8290 C   0  0  0  0  0  2  0  0  0  0  0  0
  183.0940  178.8610  140.3870 C   0  0  0  0  0  2  0  0  0  0  0  0
  182.1800  177.7950  139.8090 C   0  0  0  0  0  2  0  0  0  0  0  0
  182.6720  173.5800  137.0980 N   0  0  0  0  0  0  0  0  0  0  0  0
  182.9740  176.8130  139.0790 N   0  0  0  0  0  2  0  0  0  0  0  0
  182.4030  175.7570  138.3020 C   0  0  0  0  0  0  0  0  0  0  0  0
  184.5260  174.9010  137.6810 O   0  0  0  0  0  0  0  0  0  0  0  0
  181.1100  175.6720  138.1380 N   0  0  0  0  0  0  0  0  0  0  0  0
  183.2780  174.7450  137.6890 C   0  0  0  0  0  0  0  0  0  0  0  0
  181.2520  173.3380  137.3460 C   0  0  0  0  0  2  0  0  0  0  0  0
  180.4860  174.6600  137.2760 C   0  0  0  0  0  2  0  0  0  0  0  0
  182.7810  171.2490  136.2950 C   0  0  0  0  0  2  0  0  0  0  0  0
  183.4060  172.6510  136.2420 C   0  0  0  0  0  3  0  0  0  0  0  0
  185.7850  169.3800  134.4500 Cl  0  0  0  0  0  0  0  0  0  0  0  0
  183.7440  170.1540  135.8170 C   0  0  0  0  0  2  0  0  0  0  0  0
  184.8170  170.7200  135.0010 N   0  0  0  0  0  0  0  0  0  0  0  0
  185.6740  171.5250  135.8700 C   0  0  0  0  0  2  0  0  0  0  0  0
  184.9010  172.6470  136.5850 C   0  0  0  0  0  2  0  0  0  0  0  0
  1  8  1  0  0  0  0
  2  6  1  0  0  0  0
  2  7  1  0  0  0  0
  3 14  1  0  0  0  0
  3 12  1  0  0  0  0
  4 12  1  0  0  0  0
  4  9  2  0  0  0  0
  5 18  1  0  0  0  0
  6  3  1  0  0  0  0
  7  4  1  0  0  0  0
  8 19  1  0  0  0  0
  9 11  1  0  0  0  0
 10  6  2  0  0  0  0
 11  8  2  0  0  0  0
 12  1  2  0  0  0  0
 13 16  1  0  0  0  0
 14 15  2  0  0  0  0
 16  2  2  0  0  0  0
 17 16  1  0  0  0  0
 17  5  2  0  0  0  0
 18  7  2  0  0  0  0
 19 20  1  0  0  0  0
 21 20  2  0  0  0  0
 23 28  2  0  0  0  0
 24 20  1  6  0  0  0
 24 28  1  0  0  0  0
 24 25  1  0  0  0  0
 25 27  1  0  0  0  0
 26 29  1  0  0  0  0
 27 29  1  0  0  0  0
 27 22  2  0  0  0  0
 28 26  1  0  0  0  0
 30 33  1  1  0  0  0
 30 32  1  0  0  0  0
 30 31  1  0  0  0  0
 32 31  1  0  0  0  0
 32 14  1  1  0  0  0
 35 34  1  0  0  0  0
 35 33  1  0  0  0  0
 36 35  1  0  0  0  0
 37  9  1  0  0  0  0
 37 38  1  0  0  0  0
 39 38  1  0  0  0  0
 40 39  1  0  0  0  0
 41 47  1  0  0  0  0
 41 46  1  0  0  0  0
 42 40  1  0  0  0  0
 43 42  1  0  0  0  0
 44 46  2  0  0  0  0
 45 43  2  0  0  0  0
 46 43  1  0  0  0  0
 48 47  1  0  0  0  0
 48 45  1  0  0  0  0
 50 49  1  0  0  0  0
 50 55  1  0  0  0  0
 50 41  1  0  0  0  0
 51 53  1  0  0  0  0
 52 49  1  0  0  0  0
 53 52  1  0  0  0  0
 53 54  1  0  0  0  0
 54 55  1  0  0  0  0
M  END
>  <MODEL>
9

>  <REMARK>
 VINA RESULT:      -7.8      2.079      7.062
  Name = 
  11 active torsions:
  status: ('A' for Active; 'I' for Inactive)
    1  A    between atoms: C_3  and  C_23
    2  A    between atoms: C_3  and  C_37
    3  A    between atoms: N_4  and  C_21
    4  A    between atoms: C_6  and  C_25
    5  A    between atoms: C_7  and  N_17
    6  A    between atoms: C_10  and  O_35
    7  A    between atoms: C_10  and  C_52
    8  A    between atoms: N_20  and  C_36
    9  A    between atoms: C_22  and  O_35
   10  A    between atoms: C_36  and  C_52
   11  A    between atoms: C_39  and  C_51
                            x       y       z     vdW  Elec       q    Type
                         _______ _______ _______ _____ _____    ______ ____

>  <TORSDO>
F 11

$$$$
