=
 OpenBabel10232412143D

 68 77  0  0  1  0  0  0  0  0999 V2000
  186.8730  178.0520  141.1460 C   0  0  1  0  0  3  0  0  0  0  0  0
  188.1350  178.2790  140.3230 C   0  0  0  0  0  2  0  0  0  0  0  0
  188.1010  177.4850  139.1740 O   0  0  0  0  0  0  0  0  0  0  0  0
  189.4410  177.3380  138.7950 C   0  0  1  0  0  3  0  0  0  0  0  0
  190.2420  176.8800  140.0070 C   0  0  0  0  0  1  0  0  0  0  0  0
  189.5510  176.3070  137.6600 C   0  0  1  0  0  3  0  0  0  0  0  0
  188.9050  176.7820  135.5110 C   0  0  0  0  0  1  0  0  0  0  0  0
  188.4570  176.3410  136.7650 O   0  0  0  0  0  0  0  0  0  0  0  0
  190.9110  176.3240  136.9480 C   0  0  0  0  0  2  0  0  0  0  0  0
  191.5460  174.9400  136.9560 C   0  0  0  0  0  2  0  0  0  0  0  0
  191.7480  174.3530  135.5610 C   0  0  2  0  0  3  0  0  0  0  0  0
  191.2190  173.0630  135.4710 O   0  0  0  0  0  0  0  0  0  0  0  0
  190.0820  173.1180  136.1320 O   0  0  0  0  0  1  0  0  0  0  0  0
  193.2170  174.3560  135.1660 C   0  0  0  0  0  2  0  0  0  0  0  0
  195.4010  173.6810  138.8120 C   0  0  0  0  0  2  0  0  0  0  0  0
  196.3870  170.7870  136.6470 C   0  0  0  0  0  2  0  0  0  0  0  0
  196.1860  174.4790  137.7560 C   0  0  1  0  0  0  0  0  0  0  0  0
  195.2630  170.6210  137.6560 C   0  0  0  0  0  2  0  0  0  0  0  0
  194.7160  176.1990  136.9570 O   0  0  0  0  0  1  0  0  0  0  0  0
  196.5480  174.6090  136.2350 C   0  0  2  0  0  0  0  0  0  0  0  0
  196.6830  175.7520  135.2620 C   0  0  0  0  0  2  0  0  0  0  0  0
  196.3760  172.9450  137.9820 C   0  0  2  0  0  3  0  0  0  0  0  0
  197.5170  175.6460  136.3470 O   0  0  0  0  0  0  0  0  0  0  0  0
  195.1330  174.8730  136.7560 C   0  0  1  0  0  0  0  0  0  0  0  0
  195.5770  171.9870  137.0770 C   0  0  0  0  0  0  0  0  0  0  0  0
  194.6340  172.4790  135.9830 C   0  0  0  0  0  2  0  0  0  0  0  0
  194.0490  173.8500  136.3320 C   0  0  2  0  0  3  0  0  0  0  0  0
  187.1130  178.3270  142.4960 O   0  0  0  0  0  0  0  0  0  0  0  0
  188.0440  177.3660  142.8960 C   0  0  0  0  0  2  0  0  0  0  0  0
  189.2880  178.0350  143.4490 C   0  0  0  0  0  2  0  0  0  0  0  0
  188.9710  177.2580  147.1910 C   0  0  0  0  0  0  0  0  0  0  0  0
  188.6730  177.7760  145.9020 C   0  0  0  0  0  0  0  0  0  0  0  0
  189.5810  177.5580  144.8380 C   0  0  0  0  0  0  0  0  0  0  0  0
  190.1840  176.5780  147.3850 C   0  0  0  0  0  3  0  0  0  0  0  0
  190.7790  176.8770  145.0660 C   0  0  0  0  0  3  0  0  0  0  0  0
  191.0840  176.3950  146.3370 C   0  0  0  0  0  0  0  0  0  0  0  0
  192.3600  175.6720  146.5740 C   0  0  0  0  0  1  0  0  0  0  0  0
  188.0570  177.3790  148.3580 C   0  0  0  0  0  0  0  0  0  0  0  0
  187.4150  176.2690  148.8960 O   0  0  0  0  0  1  0  0  0  0  0  0
  187.8640  178.5050  148.8900 O   0  0  0  0  0  0  0  0  0  0  0  0
  187.4290  178.5800  145.6470 C   0  0  0  0  0  2  0  0  0  0  0  0
  186.2470  177.7470  145.8280 N   0  0  0  0  0  2  0  0  0  0  0  0
  185.0890  178.6260  145.9000 C   0  0  0  0  0  2  0  0  0  0  0  0
  184.5020  178.8580  144.5160 C   0  0  0  0  0  2  0  0  0  0  0  0
  182.9880  178.8840  144.5880 C   0  0  0  0  0  2  0  0  0  0  0  0
  182.4160  178.9560  143.1870 C   0  0  0  0  0  3  0  0  0  0  0  0
  181.0680  179.6420  143.2400 C   0  0  0  0  0  2  0  0  0  0  0  0
  181.1450  178.1340  143.1350 C   0  0  0  0  0  2  0  0  0  0  0  0
  185.7270  178.9130  140.6230 C   0  0  0  0  0  2  0  0  0  0  0  0
  184.5240  178.0690  140.2300 C   0  0  0  0  0  2  0  0  0  0  0  0
  180.7340  179.7330  138.6300 N   0  0  1  0  0  0  0  0  0  0  0  0
  184.6270  176.2020  137.7900 N   0  0  0  0  0  0  0  0  0  0  0  0
  182.2340  177.6160  136.2340 N   0  0  0  0  0  0  0  0  0  0  0  0
  184.0310  178.4930  138.8570 C   0  0  2  0  0  3  0  0  0  0  0  0
  182.5630  178.0680  138.6660 C   0  0  2  0  0  3  0  0  0  0  0  0
  181.1350  179.3960  137.3300 N   0  0  0  0  0  2  0  0  0  0  0  0
  182.9290  176.3930  136.1220 N   0  0  0  0  0  2  0  0  0  0  0  0
  182.0680  178.3430  137.3020 C   0  0  0  0  0  0  0  0  0  0  0  0
  185.1570  177.8710  137.5640 S   0  0  0  0  0  0  0  0  0  0  0  0
  181.6410  178.9670  139.5310 C   0  0  1  0  0  3  0  0  0  0  0  0
  183.6220  175.6840  137.1600 C   0  0  0  0  0  0  0  0  0  0  0  0
  181.8570  180.4060  139.3000 C   0  0  0  0  0  2  0  0  0  0  0  0
  183.3470  174.2320  137.3350 C   0  0  0  0  0  2  0  0  0  0  0  0
  184.1090  173.4890  136.4170 O   0  0  0  0  0  0  0  0  0  0  0  0
  185.6480  171.7850  136.3690 F   0  0  0  0  0  0  0  0  0  0  0  0
  185.0540  172.7140  138.3240 F   0  0  0  0  0  0  0  0  0  0  0  0
  183.5920  171.3970  137.2440 F   0  0  0  0  0  0  0  0  0  0  0  0
  184.5940  172.3430  137.0760 C   0  0  0  0  0  0  0  0  0  0  0  0
  1  2  1  6  0  0  0
  1 28  1  0  0  0  0
  3  2  1  0  0  0  0
  4  3  1  0  0  0  0
  4  5  1  1  0  0  0
  6  9  1  6  0  0  0
  6  4  1  0  0  0  0
  7  8  1  0  0  0  0
  8  6  1  0  0  0  0
  9 10  1  0  0  0  0
 11 14  1  1  0  0  0
 11 10  1  0  0  0  0
 12 11  1  0  0  0  0
 12 13  1  0  0  0  0
 16 25  1  0  0  0  0
 16 18  1  0  0  0  0
 17 22  1  0  0  0  0
 17 15  1  1  0  0  0
 20 21  1  6  0  0  0
 20 23  1  0  0  0  0
 20 24  1  0  0  0  0
 20 17  1  0  0  0  0
 21 23  1  0  0  0  0
 22 15  1  1  0  0  0
 24 19  1  1  0  0  0
 24 17  1  0  0  0  0
 25 18  1  0  0  0  0
 25 22  1  0  0  0  0
 26 27  1  0  0  0  0
 26 25  1  0  0  0  0
 27 14  1  6  0  0  0
 27 24  1  0  0  0  0
 28 29  1  0  0  0  0
 29 30  1  0  0  0  0
 30 33  1  0  0  0  0
 31 34  1  0  0  0  0
 31 38  1  0  0  0  0
 32 31  2  0  0  0  0
 33 35  2  0  0  0  0
 33 32  1  0  0  0  0
 35 36  1  0  0  0  0
 36 37  1  0  0  0  0
 36 34  2  0  0  0  0
 38 40  2  0  0  0  0
 38 39  1  0  0  0  0
 41 42  1  0  0  0  0
 41 32  1  0  0  0  0
 42 43  1  0  0  0  0
 44 45  1  0  0  0  0
 44 43  1  0  0  0  0
 46 47  1  0  0  0  0
 46 45  1  0  0  0  0
 48 46  1  0  0  0  0
 48 47  1  0  0  0  0
 49  1  1  0  0  0  0
 50 49  1  0  0  0  0
 51 62  1  1  0  0  0
 51 60  1  0  0  0  0
 53 58  2  0  0  0  0
 54 50  1  1  0  0  0
 55 58  1  6  0  0  0
 55 54  1  0  0  0  0
 55 60  1  0  0  0  0
 56 51  1  0  0  0  0
 57 53  1  0  0  0  0
 57 61  1  0  0  0  0
 58 56  1  0  0  0  0
 59 52  1  0  0  0  0
 59 54  1  0  0  0  0
 60 62  1  6  0  0  0
 61 63  1  0  0  0  0
 61 52  2  0  0  0  0
 64 68  1  0  0  0  0
 64 63  1  0  0  0  0
 65 68  1  0  0  0  0
 68 67  1  0  0  0  0
 68 66  1  0  0  0  0
M  END
>  <MODEL>
1

>  <REMARK>
 VINA RESULT:      -6.8      0.000      0.000
  Name = 
  28 active torsions:
  status: ('A' for Active; 'I' for Inactive)
    1  A    between atoms: C_5  and  C_13
    2  A    between atoms: C_7  and  C_9
    3  A    between atoms: C_7  and  C_12
    4  A    between atoms: C_8  and  C_18
    5  A    between atoms: C_8  and  C_48
    6  A    between atoms: C_8  and  O_62
    7  A    between atoms: C_11  and  C_25
    8  A    between atoms: C_12  and  C_15
    9  A    between atoms: C_14  and  C_64
   10  A    between atoms: C_15  and  C_59
   11  A    between atoms: C_15  and  O_60
   12  A    between atoms: C_18  and  O_26
   13  A    between atoms: C_21  and  C_33
   14  A    between atoms: C_22  and  C_23
   15  A    between atoms: C_22  and  O_30
   16  A    between atoms: C_22  and  C_37
   17  A    between atoms: C_23  and  C_66
   18  A    between atoms: C_25  and  C_36
   19  A    between atoms: O_26  and  C_59
   20  A    between atoms: C_33  and  C_61
   21  A    between atoms: C_36  and  C_50
   22  A    between atoms: C_37  and  C_48
   23  A    between atoms: N_43  and  C_50
   24  A    between atoms: N_43  and  C_64
   25  A    between atoms: C_47  and  O_58
   26  A    between atoms: C_47  and  C_63
   27  A    between atoms: O_58  and  C_68
   28  A    between atoms: O_60  and  C_61
                            x       y       z     vdW  Elec       q    Type
                         _______ _______ _______ _____ _____    ______ ____

>  <TORSDO>
F 28

$$$$
=
 OpenBabel10232412143D

 68 77  0  0  1  0  0  0  0  0999 V2000
  187.0360  178.0660  139.4150 C   0  0  1  0  0  3  0  0  0  0  0  0
  188.4750  178.1060  138.9150 C   0  0  0  0  0  2  0  0  0  0  0  0
  189.0240  176.8220  138.9470 O   0  0  0  0  0  0  0  0  0  0  0  0
  190.4090  177.0210  138.9880 C   0  0  1  0  0  3  0  0  0  0  0  0
  190.8440  177.1170  140.4450 C   0  0  0  0  0  1  0  0  0  0  0  0
  191.1240  175.8510  138.2920 C   0  0  1  0  0  3  0  0  0  0  0  0
  190.4740  175.2430  136.1770 C   0  0  0  0  0  1  0  0  0  0  0  0
  190.2510  175.0270  137.5450 O   0  0  0  0  0  0  0  0  0  0  0  0
  192.3690  176.2780  137.5020 C   0  0  0  0  0  2  0  0  0  0  0  0
  193.5510  175.3730  137.8220 C   0  0  0  0  0  2  0  0  0  0  0  0
  194.6150  175.3490  136.7260 C   0  0  2  0  0  3  0  0  0  0  0  0
  194.5250  176.4770  135.9070 O   0  0  0  0  0  0  0  0  0  0  0  0
  195.7690  176.8730  135.7400 O   0  0  0  0  0  1  0  0  0  0  0  0
  194.5260  174.0780  135.8950 C   0  0  0  0  0  2  0  0  0  0  0  0
  198.0570  171.7620  135.0630 C   0  0  0  0  0  2  0  0  0  0  0  0
  199.1310  174.0400  137.8370 C   0  0  0  0  0  2  0  0  0  0  0  0
  197.1680  171.1650  136.1700 C   0  0  1  0  0  0  0  0  0  0  0  0
  199.4220  174.4220  136.3950 C   0  0  0  0  0  2  0  0  0  0  0  0
  194.9190  171.1830  135.3320 O   0  0  0  0  0  1  0  0  0  0  0  0
  196.2950  171.4710  137.4360 C   0  0  2  0  0  0  0  0  0  0  0  0
  194.9650  170.9930  137.9600 C   0  0  0  0  0  2  0  0  0  0  0  0
  198.4420  172.0180  136.4660 C   0  0  2  0  0  3  0  0  0  0  0  0
  196.0210  170.1280  137.8210 O   0  0  0  0  0  0  0  0  0  0  0  0
  195.8780  171.9280  136.0370 C   0  0  1  0  0  0  0  0  0  0  0  0
  198.2460  173.5240  136.7270 C   0  0  0  0  0  0  0  0  0  0  0  0
  196.8740  174.1920  136.7140 C   0  0  0  0  0  2  0  0  0  0  0  0
  195.9080  173.4570  135.7830 C   0  0  2  0  0  3  0  0  0  0  0  0
  186.8470  179.0040  140.4360 O   0  0  0  0  0  0  0  0  0  0  0  0
  187.7950  178.6710  141.4060 C   0  0  0  0  0  2  0  0  0  0  0  0
  187.3210  177.4820  142.2200 C   0  0  0  0  0  2  0  0  0  0  0  0
  185.8670  178.4680  145.6290 C   0  0  0  0  0  0  0  0  0  0  0  0
  186.7860  178.0030  144.6500 C   0  0  0  0  0  0  0  0  0  0  0  0
  186.3750  177.9140  143.2990 C   0  0  0  0  0  0  0  0  0  0  0  0
  184.5580  178.7880  145.2340 C   0  0  0  0  0  3  0  0  0  0  0  0
  185.0660  178.2400  142.9400 C   0  0  0  0  0  3  0  0  0  0  0  0
  184.1560  178.6680  143.9050 C   0  0  0  0  0  0  0  0  0  0  0  0
  182.7640  179.0130  143.5170 C   0  0  0  0  0  1  0  0  0  0  0  0
  186.2170  178.6560  147.0620 C   0  0  0  0  0  0  0  0  0  0  0  0
  186.9250  177.6910  147.7690 O   0  0  0  0  0  1  0  0  0  0  0  0
  185.8840  179.7170  147.6560 O   0  0  0  0  0  0  0  0  0  0  0  0
  188.1760  177.5710  145.0210 C   0  0  0  0  0  2  0  0  0  0  0  0
  189.1490  178.5470  144.5480 N   0  0  0  0  0  2  0  0  0  0  0  0
  190.4640  178.1290  145.0120 C   0  0  0  0  0  2  0  0  0  0  0  0
  190.5580  176.6120  145.0670 C   0  0  0  0  0  2  0  0  0  0  0  0
  191.8410  176.1930  145.7560 C   0  0  0  0  0  2  0  0  0  0  0  0
  191.5290  175.7060  147.1560 C   0  0  0  0  0  3  0  0  0  0  0  0
  191.8270  176.8150  148.1420 C   0  0  0  0  0  2  0  0  0  0  0  0
  192.8120  175.6780  147.9610 C   0  0  0  0  0  2  0  0  0  0  0  0
  186.0600  178.3220  138.2700 C   0  0  0  0  0  2  0  0  0  0  0  0
  185.6070  177.0250  137.6170 C   0  0  0  0  0  2  0  0  0  0  0  0
  181.7310  176.7070  139.7530 N   0  0  1  0  0  0  0  0  0  0  0  0
  184.3850  175.3600  135.3410 N   0  0  0  0  0  0  0  0  0  0  0  0
  181.4060  175.4680  136.4620 N   0  0  0  0  0  0  0  0  0  0  0  0
  184.1470  177.1400  137.2160 C   0  0  2  0  0  3  0  0  0  0  0  0
  183.3100  176.0790  137.9550 C   0  0  2  0  0  3  0  0  0  0  0  0
  181.0680  176.5620  138.5260 N   0  0  0  0  0  2  0  0  0  0  0  0
  182.0950  174.7030  135.4970 N   0  0  0  0  0  2  0  0  0  0  0  0
  181.9010  176.0600  137.5100 C   0  0  0  0  0  0  0  0  0  0  0  0
  183.9850  177.0780  135.4000 S   0  0  0  0  0  0  0  0  0  0  0  0
  183.1710  176.4690  139.4500 C   0  0  1  0  0  3  0  0  0  0  0  0
  183.5010  174.4200  135.4470 C   0  0  0  0  0  0  0  0  0  0  0  0
  182.6630  177.8380  139.6440 C   0  0  0  0  0  2  0  0  0  0  0  0
  183.9360  173.0100  135.2540 C   0  0  0  0  0  2  0  0  0  0  0  0
  185.3370  172.9300  135.3280 O   0  0  0  0  0  0  0  0  0  0  0  0
  185.8450  173.2520  137.5440 F   0  0  0  0  0  0  0  0  0  0  0  0
  184.6480  171.4620  136.9090 F   0  0  0  0  0  0  0  0  0  0  0  0
  186.8360  171.5530  136.4150 F   0  0  0  0  0  0  0  0  0  0  0  0
  185.6780  172.3070  136.5420 C   0  0  0  0  0  0  0  0  0  0  0  0
  1 49  1  6  0  0  0
  1 28  1  0  0  0  0
  2  3  1  0  0  0  0
  2  1  1  0  0  0  0
  3  4  1  0  0  0  0
  4  5  1  1  0  0  0
  6  9  1  6  0  0  0
  6  4  1  0  0  0  0
  7  8  1  0  0  0  0
  8  6  1  0  0  0  0
  9 10  1  0  0  0  0
 11 14  1  6  0  0  0
 11 10  1  0  0  0  0
 12 11  1  0  0  0  0
 13 12  1  0  0  0  0
 17 15  1  6  0  0  0
 17 22  1  0  0  0  0
 17 20  1  0  0  0  0
 18 25  1  0  0  0  0
 18 16  1  0  0  0  0
 20 23  1  0  0  0  0
 20 21  1  1  0  0  0
 22 15  1  6  0  0  0
 22 25  1  0  0  0  0
 23 21  1  0  0  0  0
 24 19  1  6  0  0  0
 24 17  1  0  0  0  0
 24 20  1  0  0  0  0
 25 16  1  0  0  0  0
 26 25  1  0  0  0  0
 27 14  1  1  0  0  0
 27 24  1  0  0  0  0
 27 26  1  0  0  0  0
 28 29  1  0  0  0  0
 29 30  1  0  0  0  0
 30 33  1  0  0  0  0
 31 38  1  0  0  0  0
 32 41  1  0  0  0  0
 32 31  2  0  0  0  0
 33 32  1  0  0  0  0
 34 31  1  0  0  0  0
 35 33  2  0  0  0  0
 35 36  1  0  0  0  0
 36 34  2  0  0  0  0
 37 36  1  0  0  0  0
 38 40  2  0  0  0  0
 38 39  1  0  0  0  0
 42 43  1  0  0  0  0
 42 41  1  0  0  0  0
 43 44  1  0  0  0  0
 44 45  1  0  0  0  0
 45 46  1  0  0  0  0
 46 48  1  0  0  0  0
 46 47  1  0  0  0  0
 48 47  1  0  0  0  0
 50 49  1  0  0  0  0
 51 62  1  6  0  0  0
 52 59  1  0  0  0  0
 52 61  2  0  0  0  0
 53 58  2  0  0  0  0
 54 50  1  6  0  0  0
 54 55  1  0  0  0  0
 55 58  1  6  0  0  0
 55 60  1  0  0  0  0
 56 51  1  0  0  0  0
 57 53  1  0  0  0  0
 58 56  1  0  0  0  0
 59 54  1  0  0  0  0
 60 62  1  6  0  0  0
 60 51  1  0  0  0  0
 61 57  1  0  0  0  0
 63 64  1  0  0  0  0
 63 61  1  0  0  0  0
 64 68  1  0  0  0  0
 67 68  1  0  0  0  0
 68 66  1  0  0  0  0
 68 65  1  0  0  0  0
M  END
>  <MODEL>
2

>  <REMARK>
 VINA RESULT:      -6.7      1.894      4.509
  Name = 
  28 active torsions:
  status: ('A' for Active; 'I' for Inactive)
    1  A    between atoms: C_5  and  C_13
    2  A    between atoms: C_7  and  C_9
    3  A    between atoms: C_7  and  C_12
    4  A    between atoms: C_8  and  C_18
    5  A    between atoms: C_8  and  C_48
    6  A    between atoms: C_8  and  O_62
    7  A    between atoms: C_11  and  C_25
    8  A    between atoms: C_12  and  C_15
    9  A    between atoms: C_14  and  C_64
   10  A    between atoms: C_15  and  C_59
   11  A    between atoms: C_15  and  O_60
   12  A    between atoms: C_18  and  O_26
   13  A    between atoms: C_21  and  C_33
   14  A    between atoms: C_22  and  C_23
   15  A    between atoms: C_22  and  O_30
   16  A    between atoms: C_22  and  C_37
   17  A    between atoms: C_23  and  C_66
   18  A    between atoms: C_25  and  C_36
   19  A    between atoms: O_26  and  C_59
   20  A    between atoms: C_33  and  C_61
   21  A    between atoms: C_36  and  C_50
   22  A    between atoms: C_37  and  C_48
   23  A    between atoms: N_43  and  C_50
   24  A    between atoms: N_43  and  C_64
   25  A    between atoms: C_47  and  O_58
   26  A    between atoms: C_47  and  C_63
   27  A    between atoms: O_58  and  C_68
   28  A    between atoms: O_60  and  C_61
                            x       y       z     vdW  Elec       q    Type
                         _______ _______ _______ _____ _____    ______ ____

>  <TORSDO>
F 28

$$$$
=
 OpenBabel10232412143D

 68 77  0  0  1  0  0  0  0  0999 V2000
  187.5590  177.6410  139.1170 C   0  0  1  0  0  3  0  0  0  0  0  0
  188.9210  177.0290  138.8130 C   0  0  0  0  0  2  0  0  0  0  0  0
  188.9920  176.6760  137.4630 O   0  0  0  0  0  0  0  0  0  0  0  0
  190.3580  176.5200  137.2010 C   0  0  1  0  0  3  0  0  0  0  0  0
  191.0450  176.0330  138.4710 C   0  0  0  0  0  1  0  0  0  0  0  0
  190.5580  175.5060  136.0630 C   0  0  1  0  0  3  0  0  0  0  0  0
  189.3660  173.5490  136.1830 C   0  0  0  0  0  1  0  0  0  0  0  0
  189.3620  174.8570  135.6760 O   0  0  0  0  0  0  0  0  0  0  0  0
  191.3480  176.0690  134.8730 C   0  0  0  0  0  2  0  0  0  0  0  0
  192.5340  175.1740  134.5380 C   0  0  0  0  0  2  0  0  0  0  0  0
  193.8820  175.7800  134.9250 C   0  0  2  0  0  3  0  0  0  0  0  0
  194.0570  177.0400  134.3460 O   0  0  0  0  0  0  0  0  0  0  0  0
  195.1790  177.4950  134.8620 O   0  0  0  0  0  1  0  0  0  0  0  0
  195.0320  174.8570  134.5520 C   0  0  0  0  0  2  0  0  0  0  0  0
  195.3920  172.4560  138.1050 C   0  0  0  0  0  2  0  0  0  0  0  0
  196.1310  170.0450  135.3340 C   0  0  0  0  0  2  0  0  0  0  0  0
  196.7190  173.0830  137.6410 C   0  0  1  0  0  0  0  0  0  0  0  0
  194.7260  170.1230  135.9060 C   0  0  0  0  0  2  0  0  0  0  0  0
  196.2710  175.3990  137.2010 O   0  0  0  0  0  1  0  0  0  0  0  0
  197.6340  173.4180  136.4120 C   0  0  2  0  0  0  0  0  0  0  0  0
  198.4710  174.6000  135.9930 C   0  0  0  0  0  2  0  0  0  0  0  0
  196.3160  171.6070  137.3250 C   0  0  2  0  0  3  0  0  0  0  0  0
  198.7690  173.8910  137.1290 O   0  0  0  0  0  0  0  0  0  0  0  0
  196.2890  174.1150  136.6340 C   0  0  1  0  0  0  0  0  0  0  0  0
  195.6450  171.3270  135.9660 C   0  0  0  0  0  0  0  0  0  0  0  0
  195.3770  172.4220  134.9370 C   0  0  0  0  0  2  0  0  0  0  0  0
  195.1720  173.7790  135.6130 C   0  0  2  0  0  3  0  0  0  0  0  0
  187.7090  178.8590  139.7900 O   0  0  0  0  0  0  0  0  0  0  0  0
  188.4680  178.5510  140.9210 C   0  0  0  0  0  2  0  0  0  0  0  0
  187.5850  177.9520  142.0000 C   0  0  0  0  0  2  0  0  0  0  0  0
  188.7060  177.4850  145.6370 C   0  0  0  0  0  0  0  0  0  0  0  0
  187.9340  177.8940  144.5170 C   0  0  0  0  0  0  0  0  0  0  0  0
  188.3890  177.5920  143.2110 C   0  0  0  0  0  0  0  0  0  0  0  0
  189.9270  176.8270  145.4150 C   0  0  0  0  0  3  0  0  0  0  0  0
  189.6080  176.9360  143.0270 C   0  0  0  0  0  3  0  0  0  0  0  0
  190.3790  176.5610  144.1250 C   0  0  0  0  0  0  0  0  0  0  0  0
  191.6750  175.8630  143.9220 C   0  0  0  0  0  1  0  0  0  0  0  0
  188.2870  177.6980  147.0470 C   0  0  0  0  0  0  0  0  0  0  0  0
  189.2190  177.9100  148.0580 O   0  0  0  0  0  1  0  0  0  0  0  0
  187.0630  177.7060  147.3440 O   0  0  0  0  0  0  0  0  0  0  0  0
  186.6580  178.6700  144.6840 C   0  0  0  0  0  2  0  0  0  0  0  0
  185.5190  177.8620  144.2680 N   0  0  0  0  0  2  0  0  0  0  0  0
  184.3610  178.7380  144.1730 C   0  0  0  0  0  2  0  0  0  0  0  0
  183.7780  178.7090  142.7690 C   0  0  0  0  0  2  0  0  0  0  0  0
  182.3740  179.2810  142.7750 C   0  0  0  0  0  2  0  0  0  0  0  0
  181.3700  178.1570  142.9360 C   0  0  0  0  0  3  0  0  0  0  0  0
  179.9820  178.6900  142.6540 C   0  0  0  0  0  2  0  0  0  0  0  0
  180.4400  178.4930  144.0840 C   0  0  0  0  0  2  0  0  0  0  0  0
  186.7580  177.8370  137.8330 C   0  0  0  0  0  2  0  0  0  0  0  0
  185.5790  176.8790  137.7550 C   0  0  0  0  0  2  0  0  0  0  0  0
  182.0890  179.2750  139.0860 N   0  0  1  0  0  0  0  0  0  0  0  0
  183.7030  175.3860  135.8310 N   0  0  0  0  0  0  0  0  0  0  0  0
  181.2210  177.3330  136.2670 N   0  0  0  0  0  0  0  0  0  0  0  0
  184.4150  177.5610  137.0580 C   0  0  2  0  0  3  0  0  0  0  0  0
  183.1240  177.3800  137.8800 C   0  0  2  0  0  3  0  0  0  0  0  0
  181.4770  179.0740  137.8410 N   0  0  0  0  0  2  0  0  0  0  0  0
  181.4140  176.0530  135.7060 N   0  0  0  0  0  2  0  0  0  0  0  0
  181.9340  177.9150  137.1880 C   0  0  0  0  0  0  0  0  0  0  0  0
  184.2830  176.9780  135.3350 S   0  0  0  0  0  0  0  0  0  0  0  0
  183.1850  178.2670  139.1510 C   0  0  1  0  0  3  0  0  0  0  0  0
  182.4520  175.1110  136.0160 C   0  0  0  0  0  0  0  0  0  0  0  0
  183.4840  179.6790  138.8560 C   0  0  0  0  0  2  0  0  0  0  0  0
  182.0700  173.7030  136.3080 C   0  0  0  0  0  2  0  0  0  0  0  0
  183.2190  172.8950  136.3440 O   0  0  0  0  0  0  0  0  0  0  0  0
  182.3330  171.1740  137.5790 F   0  0  0  0  0  0  0  0  0  0  0  0
  181.7880  171.4070  135.4140 F   0  0  0  0  0  0  0  0  0  0  0  0
  183.8510  170.7090  135.9590 F   0  0  0  0  0  0  0  0  0  0  0  0
  182.8100  171.5490  136.3320 C   0  0  0  0  0  0  0  0  0  0  0  0
  1 49  1  6  0  0  0
  1 28  1  0  0  0  0
  2  1  1  0  0  0  0
  3  2  1  0  0  0  0
  4  3  1  0  0  0  0
  4  5  1  1  0  0  0
  6  9  1  6  0  0  0
  6  4  1  0  0  0  0
  8  6  1  0  0  0  0
  8  7  1  0  0  0  0
 10  9  1  0  0  0  0
 11 10  1  6  0  0  0
 12 13  1  0  0  0  0
 12 11  1  0  0  0  0
 14 11  1  0  0  0  0
 16 18  1  0  0  0  0
 16 25  1  0  0  0  0
 17 15  1  1  0  0  0
 18 25  1  0  0  0  0
 20 21  1  6  0  0  0
 20 24  1  0  0  0  0
 20 23  1  0  0  0  0
 20 17  1  0  0  0  0
 21 23  1  0  0  0  0
 22 17  1  0  0  0  0
 22 15  1  1  0  0  0
 24 19  1  1  0  0  0
 24 17  1  0  0  0  0
 25 22  1  0  0  0  0
 26 27  1  0  0  0  0
 26 25  1  0  0  0  0
 27 14  1  6  0  0  0
 27 24  1  0  0  0  0
 28 29  1  0  0  0  0
 29 30  1  0  0  0  0
 30 33  1  0  0  0  0
 31 38  1  0  0  0  0
 32 41  1  0  0  0  0
 32 31  2  0  0  0  0
 33 32  1  0  0  0  0
 34 31  1  0  0  0  0
 35 33  2  0  0  0  0
 35 36  1  0  0  0  0
 36 34  2  0  0  0  0
 37 36  1  0  0  0  0
 38 40  2  0  0  0  0
 38 39  1  0  0  0  0
 42 41  1  0  0  0  0
 43 42  1  0  0  0  0
 44 45  1  0  0  0  0
 44 43  1  0  0  0  0
 45 46  1  0  0  0  0
 46 48  1  0  0  0  0
 47 46  1  0  0  0  0
 47 48  1  0  0  0  0
 50 49  1  0  0  0  0
 51 62  1  6  0  0  0
 51 60  1  0  0  0  0
 52 61  2  0  0  0  0
 53 58  2  0  0  0  0
 54 50  1  1  0  0  0
 54 55  1  0  0  0  0
 55 58  1  6  0  0  0
 55 60  1  0  0  0  0
 56 51  1  0  0  0  0
 57 61  1  0  0  0  0
 57 53  1  0  0  0  0
 58 56  1  0  0  0  0
 59 52  1  0  0  0  0
 59 54  1  0  0  0  0
 60 62  1  6  0  0  0
 61 63  1  0  0  0  0
 63 64  1  0  0  0  0
 66 68  1  0  0  0  0
 67 68  1  0  0  0  0
 68 64  1  0  0  0  0
 68 65  1  0  0  0  0
M  END
>  <MODEL>
3

>  <REMARK>
 VINA RESULT:      -5.8      1.555      2.271
  Name = 
  28 active torsions:
  status: ('A' for Active; 'I' for Inactive)
    1  A    between atoms: C_5  and  C_13
    2  A    between atoms: C_7  and  C_9
    3  A    between atoms: C_7  and  C_12
    4  A    between atoms: C_8  and  C_18
    5  A    between atoms: C_8  and  C_48
    6  A    between atoms: C_8  and  O_62
    7  A    between atoms: C_11  and  C_25
    8  A    between atoms: C_12  and  C_15
    9  A    between atoms: C_14  and  C_64
   10  A    between atoms: C_15  and  C_59
   11  A    between atoms: C_15  and  O_60
   12  A    between atoms: C_18  and  O_26
   13  A    between atoms: C_21  and  C_33
   14  A    between atoms: C_22  and  C_23
   15  A    between atoms: C_22  and  O_30
   16  A    between atoms: C_22  and  C_37
   17  A    between atoms: C_23  and  C_66
   18  A    between atoms: C_25  and  C_36
   19  A    between atoms: O_26  and  C_59
   20  A    between atoms: C_33  and  C_61
   21  A    between atoms: C_36  and  C_50
   22  A    between atoms: C_37  and  C_48
   23  A    between atoms: N_43  and  C_50
   24  A    between atoms: N_43  and  C_64
   25  A    between atoms: C_47  and  O_58
   26  A    between atoms: C_47  and  C_63
   27  A    between atoms: O_58  and  C_68
   28  A    between atoms: O_60  and  C_61
                            x       y       z     vdW  Elec       q    Type
                         _______ _______ _______ _____ _____    ______ ____

>  <TORSDO>
F 28

$$$$
=
 OpenBabel10232412143D

 68 77  0  0  1  0  0  0  0  0999 V2000
  188.1420  177.7950  140.5360 C   0  0  1  0  0  3  0  0  0  0  0  0
  189.0370  178.0080  139.3210 C   0  0  0  0  0  2  0  0  0  0  0  0
  188.6850  177.1100  138.3100 O   0  0  0  0  0  0  0  0  0  0  0  0
  189.8710  176.8790  137.6020 C   0  0  1  0  0  3  0  0  0  0  0  0
  190.9100  176.3160  138.5640 C   0  0  0  0  0  1  0  0  0  0  0  0
  189.6090  175.8870  136.4570 C   0  0  1  0  0  3  0  0  0  0  0  0
  187.9870  174.2730  136.6210 C   0  0  0  0  0  1  0  0  0  0  0  0
  188.2370  175.6060  136.2630 O   0  0  0  0  0  0  0  0  0  0  0  0
  190.3380  176.2500  135.1550 C   0  0  0  0  0  2  0  0  0  0  0  0
  191.8230  175.9240  135.2560 C   0  0  0  0  0  2  0  0  0  0  0  0
  192.1410  174.4500  135.0190 C   0  0  2  0  0  3  0  0  0  0  0  0
  191.7090  173.6590  136.0880 O   0  0  0  0  0  0  0  0  0  0  0  0
  191.0470  172.6690  135.5290 O   0  0  0  0  0  1  0  0  0  0  0  0
  193.6250  174.2360  134.7630 C   0  0  0  0  0  2  0  0  0  0  0  0
  195.2360  173.5680  138.6980 C   0  0  0  0  0  2  0  0  0  0  0  0
  196.6750  170.7660  136.6700 C   0  0  0  0  0  2  0  0  0  0  0  0
  196.1430  174.4210  137.7910 C   0  0  1  0  0  0  0  0  0  0  0  0
  195.4150  170.5320  137.4860 C   0  0  0  0  0  2  0  0  0  0  0  0
  194.7430  176.0970  136.7970 O   0  0  0  0  0  1  0  0  0  0  0  0
  196.7320  174.6000  136.3490 C   0  0  2  0  0  0  0  0  0  0  0  0
  196.9690  175.7690  135.4280 C   0  0  0  0  0  2  0  0  0  0  0  0
  196.3610  172.8910  138.0200 C   0  0  2  0  0  3  0  0  0  0  0  0
  197.6260  175.6720  136.6280 O   0  0  0  0  0  0  0  0  0  0  0  0
  195.2430  174.7950  136.6440 C   0  0  1  0  0  0  0  0  0  0  0  0
  195.7560  171.9230  136.9860 C   0  0  0  0  0  0  0  0  0  0  0  0
  194.9760  172.4010  135.7650 C   0  0  0  0  0  2  0  0  0  0  0  0
  194.2850  173.7380  136.0380 C   0  0  2  0  0  3  0  0  0  0  0  0
  188.8590  178.0140  141.7160 O   0  0  0  0  0  0  0  0  0  0  0  0
  189.6040  176.8480  141.9040 C   0  0  0  0  0  2  0  0  0  0  0  0
  191.0100  177.1880  142.3580 C   0  0  0  0  0  2  0  0  0  0  0  0
  191.2930  176.4750  146.1160 C   0  0  0  0  0  0  0  0  0  0  0  0
  191.0250  177.1600  144.9000 C   0  0  0  0  0  0  0  0  0  0  0  0
  191.3240  176.5320  143.6680 C   0  0  0  0  0  0  0  0  0  0  0  0
  191.8910  175.2050  146.0610 C   0  0  0  0  0  3  0  0  0  0  0  0
  191.9180  175.2680  143.6500 C   0  0  0  0  0  3  0  0  0  0  0  0
  192.2080  174.6090  144.8420 C   0  0  0  0  0  0  0  0  0  0  0  0
  192.8400  173.2640  144.8170 C   0  0  0  0  0  1  0  0  0  0  0  0
  190.9600  177.0200  147.4580 C   0  0  0  0  0  0  0  0  0  0  0  0
  189.6490  177.0630  147.9200 O   0  0  0  0  0  0  0  0  0  0  0  0
  191.8790  177.4430  148.2100 O   0  0  0  0  0  1  0  0  0  0  0  0
  190.4600  178.5530  144.8920 C   0  0  0  0  0  2  0  0  0  0  0  0
  189.1130  178.5510  145.4480 N   0  0  0  0  0  2  0  0  0  0  0  0
  188.2300  177.9230  144.4760 C   0  0  0  0  0  2  0  0  0  0  0  0
  186.9520  177.4390  145.1440 C   0  0  0  0  0  2  0  0  0  0  0  0
  186.0930  178.6220  145.5460 C   0  0  0  0  0  2  0  0  0  0  0  0
  185.6180  178.4410  146.9740 C   0  0  0  0  0  3  0  0  0  0  0  0
  185.8920  179.7110  147.7500 C   0  0  0  0  0  2  0  0  0  0  0  0
  186.8140  178.5190  147.9010 C   0  0  0  0  0  2  0  0  0  0  0  0
  186.9240  178.7120  140.4740 C   0  0  0  0  0  2  0  0  0  0  0  0
  185.8470  178.2830  141.4600 C   0  0  0  0  0  2  0  0  0  0  0  0
  182.0300  179.0050  143.6040 N   0  0  1  0  0  0  0  0  0  0  0  0
  184.2030  177.5920  138.9570 N   0  0  0  0  0  0  0  0  0  0  0  0
  181.4170  178.5620  140.1550 N   0  0  0  0  0  0  0  0  0  0  0  0
  184.5420  178.9810  141.1240 C   0  0  2  0  0  3  0  0  0  0  0  0
  183.3520  178.1790  141.6830 C   0  0  2  0  0  3  0  0  0  0  0  0
  181.4090  179.3250  142.3890 N   0  0  0  0  0  2  0  0  0  0  0  0
  181.8260  177.7830  139.0520 N   0  0  0  0  0  2  0  0  0  0  0  0
  182.0480  178.7440  141.2790 C   0  0  0  0  0  0  0  0  0  0  0  0
  184.4420  179.3000  139.3310 S   0  0  0  0  0  0  0  0  0  0  0  0
  183.3010  178.3250  143.2270 C   0  0  1  0  0  3  0  0  0  0  0  0
  183.0390  177.0290  138.9170 C   0  0  0  0  0  0  0  0  0  0  0  0
  183.3090  179.7280  143.6740 C   0  0  0  0  0  2  0  0  0  0  0  0
  182.9500  175.6130  138.4650 C   0  0  0  0  0  2  0  0  0  0  0  0
  184.2310  175.1360  138.1400 O   0  0  0  0  0  0  0  0  0  0  0  0
  184.4770  173.9970  136.1610 F   0  0  0  0  0  0  0  0  0  0  0  0
  184.8960  172.9710  138.1130 F   0  0  0  0  0  0  0  0  0  0  0  0
  182.7740  173.4440  137.5540 F   0  0  0  0  0  0  0  0  0  0  0  0
  184.0850  173.8970  137.4870 C   0  0  0  0  0  0  0  0  0  0  0  0
  1  2  1  6  0  0  0
  1 28  1  0  0  0  0
  3  2  1  0  0  0  0
  4  3  1  0  0  0  0
  4  5  1  1  0  0  0
  6  9  1  6  0  0  0
  6  4  1  0  0  0  0
  8  6  1  0  0  0  0
  8  7  1  0  0  0  0
  9 10  1  0  0  0  0
 11 14  1  1  0  0  0
 11 10  1  0  0  0  0
 11 12  1  0  0  0  0
 13 12  1  0  0  0  0
 16 25  1  0  0  0  0
 16 18  1  0  0  0  0
 17 22  1  0  0  0  0
 17 15  1  1  0  0  0
 20 21  1  6  0  0  0
 20 23  1  0  0  0  0
 20 24  1  0  0  0  0
 20 17  1  0  0  0  0
 21 23  1  0  0  0  0
 22 15  1  1  0  0  0
 24 19  1  6  0  0  0
 24 17  1  0  0  0  0
 25 18  1  0  0  0  0
 25 22  1  0  0  0  0
 26 27  1  0  0  0  0
 26 25  1  0  0  0  0
 27 14  1  6  0  0  0
 27 24  1  0  0  0  0
 28 29  1  0  0  0  0
 29 30  1  0  0  0  0
 30 33  1  0  0  0  0
 31 38  1  0  0  0  0
 32 31  2  0  0  0  0
 33 32  1  0  0  0  0
 34 31  1  0  0  0  0
 35 33  2  0  0  0  0
 35 36  1  0  0  0  0
 36 34  2  0  0  0  0
 37 36  1  0  0  0  0
 38 39  2  0  0  0  0
 38 40  1  0  0  0  0
 41 32  1  0  0  0  0
 41 42  1  0  0  0  0
 43 44  1  0  0  0  0
 43 42  1  0  0  0  0
 44 45  1  0  0  0  0
 45 46  1  0  0  0  0
 46 47  1  0  0  0  0
 46 48  1  0  0  0  0
 47 48  1  0  0  0  0
 49  1  1  0  0  0  0
 49 50  1  0  0  0  0
 51 62  1  6  0  0  0
 52 59  1  0  0  0  0
 53 58  2  0  0  0  0
 54 50  1  6  0  0  0
 54 55  1  0  0  0  0
 55 58  1  6  0  0  0
 55 60  1  0  0  0  0
 56 51  1  0  0  0  0
 57 53  1  0  0  0  0
 58 56  1  0  0  0  0
 59 54  1  0  0  0  0
 60 51  1  0  0  0  0
 60 62  1  6  0  0  0
 61 52  2  0  0  0  0
 61 57  1  0  0  0  0
 63 61  1  0  0  0  0
 64 63  1  0  0  0  0
 65 68  1  0  0  0  0
 68 67  1  0  0  0  0
 68 66  1  0  0  0  0
 68 64  1  0  0  0  0
M  END
>  <MODEL>
4

>  <REMARK>
 VINA RESULT:      -5.6      1.718      2.694
  Name = 
  28 active torsions:
  status: ('A' for Active; 'I' for Inactive)
    1  A    between atoms: C_5  and  C_13
    2  A    between atoms: C_7  and  C_9
    3  A    between atoms: C_7  and  C_12
    4  A    between atoms: C_8  and  C_18
    5  A    between atoms: C_8  and  C_48
    6  A    between atoms: C_8  and  O_62
    7  A    between atoms: C_11  and  C_25
    8  A    between atoms: C_12  and  C_15
    9  A    between atoms: C_14  and  C_64
   10  A    between atoms: C_15  and  C_59
   11  A    between atoms: C_15  and  O_60
   12  A    between atoms: C_18  and  O_26
   13  A    between atoms: C_21  and  C_33
   14  A    between atoms: C_22  and  C_23
   15  A    between atoms: C_22  and  O_30
   16  A    between atoms: C_22  and  C_37
   17  A    between atoms: C_23  and  C_66
   18  A    between atoms: C_25  and  C_36
   19  A    between atoms: O_26  and  C_59
   20  A    between atoms: C_33  and  C_61
   21  A    between atoms: C_36  and  C_50
   22  A    between atoms: C_37  and  C_48
   23  A    between atoms: N_43  and  C_50
   24  A    between atoms: N_43  and  C_64
   25  A    between atoms: C_47  and  O_58
   26  A    between atoms: C_47  and  C_63
   27  A    between atoms: O_58  and  C_68
   28  A    between atoms: O_60  and  C_61
                            x       y       z     vdW  Elec       q    Type
                         _______ _______ _______ _____ _____    ______ ____

>  <TORSDO>
F 28

$$$$
=
 OpenBabel10232412143D

 68 77  0  0  1  0  0  0  0  0999 V2000
  191.4760  176.2580  138.8540 C   0  0  1  0  0  3  0  0  0  0  0  0
  191.0420  175.8640  137.4470 C   0  0  0  0  0  2  0  0  0  0  0  0
  190.3000  174.6810  137.4950 O   0  0  0  0  0  0  0  0  0  0  0  0
  189.8060  174.5110  136.1960 C   0  0  1  0  0  3  0  0  0  0  0  0
  189.6620  173.0190  135.9210 C   0  0  0  0  0  1  0  0  0  0  0  0
  188.4460  175.2140  136.0590 C   0  0  1  0  0  3  0  0  0  0  0  0
  187.4780  176.4330  134.3740 C   0  0  0  0  0  1  0  0  0  0  0  0
  187.9150  175.1540  134.7500 O   0  0  0  0  0  0  0  0  0  0  0  0
  187.4330  174.8030  137.1370 C   0  0  0  0  0  2  0  0  0  0  0  0
  186.3810  173.8630  136.5630 C   0  0  0  0  0  2  0  0  0  0  0  0
  185.0090  174.0110  137.2160 C   0  0  2  0  0  3  0  0  0  0  0  0
  184.2370  172.8600  137.0430 O   0  0  0  0  0  0  0  0  0  0  0  0
  185.0690  171.9650  136.5540 O   0  0  0  0  0  1  0  0  0  0  0  0
  184.2720  175.2320  136.6880 C   0  0  0  0  0  2  0  0  0  0  0  0
  180.9040  175.7500  139.3160 C   0  0  0  0  0  2  0  0  0  0  0  0
  182.7490  178.9990  139.5990 C   0  0  0  0  0  2  0  0  0  0  0  0
  180.6550  176.2490  137.8810 C   0  0  1  0  0  0  0  0  0  0  0  0
  182.9870  177.9070  140.6290 C   0  0  0  0  0  2  0  0  0  0  0  0
  181.4010  174.5070  136.4080 O   0  0  0  0  0  1  0  0  0  0  0  0
  181.2560  177.0210  136.6560 C   0  0  2  0  0  0  0  0  0  0  0  0
  181.2540  176.8240  135.1610 C   0  0  0  0  0  2  0  0  0  0  0  0
  181.0450  177.1980  139.0590 C   0  0  2  0  0  3  0  0  0  0  0  0
  180.0860  177.0520  135.8440 O   0  0  0  0  0  0  0  0  0  0  0  0
  181.7990  175.6620  137.1000 C   0  0  1  0  0  0  0  0  0  0  0  0
  182.5350  177.5510  139.2260 C   0  0  0  0  0  0  0  0  0  0  0  0
  183.6190  177.0200  138.2920 C   0  0  0  0  0  2  0  0  0  0  0  0
  183.2280  175.6640  137.7030 C   0  0  2  0  0  3  0  0  0  0  0  0
  192.8340  176.5940  138.8710 O   0  0  0  0  0  0  0  0  0  0  0  0
  193.3690  175.9730  137.7390 C   0  0  0  0  0  2  0  0  0  0  0  0
  193.9180  174.6060  138.0990 C   0  0  0  0  0  2  0  0  0  0  0  0
  197.7030  174.6140  137.4850 C   0  0  0  0  0  0  0  0  0  0  0  0
  196.3080  174.5010  137.2410 C   0  0  0  0  0  0  0  0  0  0  0  0
  195.3990  174.6610  138.3130 C   0  0  0  0  0  0  0  0  0  0  0  0
  198.1460  174.8410  138.7980 C   0  0  0  0  0  3  0  0  0  0  0  0
  195.8730  174.8860  139.6070 C   0  0  0  0  0  3  0  0  0  0  0  0
  197.2420  174.9680  139.8510 C   0  0  0  0  0  0  0  0  0  0  0  0
  197.7410  175.2080  141.2310 C   0  0  0  0  0  1  0  0  0  0  0  0
  198.7350  174.5230  136.4190 C   0  0  0  0  0  0  0  0  0  0  0  0
  199.8080  173.6440  136.5190 O   0  0  0  0  0  1  0  0  0  0  0  0
  198.6390  175.2430  135.3880 O   0  0  0  0  0  0  0  0  0  0  0  0
  195.7740  174.1800  135.8730 C   0  0  0  0  0  2  0  0  0  0  0  0
  194.9470  172.9810  135.9240 N   0  0  0  0  0  2  0  0  0  0  0  0
  195.7140  171.8860  135.3490 C   0  0  0  0  0  2  0  0  0  0  0  0
  194.8740  170.6200  135.2780 C   0  0  0  0  0  2  0  0  0  0  0  0
  194.9750  169.8520  136.5810 C   0  0  0  0  0  2  0  0  0  0  0  0
  196.3080  169.1340  136.6440 C   0  0  0  0  0  3  0  0  0  0  0  0
  196.1720  167.9170  137.5340 C   0  0  0  0  0  2  0  0  0  0  0  0
  196.8200  169.1770  138.0690 C   0  0  0  0  0  2  0  0  0  0  0  0
  190.6340  177.4210  139.3710 C   0  0  0  0  0  2  0  0  0  0  0  0
  190.6310  177.4800  140.8910 C   0  0  0  0  0  2  0  0  0  0  0  0
  186.4500  178.9670  140.8240 N   0  0  1  0  0  0  0  0  0  0  0  0
  190.2090  176.7020  143.8350 N   0  0  0  0  0  0  0  0  0  0  0  0
  187.0670  177.2210  143.8310 N   0  0  0  0  0  0  0  0  0  0  0  0
  189.3000  176.9700  141.4170 C   0  0  2  0  0  3  0  0  0  0  0  0
  188.4720  178.1390  141.9840 C   0  0  2  0  0  3  0  0  0  0  0  0
  186.1140  178.0640  141.8430 N   0  0  0  0  0  2  0  0  0  0  0  0
  188.0590  177.0370  144.8170 N   0  0  0  0  0  2  0  0  0  0  0  0
  187.2200  177.6850  142.6240 C   0  0  0  0  0  0  0  0  0  0  0  0
  189.5710  175.6110  142.6030 S   0  0  0  0  0  0  0  0  0  0  0  0
  187.9400  179.0160  140.8210 C   0  0  1  0  0  3  0  0  0  0  0  0
  189.4640  177.3060  144.7040 C   0  0  0  0  0  0  0  0  0  0  0  0
  187.2160  178.2420  139.7990 C   0  0  0  0  0  2  0  0  0  0  0  0
  190.1250  178.1000  145.7750 C   0  0  0  0  0  2  0  0  0  0  0  0
  189.1950  178.4050  146.7840 O   0  0  0  0  0  0  0  0  0  0  0  0
  188.8050  176.3720  147.7800 F   0  0  0  0  0  0  0  0  0  0  0  0
  190.8270  177.3360  147.9350 F   0  0  0  0  0  0  0  0  0  0  0  0
  189.1050  178.2060  149.0820 F   0  0  0  0  0  0  0  0  0  0  0  0
  189.4690  177.5850  147.8950 C   0  0  0  0  0  0  0  0  0  0  0  0
  1  2  1  6  0  0  0
  1 28  1  0  0  0  0
  1 49  1  0  0  0  0
  2  3  1  0  0  0  0
  4  5  1  1  0  0  0
  4  3  1  0  0  0  0
  6  4  1  0  0  0  0
  6  9  1  1  0  0  0
  7  8  1  0  0  0  0
  8  6  1  0  0  0  0
 10  9  1  0  0  0  0
 11 10  1  6  0  0  0
 12 11  1  0  0  0  0
 13 12  1  0  0  0  0
 14 11  1  0  0  0  0
 16 18  1  0  0  0  0
 17 22  1  0  0  0  0
 17 15  1  6  0  0  0
 20 21  1  1  0  0  0
 20 24  1  0  0  0  0
 20 17  1  0  0  0  0
 21 23  1  0  0  0  0
 22 25  1  0  0  0  0
 22 15  1  1  0  0  0
 23 20  1  0  0  0  0
 24 19  1  6  0  0  0
 24 27  1  0  0  0  0
 24 17  1  0  0  0  0
 25 16  1  0  0  0  0
 25 18  1  0  0  0  0
 26 25  1  0  0  0  0
 27 14  1  6  0  0  0
 27 26  1  0  0  0  0
 29 30  1  0  0  0  0
 29 28  1  0  0  0  0
 30 33  1  0  0  0  0
 31 34  1  0  0  0  0
 32 31  2  0  0  0  0
 32 33  1  0  0  0  0
 33 35  2  0  0  0  0
 34 36  2  0  0  0  0
 35 36  1  0  0  0  0
 36 37  1  0  0  0  0
 38 39  1  0  0  0  0
 38 31  1  0  0  0  0
 40 38  2  0  0  0  0
 41 42  1  0  0  0  0
 41 32  1  0  0  0  0
 43 42  1  0  0  0  0
 44 43  1  0  0  0  0
 44 45  1  0  0  0  0
 45 46  1  0  0  0  0
 46 47  1  0  0  0  0
 46 48  1  0  0  0  0
 47 48  1  0  0  0  0
 49 50  1  0  0  0  0
 51 62  1  6  0  0  0
 51 56  1  0  0  0  0
 52 61  2  0  0  0  0
 53 57  1  0  0  0  0
 54 50  1  1  0  0  0
 54 55  1  0  0  0  0
 54 59  1  0  0  0  0
 55 58  1  6  0  0  0
 56 58  1  0  0  0  0
 58 53  2  0  0  0  0
 59 52  1  0  0  0  0
 60 62  1  6  0  0  0
 60 51  1  0  0  0  0
 60 55  1  0  0  0  0
 61 57  1  0  0  0  0
 61 63  1  0  0  0  0
 63 64  1  0  0  0  0
 64 68  1  0  0  0  0
 65 68  1  0  0  0  0
 68 66  1  0  0  0  0
 68 67  1  0  0  0  0
M  END
>  <MODEL>
5

>  <REMARK>
 VINA RESULT:      -5.2      3.720     11.513
  Name = 
  28 active torsions:
  status: ('A' for Active; 'I' for Inactive)
    1  A    between atoms: C_5  and  C_13
    2  A    between atoms: C_7  and  C_9
    3  A    between atoms: C_7  and  C_12
    4  A    between atoms: C_8  and  C_18
    5  A    between atoms: C_8  and  C_48
    6  A    between atoms: C_8  and  O_62
    7  A    between atoms: C_11  and  C_25
    8  A    between atoms: C_12  and  C_15
    9  A    between atoms: C_14  and  C_64
   10  A    between atoms: C_15  and  C_59
   11  A    between atoms: C_15  and  O_60
   12  A    between atoms: C_18  and  O_26
   13  A    between atoms: C_21  and  C_33
   14  A    between atoms: C_22  and  C_23
   15  A    between atoms: C_22  and  O_30
   16  A    between atoms: C_22  and  C_37
   17  A    between atoms: C_23  and  C_66
   18  A    between atoms: C_25  and  C_36
   19  A    between atoms: O_26  and  C_59
   20  A    between atoms: C_33  and  C_61
   21  A    between atoms: C_36  and  C_50
   22  A    between atoms: C_37  and  C_48
   23  A    between atoms: N_43  and  C_50
   24  A    between atoms: N_43  and  C_64
   25  A    between atoms: C_47  and  O_58
   26  A    between atoms: C_47  and  C_63
   27  A    between atoms: O_58  and  C_68
   28  A    between atoms: O_60  and  C_61
                            x       y       z     vdW  Elec       q    Type
                         _______ _______ _______ _____ _____    ______ ____

>  <TORSDO>
F 28

$$$$
=
 OpenBabel10232412143D

 68 77  0  0  1  0  0  0  0  0999 V2000
  187.5480  177.3320  139.1970 C   0  0  1  0  0  3  0  0  0  0  0  0
  189.0510  177.0830  139.2050 C   0  0  0  0  0  2  0  0  0  0  0  0
  189.5660  177.2450  137.9160 O   0  0  0  0  0  0  0  0  0  0  0  0
  190.9510  177.1010  138.0590 C   0  0  1  0  0  3  0  0  0  0  0  0
  191.2440  176.5620  139.4530 C   0  0  0  0  0  1  0  0  0  0  0  0
  191.4870  176.1360  136.9890 C   0  0  1  0  0  3  0  0  0  0  0  0
  191.5610  176.1100  134.6960 C   0  0  0  0  0  1  0  0  0  0  0  0
  190.7080  176.1190  135.8090 O   0  0  0  0  0  0  0  0  0  0  0  0
  192.9890  176.3000  136.7140 C   0  0  0  0  0  2  0  0  0  0  0  0
  193.6650  174.9440  136.5650 C   0  0  0  0  0  2  0  0  0  0  0  0
  195.1680  175.0360  136.3120 C   0  0  2  0  0  3  0  0  0  0  0  0
  195.5680  176.3600  136.1080 O   0  0  0  0  0  0  0  0  0  0  0  0
  194.9120  176.7490  135.0350 O   0  0  0  0  0  1  0  0  0  0  0  0
  195.5870  174.1660  135.1370 C   0  0  0  0  0  2  0  0  0  0  0  0
  199.1590  171.7850  135.4440 C   0  0  0  0  0  2  0  0  0  0  0  0
  199.5390  174.3010  138.1940 C   0  0  0  0  0  2  0  0  0  0  0  0
  198.0030  171.2890  136.3310 C   0  0  1  0  0  0  0  0  0  0  0  0
  200.1980  174.5540  136.8490 C   0  0  0  0  0  2  0  0  0  0  0  0
  196.0460  171.2330  134.9450 O   0  0  0  0  0  1  0  0  0  0  0  0
  196.8420  171.7060  137.3000 C   0  0  2  0  0  0  0  0  0  0  0  0
  195.4120  171.2760  137.5020 C   0  0  0  0  0  2  0  0  0  0  0  0
  199.1780  172.1660  136.8720 C   0  0  2  0  0  3  0  0  0  0  0  0
  196.4480  170.4030  137.7150 O   0  0  0  0  0  0  0  0  0  0  0  0
  196.8090  172.0370  135.8060 C   0  0  1  0  0  0  0  0  0  0  0  0
  198.9560  173.6880  136.9430 C   0  0  0  0  0  0  0  0  0  0  0  0
  197.6480  174.3530  136.5200 C   0  0  0  0  0  2  0  0  0  0  0  0
  196.9380  173.5380  135.4380 C   0  0  2  0  0  3  0  0  0  0  0  0
  187.2330  178.4510  139.9760 O   0  0  0  0  0  0  0  0  0  0  0  0
  188.1410  178.4140  141.0370 C   0  0  0  0  0  2  0  0  0  0  0  0
  187.4690  177.8740  142.2850 C   0  0  0  0  0  2  0  0  0  0  0  0
  188.8580  177.7140  145.8560 C   0  0  0  0  0  0  0  0  0  0  0  0
  187.9340  177.6850  144.7770 C   0  0  0  0  0  0  0  0  0  0  0  0
  188.3910  177.9460  143.4640 C   0  0  0  0  0  0  0  0  0  0  0  0
  190.1970  178.0430  145.5940 C   0  0  0  0  0  3  0  0  0  0  0  0
  189.7310  178.2700  143.2380 C   0  0  0  0  0  3  0  0  0  0  0  0
  190.6300  178.3260  144.3000 C   0  0  0  0  0  0  0  0  0  0  0  0
  192.0550  178.6710  144.0540 C   0  0  0  0  0  1  0  0  0  0  0  0
  188.4910  177.3950  147.2610 C   0  0  0  0  0  0  0  0  0  0  0  0
  188.2130  176.0930  147.6620 O   0  0  0  0  0  0  0  0  0  0  0  0
  188.4430  178.3150  148.1220 O   0  0  0  0  0  1  0  0  0  0  0  0
  186.4720  177.4180  145.0020 C   0  0  0  0  0  2  0  0  0  0  0  0
  185.9910  178.1830  146.1450 N   0  0  0  0  0  2  0  0  0  0  0  0
  184.8130  178.9250  145.7230 C   0  0  0  0  0  2  0  0  0  0  0  0
  184.2850  178.3900  144.4010 C   0  0  0  0  0  2  0  0  0  0  0  0
  183.4080  179.4280  143.7300 C   0  0  0  0  0  2  0  0  0  0  0  0
  183.5790  179.3420  142.2270 C   0  0  0  0  0  3  0  0  0  0  0  0
  182.6570  178.2710  141.6850 C   0  0  0  0  0  2  0  0  0  0  0  0
  184.1300  177.9750  141.8750 C   0  0  0  0  0  2  0  0  0  0  0  0
  187.0400  177.5160  137.7700 C   0  0  0  0  0  2  0  0  0  0  0  0
  185.9020  176.5590  137.4500 C   0  0  0  0  0  2  0  0  0  0  0  0
  182.0030  178.5760  138.1010 N   0  0  1  0  0  0  0  0  0  0  0  0
  184.6840  175.2050  134.9740 N   0  0  0  0  0  0  0  0  0  0  0  0
  182.0140  176.9410  134.9700 N   0  0  0  0  0  0  0  0  0  0  0  0
  184.8890  177.2530  136.5570 C   0  0  2  0  0  3  0  0  0  0  0  0
  183.4580  176.9010  137.0050 C   0  0  2  0  0  3  0  0  0  0  0  0
  181.7310  178.4920  136.7280 N   0  0  0  0  0  2  0  0  0  0  0  0
  182.4460  175.7510  134.3470 N   0  0  0  0  0  2  0  0  0  0  0  0
  182.4300  177.4470  136.0950 C   0  0  0  0  0  0  0  0  0  0  0  0
  185.2300  176.8750  134.8050 S   0  0  0  0  0  0  0  0  0  0  0  0
  183.1310  177.6310  138.3350 C   0  0  1  0  0  3  0  0  0  0  0  0
  183.4530  174.8390  134.8090 C   0  0  0  0  0  0  0  0  0  0  0  0
  183.3730  179.0820  138.2710 C   0  0  0  0  0  2  0  0  0  0  0  0
  183.1320  173.3860  134.8500 C   0  0  0  0  0  2  0  0  0  0  0  0
  184.1160  172.7020  135.5850 O   0  0  0  0  0  0  0  0  0  0  0  0
  182.7010  173.2060  137.3220 F   0  0  0  0  0  0  0  0  0  0  0  0
  182.7640  171.1240  136.4840 F   0  0  0  0  0  0  0  0  0  0  0  0
  184.4940  171.8700  137.7040 F   0  0  0  0  0  0  0  0  0  0  0  0
  183.5290  172.2360  136.7760 C   0  0  0  0  0  0  0  0  0  0  0  0
  1 49  1  6  0  0  0
  1  2  1  0  0  0  0
  1 28  1  0  0  0  0
  3  4  1  0  0  0  0
  3  2  1  0  0  0  0
  4  5  1  1  0  0  0
  6  9  1  6  0  0  0
  6  4  1  0  0  0  0
  7  8  1  0  0  0  0
  8  6  1  0  0  0  0
 10  9  1  0  0  0  0
 11 14  1  6  0  0  0
 11 10  1  0  0  0  0
 12 11  1  0  0  0  0
 13 12  1  0  0  0  0
 17 15  1  6  0  0  0
 17 22  1  0  0  0  0
 17 20  1  0  0  0  0
 18 25  1  0  0  0  0
 18 16  1  0  0  0  0
 20 21  1  1  0  0  0
 20 23  1  0  0  0  0
 21 23  1  0  0  0  0
 22 15  1  6  0  0  0
 22 25  1  0  0  0  0
 24 19  1  6  0  0  0
 24 17  1  0  0  0  0
 24 20  1  0  0  0  0
 25 16  1  0  0  0  0
 26 25  1  0  0  0  0
 27 14  1  1  0  0  0
 27 24  1  0  0  0  0
 27 26  1  0  0  0  0
 28 29  1  0  0  0  0
 29 30  1  0  0  0  0
 30 33  1  0  0  0  0
 31 38  1  0  0  0  0
 32 41  1  0  0  0  0
 32 31  2  0  0  0  0
 33 32  1  0  0  0  0
 34 31  1  0  0  0  0
 35 33  2  0  0  0  0
 35 36  1  0  0  0  0
 36 34  2  0  0  0  0
 37 36  1  0  0  0  0
 38 39  2  0  0  0  0
 38 40  1  0  0  0  0
 41 42  1  0  0  0  0
 43 42  1  0  0  0  0
 44 43  1  0  0  0  0
 45 44  1  0  0  0  0
 46 45  1  0  0  0  0
 47 48  1  0  0  0  0
 47 46  1  0  0  0  0
 48 46  1  0  0  0  0
 50 49  1  0  0  0  0
 51 62  1  6  0  0  0
 51 60  1  0  0  0  0
 53 58  2  0  0  0  0
 54 55  1  0  0  0  0
 54 50  1  1  0  0  0
 55 58  1  6  0  0  0
 55 60  1  0  0  0  0
 56 51  1  0  0  0  0
 57 61  1  0  0  0  0
 57 53  1  0  0  0  0
 58 56  1  0  0  0  0
 59 52  1  0  0  0  0
 59 54  1  0  0  0  0
 60 62  1  6  0  0  0
 61 63  1  0  0  0  0
 61 52  2  0  0  0  0
 63 64  1  0  0  0  0
 64 68  1  0  0  0  0
 66 68  1  0  0  0  0
 68 65  1  0  0  0  0
 68 67  1  0  0  0  0
M  END
>  <MODEL>
6

>  <REMARK>
 VINA RESULT:      -4.8      1.922      2.969
  Name = 
  28 active torsions:
  status: ('A' for Active; 'I' for Inactive)
    1  A    between atoms: C_5  and  C_13
    2  A    between atoms: C_7  and  C_9
    3  A    between atoms: C_7  and  C_12
    4  A    between atoms: C_8  and  C_18
    5  A    between atoms: C_8  and  C_48
    6  A    between atoms: C_8  and  O_62
    7  A    between atoms: C_11  and  C_25
    8  A    between atoms: C_12  and  C_15
    9  A    between atoms: C_14  and  C_64
   10  A    between atoms: C_15  and  C_59
   11  A    between atoms: C_15  and  O_60
   12  A    between atoms: C_18  and  O_26
   13  A    between atoms: C_21  and  C_33
   14  A    between atoms: C_22  and  C_23
   15  A    between atoms: C_22  and  O_30
   16  A    between atoms: C_22  and  C_37
   17  A    between atoms: C_23  and  C_66
   18  A    between atoms: C_25  and  C_36
   19  A    between atoms: O_26  and  C_59
   20  A    between atoms: C_33  and  C_61
   21  A    between atoms: C_36  and  C_50
   22  A    between atoms: C_37  and  C_48
   23  A    between atoms: N_43  and  C_50
   24  A    between atoms: N_43  and  C_64
   25  A    between atoms: C_47  and  O_58
   26  A    between atoms: C_47  and  C_63
   27  A    between atoms: O_58  and  C_68
   28  A    between atoms: O_60  and  C_61
                            x       y       z     vdW  Elec       q    Type
                         _______ _______ _______ _____ _____    ______ ____

>  <TORSDO>
F 28

$$$$
=
 OpenBabel10232412143D

 68 77  0  0  1  0  0  0  0  0999 V2000
  187.1510  178.0300  140.9310 C   0  0  1  0  0  3  0  0  0  0  0  0
  186.4230  179.2110  141.5620 C   0  0  0  0  0  2  0  0  0  0  0  0
  185.1320  179.3080  141.0370 O   0  0  0  0  0  0  0  0  0  0  0  0
  184.3840  178.3550  141.7380 C   0  0  1  0  0  3  0  0  0  0  0  0
  184.1160  178.8830  143.1420 C   0  0  0  0  0  1  0  0  0  0  0  0
  183.0590  178.0910  141.0050 C   0  0  1  0  0  3  0  0  0  0  0  0
  182.6050  176.1820  139.8160 C   0  0  0  0  0  1  0  0  0  0  0  0
  182.6250  176.7480  141.0990 O   0  0  0  0  0  0  0  0  0  0  0  0
  181.9570  179.1040  141.3480 C   0  0  0  0  0  2  0  0  0  0  0  0
  181.1970  179.5230  140.0970 C   0  0  0  0  0  2  0  0  0  0  0  0
  182.0770  179.6220  138.8530 C   0  0  2  0  0  3  0  0  0  0  0  0
  182.6110  180.9060  138.7090 O   0  0  0  0  0  0  0  0  0  0  0  0
  181.6150  181.6360  138.2540 O   0  0  0  0  0  1  0  0  0  0  0  0
  181.3160  179.2170  137.6000 C   0  0  0  0  0  2  0  0  0  0  0  0
  183.3800  177.3010  134.3460 C   0  0  0  0  0  2  0  0  0  0  0  0
  185.4150  176.3680  137.3500 C   0  0  0  0  0  2  0  0  0  0  0  0
  182.3300  176.4060  135.0290 C   0  0  1  0  0  0  0  0  0  0  0  0
  185.8300  177.5580  136.5020 C   0  0  0  0  0  2  0  0  0  0  0  0
  180.3300  177.7170  135.2280 O   0  0  0  0  0  1  0  0  0  0  0  0
  181.7120  175.9470  136.3960 C   0  0  2  0  0  0  0  0  0  0  0  0
  180.3170  175.6830  136.9030 C   0  0  0  0  0  2  0  0  0  0  0  0
  183.8580  176.3250  135.3470 C   0  0  2  0  0  3  0  0  0  0  0  0
  180.8570  174.9240  135.8960 O   0  0  0  0  0  0  0  0  0  0  0  0
  181.5330  177.3710  135.8640 C   0  0  1  0  0  0  0  0  0  0  0  0
  184.3780  177.1260  136.5560 C   0  0  0  0  0  0  0  0  0  0  0  0
  183.4650  177.9710  137.4410 C   0  0  0  0  0  2  0  0  0  0  0  0
  182.2580  178.4890  136.6560 C   0  0  2  0  0  3  0  0  0  0  0  0
  187.6470  178.3790  139.6700 O   0  0  0  0  0  0  0  0  0  0  0  0
  188.6610  177.4530  139.4160 C   0  0  0  0  0  2  0  0  0  0  0  0
  189.1430  177.5800  137.9840 C   0  0  0  0  0  2  0  0  0  0  0  0
  191.3760  174.7940  136.5820 C   0  0  0  0  0  0  0  0  0  0  0  0
  190.2240  175.5890  136.8300 C   0  0  0  0  0  0  0  0  0  0  0  0
  190.3120  176.6780  137.7290 C   0  0  0  0  0  0  0  0  0  0  0  0
  192.5630  175.0870  137.2720 C   0  0  0  0  0  3  0  0  0  0  0  0
  191.5090  176.9410  138.3990 C   0  0  0  0  0  3  0  0  0  0  0  0
  192.6300  176.1430  138.1780 C   0  0  0  0  0  0  0  0  0  0  0  0
  193.9010  176.4280  138.8930 C   0  0  0  0  0  1  0  0  0  0  0  0
  191.4050  173.6690  135.6110 C   0  0  0  0  0  0  0  0  0  0  0  0
  192.1660  172.5280  135.8440 O   0  0  0  0  0  1  0  0  0  0  0  0
  190.7160  173.7300  134.5570 O   0  0  0  0  0  0  0  0  0  0  0  0
  188.9030  175.2800  136.1840 C   0  0  0  0  0  2  0  0  0  0  0  0
  188.1860  174.2780  136.9610 N   0  0  0  0  0  2  0  0  0  0  0  0
  187.3590  173.5090  136.0430 C   0  0  0  0  0  2  0  0  0  0  0  0
  186.2240  172.8220  136.7870 C   0  0  0  0  0  2  0  0  0  0  0  0
  185.4670  171.9010  135.8500 C   0  0  0  0  0  2  0  0  0  0  0  0
  184.0180  172.3370  135.7730 C   0  0  0  0  0  3  0  0  0  0  0  0
  183.5570  172.7660  137.1490 C   0  0  0  0  0  2  0  0  0  0  0  0
  183.1800  171.4000  136.6170 C   0  0  0  0  0  2  0  0  0  0  0  0
  188.2830  177.5490  141.8340 C   0  0  0  0  0  2  0  0  0  0  0  0
  188.5860  178.5520  142.9370 C   0  0  0  0  0  2  0  0  0  0  0  0
  191.2080  174.9720  142.9590 N   0  0  1  0  0  0  0  0  0  0  0  0
  188.9750  178.7410  145.9800 N   0  0  0  0  0  0  0  0  0  0  0  0
  191.2710  176.5390  146.1230 N   0  0  0  0  0  0  0  0  0  0  0  0
  189.8920  178.1810  143.6170 C   0  0  2  0  0  3  0  0  0  0  0  0
  189.8510  176.7120  144.0780 C   0  0  2  0  0  3  0  0  0  0  0  0
  191.8500  175.4500  144.1100 N   0  0  0  0  0  2  0  0  0  0  0  0
  190.4260  177.1800  147.0550 N   0  0  0  0  0  2  0  0  0  0  0  0
  191.0470  176.3310  144.8580 C   0  0  0  0  0  0  0  0  0  0  0  0
  190.2660  179.3660  144.9530 S   0  0  0  0  0  0  0  0  0  0  0  0
  189.9570  175.7730  142.8470 C   0  0  1  0  0  3  0  0  0  0  0  0
  189.1380  177.7610  146.8100 C   0  0  0  0  0  0  0  0  0  0  0  0
  191.1160  176.0750  141.9900 C   0  0  0  0  0  2  0  0  0  0  0  0
  188.0130  177.4040  147.7170 C   0  0  0  0  0  2  0  0  0  0  0  0
  187.1050  178.4740  147.7950 O   0  0  0  0  0  0  0  0  0  0  0  0
  186.0720  179.1630  145.8630 F   0  0  0  0  0  0  0  0  0  0  0  0
  186.2390  176.9740  146.3360 F   0  0  0  0  0  0  0  0  0  0  0  0
  184.8240  178.2500  147.5240 F   0  0  0  0  0  0  0  0  0  0  0  0
  186.0580  178.2280  146.8880 C   0  0  0  0  0  0  0  0  0  0  0  0
  1  2  1  1  0  0  0
  1 49  1  0  0  0  0
  3  2  1  0  0  0  0
  3  4  1  0  0  0  0
  4  5  1  1  0  0  0
  6  8  1  0  0  0  0
  6  9  1  1  0  0  0
  6  4  1  0  0  0  0
  7  8  1  0  0  0  0
 10  9  1  0  0  0  0
 11 14  1  6  0  0  0
 11 10  1  0  0  0  0
 12 11  1  0  0  0  0
 13 12  1  0  0  0  0
 17 15  1  6  0  0  0
 17 22  1  0  0  0  0
 17 24  1  0  0  0  0
 17 20  1  0  0  0  0
 18 25  1  0  0  0  0
 18 16  1  0  0  0  0
 20 21  1  1  0  0  0
 22 15  1  6  0  0  0
 22 25  1  0  0  0  0
 23 20  1  0  0  0  0
 23 21  1  0  0  0  0
 24 19  1  6  0  0  0
 24 20  1  0  0  0  0
 24 27  1  0  0  0  0
 25 16  1  0  0  0  0
 25 26  1  0  0  0  0
 27 26  1  0  0  0  0
 27 14  1  1  0  0  0
 28  1  1  0  0  0  0
 29 28  1  0  0  0  0
 30 29  1  0  0  0  0
 31 32  2  0  0  0  0
 31 34  1  0  0  0  0
 32 33  1  0  0  0  0
 33 30  1  0  0  0  0
 33 35  2  0  0  0  0
 34 36  2  0  0  0  0
 36 35  1  0  0  0  0
 36 37  1  0  0  0  0
 38 39  1  0  0  0  0
 38 31  1  0  0  0  0
 40 38  2  0  0  0  0
 41 32  1  0  0  0  0
 41 42  1  0  0  0  0
 43 44  1  0  0  0  0
 43 42  1  0  0  0  0
 45 44  1  0  0  0  0
 46 45  1  0  0  0  0
 46 48  1  0  0  0  0
 46 47  1  0  0  0  0
 48 47  1  0  0  0  0
 49 50  1  0  0  0  0
 51 62  1  6  0  0  0
 51 56  1  0  0  0  0
 52 61  2  0  0  0  0
 53 57  1  0  0  0  0
 54 50  1  1  0  0  0
 54 55  1  0  0  0  0
 54 59  1  0  0  0  0
 55 58  1  1  0  0  0
 56 58  1  0  0  0  0
 58 53  2  0  0  0  0
 59 52  1  0  0  0  0
 60 62  1  6  0  0  0
 60 51  1  0  0  0  0
 60 55  1  0  0  0  0
 61 57  1  0  0  0  0
 61 63  1  0  0  0  0
 63 64  1  0  0  0  0
 65 68  1  0  0  0  0
 66 68  1  0  0  0  0
 68 67  1  0  0  0  0
 68 64  1  0  0  0  0
M  END
>  <MODEL>
7

>  <REMARK>
 VINA RESULT:      -4.8      3.915     10.853
  Name = 
  28 active torsions:
  status: ('A' for Active; 'I' for Inactive)
    1  A    between atoms: C_5  and  C_13
    2  A    between atoms: C_7  and  C_9
    3  A    between atoms: C_7  and  C_12
    4  A    between atoms: C_8  and  C_18
    5  A    between atoms: C_8  and  C_48
    6  A    between atoms: C_8  and  O_62
    7  A    between atoms: C_11  and  C_25
    8  A    between atoms: C_12  and  C_15
    9  A    between atoms: C_14  and  C_64
   10  A    between atoms: C_15  and  C_59
   11  A    between atoms: C_15  and  O_60
   12  A    between atoms: C_18  and  O_26
   13  A    between atoms: C_21  and  C_33
   14  A    between atoms: C_22  and  C_23
   15  A    between atoms: C_22  and  O_30
   16  A    between atoms: C_22  and  C_37
   17  A    between atoms: C_23  and  C_66
   18  A    between atoms: C_25  and  C_36
   19  A    between atoms: O_26  and  C_59
   20  A    between atoms: C_33  and  C_61
   21  A    between atoms: C_36  and  C_50
   22  A    between atoms: C_37  and  C_48
   23  A    between atoms: N_43  and  C_50
   24  A    between atoms: N_43  and  C_64
   25  A    between atoms: C_47  and  O_58
   26  A    between atoms: C_47  and  C_63
   27  A    between atoms: O_58  and  C_68
   28  A    between atoms: O_60  and  C_61
                            x       y       z     vdW  Elec       q    Type
                         _______ _______ _______ _____ _____    ______ ____

>  <TORSDO>
F 28

$$$$
=
 OpenBabel10232412143D

 68 77  0  0  1  0  0  0  0  0999 V2000
  187.1700  178.1740  140.3710 C   0  0  1  0  0  3  0  0  0  0  0  0
  188.4560  178.3340  139.5690 C   0  0  0  0  0  2  0  0  0  0  0  0
  189.1000  177.1000  139.4540 O   0  0  0  0  0  0  0  0  0  0  0  0
  190.3590  177.3970  138.9190 C   0  0  1  0  0  3  0  0  0  0  0  0
  191.4060  177.2190  140.0110 C   0  0  0  0  0  1  0  0  0  0  0  0
  190.6560  176.4620  137.7350 C   0  0  1  0  0  3  0  0  0  0  0  0
  189.1600  175.2640  136.4730 C   0  0  0  0  0  1  0  0  0  0  0  0
  189.6920  176.5420  136.7040 O   0  0  0  0  0  0  0  0  0  0  0  0
  192.0980  176.5670  137.2190 C   0  0  0  0  0  2  0  0  0  0  0  0
  192.9520  175.4280  137.7590 C   0  0  0  0  0  2  0  0  0  0  0  0
  193.5790  174.5650  136.6660 C   0  0  2  0  0  3  0  0  0  0  0  0
  192.6010  173.9420  135.8870 O   0  0  0  0  0  0  0  0  0  0  0  0
  192.0870  173.0160  136.6670 O   0  0  0  0  0  1  0  0  0  0  0  0
  194.5320  173.5340  137.2520 C   0  0  0  0  0  2  0  0  0  0  0  0
  197.9310  174.0710  134.6670 C   0  0  0  0  0  2  0  0  0  0  0  0
  199.4420  172.8310  137.8630 C   0  0  0  0  0  2  0  0  0  0  0  0
  197.3410  172.6500  134.6310 C   0  0  1  0  0  0  0  0  0  0  0  0
  199.3900  174.3240  137.5870 C   0  0  0  0  0  2  0  0  0  0  0  0
  194.9670  172.8960  134.3790 O   0  0  0  0  0  1  0  0  0  0  0  0
  196.7460  171.4720  135.4790 C   0  0  2  0  0  0  0  0  0  0  0  0
  195.5920  170.5150  135.3190 C   0  0  0  0  0  2  0  0  0  0  0  0
  198.5950  173.0310  135.4800 C   0  0  2  0  0  3  0  0  0  0  0  0
  196.6430  170.5060  134.4370 O   0  0  0  0  0  0  0  0  0  0  0  0
  196.0090  172.8030  135.3150 C   0  0  1  0  0  0  0  0  0  0  0  0
  198.3700  173.3930  136.9600 C   0  0  0  0  0  0  0  0  0  0  0  0
  196.9900  173.3820  137.6130 C   0  0  0  0  0  2  0  0  0  0  0  0
  195.8920  173.6770  136.5900 C   0  0  2  0  0  3  0  0  0  0  0  0
  187.2990  178.7770  141.6270 O   0  0  0  0  0  0  0  0  0  0  0  0
  188.3300  178.0750  142.2560 C   0  0  0  0  0  2  0  0  0  0  0  0
  187.7630  176.9460  143.0940 C   0  0  0  0  0  2  0  0  0  0  0  0
  187.0190  178.0070  146.7030 C   0  0  0  0  0  0  0  0  0  0  0  0
  187.6920  177.4430  145.5860 C   0  0  0  0  0  0  0  0  0  0  0  0
  187.0740  177.4760  144.3130 C   0  0  0  0  0  0  0  0  0  0  0  0
  185.7350  178.5460  146.5210 C   0  0  0  0  0  3  0  0  0  0  0  0
  185.7960  178.0200  144.1670 C   0  0  0  0  0  3  0  0  0  0  0  0
  185.1240  178.5460  145.2690 C   0  0  0  0  0  0  0  0  0  0  0  0
  183.7640  179.1230  145.1070 C   0  0  0  0  0  1  0  0  0  0  0  0
  187.6060  178.0780  148.0670 C   0  0  0  0  0  0  0  0  0  0  0  0
  187.3330  177.1090  149.0270 O   0  0  0  0  0  1  0  0  0  0  0  0
  188.3820  179.0240  148.3690 O   0  0  0  0  0  0  0  0  0  0  0  0
  189.0330  176.7820  145.7300 C   0  0  0  0  0  2  0  0  0  0  0  0
  189.3420  176.5720  147.1380 N   0  0  0  0  0  2  0  0  0  0  0  0
  190.7820  176.4020  147.2590 C   0  0  0  0  0  2  0  0  0  0  0  0
  191.4270  176.2820  145.8880 C   0  0  0  0  0  2  0  0  0  0  0  0
  191.9720  177.6260  145.4470 C   0  0  0  0  0  2  0  0  0  0  0  0
  190.9880  178.2870  144.5040 C   0  0  0  0  0  3  0  0  0  0  0  0
  191.6250  178.4160  143.1370 C   0  0  0  0  0  2  0  0  0  0  0  0
  191.5570  179.6180  144.0560 C   0  0  0  0  0  2  0  0  0  0  0  0
  185.9850  178.7670  139.6150 C   0  0  0  0  0  2  0  0  0  0  0  0
  185.4500  177.8050  138.5640 C   0  0  0  0  0  2  0  0  0  0  0  0
  182.0870  178.1430  141.4400 N   0  0  1  0  0  0  0  0  0  0  0  0
  183.7110  175.8980  136.8960 N   0  0  0  0  0  0  0  0  0  0  0  0
  181.0350  176.4210  138.5410 N   0  0  0  0  0  0  0  0  0  0  0  0
  183.9450  177.9700  138.4430 C   0  0  2  0  0  3  0  0  0  0  0  0
  183.2310  177.1110  139.5040 C   0  0  2  0  0  3  0  0  0  0  0  0
  181.1790  177.8570  140.4100 N   0  0  0  0  0  2  0  0  0  0  0  0
  181.4750  175.4590  137.6080 N   0  0  0  0  0  2  0  0  0  0  0  0
  181.7620  177.1330  139.3530 C   0  0  0  0  0  0  0  0  0  0  0  0
  183.4100  177.6300  136.7330 S   0  0  0  0  0  0  0  0  0  0  0  0
  183.4210  177.7470  140.9070 C   0  0  1  0  0  3  0  0  0  0  0  0
  182.8260  175.0610  137.3340 C   0  0  0  0  0  0  0  0  0  0  0  0
  183.0270  179.1650  140.9550 C   0  0  0  0  0  2  0  0  0  0  0  0
  183.1480  173.6080  137.3070 C   0  0  0  0  0  2  0  0  0  0  0  0
  184.1840  173.3670  136.3890 O   0  0  0  0  0  0  0  0  0  0  0  0
  183.6960  171.3270  137.3230 F   0  0  0  0  0  0  0  0  0  0  0  0
  183.9070  171.5280  135.0970 F   0  0  0  0  0  0  0  0  0  0  0  0
  185.7370  171.6600  136.3910 F   0  0  0  0  0  0  0  0  0  0  0  0
  184.3880  171.9770  136.3120 C   0  0  0  0  0  0  0  0  0  0  0  0
  1  2  1  6  0  0  0
  1 28  1  0  0  0  0
  3  2  1  0  0  0  0
  4  3  1  0  0  0  0
  4  5  1  1  0  0  0
  6  9  1  6  0  0  0
  6  4  1  0  0  0  0
  7  8  1  0  0  0  0
  8  6  1  0  0  0  0
  9 10  1  0  0  0  0
 11 14  1  1  0  0  0
 11 10  1  0  0  0  0
 12 11  1  0  0  0  0
 12 13  1  0  0  0  0
 17 15  1  6  0  0  0
 17 24  1  0  0  0  0
 17 20  1  0  0  0  0
 17 22  1  0  0  0  0
 18 16  1  0  0  0  0
 20 21  1  1  0  0  0
 22 15  1  6  0  0  0
 22 25  1  0  0  0  0
 23 21  1  0  0  0  0
 23 20  1  0  0  0  0
 24 19  1  6  0  0  0
 24 20  1  0  0  0  0
 24 27  1  0  0  0  0
 25 18  1  0  0  0  0
 25 26  1  0  0  0  0
 25 16  1  0  0  0  0
 27 14  1  1  0  0  0
 27 26  1  0  0  0  0
 28 29  1  0  0  0  0
 29 30  1  0  0  0  0
 30 33  1  0  0  0  0
 31 38  1  0  0  0  0
 32 41  1  0  0  0  0
 32 31  2  0  0  0  0
 33 32  1  0  0  0  0
 34 31  1  0  0  0  0
 35 33  2  0  0  0  0
 35 36  1  0  0  0  0
 36 34  2  0  0  0  0
 37 36  1  0  0  0  0
 38 40  2  0  0  0  0
 38 39  1  0  0  0  0
 41 42  1  0  0  0  0
 42 43  1  0  0  0  0
 44 43  1  0  0  0  0
 45 44  1  0  0  0  0
 46 45  1  0  0  0  0
 47 48  1  0  0  0  0
 47 46  1  0  0  0  0
 48 46  1  0  0  0  0
 49  1  1  0  0  0  0
 50 49  1  0  0  0  0
 51 62  1  6  0  0  0
 52 61  2  0  0  0  0
 53 58  2  0  0  0  0
 54 50  1  6  0  0  0
 54 55  1  0  0  0  0
 55 58  1  6  0  0  0
 55 60  1  0  0  0  0
 56 51  1  0  0  0  0
 57 53  1  0  0  0  0
 58 56  1  0  0  0  0
 59 52  1  0  0  0  0
 59 54  1  0  0  0  0
 60 62  1  6  0  0  0
 60 51  1  0  0  0  0
 61 57  1  0  0  0  0
 63 61  1  0  0  0  0
 64 63  1  0  0  0  0
 66 68  1  0  0  0  0
 68 64  1  0  0  0  0
 68 67  1  0  0  0  0
 68 65  1  0  0  0  0
M  END
>  <MODEL>
8

>  <REMARK>
 VINA RESULT:      -4.7      1.825      3.908
  Name = 
  28 active torsions:
  status: ('A' for Active; 'I' for Inactive)
    1  A    between atoms: C_5  and  C_13
    2  A    between atoms: C_7  and  C_9
    3  A    between atoms: C_7  and  C_12
    4  A    between atoms: C_8  and  C_18
    5  A    between atoms: C_8  and  C_48
    6  A    between atoms: C_8  and  O_62
    7  A    between atoms: C_11  and  C_25
    8  A    between atoms: C_12  and  C_15
    9  A    between atoms: C_14  and  C_64
   10  A    between atoms: C_15  and  C_59
   11  A    between atoms: C_15  and  O_60
   12  A    between atoms: C_18  and  O_26
   13  A    between atoms: C_21  and  C_33
   14  A    between atoms: C_22  and  C_23
   15  A    between atoms: C_22  and  O_30
   16  A    between atoms: C_22  and  C_37
   17  A    between atoms: C_23  and  C_66
   18  A    between atoms: C_25  and  C_36
   19  A    between atoms: O_26  and  C_59
   20  A    between atoms: C_33  and  C_61
   21  A    between atoms: C_36  and  C_50
   22  A    between atoms: C_37  and  C_48
   23  A    between atoms: N_43  and  C_50
   24  A    between atoms: N_43  and  C_64
   25  A    between atoms: C_47  and  O_58
   26  A    between atoms: C_47  and  C_63
   27  A    between atoms: O_58  and  C_68
   28  A    between atoms: O_60  and  C_61
                            x       y       z     vdW  Elec       q    Type
                         _______ _______ _______ _____ _____    ______ ____

>  <TORSDO>
F 28

$$$$
=
 OpenBabel10232412143D

 68 77  0  0  1  0  0  0  0  0999 V2000
  185.4480  178.3650  140.7050 C   0  0  1  0  0  3  0  0  0  0  0  0
  184.4730  179.0970  139.7900 C   0  0  0  0  0  2  0  0  0  0  0  0
  183.7040  178.1710  139.0800 O   0  0  0  0  0  0  0  0  0  0  0  0
  182.3820  178.6040  139.2350 C   0  0  1  0  0  3  0  0  0  0  0  0
  182.1550  179.8120  138.3350 C   0  0  0  0  0  1  0  0  0  0  0  0
  181.4140  177.4690  138.8610 C   0  0  1  0  0  3  0  0  0  0  0  0
  180.1890  178.6430  140.4050 C   0  0  0  0  0  1  0  0  0  0  0  0
  180.1550  177.5760  139.4950 O   0  0  0  0  0  0  0  0  0  0  0  0
  181.3070  177.2310  137.3480 C   0  0  0  0  0  2  0  0  0  0  0  0
  182.5820  176.5980  136.8070 C   0  0  0  0  0  2  0  0  0  0  0  0
  182.7660  176.7870  135.3020 C   0  0  2  0  0  3  0  0  0  0  0  0
  181.5910  177.2470  134.7020 O   0  0  0  0  0  0  0  0  0  0  0  0
  181.7550  178.5480  134.5910 O   0  0  0  0  0  1  0  0  0  0  0  0
  183.2390  175.5050  134.6360 C   0  0  0  0  0  2  0  0  0  0  0  0
  184.4090  173.2080  138.0820 C   0  0  0  0  0  2  0  0  0  0  0  0
  183.3350  170.6040  135.6110 C   0  0  0  0  0  2  0  0  0  0  0  0
  185.5420  173.4190  137.0610 C   0  0  1  0  0  0  0  0  0  0  0  0
  182.3520  171.0950  136.6600 C   0  0  0  0  0  2  0  0  0  0  0  0
  185.5410  175.7530  136.5030 O   0  0  0  0  0  1  0  0  0  0  0  0
  185.9290  173.4450  135.5410 C   0  0  2  0  0  0  0  0  0  0  0  0
  186.7860  174.3270  134.6710 C   0  0  0  0  0  2  0  0  0  0  0  0
  184.6940  172.1090  137.1360 C   0  0  2  0  0  3  0  0  0  0  0  0
  187.3360  173.5980  135.6940 O   0  0  0  0  0  0  0  0  0  0  0  0
  185.0090  174.5000  136.1600 C   0  0  1  0  0  0  0  0  0  0  0  0
  183.4820  171.9900  136.1930 C   0  0  0  0  0  0  0  0  0  0  0  0
  183.0970  173.0850  135.2010 C   0  0  0  0  0  2  0  0  0  0  0  0
  183.5280  174.4640  135.7040 C   0  0  2  0  0  3  0  0  0  0  0  0
  186.7090  178.9700  140.6600 O   0  0  0  0  0  0  0  0  0  0  0  0
  187.5250  178.0450  140.0050 C   0  0  0  0  0  2  0  0  0  0  0  0
  188.5530  178.7620  139.1510 C   0  0  0  0  0  2  0  0  0  0  0  0
  189.4890  176.8900  135.9370 C   0  0  0  0  0  0  0  0  0  0  0  0
  189.5720  177.4020  137.2600 C   0  0  0  0  0  0  0  0  0  0  0  0
  188.5400  178.2400  137.7470 C   0  0  0  0  0  0  0  0  0  0  0  0
  188.4020  177.2650  135.1310 C   0  0  0  0  0  3  0  0  0  0  0  0
  187.4730  178.5940  136.9180 C   0  0  0  0  0  3  0  0  0  0  0  0
  187.4080  178.1150  135.6110 C   0  0  0  0  0  0  0  0  0  0  0  0
  186.2700  178.4940  134.7340 C   0  0  0  0  0  1  0  0  0  0  0  0
  190.4860  175.9550  135.3530 C   0  0  0  0  0  0  0  0  0  0  0  0
  190.4760  174.5980  135.6590 O   0  0  0  0  0  1  0  0  0  0  0  0
  191.3560  176.3860  134.5500 O   0  0  0  0  0  0  0  0  0  0  0  0
  190.7480  177.1020  138.1460 C   0  0  0  0  0  2  0  0  0  0  0  0
  191.7050  176.2590  137.4410 N   0  0  0  0  0  2  0  0  0  0  0  0
  192.5550  175.6210  138.4360 C   0  0  0  0  0  2  0  0  0  0  0  0
  193.4130  174.5400  137.7970 C   0  0  0  0  0  2  0  0  0  0  0  0
  194.8730  174.7610  138.1410 C   0  0  0  0  0  2  0  0  0  0  0  0
  195.7100  174.6740  136.8810 C   0  0  0  0  0  3  0  0  0  0  0  0
  196.4450  173.3510  136.8680 C   0  0  0  0  0  2  0  0  0  0  0  0
  197.1730  174.6170  137.2680 C   0  0  0  0  0  2  0  0  0  0  0  0
  184.9230  178.3340  142.1370 C   0  0  0  0  0  2  0  0  0  0  0  0
  185.9300  178.9170  143.1170 C   0  0  0  0  0  2  0  0  0  0  0  0
  185.7220  178.8520  147.5490 N   0  0  1  0  0  0  0  0  0  0  0  0
  188.6600  177.5200  143.3170 N   0  0  0  0  0  0  0  0  0  0  0  0
  188.4550  176.9120  146.4360 N   0  0  0  0  0  0  0  0  0  0  0  0
  186.2450  177.8920  144.1930 C   0  0  2  0  0  3  0  0  0  0  0  0
  186.9140  178.5780  145.3990 C   0  0  2  0  0  3  0  0  0  0  0  0
  186.5490  177.7200  147.5710 N   0  0  0  0  0  2  0  0  0  0  0  0
  189.4850  176.9070  145.4710 N   0  0  0  0  0  2  0  0  0  0  0  0
  187.3570  177.6120  146.4240 C   0  0  0  0  0  0  0  0  0  0  0  0
  187.2170  176.5190  143.4890 S   0  0  0  0  0  0  0  0  0  0  0  0
  185.8620  179.4130  146.1760 C   0  0  1  0  0  3  0  0  0  0  0  0
  189.5440  177.6610  144.2520 C   0  0  0  0  0  0  0  0  0  0  0  0
  184.6680  178.6350  146.5470 C   0  0  0  0  0  2  0  0  0  0  0  0
  190.7840  178.4260  143.9490 C   0  0  0  0  0  2  0  0  0  0  0  0
  190.8950  178.6230  142.5620 O   0  0  0  0  0  0  0  0  0  0  0  0
  192.0800  176.7080  143.0120 F   0  0  0  0  0  0  0  0  0  0  0  0
  190.6020  176.7500  141.3220 F   0  0  0  0  0  0  0  0  0  0  0  0
  192.5350  177.8750  141.1200 F   0  0  0  0  0  0  0  0  0  0  0  0
  191.5370  177.4990  142.0100 C   0  0  0  0  0  0  0  0  0  0  0  0
  1  2  1  6  0  0  0
  1 49  1  0  0  0  0
  3  4  1  0  0  0  0
  3  2  1  0  0  0  0
  4  5  1  6  0  0  0
  6  9  1  6  0  0  0
  6  4  1  0  0  0  0
  6  8  1  0  0  0  0
  8  7  1  0  0  0  0
 10  9  1  0  0  0  0
 11 14  1  6  0  0  0
 11 10  1  0  0  0  0
 12 11  1  0  0  0  0
 13 12  1  0  0  0  0
 16 25  1  0  0  0  0
 16 18  1  0  0  0  0
 17 22  1  0  0  0  0
 17 15  1  1  0  0  0
 20 21  1  6  0  0  0
 20 23  1  0  0  0  0
 20 24  1  0  0  0  0
 20 17  1  0  0  0  0
 21 23  1  0  0  0  0
 22 15  1  1  0  0  0
 24 19  1  1  0  0  0
 24 17  1  0  0  0  0
 25 18  1  0  0  0  0
 25 22  1  0  0  0  0
 26 27  1  0  0  0  0
 26 25  1  0  0  0  0
 27 14  1  6  0  0  0
 27 24  1  0  0  0  0
 28  1  1  0  0  0  0
 29 28  1  0  0  0  0
 30 29  1  0  0  0  0
 31 32  1  0  0  0  0
 32 33  2  0  0  0  0
 32 41  1  0  0  0  0
 33 30  1  0  0  0  0
 34 36  1  0  0  0  0
 34 31  2  0  0  0  0
 35 33  1  0  0  0  0
 36 35  2  0  0  0  0
 37 36  1  0  0  0  0
 38 39  1  0  0  0  0
 38 31  1  0  0  0  0
 40 38  2  0  0  0  0
 42 41  1  0  0  0  0
 42 43  1  0  0  0  0
 44 45  1  0  0  0  0
 44 43  1  0  0  0  0
 46 48  1  0  0  0  0
 46 45  1  0  0  0  0
 47 46  1  0  0  0  0
 47 48  1  0  0  0  0
 49 50  1  0  0  0  0
 51 62  1  6  0  0  0
 51 56  1  0  0  0  0
 52 59  1  0  0  0  0
 52 61  2  0  0  0  0
 54 50  1  6  0  0  0
 54 55  1  0  0  0  0
 55 60  1  0  0  0  0
 55 58  1  1  0  0  0
 57 53  1  0  0  0  0
 58 53  2  0  0  0  0
 58 56  1  0  0  0  0
 59 54  1  0  0  0  0
 60 62  1  6  0  0  0
 60 51  1  0  0  0  0
 61 57  1  0  0  0  0
 63 61  1  0  0  0  0
 64 63  1  0  0  0  0
 66 68  1  0  0  0  0
 67 68  1  0  0  0  0
 68 64  1  0  0  0  0
 68 65  1  0  0  0  0
M  END
>  <MODEL>
9

>  <REMARK>
 VINA RESULT:      -4.6      3.907     10.288
  Name = 
  28 active torsions:
  status: ('A' for Active; 'I' for Inactive)
    1  A    between atoms: C_5  and  C_13
    2  A    between atoms: C_7  and  C_9
    3  A    between atoms: C_7  and  C_12
    4  A    between atoms: C_8  and  C_18
    5  A    between atoms: C_8  and  C_48
    6  A    between atoms: C_8  and  O_62
    7  A    between atoms: C_11  and  C_25
    8  A    between atoms: C_12  and  C_15
    9  A    between atoms: C_14  and  C_64
   10  A    between atoms: C_15  and  C_59
   11  A    between atoms: C_15  and  O_60
   12  A    between atoms: C_18  and  O_26
   13  A    between atoms: C_21  and  C_33
   14  A    between atoms: C_22  and  C_23
   15  A    between atoms: C_22  and  O_30
   16  A    between atoms: C_22  and  C_37
   17  A    between atoms: C_23  and  C_66
   18  A    between atoms: C_25  and  C_36
   19  A    between atoms: O_26  and  C_59
   20  A    between atoms: C_33  and  C_61
   21  A    between atoms: C_36  and  C_50
   22  A    between atoms: C_37  and  C_48
   23  A    between atoms: N_43  and  C_50
   24  A    between atoms: N_43  and  C_64
   25  A    between atoms: C_47  and  O_58
   26  A    between atoms: C_47  and  C_63
   27  A    between atoms: O_58  and  C_68
   28  A    between atoms: O_60  and  C_61
                            x       y       z     vdW  Elec       q    Type
                         _______ _______ _______ _____ _____    ______ ____

>  <TORSDO>
F 28

$$$$
