=
 OpenBabel10232411083D

 51 55  0  0  1  0  0  0  0  0999 V2000
  185.7880  179.0090  142.5470 C   0  0  0  0  0  3  0  0  0  0  0  0
  180.3690  176.8530  140.0140 C   0  0  0  0  0  1  0  0  0  0  0  0
  183.5350  178.4990  140.9490 C   0  0  0  0  0  0  0  0  0  0  0  0
  182.8200  177.2620  136.7230 C   0  0  0  0  0  3  0  0  0  0  0  0
  184.5480  178.3110  138.1290 C   0  0  0  0  0  0  0  0  0  0  0  0
  181.8410  177.1020  139.7950 C   0  0  1  0  0  3  0  0  0  0  0  0
  182.0150  178.2020  138.7720 C   0  0  2  0  0  3  0  0  0  0  0  0
  183.5690  178.0930  142.2960 C   0  0  0  0  0  3  0  0  0  0  0  0
  184.7520  179.4040  139.0130 N   0  0  0  0  0  2  0  0  0  0  0  0
  184.8230  176.0140  136.0510 C   0  0  0  0  0  0  0  0  0  0  0  0
  185.6890  176.3230  137.0380 C   0  0  0  0  0  0  0  0  0  0  0  0
  184.6910  178.3330  143.0940 C   0  0  0  0  0  0  0  0  0  0  0  0
  183.1620  177.8490  137.8730 C   0  0  0  0  0  0  0  0  0  0  0  0
  185.7720  179.4090  141.2070 C   0  0  0  0  0  3  0  0  0  0  0  0
  183.7780  176.9890  135.6140 C   0  0  0  0  0  2  0  0  0  0  0  0
  185.6350  177.6000  137.7940 C   0  0  0  0  0  3  0  0  0  0  0  0
  182.1920  178.4930  140.2740 C   0  0  2  0  0  3  0  0  0  0  0  0
  184.6530  179.1610  140.4060 C   0  0  0  0  0  0  0  0  0  0  0  0
  186.3790  174.0930  137.5040 F   0  0  0  0  0  0  0  0  0  0  0  0
  186.8230  175.3950  137.3680 C   0  0  1  0  0  3  0  0  0  0  0  0
  187.9650  175.4870  136.3550 C   0  0  0  0  0  2  0  0  0  0  0  0
  189.0840  176.2690  136.8590 N   0  0  0  0  0  2  0  0  0  0  0  0
  191.3340  175.3850  135.7970 O   0  0  0  0  0  0  0  0  0  0  0  0
  190.4870  175.2520  137.0300 S   0  0  0  0  0  0  0  0  0  0  0  0
  190.0390  173.8190  137.1700 O   0  0  0  0  0  0  0  0  0  0  0  0
  191.4790  175.7000  138.4450 C   0  0  0  0  0  2  0  0  0  0  0  0
  191.0290  177.0740  140.5030 C   0  0  0  0  0  0  0  0  0  0  0  0
  190.6230  176.1000  139.5430 N   0  0  0  0  0  2  0  0  0  0  0  0
  192.1790  177.5930  140.4440 O   0  0  0  0  0  0  0  0  0  0  0  0
  190.0700  177.4860  141.5770 C   0  0  1  0  0  3  0  0  0  0  0  0
  188.7450  177.3810  141.1280 O   0  0  0  0  0  0  0  0  0  0  0  0
  188.6400  178.3220  140.1000 C   0  0  0  0  0  1  0  0  0  0  0  0
  190.2590  176.6670  142.8250 C   0  0  0  0  0  0  0  0  0  0  0  0
  190.4520  175.4250  142.7370 O   0  0  0  0  0  0  0  0  0  0  0  0
  190.1470  177.3050  144.1480 C   0  0  0  0  0  0  0  0  0  0  0  0
  189.1940  178.0870  144.3960 O   0  0  0  0  0  0  0  0  0  0  0  0
  191.3410  176.9580  145.4150 S   0  0  0  0  0  3  0  0  0  0  0  0
  190.4820  176.7390  146.6560 O   0  0  0  0  0  0  0  0  0  0  0  0
  184.6720  177.9280  144.4280 O   0  0  0  0  0  0  0  0  0  0  0  0
  185.6490  178.7880  146.4460 C   0  0  0  0  0  1  0  0  0  0  0  0
  184.4590  178.8300  145.5050 C   0  0  0  0  0  2  0  0  0  0  0  0
  184.9930  174.7520  135.2480 C   0  0  0  0  0  2  0  0  0  0  0  0
  183.6730  174.0540  134.9730 C   0  0  0  0  0  2  0  0  0  0  0  0
  183.2630  172.9440  136.3630 S   0  0  0  0  0  0  0  0  0  0  0  0
  183.8740  168.0300  135.9620 C   0  0  0  0  0  1  0  0  0  0  0  0
  181.6840  170.9080  135.5030 N   0  0  0  0  0  2  0  0  0  0  0  0
  184.0020  170.3640  135.6690 C   0  0  1  0  0  3  0  0  0  0  0  0
  181.7600  169.2100  134.9970 S   0  0  0  0  0  0  0  0  0  0  0  0
  183.0140  171.4520  135.3270 C   0  0  2  0  0  3  0  0  0  0  0  0
  183.5310  169.1330  135.0660 N   0  0  0  0  0  0  0  0  0  0  0  0
  185.3630  170.7210  135.0940 C   0  0  0  0  0  1  0  0  0  0  0  0
  1 12  1  0  0  0  0
  3  8  1  0  0  0  0
  4 13  2  0  0  0  0
  5  9  1  0  0  0  0
  6  2  1  1  0  0  0
  6 17  1  0  0  0  0
  7 13  1  6  0  0  0
  7  6  1  0  0  0  0
  7 17  1  0  0  0  0
  8 12  2  0  0  0  0
  9 18  1  0  0  0  0
 10 11  2  0  0  0  0
 11 20  1  0  0  0  0
 11 16  1  0  0  0  0
 12 39  1  0  0  0  0
 13  5  1  0  0  0  0
 14  1  2  0  0  0  0
 15 10  1  0  0  0  0
 15  4  1  0  0  0  0
 16  5  2  0  0  0  0
 17  3  1  6  0  0  0
 18  3  2  0  0  0  0
 18 14  1  0  0  0  0
 20 19  1  6  0  0  0
 21 22  1  0  0  0  0
 21 20  1  0  0  0  0
 22 24  1  0  0  0  0
 23 24  2  0  0  0  0
 24 25  2  0  0  0  0
 24 26  1  0  0  0  0
 26 28  1  0  0  0  0
 28 27  1  0  0  0  0
 29 27  2  0  0  0  0
 30 27  1  6  0  0  0
 30 33  1  0  0  0  0
 31 30  1  0  0  0  0
 32 31  1  0  0  0  0
 33 35  1  0  0  0  0
 34 33  2  0  0  0  0
 35 36  2  0  0  0  0
 35 37  1  0  0  0  0
 37 38  2  0  0  0  0
 39 41  1  0  0  0  0
 41 40  1  0  0  0  0
 42 10  1  0  0  0  0
 43 42  1  0  0  0  0
 43 44  1  0  0  0  0
 47 51  1  6  0  0  0
 48 50  1  0  0  0  0
 48 46  1  0  0  0  0
 49 46  1  0  0  0  0
 49 47  1  0  0  0  0
 49 44  1  1  0  0  0
 50 47  1  0  0  0  0
 50 45  1  0  0  0  0
M  END
>  <MODEL>
1

>  <REMARK>
 VINA RESULT:      -7.1      0.000      0.000
  Name = 
  17 active torsions:
  status: ('A' for Active; 'I' for Inactive)
    1  A    between atoms: C_3  and  C_26
    2  A    between atoms: C_3  and  C_51
    3  A    between atoms: O_5  and  C_15
    4  A    between atoms: C_8  and  C_15
    5  A    between atoms: C_8  and  C_36
    6  A    between atoms: C_14  and  C_15
    7  A    between atoms: S_18  and  C_36
    8  A    between atoms: S_20  and  C_38
    9  A    between atoms: S_20  and  N_44
   10  A    between atoms: O_24  and  C_32
   11  A    between atoms: O_24  and  C_35
   12  A    between atoms: S_25  and  C_30
   13  A    between atoms: S_25  and  C_51
   14  A    between atoms: C_28  and  C_39
   15  A    between atoms: C_28  and  N_44
   16  A    between atoms: C_31  and  C_39
   17  A    between atoms: C_38  and  N_43
                            x       y       z     vdW  Elec       q    Type
                         _______ _______ _______ _____ _____    ______ ____

>  <TORSDO>
F 17

$$$$
=
 OpenBabel10232411083D

 51 55  0  0  1  0  0  0  0  0999 V2000
  183.2760  177.5570  138.3470 C   0  0  0  0  0  3  0  0  0  0  0  0
  186.3900  172.3240  136.5190 C   0  0  0  0  0  1  0  0  0  0  0  0
  184.8600  175.6390  137.0430 C   0  0  0  0  0  0  0  0  0  0  0  0
  189.1350  175.3180  135.8090 C   0  0  0  0  0  3  0  0  0  0  0  0
  187.4440  177.0150  136.3770 C   0  0  0  0  0  0  0  0  0  0  0  0
  186.5010  173.7860  136.8740 C   0  0  1  0  0  3  0  0  0  0  0  0
  186.8660  174.5740  135.6360 C   0  0  2  0  0  3  0  0  0  0  0  0
  183.8800  175.2500  137.9750 C   0  0  0  0  0  3  0  0  0  0  0  0
  186.1460  177.4620  136.0080 N   0  0  0  0  0  2  0  0  0  0  0  0
  190.3810  176.7520  137.3620 C   0  0  0  0  0  0  0  0  0  0  0  0
  189.3910  177.4620  137.9420 C   0  0  0  0  0  0  0  0  0  0  0  0
  183.0960  176.1990  138.6360 C   0  0  0  0  0  0  0  0  0  0  0  0
  187.8540  175.6380  136.0140 C   0  0  0  0  0  0  0  0  0  0  0  0
  184.2530  177.9580  137.4310 C   0  0  0  0  0  3  0  0  0  0  0  0
  190.2620  176.2840  135.9480 C   0  0  0  0  0  2  0  0  0  0  0  0
  188.1110  177.7740  137.2590 C   0  0  0  0  0  3  0  0  0  0  0  0
  185.4170  174.5600  136.1560 C   0  0  2  0  0  3  0  0  0  0  0  0
  185.0430  177.0090  136.7750 C   0  0  0  0  0  0  0  0  0  0  0  0
  188.6460  179.0320  139.5690 F   0  0  0  0  0  0  0  0  0  0  0  0
  189.5840  178.0490  139.3110 C   0  0  1  0  0  3  0  0  0  0  0  0
  189.5830  176.9830  140.4070 C   0  0  0  0  0  2  0  0  0  0  0  0
  190.6550  177.1880  141.3710 N   0  0  0  0  0  2  0  0  0  0  0  0
  189.7660  178.3920  143.5470 O   0  0  0  0  0  0  0  0  0  0  0  0
  190.0350  177.0230  142.9900 S   0  0  0  0  0  0  0  0  0  0  0  0
  191.0710  176.3360  143.8440 O   0  0  0  0  0  0  0  0  0  0  0  0
  188.5150  176.0870  143.0400 C   0  0  0  0  0  2  0  0  0  0  0  0
  186.5940  177.6240  143.5610 C   0  0  0  0  0  0  0  0  0  0  0  0
  187.5910  176.6930  143.9770 N   0  0  0  0  0  2  0  0  0  0  0  0
  186.5130  177.9810  142.3520 O   0  0  0  0  0  0  0  0  0  0  0  0
  185.6310  178.1650  144.5720 C   0  0  1  0  0  3  0  0  0  0  0  0
  186.3150  178.7110  145.6690 O   0  0  0  0  0  0  0  0  0  0  0  0
  185.4380  178.5620  146.7480 C   0  0  0  0  0  1  0  0  0  0  0  0
  184.7220  179.1990  143.9660 C   0  0  0  0  0  0  0  0  0  0  0  0
  185.1020  180.3980  143.8830 O   0  0  0  0  0  0  0  0  0  0  0  0
  183.3640  178.8240  143.5350 C   0  0  0  0  0  0  0  0  0  0  0  0
  182.4390  178.7130  144.3790 O   0  0  0  0  0  0  0  0  0  0  0  0
  183.0130  178.5470  141.8160 S   0  0  0  0  0  3  0  0  0  0  0  0
  181.6250  179.1530  141.6410 O   0  0  0  0  0  0  0  0  0  0  0  0
  182.1260  175.7660  139.5390 O   0  0  0  0  0  0  0  0  0  0  0  0
  180.0540  175.9170  138.3340 C   0  0  0  0  0  1  0  0  0  0  0  0
  180.8150  176.3130  139.5850 C   0  0  0  0  0  2  0  0  0  0  0  0
  191.6990  176.5590  138.0640 C   0  0  0  0  0  2  0  0  0  0  0  0
  192.8270  176.2220  137.1030 C   0  0  0  0  0  2  0  0  0  0  0  0
  193.4270  174.5300  137.4290 S   0  0  0  0  0  0  0  0  0  0  0  0
  198.0670  172.7670  137.2140 C   0  0  0  0  0  1  0  0  0  0  0  0
  195.4620  174.7810  135.6470 N   0  0  0  0  0  2  0  0  0  0  0  0
  196.1140  173.9530  137.7900 C   0  0  1  0  0  3  0  0  0  0  0  0
  197.2100  174.5260  135.4920 S   0  0  0  0  0  0  0  0  0  0  0  0
  195.1860  174.8960  137.0650 C   0  0  2  0  0  3  0  0  0  0  0  0
  197.4300  174.0830  137.1960 N   0  0  0  0  0  0  0  0  0  0  0  0
  196.1800  174.3420  139.2580 C   0  0  0  0  0  1  0  0  0  0  0  0
  1 12  1  0  0  0  0
  3  8  1  0  0  0  0
  4 15  1  0  0  0  0
  4 13  2  0  0  0  0
  5 16  2  0  0  0  0
  6  2  1  6  0  0  0
  7 13  1  1  0  0  0
  7 17  1  0  0  0  0
  7  6  1  0  0  0  0
  8 12  2  0  0  0  0
  9  5  1  0  0  0  0
  9 18  1  0  0  0  0
 10 11  2  0  0  0  0
 10 42  1  0  0  0  0
 11 20  1  0  0  0  0
 12 39  1  0  0  0  0
 13  5  1  0  0  0  0
 14  1  2  0  0  0  0
 15 10  1  0  0  0  0
 16 11  1  0  0  0  0
 17  6  1  0  0  0  0
 17  3  1  1  0  0  0
 18  3  2  0  0  0  0
 18 14  1  0  0  0  0
 20 19  1  1  0  0  0
 20 21  1  0  0  0  0
 21 22  1  0  0  0  0
 22 24  1  0  0  0  0
 24 26  1  0  0  0  0
 24 23  2  0  0  0  0
 24 25  2  0  0  0  0
 26 28  1  0  0  0  0
 27 28  1  0  0  0  0
 29 27  2  0  0  0  0
 30 27  1  6  0  0  0
 30 31  1  0  0  0  0
 31 32  1  0  0  0  0
 33 30  1  0  0  0  0
 34 33  2  0  0  0  0
 35 33  1  0  0  0  0
 35 36  2  0  0  0  0
 37 35  1  0  0  0  0
 38 37  2  0  0  0  0
 39 41  1  0  0  0  0
 40 41  1  0  0  0  0
 43 44  1  0  0  0  0
 43 42  1  0  0  0  0
 46 49  1  0  0  0  0
 47 51  1  1  0  0  0
 48 46  1  0  0  0  0
 48 50  1  0  0  0  0
 49 44  1  6  0  0  0
 49 47  1  0  0  0  0
 50 45  1  0  0  0  0
 50 47  1  0  0  0  0
M  END
>  <MODEL>
2

>  <REMARK>
 VINA RESULT:      -7.0      3.723      8.002
  Name = 
  17 active torsions:
  status: ('A' for Active; 'I' for Inactive)
    1  A    between atoms: C_3  and  C_26
    2  A    between atoms: C_3  and  C_51
    3  A    between atoms: O_5  and  C_15
    4  A    between atoms: C_8  and  C_15
    5  A    between atoms: C_8  and  C_36
    6  A    between atoms: C_14  and  C_15
    7  A    between atoms: S_18  and  C_36
    8  A    between atoms: S_20  and  C_38
    9  A    between atoms: S_20  and  N_44
   10  A    between atoms: O_24  and  C_32
   11  A    between atoms: O_24  and  C_35
   12  A    between atoms: S_25  and  C_30
   13  A    between atoms: S_25  and  C_51
   14  A    between atoms: C_28  and  C_39
   15  A    between atoms: C_28  and  N_44
   16  A    between atoms: C_31  and  C_39
   17  A    between atoms: C_38  and  N_43
                            x       y       z     vdW  Elec       q    Type
                         _______ _______ _______ _____ _____    ______ ____

>  <TORSDO>
F 17

$$$$
=
 OpenBabel10232411083D

 51 55  0  0  1  0  0  0  0  0999 V2000
  185.5730  179.2100  141.8560 C   0  0  0  0  0  3  0  0  0  0  0  0
  181.1920  175.3740  139.3060 C   0  0  0  0  0  1  0  0  0  0  0  0
  183.6920  177.9310  140.2100 C   0  0  0  0  0  0  0  0  0  0  0  0
  183.7080  176.1310  136.1280 C   0  0  0  0  0  3  0  0  0  0  0  0
  184.9560  177.7580  137.4920 C   0  0  0  0  0  0  0  0  0  0  0  0
  182.5520  176.0050  139.1390 C   0  0  1  0  0  3  0  0  0  0  0  0
  182.5040  177.0030  138.0040 C   0  0  2  0  0  3  0  0  0  0  0  0
  183.7210  177.6860  141.5960 C   0  0  0  0  0  3  0  0  0  0  0  0
  184.7760  178.9460  138.2500 N   0  0  0  0  0  2  0  0  0  0  0  0
  186.0270  175.4390  135.7190 C   0  0  0  0  0  0  0  0  0  0  0  0
  186.6870  176.0750  136.7090 C   0  0  0  0  0  0  0  0  0  0  0  0
  184.6610  178.3100  142.4190 C   0  0  0  0  0  0  0  0  0  0  0  0
  183.7770  176.9020  137.2170 C   0  0  0  0  0  0  0  0  0  0  0  0
  185.5640  179.4550  140.4800 C   0  0  0  0  0  3  0  0  0  0  0  0
  184.7960  176.0320  135.1140 C   0  0  0  0  0  2  0  0  0  0  0  0
  186.2200  177.3530  137.3030 C   0  0  0  0  0  3  0  0  0  0  0  0
  182.4650  177.4790  139.4680 C   0  0  2  0  0  3  0  0  0  0  0  0
  184.6280  178.8240  139.6540 C   0  0  0  0  0  0  0  0  0  0  0  0
  188.8130  175.1550  136.1590 F   0  0  0  0  0  0  0  0  0  0  0  0
  187.9990  175.5420  137.2080 C   0  0  1  0  0  3  0  0  0  0  0  0
  188.7170  176.5290  138.1290 C   0  0  0  0  0  2  0  0  0  0  0  0
  189.9740  175.9940  138.6330 N   0  0  0  0  0  2  0  0  0  0  0  0
  189.7080  178.2190  140.0300 O   0  0  0  0  0  0  0  0  0  0  0  0
  190.5540  176.9800  139.9460 S   0  0  0  0  0  0  0  0  0  0  0  0
  191.9830  177.3740  139.6690 O   0  0  0  0  0  0  0  0  0  0  0  0
  190.4700  176.1350  141.5160 C   0  0  0  0  0  2  0  0  0  0  0  0
  190.7780  176.8980  143.8930 C   0  0  0  0  0  0  0  0  0  0  0  0
  190.2490  177.0910  142.5820 N   0  0  0  0  0  2  0  0  0  0  0  0
  191.4290  175.8540  144.1750 O   0  0  0  0  0  0  0  0  0  0  0  0
  190.5650  177.9570  144.9310 C   0  0  1  0  0  3  0  0  0  0  0  0
  190.5780  179.2340  144.3490 O   0  0  0  0  0  0  0  0  0  0  0  0
  191.9330  179.5640  144.2420 C   0  0  0  0  0  1  0  0  0  0  0  0
  189.2750  177.7430  145.6750 C   0  0  0  0  0  0  0  0  0  0  0  0
  188.1750  177.8760  145.0740 O   0  0  0  0  0  0  0  0  0  0  0  0
  189.2980  177.4500  147.1180 C   0  0  0  0  0  0  0  0  0  0  0  0
  190.3570  177.0520  147.6670 O   0  0  0  0  0  0  0  0  0  0  0  0
  187.8380  177.6780  148.1030 S   0  0  0  0  0  3  0  0  0  0  0  0
  188.3860  178.2110  149.4230 O   0  0  0  0  0  0  0  0  0  0  0  0
  184.6400  178.0490  143.7890 O   0  0  0  0  0  0  0  0  0  0  0  0
  184.8260  178.4330  146.1530 C   0  0  0  0  0  1  0  0  0  0  0  0
  184.8580  179.0550  144.7690 C   0  0  0  0  0  2  0  0  0  0  0  0
  186.6050  174.2030  135.0830 C   0  0  0  0  0  2  0  0  0  0  0  0
  185.5340  173.2300  134.6200 C   0  0  0  0  0  2  0  0  0  0  0  0
  186.0100  171.5290  135.0760 S   0  0  0  0  0  0  0  0  0  0  0  0
  181.5290  173.1470  136.4830 C   0  0  0  0  0  1  0  0  0  0  0  0
  183.5010  170.4980  134.9380 N   0  0  0  0  0  2  0  0  0  0  0  0
  183.7390  172.3320  136.4480 C   0  0  1  0  0  3  0  0  0  0  0  0
  181.8710  170.7180  135.6020 S   0  0  0  0  0  0  0  0  0  0  0  0
  184.4160  171.1100  135.8790 C   0  0  2  0  0  3  0  0  0  0  0  0
  182.3660  171.9790  136.7490 N   0  0  0  0  0  0  0  0  0  0  0  0
  184.4460  172.7510  137.7260 C   0  0  0  0  0  1  0  0  0  0  0  0
  1 12  1  0  0  0  0
  3  8  1  0  0  0  0
  4 13  2  0  0  0  0
  5  9  1  0  0  0  0
  6  2  1  6  0  0  0
  6 17  1  0  0  0  0
  7 13  1  1  0  0  0
  7  6  1  0  0  0  0
  7 17  1  0  0  0  0
  8 12  2  0  0  0  0
  9 18  1  0  0  0  0
 10 11  2  0  0  0  0
 11 20  1  0  0  0  0
 11 16  1  0  0  0  0
 12 39  1  0  0  0  0
 13  5  1  0  0  0  0
 14  1  2  0  0  0  0
 15 10  1  0  0  0  0
 15  4  1  0  0  0  0
 16  5  2  0  0  0  0
 17  3  1  1  0  0  0
 18  3  2  0  0  0  0
 18 14  1  0  0  0  0
 20 19  1  6  0  0  0
 20 21  1  0  0  0  0
 21 22  1  0  0  0  0
 22 24  1  0  0  0  0
 24 23  2  0  0  0  0
 24 26  1  0  0  0  0
 25 24  2  0  0  0  0
 26 28  1  0  0  0  0
 27 29  2  0  0  0  0
 28 27  1  0  0  0  0
 30 27  1  6  0  0  0
 30 33  1  0  0  0  0
 31 30  1  0  0  0  0
 32 31  1  0  0  0  0
 33 35  1  0  0  0  0
 34 33  2  0  0  0  0
 35 36  2  0  0  0  0
 35 37  1  0  0  0  0
 37 38  2  0  0  0  0
 39 41  1  0  0  0  0
 41 40  1  0  0  0  0
 42 10  1  0  0  0  0
 43 44  1  0  0  0  0
 43 42  1  0  0  0  0
 45 50  1  0  0  0  0
 46 48  1  0  0  0  0
 46 49  1  0  0  0  0
 47 50  1  0  0  0  0
 47 51  1  1  0  0  0
 48 50  1  0  0  0  0
 49 44  1  6  0  0  0
 49 47  1  0  0  0  0
M  END
>  <MODEL>
3

>  <REMARK>
 VINA RESULT:      -6.9      1.862      2.763
  Name = 
  17 active torsions:
  status: ('A' for Active; 'I' for Inactive)
    1  A    between atoms: C_3  and  C_26
    2  A    between atoms: C_3  and  C_51
    3  A    between atoms: O_5  and  C_15
    4  A    between atoms: C_8  and  C_15
    5  A    between atoms: C_8  and  C_36
    6  A    between atoms: C_14  and  C_15
    7  A    between atoms: S_18  and  C_36
    8  A    between atoms: S_20  and  C_38
    9  A    between atoms: S_20  and  N_44
   10  A    between atoms: O_24  and  C_32
   11  A    between atoms: O_24  and  C_35
   12  A    between atoms: S_25  and  C_30
   13  A    between atoms: S_25  and  C_51
   14  A    between atoms: C_28  and  C_39
   15  A    between atoms: C_28  and  N_44
   16  A    between atoms: C_31  and  C_39
   17  A    between atoms: C_38  and  N_43
                            x       y       z     vdW  Elec       q    Type
                         _______ _______ _______ _____ _____    ______ ____

>  <TORSDO>
F 17

$$$$
=
 OpenBabel10232411083D

 51 55  0  0  1  0  0  0  0  0999 V2000
  186.5520  178.6340  137.2470 C   0  0  0  0  0  3  0  0  0  0  0  0
  186.6690  172.3380  136.3710 C   0  0  0  0  0  1  0  0  0  0  0  0
  186.9280  176.0170  136.3010 C   0  0  0  0  0  0  0  0  0  0  0  0
  190.4240  173.5050  135.1320 C   0  0  0  0  0  3  0  0  0  0  0  0
  189.7860  175.8690  135.3940 C   0  0  0  0  0  0  0  0  0  0  0  0
  187.4840  173.6040  136.4590 C   0  0  1  0  0  3  0  0  0  0  0  0
  188.0680  173.9190  135.1000 C   0  0  2  0  0  3  0  0  0  0  0  0
  185.9660  176.2930  137.2900 C   0  0  0  0  0  3  0  0  0  0  0  0
  188.8250  176.8180  134.9550 N   0  0  0  0  0  2  0  0  0  0  0  0
  192.3290  174.3890  136.4030 C   0  0  0  0  0  0  0  0  0  0  0  0
  191.8440  175.5670  136.8500 C   0  0  0  0  0  0  0  0  0  0  0  0
  185.7810  177.5910  137.7740 C   0  0  0  0  0  0  0  0  0  0  0  0
  189.4680  174.4250  135.2810 C   0  0  0  0  0  0  0  0  0  0  0  0
  187.5190  178.3720  136.2720 C   0  0  0  0  0  3  0  0  0  0  0  0
  191.8810  173.8220  135.0950 C   0  0  0  0  0  2  0  0  0  0  0  0
  190.8060  176.3420  136.1260 C   0  0  0  0  0  3  0  0  0  0  0  0
  186.8330  174.6800  135.6190 C   0  0  2  0  0  3  0  0  0  0  0  0
  187.7100  177.0720  135.7940 C   0  0  0  0  0  0  0  0  0  0  0  0
  193.4820  177.0120  137.7950 F   0  0  0  0  0  0  0  0  0  0  0  0
  192.4080  176.1940  138.0920 C   0  0  1  0  0  3  0  0  0  0  0  0
  191.3480  176.9460  138.8980 C   0  0  0  0  0  2  0  0  0  0  0  0
  190.5050  176.0450  139.6710 N   0  0  0  0  0  2  0  0  0  0  0  0
  191.2540  177.7820  141.5130 O   0  0  0  0  0  0  0  0  0  0  0  0
  190.2440  176.7000  141.2640 S   0  0  0  0  0  0  0  0  0  0  0  0
  190.4330  175.6030  142.2810 O   0  0  0  0  0  0  0  0  0  0  0  0
  188.6120  177.4000  141.4480 C   0  0  0  0  0  2  0  0  0  0  0  0
  188.0200  177.2280  143.8870 C   0  0  0  0  0  0  0  0  0  0  0  0
  188.4710  177.9860  142.7650 N   0  0  0  0  0  2  0  0  0  0  0  0
  187.6880  176.0170  143.7510 O   0  0  0  0  0  0  0  0  0  0  0  0
  187.9570  177.8810  145.2330 C   0  0  1  0  0  3  0  0  0  0  0  0
  186.6600  177.8050  145.7630 O   0  0  0  0  0  0  0  0  0  0  0  0
  185.8750  178.5760  144.8990 C   0  0  0  0  0  1  0  0  0  0  0  0
  188.9410  177.2620  146.1890 C   0  0  0  0  0  0  0  0  0  0  0  0
  188.5370  176.7840  147.2830 O   0  0  0  0  0  0  0  0  0  0  0  0
  190.3800  177.2800  145.8770 C   0  0  0  0  0  0  0  0  0  0  0  0
  190.8460  178.1370  145.0830 O   0  0  0  0  0  0  0  0  0  0  0  0
  191.4770  176.1090  146.6370 S   0  0  0  0  0  3  0  0  0  0  0  0
  192.1860  176.9350  147.7050 O   0  0  0  0  0  0  0  0  0  0  0  0
  184.8040  177.8190  138.7420 O   0  0  0  0  0  0  0  0  0  0  0  0
  183.2260  179.6250  138.8760 C   0  0  0  0  0  1  0  0  0  0  0  0
  184.5770  179.0970  139.3220 C   0  0  0  0  0  2  0  0  0  0  0  0
  193.4570  173.7010  137.1240 C   0  0  0  0  0  2  0  0  0  0  0  0
  193.7590  172.3260  136.5550 C   0  0  0  0  0  2  0  0  0  0  0  0
  195.3170  171.6950  137.2670 S   0  0  0  0  0  0  0  0  0  0  0  0
  199.8870  173.6140  136.9390 C   0  0  0  0  0  1  0  0  0  0  0  0
  196.8650  172.5460  135.2030 N   0  0  0  0  0  2  0  0  0  0  0  0
  197.5940  173.2730  137.3570 C   0  0  1  0  0  3  0  0  0  0  0  0
  198.3190  173.5010  134.8610 S   0  0  0  0  0  0  0  0  0  0  0  0
  196.3880  172.9720  136.5030 C   0  0  2  0  0  3  0  0  0  0  0  0
  198.5380  174.0150  136.5450 N   0  0  0  0  0  0  0  0  0  0  0  0
  197.1710  174.1220  138.5450 C   0  0  0  0  0  1  0  0  0  0  0  0
  1 12  1  0  0  0  0
  3  8  1  0  0  0  0
  4 13  2  0  0  0  0
  5 16  2  0  0  0  0
  6  2  1  6  0  0  0
  7 13  1  1  0  0  0
  7 17  1  0  0  0  0
  7  6  1  0  0  0  0
  8 12  2  0  0  0  0
  9  5  1  0  0  0  0
  9 18  1  0  0  0  0
 10 11  2  0  0  0  0
 10 42  1  0  0  0  0
 11 20  1  0  0  0  0
 12 39  1  0  0  0  0
 13  5  1  0  0  0  0
 14  1  2  0  0  0  0
 15  4  1  0  0  0  0
 15 10  1  0  0  0  0
 16 11  1  0  0  0  0
 17  3  1  1  0  0  0
 17  6  1  0  0  0  0
 18 14  1  0  0  0  0
 18  3  2  0  0  0  0
 20 19  1  6  0  0  0
 20 21  1  0  0  0  0
 21 22  1  0  0  0  0
 22 24  1  0  0  0  0
 24 26  1  0  0  0  0
 24 23  2  0  0  0  0
 24 25  2  0  0  0  0
 26 28  1  0  0  0  0
 28 27  1  0  0  0  0
 29 27  2  0  0  0  0
 30 27  1  6  0  0  0
 30 31  1  0  0  0  0
 30 33  1  0  0  0  0
 32 31  1  0  0  0  0
 33 34  2  0  0  0  0
 35 33  1  0  0  0  0
 35 37  1  0  0  0  0
 36 35  2  0  0  0  0
 37 38  2  0  0  0  0
 39 41  1  0  0  0  0
 40 41  1  0  0  0  0
 43 42  1  0  0  0  0
 43 44  1  0  0  0  0
 46 49  1  0  0  0  0
 47 51  1  1  0  0  0
 48 46  1  0  0  0  0
 48 50  1  0  0  0  0
 49 44  1  1  0  0  0
 49 47  1  0  0  0  0
 50 45  1  0  0  0  0
 50 47  1  0  0  0  0
M  END
>  <MODEL>
4

>  <REMARK>
 VINA RESULT:      -6.8      4.019      8.129
  Name = 
  17 active torsions:
  status: ('A' for Active; 'I' for Inactive)
    1  A    between atoms: C_3  and  C_26
    2  A    between atoms: C_3  and  C_51
    3  A    between atoms: O_5  and  C_15
    4  A    between atoms: C_8  and  C_15
    5  A    between atoms: C_8  and  C_36
    6  A    between atoms: C_14  and  C_15
    7  A    between atoms: S_18  and  C_36
    8  A    between atoms: S_20  and  C_38
    9  A    between atoms: S_20  and  N_44
   10  A    between atoms: O_24  and  C_32
   11  A    between atoms: O_24  and  C_35
   12  A    between atoms: S_25  and  C_30
   13  A    between atoms: S_25  and  C_51
   14  A    between atoms: C_28  and  C_39
   15  A    between atoms: C_28  and  N_44
   16  A    between atoms: C_31  and  C_39
   17  A    between atoms: C_38  and  N_43
                            x       y       z     vdW  Elec       q    Type
                         _______ _______ _______ _____ _____    ______ ____

>  <TORSDO>
F 17

$$$$
=
 OpenBabel10232411083D

 51 55  0  0  1  0  0  0  0  0999 V2000
  189.4730  177.3610  142.5810 C   0  0  0  0  0  3  0  0  0  0  0  0
  183.3280  178.4910  141.4040 C   0  0  0  0  0  1  0  0  0  0  0  0
  187.0040  178.2260  141.5610 C   0  0  0  0  0  0  0  0  0  0  0  0
  184.9100  178.0080  137.6280 C   0  0  0  0  0  3  0  0  0  0  0  0
  187.1770  177.8880  138.5820 C   0  0  0  0  0  0  0  0  0  0  0  0
  184.6400  177.9990  140.8440 C   0  0  1  0  0  3  0  0  0  0  0  0
  185.1370  178.9780  139.8030 C   0  0  2  0  0  3  0  0  0  0  0  0
  187.1010  177.7040  142.8640 C   0  0  0  0  0  3  0  0  0  0  0  0
  188.0860  178.6250  139.3880 N   0  0  0  0  0  2  0  0  0  0  0  0
  185.8100  176.0170  136.5090 C   0  0  0  0  0  0  0  0  0  0  0  0
  186.8940  175.7380  137.2630 C   0  0  0  0  0  0  0  0  0  0  0  0
  188.3240  177.2610  143.3740 C   0  0  0  0  0  0  0  0  0  0  0  0
  185.7320  178.2090  138.6610 C   0  0  0  0  0  0  0  0  0  0  0  0
  189.3900  177.8670  141.2810 C   0  0  0  0  0  3  0  0  0  0  0  0
  185.3450  177.4260  136.3260 C   0  0  0  0  0  2  0  0  0  0  0  0
  187.6540  176.7760  138.0040 C   0  0  0  0  0  3  0  0  0  0  0  0
  185.7410  178.9660  141.2200 C   0  0  2  0  0  3  0  0  0  0  0  0
  188.1650  178.3030  140.7670 C   0  0  0  0  0  0  0  0  0  0  0  0
  186.4310  173.4260  137.5860 F   0  0  0  0  0  0  0  0  0  0  0  0
  187.4350  174.3390  137.3210 C   0  0  1  0  0  3  0  0  0  0  0  0
  188.2070  173.9590  136.0570 C   0  0  0  0  0  2  0  0  0  0  0  0
  189.2210  174.9460  135.7170 N   0  0  0  0  0  2  0  0  0  0  0  0
  191.0030  173.0130  135.9590 O   0  0  0  0  0  0  0  0  0  0  0  0
  190.7670  174.4450  136.3420 S   0  0  0  0  0  0  0  0  0  0  0  0
  190.7470  174.5580  137.8460 O   0  0  0  0  0  0  0  0  0  0  0  0
  192.1100  175.4290  135.6960 C   0  0  0  0  0  2  0  0  0  0  0  0
  194.3510  175.1380  136.8000 C   0  0  0  0  0  0  0  0  0  0  0  0
  193.3640  174.7210  135.8580 N   0  0  0  0  0  2  0  0  0  0  0  0
  194.1730  176.1720  137.5020 O   0  0  0  0  0  0  0  0  0  0  0  0
  195.5980  174.3240  136.9600 C   0  0  1  0  0  3  0  0  0  0  0  0
  196.6870  175.1430  137.2970 O   0  0  0  0  0  0  0  0  0  0  0  0
  197.6440  174.8910  136.3090 C   0  0  0  0  0  1  0  0  0  0  0  0
  195.4220  173.2480  137.9970 C   0  0  0  0  0  0  0  0  0  0  0  0
  195.4760  173.5430  139.2210 O   0  0  0  0  0  0  0  0  0  0  0  0
  195.2590  171.8450  137.5810 C   0  0  0  0  0  0  0  0  0  0  0  0
  195.3290  170.9200  138.4300 O   0  0  0  0  0  0  0  0  0  0  0  0
  194.9350  171.4450  135.8820 S   0  0  0  0  0  3  0  0  0  0  0  0
  193.5080  170.9080  135.9130 O   0  0  0  0  0  0  0  0  0  0  0  0
  188.3740  176.7670  144.6770 O   0  0  0  0  0  0  0  0  0  0  0  0
  187.0210  177.8490  146.3400 C   0  0  0  0  0  1  0  0  0  0  0  0
  188.4260  177.6100  145.8200 C   0  0  0  0  0  2  0  0  0  0  0  0
  185.1450  174.9400  135.6950 C   0  0  0  0  0  2  0  0  0  0  0  0
  183.6300  175.0560  135.7030 C   0  0  0  0  0  2  0  0  0  0  0  0
  182.9970  174.7240  137.3820 S   0  0  0  0  0  0  0  0  0  0  0  0
  181.1010  179.1600  138.5670 C   0  0  0  0  0  1  0  0  0  0  0  0
  181.5930  176.6040  136.0140 N   0  0  0  0  0  2  0  0  0  0  0  0
  181.5320  176.8510  138.3880 C   0  0  1  0  0  3  0  0  0  0  0  0
  180.5910  178.0450  136.2670 S   0  0  0  0  0  0  0  0  0  0  0  0
  181.5610  175.8570  137.2540 C   0  0  2  0  0  3  0  0  0  0  0  0
  180.5920  177.8970  138.0350 N   0  0  0  0  0  0  0  0  0  0  0  0
  181.0630  176.1560  139.6550 C   0  0  0  0  0  1  0  0  0  0  0  0
  1 12  1  0  0  0  0
  3  8  1  0  0  0  0
  4 13  2  0  0  0  0
  5 13  1  0  0  0  0
  5  9  1  0  0  0  0
  6 17  1  0  0  0  0
  6  2  1  1  0  0  0
  7 13  1  6  0  0  0
  7  6  1  0  0  0  0
  7 17  1  0  0  0  0
  8 12  2  0  0  0  0
  9 18  1  0  0  0  0
 10 11  2  0  0  0  0
 11 20  1  0  0  0  0
 11 16  1  0  0  0  0
 12 39  1  0  0  0  0
 14  1  2  0  0  0  0
 15 10  1  0  0  0  0
 15  4  1  0  0  0  0
 16  5  2  0  0  0  0
 17  3  1  6  0  0  0
 18 14  1  0  0  0  0
 18  3  2  0  0  0  0
 20 19  1  6  0  0  0
 21 20  1  0  0  0  0
 22 21  1  0  0  0  0
 22 24  1  0  0  0  0
 23 24  2  0  0  0  0
 24 25  2  0  0  0  0
 26 28  1  0  0  0  0
 26 24  1  0  0  0  0
 27 29  2  0  0  0  0
 28 27  1  0  0  0  0
 30 27  1  1  0  0  0
 30 31  1  0  0  0  0
 30 33  1  0  0  0  0
 32 31  1  0  0  0  0
 33 34  2  0  0  0  0
 35 33  1  0  0  0  0
 35 36  2  0  0  0  0
 37 38  2  0  0  0  0
 37 35  1  0  0  0  0
 39 41  1  0  0  0  0
 41 40  1  0  0  0  0
 42 43  1  0  0  0  0
 42 10  1  0  0  0  0
 43 44  1  0  0  0  0
 46 48  1  0  0  0  0
 46 49  1  0  0  0  0
 47 51  1  1  0  0  0
 48 50  1  0  0  0  0
 49 44  1  1  0  0  0
 49 47  1  0  0  0  0
 50 47  1  0  0  0  0
 50 45  1  0  0  0  0
M  END
>  <MODEL>
5

>  <REMARK>
 VINA RESULT:      -6.8      3.093      5.731
  Name = 
  17 active torsions:
  status: ('A' for Active; 'I' for Inactive)
    1  A    between atoms: C_3  and  C_26
    2  A    between atoms: C_3  and  C_51
    3  A    between atoms: O_5  and  C_15
    4  A    between atoms: C_8  and  C_15
    5  A    between atoms: C_8  and  C_36
    6  A    between atoms: C_14  and  C_15
    7  A    between atoms: S_18  and  C_36
    8  A    between atoms: S_20  and  C_38
    9  A    between atoms: S_20  and  N_44
   10  A    between atoms: O_24  and  C_32
   11  A    between atoms: O_24  and  C_35
   12  A    between atoms: S_25  and  C_30
   13  A    between atoms: S_25  and  C_51
   14  A    between atoms: C_28  and  C_39
   15  A    between atoms: C_28  and  N_44
   16  A    between atoms: C_31  and  C_39
   17  A    between atoms: C_38  and  N_43
                            x       y       z     vdW  Elec       q    Type
                         _______ _______ _______ _____ _____    ______ ____

>  <TORSDO>
F 17

$$$$
=
 OpenBabel10232411083D

 51 55  0  0  1  0  0  0  0  0999 V2000
  186.7830  178.3250  142.2550 C   0  0  0  0  0  3  0  0  0  0  0  0
  180.4590  178.1030  141.6430 C   0  0  0  0  0  1  0  0  0  0  0  0
  184.0990  178.6860  141.5140 C   0  0  0  0  0  0  0  0  0  0  0  0
  181.7490  178.3650  137.7360 C   0  0  0  0  0  3  0  0  0  0  0  0
  184.0640  178.6850  138.5110 C   0  0  0  0  0  0  0  0  0  0  0  0
  181.7890  177.9860  140.9410 C   0  0  1  0  0  3  0  0  0  0  0  0
  181.9550  179.1480  139.9880 C   0  0  2  0  0  3  0  0  0  0  0  0
  184.4320  178.0780  142.7380 C   0  0  0  0  0  3  0  0  0  0  0  0
  184.8560  179.5320  139.3320 N   0  0  0  0  0  2  0  0  0  0  0  0
  182.9630  176.7560  136.3360 C   0  0  0  0  0  0  0  0  0  0  0  0
  184.1470  176.6650  136.9770 C   0  0  0  0  0  0  0  0  0  0  0  0
  185.7650  177.8850  143.1090 C   0  0  0  0  0  0  0  0  0  0  0  0
  182.5970  178.6520  138.7260 C   0  0  0  0  0  0  0  0  0  0  0  0
  186.4680  178.9210  141.0310 C   0  0  0  0  0  3  0  0  0  0  0  0
  182.1790  178.0280  136.3490 C   0  0  0  0  0  2  0  0  0  0  0  0
  184.7210  177.7750  137.7780 C   0  0  0  0  0  3  0  0  0  0  0  0
  182.6750  179.1410  141.3480 C   0  0  2  0  0  3  0  0  0  0  0  0
  185.1330  179.1070  140.6560 C   0  0  0  0  0  0  0  0  0  0  0  0
  185.0870  175.0400  135.5140 F   0  0  0  0  0  0  0  0  0  0  0  0
  184.9900  175.4310  136.8370 C   0  0  1  0  0  3  0  0  0  0  0  0
  186.3740  175.5950  137.4670 C   0  0  0  0  0  2  0  0  0  0  0  0
  187.4440  175.3030  136.5250 N   0  0  0  0  0  2  0  0  0  0  0  0
  187.5110  177.7840  135.6260 O   0  0  0  0  0  0  0  0  0  0  0  0
  188.3920  176.7360  136.2430 S   0  0  0  0  0  0  0  0  0  0  0  0
  189.5090  176.4030  135.2860 O   0  0  0  0  0  0  0  0  0  0  0  0
  189.0840  177.3980  137.7490 C   0  0  0  0  0  2  0  0  0  0  0  0
  191.3660  176.4450  138.2090 C   0  0  0  0  0  0  0  0  0  0  0  0
  190.5280  177.4540  137.6480 N   0  0  0  0  0  2  0  0  0  0  0  0
  190.8670  175.4810  138.8530 O   0  0  0  0  0  0  0  0  0  0  0  0
  192.8480  176.5330  138.0120 C   0  0  1  0  0  3  0  0  0  0  0  0
  193.5200  176.4260  139.2400 O   0  0  0  0  0  0  0  0  0  0  0  0
  193.1250  177.5550  139.9640 C   0  0  0  0  0  1  0  0  0  0  0  0
  193.3390  175.4760  137.0620 C   0  0  0  0  0  0  0  0  0  0  0  0
  192.5780  175.0480  136.1530 O   0  0  0  0  0  0  0  0  0  0  0  0
  194.6800  174.8940  137.2380 C   0  0  0  0  0  0  0  0  0  0  0  0
  195.7030  175.5450  136.9060 O   0  0  0  0  0  0  0  0  0  0  0  0
  194.8700  173.2740  137.9410 S   0  0  0  0  0  3  0  0  0  0  0  0
  195.6620  173.5370  139.2170 O   0  0  0  0  0  0  0  0  0  0  0  0
  186.0460  177.2930  144.3400 O   0  0  0  0  0  0  0  0  0  0  0  0
  185.3730  178.5100  146.2980 C   0  0  0  0  0  1  0  0  0  0  0  0
  186.5380  178.0260  145.4540 C   0  0  0  0  0  2  0  0  0  0  0  0
  182.4820  175.6360  135.4520 C   0  0  0  0  0  2  0  0  0  0  0  0
  181.2330  174.9610  135.9930 C   0  0  0  0  0  2  0  0  0  0  0  0
  181.7080  173.5810  137.0890 S   0  0  0  0  0  0  0  0  0  0  0  0
  183.3410  169.0500  135.8700 C   0  0  0  0  0  1  0  0  0  0  0  0
  181.0600  171.7990  135.1440 N   0  0  0  0  0  2  0  0  0  0  0  0
  183.1420  171.3700  136.2290 C   0  0  1  0  0  3  0  0  0  0  0  0
  181.6610  170.3350  134.3460 S   0  0  0  0  0  0  0  0  0  0  0  0
  182.2100  172.4490  135.7370 C   0  0  2  0  0  3  0  0  0  0  0  0
  183.2140  170.3460  135.2060 N   0  0  0  0  0  0  0  0  0  0  0  0
  184.5240  171.9610  136.4520 C   0  0  0  0  0  1  0  0  0  0  0  0
  1 12  1  0  0  0  0
  3  8  1  0  0  0  0
  4 13  2  0  0  0  0
  5 13  1  0  0  0  0
  5  9  1  0  0  0  0
  6 17  1  0  0  0  0
  6  2  1  1  0  0  0
  7 13  1  6  0  0  0
  7  6  1  0  0  0  0
  7 17  1  0  0  0  0
  8 12  2  0  0  0  0
  9 18  1  0  0  0  0
 10 15  1  0  0  0  0
 10 11  2  0  0  0  0
 11 16  1  0  0  0  0
 12 39  1  0  0  0  0
 14  1  2  0  0  0  0
 15  4  1  0  0  0  0
 16  5  2  0  0  0  0
 17  3  1  6  0  0  0
 18 14  1  0  0  0  0
 18  3  2  0  0  0  0
 20 19  1  6  0  0  0
 20 11  1  0  0  0  0
 20 21  1  0  0  0  0
 22 21  1  0  0  0  0
 23 24  2  0  0  0  0
 24 22  1  0  0  0  0
 24 26  1  0  0  0  0
 25 24  2  0  0  0  0
 27 29  2  0  0  0  0
 28 26  1  0  0  0  0
 28 27  1  0  0  0  0
 30 33  1  6  0  0  0
 30 27  1  0  0  0  0
 30 31  1  0  0  0  0
 31 32  1  0  0  0  0
 33 35  1  0  0  0  0
 34 33  2  0  0  0  0
 35 37  1  0  0  0  0
 36 35  2  0  0  0  0
 37 38  2  0  0  0  0
 39 41  1  0  0  0  0
 41 40  1  0  0  0  0
 42 43  1  0  0  0  0
 42 10  1  0  0  0  0
 43 44  1  0  0  0  0
 46 49  1  0  0  0  0
 47 51  1  6  0  0  0
 48 46  1  0  0  0  0
 48 50  1  0  0  0  0
 49 47  1  0  0  0  0
 49 44  1  1  0  0  0
 50 45  1  0  0  0  0
 50 47  1  0  0  0  0
M  END
>  <MODEL>
6

>  <REMARK>
 VINA RESULT:      -6.7      2.368      3.632
  Name = 
  17 active torsions:
  status: ('A' for Active; 'I' for Inactive)
    1  A    between atoms: C_3  and  C_26
    2  A    between atoms: C_3  and  C_51
    3  A    between atoms: O_5  and  C_15
    4  A    between atoms: C_8  and  C_15
    5  A    between atoms: C_8  and  C_36
    6  A    between atoms: C_14  and  C_15
    7  A    between atoms: S_18  and  C_36
    8  A    between atoms: S_20  and  C_38
    9  A    between atoms: S_20  and  N_44
   10  A    between atoms: O_24  and  C_32
   11  A    between atoms: O_24  and  C_35
   12  A    between atoms: S_25  and  C_30
   13  A    between atoms: S_25  and  C_51
   14  A    between atoms: C_28  and  C_39
   15  A    between atoms: C_28  and  N_44
   16  A    between atoms: C_31  and  C_39
   17  A    between atoms: C_38  and  N_43
                            x       y       z     vdW  Elec       q    Type
                         _______ _______ _______ _____ _____    ______ ____

>  <TORSDO>
F 17

$$$$
=
 OpenBabel10232411083D

 51 55  0  0  1  0  0  0  0  0999 V2000
  189.5990  177.3400  142.7550 C   0  0  0  0  0  3  0  0  0  0  0  0
  183.4700  178.4270  141.4600 C   0  0  0  0  0  1  0  0  0  0  0  0
  187.1440  178.2140  141.7070 C   0  0  0  0  0  0  0  0  0  0  0  0
  185.1630  178.1500  137.7110 C   0  0  0  0  0  3  0  0  0  0  0  0
  187.4050  178.0220  138.7220 C   0  0  0  0  0  0  0  0  0  0  0  0
  184.8050  177.9840  140.9140 C   0  0  1  0  0  3  0  0  0  0  0  0
  185.3130  179.0190  139.9360 C   0  0  2  0  0  3  0  0  0  0  0  0
  187.2150  177.6320  142.9870 C   0  0  0  0  0  3  0  0  0  0  0  0
  188.2790  178.7330  139.5880 N   0  0  0  0  0  2  0  0  0  0  0  0
  186.1280  176.2300  136.5250 C   0  0  0  0  0  0  0  0  0  0  0  0
  187.1950  175.9330  137.2960 C   0  0  0  0  0  0  0  0  0  0  0  0
  188.4310  177.1840  143.5100 C   0  0  0  0  0  0  0  0  0  0  0  0
  185.9520  178.3150  138.7760 C   0  0  0  0  0  0  0  0  0  0  0  0
  189.5430  177.9070  141.4790 C   0  0  0  0  0  3  0  0  0  0  0  0
  185.6440  177.6380  136.3960 C   0  0  0  0  0  2  0  0  0  0  0  0
  187.9160  176.9460  138.1060 C   0  0  0  0  0  3  0  0  0  0  0  0
  185.8780  178.9490  141.3670 C   0  0  2  0  0  3  0  0  0  0  0  0
  188.3240  178.3470  140.9510 C   0  0  0  0  0  0  0  0  0  0  0  0
  186.7520  173.5950  137.3840 F   0  0  0  0  0  0  0  0  0  0  0  0
  187.7580  174.5410  137.3030 C   0  0  1  0  0  3  0  0  0  0  0  0
  188.6710  174.2750  136.1050 C   0  0  0  0  0  2  0  0  0  0  0  0
  189.5190  175.4180  135.7980 N   0  0  0  0  0  2  0  0  0  0  0  0
  191.9580  176.0020  134.9720 O   0  0  0  0  0  0  0  0  0  0  0  0
  191.1710  174.8980  135.6170 S   0  0  0  0  0  0  0  0  0  0  0  0
  191.2060  173.6800  134.7280 O   0  0  0  0  0  0  0  0  0  0  0  0
  191.9320  174.5050  137.1830 C   0  0  0  0  0  2  0  0  0  0  0  0
  194.4090  174.9400  137.1710 C   0  0  0  0  0  0  0  0  0  0  0  0
  193.2970  174.0680  136.9740 N   0  0  0  0  0  2  0  0  0  0  0  0
  194.2300  176.1450  137.5000 O   0  0  0  0  0  0  0  0  0  0  0  0
  195.7980  174.4050  136.9980 C   0  0  1  0  0  3  0  0  0  0  0  0
  196.6390  175.3770  136.4370 O   0  0  0  0  0  0  0  0  0  0  0  0
  196.9670  174.8800  135.1710 C   0  0  0  0  0  1  0  0  0  0  0  0
  196.3670  173.9220  138.3040 C   0  0  0  0  0  0  0  0  0  0  0  0
  195.9030  172.8820  138.8440 O   0  0  0  0  0  0  0  0  0  0  0  0
  197.4130  174.7040  138.9850 C   0  0  0  0  0  0  0  0  0  0  0  0
  198.5410  174.8530  138.4510 O   0  0  0  0  0  0  0  0  0  0  0  0
  197.0860  175.4650  140.5550 S   0  0  0  0  0  3  0  0  0  0  0  0
  195.6990  176.0710  140.3690 O   0  0  0  0  0  0  0  0  0  0  0  0
  188.4540  176.6290  144.7890 O   0  0  0  0  0  0  0  0  0  0  0  0
  187.3110  178.0600  146.3430 C   0  0  0  0  0  1  0  0  0  0  0  0
  188.6280  177.4080  145.9650 C   0  0  0  0  0  2  0  0  0  0  0  0
  185.5030  175.1820  135.6430 C   0  0  0  0  0  2  0  0  0  0  0  0
  183.9950  175.3310  135.5400 C   0  0  0  0  0  2  0  0  0  0  0  0
  183.1810  173.9760  136.4540 S   0  0  0  0  0  0  0  0  0  0  0  0
  181.5720  178.4460  137.9080 C   0  0  0  0  0  1  0  0  0  0  0  0
  180.9810  175.4670  135.8910 N   0  0  0  0  0  2  0  0  0  0  0  0
  182.1930  176.1750  137.8230 C   0  0  1  0  0  3  0  0  0  0  0  0
  180.0690  176.8710  136.4750 S   0  0  0  0  0  0  0  0  0  0  0  0
  181.7530  174.9790  137.0160 C   0  0  2  0  0  3  0  0  0  0  0  0
  181.0630  177.0760  137.9310 N   0  0  0  0  0  0  0  0  0  0  0  0
  182.6120  175.7190  139.2110 C   0  0  0  0  0  1  0  0  0  0  0  0
  1 12  1  0  0  0  0
  3  8  1  0  0  0  0
  4 13  2  0  0  0  0
  5 13  1  0  0  0  0
  5  9  1  0  0  0  0
  6 17  1  0  0  0  0
  6  2  1  1  0  0  0
  7 13  1  6  0  0  0
  7  6  1  0  0  0  0
  7 17  1  0  0  0  0
  8 12  2  0  0  0  0
  9 18  1  0  0  0  0
 10 11  2  0  0  0  0
 11 20  1  0  0  0  0
 11 16  1  0  0  0  0
 12 39  1  0  0  0  0
 14  1  2  0  0  0  0
 15 10  1  0  0  0  0
 15  4  1  0  0  0  0
 16  5  2  0  0  0  0
 17  3  1  6  0  0  0
 18 14  1  0  0  0  0
 18  3  2  0  0  0  0
 20 19  1  6  0  0  0
 21 20  1  0  0  0  0
 22 21  1  0  0  0  0
 23 24  2  0  0  0  0
 24 22  1  0  0  0  0
 24 26  1  0  0  0  0
 25 24  2  0  0  0  0
 27 29  2  0  0  0  0
 28 27  1  0  0  0  0
 28 26  1  0  0  0  0
 30 31  1  1  0  0  0
 30 27  1  0  0  0  0
 30 33  1  0  0  0  0
 32 31  1  0  0  0  0
 33 34  2  0  0  0  0
 33 35  1  0  0  0  0
 35 37  1  0  0  0  0
 36 35  2  0  0  0  0
 38 37  2  0  0  0  0
 39 41  1  0  0  0  0
 41 40  1  0  0  0  0
 42 10  1  0  0  0  0
 43 42  1  0  0  0  0
 43 44  1  0  0  0  0
 45 50  1  0  0  0  0
 46 48  1  0  0  0  0
 46 49  1  0  0  0  0
 47 50  1  0  0  0  0
 47 51  1  1  0  0  0
 48 50  1  0  0  0  0
 49 44  1  6  0  0  0
 49 47  1  0  0  0  0
M  END
>  <MODEL>
7

>  <REMARK>
 VINA RESULT:      -6.5      3.159      5.291
  Name = 
  17 active torsions:
  status: ('A' for Active; 'I' for Inactive)
    1  A    between atoms: C_3  and  C_26
    2  A    between atoms: C_3  and  C_51
    3  A    between atoms: O_5  and  C_15
    4  A    between atoms: C_8  and  C_15
    5  A    between atoms: C_8  and  C_36
    6  A    between atoms: C_14  and  C_15
    7  A    between atoms: S_18  and  C_36
    8  A    between atoms: S_20  and  C_38
    9  A    between atoms: S_20  and  N_44
   10  A    between atoms: O_24  and  C_32
   11  A    between atoms: O_24  and  C_35
   12  A    between atoms: S_25  and  C_30
   13  A    between atoms: S_25  and  C_51
   14  A    between atoms: C_28  and  C_39
   15  A    between atoms: C_28  and  N_44
   16  A    between atoms: C_31  and  C_39
   17  A    between atoms: C_38  and  N_43
                            x       y       z     vdW  Elec       q    Type
                         _______ _______ _______ _____ _____    ______ ____

>  <TORSDO>
F 17

$$$$
=
 OpenBabel10232411083D

 51 55  0  0  1  0  0  0  0  0999 V2000
  186.2450  178.3950  137.2850 C   0  0  0  0  0  3  0  0  0  0  0  0
  187.2110  172.6190  134.8100 C   0  0  0  0  0  1  0  0  0  0  0  0
  187.0870  176.1730  135.7870 C   0  0  0  0  0  0  0  0  0  0  0  0
  190.9970  174.2520  134.8310 C   0  0  0  0  0  3  0  0  0  0  0  0
  190.0710  176.4140  135.5600 C   0  0  0  0  0  0  0  0  0  0  0  0
  187.8500  173.8420  135.4200 C   0  0  1  0  0  3  0  0  0  0  0  0
  188.6690  174.5550  134.3670 C   0  0  2  0  0  3  0  0  0  0  0  0
  185.9150  176.1160  136.5640 C   0  0  0  0  0  3  0  0  0  0  0  0
  189.1270  177.4060  135.1810 N   0  0  0  0  0  2  0  0  0  0  0  0
  192.4880  174.8210  136.6960 C   0  0  0  0  0  0  0  0  0  0  0  0
  191.7970  175.8000  137.3170 C   0  0  0  0  0  0  0  0  0  0  0  0
  185.4960  177.2130  137.3210 C   0  0  0  0  0  0  0  0  0  0  0  0
  189.9390  175.0500  134.9940 C   0  0  0  0  0  0  0  0  0  0  0  0
  187.4170  178.4630  136.5260 C   0  0  0  0  0  3  0  0  0  0  0  0
  192.3870  174.6300  135.2170 C   0  0  0  0  0  2  0  0  0  0  0  0
  190.8580  176.7040  136.6060 C   0  0  0  0  0  3  0  0  0  0  0  0
  187.2800  175.0830  134.7700 C   0  0  2  0  0  3  0  0  0  0  0  0
  187.8410  177.3630  135.7750 C   0  0  0  0  0  0  0  0  0  0  0  0
  192.8820  177.1370  138.9610 F   0  0  0  0  0  0  0  0  0  0  0  0
  192.0190  176.0730  138.7760 C   0  0  1  0  0  3  0  0  0  0  0  0
  190.7080  176.2880  139.5340 C   0  0  0  0  0  2  0  0  0  0  0  0
  190.6910  177.5530  140.2540 N   0  0  0  0  0  2  0  0  0  0  0  0
  189.1990  176.0790  141.8580 O   0  0  0  0  0  0  0  0  0  0  0  0
  190.0540  177.3140  141.8570 S   0  0  0  0  0  0  0  0  0  0  0  0
  189.2050  178.5040  142.2290 O   0  0  0  0  0  0  0  0  0  0  0  0
  191.3430  177.1060  143.0740 C   0  0  0  0  0  2  0  0  0  0  0  0
  190.3430  177.4330  145.3590 C   0  0  0  0  0  0  0  0  0  0  0  0
  190.7830  176.5810  144.3030 N   0  0  0  0  0  2  0  0  0  0  0  0
  190.4660  178.6860  145.2660 O   0  0  0  0  0  0  0  0  0  0  0  0
  189.7160  176.8250  146.5760 C   0  0  1  0  0  3  0  0  0  0  0  0
  190.5890  176.8950  147.6720 O   0  0  0  0  0  0  0  0  0  0  0  0
  191.7270  176.1880  147.2690 C   0  0  0  0  0  1  0  0  0  0  0  0
  188.4110  177.4940  146.9130 C   0  0  0  0  0  0  0  0  0  0  0  0
  188.1990  177.8990  148.0880 O   0  0  0  0  0  0  0  0  0  0  0  0
  187.3580  177.6100  145.8900 C   0  0  0  0  0  0  0  0  0  0  0  0
  187.3710  176.8640  144.8790 O   0  0  0  0  0  0  0  0  0  0  0  0
  186.0450  178.7890  146.0850 S   0  0  0  0  0  3  0  0  0  0  0  0
  185.0130  178.3370  145.0580 O   0  0  0  0  0  0  0  0  0  0  0  0
  184.3190  177.1140  138.0620 O   0  0  0  0  0  0  0  0  0  0  0  0
  182.6730  178.8290  138.4070 C   0  0  0  0  0  1  0  0  0  0  0  0
  183.8920  178.1210  138.9700 C   0  0  0  0  0  2  0  0  0  0  0  0
  193.5060  174.0060  137.4470 C   0  0  0  0  0  2  0  0  0  0  0  0
  193.9950  172.8070  136.6530 C   0  0  0  0  0  2  0  0  0  0  0  0
  195.5180  172.1470  137.4100 S   0  0  0  0  0  0  0  0  0  0  0  0
  199.7680  174.5550  138.3180 C   0  0  0  0  0  1  0  0  0  0  0  0
  197.3190  173.4540  135.8520 N   0  0  0  0  0  2  0  0  0  0  0  0
  197.5030  173.9200  138.1860 C   0  0  1  0  0  3  0  0  0  0  0  0
  198.6740  174.5940  135.9530 S   0  0  0  0  0  0  0  0  0  0  0  0
  196.5410  173.6280  137.0610 C   0  0  2  0  0  3  0  0  0  0  0  0
  198.4830  174.8690  137.6960 N   0  0  0  0  0  0  0  0  0  0  0  0
  196.7440  174.5330  139.3510 C   0  0  0  0  0  1  0  0  0  0  0  0
  1 12  1  0  0  0  0
  3  8  1  0  0  0  0
  4 13  2  0  0  0  0
  4 15  1  0  0  0  0
  5 16  2  0  0  0  0
  6  2  1  6  0  0  0
  7 17  1  0  0  0  0
  7 13  1  1  0  0  0
  7  6  1  0  0  0  0
  8 12  2  0  0  0  0
  9  5  1  0  0  0  0
  9 18  1  0  0  0  0
 10 11  2  0  0  0  0
 10 42  1  0  0  0  0
 11 20  1  0  0  0  0
 12 39  1  0  0  0  0
 13  5  1  0  0  0  0
 14  1  2  0  0  0  0
 15 10  1  0  0  0  0
 16 11  1  0  0  0  0
 17  6  1  0  0  0  0
 17  3  1  1  0  0  0
 18  3  2  0  0  0  0
 18 14  1  0  0  0  0
 20 19  1  6  0  0  0
 20 21  1  0  0  0  0
 21 22  1  0  0  0  0
 22 24  1  0  0  0  0
 24 23  2  0  0  0  0
 24 25  2  0  0  0  0
 24 26  1  0  0  0  0
 26 28  1  0  0  0  0
 28 27  1  0  0  0  0
 29 27  2  0  0  0  0
 30 27  1  6  0  0  0
 30 33  1  0  0  0  0
 30 31  1  0  0  0  0
 32 31  1  0  0  0  0
 33 34  2  0  0  0  0
 35 37  1  0  0  0  0
 35 33  1  0  0  0  0
 36 35  2  0  0  0  0
 38 37  2  0  0  0  0
 39 41  1  0  0  0  0
 40 41  1  0  0  0  0
 43 44  1  0  0  0  0
 43 42  1  0  0  0  0
 46 48  1  0  0  0  0
 46 49  1  0  0  0  0
 47 51  1  1  0  0  0
 48 50  1  0  0  0  0
 49 44  1  1  0  0  0
 49 47  1  0  0  0  0
 50 47  1  0  0  0  0
 50 45  1  0  0  0  0
M  END
>  <MODEL>
8

>  <REMARK>
 VINA RESULT:      -6.5      4.279      8.562
  Name = 
  17 active torsions:
  status: ('A' for Active; 'I' for Inactive)
    1  A    between atoms: C_3  and  C_26
    2  A    between atoms: C_3  and  C_51
    3  A    between atoms: O_5  and  C_15
    4  A    between atoms: C_8  and  C_15
    5  A    between atoms: C_8  and  C_36
    6  A    between atoms: C_14  and  C_15
    7  A    between atoms: S_18  and  C_36
    8  A    between atoms: S_20  and  C_38
    9  A    between atoms: S_20  and  N_44
   10  A    between atoms: O_24  and  C_32
   11  A    between atoms: O_24  and  C_35
   12  A    between atoms: S_25  and  C_30
   13  A    between atoms: S_25  and  C_51
   14  A    between atoms: C_28  and  C_39
   15  A    between atoms: C_28  and  N_44
   16  A    between atoms: C_31  and  C_39
   17  A    between atoms: C_38  and  N_43
                            x       y       z     vdW  Elec       q    Type
                         _______ _______ _______ _____ _____    ______ ____

>  <TORSDO>
F 17

$$$$
=
 OpenBabel10232411083D

 51 55  0  0  1  0  0  0  0  0999 V2000
  186.4640  178.4060  137.1980 C   0  0  0  0  0  3  0  0  0  0  0  0
  187.2180  172.2420  135.8380 C   0  0  0  0  0  1  0  0  0  0  0  0
  187.1770  175.9210  136.1030 C   0  0  0  0  0  0  0  0  0  0  0  0
  190.9930  173.7830  135.2270 C   0  0  0  0  0  3  0  0  0  0  0  0
  190.1320  176.0610  135.5890 C   0  0  0  0  0  0  0  0  0  0  0  0
  187.9060  173.5500  136.1400 C   0  0  1  0  0  3  0  0  0  0  0  0
  188.6340  174.0290  134.9050 C   0  0  2  0  0  3  0  0  0  0  0  0
  186.0740  176.0360  136.9690 C   0  0  0  0  0  3  0  0  0  0  0  0
  189.1600  176.9750  135.1010 N   0  0  0  0  0  2  0  0  0  0  0  0
  192.6340  174.6820  136.8150 C   0  0  0  0  0  0  0  0  0  0  0  0
  191.9990  175.7750  137.2850 C   0  0  0  0  0  0  0  0  0  0  0  0
  185.7200  177.2670  137.5270 C   0  0  0  0  0  0  0  0  0  0  0  0
  189.9520  174.6150  135.3160 C   0  0  0  0  0  0  0  0  0  0  0  0
  187.5680  178.3050  136.3470 C   0  0  0  0  0  3  0  0  0  0  0  0
  192.4100  174.2060  135.4160 C   0  0  0  0  0  2  0  0  0  0  0  0
  191.0030  176.5380  136.4900 C   0  0  0  0  0  3  0  0  0  0  0  0
  187.2840  174.6490  135.3080 C   0  0  2  0  0  3  0  0  0  0  0  0
  187.9280  177.0710  135.7950 C   0  0  0  0  0  0  0  0  0  0  0  0
  193.3250  177.2920  138.5520 F   0  0  0  0  0  0  0  0  0  0  0  0
  192.3410  176.3250  138.6400 C   0  0  1  0  0  3  0  0  0  0  0  0
  191.1120  176.8530  139.3820 C   0  0  0  0  0  2  0  0  0  0  0  0
  191.4740  177.6320  140.5570 N   0  0  0  0  0  2  0  0  0  0  0  0
  190.8600  177.9710  143.1030 O   0  0  0  0  0  0  0  0  0  0  0  0
  190.3670  177.2930  141.8570 S   0  0  0  0  0  0  0  0  0  0  0  0
  190.3250  175.8030  142.0880 O   0  0  0  0  0  0  0  0  0  0  0  0
  188.7170  177.8810  141.5120 C   0  0  0  0  0  2  0  0  0  0  0  0
  186.5500  178.0430  142.7770 C   0  0  0  0  0  0  0  0  0  0  0  0
  187.9760  178.0300  142.7470 N   0  0  0  0  0  2  0  0  0  0  0  0
  185.8840  177.9630  141.7070 O   0  0  0  0  0  0  0  0  0  0  0  0
  185.8460  178.1380  144.0970 C   0  0  1  0  0  3  0  0  0  0  0  0
  186.7690  178.3020  145.1410 O   0  0  0  0  0  0  0  0  0  0  0  0
  186.3940  177.3560  146.1010 C   0  0  0  0  0  1  0  0  0  0  0  0
  184.8500  179.2650  144.1070 C   0  0  0  0  0  0  0  0  0  0  0  0
  185.1940  180.4100  143.7070 O   0  0  0  0  0  0  0  0  0  0  0  0
  183.4990  179.0480  144.6500 C   0  0  0  0  0  0  0  0  0  0  0  0
  183.3400  178.7870  145.8700 O   0  0  0  0  0  0  0  0  0  0  0  0
  182.0760  179.1750  143.5940 S   0  0  0  0  0  3  0  0  0  0  0  0
  181.0890  178.1940  144.2180 O   0  0  0  0  0  0  0  0  0  0  0  0
  184.6090  177.3350  138.3660 O   0  0  0  0  0  0  0  0  0  0  0  0
  182.5380  178.0460  137.3790 C   0  0  0  0  0  1  0  0  0  0  0  0
  183.6720  178.4040  138.3210 C   0  0  0  0  0  2  0  0  0  0  0  0
  193.7120  174.0130  137.6270 C   0  0  0  0  0  2  0  0  0  0  0  0
  195.1030  174.5070  137.2690 C   0  0  0  0  0  2  0  0  0  0  0  0
  196.3450  173.2730  137.7810 S   0  0  0  0  0  0  0  0  0  0  0  0
  196.1440  168.8440  135.5390 C   0  0  0  0  0  1  0  0  0  0  0  0
  195.3070  170.8560  138.4620 N   0  0  0  0  0  2  0  0  0  0  0  0
  195.8220  171.0980  136.1430 C   0  0  1  0  0  3  0  0  0  0  0  0
  194.8550  169.2920  137.7590 S   0  0  0  0  0  0  0  0  0  0  0  0
  195.3160  171.8110  137.3730 C   0  0  2  0  0  3  0  0  0  0  0  0
  195.1840  169.7980  136.0900 N   0  0  0  0  0  0  0  0  0  0  0  0
  195.4450  171.8980  134.9070 C   0  0  0  0  0  1  0  0  0  0  0  0
  1 12  1  0  0  0  0
  3  8  1  0  0  0  0
  4 13  2  0  0  0  0
  4 15  1  0  0  0  0
  5 16  2  0  0  0  0
  6  2  1  6  0  0  0
  7 17  1  0  0  0  0
  7 13  1  1  0  0  0
  7  6  1  0  0  0  0
  8 12  2  0  0  0  0
  9  5  1  0  0  0  0
  9 18  1  0  0  0  0
 10 11  2  0  0  0  0
 10 42  1  0  0  0  0
 11 20  1  0  0  0  0
 12 39  1  0  0  0  0
 13  5  1  0  0  0  0
 14  1  2  0  0  0  0
 15 10  1  0  0  0  0
 16 11  1  0  0  0  0
 17  3  1  1  0  0  0
 17  6  1  0  0  0  0
 18  3  2  0  0  0  0
 18 14  1  0  0  0  0
 20 19  1  6  0  0  0
 20 21  1  0  0  0  0
 21 22  1  0  0  0  0
 22 24  1  0  0  0  0
 24 25  2  0  0  0  0
 24 23  2  0  0  0  0
 26 24  1  0  0  0  0
 26 28  1  0  0  0  0
 28 27  1  0  0  0  0
 29 27  2  0  0  0  0
 30 27  1  6  0  0  0
 30 33  1  0  0  0  0
 30 31  1  0  0  0  0
 31 32  1  0  0  0  0
 33 35  1  0  0  0  0
 34 33  2  0  0  0  0
 35 36  2  0  0  0  0
 37 38  2  0  0  0  0
 37 35  1  0  0  0  0
 40 41  1  0  0  0  0
 41 39  1  0  0  0  0
 43 42  1  0  0  0  0
 43 44  1  0  0  0  0
 45 50  1  0  0  0  0
 47 51  1  6  0  0  0
 47 49  1  0  0  0  0
 48 46  1  0  0  0  0
 49 44  1  1  0  0  0
 49 46  1  0  0  0  0
 50 47  1  0  0  0  0
 50 48  1  0  0  0  0
M  END
>  <MODEL>
9

>  <REMARK>
 VINA RESULT:      -6.4      4.145      8.157
  Name = 
  17 active torsions:
  status: ('A' for Active; 'I' for Inactive)
    1  A    between atoms: C_3  and  C_26
    2  A    between atoms: C_3  and  C_51
    3  A    between atoms: O_5  and  C_15
    4  A    between atoms: C_8  and  C_15
    5  A    between atoms: C_8  and  C_36
    6  A    between atoms: C_14  and  C_15
    7  A    between atoms: S_18  and  C_36
    8  A    between atoms: S_20  and  C_38
    9  A    between atoms: S_20  and  N_44
   10  A    between atoms: O_24  and  C_32
   11  A    between atoms: O_24  and  C_35
   12  A    between atoms: S_25  and  C_30
   13  A    between atoms: S_25  and  C_51
   14  A    between atoms: C_28  and  C_39
   15  A    between atoms: C_28  and  N_44
   16  A    between atoms: C_31  and  C_39
   17  A    between atoms: C_38  and  N_43
                            x       y       z     vdW  Elec       q    Type
                         _______ _______ _______ _____ _____    ______ ____

>  <TORSDO>
F 17

$$$$
