=
 OpenBabel10232412033D

 42 45  0  0  1  0  0  0  0  0999 V2000
  187.0040  177.6600  145.2110 C   0  0  0  0  0  0  0  0  0  0  0  0
  189.7060  177.5450  147.9490 N   0  0  0  0  0  0  0  0  0  0  0  0
  190.7850  177.1220  147.3540 C   0  0  0  0  0  0  0  0  0  0  0  0
  188.2480  177.2270  144.7010 C   0  0  0  0  0  0  0  0  0  0  0  0
  190.6320  176.8540  145.8600 C   0  0  0  0  0  2  0  0  0  0  0  0
  188.7460  177.6010  146.9160 C   0  0  0  0  0  0  0  0  0  0  0  0
  187.1180  177.9870  146.8850 S   0  0  0  0  0  0  0  0  0  0  0  0
  189.2040  177.2200  145.7190 C   0  0  0  0  0  0  0  0  0  0  0  0
  188.4530  175.6120  142.9670 O   0  0  0  0  0  0  0  0  0  0  0  0
  188.5170  176.8260  143.3040 C   0  0  0  0  0  0  0  0  0  0  0  0
  188.8540  177.8170  142.3270 N   0  0  0  0  0  2  0  0  0  0  0  0
  189.1100  177.4890  140.9330 C   0  0  0  0  0  2  0  0  0  0  0  0
  188.3190  178.4160  140.0290 C   0  0  0  0  0  2  0  0  0  0  0  0
  187.7850  178.8420  137.8800 O   0  0  0  0  0  1  0  0  0  0  0  0
  188.2640  177.8650  138.6860 N   0  0  0  0  0  0  0  0  0  0  0  0
  189.6380  177.6260  138.2740 C   0  0  0  0  0  2  0  0  0  0  0  0
  189.7280  176.3330  137.4820 C   0  0  0  0  0  2  0  0  0  0  0  0
  191.0260  176.2320  136.8380 N   0  0  0  0  0  2  0  0  0  0  0  0
  192.0250  176.4770  137.8630 C   0  0  0  0  0  2  0  0  0  0  0  0
  193.4120  176.2050  137.3090 C   0  0  0  0  0  2  0  0  0  0  0  0
  194.2440  175.7160  138.3170 O   0  0  0  0  0  0  0  0  0  0  0  0
  194.5370  174.4080  137.9300 C   0  0  0  0  0  2  0  0  0  0  0  0
  195.9130  174.3460  137.2920 C   0  0  0  0  0  2  0  0  0  0  0  0
  195.9880  173.1930  136.3130 C   0  0  0  0  0  1  0  0  0  0  0  0
  191.9740  176.9410  148.0590 O   0  0  0  0  0  0  0  0  0  0  0  0
  192.6850  175.7130  148.0240 C   0  0  0  0  0  1  0  0  0  0  0  0
  185.7280  177.7610  144.4460 C   0  0  0  0  0  2  0  0  0  0  0  0
  185.1630  179.1620  144.5670 C   0  0  0  0  0  2  0  0  0  0  0  0
  184.2030  179.3890  143.5020 N   0  0  0  0  0  2  0  0  0  0  0  0
  185.5470  179.6830  141.6250 O   0  0  0  0  0  1  0  0  0  0  0  0
  184.7380  178.7700  142.3020 C   0  0  2  0  0  3  0  0  0  0  0  0
  183.3680  178.2610  141.2260 S   0  0  0  0  0  0  0  0  0  0  0  0
  184.4590  178.7020  139.4530 S   0  0  0  0  0  0  0  0  0  0  0  0
  183.2320  177.8700  138.4040 C   0  0  0  0  0  2  0  0  0  0  0  0
  183.4960  175.4920  138.3830 O   0  0  0  0  0  0  0  0  0  0  0  0
  183.8050  175.2820  135.9650 O   0  0  0  0  0  0  0  0  0  0  0  0
  183.0930  174.2320  136.4930 C   0  0  2  0  0  3  0  0  0  0  0  0
  183.8570  176.6540  137.7500 C   0  0  2  0  0  0  0  0  0  0  0  0
  185.2350  176.6750  137.5000 O   0  0  0  0  0  1  0  0  0  0  0  0
  182.9630  175.6460  137.0590 C   0  0  1  0  0  0  0  0  0  0  0  0
  183.5510  171.8530  137.0540 C   0  0  0  0  0  1  0  0  0  0  0  0
  184.0770  173.2700  137.1600 C   0  0  0  0  0  2  0  0  0  0  0  0
  1  7  1  0  0  0  0
  3  2  2  0  0  0  0
  3 25  1  0  0  0  0
  4  1  2  0  0  0  0
  4  8  1  0  0  0  0
  5  3  1  0  0  0  0
  6  2  1  0  0  0  0
  7  6  1  0  0  0  0
  8  5  1  0  0  0  0
  8  6  2  0  0  0  0
  9 10  2  0  0  0  0
 10  4  1  0  0  0  0
 11 10  1  0  0  0  0
 12 11  1  0  0  0  0
 13 12  1  0  0  0  0
 14 15  1  0  0  0  0
 15 13  1  0  0  0  0
 16 15  1  0  0  0  0
 17 16  1  0  0  0  0
 18 17  1  0  0  0  0
 18 19  1  0  0  0  0
 20 19  1  0  0  0  0
 20 21  1  0  0  0  0
 22 21  1  0  0  0  0
 23 22  1  0  0  0  0
 24 23  1  0  0  0  0
 26 25  1  0  0  0  0
 27 28  1  0  0  0  0
 27  1  1  0  0  0  0
 29 28  1  0  0  0  0
 31 30  1  6  0  0  0
 31 29  1  0  0  0  0
 32 31  1  0  0  0  0
 33 32  1  0  0  0  0
 34 33  1  0  0  0  0
 36 37  1  0  0  0  0
 37 40  1  0  0  0  0
 37 42  1  1  0  0  0
 38 39  1  6  0  0  0
 38 35  1  0  0  0  0
 38 34  1  0  0  0  0
 40 36  1  6  0  0  0
 40 38  1  0  0  0  0
 40 35  1  0  0  0  0
 41 42  1  0  0  0  0
M  END
>  <MODEL>
1

>  <REMARK>
 VINA RESULT:      -6.5      0.000      0.000
  Name = 
  22 active torsions:
  status: ('A' for Active; 'I' for Inactive)
    1  A    between atoms: C_1  and  C_19
    2  A    between atoms: C_2  and  C_22
    3  A    between atoms: C_3  and  N_27
    4  A    between atoms: C_3  and  C_28
    5  A    between atoms: S_7  and  S_12
    6  A    between atoms: S_7  and  C_20
    7  A    between atoms: O_8  and  C_11
    8  A    between atoms: C_10  and  C_22
    9  A    between atoms: C_10  and  N_38
   10  A    between atoms: S_12  and  C_32
   11  A    between atoms: C_16  and  C_24
   12  A    between atoms: C_19  and  O_39
   13  A    between atoms: C_20  and  C_29
   14  A    between atoms: C_21  and  C_23
   15  A    between atoms: C_25  and  N_33
   16  A    between atoms: C_25  and  C_41
   17  A    between atoms: N_27  and  C_34
   18  A    between atoms: C_28  and  N_35
   19  A    between atoms: C_30  and  N_33
   20  A    between atoms: C_30  and  C_34
   21  A    between atoms: C_32  and  N_38
   22  A    between atoms: O_39  and  C_41
                            x       y       z     vdW  Elec       q    Type
                         _______ _______ _______ _____ _____    ______ ____

>  <TORSDO>
F 22

$$$$
=
 OpenBabel10232412033D

 42 45  0  0  1  0  0  0  0  0999 V2000
  186.7950  177.7040  145.3760 C   0  0  0  0  0  0  0  0  0  0  0  0
  189.6400  177.6030  147.9650 N   0  0  0  0  0  0  0  0  0  0  0  0
  190.6820  177.1620  147.3190 C   0  0  0  0  0  0  0  0  0  0  0  0
  188.0060  177.2520  144.8060 C   0  0  0  0  0  0  0  0  0  0  0  0
  190.4460  176.8730  145.8400 C   0  0  0  0  0  2  0  0  0  0  0  0
  188.6250  177.6530  146.9850 C   0  0  0  0  0  0  0  0  0  0  0  0
  187.0020  178.0530  147.0360 S   0  0  0  0  0  0  0  0  0  0  0  0
  189.0150  177.2510  145.7710 C   0  0  0  0  0  0  0  0  0  0  0  0
  188.0390  175.6200  143.0760 O   0  0  0  0  0  0  0  0  0  0  0  0
  188.1960  176.8280  143.4020 C   0  0  0  0  0  0  0  0  0  0  0  0
  188.5610  177.7910  142.4080 N   0  0  0  0  0  2  0  0  0  0  0  0
  188.7430  177.4400  141.0070 C   0  0  0  0  0  2  0  0  0  0  0  0
  190.1030  176.7950  140.8080 C   0  0  0  0  0  2  0  0  0  0  0  0
  192.2290  177.4080  140.3750 O   0  0  0  0  0  1  0  0  0  0  0  0
  190.9500  177.6680  140.0140 N   0  0  0  0  0  0  0  0  0  0  0  0
  190.8160  177.2390  138.6310 C   0  0  0  0  0  2  0  0  0  0  0  0
  190.8880  175.7240  138.5450 C   0  0  0  0  0  2  0  0  0  0  0  0
  192.1350  175.3180  137.9230 N   0  0  0  0  0  2  0  0  0  0  0  0
  191.9050  175.3040  136.4890 C   0  0  0  0  0  2  0  0  0  0  0  0
  193.0370  176.0240  135.7770 C   0  0  0  0  0  2  0  0  0  0  0  0
  194.1180  176.1930  136.6430 O   0  0  0  0  0  0  0  0  0  0  0  0
  195.2340  175.8240  135.8900 C   0  0  0  0  0  2  0  0  0  0  0  0
  195.5640  174.3620  136.1260 C   0  0  0  0  0  2  0  0  0  0  0  0
  195.6130  174.0660  137.6110 C   0  0  0  0  0  1  0  0  0  0  0  0
  191.9050  176.9800  147.9630 O   0  0  0  0  0  0  0  0  0  0  0  0
  192.5620  175.7210  147.9770 C   0  0  0  0  0  1  0  0  0  0  0  0
  185.4810  177.8060  144.6790 C   0  0  0  0  0  2  0  0  0  0  0  0
  185.0800  179.2610  144.5420 C   0  0  0  0  0  2  0  0  0  0  0  0
  184.3190  179.4390  143.3190 N   0  0  0  0  0  2  0  0  0  0  0  0
  185.8010  179.6580  141.5380 O   0  0  0  0  0  1  0  0  0  0  0  0
  185.0350  178.7450  142.2630 C   0  0  2  0  0  3  0  0  0  0  0  0
  183.8420  177.9420  141.1560 S   0  0  0  0  0  0  0  0  0  0  0  0
  184.3010  179.2500  139.5410 S   0  0  0  0  0  0  0  0  0  0  0  0
  184.2840  177.8900  138.3380 C   0  0  0  0  0  2  0  0  0  0  0  0
  186.1600  176.6580  137.5070 O   0  0  0  0  0  0  0  0  0  0  0  0
  186.4650  177.9820  135.4730 O   0  0  0  0  0  0  0  0  0  0  0  0
  186.7250  176.6490  135.2710 C   0  0  2  0  0  3  0  0  0  0  0  0
  185.5710  177.8960  137.5380 C   0  0  2  0  0  0  0  0  0  0  0  0
  186.5180  178.8890  137.8220 O   0  0  0  0  0  1  0  0  0  0  0  0
  185.6420  177.1100  136.2460 C   0  0  1  0  0  0  0  0  0  0  0  0
  189.0760  177.4440  135.4280 C   0  0  0  0  0  1  0  0  0  0  0  0
  188.1170  176.3400  135.8220 C   0  0  0  0  0  2  0  0  0  0  0  0
  1  7  1  0  0  0  0
  3 25  1  0  0  0  0
  3  2  2  0  0  0  0
  4  1  2  0  0  0  0
  4  8  1  0  0  0  0
  5  3  1  0  0  0  0
  6  7  1  0  0  0  0
  6  2  1  0  0  0  0
  8  5  1  0  0  0  0
  8  6  2  0  0  0  0
  9 10  2  0  0  0  0
 10  4  1  0  0  0  0
 11 10  1  0  0  0  0
 12 11  1  0  0  0  0
 13 12  1  0  0  0  0
 15 14  1  0  0  0  0
 15 13  1  0  0  0  0
 16 15  1  0  0  0  0
 17 16  1  0  0  0  0
 18 17  1  0  0  0  0
 19 18  1  0  0  0  0
 20 19  1  0  0  0  0
 20 21  1  0  0  0  0
 22 23  1  0  0  0  0
 22 21  1  0  0  0  0
 23 24  1  0  0  0  0
 25 26  1  0  0  0  0
 27  1  1  0  0  0  0
 28 27  1  0  0  0  0
 29 28  1  0  0  0  0
 31 30  1  6  0  0  0
 31 29  1  0  0  0  0
 32 31  1  0  0  0  0
 33 32  1  0  0  0  0
 34 33  1  0  0  0  0
 35 38  1  0  0  0  0
 37 36  1  0  0  0  0
 37 42  1  1  0  0  0
 37 40  1  0  0  0  0
 38 39  1  1  0  0  0
 38 34  1  0  0  0  0
 40 36  1  1  0  0  0
 40 35  1  0  0  0  0
 40 38  1  0  0  0  0
 41 42  1  0  0  0  0
M  END
>  <MODEL>
2

>  <REMARK>
 VINA RESULT:      -6.5      1.762      2.347
  Name = 
  22 active torsions:
  status: ('A' for Active; 'I' for Inactive)
    1  A    between atoms: C_1  and  C_19
    2  A    between atoms: C_2  and  C_22
    3  A    between atoms: C_3  and  N_27
    4  A    between atoms: C_3  and  C_28
    5  A    between atoms: S_7  and  S_12
    6  A    between atoms: S_7  and  C_20
    7  A    between atoms: O_8  and  C_11
    8  A    between atoms: C_10  and  C_22
    9  A    between atoms: C_10  and  N_38
   10  A    between atoms: S_12  and  C_32
   11  A    between atoms: C_16  and  C_24
   12  A    between atoms: C_19  and  O_39
   13  A    between atoms: C_20  and  C_29
   14  A    between atoms: C_21  and  C_23
   15  A    between atoms: C_25  and  N_33
   16  A    between atoms: C_25  and  C_41
   17  A    between atoms: N_27  and  C_34
   18  A    between atoms: C_28  and  N_35
   19  A    between atoms: C_30  and  N_33
   20  A    between atoms: C_30  and  C_34
   21  A    between atoms: C_32  and  N_38
   22  A    between atoms: O_39  and  C_41
                            x       y       z     vdW  Elec       q    Type
                         _______ _______ _______ _____ _____    ______ ____

>  <TORSDO>
F 22

$$$$
=
 OpenBabel10232412033D

 42 45  0  0  1  0  0  0  0  0999 V2000
  186.8790  177.7580  145.3040 C   0  0  0  0  0  0  0  0  0  0  0  0
  189.6820  177.5530  147.9330 N   0  0  0  0  0  0  0  0  0  0  0  0
  190.7290  177.1170  147.2910 C   0  0  0  0  0  0  0  0  0  0  0  0
  188.0940  177.3070  144.7400 C   0  0  0  0  0  0  0  0  0  0  0  0
  190.5130  176.8720  145.8010 C   0  0  0  0  0  2  0  0  0  0  0  0
  188.6840  177.6420  146.9390 C   0  0  0  0  0  0  0  0  0  0  0  0
  187.0650  178.0600  146.9760 S   0  0  0  0  0  0  0  0  0  0  0  0
  189.0880  177.2680  145.7200 C   0  0  0  0  0  0  0  0  0  0  0  0
  188.1230  175.7250  142.9640 O   0  0  0  0  0  0  0  0  0  0  0  0
  188.3000  176.9200  143.3280 C   0  0  0  0  0  0  0  0  0  0  0  0
  188.7070  177.9020  142.3690 N   0  0  0  0  0  2  0  0  0  0  0  0
  188.9080  177.5880  140.9620 C   0  0  0  0  0  2  0  0  0  0  0  0
  190.1860  176.7880  140.7890 C   0  0  0  0  0  2  0  0  0  0  0  0
  192.2590  177.6610  140.6410 O   0  0  0  0  0  1  0  0  0  0  0  0
  191.1100  177.5180  139.9390 N   0  0  0  0  0  0  0  0  0  0  0  0
  191.4200  176.6500  138.8130 C   0  0  0  0  0  2  0  0  0  0  0  0
  190.3990  176.8460  137.7060 C   0  0  0  0  0  2  0  0  0  0  0  0
  190.8710  176.2350  136.4770 N   0  0  0  0  0  2  0  0  0  0  0  0
  189.9500  176.6340  135.4270 C   0  0  0  0  0  2  0  0  0  0  0  0
  189.3160  175.4050  134.8000 C   0  0  0  0  0  2  0  0  0  0  0  0
  188.9810  174.4800  135.7900 O   0  0  0  0  0  0  0  0  0  0  0  0
  189.0180  173.2430  135.1440 C   0  0  0  0  0  2  0  0  0  0  0  0
  187.8550  172.3810  135.5970 C   0  0  0  0  0  2  0  0  0  0  0  0
  187.7690  172.3650  137.1090 C   0  0  0  0  0  1  0  0  0  0  0  0
  191.9400  176.9040  147.9470 O   0  0  0  0  0  0  0  0  0  0  0  0
  192.6140  175.6560  147.8840 C   0  0  0  0  0  1  0  0  0  0  0  0
  185.5770  177.8940  144.5900 C   0  0  0  0  0  2  0  0  0  0  0  0
  185.0000  179.2750  144.8280 C   0  0  0  0  0  2  0  0  0  0  0  0
  184.4020  179.7660  143.5990 N   0  0  0  0  0  2  0  0  0  0  0  0
  185.7970  179.6840  141.7390 O   0  0  0  0  0  1  0  0  0  0  0  0
  184.9070  178.9420  142.5160 C   0  0  2  0  0  3  0  0  0  0  0  0
  183.5200  178.3880  141.4840 S   0  0  0  0  0  0  0  0  0  0  0  0
  184.6180  178.6580  139.6810 S   0  0  0  0  0  0  0  0  0  0  0  0
  183.1890  178.2030  138.6570 C   0  0  0  0  0  2  0  0  0  0  0  0
  183.9070  175.9380  138.3650 O   0  0  0  0  0  0  0  0  0  0  0  0
  182.8150  175.5910  136.2050 O   0  0  0  0  0  0  0  0  0  0  0  0
  182.7840  174.4660  136.9910 C   0  0  2  0  0  3  0  0  0  0  0  0
  183.5750  177.0920  137.7020 C   0  0  2  0  0  0  0  0  0  0  0  0
  184.5170  177.3780  136.7040 O   0  0  0  0  0  1  0  0  0  0  0  0
  182.6950  175.8640  137.6010 C   0  0  1  0  0  0  0  0  0  0  0  0
  184.0000  172.3020  137.1550 C   0  0  0  0  0  1  0  0  0  0  0  0
  184.1550  173.7900  136.9190 C   0  0  0  0  0  2  0  0  0  0  0  0
  1  7  1  0  0  0  0
  3  2  2  0  0  0  0
  3 25  1  0  0  0  0
  4  1  2  0  0  0  0
  4  8  1  0  0  0  0
  5  3  1  0  0  0  0
  6  7  1  0  0  0  0
  6  2  1  0  0  0  0
  8  5  1  0  0  0  0
  8  6  2  0  0  0  0
  9 10  2  0  0  0  0
 10  4  1  0  0  0  0
 11 10  1  0  0  0  0
 12 11  1  0  0  0  0
 13 12  1  0  0  0  0
 15 14  1  0  0  0  0
 15 13  1  0  0  0  0
 16 15  1  0  0  0  0
 17 16  1  0  0  0  0
 18 17  1  0  0  0  0
 19 18  1  0  0  0  0
 20 19  1  0  0  0  0
 20 21  1  0  0  0  0
 22 23  1  0  0  0  0
 22 21  1  0  0  0  0
 23 24  1  0  0  0  0
 26 25  1  0  0  0  0
 27 28  1  0  0  0  0
 27  1  1  0  0  0  0
 29 28  1  0  0  0  0
 31 30  1  6  0  0  0
 31 29  1  0  0  0  0
 32 31  1  0  0  0  0
 33 32  1  0  0  0  0
 34 33  1  0  0  0  0
 36 37  1  0  0  0  0
 37 42  1  1  0  0  0
 37 40  1  0  0  0  0
 38 39  1  6  0  0  0
 38 35  1  0  0  0  0
 38 34  1  0  0  0  0
 40 36  1  6  0  0  0
 40 38  1  0  0  0  0
 40 35  1  0  0  0  0
 42 41  1  0  0  0  0
M  END
>  <MODEL>
3

>  <REMARK>
 VINA RESULT:      -6.3      1.812      2.703
  Name = 
  22 active torsions:
  status: ('A' for Active; 'I' for Inactive)
    1  A    between atoms: C_1  and  C_19
    2  A    between atoms: C_2  and  C_22
    3  A    between atoms: C_3  and  N_27
    4  A    between atoms: C_3  and  C_28
    5  A    between atoms: S_7  and  S_12
    6  A    between atoms: S_7  and  C_20
    7  A    between atoms: O_8  and  C_11
    8  A    between atoms: C_10  and  C_22
    9  A    between atoms: C_10  and  N_38
   10  A    between atoms: S_12  and  C_32
   11  A    between atoms: C_16  and  C_24
   12  A    between atoms: C_19  and  O_39
   13  A    between atoms: C_20  and  C_29
   14  A    between atoms: C_21  and  C_23
   15  A    between atoms: C_25  and  N_33
   16  A    between atoms: C_25  and  C_41
   17  A    between atoms: N_27  and  C_34
   18  A    between atoms: C_28  and  N_35
   19  A    between atoms: C_30  and  N_33
   20  A    between atoms: C_30  and  C_34
   21  A    between atoms: C_32  and  N_38
   22  A    between atoms: O_39  and  C_41
                            x       y       z     vdW  Elec       q    Type
                         _______ _______ _______ _____ _____    ______ ____

>  <TORSDO>
F 22

$$$$
=
 OpenBabel10232412033D

 42 45  0  0  1  0  0  0  0  0999 V2000
  187.6890  177.5240  144.2220 C   0  0  0  0  0  0  0  0  0  0  0  0
  189.7810  177.3960  147.4500 N   0  0  0  0  0  0  0  0  0  0  0  0
  190.9670  177.0040  147.0800 C   0  0  0  0  0  0  0  0  0  0  0  0
  189.0190  177.1220  143.9680 C   0  0  0  0  0  0  0  0  0  0  0  0
  191.1250  176.7640  145.5820 C   0  0  0  0  0  2  0  0  0  0  0  0
  189.0490  177.4580  146.2440 C   0  0  0  0  0  0  0  0  0  0  0  0
  187.4540  177.8180  145.8890 S   0  0  0  0  0  0  0  0  0  0  0  0
  189.7480  177.1100  145.1590 C   0  0  0  0  0  0  0  0  0  0  0  0
  190.0500  175.6020  142.4570 O   0  0  0  0  0  0  0  0  0  0  0  0
  189.5740  176.7540  142.6480 C   0  0  0  0  0  0  0  0  0  0  0  0
  189.5760  177.7100  141.5820 N   0  0  0  0  0  2  0  0  0  0  0  0
  190.0900  177.4030  140.2550 C   0  0  0  0  0  2  0  0  0  0  0  0
  188.9380  177.1640  139.2970 C   0  0  0  0  0  2  0  0  0  0  0  0
  189.0140  179.2440  138.4310 O   0  0  0  0  0  1  0  0  0  0  0  0
  188.1970  178.3980  139.1020 N   0  0  0  0  0  0  0  0  0  0  0  0
  187.0950  178.0890  138.2040 C   0  0  0  0  0  2  0  0  0  0  0  0
  187.3680  176.7860  137.4730 C   0  0  0  0  0  2  0  0  0  0  0  0
  186.3690  176.5740  136.4410 N   0  0  0  0  0  2  0  0  0  0  0  0
  185.2750  175.8450  137.0580 C   0  0  0  0  0  2  0  0  0  0  0  0
  185.2700  174.4080  136.5700 C   0  0  0  0  0  2  0  0  0  0  0  0
  185.2260  173.5320  137.6560 O   0  0  0  0  0  0  0  0  0  0  0  0
  184.2440  172.6000  137.3170 C   0  0  0  0  0  2  0  0  0  0  0  0
  184.7590  171.6660  136.2370 C   0  0  0  0  0  2  0  0  0  0  0  0
  183.7000  170.6460  135.8740 C   0  0  0  0  0  1  0  0  0  0  0  0
  191.9900  176.8280  148.0090 O   0  0  0  0  0  0  0  0  0  0  0  0
  192.8230  175.6780  147.9960 C   0  0  0  0  0  1  0  0  0  0  0  0
  186.5930  177.6200  143.2150 C   0  0  0  0  0  2  0  0  0  0  0  0
  185.3410  178.1740  143.8650 C   0  0  0  0  0  2  0  0  0  0  0  0
  184.3060  178.3340  142.8600 N   0  0  0  0  0  2  0  0  0  0  0  0
  183.0440  178.7200  144.7760 O   0  0  0  0  0  1  0  0  0  0  0  0
  183.2460  179.1270  143.4560 C   0  0  2  0  0  3  0  0  0  0  0  0
  181.7160  178.8950  142.5090 S   0  0  0  0  0  0  0  0  0  0  0  0
  182.7680  178.3290  140.7480 S   0  0  0  0  0  0  0  0  0  0  0  0
  181.2410  178.2600  139.7690 C   0  0  0  0  0  2  0  0  0  0  0  0
  180.2610  176.8340  138.1150 O   0  0  0  0  0  0  0  0  0  0  0  0
  181.9760  175.0930  138.2200 O   0  0  0  0  0  0  0  0  0  0  0  0
  181.5040  175.2840  136.9440 C   0  0  2  0  0  3  0  0  0  0  0  0
  181.0240  176.8510  139.2550 C   0  0  2  0  0  0  0  0  0  0  0  0
  180.5810  175.8800  140.1630 O   0  0  0  0  0  1  0  0  0  0  0  0
  181.6310  176.4470  137.9280 C   0  0  1  0  0  0  0  0  0  0  0  0
  180.3110  173.3180  135.9970 C   0  0  0  0  0  1  0  0  0  0  0  0
  180.1520  174.5810  136.8190 C   0  0  0  0  0  2  0  0  0  0  0  0
  1  7  1  0  0  0  0
  3  2  2  0  0  0  0
  3 25  1  0  0  0  0
  4  1  2  0  0  0  0
  4  8  1  0  0  0  0
  5  3  1  0  0  0  0
  6  2  1  0  0  0  0
  7  6  1  0  0  0  0
  8  5  1  0  0  0  0
  8  6  2  0  0  0  0
  9 10  2  0  0  0  0
 10  4  1  0  0  0  0
 11 10  1  0  0  0  0
 12 11  1  0  0  0  0
 13 12  1  0  0  0  0
 14 15  1  0  0  0  0
 15 13  1  0  0  0  0
 16 15  1  0  0  0  0
 17 16  1  0  0  0  0
 18 19  1  0  0  0  0
 18 17  1  0  0  0  0
 20 19  1  0  0  0  0
 20 21  1  0  0  0  0
 22 21  1  0  0  0  0
 23 22  1  0  0  0  0
 24 23  1  0  0  0  0
 26 25  1  0  0  0  0
 27 28  1  0  0  0  0
 27  1  1  0  0  0  0
 29 31  1  0  0  0  0
 29 28  1  0  0  0  0
 31 30  1  1  0  0  0
 32 31  1  0  0  0  0
 33 32  1  0  0  0  0
 34 33  1  0  0  0  0
 35 38  1  0  0  0  0
 37 42  1  1  0  0  0
 37 40  1  0  0  0  0
 37 36  1  0  0  0  0
 38 34  1  0  0  0  0
 38 39  1  1  0  0  0
 40 35  1  1  0  0  0
 40 36  1  0  0  0  0
 40 38  1  0  0  0  0
 41 42  1  0  0  0  0
M  END
>  <MODEL>
4

>  <REMARK>
 VINA RESULT:      -6.2      2.785      4.351
  Name = 
  22 active torsions:
  status: ('A' for Active; 'I' for Inactive)
    1  A    between atoms: C_1  and  C_19
    2  A    between atoms: C_2  and  C_22
    3  A    between atoms: C_3  and  N_27
    4  A    between atoms: C_3  and  C_28
    5  A    between atoms: S_7  and  S_12
    6  A    between atoms: S_7  and  C_20
    7  A    between atoms: O_8  and  C_11
    8  A    between atoms: C_10  and  C_22
    9  A    between atoms: C_10  and  N_38
   10  A    between atoms: S_12  and  C_32
   11  A    between atoms: C_16  and  C_24
   12  A    between atoms: C_19  and  O_39
   13  A    between atoms: C_20  and  C_29
   14  A    between atoms: C_21  and  C_23
   15  A    between atoms: C_25  and  N_33
   16  A    between atoms: C_25  and  C_41
   17  A    between atoms: N_27  and  C_34
   18  A    between atoms: C_28  and  N_35
   19  A    between atoms: C_30  and  N_33
   20  A    between atoms: C_30  and  C_34
   21  A    between atoms: C_32  and  N_38
   22  A    between atoms: O_39  and  C_41
                            x       y       z     vdW  Elec       q    Type
                         _______ _______ _______ _____ _____    ______ ____

>  <TORSDO>
F 22

$$$$
=
 OpenBabel10232412033D

 42 45  0  0  1  0  0  0  0  0999 V2000
  187.7810  177.2900  144.1380 C   0  0  0  0  0  0  0  0  0  0  0  0
  189.7390  177.3180  147.4520 N   0  0  0  0  0  0  0  0  0  0  0  0
  190.9680  177.0280  147.1310 C   0  0  0  0  0  0  0  0  0  0  0  0
  189.1500  177.0020  143.9400 C   0  0  0  0  0  0  0  0  0  0  0  0
  191.2090  176.8110  145.6410 C   0  0  0  0  0  2  0  0  0  0  0  0
  189.0560  177.3260  146.2160 C   0  0  0  0  0  0  0  0  0  0  0  0
  187.4530  177.5530  145.7950 S   0  0  0  0  0  0  0  0  0  0  0  0
  189.8270  177.0440  145.1610 C   0  0  0  0  0  0  0  0  0  0  0  0
  190.3280  175.5650  142.4550 O   0  0  0  0  0  0  0  0  0  0  0  0
  189.7890  176.6900  142.6440 C   0  0  0  0  0  0  0  0  0  0  0  0
  189.8000  177.6680  141.5980 N   0  0  0  0  0  2  0  0  0  0  0  0
  190.3950  177.4140  140.2950 C   0  0  0  0  0  2  0  0  0  0  0  0
  189.3240  176.9700  139.3150 C   0  0  0  0  0  2  0  0  0  0  0  0
  189.0920  179.1540  138.8050 O   0  0  0  0  0  1  0  0  0  0  0  0
  188.3720  178.0470  139.1060 N   0  0  0  0  0  0  0  0  0  0  0  0
  187.6130  177.7110  137.9120 C   0  0  0  0  0  2  0  0  0  0  0  0
  188.4330  178.0160  136.6700 C   0  0  0  0  0  2  0  0  0  0  0  0
  187.6870  177.6550  135.4780 N   0  0  0  0  0  2  0  0  0  0  0  0
  188.6610  177.2930  134.4640 C   0  0  0  0  0  2  0  0  0  0  0  0
  189.5950  176.2230  135.0020 C   0  0  0  0  0  2  0  0  0  0  0  0
  190.9110  176.5070  134.6350 O   0  0  0  0  0  0  0  0  0  0  0  0
  191.6750  175.5350  135.2820 C   0  0  0  0  0  2  0  0  0  0  0  0
  191.9990  175.9810  136.6960 C   0  0  0  0  0  2  0  0  0  0  0  0
  191.9710  174.7970  137.6410 C   0  0  0  0  0  1  0  0  0  0  0  0
  191.9630  176.9330  148.1030 O   0  0  0  0  0  0  0  0  0  0  0  0
  192.7660  175.7700  148.2380 C   0  0  0  0  0  1  0  0  0  0  0  0
  186.7250  177.3000  143.0860 C   0  0  0  0  0  2  0  0  0  0  0  0
  185.7990  178.4820  143.2950 C   0  0  0  0  0  2  0  0  0  0  0  0
  185.7490  179.2760  142.0800 N   0  0  0  0  0  2  0  0  0  0  0  0
  183.7110  178.1650  142.2400 O   0  0  0  0  0  1  0  0  0  0  0  0
  184.4080  179.1500  141.5390 C   0  0  2  0  0  3  0  0  0  0  0  0
  184.5070  178.6910  139.7860 S   0  0  0  0  0  0  0  0  0  0  0  0
  182.9570  177.2440  139.9700 S   0  0  0  0  0  0  0  0  0  0  0  0
  182.6890  177.1960  138.1750 C   0  0  0  0  0  2  0  0  0  0  0  0
  183.5020  174.9600  138.4370 O   0  0  0  0  0  0  0  0  0  0  0  0
  183.3610  174.3480  136.0730 O   0  0  0  0  0  0  0  0  0  0  0  0
  183.0400  173.3010  136.9020 C   0  0  2  0  0  3  0  0  0  0  0  0
  183.4410  176.0250  137.5750 C   0  0  2  0  0  0  0  0  0  0  0  0
  184.6950  176.2710  137.0020 O   0  0  0  0  0  1  0  0  0  0  0  0
  182.6930  174.7430  137.2710 C   0  0  1  0  0  0  0  0  0  0  0  0
  185.3310  172.5310  136.3170 C   0  0  0  0  0  1  0  0  0  0  0  0
  184.3380  172.7040  137.4480 C   0  0  0  0  0  2  0  0  0  0  0  0
  1  7  1  0  0  0  0
  3  2  2  0  0  0  0
  3 25  1  0  0  0  0
  4  1  2  0  0  0  0
  4  8  1  0  0  0  0
  5  3  1  0  0  0  0
  6  2  1  0  0  0  0
  7  6  1  0  0  0  0
  8  5  1  0  0  0  0
  8  6  2  0  0  0  0
  9 10  2  0  0  0  0
 10  4  1  0  0  0  0
 11 10  1  0  0  0  0
 12 11  1  0  0  0  0
 13 12  1  0  0  0  0
 14 15  1  0  0  0  0
 15 13  1  0  0  0  0
 16 15  1  0  0  0  0
 17 16  1  0  0  0  0
 18 17  1  0  0  0  0
 19 20  1  0  0  0  0
 19 18  1  0  0  0  0
 21 20  1  0  0  0  0
 21 22  1  0  0  0  0
 22 23  1  0  0  0  0
 23 24  1  0  0  0  0
 25 26  1  0  0  0  0
 27 28  1  0  0  0  0
 27  1  1  0  0  0  0
 29 28  1  0  0  0  0
 31 29  1  0  0  0  0
 31 30  1  1  0  0  0
 32 33  1  0  0  0  0
 32 31  1  0  0  0  0
 34 33  1  0  0  0  0
 36 37  1  0  0  0  0
 37 40  1  0  0  0  0
 37 42  1  1  0  0  0
 38 39  1  6  0  0  0
 38 34  1  0  0  0  0
 38 35  1  0  0  0  0
 40 36  1  6  0  0  0
 40 38  1  0  0  0  0
 40 35  1  0  0  0  0
 41 42  1  0  0  0  0
M  END
>  <MODEL>
5

>  <REMARK>
 VINA RESULT:      -6.0      1.819      2.217
  Name = 
  22 active torsions:
  status: ('A' for Active; 'I' for Inactive)
    1  A    between atoms: C_1  and  C_19
    2  A    between atoms: C_2  and  C_22
    3  A    between atoms: C_3  and  N_27
    4  A    between atoms: C_3  and  C_28
    5  A    between atoms: S_7  and  S_12
    6  A    between atoms: S_7  and  C_20
    7  A    between atoms: O_8  and  C_11
    8  A    between atoms: C_10  and  C_22
    9  A    between atoms: C_10  and  N_38
   10  A    between atoms: S_12  and  C_32
   11  A    between atoms: C_16  and  C_24
   12  A    between atoms: C_19  and  O_39
   13  A    between atoms: C_20  and  C_29
   14  A    between atoms: C_21  and  C_23
   15  A    between atoms: C_25  and  N_33
   16  A    between atoms: C_25  and  C_41
   17  A    between atoms: N_27  and  C_34
   18  A    between atoms: C_28  and  N_35
   19  A    between atoms: C_30  and  N_33
   20  A    between atoms: C_30  and  C_34
   21  A    between atoms: C_32  and  N_38
   22  A    between atoms: O_39  and  C_41
                            x       y       z     vdW  Elec       q    Type
                         _______ _______ _______ _____ _____    ______ ____

>  <TORSDO>
F 22

$$$$
=
 OpenBabel10232412033D

 42 45  0  0  1  0  0  0  0  0999 V2000
  186.6070  178.4090  140.4780 C   0  0  0  0  0  0  0  0  0  0  0  0
  185.8850  178.3440  144.2580 N   0  0  0  0  0  0  0  0  0  0  0  0
  184.6540  178.7500  144.3840 C   0  0  0  0  0  0  0  0  0  0  0  0
  185.2850  178.8180  140.7670 C   0  0  0  0  0  0  0  0  0  0  0  0
  183.9470  179.0730  143.0710 C   0  0  0  0  0  2  0  0  0  0  0  0
  186.1090  178.3540  142.8650 C   0  0  0  0  0  0  0  0  0  0  0  0
  187.4470  178.0240  141.9170 S   0  0  0  0  0  0  0  0  0  0  0  0
  185.0580  178.7590  142.1430 C   0  0  0  0  0  0  0  0  0  0  0  0
  184.4340  180.3410  139.1500 O   0  0  0  0  0  0  0  0  0  0  0  0
  184.2800  179.2560  139.7750 C   0  0  0  0  0  0  0  0  0  0  0  0
  183.1250  178.4480  139.5220 N   0  0  0  0  0  2  0  0  0  0  0  0
  182.1110  178.8140  138.5450 C   0  0  0  0  0  2  0  0  0  0  0  0
  182.0990  177.8070  137.4090 C   0  0  0  0  0  2  0  0  0  0  0  0
  180.8610  175.9960  137.9310 O   0  0  0  0  0  1  0  0  0  0  0  0
  182.1340  176.4580  137.9490 N   0  0  0  0  0  0  0  0  0  0  0  0
  182.8810  175.6460  137.0020 C   0  0  0  0  0  2  0  0  0  0  0  0
  183.4740  174.4370  137.7060 C   0  0  0  0  0  2  0  0  0  0  0  0
  183.0990  173.2210  137.0080 N   0  0  0  0  0  2  0  0  0  0  0  0
  184.2990  172.4090  136.9020 C   0  0  0  0  0  2  0  0  0  0  0  0
  185.3840  172.9690  137.8040 C   0  0  0  0  0  2  0  0  0  0  0  0
  186.6420  172.7210  137.2530 O   0  0  0  0  0  0  0  0  0  0  0  0
  186.9070  173.8400  136.4620 C   0  0  0  0  0  2  0  0  0  0  0  0
  188.3460  174.2830  136.6470 C   0  0  0  0  0  2  0  0  0  0  0  0
  188.5790  175.6160  135.9670 C   0  0  0  0  0  1  0  0  0  0  0  0
  184.0580  178.8680  145.6380 O   0  0  0  0  0  0  0  0  0  0  0  0
  184.7120  178.4330  146.8210 C   0  0  0  0  0  1  0  0  0  0  0  0
  187.2420  178.3760  139.1300 C   0  0  0  0  0  2  0  0  0  0  0  0
  188.7470  178.2820  139.2700 C   0  0  0  0  0  2  0  0  0  0  0  0
  189.1350  176.8880  139.3910 N   0  0  0  0  0  2  0  0  0  0  0  0
  190.8530  175.4420  138.7830 O   0  0  0  0  0  1  0  0  0  0  0  0
  190.5140  176.7850  138.9500 C   0  0  2  0  0  3  0  0  0  0  0  0
  191.6010  177.5330  140.1960 S   0  0  0  0  0  0  0  0  0  0  0  0
  190.6800  176.4670  141.7910 S   0  0  0  0  0  0  0  0  0  0  0  0
  191.2620  177.6650  143.0250 C   0  0  0  0  0  2  0  0  0  0  0  0
  190.6830  178.3300  145.2500 O   0  0  0  0  0  0  0  0  0  0  0  0
  189.0110  176.5840  145.6210 O   0  0  0  0  0  0  0  0  0  0  0  0
  188.6580  177.7760  146.2060 C   0  0  2  0  0  3  0  0  0  0  0  0
  190.7820  177.2560  144.4030 C   0  0  2  0  0  0  0  0  0  0  0  0
  191.4270  176.1840  145.0350 O   0  0  0  0  0  1  0  0  0  0  0  0
  189.4290  177.7340  144.8860 C   0  0  1  0  0  0  0  0  0  0  0  0
  188.4910  178.0840  148.6680 C   0  0  0  0  0  1  0  0  0  0  0  0
  189.4500  177.9280  147.5060 C   0  0  0  0  0  2  0  0  0  0  0  0
  1  4  2  0  0  0  0
  1  7  1  0  0  0  0
  2  3  2  0  0  0  0
  3 25  1  0  0  0  0
  4  8  1  0  0  0  0
  5  3  1  0  0  0  0
  6  2  1  0  0  0  0
  7  6  1  0  0  0  0
  8  6  2  0  0  0  0
  8  5  1  0  0  0  0
  9 10  2  0  0  0  0
 10  4  1  0  0  0  0
 11 10  1  0  0  0  0
 12 11  1  0  0  0  0
 13 15  1  0  0  0  0
 13 12  1  0  0  0  0
 14 15  1  0  0  0  0
 16 17  1  0  0  0  0
 16 15  1  0  0  0  0
 18 17  1  0  0  0  0
 19 18  1  0  0  0  0
 19 20  1  0  0  0  0
 21 20  1  0  0  0  0
 22 23  1  0  0  0  0
 22 21  1  0  0  0  0
 24 23  1  0  0  0  0
 25 26  1  0  0  0  0
 27 28  1  0  0  0  0
 27  1  1  0  0  0  0
 28 29  1  0  0  0  0
 31 30  1  1  0  0  0
 31 29  1  0  0  0  0
 31 32  1  0  0  0  0
 32 33  1  0  0  0  0
 33 34  1  0  0  0  0
 34 38  1  0  0  0  0
 36 37  1  0  0  0  0
 37 42  1  1  0  0  0
 38 40  1  0  0  0  0
 38 39  1  1  0  0  0
 38 35  1  0  0  0  0
 40 35  1  1  0  0  0
 40 36  1  0  0  0  0
 40 37  1  0  0  0  0
 42 41  1  0  0  0  0
M  END
>  <MODEL>
6

>  <REMARK>
 VINA RESULT:      -5.9      3.039      8.092
  Name = 
  22 active torsions:
  status: ('A' for Active; 'I' for Inactive)
    1  A    between atoms: C_1  and  C_19
    2  A    between atoms: C_2  and  C_22
    3  A    between atoms: C_3  and  N_27
    4  A    between atoms: C_3  and  C_28
    5  A    between atoms: S_7  and  S_12
    6  A    between atoms: S_7  and  C_20
    7  A    between atoms: O_8  and  C_11
    8  A    between atoms: C_10  and  C_22
    9  A    between atoms: C_10  and  N_38
   10  A    between atoms: S_12  and  C_32
   11  A    between atoms: C_16  and  C_24
   12  A    between atoms: C_19  and  O_39
   13  A    between atoms: C_20  and  C_29
   14  A    between atoms: C_21  and  C_23
   15  A    between atoms: C_25  and  N_33
   16  A    between atoms: C_25  and  C_41
   17  A    between atoms: N_27  and  C_34
   18  A    between atoms: C_28  and  N_35
   19  A    between atoms: C_30  and  N_33
   20  A    between atoms: C_30  and  C_34
   21  A    between atoms: C_32  and  N_38
   22  A    between atoms: O_39  and  C_41
                            x       y       z     vdW  Elec       q    Type
                         _______ _______ _______ _____ _____    ______ ____

>  <TORSDO>
F 22

$$$$
=
 OpenBabel10232412033D

 42 45  0  0  1  0  0  0  0  0999 V2000
  187.5140  178.3170  140.1930 C   0  0  0  0  0  0  0  0  0  0  0  0
  191.1440  177.0400  140.1180 N   0  0  0  0  0  0  0  0  0  0  0  0
  191.3830  176.7480  138.8710 C   0  0  0  0  0  0  0  0  0  0  0  0
  187.9210  177.9710  138.8850 C   0  0  0  0  0  0  0  0  0  0  0  0
  190.2260  177.0150  137.9150 C   0  0  0  0  0  2  0  0  0  0  0  0
  189.8190  177.5280  140.1060 C   0  0  0  0  0  0  0  0  0  0  0  0
  188.7800  178.0470  141.3090 S   0  0  0  0  0  0  0  0  0  0  0  0
  189.2470  177.5350  138.8980 C   0  0  0  0  0  0  0  0  0  0  0  0
  187.0340  179.1050  136.9920 O   0  0  0  0  0  0  0  0  0  0  0  0
  187.0800  178.0430  137.6700 C   0  0  0  0  0  0  0  0  0  0  0  0
  186.3120  176.9050  137.2630 N   0  0  0  0  0  2  0  0  0  0  0  0
  185.4820  176.9070  136.0680 C   0  0  0  0  0  2  0  0  0  0  0  0
  184.0540  176.5380  136.4300 C   0  0  0  0  0  2  0  0  0  0  0  0
  183.0110  178.0980  137.6800 O   0  0  0  0  0  1  0  0  0  0  0  0
  183.7620  176.9760  137.7840 N   0  0  0  0  0  0  0  0  0  0  0  0
  182.9070  175.9610  138.3780 C   0  0  0  0  0  2  0  0  0  0  0  0
  181.6910  175.7230  137.4980 C   0  0  0  0  0  2  0  0  0  0  0  0
  181.2910  174.3300  137.5660 N   0  0  0  0  0  2  0  0  0  0  0  0
  181.6510  173.7260  136.2960 C   0  0  0  0  0  2  0  0  0  0  0  0
  182.5490  172.5240  136.5300 C   0  0  0  0  0  2  0  0  0  0  0  0
  183.8680  172.8400  136.2030 O   0  0  0  0  0  0  0  0  0  0  0  0
  184.6020  172.5130  137.3440 C   0  0  0  0  0  2  0  0  0  0  0  0
  185.9700  173.1690  137.2920 C   0  0  0  0  0  2  0  0  0  0  0  0
  186.4130  173.3510  135.8550 C   0  0  0  0  0  1  0  0  0  0  0  0
  192.6170  176.2330  138.4760 O   0  0  0  0  0  0  0  0  0  0  0  0
  192.7760  175.5280  137.2530 C   0  0  0  0  0  1  0  0  0  0  0  0
  186.1570  178.7850  140.5950 C   0  0  0  0  0  2  0  0  0  0  0  0
  186.0530  178.8270  142.1060 C   0  0  0  0  0  2  0  0  0  0  0  0
  184.6890  179.1520  142.4870 N   0  0  0  0  0  2  0  0  0  0  0  0
  183.8730  179.4320  144.6480 O   0  0  0  0  0  1  0  0  0  0  0  0
  184.4350  178.5100  143.7640 C   0  0  2  0  0  3  0  0  0  0  0  0
  185.9980  177.8920  144.4480 S   0  0  0  0  0  0  0  0  0  0  0  0
  185.7700  179.0010  146.2500 S   0  0  0  0  0  0  0  0  0  0  0  0
  186.4320  177.6430  147.2570 C   0  0  0  0  0  2  0  0  0  0  0  0
  188.5480  176.5950  147.6510 O   0  0  0  0  0  0  0  0  0  0  0  0
  189.8690  178.1510  146.3030 O   0  0  0  0  0  0  0  0  0  0  0  0
  190.3330  176.8610  146.2150 C   0  0  2  0  0  3  0  0  0  0  0  0
  187.9330  177.7950  147.3990 C   0  0  2  0  0  0  0  0  0  0  0  0
  188.4160  178.7900  148.2590 O   0  0  0  0  0  1  0  0  0  0  0  0
  188.8420  177.1620  146.3660 C   0  0  1  0  0  0  0  0  0  0  0  0
  192.3580  175.7260  147.1070 C   0  0  0  0  0  1  0  0  0  0  0  0
  191.1430  176.5530  147.4750 C   0  0  0  0  0  2  0  0  0  0  0  0
  1 27  1  0  0  0  0
  1  7  1  0  0  0  0
  3  2  2  0  0  0  0
  4  8  1  0  0  0  0
  4  1  2  0  0  0  0
  5  3  1  0  0  0  0
  5  8  1  0  0  0  0
  6  2  1  0  0  0  0
  6  7  1  0  0  0  0
  8  6  2  0  0  0  0
  9 10  2  0  0  0  0
 10  4  1  0  0  0  0
 11 10  1  0  0  0  0
 12 13  1  0  0  0  0
 12 11  1  0  0  0  0
 13 15  1  0  0  0  0
 14 15  1  0  0  0  0
 15 16  1  0  0  0  0
 17 18  1  0  0  0  0
 17 16  1  0  0  0  0
 19 20  1  0  0  0  0
 19 18  1  0  0  0  0
 21 20  1  0  0  0  0
 21 22  1  0  0  0  0
 23 22  1  0  0  0  0
 24 23  1  0  0  0  0
 25  3  1  0  0  0  0
 26 25  1  0  0  0  0
 27 28  1  0  0  0  0
 28 29  1  0  0  0  0
 29 31  1  0  0  0  0
 31 32  1  0  0  0  0
 31 30  1  1  0  0  0
 32 33  1  0  0  0  0
 33 34  1  0  0  0  0
 34 38  1  0  0  0  0
 37 36  1  0  0  0  0
 37 40  1  0  0  0  0
 37 42  1  1  0  0  0
 38 35  1  0  0  0  0
 38 39  1  1  0  0  0
 40 36  1  1  0  0  0
 40 38  1  0  0  0  0
 40 35  1  0  0  0  0
 41 42  1  0  0  0  0
M  END
>  <MODEL>
7

>  <REMARK>
 VINA RESULT:      -5.8      2.550      8.515
  Name = 
  22 active torsions:
  status: ('A' for Active; 'I' for Inactive)
    1  A    between atoms: C_1  and  C_19
    2  A    between atoms: C_2  and  C_22
    3  A    between atoms: C_3  and  N_27
    4  A    between atoms: C_3  and  C_28
    5  A    between atoms: S_7  and  S_12
    6  A    between atoms: S_7  and  C_20
    7  A    between atoms: O_8  and  C_11
    8  A    between atoms: C_10  and  C_22
    9  A    between atoms: C_10  and  N_38
   10  A    between atoms: S_12  and  C_32
   11  A    between atoms: C_16  and  C_24
   12  A    between atoms: C_19  and  O_39
   13  A    between atoms: C_20  and  C_29
   14  A    between atoms: C_21  and  C_23
   15  A    between atoms: C_25  and  N_33
   16  A    between atoms: C_25  and  C_41
   17  A    between atoms: N_27  and  C_34
   18  A    between atoms: C_28  and  N_35
   19  A    between atoms: C_30  and  N_33
   20  A    between atoms: C_30  and  C_34
   21  A    between atoms: C_32  and  N_38
   22  A    between atoms: O_39  and  C_41
                            x       y       z     vdW  Elec       q    Type
                         _______ _______ _______ _____ _____    ______ ____

>  <TORSDO>
F 22

$$$$
=
 OpenBabel10232412033D

 42 45  0  0  1  0  0  0  0  0999 V2000
  189.1700  175.3640  137.4230 C   0  0  0  0  0  0  0  0  0  0  0  0
  192.8900  174.4020  137.2010 N   0  0  0  0  0  0  0  0  0  0  0  0
  193.5210  175.2910  137.9130 C   0  0  0  0  0  0  0  0  0  0  0  0
  189.9840  176.2440  138.1700 C   0  0  0  0  0  0  0  0  0  0  0  0
  192.6290  176.3360  138.5750 C   0  0  0  0  0  2  0  0  0  0  0  0
  191.5320  174.7660  137.3240 C   0  0  0  0  0  0  0  0  0  0  0  0
  190.1190  174.1610  136.6650 S   0  0  0  0  0  0  0  0  0  0  0  0
  191.3200  175.8480  138.0810 C   0  0  0  0  0  0  0  0  0  0  0  0
  189.3990  178.5420  138.3620 O   0  0  0  0  0  0  0  0  0  0  0  0
  189.5140  177.4210  138.9310 C   0  0  0  0  0  0  0  0  0  0  0  0
  189.1890  177.2920  140.3190 N   0  0  0  0  0  2  0  0  0  0  0  0
  188.7020  178.4080  141.1170 C   0  0  0  0  0  2  0  0  0  0  0  0
  188.9060  178.1160  142.5930 C   0  0  0  0  0  2  0  0  0  0  0  0
  191.1540  178.0730  142.7630 O   0  0  0  0  0  1  0  0  0  0  0  0
  190.0690  177.2630  142.7690 N   0  0  0  0  0  0  0  0  0  0  0  0
  189.9800  176.7020  144.1070 C   0  0  0  0  0  2  0  0  0  0  0  0
  190.0010  177.8150  145.1410 C   0  0  0  0  0  2  0  0  0  0  0  0
  190.0550  177.2520  146.4790 N   0  0  0  0  0  2  0  0  0  0  0  0
  189.1180  178.0070  147.2920 C   0  0  0  0  0  2  0  0  0  0  0  0
  187.8730  177.1780  147.5520 C   0  0  0  0  0  2  0  0  0  0  0  0
  186.9500  177.3610  146.5220 O   0  0  0  0  0  0  0  0  0  0  0  0
  186.1820  178.4530  146.9270 C   0  0  0  0  0  2  0  0  0  0  0  0
  185.5710  179.1400  145.7190 C   0  0  0  0  0  2  0  0  0  0  0  0
  184.1050  178.7820  145.5950 C   0  0  0  0  0  1  0  0  0  0  0  0
  194.9090  175.2590  138.0410 O   0  0  0  0  0  0  0  0  0  0  0  0
  195.5650  174.2770  138.8290 C   0  0  0  0  0  1  0  0  0  0  0  0
  187.6950  175.4760  137.2370 C   0  0  0  0  0  2  0  0  0  0  0  0
  187.2890  174.8340  135.9260 C   0  0  0  0  0  2  0  0  0  0  0  0
  186.3860  173.7280  136.1900 N   0  0  0  0  0  2  0  0  0  0  0  0
  184.8570  173.2080  137.8650 O   0  0  0  0  0  1  0  0  0  0  0  0
  185.3250  174.2330  137.0430 C   0  0  2  0  0  3  0  0  0  0  0  0
  183.9660  174.8500  136.0110 S   0  0  0  0  0  0  0  0  0  0  0  0
  182.5270  174.5660  137.5540 S   0  0  0  0  0  0  0  0  0  0  0  0
  181.9770  176.2940  137.4600 C   0  0  0  0  0  2  0  0  0  0  0  0
  183.2810  176.8210  139.3960 O   0  0  0  0  0  0  0  0  0  0  0  0
  182.0700  178.8650  139.9810 O   0  0  0  0  0  0  0  0  0  0  0  0
  183.4170  178.9660  140.2330 C   0  0  2  0  0  3  0  0  0  0  0  0
  182.0330  176.9260  138.8360 C   0  0  2  0  0  0  0  0  0  0  0  0
  181.0420  176.5760  139.7620 O   0  0  0  0  0  1  0  0  0  0  0  0
  182.8880  178.1570  139.0490 C   0  0  1  0  0  0  0  0  0  0  0  0
  185.1120  178.5870  142.0130 C   0  0  0  0  0  1  0  0  0  0  0  0
  183.7180  178.2290  141.5400 C   0  0  0  0  0  2  0  0  0  0  0  0
  1  4  2  0  0  0  0
  2  6  1  0  0  0  0
  2  3  2  0  0  0  0
  3 25  1  0  0  0  0
  3  5  1  0  0  0  0
  4 10  1  0  0  0  0
  6  8  2  0  0  0  0
  7  6  1  0  0  0  0
  7  1  1  0  0  0  0
  8  4  1  0  0  0  0
  8  5  1  0  0  0  0
  9 10  2  0  0  0  0
 10 11  1  0  0  0  0
 11 12  1  0  0  0  0
 12 13  1  0  0  0  0
 13 15  1  0  0  0  0
 14 15  1  0  0  0  0
 15 16  1  0  0  0  0
 16 17  1  0  0  0  0
 17 18  1  0  0  0  0
 18 19  1  0  0  0  0
 19 20  1  0  0  0  0
 21 22  1  0  0  0  0
 21 20  1  0  0  0  0
 23 22  1  0  0  0  0
 24 23  1  0  0  0  0
 25 26  1  0  0  0  0
 27  1  1  0  0  0  0
 28 29  1  0  0  0  0
 28 27  1  0  0  0  0
 29 31  1  0  0  0  0
 31 30  1  1  0  0  0
 32 31  1  0  0  0  0
 32 33  1  0  0  0  0
 34 33  1  0  0  0  0
 34 38  1  0  0  0  0
 36 37  1  0  0  0  0
 37 42  1  1  0  0  0
 38 40  1  0  0  0  0
 38 35  1  0  0  0  0
 38 39  1  1  0  0  0
 40 35  1  1  0  0  0
 40 36  1  0  0  0  0
 40 37  1  0  0  0  0
 42 41  1  0  0  0  0
M  END
>  <MODEL>
8

>  <REMARK>
 VINA RESULT:      -5.7      3.037      8.255
  Name = 
  22 active torsions:
  status: ('A' for Active; 'I' for Inactive)
    1  A    between atoms: C_1  and  C_19
    2  A    between atoms: C_2  and  C_22
    3  A    between atoms: C_3  and  N_27
    4  A    between atoms: C_3  and  C_28
    5  A    between atoms: S_7  and  S_12
    6  A    between atoms: S_7  and  C_20
    7  A    between atoms: O_8  and  C_11
    8  A    between atoms: C_10  and  C_22
    9  A    between atoms: C_10  and  N_38
   10  A    between atoms: S_12  and  C_32
   11  A    between atoms: C_16  and  C_24
   12  A    between atoms: C_19  and  O_39
   13  A    between atoms: C_20  and  C_29
   14  A    between atoms: C_21  and  C_23
   15  A    between atoms: C_25  and  N_33
   16  A    between atoms: C_25  and  C_41
   17  A    between atoms: N_27  and  C_34
   18  A    between atoms: C_28  and  N_35
   19  A    between atoms: C_30  and  N_33
   20  A    between atoms: C_30  and  C_34
   21  A    between atoms: C_32  and  N_38
   22  A    between atoms: O_39  and  C_41
                            x       y       z     vdW  Elec       q    Type
                         _______ _______ _______ _____ _____    ______ ____

>  <TORSDO>
F 22

$$$$
=
 OpenBabel10232412033D

 42 45  0  0  1  0  0  0  0  0999 V2000
  189.7590  177.6340  141.2590 C   0  0  0  0  0  0  0  0  0  0  0  0
  191.6050  177.0500  144.5850 N   0  0  0  0  0  0  0  0  0  0  0  0
  190.6950  177.1540  145.5100 C   0  0  0  0  0  0  0  0  0  0  0  0
  188.8820  177.7050  142.3650 C   0  0  0  0  0  0  0  0  0  0  0  0
  189.2860  177.4330  144.9970 C   0  0  0  0  0  2  0  0  0  0  0  0
  190.8940  177.2420  143.3810 C   0  0  0  0  0  0  0  0  0  0  0  0
  191.3560  177.3130  141.7750 S   0  0  0  0  0  0  0  0  0  0  0  0
  189.5860  177.4660  143.5460 C   0  0  0  0  0  0  0  0  0  0  0  0
  186.6790  177.6790  143.2610 O   0  0  0  0  0  0  0  0  0  0  0  0
  187.4340  177.9970  142.3020 C   0  0  0  0  0  0  0  0  0  0  0  0
  186.8830  178.6410  141.1480 N   0  0  0  0  0  2  0  0  0  0  0  0
  185.4710  178.9730  141.0340 C   0  0  0  0  0  2  0  0  0  0  0  0
  185.0020  178.7580  139.6060 C   0  0  0  0  0  2  0  0  0  0  0  0
  183.4890  177.1850  140.1730 O   0  0  0  0  0  1  0  0  0  0  0  0
  183.5930  178.4080  139.6000 N   0  0  0  0  0  0  0  0  0  0  0  0
  182.9240  179.3400  140.4950 C   0  0  0  0  0  2  0  0  0  0  0  0
  181.9370  178.5970  141.3790 C   0  0  0  0  0  2  0  0  0  0  0  0
  181.8610  179.2300  142.6830 N   0  0  0  0  0  2  0  0  0  0  0  0
  182.6650  178.4290  143.5890 C   0  0  0  0  0  2  0  0  0  0  0  0
  183.7580  179.2830  144.2050 C   0  0  0  0  0  2  0  0  0  0  0  0
  183.6280  179.3010  145.5940 O   0  0  0  0  0  0  0  0  0  0  0  0
  184.5580  178.3640  146.0480 C   0  0  0  0  0  2  0  0  0  0  0  0
  185.9430  178.9830  146.0960 C   0  0  0  0  0  2  0  0  0  0  0  0
  186.5650  178.7760  147.4620 C   0  0  0  0  0  1  0  0  0  0  0  0
  191.0180  177.0160  146.8590 O   0  0  0  0  0  0  0  0  0  0  0  0
  191.9320  176.0270  147.3110 C   0  0  0  0  0  1  0  0  0  0  0  0
  189.3950  177.8730  139.8330 C   0  0  0  0  0  2  0  0  0  0  0  0
  190.4330  177.2460  138.9240 C   0  0  0  0  0  2  0  0  0  0  0  0
  190.2340  175.8090  138.8820 N   0  0  0  0  0  2  0  0  0  0  0  0
  189.8100  174.1220  137.3370 O   0  0  0  0  0  1  0  0  0  0  0  0
  189.6770  175.4890  137.5800 C   0  0  2  0  0  3  0  0  0  0  0  0
  190.5650  176.4210  136.3010 S   0  0  0  0  0  0  0  0  0  0  0  0
  191.9260  174.8260  135.9360 S   0  0  0  0  0  0  0  0  0  0  0  0
  193.2660  175.9710  135.5010 C   0  0  0  0  0  2  0  0  0  0  0  0
  194.9180  174.2790  135.8760 O   0  0  0  0  0  0  0  0  0  0  0  0
  196.7790  175.8130  136.2820 O   0  0  0  0  0  0  0  0  0  0  0  0
  197.1710  174.6860  135.6020 C   0  0  2  0  0  3  0  0  0  0  0  0
  194.5430  175.5570  136.2050 C   0  0  2  0  0  0  0  0  0  0  0  0
  194.6270  175.7580  137.5890 O   0  0  0  0  0  1  0  0  0  0  0  0
  195.7910  175.3070  135.3850 C   0  0  1  0  0  0  0  0  0  0  0  0
  197.6950  174.0930  137.9600 C   0  0  0  0  0  1  0  0  0  0  0  0
  197.3030  173.5390  136.6050 C   0  0  0  0  0  2  0  0  0  0  0  0
  1  7  1  0  0  0  0
  1  4  2  0  0  0  0
  2  3  2  0  0  0  0
  3 25  1  0  0  0  0
  4  8  1  0  0  0  0
  5  3  1  0  0  0  0
  6  8  2  0  0  0  0
  6  2  1  0  0  0  0
  7  6  1  0  0  0  0
  8  5  1  0  0  0  0
 10  4  1  0  0  0  0
 10  9  2  0  0  0  0
 11 10  1  0  0  0  0
 12 11  1  0  0  0  0
 13 12  1  0  0  0  0
 15 13  1  0  0  0  0
 15 14  1  0  0  0  0
 15 16  1  0  0  0  0
 16 17  1  0  0  0  0
 17 18  1  0  0  0  0
 18 19  1  0  0  0  0
 19 20  1  0  0  0  0
 20 21  1  0  0  0  0
 21 22  1  0  0  0  0
 22 23  1  0  0  0  0
 23 24  1  0  0  0  0
 25 26  1  0  0  0  0
 27  1  1  0  0  0  0
 28 27  1  0  0  0  0
 29 28  1  0  0  0  0
 31 30  1  6  0  0  0
 31 29  1  0  0  0  0
 32 31  1  0  0  0  0
 33 32  1  0  0  0  0
 34 33  1  0  0  0  0
 34 38  1  0  0  0  0
 35 38  1  0  0  0  0
 37 36  1  0  0  0  0
 37 42  1  1  0  0  0
 38 39  1  1  0  0  0
 40 37  1  0  0  0  0
 40 35  1  1  0  0  0
 40 38  1  0  0  0  0
 40 36  1  0  0  0  0
 42 41  1  0  0  0  0
M  END
>  <MODEL>
9

>  <REMARK>
 VINA RESULT:      -5.7      3.400      8.974
  Name = 
  22 active torsions:
  status: ('A' for Active; 'I' for Inactive)
    1  A    between atoms: C_1  and  C_19
    2  A    between atoms: C_2  and  C_22
    3  A    between atoms: C_3  and  N_27
    4  A    between atoms: C_3  and  C_28
    5  A    between atoms: S_7  and  S_12
    6  A    between atoms: S_7  and  C_20
    7  A    between atoms: O_8  and  C_11
    8  A    between atoms: C_10  and  C_22
    9  A    between atoms: C_10  and  N_38
   10  A    between atoms: S_12  and  C_32
   11  A    between atoms: C_16  and  C_24
   12  A    between atoms: C_19  and  O_39
   13  A    between atoms: C_20  and  C_29
   14  A    between atoms: C_21  and  C_23
   15  A    between atoms: C_25  and  N_33
   16  A    between atoms: C_25  and  C_41
   17  A    between atoms: N_27  and  C_34
   18  A    between atoms: C_28  and  N_35
   19  A    between atoms: C_30  and  N_33
   20  A    between atoms: C_30  and  C_34
   21  A    between atoms: C_32  and  N_38
   22  A    between atoms: O_39  and  C_41
                            x       y       z     vdW  Elec       q    Type
                         _______ _______ _______ _____ _____    ______ ____

>  <TORSDO>
F 22

$$$$
