=
 OpenBabel10232410563D

 64 70  0  0  1  0  0  0  0  0999 V2000
  189.8660  176.4880  138.0570 C   0  0  0  0  0  2  0  0  0  0  0  0
  191.3370  176.5520  137.7200 C   0  0  2  0  0  3  0  0  0  0  0  0
  190.4660  175.4720  137.0970 C   0  0  2  0  0  3  0  0  0  0  0  0
  190.1670  175.8230  135.6600 C   0  0  0  0  0  0  0  0  0  0  0  0
  189.2840  175.1730  134.9580 N   0  0  0  0  0  0  0  0  0  0  0  0
  190.4440  178.0210  134.8120 O   0  0  0  0  0  0  0  0  0  0  0  0
  190.9490  176.8770  134.9910 C   0  0  0  0  0  0  0  0  0  0  0  0
  192.2520  176.6000  134.5660 O   0  0  0  0  0  0  0  0  0  0  0  0
  192.7870  175.2800  134.4930 C   0  0  0  0  0  2  0  0  0  0  0  0
  193.9600  174.1560  136.4270 C   0  0  0  0  0  2  0  0  0  0  0  0
  194.0960  175.1440  135.2740 C   0  0  1  0  0  3  0  0  0  0  0  0
  194.9600  174.4890  137.5200 C   0  0  0  0  0  2  0  0  0  0  0  0
  195.2310  174.8190  134.3470 C   0  0  0  0  0  3  0  0  0  0  0  0
  196.5100  174.6940  134.7100 C   0  0  0  0  0  3  0  0  0  0  0  0
  196.3400  173.9500  137.1740 C   0  0  0  0  0  2  0  0  0  0  0  0
  197.0060  174.7450  136.0940 C   0  0  0  0  0  0  0  0  0  0  0  0
  198.2150  175.1550  136.2940 N   0  0  0  0  0  2  0  0  0  0  0  0
  188.4730  174.0560  135.4410 C   0  0  1  0  0  3  0  0  0  0  0  0
  189.3410  173.1430  136.3290 C   0  0  0  0  0  3  0  0  0  0  0  0
  189.1710  171.6700  136.0030 C   0  0  0  0  0  2  0  0  0  0  0  0
  190.4190  172.4080  135.5520 C   0  0  0  0  0  2  0  0  0  0  0  0
  187.1210  174.5110  136.0440 C   0  0  2  0  0  3  0  0  0  0  0  0
  185.9750  172.5170  135.0750 C   0  0  0  0  0  3  0  0  0  0  0  0
  186.1240  173.3990  136.1500 C   0  0  0  0  0  0  0  0  0  0  0  0
  185.0430  171.4760  135.1400 C   0  0  0  0  0  3  0  0  0  0  0  0
  185.3290  173.2340  137.2940 C   0  0  0  0  0  3  0  0  0  0  0  0
  184.2530  171.3150  136.2830 C   0  0  0  0  0  3  0  0  0  0  0  0
  184.3950  172.1940  137.3590 C   0  0  0  0  0  3  0  0  0  0  0  0
  183.9290  177.8950  134.3460 C   0  0  0  0  0  1  0  0  0  0  0  0
  186.4000  177.8440  134.9390 C   0  0  0  0  0  2  0  0  0  0  0  0
  187.2690  176.9210  135.3930 N   0  0  0  0  0  0  0  0  0  0  0  0
  185.1750  177.2310  134.8100 C   0  0  0  0  0  0  0  0  0  0  0  0
  186.5420  175.7900  135.5120 C   0  0  0  0  0  0  0  0  0  0  0  0
  185.2450  175.9410  135.1760 N   0  0  0  0  0  0  0  0  0  0  0  0
  192.1570  175.9330  138.8340 C   0  0  0  0  0  2  0  0  0  0  0  0
  193.9050  177.2930  139.7170 O   0  0  0  0  0  0  0  0  0  0  0  0
  192.6810  176.9990  139.7420 C   0  0  0  0  0  0  0  0  0  0  0  0
  191.5750  177.2070  141.8120 N   0  0  0  0  0  0  0  0  0  0  0  0
  191.8150  177.6770  140.6530 N   0  0  0  0  0  0  0  0  0  0  0  0
  190.6910  177.9110  142.7240 C   0  0  0  0  0  2  0  0  0  0  0  0
  188.5720  177.0460  142.0160 O   0  0  0  0  0  0  0  0  0  0  0  0
  189.3600  178.2110  142.0400 C   0  0  1  0  0  3  0  0  0  0  0  0
  188.1540  178.0540  142.9070 C   0  0  2  0  0  3  0  0  0  0  0  0
  187.5760  177.8740  145.3630 C   0  0  0  0  0  0  0  0  0  0  0  0
  188.4710  177.6540  144.2730 N   0  0  0  0  0  2  0  0  0  0  0  0
  187.8820  177.4450  146.5070 O   0  0  0  0  0  0  0  0  0  0  0  0
  186.2610  178.5610  145.1450 C   0  0  2  0  0  3  0  0  0  0  0  0
  185.5720  178.9370  146.4320 C   0  0  0  0  0  0  0  0  0  0  0  0
  185.9110  180.1070  147.1020 O   0  0  0  0  0  1  0  0  0  0  0  0
  184.6250  178.2330  146.8720 O   0  0  0  0  0  0  0  0  0  0  0  0
  185.3790  177.6980  144.2480 C   0  0  0  0  0  2  0  0  0  0  0  0
  184.2960  178.5330  143.5720 C   0  0  0  0  0  2  0  0  0  0  0  0
  184.1720  179.0010  141.0670 C   0  0  0  0  0  0  0  0  0  0  0  0
  184.6630  179.6050  140.0770 O   0  0  0  0  0  0  0  0  0  0  0  0
  184.7950  179.1470  142.3450 N   0  0  0  0  0  2  0  0  0  0  0  0
  182.6410  177.2580  138.5370 C   0  0  0  0  0  0  0  0  0  0  0  0
  181.5470  180.0490  141.5090 O   0  0  0  0  0  1  0  0  0  0  0  0
  181.6550  178.9630  140.6370 C   0  0  1  0  0  3  0  0  0  0  0  0
  183.0520  176.4760  137.6390 O   0  0  0  0  0  0  0  0  0  0  0  0
  183.1490  177.1310  139.8710 N   0  0  0  0  0  2  0  0  0  0  0  0
  182.5070  180.3540  138.8450 O   0  0  0  0  0  1  0  0  0  0  0  0
  181.5210  179.4250  139.1810 C   0  0  1  0  0  3  0  0  0  0  0  0
  181.5520  178.2420  138.2140 C   0  0  0  0  0  2  0  0  0  0  0  0
  182.9390  178.1520  140.8970 C   0  0  1  0  0  3  0  0  0  0  0  0
  2  1  1  0  0  0  0
  2 35  1  1  0  0  0
  3  4  1  6  0  0  0
  3  2  1  0  0  0  0
  3  1  1  0  0  0  0
  5  4  2  0  0  0  0
  6  7  2  0  0  0  0
  7  4  1  0  0  0  0
  8  7  1  0  0  0  0
  9  8  1  0  0  0  0
 10 12  1  0  0  0  0
 11  9  1  6  0  0  0
 11 10  1  0  0  0  0
 13 14  2  0  0  0  0
 13 11  1  0  0  0  0
 14 16  1  0  0  0  0
 15 12  1  0  0  0  0
 16 17  2  0  0  0  0
 16 15  1  0  0  0  0
 18  5  1  1  0  0  0
 18 19  1  0  0  0  0
 20 19  1  0  0  0  0
 21 20  1  0  0  0  0
 21 19  1  0  0  0  0
 22 18  1  6  0  0  0
 22 24  1  0  0  0  0
 23 25  2  0  0  0  0
 23 24  1  0  0  0  0
 24 26  2  0  0  0  0
 25 27  1  0  0  0  0
 26 28  1  0  0  0  0
 27 28  2  0  0  0  0
 29 32  1  0  0  0  0
 30 31  1  0  0  0  0
 31 33  2  0  0  0  0
 32 30  1  0  0  0  0
 32 34  2  0  0  0  0
 33 22  1  0  0  0  0
 34 33  1  0  0  0  0
 35 37  1  0  0  0  0
 36 37  2  0  0  0  0
 37 39  1  0  0  0  0
 38 40  1  0  0  0  0
 39 38  2  0  0  0  0
 41 42  1  0  0  0  0
 41 43  1  0  0  0  0
 42 40  1  1  0  0  0
 42 43  1  0  0  0  0
 43 45  1  1  0  0  0
 44 46  2  0  0  0  0
 45 44  1  0  0  0  0
 47 51  1  1  0  0  0
 47 44  1  0  0  0  0
 47 48  1  0  0  0  0
 48 50  2  0  0  0  0
 48 49  1  0  0  0  0
 52 51  1  0  0  0  0
 53 55  1  0  0  0  0
 54 53  2  0  0  0  0
 55 52  1  0  0  0  0
 56 60  1  0  0  0  0
 58 64  1  0  0  0  0
 58 57  1  1  0  0  0
 59 56  2  0  0  0  0
 60 64  1  0  0  0  0
 62 61  1  6  0  0  0
 62 58  1  0  0  0  0
 63 56  1  0  0  0  0
 63 62  1  0  0  0  0
 64 53  1  6  0  0  0
M  END
>  <MODEL>
1

>  <REMARK>
 VINA RESULT:      -5.8      0.000      0.000
  Name = 
  22 active torsions:
  status: ('A' for Active; 'I' for Inactive)
    1  A    between atoms: C_5  and  C_37
    2  A    between atoms: C_7  and  C_64
    3  A    between atoms: C_10  and  C_48
    4  A    between atoms: C_12  and  C_51
    5  A    between atoms: C_16  and  C_48
    6  A    between atoms: C_17  and  C_26
    7  A    between atoms: N_21  and  C_61
    8  A    between atoms: C_22  and  C_39
    9  A    between atoms: C_22  and  C_50
   10  A    between atoms: C_23  and  C_42
   11  A    between atoms: C_23  and  C_62
   12  A    between atoms: C_26  and  O_47
   13  A    between atoms: C_31  and  N_44
   14  A    between atoms: C_31  and  C_59
   15  A    between atoms: C_32  and  N_33
   16  A    between atoms: C_32  and  C_54
   17  A    between atoms: N_36  and  C_50
   18  A    between atoms: C_37  and  C_51
   19  A    between atoms: C_37  and  N_57
   20  A    between atoms: C_38  and  C_51
   21  A    between atoms: O_47  and  C_62
   22  A    between atoms: C_48  and  C_59
                            x       y       z     vdW  Elec       q    Type
                         _______ _______ _______ _____ _____    ______ ____

>  <TORSDO>
F 22

$$$$
=
 OpenBabel10232410563D

 64 70  0  0  1  0  0  0  0  0999 V2000
  191.3070  174.2960  137.4350 C   0  0  0  0  0  2  0  0  0  0  0  0
  192.4330  173.6130  136.6930 C   0  0  2  0  0  3  0  0  0  0  0  0
  192.2410  175.1160  136.5570 C   0  0  2  0  0  3  0  0  0  0  0  0
  193.2800  175.8390  137.3780 C   0  0  0  0  0  0  0  0  0  0  0  0
  194.5460  175.8050  137.0750 N   0  0  0  0  0  0  0  0  0  0  0  0
  193.7230  177.2250  139.2500 O   0  0  0  0  0  0  0  0  0  0  0  0
  192.8780  176.5400  138.6090 C   0  0  0  0  0  0  0  0  0  0  0  0
  191.5550  176.4450  139.0510 O   0  0  0  0  0  0  0  0  0  0  0  0
  190.8270  177.5470  139.5900 C   0  0  0  0  0  2  0  0  0  0  0  0
  191.2590  177.3410  142.0700 C   0  0  0  0  0  2  0  0  0  0  0  0
  190.2230  177.2270  140.9580 C   0  0  1  0  0  3  0  0  0  0  0  0
  190.8730  176.4510  143.2380 C   0  0  0  0  0  2  0  0  0  0  0  0
  189.0000  178.0630  141.2010 C   0  0  0  0  0  3  0  0  0  0  0  0
  188.2110  177.9780  142.2760 C   0  0  0  0  0  3  0  0  0  0  0  0
  189.8180  177.1220  144.1030 C   0  0  0  0  0  2  0  0  0  0  0  0
  188.4690  177.1330  143.4520 C   0  0  0  0  0  0  0  0  0  0  0  0
  187.4570  176.7120  144.1350 N   0  0  0  0  0  2  0  0  0  0  0  0
  195.1260  175.0980  135.9340 C   0  0  1  0  0  3  0  0  0  0  0  0
  195.3990  176.1020  134.7980 C   0  0  0  0  0  3  0  0  0  0  0  0
  195.7300  177.4930  135.3070 C   0  0  0  0  0  2  0  0  0  0  0  0
  196.8340  176.5970  134.7740 C   0  0  0  0  0  2  0  0  0  0  0  0
  196.3090  174.1800  136.3340 C   0  0  2  0  0  3  0  0  0  0  0  0
  195.9190  172.0830  135.0390 C   0  0  0  0  0  3  0  0  0  0  0  0
  195.9630  172.7240  136.2810 C   0  0  0  0  0  0  0  0  0  0  0  0
  195.5870  170.7260  134.9560 C   0  0  0  0  0  3  0  0  0  0  0  0
  195.6680  171.9970  137.4440 C   0  0  0  0  0  3  0  0  0  0  0  0
  195.2940  170.0060  136.1180 C   0  0  0  0  0  3  0  0  0  0  0  0
  195.3330  170.6420  137.3620 C   0  0  0  0  0  3  0  0  0  0  0  0
  197.4610  175.3750  140.9990 C   0  0  0  0  0  1  0  0  0  0  0  0
  198.7430  174.9820  138.8400 C   0  0  0  0  0  2  0  0  0  0  0  0
  198.4280  174.6650  137.5700 N   0  0  0  0  0  0  0  0  0  0  0  0
  197.5680  175.0590  139.5510 C   0  0  0  0  0  0  0  0  0  0  0  0
  197.0820  174.5710  137.5600 C   0  0  0  0  0  0  0  0  0  0  0  0
  196.5140  174.7930  138.7630 N   0  0  0  0  0  0  0  0  0  0  0  0
  191.9030  172.9390  135.4430 C   0  0  0  0  0  2  0  0  0  0  0  0
  190.8240  174.8280  134.4670 O   0  0  0  0  0  0  0  0  0  0  0  0
  190.6990  173.6650  134.9350 C   0  0  0  0  0  0  0  0  0  0  0  0
  188.7630  172.9750  136.0860 N   0  0  0  0  0  0  0  0  0  0  0  0
  189.4040  173.0660  134.9890 N   0  0  0  0  0  0  0  0  0  0  0  0
  187.4470  172.3610  136.1210 C   0  0  0  0  0  2  0  0  0  0  0  0
  185.3430  173.5050  136.1640 O   0  0  0  0  0  0  0  0  0  0  0  0
  186.4480  173.2140  135.3440 C   0  0  1  0  0  3  0  0  0  0  0  0
  186.2150  174.5800  135.9020 C   0  0  2  0  0  3  0  0  0  0  0  0
  187.5300  176.1590  137.3770 C   0  0  0  0  0  0  0  0  0  0  0  0
  187.0070  174.8610  137.0940 N   0  0  0  0  0  2  0  0  0  0  0  0
  188.1500  176.3510  138.4560 O   0  0  0  0  0  0  0  0  0  0  0  0
  187.3030  177.2980  136.4280 C   0  0  2  0  0  3  0  0  0  0  0  0
  188.4990  177.5850  135.5560 C   0  0  0  0  0  0  0  0  0  0  0  0
  189.6410  178.1710  136.0900 O   0  0  0  0  0  1  0  0  0  0  0  0
  188.5050  177.2230  134.3490 O   0  0  0  0  0  0  0  0  0  0  0  0
  186.8480  178.5280  137.2090 C   0  0  0  0  0  2  0  0  0  0  0  0
  185.5350  178.2630  137.9360 C   0  0  0  0  0  2  0  0  0  0  0  0
  184.5670  178.5690  140.2780 C   0  0  0  0  0  0  0  0  0  0  0  0
  184.6990  179.0850  141.4190 O   0  0  0  0  0  0  0  0  0  0  0  0
  185.5540  178.8360  139.2790 N   0  0  0  0  0  2  0  0  0  0  0  0
  182.8020  177.5470  137.5160 C   0  0  0  0  0  0  0  0  0  0  0  0
  181.9700  179.0990  141.3540 O   0  0  0  0  0  1  0  0  0  0  0  0
  182.0240  178.3660  140.1650 C   0  0  1  0  0  3  0  0  0  0  0  0
  183.1270  177.1460  136.3680 O   0  0  0  0  0  0  0  0  0  0  0  0
  183.5160  177.0660  138.6620 N   0  0  0  0  0  2  0  0  0  0  0  0
  182.4850  180.3460  138.8460 O   0  0  0  0  0  1  0  0  0  0  0  0
  181.6350  179.2460  138.9720 C   0  0  1  0  0  3  0  0  0  0  0  0
  181.6060  178.4440  137.6720 C   0  0  0  0  0  2  0  0  0  0  0  0
  183.3900  177.6750  139.9850 C   0  0  1  0  0  3  0  0  0  0  0  0
  2 35  1  6  0  0  0
  2  1  1  0  0  0  0
  3  2  1  0  0  0  0
  3  4  1  1  0  0  0
  3  1  1  0  0  0  0
  4  7  1  0  0  0  0
  5  4  2  0  0  0  0
  7  8  1  0  0  0  0
  7  6  2  0  0  0  0
  8  9  1  0  0  0  0
 10 12  1  0  0  0  0
 11  9  1  6  0  0  0
 11 13  1  0  0  0  0
 11 10  1  0  0  0  0
 12 15  1  0  0  0  0
 13 14  2  0  0  0  0
 14 16  1  0  0  0  0
 16 15  1  0  0  0  0
 16 17  2  0  0  0  0
 18  5  1  1  0  0  0
 19 20  1  0  0  0  0
 19 18  1  0  0  0  0
 21 19  1  0  0  0  0
 21 20  1  0  0  0  0
 22 18  1  1  0  0  0
 22 33  1  0  0  0  0
 23 24  1  0  0  0  0
 24 22  1  0  0  0  0
 24 26  2  0  0  0  0
 25 23  2  0  0  0  0
 25 27  1  0  0  0  0
 27 28  2  0  0  0  0
 28 26  1  0  0  0  0
 30 32  1  0  0  0  0
 31 30  1  0  0  0  0
 32 29  1  0  0  0  0
 33 31  2  0  0  0  0
 33 34  1  0  0  0  0
 34 32  2  0  0  0  0
 36 37  2  0  0  0  0
 37 39  1  0  0  0  0
 37 35  1  0  0  0  0
 38 40  1  0  0  0  0
 39 38  2  0  0  0  0
 42 43  1  0  0  0  0
 42 40  1  1  0  0  0
 42 41  1  0  0  0  0
 43 41  1  0  0  0  0
 43 45  1  1  0  0  0
 44 46  2  0  0  0  0
 45 44  1  0  0  0  0
 47 51  1  1  0  0  0
 47 44  1  0  0  0  0
 48 49  1  0  0  0  0
 48 47  1  0  0  0  0
 50 48  2  0  0  0  0
 51 52  1  0  0  0  0
 52 55  1  0  0  0  0
 53 54  2  0  0  0  0
 55 53  1  0  0  0  0
 56 63  1  0  0  0  0
 56 60  1  0  0  0  0
 58 57  1  1  0  0  0
 59 56  2  0  0  0  0
 60 64  1  0  0  0  0
 62 61  1  6  0  0  0
 62 58  1  0  0  0  0
 63 62  1  0  0  0  0
 64 58  1  0  0  0  0
 64 53  1  6  0  0  0
M  END
>  <MODEL>
2

>  <REMARK>
 VINA RESULT:      -5.4      2.456      8.155
  Name = 
  22 active torsions:
  status: ('A' for Active; 'I' for Inactive)
    1  A    between atoms: C_5  and  C_37
    2  A    between atoms: C_7  and  C_64
    3  A    between atoms: C_10  and  C_48
    4  A    between atoms: C_12  and  C_51
    5  A    between atoms: C_16  and  C_48
    6  A    between atoms: C_17  and  C_26
    7  A    between atoms: N_21  and  C_61
    8  A    between atoms: C_22  and  C_39
    9  A    between atoms: C_22  and  C_50
   10  A    between atoms: C_23  and  C_42
   11  A    between atoms: C_23  and  C_62
   12  A    between atoms: C_26  and  O_47
   13  A    between atoms: C_31  and  N_44
   14  A    between atoms: C_31  and  C_59
   15  A    between atoms: C_32  and  N_33
   16  A    between atoms: C_32  and  C_54
   17  A    between atoms: N_36  and  C_50
   18  A    between atoms: C_37  and  C_51
   19  A    between atoms: C_37  and  N_57
   20  A    between atoms: C_38  and  C_51
   21  A    between atoms: O_47  and  C_62
   22  A    between atoms: C_48  and  C_59
                            x       y       z     vdW  Elec       q    Type
                         _______ _______ _______ _____ _____    ______ ____

>  <TORSDO>
F 22

$$$$
=
 OpenBabel10232410563D

 64 70  0  0  1  0  0  0  0  0999 V2000
  191.5740  173.9710  137.2790 C   0  0  0  0  0  2  0  0  0  0  0  0
  192.6180  173.7730  136.2050 C   0  0  2  0  0  3  0  0  0  0  0  0
  192.1900  175.1810  136.5910 C   0  0  2  0  0  3  0  0  0  0  0  0
  193.2560  175.8210  137.4460 C   0  0  0  0  0  0  0  0  0  0  0  0
  194.5250  175.6850  137.1850 N   0  0  0  0  0  0  0  0  0  0  0  0
  193.7110  177.2940  139.2480 O   0  0  0  0  0  0  0  0  0  0  0  0
  192.8710  176.5550  138.6640 C   0  0  0  0  0  0  0  0  0  0  0  0
  191.5690  176.4290  139.1560 O   0  0  0  0  0  0  0  0  0  0  0  0
  190.6630  177.5250  139.2650 C   0  0  0  0  0  2  0  0  0  0  0  0
  188.4570  177.7320  140.4790 C   0  0  0  0  0  2  0  0  0  0  0  0
  189.9650  177.5650  140.6260 C   0  0  1  0  0  3  0  0  0  0  0  0
  187.8810  178.3910  141.7200 C   0  0  0  0  0  2  0  0  0  0  0  0
  190.3510  176.3710  141.4500 C   0  0  0  0  0  3  0  0  0  0  0  0
  189.9580  176.1440  142.7070 C   0  0  0  0  0  3  0  0  0  0  0  0
  187.6960  177.3750  142.8360 C   0  0  0  0  0  2  0  0  0  0  0  0
  188.9970  176.9670  143.4560 C   0  0  0  0  0  0  0  0  0  0  0  0
  189.1000  177.0070  144.7420 N   0  0  0  0  0  2  0  0  0  0  0  0
  195.0840  174.9320  136.0640 C   0  0  1  0  0  3  0  0  0  0  0  0
  195.4270  175.9030  134.9170 C   0  0  0  0  0  3  0  0  0  0  0  0
  195.3540  177.3600  135.3380 C   0  0  0  0  0  2  0  0  0  0  0  0
  196.7030  176.6860  135.1640 C   0  0  0  0  0  2  0  0  0  0  0  0
  196.2100  173.9590  136.4950 C   0  0  2  0  0  3  0  0  0  0  0  0
  195.4140  171.9030  137.6650 C   0  0  0  0  0  3  0  0  0  0  0  0
  195.7850  172.5230  136.4680 C   0  0  0  0  0  0  0  0  0  0  0  0
  195.0240  170.5600  137.6740 C   0  0  0  0  0  3  0  0  0  0  0  0
  195.7670  171.7870  135.2740 C   0  0  0  0  0  3  0  0  0  0  0  0
  195.0070  169.8300  136.4810 C   0  0  0  0  0  3  0  0  0  0  0  0
  195.3800  170.4420  135.2820 C   0  0  0  0  0  3  0  0  0  0  0  0
  199.9480  175.0610  139.5490 C   0  0  0  0  0  1  0  0  0  0  0  0
  197.4120  174.9950  139.7090 C   0  0  0  0  0  2  0  0  0  0  0  0
  196.3970  174.6870  138.8800 N   0  0  0  0  0  0  0  0  0  0  0  0
  198.5850  174.8200  139.0110 C   0  0  0  0  0  0  0  0  0  0  0  0
  196.9910  174.3330  137.7210 C   0  0  0  0  0  0  0  0  0  0  0  0
  198.3370  174.4140  137.7550 N   0  0  0  0  0  0  0  0  0  0  0  0
  191.9550  173.4060  134.8920 C   0  0  0  0  0  2  0  0  0  0  0  0
  190.3070  175.1210  134.7270 O   0  0  0  0  0  0  0  0  0  0  0  0
  190.5420  173.8920  134.8730 C   0  0  0  0  0  0  0  0  0  0  0  0
  188.9700  172.7300  136.1880 N   0  0  0  0  0  0  0  0  0  0  0  0
  189.4520  172.9840  135.0360 N   0  0  0  0  0  0  0  0  0  0  0  0
  187.8610  171.8030  136.3340 C   0  0  0  0  0  2  0  0  0  0  0  0
  185.5400  172.3900  136.2370 O   0  0  0  0  0  0  0  0  0  0  0  0
  186.6950  172.2340  135.4490 C   0  0  1  0  0  3  0  0  0  0  0  0
  186.1270  173.5790  135.7610 C   0  0  2  0  0  3  0  0  0  0  0  0
  187.0440  175.6630  136.8630 C   0  0  0  0  0  0  0  0  0  0  0  0
  186.8100  174.2550  136.8580 N   0  0  0  0  0  2  0  0  0  0  0  0
  187.5810  176.1940  137.8720 O   0  0  0  0  0  0  0  0  0  0  0  0
  186.6130  176.5140  135.7060 C   0  0  2  0  0  3  0  0  0  0  0  0
  187.4860  177.7270  135.5100 C   0  0  0  0  0  0  0  0  0  0  0  0
  188.5400  177.7030  134.6040 O   0  0  0  0  0  0  0  0  0  0  0  0
  187.2180  178.8030  136.1070 O   0  0  0  0  0  1  0  0  0  0  0  0
  185.1410  176.8800  135.8650 C   0  0  0  0  0  2  0  0  0  0  0  0
  184.8610  177.4480  137.2520 C   0  0  0  0  0  2  0  0  0  0  0  0
  183.1450  177.0790  139.1030 C   0  0  0  0  0  0  0  0  0  0  0  0
  182.2990  176.3040  139.6250 O   0  0  0  0  0  0  0  0  0  0  0  0
  183.8870  176.6290  137.9680 N   0  0  0  0  0  2  0  0  0  0  0  0
  183.5670  178.4970  142.2010 C   0  0  0  0  0  0  0  0  0  0  0  0
  181.2030  179.1520  138.7650 O   0  0  0  0  0  1  0  0  0  0  0  0
  182.0450  179.2500  139.8760 C   0  0  1  0  0  3  0  0  0  0  0  0
  184.2590  178.2040  143.2110 O   0  0  0  0  0  0  0  0  0  0  0  0
  184.1480  178.4050  140.8950 N   0  0  0  0  0  2  0  0  0  0  0  0
  180.8200  177.5430  141.0840 O   0  0  0  0  0  1  0  0  0  0  0  0
  181.2990  178.8530  141.1550 C   0  0  1  0  0  3  0  0  0  0  0  0
  182.1760  179.0330  142.3920 C   0  0  0  0  0  2  0  0  0  0  0  0
  183.3510  178.4600  139.6690 C   0  0  1  0  0  3  0  0  0  0  0  0
  2 35  1  6  0  0  0
  2  3  1  0  0  0  0
  2  1  1  0  0  0  0
  3  1  1  0  0  0  0
  3  4  1  1  0  0  0
  4  7  1  0  0  0  0
  5  4  2  0  0  0  0
  7  8  1  0  0  0  0
  7  6  2  0  0  0  0
  8  9  1  0  0  0  0
 10 11  1  0  0  0  0
 10 12  1  0  0  0  0
 11  9  1  6  0  0  0
 11 13  1  0  0  0  0
 12 15  1  0  0  0  0
 13 14  2  0  0  0  0
 14 16  1  0  0  0  0
 15 16  1  0  0  0  0
 16 17  2  0  0  0  0
 18  5  1  1  0  0  0
 19 21  1  0  0  0  0
 19 20  1  0  0  0  0
 19 18  1  0  0  0  0
 21 20  1  0  0  0  0
 22 18  1  1  0  0  0
 22 33  1  0  0  0  0
 23 25  1  0  0  0  0
 24 22  1  0  0  0  0
 24 23  2  0  0  0  0
 26 28  2  0  0  0  0
 26 24  1  0  0  0  0
 27 25  2  0  0  0  0
 28 27  1  0  0  0  0
 31 30  1  0  0  0  0
 32 29  1  0  0  0  0
 32 30  1  0  0  0  0
 33 34  1  0  0  0  0
 33 31  2  0  0  0  0
 34 32  2  0  0  0  0
 36 37  2  0  0  0  0
 37 35  1  0  0  0  0
 37 39  1  0  0  0  0
 38 40  1  0  0  0  0
 39 38  2  0  0  0  0
 42 43  1  0  0  0  0
 42 41  1  0  0  0  0
 42 40  1  1  0  0  0
 43 41  1  0  0  0  0
 43 45  1  1  0  0  0
 44 46  2  0  0  0  0
 45 44  1  0  0  0  0
 47 51  1  1  0  0  0
 47 44  1  0  0  0  0
 48 47  1  0  0  0  0
 48 50  1  0  0  0  0
 49 48  2  0  0  0  0
 51 52  1  0  0  0  0
 52 55  1  0  0  0  0
 53 54  2  0  0  0  0
 55 53  1  0  0  0  0
 56 63  1  0  0  0  0
 56 59  2  0  0  0  0
 58 57  1  6  0  0  0
 58 62  1  0  0  0  0
 60 56  1  0  0  0  0
 62 61  1  6  0  0  0
 62 63  1  0  0  0  0
 64 53  1  1  0  0  0
 64 58  1  0  0  0  0
 64 60  1  0  0  0  0
M  END
>  <MODEL>
3

>  <REMARK>
 VINA RESULT:      -5.3      2.303      8.377
  Name = 
  22 active torsions:
  status: ('A' for Active; 'I' for Inactive)
    1  A    between atoms: C_5  and  C_37
    2  A    between atoms: C_7  and  C_64
    3  A    between atoms: C_10  and  C_48
    4  A    between atoms: C_12  and  C_51
    5  A    between atoms: C_16  and  C_48
    6  A    between atoms: C_17  and  C_26
    7  A    between atoms: N_21  and  C_61
    8  A    between atoms: C_22  and  C_39
    9  A    between atoms: C_22  and  C_50
   10  A    between atoms: C_23  and  C_42
   11  A    between atoms: C_23  and  C_62
   12  A    between atoms: C_26  and  O_47
   13  A    between atoms: C_31  and  N_44
   14  A    between atoms: C_31  and  C_59
   15  A    between atoms: C_32  and  N_33
   16  A    between atoms: C_32  and  C_54
   17  A    between atoms: N_36  and  C_50
   18  A    between atoms: C_37  and  C_51
   19  A    between atoms: C_37  and  N_57
   20  A    between atoms: C_38  and  C_51
   21  A    between atoms: O_47  and  C_62
   22  A    between atoms: C_48  and  C_59
                            x       y       z     vdW  Elec       q    Type
                         _______ _______ _______ _____ _____    ______ ____

>  <TORSDO>
F 22

$$$$
=
 OpenBabel10232410563D

 64 70  0  0  1  0  0  0  0  0999 V2000
  188.7660  177.8900  138.8520 C   0  0  0  0  0  2  0  0  0  0  0  0
  189.6600  176.9700  139.6510 C   0  0  2  0  0  3  0  0  0  0  0  0
  188.6600  176.3830  138.6660 C   0  0  2  0  0  3  0  0  0  0  0  0
  189.3790  175.9260  137.4210 C   0  0  0  0  0  0  0  0  0  0  0  0
  188.8020  175.9130  136.2540 N   0  0  0  0  0  0  0  0  0  0  0  0
  190.9490  174.2480  138.0100 O   0  0  0  0  0  0  0  0  0  0  0  0
  190.7510  175.3970  137.5250 C   0  0  0  0  0  0  0  0  0  0  0  0
  191.8210  176.1750  137.0760 O   0  0  0  0  0  0  0  0  0  0  0  0
  192.9170  176.5550  137.9060 C   0  0  0  0  0  2  0  0  0  0  0  0
  194.3240  174.5230  137.3860 C   0  0  0  0  0  2  0  0  0  0  0  0
  194.2550  176.0460  137.3670 C   0  0  1  0  0  3  0  0  0  0  0  0
  195.7700  174.0670  137.4770 C   0  0  0  0  0  2  0  0  0  0  0  0
  194.5350  176.6330  136.0140 C   0  0  0  0  0  3  0  0  0  0  0  0
  195.6480  176.4330  135.3030 C   0  0  0  0  0  3  0  0  0  0  0  0
  196.4390  174.1160  136.1130 C   0  0  0  0  0  2  0  0  0  0  0  0
  196.7370  175.5170  135.6750 C   0  0  0  0  0  0  0  0  0  0  0  0
  197.9300  175.7880  135.2620 N   0  0  0  0  0  2  0  0  0  0  0  0
  187.4280  176.3320  135.9840 C   0  0  1  0  0  3  0  0  0  0  0  0
  187.4380  177.4780  134.9530 C   0  0  0  0  0  3  0  0  0  0  0  0
  186.1220  178.2330  134.8990 C   0  0  0  0  0  2  0  0  0  0  0  0
  187.3250  178.8510  135.5900 C   0  0  0  0  0  2  0  0  0  0  0  0
  186.4860  175.1410  135.6740 C   0  0  2  0  0  3  0  0  0  0  0  0
  184.0190  174.8130  135.4920 C   0  0  0  0  0  3  0  0  0  0  0  0
  185.1010  175.3370  136.2070 C   0  0  0  0  0  0  0  0  0  0  0  0
  182.7120  174.9900  135.9580 C   0  0  0  0  0  3  0  0  0  0  0  0
  184.8650  176.0450  137.3950 C   0  0  0  0  0  3  0  0  0  0  0  0
  182.4820  175.6970  137.1430 C   0  0  0  0  0  3  0  0  0  0  0  0
  183.5590  176.2250  137.8610 C   0  0  0  0  0  3  0  0  0  0  0  0
  188.3930  170.6310  134.9440 C   0  0  0  0  0  1  0  0  0  0  0  0
  187.8090  172.0670  136.9580 C   0  0  0  0  0  2  0  0  0  0  0  0
  187.2830  173.2900  137.1550 N   0  0  0  0  0  0  0  0  0  0  0  0
  187.8660  171.8550  135.6000 C   0  0  0  0  0  0  0  0  0  0  0  0
  187.0360  173.7660  135.9160 C   0  0  0  0  0  0  0  0  0  0  0  0
  187.3940  172.9190  134.9300 N   0  0  0  0  0  0  0  0  0  0  0  0
  189.1150  176.8020  141.0560 C   0  0  0  0  0  2  0  0  0  0  0  0
  191.0780  177.9230  141.8130 O   0  0  0  0  0  0  0  0  0  0  0  0
  189.8560  177.6860  142.0060 C   0  0  0  0  0  0  0  0  0  0  0  0
  188.5760  177.5240  143.9770 N   0  0  0  0  0  0  0  0  0  0  0  0
  189.2020  178.2540  143.1410 N   0  0  0  0  0  0  0  0  0  0  0  0
  187.9160  178.1200  145.1250 C   0  0  0  0  0  2  0  0  0  0  0  0
  186.4280  177.6310  146.9380 O   0  0  0  0  0  0  0  0  0  0  0  0
  186.8720  177.1600  145.6890 C   0  0  1  0  0  3  0  0  0  0  0  0
  185.5100  177.7450  145.8750 C   0  0  2  0  0  3  0  0  0  0  0  0
  184.8730  179.5330  144.2030 C   0  0  0  0  0  0  0  0  0  0  0  0
  185.4190  179.1400  145.4630 N   0  0  0  0  0  2  0  0  0  0  0  0
  184.7620  180.7590  143.9360 O   0  0  0  0  0  0  0  0  0  0  0  0
  184.3880  178.5030  143.2270 C   0  0  2  0  0  3  0  0  0  0  0  0
  185.2890  178.3590  142.0270 C   0  0  0  0  0  0  0  0  0  0  0  0
  186.4290  179.1440  141.8990 O   0  0  0  0  0  1  0  0  0  0  0  0
  185.0610  177.4670  141.1670 O   0  0  0  0  0  0  0  0  0  0  0  0
  182.9470  178.8150  142.8330 C   0  0  0  0  0  2  0  0  0  0  0  0
  182.7110  178.5510  141.3490 C   0  0  0  0  0  2  0  0  0  0  0  0
  182.6180  180.1840  139.3920 C   0  0  0  0  0  0  0  0  0  0  0  0
  183.1740  181.1320  138.7750 O   0  0  0  0  0  0  0  0  0  0  0  0
  183.2730  179.6210  140.5300 N   0  0  0  0  0  2  0  0  0  0  0  0
  180.9070  179.8950  136.4300 C   0  0  0  0  0  0  0  0  0  0  0  0
  180.1670  181.3190  140.3350 O   0  0  0  0  0  1  0  0  0  0  0  0
  180.1340  180.6920  139.0870 C   0  0  1  0  0  3  0  0  0  0  0  0
  181.2180  179.5090  135.2720 O   0  0  0  0  0  0  0  0  0  0  0  0
  181.3590  179.1530  137.5680 N   0  0  0  0  0  2  0  0  0  0  0  0
  181.2240  182.5650  138.0020 O   0  0  0  0  0  1  0  0  0  0  0  0
  180.1040  181.7330  137.9620 C   0  0  1  0  0  3  0  0  0  0  0  0
  179.9830  181.0700  136.5900 C   0  0  0  0  0  2  0  0  0  0  0  0
  181.2780  179.6710  138.9340 C   0  0  1  0  0  3  0  0  0  0  0  0
  1  2  1  0  0  0  0
  2 35  1  1  0  0  0
  3  4  1  6  0  0  0
  3  1  1  0  0  0  0
  3  2  1  0  0  0  0
  4  7  1  0  0  0  0
  5  4  2  0  0  0  0
  7  6  2  0  0  0  0
  8  7  1  0  0  0  0
  8  9  1  0  0  0  0
 10 12  1  0  0  0  0
 11 10  1  0  0  0  0
 11  9  1  6  0  0  0
 13 11  1  0  0  0  0
 14 16  1  0  0  0  0
 14 13  2  0  0  0  0
 15 12  1  0  0  0  0
 16 15  1  0  0  0  0
 17 16  2  0  0  0  0
 18  5  1  6  0  0  0
 19 21  1  0  0  0  0
 19 18  1  0  0  0  0
 20 19  1  0  0  0  0
 20 21  1  0  0  0  0
 22 33  1  0  0  0  0
 22 18  1  1  0  0  0
 22 24  1  0  0  0  0
 23 25  2  0  0  0  0
 23 24  1  0  0  0  0
 24 26  2  0  0  0  0
 25 27  1  0  0  0  0
 26 28  1  0  0  0  0
 27 28  2  0  0  0  0
 29 32  1  0  0  0  0
 30 31  1  0  0  0  0
 32 30  1  0  0  0  0
 33 31  2  0  0  0  0
 34 32  2  0  0  0  0
 34 33  1  0  0  0  0
 35 37  1  0  0  0  0
 36 37  2  0  0  0  0
 37 39  1  0  0  0  0
 38 40  1  0  0  0  0
 39 38  2  0  0  0  0
 42 40  1  6  0  0  0
 42 43  1  0  0  0  0
 42 41  1  0  0  0  0
 43 45  1  6  0  0  0
 43 41  1  0  0  0  0
 44 45  1  0  0  0  0
 46 44  2  0  0  0  0
 47 51  1  6  0  0  0
 47 44  1  0  0  0  0
 48 47  1  0  0  0  0
 49 48  1  0  0  0  0
 50 48  2  0  0  0  0
 52 51  1  0  0  0  0
 53 55  1  0  0  0  0
 54 53  2  0  0  0  0
 55 52  1  0  0  0  0
 56 63  1  0  0  0  0
 56 60  1  0  0  0  0
 58 57  1  1  0  0  0
 59 56  2  0  0  0  0
 60 64  1  0  0  0  0
 62 61  1  6  0  0  0
 62 58  1  0  0  0  0
 63 62  1  0  0  0  0
 64 58  1  0  0  0  0
 64 53  1  6  0  0  0
M  END
>  <MODEL>
4

>  <REMARK>
 VINA RESULT:      -5.1      2.023      3.788
  Name = 
  22 active torsions:
  status: ('A' for Active; 'I' for Inactive)
    1  A    between atoms: C_5  and  C_37
    2  A    between atoms: C_7  and  C_64
    3  A    between atoms: C_10  and  C_48
    4  A    between atoms: C_12  and  C_51
    5  A    between atoms: C_16  and  C_48
    6  A    between atoms: C_17  and  C_26
    7  A    between atoms: N_21  and  C_61
    8  A    between atoms: C_22  and  C_39
    9  A    between atoms: C_22  and  C_50
   10  A    between atoms: C_23  and  C_42
   11  A    between atoms: C_23  and  C_62
   12  A    between atoms: C_26  and  O_47
   13  A    between atoms: C_31  and  N_44
   14  A    between atoms: C_31  and  C_59
   15  A    between atoms: C_32  and  N_33
   16  A    between atoms: C_32  and  C_54
   17  A    between atoms: N_36  and  C_50
   18  A    between atoms: C_37  and  C_51
   19  A    between atoms: C_37  and  N_57
   20  A    between atoms: C_38  and  C_51
   21  A    between atoms: O_47  and  C_62
   22  A    between atoms: C_48  and  C_59
                            x       y       z     vdW  Elec       q    Type
                         _______ _______ _______ _____ _____    ______ ____

>  <TORSDO>
F 22

$$$$
=
 OpenBabel10232410563D

 64 70  0  0  1  0  0  0  0  0999 V2000
  189.0260  177.8130  138.7590 C   0  0  0  0  0  2  0  0  0  0  0  0
  190.0490  177.1610  139.6590 C   0  0  2  0  0  3  0  0  0  0  0  0
  189.2590  176.3120  138.6750 C   0  0  2  0  0  3  0  0  0  0  0  0
  190.1310  175.9510  137.4980 C   0  0  0  0  0  0  0  0  0  0  0  0
  189.6310  175.6370  136.3370 N   0  0  0  0  0  0  0  0  0  0  0  0
  192.0770  175.6070  138.8100 O   0  0  0  0  0  0  0  0  0  0  0  0
  191.5910  175.8660  137.6730 C   0  0  0  0  0  0  0  0  0  0  0  0
  192.4270  176.0650  136.5700 O   0  0  0  0  0  0  0  0  0  0  0  0
  193.8480  176.1430  136.6680 C   0  0  0  0  0  2  0  0  0  0  0  0
  195.4770  174.8170  135.2650 C   0  0  0  0  0  2  0  0  0  0  0  0
  194.5170  174.7850  136.4480 C   0  0  1  0  0  3  0  0  0  0  0  0
  195.6240  173.4260  134.6730 C   0  0  0  0  0  2  0  0  0  0  0  0
  195.1590  174.3050  137.7170 C   0  0  0  0  0  3  0  0  0  0  0  0
  195.7730  173.1280  137.8720 C   0  0  0  0  0  3  0  0  0  0  0  0
  196.6000  172.5930  135.4890 C   0  0  0  0  0  2  0  0  0  0  0  0
  196.0200  172.1540  136.7980 C   0  0  0  0  0  0  0  0  0  0  0  0
  196.0980  170.9040  137.1130 N   0  0  0  0  0  2  0  0  0  0  0  0
  188.2070  175.5990  136.0100 C   0  0  1  0  0  3  0  0  0  0  0  0
  187.8180  176.8960  135.2750 C   0  0  0  0  0  3  0  0  0  0  0  0
  186.5050  176.7750  134.5220 C   0  0  0  0  0  2  0  0  0  0  0  0
  186.5620  177.5410  135.8320 C   0  0  0  0  0  2  0  0  0  0  0  0
  187.7820  174.2730  135.3300 C   0  0  2  0  0  3  0  0  0  0  0  0
  186.3590  173.8600  137.3380 C   0  0  0  0  0  3  0  0  0  0  0  0
  186.5890  173.6400  135.9760 C   0  0  0  0  0  0  0  0  0  0  0  0
  185.2590  173.2730  137.9730 C   0  0  0  0  0  3  0  0  0  0  0  0
  185.7100  172.8220  135.2510 C   0  0  0  0  0  3  0  0  0  0  0  0
  184.3850  172.4580  137.2460 C   0  0  0  0  0  3  0  0  0  0  0  0
  184.6110  172.2320  135.8860 C   0  0  0  0  0  3  0  0  0  0  0  0
  190.2260  170.0800  134.3490 C   0  0  0  0  0  1  0  0  0  0  0  0
  190.7950  172.5560  134.4250 C   0  0  0  0  0  2  0  0  0  0  0  0
  190.1320  173.6950  134.6990 N   0  0  0  0  0  0  0  0  0  0  0  0
  189.9080  171.5150  134.5690 C   0  0  0  0  0  0  0  0  0  0  0  0
  188.8780  173.3000  135.0060 C   0  0  0  0  0  0  0  0  0  0  0  0
  188.6950  171.9660  134.9240 N   0  0  0  0  0  0  0  0  0  0  0  0
  189.4730  176.9610  141.0470 C   0  0  0  0  0  2  0  0  0  0  0  0
  191.4990  177.8670  141.9170 O   0  0  0  0  0  0  0  0  0  0  0  0
  190.2510  177.7520  142.0480 C   0  0  0  0  0  0  0  0  0  0  0  0
  189.1270  177.6690  144.1170 N   0  0  0  0  0  0  0  0  0  0  0  0
  189.6030  178.3660  143.1630 N   0  0  0  0  0  0  0  0  0  0  0  0
  188.4710  178.3110  145.2420 C   0  0  0  0  0  2  0  0  0  0  0  0
  187.3960  177.7590  147.3110 O   0  0  0  0  0  0  0  0  0  0  0  0
  187.6160  177.2990  146.0000 C   0  0  1  0  0  3  0  0  0  0  0  0
  186.2840  177.8050  146.4470 C   0  0  2  0  0  3  0  0  0  0  0  0
  185.3870  179.5330  144.8330 C   0  0  0  0  0  0  0  0  0  0  0  0
  186.0300  179.1880  146.0590 N   0  0  0  0  0  2  0  0  0  0  0  0
  185.1380  180.7430  144.5880 O   0  0  0  0  0  0  0  0  0  0  0  0
  184.9630  178.4680  143.8660 C   0  0  2  0  0  3  0  0  0  0  0  0
  185.9440  178.2720  142.7380 C   0  0  0  0  0  0  0  0  0  0  0  0
  186.3320  176.9940  142.3510 O   0  0  0  0  0  1  0  0  0  0  0  0
  186.3610  179.2630  142.0820 O   0  0  0  0  0  0  0  0  0  0  0  0
  183.5550  178.7710  143.3610 C   0  0  0  0  0  2  0  0  0  0  0  0
  183.2350  177.9670  142.1060 C   0  0  0  0  0  2  0  0  0  0  0  0
  182.9720  178.3910  139.6040 C   0  0  0  0  0  0  0  0  0  0  0  0
  183.1590  179.1770  138.6370 O   0  0  0  0  0  0  0  0  0  0  0  0
  183.4300  178.7710  140.9030 N   0  0  0  0  0  2  0  0  0  0  0  0
  182.5360  176.1640  137.0280 C   0  0  0  0  0  0  0  0  0  0  0  0
  180.1350  178.1460  139.8800 O   0  0  0  0  0  1  0  0  0  0  0  0
  180.7700  177.2300  139.0370 C   0  0  1  0  0  3  0  0  0  0  0  0
  183.3050  175.6570  136.1690 O   0  0  0  0  0  0  0  0  0  0  0  0
  182.9690  176.2700  138.3890 N   0  0  0  0  0  2  0  0  0  0  0  0
  181.0090  178.8680  137.2670 O   0  0  0  0  0  1  0  0  0  0  0  0
  180.5270  177.5930  137.5670 C   0  0  1  0  0  3  0  0  0  0  0  0
  181.1420  176.5570  136.6270 C   0  0  0  0  0  2  0  0  0  0  0  0
  182.2630  177.0800  139.3830 C   0  0  1  0  0  3  0  0  0  0  0  0
  1  2  1  0  0  0  0
  2 35  1  1  0  0  0
  3  4  1  6  0  0  0
  3  1  1  0  0  0  0
  3  2  1  0  0  0  0
  4  7  1  0  0  0  0
  5  4  2  0  0  0  0
  7  6  2  0  0  0  0
  8  9  1  0  0  0  0
  8  7  1  0  0  0  0
 10 11  1  0  0  0  0
 11  9  1  1  0  0  0
 11 13  1  0  0  0  0
 12 10  1  0  0  0  0
 12 15  1  0  0  0  0
 13 14  2  0  0  0  0
 15 16  1  0  0  0  0
 16 17  2  0  0  0  0
 16 14  1  0  0  0  0
 18  5  1  6  0  0  0
 19 21  1  0  0  0  0
 19 18  1  0  0  0  0
 20 19  1  0  0  0  0
 20 21  1  0  0  0  0
 22 24  1  0  0  0  0
 22 18  1  1  0  0  0
 23 25  1  0  0  0  0
 24 23  2  0  0  0  0
 26 28  2  0  0  0  0
 26 24  1  0  0  0  0
 27 25  2  0  0  0  0
 28 27  1  0  0  0  0
 29 32  1  0  0  0  0
 30 32  1  0  0  0  0
 30 31  1  0  0  0  0
 31 33  2  0  0  0  0
 32 34  2  0  0  0  0
 33 22  1  0  0  0  0
 34 33  1  0  0  0  0
 35 37  1  0  0  0  0
 36 37  2  0  0  0  0
 37 39  1  0  0  0  0
 38 40  1  0  0  0  0
 39 38  2  0  0  0  0
 42 40  1  6  0  0  0
 42 43  1  0  0  0  0
 42 41  1  0  0  0  0
 43 45  1  6  0  0  0
 43 41  1  0  0  0  0
 44 45  1  0  0  0  0
 46 44  2  0  0  0  0
 47 51  1  6  0  0  0
 47 44  1  0  0  0  0
 48 47  1  0  0  0  0
 49 48  1  0  0  0  0
 50 48  2  0  0  0  0
 52 51  1  0  0  0  0
 53 55  1  0  0  0  0
 54 53  2  0  0  0  0
 55 52  1  0  0  0  0
 56 60  1  0  0  0  0
 58 64  1  0  0  0  0
 58 57  1  1  0  0  0
 59 56  2  0  0  0  0
 60 64  1  0  0  0  0
 62 61  1  6  0  0  0
 62 58  1  0  0  0  0
 63 56  1  0  0  0  0
 63 62  1  0  0  0  0
 64 53  1  6  0  0  0
M  END
>  <MODEL>
5

>  <REMARK>
 VINA RESULT:      -5.0      1.872      3.645
  Name = 
  22 active torsions:
  status: ('A' for Active; 'I' for Inactive)
    1  A    between atoms: C_5  and  C_37
    2  A    between atoms: C_7  and  C_64
    3  A    between atoms: C_10  and  C_48
    4  A    between atoms: C_12  and  C_51
    5  A    between atoms: C_16  and  C_48
    6  A    between atoms: C_17  and  C_26
    7  A    between atoms: N_21  and  C_61
    8  A    between atoms: C_22  and  C_39
    9  A    between atoms: C_22  and  C_50
   10  A    between atoms: C_23  and  C_42
   11  A    between atoms: C_23  and  C_62
   12  A    between atoms: C_26  and  O_47
   13  A    between atoms: C_31  and  N_44
   14  A    between atoms: C_31  and  C_59
   15  A    between atoms: C_32  and  N_33
   16  A    between atoms: C_32  and  C_54
   17  A    between atoms: N_36  and  C_50
   18  A    between atoms: C_37  and  C_51
   19  A    between atoms: C_37  and  N_57
   20  A    between atoms: C_38  and  C_51
   21  A    between atoms: O_47  and  C_62
   22  A    between atoms: C_48  and  C_59
                            x       y       z     vdW  Elec       q    Type
                         _______ _______ _______ _____ _____    ______ ____

>  <TORSDO>
F 22

$$$$
=
 OpenBabel10232410563D

 64 70  0  0  1  0  0  0  0  0999 V2000
  191.2810  175.1310  137.9080 C   0  0  0  0  0  2  0  0  0  0  0  0
  191.9580  173.9160  137.3190 C   0  0  2  0  0  3  0  0  0  0  0  0
  192.4430  175.3080  136.9420 C   0  0  2  0  0  3  0  0  0  0  0  0
  193.7280  175.6140  137.6710 C   0  0  0  0  0  0  0  0  0  0  0  0
  194.8950  175.3500  137.1560 N   0  0  0  0  0  0  0  0  0  0  0  0
  194.7130  176.1330  139.7650 O   0  0  0  0  0  0  0  0  0  0  0  0
  193.6780  176.1510  139.0420 C   0  0  0  0  0  0  0  0  0  0  0  0
  192.4800  176.6830  139.5260 O   0  0  0  0  0  0  0  0  0  0  0  0
  192.4160  177.8390  140.3590 C   0  0  0  0  0  2  0  0  0  0  0  0
  190.4350  176.5160  141.1980 C   0  0  0  0  0  2  0  0  0  0  0  0
  191.3500  177.7080  141.4490 C   0  0  1  0  0  3  0  0  0  0  0  0
  189.0810  176.7500  141.8460 C   0  0  0  0  0  2  0  0  0  0  0  0
  191.9880  177.6880  142.8080 C   0  0  0  0  0  3  0  0  0  0  0  0
  191.3270  177.6420  143.9680 C   0  0  0  0  0  3  0  0  0  0  0  0
  189.1340  176.4420  143.3340 C   0  0  0  0  0  2  0  0  0  0  0  0
  189.8700  177.4920  144.1070 C   0  0  0  0  0  0  0  0  0  0  0  0
  189.3030  177.9900  145.1550 N   0  0  0  0  0  2  0  0  0  0  0  0
  195.1260  174.7520  135.8430 C   0  0  1  0  0  3  0  0  0  0  0  0
  195.3300  175.8700  134.8020 C   0  0  0  0  0  3  0  0  0  0  0  0
  195.5720  177.2280  135.4360 C   0  0  0  0  0  2  0  0  0  0  0  0
  196.7290  176.4560  134.8260 C   0  0  0  0  0  2  0  0  0  0  0  0
  196.2040  173.6390  135.8700 C   0  0  2  0  0  3  0  0  0  0  0  0
  194.3070  172.0180  135.8390 C   0  0  0  0  0  3  0  0  0  0  0  0
  195.6390  172.2850  136.1710 C   0  0  0  0  0  0  0  0  0  0  0  0
  193.7470  170.7660  136.1180 C   0  0  0  0  0  3  0  0  0  0  0  0
  196.4100  171.2900  136.7900 C   0  0  0  0  0  3  0  0  0  0  0  0
  194.5190  169.7770  136.7350 C   0  0  0  0  0  3  0  0  0  0  0  0
  195.8500  170.0390  137.0720 C   0  0  0  0  0  3  0  0  0  0  0  0
  199.3640  174.9650  139.4440 C   0  0  0  0  0  1  0  0  0  0  0  0
  199.5530  174.0500  137.0800 C   0  0  0  0  0  2  0  0  0  0  0  0
  198.6930  173.6970  136.1060 N   0  0  0  0  0  0  0  0  0  0  0  0
  198.8090  174.4900  138.1500 C   0  0  0  0  0  0  0  0  0  0  0  0
  197.4690  173.9430  136.6190 C   0  0  0  0  0  0  0  0  0  0  0  0
  197.4950  174.4190  137.8800 N   0  0  0  0  0  0  0  0  0  0  0  0
  191.1340  173.3610  136.1740 C   0  0  0  0  0  2  0  0  0  0  0  0
  191.4720  174.8540  134.3460 O   0  0  0  0  0  0  0  0  0  0  0  0
  190.7020  174.4660  135.2650 C   0  0  0  0  0  0  0  0  0  0  0  0
  188.3970  174.4340  135.7490 N   0  0  0  0  0  0  0  0  0  0  0  0
  189.4350  175.1020  135.4350 N   0  0  0  0  0  0  0  0  0  0  0  0
  187.1160  175.0980  135.9160 C   0  0  0  0  0  2  0  0  0  0  0  0
  185.4620  175.1020  137.6490 O   0  0  0  0  0  0  0  0  0  0  0  0
  186.1990  174.2570  136.8000 C   0  0  1  0  0  3  0  0  0  0  0  0
  184.7380  174.4960  136.6040 C   0  0  2  0  0  3  0  0  0  0  0  0
  183.5760  176.5980  135.8090 C   0  0  0  0  0  0  0  0  0  0  0  0
  184.4470  175.4910  135.5770 N   0  0  0  0  0  2  0  0  0  0  0  0
  183.4190  177.4570  134.9010 O   0  0  0  0  0  0  0  0  0  0  0  0
  182.8920  176.7690  137.1320 C   0  0  2  0  0  3  0  0  0  0  0  0
  181.4950  176.2010  137.1510 C   0  0  0  0  0  0  0  0  0  0  0  0
  181.2880  174.8270  137.0980 O   0  0  0  0  0  0  0  0  0  0  0  0
  180.5040  176.9640  137.2970 O   0  0  0  0  0  1  0  0  0  0  0  0
  182.9230  178.2400  137.5350 C   0  0  0  0  0  2  0  0  0  0  0  0
  182.8990  178.3980  139.0510 C   0  0  0  0  0  2  0  0  0  0  0  0
  184.6270  178.9670  140.8400 C   0  0  0  0  0  0  0  0  0  0  0  0
  185.6790  179.5940  141.1350 O   0  0  0  0  0  0  0  0  0  0  0  0
  184.0860  179.1040  139.5240 N   0  0  0  0  0  2  0  0  0  0  0  0
  182.0920  179.2270  143.1400 C   0  0  0  0  0  0  0  0  0  0  0  0
  186.0830  177.8550  143.0370 O   0  0  0  0  0  1  0  0  0  0  0  0
  184.7080  178.0250  143.2120 C   0  0  1  0  0  3  0  0  0  0  0  0
  180.9290  179.7100  143.1120 O   0  0  0  0  0  0  0  0  0  0  0  0
  182.5600  178.4450  142.0350 N   0  0  0  0  0  2  0  0  0  0  0  0
  184.9420  180.4130  143.5520 O   0  0  0  0  0  1  0  0  0  0  0  0
  184.4240  179.2400  144.1030 C   0  0  1  0  0  3  0  0  0  0  0  0
  182.9290  179.3960  144.3770 C   0  0  0  0  0  2  0  0  0  0  0  0
  183.9660  178.0800  141.8630 C   0  0  1  0  0  3  0  0  0  0  0  0
  2 35  1  6  0  0  0
  2  1  1  0  0  0  0
  3  2  1  0  0  0  0
  3  4  1  1  0  0  0
  3  1  1  0  0  0  0
  4  7  1  0  0  0  0
  5  4  2  0  0  0  0
  7  8  1  0  0  0  0
  7  6  2  0  0  0  0
  8  9  1  0  0  0  0
 10 11  1  0  0  0  0
 10 12  1  0  0  0  0
 11  9  1  6  0  0  0
 11 13  1  0  0  0  0
 12 15  1  0  0  0  0
 13 14  2  0  0  0  0
 14 16  1  0  0  0  0
 15 16  1  0  0  0  0
 16 17  2  0  0  0  0
 18  5  1  1  0  0  0
 19 21  1  0  0  0  0
 19 20  1  0  0  0  0
 19 18  1  0  0  0  0
 21 20  1  0  0  0  0
 22 18  1  1  0  0  0
 22 24  1  0  0  0  0
 22 33  1  0  0  0  0
 23 25  2  0  0  0  0
 23 24  1  0  0  0  0
 24 26  2  0  0  0  0
 25 27  1  0  0  0  0
 26 28  1  0  0  0  0
 27 28  2  0  0  0  0
 30 32  1  0  0  0  0
 31 33  2  0  0  0  0
 31 30  1  0  0  0  0
 32 29  1  0  0  0  0
 33 34  1  0  0  0  0
 34 32  2  0  0  0  0
 36 37  2  0  0  0  0
 37 39  1  0  0  0  0
 37 35  1  0  0  0  0
 38 40  1  0  0  0  0
 39 38  2  0  0  0  0
 42 40  1  6  0  0  0
 42 41  1  0  0  0  0
 43 45  1  6  0  0  0
 43 42  1  0  0  0  0
 43 41  1  0  0  0  0
 44 47  1  0  0  0  0
 45 44  1  0  0  0  0
 46 44  2  0  0  0  0
 47 48  1  0  0  0  0
 47 51  1  6  0  0  0
 48 50  1  0  0  0  0
 49 48  2  0  0  0  0
 51 52  1  0  0  0  0
 52 55  1  0  0  0  0
 53 54  2  0  0  0  0
 55 53  1  0  0  0  0
 56 63  1  0  0  0  0
 58 57  1  6  0  0  0
 58 62  1  0  0  0  0
 59 56  2  0  0  0  0
 60 56  1  0  0  0  0
 62 61  1  6  0  0  0
 62 63  1  0  0  0  0
 64 53  1  6  0  0  0
 64 60  1  0  0  0  0
 64 58  1  0  0  0  0
M  END
>  <MODEL>
6

>  <REMARK>
 VINA RESULT:      -4.8      2.215      8.362
  Name = 
  22 active torsions:
  status: ('A' for Active; 'I' for Inactive)
    1  A    between atoms: C_5  and  C_37
    2  A    between atoms: C_7  and  C_64
    3  A    between atoms: C_10  and  C_48
    4  A    between atoms: C_12  and  C_51
    5  A    between atoms: C_16  and  C_48
    6  A    between atoms: C_17  and  C_26
    7  A    between atoms: N_21  and  C_61
    8  A    between atoms: C_22  and  C_39
    9  A    between atoms: C_22  and  C_50
   10  A    between atoms: C_23  and  C_42
   11  A    between atoms: C_23  and  C_62
   12  A    between atoms: C_26  and  O_47
   13  A    between atoms: C_31  and  N_44
   14  A    between atoms: C_31  and  C_59
   15  A    between atoms: C_32  and  N_33
   16  A    between atoms: C_32  and  C_54
   17  A    between atoms: N_36  and  C_50
   18  A    between atoms: C_37  and  C_51
   19  A    between atoms: C_37  and  N_57
   20  A    between atoms: C_38  and  C_51
   21  A    between atoms: O_47  and  C_62
   22  A    between atoms: C_48  and  C_59
                            x       y       z     vdW  Elec       q    Type
                         _______ _______ _______ _____ _____    ______ ____

>  <TORSDO>
F 22

$$$$
=
 OpenBabel10232410563D

 64 70  0  0  1  0  0  0  0  0999 V2000
  187.9410  177.8100  139.0600 C   0  0  0  0  0  2  0  0  0  0  0  0
  186.9790  177.1480  138.1020 C   0  0  2  0  0  3  0  0  0  0  0  0
  188.3430  177.6050  137.6070 C   0  0  2  0  0  3  0  0  0  0  0  0
  189.2530  176.4120  137.4470 C   0  0  0  0  0  0  0  0  0  0  0  0
  189.0840  175.5360  136.4980 N   0  0  0  0  0  0  0  0  0  0  0  0
  190.0300  176.0590  139.6590 O   0  0  0  0  0  0  0  0  0  0  0  0
  190.3190  176.1710  138.4350 C   0  0  0  0  0  0  0  0  0  0  0  0
  191.6430  176.0610  138.0020 O   0  0  0  0  0  0  0  0  0  0  0  0
  192.2230  174.8360  137.5580 C   0  0  0  0  0  2  0  0  0  0  0  0
  194.3680  173.7160  138.2830 C   0  0  0  0  0  2  0  0  0  0  0  0
  193.7510  174.8940  137.5370 C   0  0  1  0  0  3  0  0  0  0  0  0
  195.7450  174.0890  138.8020 C   0  0  0  0  0  2  0  0  0  0  0  0
  194.2540  175.0310  136.1290 C   0  0  0  0  0  3  0  0  0  0  0  0
  195.5360  175.1670  135.7790 C   0  0  0  0  0  3  0  0  0  0  0  0
  196.7860  173.9810  137.6980 C   0  0  0  0  0  2  0  0  0  0  0  0
  196.6780  175.0950  136.7030 C   0  0  0  0  0  0  0  0  0  0  0  0
  197.7490  175.7520  136.4020 N   0  0  0  0  0  2  0  0  0  0  0  0
  188.0370  175.5810  135.4790 C   0  0  1  0  0  3  0  0  0  0  0  0
  188.4660  176.5370  134.3480 C   0  0  0  0  0  3  0  0  0  0  0  0
  187.7740  177.8860  134.4230 C   0  0  0  0  0  2  0  0  0  0  0  0
  189.2240  177.7510  134.8530 C   0  0  0  0  0  2  0  0  0  0  0  0
  187.5630  174.1720  135.0420 C   0  0  2  0  0  3  0  0  0  0  0  0
  185.2110  173.3390  135.0130 C   0  0  0  0  0  3  0  0  0  0  0  0
  186.3300  173.7210  135.7600 C   0  0  0  0  0  0  0  0  0  0  0  0
  184.0400  172.9240  135.6560 C   0  0  0  0  0  3  0  0  0  0  0  0
  186.2680  173.6880  137.1620 C   0  0  0  0  0  3  0  0  0  0  0  0
  183.9830  172.8920  137.0530 C   0  0  0  0  0  3  0  0  0  0  0  0
  185.0970  173.2750  137.8060 C   0  0  0  0  0  3  0  0  0  0  0  0
  189.8020  169.7750  134.6370 C   0  0  0  0  0  1  0  0  0  0  0  0
  190.5380  172.2080  134.6740 C   0  0  0  0  0  2  0  0  0  0  0  0
  189.9290  173.4020  134.7920 N   0  0  0  0  0  0  0  0  0  0  0  0
  189.5640  171.2380  134.7370 C   0  0  0  0  0  0  0  0  0  0  0  0
  188.6180  173.1110  134.9300 C   0  0  0  0  0  0  0  0  0  0  0  0
  188.3490  171.7900  134.8870 N   0  0  0  0  0  0  0  0  0  0  0  0
  185.9340  178.1430  137.6380 C   0  0  0  0  0  2  0  0  0  0  0  0
  184.3180  176.5470  136.9120 O   0  0  0  0  0  0  0  0  0  0  0  0
  184.5760  177.5190  137.6720 C   0  0  0  0  0  0  0  0  0  0  0  0
  182.8190  177.2320  139.2140 N   0  0  0  0  0  0  0  0  0  0  0  0
  183.5600  178.0200  138.5420 N   0  0  0  0  0  0  0  0  0  0  0  0
  181.7910  177.7590  140.0930 C   0  0  0  0  0  2  0  0  0  0  0  0
  180.4850  179.7570  140.2990 O   0  0  0  0  0  0  0  0  0  0  0  0
  181.7840  179.2850  140.0390 C   0  0  1  0  0  3  0  0  0  0  0  0
  181.4310  179.9620  141.3220 C   0  0  2  0  0  3  0  0  0  0  0  0
  182.1050  178.8090  143.4710 C   0  0  0  0  0  0  0  0  0  0  0  0
  181.1710  179.0320  142.4150 N   0  0  0  0  0  2  0  0  0  0  0  0
  181.7910  178.0420  144.4190 O   0  0  0  0  0  0  0  0  0  0  0  0
  183.4270  179.5170  143.4820 C   0  0  2  0  0  3  0  0  0  0  0  0
  184.4320  178.9050  142.5390 C   0  0  0  0  0  0  0  0  0  0  0  0
  184.4160  177.5400  142.2760 O   0  0  0  0  0  1  0  0  0  0  0  0
  185.2450  179.6380  141.9170 O   0  0  0  0  0  0  0  0  0  0  0  0
  183.9500  179.5940  144.9140 C   0  0  0  0  0  2  0  0  0  0  0  0
  185.4310  179.2360  144.9790 C   0  0  0  0  0  2  0  0  0  0  0  0
  186.9600  177.6810  146.3040 C   0  0  0  0  0  0  0  0  0  0  0  0
  187.0480  176.7390  147.1360 O   0  0  0  0  0  0  0  0  0  0  0  0
  185.6630  178.1280  145.9020 N   0  0  0  0  0  2  0  0  0  0  0  0
  189.6950  176.7240  144.4640 C   0  0  0  0  0  0  0  0  0  0  0  0
  188.9200  178.8590  148.0230 O   0  0  0  0  0  1  0  0  0  0  0  0
  189.3620  178.4060  146.7770 C   0  0  1  0  0  3  0  0  0  0  0  0
  189.8530  176.0260  143.4280 O   0  0  0  0  0  0  0  0  0  0  0  0
  188.6270  177.6780  144.5180 N   0  0  0  0  0  2  0  0  0  0  0  0
  189.3270  176.0910  147.4910 O   0  0  0  0  0  1  0  0  0  0  0  0
  190.1260  177.0860  146.9240 C   0  0  1  0  0  3  0  0  0  0  0  0
  190.6900  176.6140  145.5850 C   0  0  0  0  0  2  0  0  0  0  0  0
  188.2080  178.3260  145.7600 C   0  0  1  0  0  3  0  0  0  0  0  0
  2 35  1  6  0  0  0
  2  1  1  0  0  0  0
  3  4  1  1  0  0  0
  3  2  1  0  0  0  0
  3  1  1  0  0  0  0
  4  7  1  0  0  0  0
  5  4  2  0  0  0  0
  7  6  2  0  0  0  0
  8  7  1  0  0  0  0
  9  8  1  0  0  0  0
 10 12  1  0  0  0  0
 11  9  1  6  0  0  0
 11 10  1  0  0  0  0
 13 11  1  0  0  0  0
 14 13  2  0  0  0  0
 14 16  1  0  0  0  0
 15 12  1  0  0  0  0
 16 15  1  0  0  0  0
 17 16  2  0  0  0  0
 18  5  1  1  0  0  0
 19 20  1  0  0  0  0
 19 21  1  0  0  0  0
 19 18  1  0  0  0  0
 20 21  1  0  0  0  0
 22 18  1  1  0  0  0
 22 24  1  0  0  0  0
 23 25  2  0  0  0  0
 23 24  1  0  0  0  0
 24 26  2  0  0  0  0
 25 27  1  0  0  0  0
 26 28  1  0  0  0  0
 27 28  2  0  0  0  0
 29 32  1  0  0  0  0
 30 32  1  0  0  0  0
 30 31  1  0  0  0  0
 31 33  2  0  0  0  0
 32 34  2  0  0  0  0
 33 22  1  0  0  0  0
 34 33  1  0  0  0  0
 35 37  1  0  0  0  0
 36 37  2  0  0  0  0
 37 39  1  0  0  0  0
 38 40  1  0  0  0  0
 39 38  2  0  0  0  0
 41 43  1  0  0  0  0
 42 40  1  1  0  0  0
 42 41  1  0  0  0  0
 42 43  1  0  0  0  0
 43 45  1  1  0  0  0
 44 47  1  0  0  0  0
 44 46  2  0  0  0  0
 45 44  1  0  0  0  0
 47 51  1  1  0  0  0
 48 47  1  0  0  0  0
 49 48  1  0  0  0  0
 50 48  2  0  0  0  0
 51 52  1  0  0  0  0
 52 55  1  0  0  0  0
 53 54  2  0  0  0  0
 55 53  1  0  0  0  0
 56 60  1  0  0  0  0
 56 63  1  0  0  0  0
 58 62  1  0  0  0  0
 58 57  1  1  0  0  0
 59 56  2  0  0  0  0
 60 64  1  0  0  0  0
 62 61  1  6  0  0  0
 63 62  1  0  0  0  0
 64 53  1  1  0  0  0
 64 58  1  0  0  0  0
M  END
>  <MODEL>
7

>  <REMARK>
 VINA RESULT:      -4.8      2.085      6.086
  Name = 
  22 active torsions:
  status: ('A' for Active; 'I' for Inactive)
    1  A    between atoms: C_5  and  C_37
    2  A    between atoms: C_7  and  C_64
    3  A    between atoms: C_10  and  C_48
    4  A    between atoms: C_12  and  C_51
    5  A    between atoms: C_16  and  C_48
    6  A    between atoms: C_17  and  C_26
    7  A    between atoms: N_21  and  C_61
    8  A    between atoms: C_22  and  C_39
    9  A    between atoms: C_22  and  C_50
   10  A    between atoms: C_23  and  C_42
   11  A    between atoms: C_23  and  C_62
   12  A    between atoms: C_26  and  O_47
   13  A    between atoms: C_31  and  N_44
   14  A    between atoms: C_31  and  C_59
   15  A    between atoms: C_32  and  N_33
   16  A    between atoms: C_32  and  C_54
   17  A    between atoms: N_36  and  C_50
   18  A    between atoms: C_37  and  C_51
   19  A    between atoms: C_37  and  N_57
   20  A    between atoms: C_38  and  C_51
   21  A    between atoms: O_47  and  C_62
   22  A    between atoms: C_48  and  C_59
                            x       y       z     vdW  Elec       q    Type
                         _______ _______ _______ _____ _____    ______ ____

>  <TORSDO>
F 22

$$$$
=
 OpenBabel10232410563D

 64 70  0  0  1  0  0  0  0  0999 V2000
  190.1490  176.5000  137.9660 C   0  0  0  0  0  2  0  0  0  0  0  0
  188.6590  176.6160  137.7470 C   0  0  2  0  0  3  0  0  0  0  0  0
  189.5700  176.2800  136.5760 C   0  0  2  0  0  3  0  0  0  0  0  0
  189.4580  174.8110  136.2490 C   0  0  0  0  0  0  0  0  0  0  0  0
  188.3100  174.2400  136.0170 N   0  0  0  0  0  0  0  0  0  0  0  0
  190.5590  172.7220  136.4610 O   0  0  0  0  0  0  0  0  0  0  0  0
  190.6640  173.9660  136.2710 C   0  0  0  0  0  0  0  0  0  0  0  0
  191.9160  174.5530  136.0710 O   0  0  0  0  0  0  0  0  0  0  0  0
  192.9140  173.9990  135.2160 C   0  0  0  0  0  2  0  0  0  0  0  0
  195.0610  172.7310  135.6200 C   0  0  0  0  0  2  0  0  0  0  0  0
  194.3050  174.0330  135.8530 C   0  0  1  0  0  3  0  0  0  0  0  0
  196.0840  172.5160  136.7210 C   0  0  0  0  0  2  0  0  0  0  0  0
  195.0620  175.2470  135.3980 C   0  0  0  0  0  3  0  0  0  0  0  0
  196.2810  175.5960  135.8180 C   0  0  0  0  0  3  0  0  0  0  0  0
  197.3400  173.3330  136.4600 C   0  0  0  0  0  2  0  0  0  0  0  0
  197.1300  174.7940  136.7130 C   0  0  0  0  0  0  0  0  0  0  0  0
  197.9800  175.4130  137.4630 N   0  0  0  0  0  2  0  0  0  0  0  0
  187.0120  174.9120  136.0280 C   0  0  1  0  0  3  0  0  0  0  0  0
  186.6780  175.3990  134.6040 C   0  0  0  0  0  3  0  0  0  0  0  0
  185.6540  176.5200  134.5900 C   0  0  0  0  0  2  0  0  0  0  0  0
  187.1210  176.8280  134.3460 C   0  0  0  0  0  2  0  0  0  0  0  0
  185.9140  174.0860  136.7440 C   0  0  2  0  0  3  0  0  0  0  0  0
  186.8950  171.9260  135.9700 C   0  0  0  0  0  3  0  0  0  0  0  0
  185.7550  172.7090  136.1770 C   0  0  0  0  0  0  0  0  0  0  0  0
  186.7790  170.6400  135.4310 C   0  0  0  0  0  3  0  0  0  0  0  0
  184.4940  172.1980  135.8360 C   0  0  0  0  0  3  0  0  0  0  0  0
  185.5210  170.1340  135.0930 C   0  0  0  0  0  3  0  0  0  0  0  0
  184.3780  170.9130  135.2940 C   0  0  0  0  0  3  0  0  0  0  0  0
  181.0970  175.2360  136.7450 C   0  0  0  0  0  1  0  0  0  0  0  0
  183.1950  176.1350  137.8650 C   0  0  0  0  0  2  0  0  0  0  0  0
  184.5050  175.8260  137.8580 N   0  0  0  0  0  0  0  0  0  0  0  0
  182.5570  175.2550  137.0210 C   0  0  0  0  0  0  0  0  0  0  0  0
  184.6100  174.7830  137.0080 C   0  0  0  0  0  0  0  0  0  0  0  0
  183.4330  174.3910  136.4820 N   0  0  0  0  0  0  0  0  0  0  0  0
  188.2570  178.0740  137.6470 C   0  0  0  0  0  2  0  0  0  0  0  0
  188.4370  178.8050  139.9100 O   0  0  0  0  0  0  0  0  0  0  0  0
  187.6740  178.5390  138.9430 C   0  0  0  0  0  0  0  0  0  0  0  0
  185.7590  179.0830  140.2030 N   0  0  0  0  0  0  0  0  0  0  0  0
  186.2610  178.6710  139.1070 N   0  0  0  0  0  0  0  0  0  0  0  0
  184.3200  179.2100  140.3520 C   0  0  0  0  0  2  0  0  0  0  0  0
  184.6150  177.4640  141.9650 O   0  0  0  0  0  0  0  0  0  0  0  0
  183.7420  177.9400  140.9700 C   0  0  1  0  0  3  0  0  0  0  0  0
  183.4130  178.0380  142.4240 C   0  0  2  0  0  3  0  0  0  0  0  0
  184.6100  179.5410  144.0700 C   0  0  0  0  0  0  0  0  0  0  0  0
  183.6920  179.3520  142.9930 N   0  0  0  0  0  2  0  0  0  0  0  0
  184.8550  180.7090  144.4710 O   0  0  0  0  0  0  0  0  0  0  0  0
  185.3150  178.3700  144.6870 C   0  0  2  0  0  3  0  0  0  0  0  0
  185.1310  178.2930  146.1820 C   0  0  0  0  0  0  0  0  0  0  0  0
  186.1260  177.7550  146.9910 O   0  0  0  0  0  1  0  0  0  0  0  0
  184.1060  178.7890  146.7210 O   0  0  0  0  0  0  0  0  0  0  0  0
  186.7870  178.3940  144.2860 C   0  0  0  0  0  2  0  0  0  0  0  0
  187.2890  176.9940  143.9490 C   0  0  0  0  0  2  0  0  0  0  0  0
  189.3410  176.5800  142.4900 C   0  0  0  0  0  0  0  0  0  0  0  0
  189.8300  176.5680  141.3290 O   0  0  0  0  0  0  0  0  0  0  0  0
  187.9800  176.9800  142.6630 N   0  0  0  0  0  2  0  0  0  0  0  0
  189.8880  177.6570  145.7030 C   0  0  0  0  0  0  0  0  0  0  0  0
  192.1980  176.5270  142.3550 O   0  0  0  0  0  1  0  0  0  0  0  0
  191.6280  176.6980  143.6190 C   0  0  1  0  0  3  0  0  0  0  0  0
  189.1370  178.0380  146.6390 O   0  0  0  0  0  0  0  0  0  0  0  0
  189.5230  176.5100  144.9260 N   0  0  0  0  0  2  0  0  0  0  0  0
  191.1020  179.0220  143.1810 O   0  0  0  0  0  1  0  0  0  0  0  0
  191.7450  178.1580  144.0690 C   0  0  1  0  0  3  0  0  0  0  0  0
  191.2030  178.3520  145.4850 C   0  0  0  0  0  2  0  0  0  0  0  0
  190.1840  176.1640  143.6680 C   0  0  1  0  0  3  0  0  0  0  0  0
  2 35  1  6  0  0  0
  2  1  1  0  0  0  0
  3  4  1  1  0  0  0
  3  2  1  0  0  0  0
  3  1  1  0  0  0  0
  4  7  1  0  0  0  0
  5  4  2  0  0  0  0
  7  6  2  0  0  0  0
  8  7  1  0  0  0  0
  9  8  1  0  0  0  0
 10 11  1  0  0  0  0
 10 12  1  0  0  0  0
 11  9  1  6  0  0  0
 13 14  2  0  0  0  0
 13 11  1  0  0  0  0
 14 16  1  0  0  0  0
 15 16  1  0  0  0  0
 15 12  1  0  0  0  0
 16 17  2  0  0  0  0
 18  5  1  6  0  0  0
 19 18  1  0  0  0  0
 20 19  1  0  0  0  0
 21 20  1  0  0  0  0
 21 19  1  0  0  0  0
 22 18  1  6  0  0  0
 22 33  1  0  0  0  0
 23 24  1  0  0  0  0
 24 22  1  0  0  0  0
 25 23  2  0  0  0  0
 26 24  2  0  0  0  0
 27 28  2  0  0  0  0
 27 25  1  0  0  0  0
 28 26  1  0  0  0  0
 29 32  1  0  0  0  0
 31 30  1  0  0  0  0
 32 30  1  0  0  0  0
 33 31  2  0  0  0  0
 34 33  1  0  0  0  0
 34 32  2  0  0  0  0
 35 37  1  0  0  0  0
 37 39  1  0  0  0  0
 37 36  2  0  0  0  0
 38 40  1  0  0  0  0
 39 38  2  0  0  0  0
 41 43  1  0  0  0  0
 42 40  1  1  0  0  0
 42 41  1  0  0  0  0
 42 43  1  0  0  0  0
 43 45  1  1  0  0  0
 44 46  2  0  0  0  0
 44 47  1  0  0  0  0
 45 44  1  0  0  0  0
 47 51  1  1  0  0  0
 47 48  1  0  0  0  0
 48 50  2  0  0  0  0
 48 49  1  0  0  0  0
 52 51  1  0  0  0  0
 53 55  1  0  0  0  0
 54 53  2  0  0  0  0
 55 52  1  0  0  0  0
 56 59  2  0  0  0  0
 58 57  1  6  0  0  0
 58 64  1  0  0  0  0
 58 62  1  0  0  0  0
 60 56  1  0  0  0  0
 62 61  1  6  0  0  0
 62 63  1  0  0  0  0
 63 56  1  0  0  0  0
 64 53  1  6  0  0  0
 64 60  1  0  0  0  0
M  END
>  <MODEL>
8

>  <REMARK>
 VINA RESULT:      -4.6      2.103      5.146
  Name = 
  22 active torsions:
  status: ('A' for Active; 'I' for Inactive)
    1  A    between atoms: C_5  and  C_37
    2  A    between atoms: C_7  and  C_64
    3  A    between atoms: C_10  and  C_48
    4  A    between atoms: C_12  and  C_51
    5  A    between atoms: C_16  and  C_48
    6  A    between atoms: C_17  and  C_26
    7  A    between atoms: N_21  and  C_61
    8  A    between atoms: C_22  and  C_39
    9  A    between atoms: C_22  and  C_50
   10  A    between atoms: C_23  and  C_42
   11  A    between atoms: C_23  and  C_62
   12  A    between atoms: C_26  and  O_47
   13  A    between atoms: C_31  and  N_44
   14  A    between atoms: C_31  and  C_59
   15  A    between atoms: C_32  and  N_33
   16  A    between atoms: C_32  and  C_54
   17  A    between atoms: N_36  and  C_50
   18  A    between atoms: C_37  and  C_51
   19  A    between atoms: C_37  and  N_57
   20  A    between atoms: C_38  and  C_51
   21  A    between atoms: O_47  and  C_62
   22  A    between atoms: C_48  and  C_59
                            x       y       z     vdW  Elec       q    Type
                         _______ _______ _______ _____ _____    ______ ____

>  <TORSDO>
F 22

$$$$
=
 OpenBabel10232410563D

 64 70  0  0  1  0  0  0  0  0999 V2000
  190.9870  176.3130  137.4560 C   0  0  0  0  0  2  0  0  0  0  0  0
  192.4820  176.5240  137.5040 C   0  0  2  0  0  3  0  0  0  0  0  0
  191.9210  175.2200  136.9580 C   0  0  2  0  0  3  0  0  0  0  0  0
  192.0150  175.2160  135.4520 C   0  0  0  0  0  0  0  0  0  0  0  0
  190.9760  175.0080  134.6950 N   0  0  0  0  0  0  0  0  0  0  0  0
  193.6910  176.4940  134.3660 O   0  0  0  0  0  0  0  0  0  0  0  0
  193.3290  175.3670  134.8040 C   0  0  0  0  0  0  0  0  0  0  0  0
  194.1690  174.2550  134.6890 O   0  0  0  0  0  0  0  0  0  0  0  0
  195.3040  174.0400  135.5250 C   0  0  0  0  0  2  0  0  0  0  0  0
  196.8940  172.1240  135.0980 C   0  0  0  0  0  2  0  0  0  0  0  0
  195.5840  172.5520  135.7480 C   0  0  1  0  0  3  0  0  0  0  0  0
  196.8540  170.6440  134.7650 C   0  0  0  0  0  2  0  0  0  0  0  0
  195.5100  172.2160  137.2090 C   0  0  0  0  0  3  0  0  0  0  0  0
  195.6480  170.9910  137.7250 C   0  0  0  0  0  3  0  0  0  0  0  0
  197.1490  169.8030  135.9970 C   0  0  0  0  0  2  0  0  0  0  0  0
  196.0030  169.7850  136.9620 C   0  0  0  0  0  0  0  0  0  0  0  0
  195.5890  168.6430  137.3980 N   0  0  0  0  0  2  0  0  0  0  0  0
  189.6150  174.7680  135.1710 C   0  0  1  0  0  3  0  0  0  0  0  0
  188.7190  175.9570  134.7740 C   0  0  0  0  0  3  0  0  0  0  0  0
  187.8010  176.4040  135.8980 C   0  0  0  0  0  2  0  0  0  0  0  0
  189.0320  177.2220  135.5520 C   0  0  0  0  0  2  0  0  0  0  0  0
  189.0870  173.3590  134.7980 C   0  0  2  0  0  3  0  0  0  0  0  0
  187.8340  172.7040  136.8550 C   0  0  0  0  0  3  0  0  0  0  0  0
  187.8060  173.0120  135.4910 C   0  0  0  0  0  0  0  0  0  0  0  0
  186.6560  172.3640  137.5270 C   0  0  0  0  0  3  0  0  0  0  0  0
  186.5860  172.9740  134.7990 C   0  0  0  0  0  3  0  0  0  0  0  0
  185.4420  172.3280  136.8340 C   0  0  0  0  0  3  0  0  0  0  0  0
  185.4070  172.6310  135.4700 C   0  0  0  0  0  3  0  0  0  0  0  0
  191.1570  168.8830  134.3610 C   0  0  0  0  0  1  0  0  0  0  0  0
  191.9750  171.2370  134.8590 C   0  0  0  0  0  2  0  0  0  0  0  0
  191.4100  172.4520  134.9850 N   0  0  0  0  0  0  0  0  0  0  0  0
  190.9690  170.3390  134.5850 C   0  0  0  0  0  0  0  0  0  0  0  0
  190.0910  172.2430  134.7930 C   0  0  0  0  0  0  0  0  0  0  0  0
  189.7790  170.9580  134.5300 N   0  0  0  0  0  0  0  0  0  0  0  0
  193.0010  176.2820  138.9070 C   0  0  0  0  0  2  0  0  0  0  0  0
  193.0460  178.0730  140.4800 O   0  0  0  0  0  0  0  0  0  0  0  0
  192.3480  177.2200  139.8690 C   0  0  0  0  0  0  0  0  0  0  0  0
  190.4910  176.8030  141.2570 N   0  0  0  0  0  0  0  0  0  0  0  0
  190.9430  177.1550  140.1200 N   0  0  0  0  0  0  0  0  0  0  0  0
  189.0590  176.7410  141.4930 C   0  0  0  0  0  2  0  0  0  0  0  0
  187.0410  178.0320  141.4540 O   0  0  0  0  0  0  0  0  0  0  0  0
  188.4390  178.1260  141.3300 C   0  0  1  0  0  3  0  0  0  0  0  0
  187.7150  178.6400  142.5310 C   0  0  2  0  0  3  0  0  0  0  0  0
  186.7200  177.6920  144.6540 C   0  0  0  0  0  0  0  0  0  0  0  0
  187.7460  177.7210  143.6630 N   0  0  0  0  0  2  0  0  0  0  0  0
  186.7730  176.8290  145.5700 O   0  0  0  0  0  0  0  0  0  0  0  0
  185.5610  178.6420  144.5830 C   0  0  2  0  0  3  0  0  0  0  0  0
  185.0050  178.9960  145.9390 C   0  0  0  0  0  0  0  0  0  0  0  0
  185.7500  179.7570  146.8330 O   0  0  0  0  0  1  0  0  0  0  0  0
  183.8270  178.6720  146.2450 O   0  0  0  0  0  0  0  0  0  0  0  0
  184.4940  178.0730  143.6520 C   0  0  0  0  0  2  0  0  0  0  0  0
  183.9740  179.1400  142.6940 C   0  0  0  0  0  2  0  0  0  0  0  0
  181.9130  178.9000  141.2100 C   0  0  0  0  0  0  0  0  0  0  0  0
  180.6630  178.7500  141.1480 O   0  0  0  0  0  0  0  0  0  0  0  0
  182.5340  179.0060  142.4920 N   0  0  0  0  0  2  0  0  0  0  0  0
  181.4470  179.8620  137.9470 C   0  0  0  0  0  0  0  0  0  0  0  0
  183.0140  176.5390  140.0270 O   0  0  0  0  0  1  0  0  0  0  0  0
  182.7710  177.6190  139.1750 C   0  0  1  0  0  3  0  0  0  0  0  0
  180.9090  180.8590  137.3960 O   0  0  0  0  0  0  0  0  0  0  0  0
  182.2910  180.0560  139.0890 N   0  0  0  0  0  2  0  0  0  0  0  0
  180.3870  177.1880  139.1400 O   0  0  0  0  0  1  0  0  0  0  0  0
  181.5130  177.3700  138.3350 C   0  0  1  0  0  3  0  0  0  0  0  0
  181.2740  178.5010  137.3360 C   0  0  0  0  0  2  0  0  0  0  0  0
  182.7290  178.9530  139.9440 C   0  0  1  0  0  3  0  0  0  0  0  0
  1  2  1  0  0  0  0
  2 35  1  1  0  0  0
  3  4  1  6  0  0  0
  3  1  1  0  0  0  0
  3  2  1  0  0  0  0
  5  4  2  0  0  0  0
  6  7  2  0  0  0  0
  7  4  1  0  0  0  0
  8  7  1  0  0  0  0
  8  9  1  0  0  0  0
 10 11  1  0  0  0  0
 11  9  1  1  0  0  0
 11 13  1  0  0  0  0
 12 10  1  0  0  0  0
 12 15  1  0  0  0  0
 13 14  2  0  0  0  0
 15 16  1  0  0  0  0
 16 17  2  0  0  0  0
 16 14  1  0  0  0  0
 18  5  1  6  0  0  0
 19 18  1  0  0  0  0
 19 21  1  0  0  0  0
 19 20  1  0  0  0  0
 21 20  1  0  0  0  0
 22 18  1  1  0  0  0
 22 24  1  0  0  0  0
 23 25  1  0  0  0  0
 24 23  2  0  0  0  0
 26 28  2  0  0  0  0
 26 24  1  0  0  0  0
 27 25  2  0  0  0  0
 28 27  1  0  0  0  0
 29 32  1  0  0  0  0
 30 31  1  0  0  0  0
 32 30  1  0  0  0  0
 33 22  1  0  0  0  0
 33 31  2  0  0  0  0
 34 32  2  0  0  0  0
 34 33  1  0  0  0  0
 35 37  1  0  0  0  0
 37 39  1  0  0  0  0
 37 36  2  0  0  0  0
 38 40  1  0  0  0  0
 39 38  2  0  0  0  0
 41 43  1  0  0  0  0
 42 41  1  0  0  0  0
 42 40  1  1  0  0  0
 42 43  1  0  0  0  0
 43 45  1  1  0  0  0
 44 46  2  0  0  0  0
 45 44  1  0  0  0  0
 47 51  1  6  0  0  0
 47 44  1  0  0  0  0
 47 48  1  0  0  0  0
 48 50  2  0  0  0  0
 48 49  1  0  0  0  0
 52 51  1  0  0  0  0
 53 55  1  0  0  0  0
 54 53  2  0  0  0  0
 55 52  1  0  0  0  0
 56 60  1  0  0  0  0
 58 64  1  0  0  0  0
 58 57  1  1  0  0  0
 59 56  2  0  0  0  0
 60 64  1  0  0  0  0
 62 61  1  1  0  0  0
 62 58  1  0  0  0  0
 63 56  1  0  0  0  0
 63 62  1  0  0  0  0
 64 53  1  1  0  0  0
M  END
>  <MODEL>
9

>  <REMARK>
 VINA RESULT:      -4.6      2.139      3.705
  Name = 
  22 active torsions:
  status: ('A' for Active; 'I' for Inactive)
    1  A    between atoms: C_5  and  C_37
    2  A    between atoms: C_7  and  C_64
    3  A    between atoms: C_10  and  C_48
    4  A    between atoms: C_12  and  C_51
    5  A    between atoms: C_16  and  C_48
    6  A    between atoms: C_17  and  C_26
    7  A    between atoms: N_21  and  C_61
    8  A    between atoms: C_22  and  C_39
    9  A    between atoms: C_22  and  C_50
   10  A    between atoms: C_23  and  C_42
   11  A    between atoms: C_23  and  C_62
   12  A    between atoms: C_26  and  O_47
   13  A    between atoms: C_31  and  N_44
   14  A    between atoms: C_31  and  C_59
   15  A    between atoms: C_32  and  N_33
   16  A    between atoms: C_32  and  C_54
   17  A    between atoms: N_36  and  C_50
   18  A    between atoms: C_37  and  C_51
   19  A    between atoms: C_37  and  N_57
   20  A    between atoms: C_38  and  C_51
   21  A    between atoms: O_47  and  C_62
   22  A    between atoms: C_48  and  C_59
                            x       y       z     vdW  Elec       q    Type
                         _______ _______ _______ _____ _____    ______ ____

>  <TORSDO>
F 22

$$$$
