=
 OpenBabel10222422093D

 29 33  0  0  1  0  0  0  0  0999 V2000
  182.0800  179.2310  140.7630 C   0  0  0  0  0  0  0  0  0  0  0  0
  183.2580  179.5050  140.0150 C   0  0  0  0  0  0  0  0  0  0  0  0
  185.0680  179.0140  145.1240 C   0  0  0  0  0  3  0  0  0  0  0  0
  186.2010  178.2410  141.8690 O   0  0  0  0  0  0  0  0  0  0  0  0
  181.9070  180.6780  138.3890 C   0  0  0  0  0  3  0  0  0  0  0  0
  185.2000  178.6820  143.8420 C   0  0  0  0  0  0  0  0  0  0  0  0
  182.9740  178.3160  142.8500 C   0  0  0  0  0  3  0  0  0  0  0  0
  182.0500  178.4070  141.9430 N   0  0  0  0  0  0  0  0  0  0  0  0
  187.1540  178.0950  146.1870 C   0  0  0  0  0  3  0  0  0  0  0  0
  187.7410  177.3340  145.0790 C   0  0  0  0  0  3  0  0  0  0  0  0
  186.0240  178.7960  146.2110 C   0  0  0  0  0  3  0  0  0  0  0  0
  184.2140  179.1390  142.8100 C   0  0  2  0  0  3  0  0  0  0  0  0
  184.5550  178.9990  140.3660 N   0  0  0  0  0  0  0  0  0  0  0  0
  187.3870  177.2900  143.7960 C   0  0  0  0  0  0  0  0  0  0  0  0
  186.3590  178.1160  143.2260 N   0  0  0  0  0  0  0  0  0  0  0  0
  180.8550  179.6910  140.2690 C   0  0  0  0  0  3  0  0  0  0  0  0
  183.1520  180.2220  138.8200 C   0  0  0  0  0  3  0  0  0  0  0  0
  184.9750  178.8070  141.5760 C   0  0  0  0  0  0  0  0  0  0  0  0
  180.7940  180.4050  139.1150 N   0  0  0  0  0  0  0  0  0  0  0  0
  188.1630  176.4360  142.9490 N   0  0  0  0  0  2  0  0  0  0  0  0
  190.1230  177.5270  140.0740 N   0  0  0  0  0  0  0  0  0  0  0  0
  188.9880  177.2430  140.6350 C   0  0  0  0  0  3  0  0  0  0  0  0
  192.3380  177.5560  140.9040 O   0  0  0  0  0  0  0  0  0  0  0  0
  191.1060  177.3660  141.0870 C   0  0  0  0  0  0  0  0  0  0  0  0
  189.1820  176.8920  142.0520 C   0  0  0  0  0  0  0  0  0  0  0  0
  190.4800  176.9520  142.3260 C   0  0  0  0  0  0  0  0  0  0  0  0
  191.5850  175.3920  143.7960 O   0  0  0  0  0  1  0  0  0  0  0  0
  191.3830  177.6630  144.5800 C   0  0  0  0  0  1  0  0  0  0  0  0
  191.1420  176.6490  143.5640 N   0  0  0  0  0  0  0  0  0  0  0  0
  1  8  1  0  0  0  0
  2 13  1  0  0  0  0
  2  1  2  0  0  0  0
  3 11  1  0  0  0  0
  4 15  1  0  0  0  0
  5 17  2  0  0  0  0
  5 19  1  0  0  0  0
  6  3  2  0  0  0  0
  8  7  2  0  0  0  0
  9 11  2  0  0  0  0
 10  9  1  0  0  0  0
 12  7  1  6  0  0  0
 12  6  1  0  0  0  0
 13 18  2  0  0  0  0
 14 10  2  0  0  0  0
 15 14  1  0  0  0  0
 15  6  1  0  0  0  0
 16  1  1  0  0  0  0
 17  2  1  0  0  0  0
 18  4  1  0  0  0  0
 18 12  1  0  0  0  0
 19 16  2  0  0  0  0
 20 14  1  0  0  0  0
 21 22  2  0  0  0  0
 21 24  1  0  0  0  0
 22 25  1  0  0  0  0
 23 24  2  0  0  0  0
 24 26  1  0  0  0  0
 25 26  2  0  0  0  0
 25 20  1  0  0  0  0
 26 29  1  0  0  0  0
 29 27  1  0  0  0  0
 29 28  1  0  0  0  0
M  END
>  <MODEL>
1

>  <REMARK>
 VINA RESULT:      -8.8      0.000      0.000
  Name = 
  3 active torsions:
  status: ('A' for Active; 'I' for Inactive)
    1  A    between atoms: N_8  and  C_29
    2  A    between atoms: N_13  and  C_22
    3  A    between atoms: N_13  and  C_23
                            x       y       z     vdW  Elec       q    Type
                         _______ _______ _______ _____ _____    ______ ____

>  <TORSDO>
F 3

$$$$
=
 OpenBabel10222422093D

 29 33  0  0  1  0  0  0  0  0999 V2000
  186.6370  178.6100  146.5120 C   0  0  0  0  0  0  0  0  0  0  0  0
  187.3230  177.7460  145.6140 C   0  0  0  0  0  0  0  0  0  0  0  0
  182.5390  178.6030  143.1650 C   0  0  0  0  0  3  0  0  0  0  0  0
  185.9100  178.1490  142.2170 O   0  0  0  0  0  0  0  0  0  0  0  0
  188.5760  176.8610  147.4820 C   0  0  0  0  0  3  0  0  0  0  0  0
  183.8660  178.5700  143.0710 C   0  0  0  0  0  0  0  0  0  0  0  0
  184.8620  179.5400  145.1060 C   0  0  0  0  0  3  0  0  0  0  0  0
  185.6960  179.6170  146.0980 N   0  0  0  0  0  0  0  0  0  0  0  0
  181.7870  178.8540  140.7780 C   0  0  0  0  0  3  0  0  0  0  0  0
  183.0620  179.0690  140.0870 C   0  0  0  0  0  3  0  0  0  0  0  0
  181.5630  178.6670  142.0760 C   0  0  0  0  0  3  0  0  0  0  0  0
  184.7290  178.3150  144.2700 C   0  0  2  0  0  3  0  0  0  0  0  0
  187.1390  177.7760  144.1900 N   0  0  0  0  0  0  0  0  0  0  0  0
  184.3070  178.9640  140.5470 C   0  0  0  0  0  0  0  0  0  0  0  0
  184.6310  178.4960  141.8660 N   0  0  0  0  0  0  0  0  0  0  0  0
  186.9710  178.5620  147.8690 C   0  0  0  0  0  3  0  0  0  0  0  0
  188.3000  176.8830  146.1170 C   0  0  0  0  0  3  0  0  0  0  0  0
  186.0250  178.0510  143.5910 C   0  0  0  0  0  0  0  0  0  0  0  0
  187.9120  177.6930  148.3240 N   0  0  0  0  0  0  0  0  0  0  0  0
  185.3580  179.2460  139.6160 N   0  0  0  0  0  2  0  0  0  0  0  0
  185.5570  176.8510  136.8730 N   0  0  0  0  0  0  0  0  0  0  0  0
  184.8780  177.6480  137.6410 C   0  0  0  0  0  3  0  0  0  0  0  0
  187.8690  176.3700  136.7360 O   0  0  0  0  0  0  0  0  0  0  0  0
  186.9140  176.9980  137.2660 C   0  0  0  0  0  0  0  0  0  0  0  0
  185.7720  178.3610  138.5690 C   0  0  0  0  0  0  0  0  0  0  0  0
  187.0160  177.9530  138.3510 C   0  0  0  0  0  0  0  0  0  0  0  0
  189.0000  179.3140  138.5320 O   0  0  0  0  0  1  0  0  0  0  0  0
  188.6040  177.7350  140.3100 C   0  0  0  0  0  1  0  0  0  0  0  0
  188.2140  178.3400  139.0450 N   0  0  0  0  0  0  0  0  0  0  0  0
  1 16  1  0  0  0  0
  2 17  1  0  0  0  0
  2  1  2  0  0  0  0
  4 18  1  0  0  0  0
  5 19  1  0  0  0  0
  6  3  2  0  0  0  0
  6 12  1  0  0  0  0
  7  8  2  0  0  0  0
  8  1  1  0  0  0  0
  9 11  2  0  0  0  0
 10 14  2  0  0  0  0
 10  9  1  0  0  0  0
 11  3  1  0  0  0  0
 12  7  1  1  0  0  0
 13  2  1  0  0  0  0
 14 15  1  0  0  0  0
 15  4  1  0  0  0  0
 15  6  1  0  0  0  0
 16 19  2  0  0  0  0
 17  5  2  0  0  0  0
 18 13  2  0  0  0  0
 18 12  1  0  0  0  0
 20 14  1  0  0  0  0
 21 24  1  0  0  0  0
 21 22  2  0  0  0  0
 22 25  1  0  0  0  0
 23 24  2  0  0  0  0
 24 26  1  0  0  0  0
 25 20  1  0  0  0  0
 26 25  2  0  0  0  0
 26 29  1  0  0  0  0
 27 29  1  0  0  0  0
 29 28  1  0  0  0  0
M  END
>  <MODEL>
2

>  <REMARK>
 VINA RESULT:      -8.5      2.529      6.311
  Name = 
  3 active torsions:
  status: ('A' for Active; 'I' for Inactive)
    1  A    between atoms: N_8  and  C_29
    2  A    between atoms: N_13  and  C_22
    3  A    between atoms: N_13  and  C_23
                            x       y       z     vdW  Elec       q    Type
                         _______ _______ _______ _____ _____    ______ ____

>  <TORSDO>
F 3

$$$$
=
 OpenBabel10222422093D

 29 33  0  0  1  0  0  0  0  0999 V2000
  190.4830  176.9210  145.3920 C   0  0  0  0  0  0  0  0  0  0  0  0
  190.4380  176.2580  144.1350 C   0  0  0  0  0  0  0  0  0  0  0  0
  185.3290  177.9900  144.8540 C   0  0  0  0  0  3  0  0  0  0  0  0
  187.5850  177.5610  142.1710 O   0  0  0  0  0  0  0  0  0  0  0  0
  192.2840  174.8680  144.8450 C   0  0  0  0  0  3  0  0  0  0  0  0
  186.3870  177.8950  144.0530 C   0  0  0  0  0  0  0  0  0  0  0  0
  188.4450  178.2770  145.3530 C   0  0  0  0  0  3  0  0  0  0  0  0
  189.6680  178.0580  145.7320 N   0  0  0  0  0  0  0  0  0  0  0  0
  183.5200  178.8590  143.3390 C   0  0  0  0  0  3  0  0  0  0  0  0
  184.2740  179.1510  142.1150 C   0  0  0  0  0  3  0  0  0  0  0  0
  183.9640  178.3790  144.4960 C   0  0  0  0  0  3  0  0  0  0  0  0
  187.6790  177.3020  144.5290 C   0  0  2  0  0  3  0  0  0  0  0  0
  189.5580  176.6430  143.0670 N   0  0  0  0  0  0  0  0  0  0  0  0
  185.5340  178.8580  141.8020 C   0  0  0  0  0  0  0  0  0  0  0  0
  186.3960  178.0640  142.6340 N   0  0  0  0  0  0  0  0  0  0  0  0
  191.4510  176.5250  146.3210 C   0  0  0  0  0  3  0  0  0  0  0  0
  191.3560  175.2380  143.8730 C   0  0  0  0  0  3  0  0  0  0  0  0
  188.3680  177.1260  143.2230 C   0  0  0  0  0  0  0  0  0  0  0  0
  192.3130  175.5130  146.0390 N   0  0  0  0  0  0  0  0  0  0  0  0
  185.9890  179.2880  140.5140 N   0  0  0  0  0  2  0  0  0  0  0  0
  184.5000  177.5140  137.6970 N   0  0  0  0  0  0  0  0  0  0  0  0
  184.3950  178.2140  138.7850 C   0  0  0  0  0  3  0  0  0  0  0  0
  186.3790  176.7760  136.4630 O   0  0  0  0  0  0  0  0  0  0  0  0
  185.8940  177.3980  137.4450 C   0  0  0  0  0  0  0  0  0  0  0  0
  185.7250  178.5960  139.2880 C   0  0  0  0  0  0  0  0  0  0  0  0
  186.6430  178.0840  138.4780 C   0  0  0  0  0  0  0  0  0  0  0  0
  188.7170  179.2910  138.2360 O   0  0  0  0  0  1  0  0  0  0  0  0
  188.8640  177.0540  139.1220 C   0  0  0  0  0  1  0  0  0  0  0  0
  188.0740  178.1570  138.5970 N   0  0  0  0  0  0  0  0  0  0  0  0
  1  8  1  0  0  0  0
  1 16  1  0  0  0  0
  2  1  2  0  0  0  0
  4 15  1  0  0  0  0
  4 18  1  0  0  0  0
  5 19  1  0  0  0  0
  6 12  1  0  0  0  0
  6  3  2  0  0  0  0
  7  8  2  0  0  0  0
  9 11  2  0  0  0  0
 10  9  1  0  0  0  0
 11  3  1  0  0  0  0
 12  7  1  1  0  0  0
 13 18  2  0  0  0  0
 13  2  1  0  0  0  0
 14 10  2  0  0  0  0
 14 15  1  0  0  0  0
 15  6  1  0  0  0  0
 17  2  1  0  0  0  0
 17  5  2  0  0  0  0
 18 12  1  0  0  0  0
 19 16  2  0  0  0  0
 20 14  1  0  0  0  0
 21 22  2  0  0  0  0
 22 25  1  0  0  0  0
 23 24  2  0  0  0  0
 24 21  1  0  0  0  0
 24 26  1  0  0  0  0
 25 20  1  0  0  0  0
 26 29  1  0  0  0  0
 26 25  2  0  0  0  0
 27 29  1  0  0  0  0
 29 28  1  0  0  0  0
M  END
>  <MODEL>
3

>  <REMARK>
 VINA RESULT:      -8.1      2.491      7.072
  Name = 
  3 active torsions:
  status: ('A' for Active; 'I' for Inactive)
    1  A    between atoms: N_8  and  C_29
    2  A    between atoms: N_13  and  C_22
    3  A    between atoms: N_13  and  C_23
                            x       y       z     vdW  Elec       q    Type
                         _______ _______ _______ _____ _____    ______ ____

>  <TORSDO>
F 3

$$$$
=
 OpenBabel10222422093D

 29 33  0  0  1  0  0  0  0  0999 V2000
  190.5670  177.0600  146.4300 C   0  0  0  0  0  0  0  0  0  0  0  0
  191.0140  176.2980  145.3150 C   0  0  0  0  0  0  0  0  0  0  0  0
  185.9800  177.8050  143.9020 C   0  0  0  0  0  3  0  0  0  0  0  0
  189.0910  177.2880  142.3130 O   0  0  0  0  0  0  0  0  0  0  0  0
  192.4820  175.0690  146.7920 C   0  0  0  0  0  3  0  0  0  0  0  0
  187.2640  177.7040  143.5680 C   0  0  0  0  0  0  0  0  0  0  0  0
  188.6690  178.2970  145.5040 C   0  0  0  0  0  3  0  0  0  0  0  0
  189.6610  178.1740  146.3320 N   0  0  0  0  0  0  0  0  0  0  0  0
  184.8610  178.4550  141.7450 C   0  0  0  0  0  3  0  0  0  0  0  0
  186.0160  178.6900  140.8710 C   0  0  0  0  0  3  0  0  0  0  0  0
  184.8440  178.0910  143.0240 C   0  0  0  0  0  3  0  0  0  0  0  0
  188.2910  177.2210  144.5470 C   0  0  2  0  0  3  0  0  0  0  0  0
  190.5970  176.5500  143.9650 N   0  0  0  0  0  0  0  0  0  0  0  0
  187.3070  178.4400  141.0820 C   0  0  0  0  0  0  0  0  0  0  0  0
  187.8060  177.7620  142.2470 N   0  0  0  0  0  0  0  0  0  0  0  0
  191.1200  176.7900  147.6870 C   0  0  0  0  0  3  0  0  0  0  0  0
  191.9830  175.3110  145.5130 C   0  0  0  0  0  3  0  0  0  0  0  0
  189.4260  176.9800  143.6170 C   0  0  0  0  0  0  0  0  0  0  0  0
  192.0440  175.8060  147.8440 N   0  0  0  0  0  0  0  0  0  0  0  0
  188.2070  178.7910  140.0250 N   0  0  0  0  0  2  0  0  0  0  0  0
  190.1690  176.4230  138.0660 N   0  0  0  0  0  0  0  0  0  0  0  0
  189.9470  177.0870  139.1590 C   0  0  0  0  0  3  0  0  0  0  0  0
  188.9780  176.2850  136.0270 O   0  0  0  0  0  0  0  0  0  0  0  0
  189.0970  176.7480  137.1920 C   0  0  0  0  0  0  0  0  0  0  0  0
  188.7060  177.8720  139.0480 C   0  0  0  0  0  0  0  0  0  0  0  0
  188.1930  177.6770  137.8390 C   0  0  0  0  0  0  0  0  0  0  0  0
  187.1080  179.4610  136.6310 O   0  0  0  0  0  1  0  0  0  0  0  0
  185.7160  177.6170  137.3210 C   0  0  0  0  0  1  0  0  0  0  0  0
  187.0150  178.2700  137.2670 N   0  0  0  0  0  0  0  0  0  0  0  0
  1 16  1  0  0  0  0
  2 17  1  0  0  0  0
  2  1  2  0  0  0  0
  4 18  1  0  0  0  0
  5 19  1  0  0  0  0
  6  3  2  0  0  0  0
  6 12  1  0  0  0  0
  7  8  2  0  0  0  0
  8  1  1  0  0  0  0
  9 11  2  0  0  0  0
 10 14  2  0  0  0  0
 10  9  1  0  0  0  0
 11  3  1  0  0  0  0
 12  7  1  1  0  0  0
 13  2  1  0  0  0  0
 14 15  1  0  0  0  0
 15  4  1  0  0  0  0
 15  6  1  0  0  0  0
 16 19  2  0  0  0  0
 17  5  2  0  0  0  0
 18 13  2  0  0  0  0
 18 12  1  0  0  0  0
 20 14  1  0  0  0  0
 21 22  2  0  0  0  0
 23 24  2  0  0  0  0
 24 26  1  0  0  0  0
 24 21  1  0  0  0  0
 25 22  1  0  0  0  0
 25 20  1  0  0  0  0
 26 25  2  0  0  0  0
 27 29  1  0  0  0  0
 29 28  1  0  0  0  0
 29 26  1  0  0  0  0
M  END
>  <MODEL>
4

>  <REMARK>
 VINA RESULT:      -8.0      2.939      7.476
  Name = 
  3 active torsions:
  status: ('A' for Active; 'I' for Inactive)
    1  A    between atoms: N_8  and  C_29
    2  A    between atoms: N_13  and  C_22
    3  A    between atoms: N_13  and  C_23
                            x       y       z     vdW  Elec       q    Type
                         _______ _______ _______ _____ _____    ______ ____

>  <TORSDO>
F 3

$$$$
=
 OpenBabel10222422093D

 29 33  0  0  1  0  0  0  0  0999 V2000
  191.8350  177.4220  140.3940 C   0  0  0  0  0  0  0  0  0  0  0  0
  190.7640  177.1100  139.5120 C   0  0  0  0  0  0  0  0  0  0  0  0
  188.4540  176.9430  144.4360 C   0  0  0  0  0  3  0  0  0  0  0  0
  187.5500  177.9100  141.1620 O   0  0  0  0  0  0  0  0  0  0  0  0
  192.3710  176.2290  137.9350 C   0  0  0  0  0  3  0  0  0  0  0  0
  188.4060  177.3810  143.1810 C   0  0  0  0  0  0  0  0  0  0  0  0
  190.6640  178.0460  142.4520 C   0  0  0  0  0  3  0  0  0  0  0  0
  191.6720  178.1290  141.6370 N   0  0  0  0  0  0  0  0  0  0  0  0
  186.1970  177.5570  145.3590 C   0  0  0  0  0  3  0  0  0  0  0  0
  185.6380  178.3610  144.2670 C   0  0  0  0  0  3  0  0  0  0  0  0
  187.3850  176.9670  145.4360 C   0  0  0  0  0  3  0  0  0  0  0  0
  189.5240  177.1180  142.2170 C   0  0  2  0  0  3  0  0  0  0  0  0
  189.3950  177.4560  139.7730 N   0  0  0  0  0  0  0  0  0  0  0  0
  186.1010  178.5590  143.0340 C   0  0  0  0  0  0  0  0  0  0  0  0
  187.2570  177.8910  142.5020 N   0  0  0  0  0  0  0  0  0  0  0  0
  193.1410  177.1270  139.9890 C   0  0  0  0  0  3  0  0  0  0  0  0
  191.0530  176.5220  138.2770 C   0  0  0  0  0  3  0  0  0  0  0  0
  188.8490  177.4930  140.9460 C   0  0  0  0  0  0  0  0  0  0  0  0
  193.3800  176.5340  138.7900 N   0  0  0  0  0  0  0  0  0  0  0  0
  185.3220  179.4130  142.1890 N   0  0  0  0  0  2  0  0  0  0  0  0
  181.8080  178.4730  141.9410 N   0  0  0  0  0  0  0  0  0  0  0  0
  182.8630  178.7560  142.6420 C   0  0  0  0  0  3  0  0  0  0  0  0
  181.4140  178.4470  139.6090 O   0  0  0  0  0  0  0  0  0  0  0  0
  182.1890  178.6390  140.5830 C   0  0  0  0  0  0  0  0  0  0  0  0
  183.9840  179.1310  141.7640 C   0  0  0  0  0  0  0  0  0  0  0  0
  183.5780  179.0450  140.5030 C   0  0  0  0  0  0  0  0  0  0  0  0
  184.4840  180.5330  138.8350 O   0  0  0  0  0  1  0  0  0  0  0  0
  184.9910  178.1900  138.5860 C   0  0  0  0  0  1  0  0  0  0  0  0
  184.3390  179.2730  139.3060 N   0  0  0  0  0  0  0  0  0  0  0  0
  1  8  1  0  0  0  0
  2 13  1  0  0  0  0
  2  1  2  0  0  0  0
  3 11  1  0  0  0  0
  4 15  1  0  0  0  0
  5 17  2  0  0  0  0
  5 19  1  0  0  0  0
  6  3  2  0  0  0  0
  8  7  2  0  0  0  0
  9 11  2  0  0  0  0
 10  9  1  0  0  0  0
 12  7  1  1  0  0  0
 12  6  1  0  0  0  0
 13 18  2  0  0  0  0
 14 10  2  0  0  0  0
 15 14  1  0  0  0  0
 15  6  1  0  0  0  0
 16  1  1  0  0  0  0
 17  2  1  0  0  0  0
 18  4  1  0  0  0  0
 18 12  1  0  0  0  0
 19 16  2  0  0  0  0
 20 14  1  0  0  0  0
 21 22  2  0  0  0  0
 23 24  2  0  0  0  0
 24 21  1  0  0  0  0
 25 20  1  0  0  0  0
 25 22  1  0  0  0  0
 26 24  1  0  0  0  0
 26 25  2  0  0  0  0
 27 29  1  0  0  0  0
 28 29  1  0  0  0  0
 29 26  1  0  0  0  0
M  END
>  <MODEL>
5

>  <REMARK>
 VINA RESULT:      -8.0      2.046      7.546
  Name = 
  3 active torsions:
  status: ('A' for Active; 'I' for Inactive)
    1  A    between atoms: N_8  and  C_29
    2  A    between atoms: N_13  and  C_22
    3  A    between atoms: N_13  and  C_23
                            x       y       z     vdW  Elec       q    Type
                         _______ _______ _______ _____ _____    ______ ____

>  <TORSDO>
F 3

$$$$
=
 OpenBabel10222422093D

 29 33  0  0  1  0  0  0  0  0999 V2000
  190.7450  176.1920  137.5930 C   0  0  0  0  0  0  0  0  0  0  0  0
  191.6050  176.5480  138.6680 C   0  0  0  0  0  0  0  0  0  0  0  0
  186.7960  178.6270  140.1360 C   0  0  0  0  0  3  0  0  0  0  0  0
  189.5800  177.1310  141.7100 O   0  0  0  0  0  0  0  0  0  0  0  0
  193.4750  176.5060  137.1350 C   0  0  0  0  0  3  0  0  0  0  0  0
  187.8640  177.9090  140.4700 C   0  0  0  0  0  0  0  0  0  0  0  0
  188.5210  176.4760  138.5750 C   0  0  0  0  0  3  0  0  0  0  0  0
  189.3420  175.9070  137.7470 N   0  0  0  0  0  0  0  0  0  0  0  0
  185.5840  178.9270  142.3190 C   0  0  0  0  0  3  0  0  0  0  0  0
  186.3560  178.0540  143.2100 C   0  0  0  0  0  3  0  0  0  0  0  0
  185.7610  179.1630  141.0230 C   0  0  0  0  0  3  0  0  0  0  0  0
  188.9360  177.5900  139.4720 C   0  0  2  0  0  3  0  0  0  0  0  0
  191.1630  176.6760  140.0280 N   0  0  0  0  0  0  0  0  0  0  0  0
  187.5070  177.4210  142.9920 C   0  0  0  0  0  0  0  0  0  0  0  0
  188.2870  177.5800  141.7950 N   0  0  0  0  0  0  0  0  0  0  0  0
  191.3060  175.9960  136.3270 C   0  0  0  0  0  3  0  0  0  0  0  0
  192.9740  176.6900  138.4230 C   0  0  0  0  0  3  0  0  0  0  0  0
  189.9950  177.1000  140.3920 C   0  0  0  0  0  0  0  0  0  0  0  0
  192.6390  176.1650  136.1220 N   0  0  0  0  0  0  0  0  0  0  0  0
  188.0140  176.6280  144.0700 N   0  0  0  0  0  2  0  0  0  0  0  0
  187.4270  177.8130  147.4680 N   0  0  0  0  0  0  0  0  0  0  0  0
  187.0010  177.3200  146.3460 C   0  0  0  0  0  3  0  0  0  0  0  0
  189.5950  178.3740  148.2320 O   0  0  0  0  0  0  0  0  0  0  0  0
  188.8370  177.9260  147.3310 C   0  0  0  0  0  0  0  0  0  0  0  0
  188.1240  177.0780  145.4250 C   0  0  0  0  0  0  0  0  0  0  0  0
  189.2470  177.4630  146.0210 C   0  0  0  0  0  0  0  0  0  0  0  0
  190.9240  178.3460  144.5300 O   0  0  0  0  0  1  0  0  0  0  0  0
  191.6020  176.5380  145.9730 C   0  0  0  0  0  1  0  0  0  0  0  0
  190.5830  177.4570  145.4900 N   0  0  0  0  0  0  0  0  0  0  0  0
  1  8  1  0  0  0  0
  1  2  1  0  0  0  0
  2 13  1  0  0  0  0
  3  6  2  0  0  0  0
  3 11  1  0  0  0  0
  4 15  1  0  0  0  0
  5 17  1  0  0  0  0
  6 15  1  0  0  0  0
  8  7  2  0  0  0  0
  9 10  1  0  0  0  0
 11  9  2  0  0  0  0
 12  7  1  6  0  0  0
 12 18  1  0  0  0  0
 12  6  1  0  0  0  0
 13 18  2  0  0  0  0
 14 10  2  0  0  0  0
 14 20  1  0  0  0  0
 15 14  1  0  0  0  0
 16  1  2  0  0  0  0
 17  2  2  0  0  0  0
 18  4  1  0  0  0  0
 19 16  1  0  0  0  0
 19  5  2  0  0  0  0
 20 25  1  0  0  0  0
 22 21  2  0  0  0  0
 24 21  1  0  0  0  0
 24 23  2  0  0  0  0
 25 26  2  0  0  0  0
 25 22  1  0  0  0  0
 26 24  1  0  0  0  0
 27 29  1  0  0  0  0
 29 28  1  0  0  0  0
 29 26  1  0  0  0  0
M  END
>  <MODEL>
6

>  <REMARK>
 VINA RESULT:      -8.0      3.181      6.837
  Name = 
  3 active torsions:
  status: ('A' for Active; 'I' for Inactive)
    1  A    between atoms: N_8  and  C_29
    2  A    between atoms: N_13  and  C_22
    3  A    between atoms: N_13  and  C_23
                            x       y       z     vdW  Elec       q    Type
                         _______ _______ _______ _____ _____    ______ ____

>  <TORSDO>
F 3

$$$$
=
 OpenBabel10222422093D

 29 33  0  0  1  0  0  0  0  0999 V2000
  190.2180  177.0750  145.0880 C   0  0  0  0  0  0  0  0  0  0  0  0
  190.0610  176.4540  143.8180 C   0  0  0  0  0  0  0  0  0  0  0  0
  185.0240  178.0870  145.0740 C   0  0  0  0  0  3  0  0  0  0  0  0
  187.0210  177.7810  142.1780 O   0  0  0  0  0  0  0  0  0  0  0  0
  191.9820  175.0680  144.3030 C   0  0  0  0  0  3  0  0  0  0  0  0
  186.0030  178.0340  144.1750 C   0  0  0  0  0  0  0  0  0  0  0  0
  188.1700  178.4020  145.2880 C   0  0  0  0  0  3  0  0  0  0  0  0
  189.4250  178.1880  145.5420 N   0  0  0  0  0  0  0  0  0  0  0  0
  183.0700  178.9810  143.7670 C   0  0  0  0  0  3  0  0  0  0  0  0
  183.7020  179.3240  142.4890 C   0  0  0  0  0  3  0  0  0  0  0  0
  183.6270  178.4680  144.8600 C   0  0  0  0  0  3  0  0  0  0  0  0
  187.3400  177.4440  144.5060 C   0  0  2  0  0  3  0  0  0  0  0  0
  189.0800  176.8620  142.8520 N   0  0  0  0  0  0  0  0  0  0  0  0
  184.9300  179.0600  142.0480 C   0  0  0  0  0  0  0  0  0  0  0  0
  185.8760  178.2510  142.7670 N   0  0  0  0  0  0  0  0  0  0  0  0
  191.2740  176.6620  145.9070 C   0  0  0  0  0  3  0  0  0  0  0  0
  190.9620  175.4560  143.4360 C   0  0  0  0  0  3  0  0  0  0  0  0
  187.9050  177.3220  143.1360 C   0  0  0  0  0  0  0  0  0  0  0  0
  192.1160  175.6730  145.5100 N   0  0  0  0  0  0  0  0  0  0  0  0
  185.2560  179.5390  140.7390 N   0  0  0  0  0  2  0  0  0  0  0  0
  185.8960  177.5900  137.7240 N   0  0  0  0  0  0  0  0  0  0  0  0
  186.3000  178.1560  138.8200 C   0  0  0  0  0  3  0  0  0  0  0  0
  183.7540  177.3880  136.7410 O   0  0  0  0  0  0  0  0  0  0  0  0
  184.4920  177.8010  137.6750 C   0  0  0  0  0  0  0  0  0  0  0  0
  185.1670  178.7560  139.5440 C   0  0  0  0  0  0  0  0  0  0  0  0
  184.0610  178.5520  138.8360 C   0  0  0  0  0  0  0  0  0  0  0  0
  182.3800  180.2810  138.8810 O   0  0  0  0  0  1  0  0  0  0  0  0
  181.7100  178.0980  139.6550 C   0  0  0  0  0  1  0  0  0  0  0  0
  182.7260  178.9960  139.1260 N   0  0  0  0  0  0  0  0  0  0  0  0
  1  8  1  0  0  0  0
  1 16  1  0  0  0  0
  2  1  2  0  0  0  0
  4 15  1  0  0  0  0
  4 18  1  0  0  0  0
  5 19  1  0  0  0  0
  6 12  1  0  0  0  0
  6  3  2  0  0  0  0
  7  8  2  0  0  0  0
  9 11  2  0  0  0  0
 10  9  1  0  0  0  0
 11  3  1  0  0  0  0
 12  7  1  1  0  0  0
 13 18  2  0  0  0  0
 13  2  1  0  0  0  0
 14 10  2  0  0  0  0
 14 15  1  0  0  0  0
 15  6  1  0  0  0  0
 17  2  1  0  0  0  0
 17  5  2  0  0  0  0
 18 12  1  0  0  0  0
 19 16  2  0  0  0  0
 20 14  1  0  0  0  0
 21 22  2  0  0  0  0
 22 25  1  0  0  0  0
 23 24  2  0  0  0  0
 24 21  1  0  0  0  0
 24 26  1  0  0  0  0
 25 20  1  0  0  0  0
 26 29  1  0  0  0  0
 26 25  2  0  0  0  0
 27 29  1  0  0  0  0
 29 28  1  0  0  0  0
M  END
>  <MODEL>
7

>  <REMARK>
 VINA RESULT:      -7.9      2.278      7.521
  Name = 
  3 active torsions:
  status: ('A' for Active; 'I' for Inactive)
    1  A    between atoms: N_8  and  C_29
    2  A    between atoms: N_13  and  C_22
    3  A    between atoms: N_13  and  C_23
                            x       y       z     vdW  Elec       q    Type
                         _______ _______ _______ _____ _____    ______ ____

>  <TORSDO>
F 3

$$$$
=
 OpenBabel10222422093D

 29 33  0  0  1  0  0  0  0  0999 V2000
  186.4100  177.7470  145.0780 C   0  0  0  0  0  0  0  0  0  0  0  0
  185.8080  178.2580  143.8960 C   0  0  0  0  0  0  0  0  0  0  0  0
  191.0990  178.0390  142.6470 C   0  0  0  0  0  3  0  0  0  0  0  0
  188.0100  177.5600  141.0060 O   0  0  0  0  0  0  0  0  0  0  0  0
  184.0230  179.1740  145.2470 C   0  0  0  0  0  3  0  0  0  0  0  0
  189.8450  177.7620  142.3010 C   0  0  0  0  0  0  0  0  0  0  0  0
  188.5950  176.9870  144.2780 C   0  0  0  0  0  3  0  0  0  0  0  0
  187.5820  176.9120  145.0870 N   0  0  0  0  0  0  0  0  0  0  0  0
  192.4120  177.5260  140.5640 C   0  0  0  0  0  3  0  0  0  0  0  0
  191.3870  176.9130  139.7120 C   0  0  0  0  0  3  0  0  0  0  0  0
  192.2950  177.9930  141.8040 C   0  0  0  0  0  3  0  0  0  0  0  0
  188.6990  178.0370  143.2270 C   0  0  2  0  0  3  0  0  0  0  0  0
  186.3150  178.0090  142.5760 N   0  0  0  0  0  0  0  0  0  0  0  0
  190.0710  176.8240  139.8940 C   0  0  0  0  0  0  0  0  0  0  0  0
  189.3760  177.4440  140.9890 N   0  0  0  0  0  0  0  0  0  0  0  0
  185.7690  177.9680  146.3020 C   0  0  0  0  0  3  0  0  0  0  0  0
  184.6040  178.9630  143.9980 C   0  0  0  0  0  3  0  0  0  0  0  0
  187.5680  177.8810  142.2750 C   0  0  0  0  0  0  0  0  0  0  0  0
  184.6120  178.6770  146.3640 N   0  0  0  0  0  0  0  0  0  0  0  0
  189.3280  176.1530  138.8710 N   0  0  0  0  0  2  0  0  0  0  0  0
  190.5830  175.7680  135.4690 N   0  0  0  0  0  0  0  0  0  0  0  0
  190.4600  175.3480  136.6900 C   0  0  0  0  0  3  0  0  0  0  0  0
  189.7150  177.6640  134.3510 O   0  0  0  0  0  0  0  0  0  0  0  0
  189.8260  176.9680  135.3950 C   0  0  0  0  0  0  0  0  0  0  0  0
  189.6030  176.2570  137.4690 C   0  0  0  0  0  0  0  0  0  0  0  0
  189.2270  177.2570  136.6820 C   0  0  0  0  0  0  0  0  0  0  0  0
  188.9820  179.4340  137.6920 O   0  0  0  0  0  1  0  0  0  0  0  0
  187.0250  178.5050  136.6350 C   0  0  0  0  0  1  0  0  0  0  0  0
  188.4250  178.4010  137.0190 N   0  0  0  0  0  0  0  0  0  0  0  0
  1  8  1  0  0  0  0
  1 16  1  0  0  0  0
  2 17  1  0  0  0  0
  2  1  2  0  0  0  0
  4 18  1  0  0  0  0
  5 19  1  0  0  0  0
  6  3  2  0  0  0  0
  6 12  1  0  0  0  0
  7  8  2  0  0  0  0
  9 11  2  0  0  0  0
 10 14  2  0  0  0  0
 10  9  1  0  0  0  0
 11  3  1  0  0  0  0
 12  7  1  1  0  0  0
 13  2  1  0  0  0  0
 14 15  1  0  0  0  0
 15  4  1  0  0  0  0
 15  6  1  0  0  0  0
 16 19  2  0  0  0  0
 17  5  2  0  0  0  0
 18 13  2  0  0  0  0
 18 12  1  0  0  0  0
 20 14  1  0  0  0  0
 21 22  2  0  0  0  0
 22 25  1  0  0  0  0
 23 24  2  0  0  0  0
 24 21  1  0  0  0  0
 24 26  1  0  0  0  0
 25 20  1  0  0  0  0
 26 29  1  0  0  0  0
 26 25  2  0  0  0  0
 28 29  1  0  0  0  0
 29 27  1  0  0  0  0
M  END
>  <MODEL>
8

>  <REMARK>
 VINA RESULT:      -7.8      3.171      6.068
  Name = 
  3 active torsions:
  status: ('A' for Active; 'I' for Inactive)
    1  A    between atoms: N_8  and  C_29
    2  A    between atoms: N_13  and  C_22
    3  A    between atoms: N_13  and  C_23
                            x       y       z     vdW  Elec       q    Type
                         _______ _______ _______ _____ _____    ______ ____

>  <TORSDO>
F 3

$$$$
=
 OpenBabel10222422093D

 29 33  0  0  1  0  0  0  0  0999 V2000
  186.3550  177.6750  144.8940 C   0  0  0  0  0  0  0  0  0  0  0  0
  185.8100  178.3450  143.7640 C   0  0  0  0  0  0  0  0  0  0  0  0
  191.0740  177.7860  142.5050 C   0  0  0  0  0  3  0  0  0  0  0  0
  187.9690  177.7320  140.8230 O   0  0  0  0  0  0  0  0  0  0  0  0
  184.0990  179.2810  145.1940 C   0  0  0  0  0  3  0  0  0  0  0  0
  189.8040  177.6520  142.1330 C   0  0  0  0  0  0  0  0  0  0  0  0
  188.4730  176.8070  144.0280 C   0  0  0  0  0  3  0  0  0  0  0  0
  187.4510  176.7450  144.8260 N   0  0  0  0  0  0  0  0  0  0  0  0
  192.3560  177.3580  140.3840 C   0  0  0  0  0  3  0  0  0  0  0  0
  191.2900  176.9190  139.4770 C   0  0  0  0  0  3  0  0  0  0  0  0
  192.2680  177.7150  141.6620 C   0  0  0  0  0  3  0  0  0  0  0  0
  188.6770  177.9370  143.0800 C   0  0  2  0  0  3  0  0  0  0  0  0
  186.3060  178.1770  142.4280 N   0  0  0  0  0  0  0  0  0  0  0  0
  189.9690  176.9280  139.6490 C   0  0  0  0  0  0  0  0  0  0  0  0
  189.3210  177.5000  140.7960 N   0  0  0  0  0  0  0  0  0  0  0  0
  185.7250  177.8350  146.1330 C   0  0  0  0  0  3  0  0  0  0  0  0
  184.6710  179.1380  143.9310 C   0  0  0  0  0  3  0  0  0  0  0  0
  187.5450  177.9700  142.1160 C   0  0  0  0  0  0  0  0  0  0  0  0
  184.6320  178.6330  146.2600 N   0  0  0  0  0  0  0  0  0  0  0  0
  189.1810  176.4220  138.5660 N   0  0  0  0  0  2  0  0  0  0  0  0
  187.7730  179.1480  136.5960 N   0  0  0  0  0  0  0  0  0  0  0  0
  188.5320  178.7100  137.5540 C   0  0  0  0  0  3  0  0  0  0  0  0
  186.4450  178.0310  134.9900 O   0  0  0  0  0  0  0  0  0  0  0  0
  187.2360  177.9920  135.9690 C   0  0  0  0  0  0  0  0  0  0  0  0
  188.5310  177.2380  137.5860 C   0  0  0  0  0  0  0  0  0  0  0  0
  187.7250  176.7980  136.6270 C   0  0  0  0  0  0  0  0  0  0  0  0
  188.1330  174.7440  135.4290 O   0  0  0  0  0  1  0  0  0  0  0  0
  186.2480  174.7650  136.9310 C   0  0  0  0  0  1  0  0  0  0  0  0
  187.3780  175.4390  136.3110 N   0  0  0  0  0  0  0  0  0  0  0  0
  1 16  1  0  0  0  0
  2 17  1  0  0  0  0
  2  1  2  0  0  0  0
  4 18  1  0  0  0  0
  5 19  1  0  0  0  0
  6  3  2  0  0  0  0
  6 12  1  0  0  0  0
  7  8  2  0  0  0  0
  8  1  1  0  0  0  0
  9 11  2  0  0  0  0
 10 14  2  0  0  0  0
 10  9  1  0  0  0  0
 11  3  1  0  0  0  0
 12  7  1  1  0  0  0
 13  2  1  0  0  0  0
 14 15  1  0  0  0  0
 15  4  1  0  0  0  0
 15  6  1  0  0  0  0
 16 19  2  0  0  0  0
 17  5  2  0  0  0  0
 18 13  2  0  0  0  0
 18 12  1  0  0  0  0
 20 14  1  0  0  0  0
 21 22  2  0  0  0  0
 22 25  1  0  0  0  0
 23 24  2  0  0  0  0
 24 21  1  0  0  0  0
 24 26  1  0  0  0  0
 25 20  1  0  0  0  0
 26 25  2  0  0  0  0
 27 29  1  0  0  0  0
 29 26  1  0  0  0  0
 29 28  1  0  0  0  0
M  END
>  <MODEL>
9

>  <REMARK>
 VINA RESULT:      -7.8      3.239      6.247
  Name = 
  3 active torsions:
  status: ('A' for Active; 'I' for Inactive)
    1  A    between atoms: N_8  and  C_29
    2  A    between atoms: N_13  and  C_22
    3  A    between atoms: N_13  and  C_23
                            x       y       z     vdW  Elec       q    Type
                         _______ _______ _______ _____ _____    ______ ____

>  <TORSDO>
F 3

$$$$
