=
 OpenBabel10232408503D

 25 28  0  0  1  0  0  0  0  0999 V2000
  190.6620  176.3940  143.2060 C   0  0  2  0  0  3  0  0  0  0  0  0
  190.2000  176.9730  146.1280 C   0  0  0  0  0  2  0  0  0  0  0  0
  191.6030  176.7850  145.5410 C   0  0  0  0  0  2  0  0  0  0  0  0
  189.6180  177.4310  143.6710 C   0  0  1  0  0  3  0  0  0  0  0  0
  189.0920  177.0520  145.0640 C   0  0  2  0  0  3  0  0  0  0  0  0
  190.1550  178.8630  143.6520 C   0  0  0  0  0  1  0  0  0  0  0  0
  191.5790  175.8640  144.3240 C   0  0  0  0  0  2  0  0  0  0  0  0
  188.0660  177.9420  145.4910 O   0  0  0  0  0  0  0  0  0  0  0  0
  183.2310  178.5780  142.9150 N   0  0  0  0  0  0  0  0  0  0  0  0
  185.5940  178.8880  146.9680 C   0  0  0  0  0  1  0  0  0  0  0  0
  184.4590  178.3840  143.4160 C   0  0  0  0  0  0  0  0  0  0  0  0
  185.6000  177.9960  142.7240 C   0  0  0  0  0  3  0  0  0  0  0  0
  181.1480  179.2780  143.9640 N   0  0  0  0  0  1  0  0  0  0  0  0
  184.4740  178.6410  144.7540 C   0  0  0  0  0  0  0  0  0  0  0  0
  186.7880  177.8630  143.4600 C   0  0  0  0  0  3  0  0  0  0  0  0
  183.2510  179.0140  145.1640 N   0  0  0  0  0  2  0  0  0  0  0  0
  186.8280  178.1110  144.8510 C   0  0  0  0  0  0  0  0  0  0  0  0
  182.5330  178.9580  144.0140 C   0  0  0  0  0  0  0  0  0  0  0  0
  185.6370  178.5250  145.5210 C   0  0  0  0  0  0  0  0  0  0  0  0
  191.4450  176.8810  142.0790 N   0  0  0  0  0  2  0  0  0  0  0  0
  190.4270  177.7930  140.0710 C   0  0  0  0  0  2  0  0  0  0  0  0
  191.5050  176.8480  139.5880 C   0  0  2  0  0  3  0  0  0  0  0  0
  190.7170  176.5340  140.8650 C   0  0  1  0  0  3  0  0  0  0  0  0
  192.8730  177.4760  139.8240 C   0  0  0  0  0  2  0  0  0  0  0  0
  193.8490  176.7320  139.1630 O   0  0  0  0  0  1  0  0  0  0  0  0
  1 20  1  6  0  0  0
  1  4  1  0  0  0  0
  1  7  1  0  0  0  0
  3  2  1  0  0  0  0
  4  6  1  1  0  0  0
  4  5  1  0  0  0  0
  5  8  1  1  0  0  0
  5  2  1  0  0  0  0
  7  3  1  0  0  0  0
  9 11  1  0  0  0  0
  9 18  2  0  0  0  0
 11 14  1  0  0  0  0
 12 11  2  0  0  0  0
 12 15  1  0  0  0  0
 13 18  1  0  0  0  0
 14 16  1  0  0  0  0
 14 19  2  0  0  0  0
 15 17  2  0  0  0  0
 17  8  1  0  0  0  0
 17 19  1  0  0  0  0
 18 16  1  0  0  0  0
 19 10  1  0  0  0  0
 21 23  1  0  0  0  0
 22 24  1  1  0  0  0
 22 21  1  0  0  0  0
 22 23  1  0  0  0  0
 23 20  1  1  0  0  0
 25 24  1  0  0  0  0
M  END
>  <MODEL>
1

>  <REMARK>
 VINA RESULT:      -8.0      0.000      0.000
  Name = 
  5 active torsions:
  status: ('A' for Active; 'I' for Inactive)
    1  A    between atoms: C_1  and  N_19
    2  A    between atoms: C_6  and  C_8
    3  A    between atoms: C_9  and  O_17
    4  A    between atoms: O_17  and  C_20
    5  A    between atoms: N_19  and  C_23
                            x       y       z     vdW  Elec       q    Type
                         _______ _______ _______ _____ _____    ______ ____

>  <TORSDO>
F 5

$$$$
=
 OpenBabel10232408503D

 25 28  0  0  1  0  0  0  0  0999 V2000
  183.5240  178.0750  142.0440 C   0  0  2  0  0  3  0  0  0  0  0  0
  186.4550  178.7540  142.2430 C   0  0  0  0  0  2  0  0  0  0  0  0
  185.5530  179.3280  141.1450 C   0  0  0  0  0  2  0  0  0  0  0  0
  184.1990  178.3640  143.4010 C   0  0  1  0  0  3  0  0  0  0  0  0
  185.6870  177.9890  143.3350 C   0  0  2  0  0  3  0  0  0  0  0  0
  184.0120  179.8110  143.8600 C   0  0  0  0  0  1  0  0  0  0  0  0
  184.4030  178.3790  140.8170 C   0  0  0  0  0  2  0  0  0  0  0  0
  186.3240  178.1650  144.5950 O   0  0  0  0  0  0  0  0  0  0  0  0
  191.4540  176.4980  145.7490 N   0  0  0  0  0  0  0  0  0  0  0  0
  187.3300  177.9860  147.4500 C   0  0  0  0  0  1  0  0  0  0  0  0
  190.2390  176.8830  145.3320 C   0  0  0  0  0  0  0  0  0  0  0  0
  189.7680  176.9180  144.0250 C   0  0  0  0  0  3  0  0  0  0  0  0
  192.4270  176.3480  147.9750 N   0  0  0  0  0  1  0  0  0  0  0  0
  189.4630  177.2420  146.3930 C   0  0  0  0  0  0  0  0  0  0  0  0
  188.4470  177.3520  143.8250 C   0  0  0  0  0  3  0  0  0  0  0  0
  190.1520  177.0970  147.5360 N   0  0  0  0  0  2  0  0  0  0  0  0
  187.6260  177.7410  144.9080 C   0  0  0  0  0  0  0  0  0  0  0  0
  191.3530  176.6470  147.0930 C   0  0  0  0  0  0  0  0  0  0  0  0
  188.1430  177.6740  146.2360 C   0  0  0  0  0  0  0  0  0  0  0  0
  182.2290  178.7310  141.9320 N   0  0  0  0  0  2  0  0  0  0  0  0
  180.0380  177.7860  141.4780 C   0  0  0  0  0  2  0  0  0  0  0  0
  180.2840  178.7940  140.3760 C   0  0  2  0  0  3  0  0  0  0  0  0
  181.4480  177.9820  140.9560 C   0  0  1  0  0  3  0  0  0  0  0  0
  180.1500  180.2040  140.9380 C   0  0  0  0  0  2  0  0  0  0  0  0
  180.2330  181.1300  139.8990 O   0  0  0  0  0  1  0  0  0  0  0  0
  1 20  1  6  0  0  0
  1  4  1  0  0  0  0
  2  5  1  0  0  0  0
  3  2  1  0  0  0  0
  4  6  1  6  0  0  0
  5  4  1  0  0  0  0
  5  8  1  1  0  0  0
  7  3  1  0  0  0  0
  7  1  1  0  0  0  0
  8 17  1  0  0  0  0
  9 18  2  0  0  0  0
 11  9  1  0  0  0  0
 11 14  1  0  0  0  0
 12 11  2  0  0  0  0
 14 16  1  0  0  0  0
 15 12  1  0  0  0  0
 15 17  2  0  0  0  0
 17 19  1  0  0  0  0
 18 16  1  0  0  0  0
 18 13  1  0  0  0  0
 19 14  2  0  0  0  0
 19 10  1  0  0  0  0
 22 24  1  1  0  0  0
 22 23  1  0  0  0  0
 22 21  1  0  0  0  0
 23 21  1  0  0  0  0
 23 20  1  1  0  0  0
 25 24  1  0  0  0  0
M  END
>  <MODEL>
2

>  <REMARK>
 VINA RESULT:      -7.7      3.347      7.967
  Name = 
  5 active torsions:
  status: ('A' for Active; 'I' for Inactive)
    1  A    between atoms: C_1  and  N_19
    2  A    between atoms: C_6  and  C_8
    3  A    between atoms: C_9  and  O_17
    4  A    between atoms: O_17  and  C_20
    5  A    between atoms: N_19  and  C_23
                            x       y       z     vdW  Elec       q    Type
                         _______ _______ _______ _____ _____    ______ ____

>  <TORSDO>
F 5

$$$$
=
 OpenBabel10232408503D

 25 28  0  0  1  0  0  0  0  0999 V2000
  189.8380  178.0020  144.0540 C   0  0  2  0  0  3  0  0  0  0  0  0
  189.2460  177.9330  141.0990 C   0  0  0  0  0  2  0  0  0  0  0  0
  190.5730  177.4350  141.6820 C   0  0  0  0  0  2  0  0  0  0  0  0
  188.4570  177.5730  143.5140 C   0  0  1  0  0  3  0  0  0  0  0  0
  188.1880  178.2600  142.1660 C   0  0  2  0  0  3  0  0  0  0  0  0
  188.3100  176.0550  143.4010 C   0  0  0  0  0  1  0  0  0  0  0  0
  190.9230  178.1660  142.9750 C   0  0  0  0  0  2  0  0  0  0  0  0
  186.8880  177.9520  141.6770 O   0  0  0  0  0  0  0  0  0  0  0  0
  182.2050  179.0910  144.3590 N   0  0  0  0  0  0  0  0  0  0  0  0
  184.2440  178.2050  140.2150 C   0  0  0  0  0  1  0  0  0  0  0  0
  183.4080  178.8180  143.8330 C   0  0  0  0  0  0  0  0  0  0  0  0
  184.6080  178.6560  144.5140 C   0  0  0  0  0  3  0  0  0  0  0  0
  180.0170  179.3770  143.3300 N   0  0  0  0  0  1  0  0  0  0  0  0
  183.3180  178.6920  142.4800 C   0  0  0  0  0  0  0  0  0  0  0  0
  185.7490  178.3630  143.7500 C   0  0  0  0  0  3  0  0  0  0  0  0
  182.0480  178.8770  142.0840 N   0  0  0  0  0  2  0  0  0  0  0  0
  185.6860  178.2390  142.3430 C   0  0  0  0  0  0  0  0  0  0  0  0
  181.4130  179.1180  143.2580 C   0  0  0  0  0  0  0  0  0  0  0  0
  184.4290  178.3960  141.6850 C   0  0  0  0  0  0  0  0  0  0  0  0
  190.2960  177.1270  145.1250 N   0  0  0  0  0  2  0  0  0  0  0  0
  189.1870  176.6840  147.2390 C   0  0  0  0  0  2  0  0  0  0  0  0
  190.5900  177.1240  147.5990 C   0  0  2  0  0  3  0  0  0  0  0  0
  189.8770  177.7290  146.3840 C   0  0  1  0  0  3  0  0  0  0  0  0
  191.5720  176.0070  147.2680 C   0  0  0  0  0  2  0  0  0  0  0  0
  192.6970  176.1190  148.0840 O   0  0  0  0  0  1  0  0  0  0  0  0
  1 20  1  1  0  0  0
  2  3  1  0  0  0  0
  2  5  1  0  0  0  0
  3  7  1  0  0  0  0
  4  6  1  6  0  0  0
  4  1  1  0  0  0  0
  5  8  1  6  0  0  0
  5  4  1  0  0  0  0
  7  1  1  0  0  0  0
  8 17  1  0  0  0  0
 10 19  1  0  0  0  0
 11  9  1  0  0  0  0
 11 12  1  0  0  0  0
 14 11  2  0  0  0  0
 15 12  2  0  0  0  0
 16 14  1  0  0  0  0
 16 18  1  0  0  0  0
 17 15  1  0  0  0  0
 18 13  1  0  0  0  0
 18  9  2  0  0  0  0
 19 17  2  0  0  0  0
 19 14  1  0  0  0  0
 21 22  1  0  0  0  0
 22 24  1  6  0  0  0
 23 20  1  6  0  0  0
 23 21  1  0  0  0  0
 23 22  1  0  0  0  0
 24 25  1  0  0  0  0
M  END
>  <MODEL>
3

>  <REMARK>
 VINA RESULT:      -7.6      2.374      4.477
  Name = 
  5 active torsions:
  status: ('A' for Active; 'I' for Inactive)
    1  A    between atoms: C_1  and  N_19
    2  A    between atoms: C_6  and  C_8
    3  A    between atoms: C_9  and  O_17
    4  A    between atoms: O_17  and  C_20
    5  A    between atoms: N_19  and  C_23
                            x       y       z     vdW  Elec       q    Type
                         _______ _______ _______ _____ _____    ______ ____

>  <TORSDO>
F 5

$$$$
=
 OpenBabel10232408503D

 25 28  0  0  1  0  0  0  0  0999 V2000
  189.0100  176.2560  138.2160 C   0  0  2  0  0  3  0  0  0  0  0  0
  191.1370  177.1880  140.1390 C   0  0  0  0  0  2  0  0  0  0  0  0
  191.4500  176.8200  138.6840 C   0  0  0  0  0  2  0  0  0  0  0  0
  188.7610  177.4210  139.1970 C   0  0  1  0  0  3  0  0  0  0  0  0
  189.6320  177.2420  140.4510 C   0  0  2  0  0  3  0  0  0  0  0  0
  188.9850  178.7920  138.5580 C   0  0  0  0  0  1  0  0  0  0  0  0
  190.4710  175.7770  138.1500 C   0  0  0  0  0  2  0  0  0  0  0  0
  189.3680  178.2560  141.4150 O   0  0  0  0  0  0  0  0  0  0  0  0
  187.0570  177.3850  146.3470 N   0  0  0  0  0  0  0  0  0  0  0  0
  191.0010  178.3310  143.9680 C   0  0  0  0  0  1  0  0  0  0  0  0
  187.4900  177.5790  145.0920 C   0  0  0  0  0  0  0  0  0  0  0  0
  186.7280  177.5900  143.9310 C   0  0  0  0  0  3  0  0  0  0  0  0
  188.2340  177.3610  148.4780 N   0  0  0  0  0  1  0  0  0  0  0  0
  188.8350  177.7940  145.0800 C   0  0  0  0  0  0  0  0  0  0  0  0
  187.4000  177.8240  142.7200 C   0  0  0  0  0  3  0  0  0  0  0  0
  189.3190  177.7490  146.3320 N   0  0  0  0  0  2  0  0  0  0  0  0
  188.7970  178.0380  142.6790 C   0  0  0  0  0  0  0  0  0  0  0  0
  188.2030  177.4960  147.0630 C   0  0  0  0  0  0  0  0  0  0  0  0
  189.5390  178.0360  143.8980 C   0  0  0  0  0  0  0  0  0  0  0  0
  188.4980  176.5500  136.8850 N   0  0  0  0  0  2  0  0  0  0  0  0
  186.1450  177.1200  136.6870 C   0  0  0  0  0  2  0  0  0  0  0  0
  186.4660  176.2850  135.4670 C   0  0  2  0  0  3  0  0  0  0  0  0
  187.1540  175.9930  136.8060 C   0  0  1  0  0  3  0  0  0  0  0  0
  187.2980  177.1090  134.4920 C   0  0  0  0  0  2  0  0  0  0  0  0
  186.7300  178.3750  134.3490 O   0  0  0  0  0  1  0  0  0  0  0  0
  1 20  1  6  0  0  0
  1  4  1  0  0  0  0
  2  5  1  0  0  0  0
  3  2  1  0  0  0  0
  4  6  1  6  0  0  0
  4  5  1  0  0  0  0
  5  8  1  1  0  0  0
  7  1  1  0  0  0  0
  7  3  1  0  0  0  0
  8 17  1  0  0  0  0
  9 18  2  0  0  0  0
 11  9  1  0  0  0  0
 12 11  2  0  0  0  0
 14 11  1  0  0  0  0
 14 16  1  0  0  0  0
 15 12  1  0  0  0  0
 16 18  1  0  0  0  0
 17 15  2  0  0  0  0
 17 19  1  0  0  0  0
 18 13  1  0  0  0  0
 19 10  1  0  0  0  0
 19 14  2  0  0  0  0
 21 23  1  0  0  0  0
 22 24  1  6  0  0  0
 22 21  1  0  0  0  0
 22 23  1  0  0  0  0
 23 20  1  6  0  0  0
 25 24  1  0  0  0  0
M  END
>  <MODEL>
4

>  <REMARK>
 VINA RESULT:      -7.5      3.905      5.658
  Name = 
  5 active torsions:
  status: ('A' for Active; 'I' for Inactive)
    1  A    between atoms: C_1  and  N_19
    2  A    between atoms: C_6  and  C_8
    3  A    between atoms: C_9  and  O_17
    4  A    between atoms: O_17  and  C_20
    5  A    between atoms: N_19  and  C_23
                            x       y       z     vdW  Elec       q    Type
                         _______ _______ _______ _____ _____    ______ ____

>  <TORSDO>
F 5

$$$$
=
 OpenBabel10232408503D

 25 28  0  0  1  0  0  0  0  0999 V2000
  181.5500  179.3750  139.3060 C   0  0  2  0  0  3  0  0  0  0  0  0
  182.9100  176.8190  140.1490 C   0  0  0  0  0  2  0  0  0  0  0  0
  182.0930  176.9260  138.8560 C   0  0  0  0  0  2  0  0  0  0  0  0
  182.9740  179.3720  139.9020 C   0  0  1  0  0  3  0  0  0  0  0  0
  183.1430  178.1710  140.8450 C   0  0  2  0  0  3  0  0  0  0  0  0
  184.0650  179.3940  138.8310 C   0  0  0  0  0  1  0  0  0  0  0  0
  180.9930  177.9770  138.9780 C   0  0  0  0  0  2  0  0  0  0  0  0
  184.4180  178.1830  141.4760 O   0  0  0  0  0  0  0  0  0  0  0  0
  185.1910  178.8030  146.9020 N   0  0  0  0  0  0  0  0  0  0  0  0
  187.1080  177.6440  142.7680 C   0  0  0  0  0  1  0  0  0  0  0  0
  184.8700  178.6930  145.6050 C   0  0  0  0  0  0  0  0  0  0  0  0
  183.6490  178.9870  145.0120 C   0  0  0  0  0  3  0  0  0  0  0  0
  187.2670  178.3630  148.0970 N   0  0  0  0  0  1  0  0  0  0  0  0
  185.9390  178.2530  144.8850 C   0  0  0  0  0  0  0  0  0  0  0  0
  183.5430  178.8040  143.6240 C   0  0  0  0  0  3  0  0  0  0  0  0
  186.9930  178.0650  145.6950 N   0  0  0  0  0  2  0  0  0  0  0  0
  184.6340  178.3370  142.8550 C   0  0  0  0  0  0  0  0  0  0  0  0
  186.4890  178.4090  146.9080 C   0  0  0  0  0  0  0  0  0  0  0  0
  185.8770  178.0630  143.5020 C   0  0  0  0  0  0  0  0  0  0  0  0
  181.4470  180.2600  138.1540 N   0  0  0  0  0  2  0  0  0  0  0  0
  181.5510  182.6800  137.9760 C   0  0  0  0  0  2  0  0  0  0  0  0
  180.1710  182.2940  137.4880 C   0  0  2  0  0  3  0  0  0  0  0  0
  180.8420  181.5020  138.6170 C   0  0  1  0  0  3  0  0  0  0  0  0
  180.2810  181.6530  136.1100 C   0  0  0  0  0  2  0  0  0  0  0  0
  180.8090  182.5760  135.2080 O   0  0  0  0  0  1  0  0  0  0  0  0
  1 20  1  6  0  0  0
  1  4  1  0  0  0  0
  2  5  1  0  0  0  0
  3  7  1  0  0  0  0
  3  2  1  0  0  0  0
  4  6  1  6  0  0  0
  4  5  1  0  0  0  0
  5  8  1  6  0  0  0
  7  1  1  0  0  0  0
  8 17  1  0  0  0  0
  9 18  2  0  0  0  0
 10 19  1  0  0  0  0
 11  9  1  0  0  0  0
 12 11  1  0  0  0  0
 14 11  2  0  0  0  0
 14 16  1  0  0  0  0
 15 12  2  0  0  0  0
 16 18  1  0  0  0  0
 17 19  2  0  0  0  0
 17 15  1  0  0  0  0
 18 13  1  0  0  0  0
 19 14  1  0  0  0  0
 21 23  1  0  0  0  0
 22 24  1  6  0  0  0
 22 21  1  0  0  0  0
 22 23  1  0  0  0  0
 23 20  1  6  0  0  0
 25 24  1  0  0  0  0
M  END
>  <MODEL>
5

>  <REMARK>
 VINA RESULT:      -7.4      5.114      8.472
  Name = 
  5 active torsions:
  status: ('A' for Active; 'I' for Inactive)
    1  A    between atoms: C_1  and  N_19
    2  A    between atoms: C_6  and  C_8
    3  A    between atoms: C_9  and  O_17
    4  A    between atoms: O_17  and  C_20
    5  A    between atoms: N_19  and  C_23
                            x       y       z     vdW  Elec       q    Type
                         _______ _______ _______ _____ _____    ______ ____

>  <TORSDO>
F 5

$$$$
=
 OpenBabel10232408503D

 25 28  0  0  1  0  0  0  0  0999 V2000
  188.9610  177.9250  144.3420 C   0  0  2  0  0  3  0  0  0  0  0  0
  191.7680  177.4950  143.3310 C   0  0  0  0  0  2  0  0  0  0  0  0
  191.3870  177.2990  144.8030 C   0  0  0  0  0  2  0  0  0  0  0  0
  189.2400  177.2060  143.0050 C   0  0  1  0  0  3  0  0  0  0  0  0
  190.5600  177.7150  142.4050 C   0  0  2  0  0  3  0  0  0  0  0  0
  189.2420  175.6830  143.1390 C   0  0  0  0  0  1  0  0  0  0  0  0
  190.2130  178.1900  145.1980 C   0  0  0  0  0  2  0  0  0  0  0  0
  190.8090  177.1340  141.1300 O   0  0  0  0  0  0  0  0  0  0  0  0
  187.7820  178.1150  136.6250 N   0  0  0  0  0  0  0  0  0  0  0  0
  191.7280  176.2530  138.3790 C   0  0  0  0  0  1  0  0  0  0  0  0
  188.4150  177.9400  137.7940 C   0  0  0  0  0  0  0  0  0  0  0  0
  187.9670  178.3040  139.0580 C   0  0  0  0  0  3  0  0  0  0  0  0
  188.4000  177.5210  134.3460 N   0  0  0  0  0  1  0  0  0  0  0  0
  189.6090  177.3140  137.6000 C   0  0  0  0  0  0  0  0  0  0  0  0
  188.8010  178.0110  140.1490 C   0  0  0  0  0  3  0  0  0  0  0  0
  189.7880  177.0600  136.2930 N   0  0  0  0  0  2  0  0  0  0  0  0
  190.0510  177.3740  139.9730 C   0  0  0  0  0  0  0  0  0  0  0  0
  188.6550  177.5670  135.7440 C   0  0  0  0  0  0  0  0  0  0  0  0
  190.4660  177.0010  138.6590 C   0  0  0  0  0  0  0  0  0  0  0  0
  187.9340  177.2440  145.1190 N   0  0  0  0  0  2  0  0  0  0  0  0
  185.8330  177.5830  146.2890 C   0  0  0  0  0  2  0  0  0  0  0  0
  186.8620  178.3830  147.0580 C   0  0  2  0  0  3  0  0  0  0  0  0
  186.9670  178.2510  145.5350 C   0  0  1  0  0  3  0  0  0  0  0  0
  187.7600  177.4320  147.8410 C   0  0  0  0  0  2  0  0  0  0  0  0
  188.3870  178.1280  148.8740 O   0  0  0  0  0  1  0  0  0  0  0  0
  1 20  1  1  0  0  0
  1  7  1  0  0  0  0
  2  3  1  0  0  0  0
  3  7  1  0  0  0  0
  4  6  1  1  0  0  0
  4  1  1  0  0  0  0
  5  8  1  6  0  0  0
  5  4  1  0  0  0  0
  5  2  1  0  0  0  0
  9 11  1  0  0  0  0
 10 19  1  0  0  0  0
 11 12  1  0  0  0  0
 12 15  2  0  0  0  0
 13 18  1  0  0  0  0
 14 11  2  0  0  0  0
 14 19  1  0  0  0  0
 16 14  1  0  0  0  0
 17 15  1  0  0  0  0
 17  8  1  0  0  0  0
 18 16  1  0  0  0  0
 18  9  2  0  0  0  0
 19 17  2  0  0  0  0
 21 22  1  0  0  0  0
 22 24  1  1  0  0  0
 23 20  1  1  0  0  0
 23 21  1  0  0  0  0
 23 22  1  0  0  0  0
 24 25  1  0  0  0  0
M  END
>  <MODEL>
6

>  <REMARK>
 VINA RESULT:      -7.3      3.305      7.266
  Name = 
  5 active torsions:
  status: ('A' for Active; 'I' for Inactive)
    1  A    between atoms: C_1  and  N_19
    2  A    between atoms: C_6  and  C_8
    3  A    between atoms: C_9  and  O_17
    4  A    between atoms: O_17  and  C_20
    5  A    between atoms: N_19  and  C_23
                            x       y       z     vdW  Elec       q    Type
                         _______ _______ _______ _____ _____    ______ ____

>  <TORSDO>
F 5

$$$$
=
 OpenBabel10232408503D

 25 28  0  0  1  0  0  0  0  0999 V2000
  189.6070  177.6450  144.9600 C   0  0  2  0  0  3  0  0  0  0  0  0
  191.6190  176.7110  142.9190 C   0  0  0  0  0  2  0  0  0  0  0  0
  191.4990  176.0690  144.3060 C   0  0  0  0  0  2  0  0  0  0  0  0
  189.2410  177.5010  143.4680 C   0  0  1  0  0  3  0  0  0  0  0  0
  190.4920  177.7090  142.6010 C   0  0  2  0  0  3  0  0  0  0  0  0
  188.5610  176.1690  143.1490 C   0  0  0  0  0  1  0  0  0  0  0  0
  190.9830  177.0670  145.3390 C   0  0  0  0  0  2  0  0  0  0  0  0
  190.1770  177.6650  141.2140 O   0  0  0  0  0  0  0  0  0  0  0  0
  193.7660  176.3190  137.2490 N   0  0  0  0  0  0  0  0  0  0  0  0
  189.2500  176.6200  138.5240 C   0  0  0  0  0  1  0  0  0  0  0  0
  193.0050  176.6820  138.2920 C   0  0  0  0  0  0  0  0  0  0  0  0
  193.4340  177.2050  139.5060 C   0  0  0  0  0  3  0  0  0  0  0  0
  193.1880  175.4210  135.0610 N   0  0  0  0  0  1  0  0  0  0  0  0
  191.6870  176.4870  138.0100 C   0  0  0  0  0  0  0  0  0  0  0  0
  192.4500  177.5230  140.4560 C   0  0  0  0  0  3  0  0  0  0  0  0
  191.5500  175.9920  136.7700 N   0  0  0  0  0  2  0  0  0  0  0  0
  191.0760  177.3190  140.1930 C   0  0  0  0  0  0  0  0  0  0  0  0
  192.8380  175.9060  136.3510 C   0  0  0  0  0  0  0  0  0  0  0  0
  190.6770  176.7960  138.9260 C   0  0  0  0  0  0  0  0  0  0  0  0
  188.5640  177.1140  145.8270 N   0  0  0  0  0  2  0  0  0  0  0  0
  186.2480  177.4930  146.4550 C   0  0  0  0  0  2  0  0  0  0  0  0
  187.0660  178.4000  147.3480 C   0  0  2  0  0  3  0  0  0  0  0  0
  187.5150  178.1230  145.9090 C   0  0  1  0  0  3  0  0  0  0  0  0
  187.7750  177.5650  148.4070 C   0  0  0  0  0  2  0  0  0  0  0  0
  188.8240  178.3010  148.9570 O   0  0  0  0  0  1  0  0  0  0  0  0
  1  7  1  0  0  0  0
  1 20  1  1  0  0  0
  2  3  1  0  0  0  0
  3  7  1  0  0  0  0
  4  6  1  1  0  0  0
  4  1  1  0  0  0  0
  5  8  1  6  0  0  0
  5  2  1  0  0  0  0
  5  4  1  0  0  0  0
  9 11  1  0  0  0  0
 10 19  1  0  0  0  0
 11 12  1  0  0  0  0
 12 15  2  0  0  0  0
 13 18  1  0  0  0  0
 14 11  2  0  0  0  0
 14 19  1  0  0  0  0
 16 14  1  0  0  0  0
 17 15  1  0  0  0  0
 17  8  1  0  0  0  0
 18 16  1  0  0  0  0
 18  9  2  0  0  0  0
 19 17  2  0  0  0  0
 21 22  1  0  0  0  0
 22 24  1  1  0  0  0
 23 20  1  1  0  0  0
 23 21  1  0  0  0  0
 23 22  1  0  0  0  0
 24 25  1  0  0  0  0
M  END
>  <MODEL>
7

>  <REMARK>
 VINA RESULT:      -7.2      3.255      8.292
  Name = 
  5 active torsions:
  status: ('A' for Active; 'I' for Inactive)
    1  A    between atoms: C_1  and  N_19
    2  A    between atoms: C_6  and  C_8
    3  A    between atoms: C_9  and  O_17
    4  A    between atoms: O_17  and  C_20
    5  A    between atoms: N_19  and  C_23
                            x       y       z     vdW  Elec       q    Type
                         _______ _______ _______ _____ _____    ______ ____

>  <TORSDO>
F 5

$$$$
=
 OpenBabel10232408503D

 25 28  0  0  1  0  0  0  0  0999 V2000
  189.2330  177.5140  143.8630 C   0  0  2  0  0  3  0  0  0  0  0  0
  191.6140  177.8950  142.0530 C   0  0  0  0  0  2  0  0  0  0  0  0
  191.6790  178.1590  143.5620 C   0  0  0  0  0  2  0  0  0  0  0  0
  189.5690  176.5060  142.7430 C   0  0  1  0  0  3  0  0  0  0  0  0
  190.3060  177.2230  141.6010 C   0  0  2  0  0  3  0  0  0  0  0  0
  190.3660  175.3030  143.2470 C   0  0  0  0  0  1  0  0  0  0  0  0
  190.3190  178.5760  144.1130 C   0  0  0  0  0  2  0  0  0  0  0  0
  190.5600  176.3410  140.5130 O   0  0  0  0  0  0  0  0  0  0  0  0
  188.9260  177.0970  135.2990 N   0  0  0  0  0  0  0  0  0  0  0  0
  188.0890  177.9660  139.8440 C   0  0  0  0  0  1  0  0  0  0  0  0
  189.4310  176.8390  136.5140 C   0  0  0  0  0  0  0  0  0  0  0  0
  190.5900  176.1330  136.8120 C   0  0  0  0  0  3  0  0  0  0  0  0
  186.9440  178.3270  134.6000 N   0  0  0  0  0  1  0  0  0  0  0  0
  188.6480  177.3900  137.4830 C   0  0  0  0  0  0  0  0  0  0  0  0
  190.9320  175.9940  138.1670 C   0  0  0  0  0  3  0  0  0  0  0  0
  187.6070  178.0290  136.9240 N   0  0  0  0  0  2  0  0  0  0  0  0
  190.1300  176.5450  139.1920 C   0  0  0  0  0  0  0  0  0  0  0  0
  187.8190  177.8200  135.6000 C   0  0  0  0  0  0  0  0  0  0  0  0
  188.9560  177.2780  138.8420 C   0  0  0  0  0  0  0  0  0  0  0  0
  188.8650  176.8430  145.1020 N   0  0  0  0  0  2  0  0  0  0  0  0
  188.1810  177.2420  147.3980 C   0  0  0  0  0  2  0  0  0  0  0  0
  189.6240  177.6940  147.3170 C   0  0  2  0  0  3  0  0  0  0  0  0
  188.6890  177.8740  146.1160 C   0  0  1  0  0  3  0  0  0  0  0  0
  190.5330  176.4740  147.2370 C   0  0  0  0  0  2  0  0  0  0  0  0
  191.8540  176.8880  147.0660 O   0  0  0  0  0  1  0  0  0  0  0  0
  1  7  1  0  0  0  0
  1 20  1  1  0  0  0
  2  3  1  0  0  0  0
  3  7  1  0  0  0  0
  4  6  1  1  0  0  0
  4  1  1  0  0  0  0
  5  8  1  6  0  0  0
  5  2  1  0  0  0  0
  5  4  1  0  0  0  0
  9 18  2  0  0  0  0
  9 11  1  0  0  0  0
 11 12  2  0  0  0  0
 11 14  1  0  0  0  0
 12 15  1  0  0  0  0
 13 18  1  0  0  0  0
 14 19  2  0  0  0  0
 15 17  2  0  0  0  0
 16 14  1  0  0  0  0
 17  8  1  0  0  0  0
 18 16  1  0  0  0  0
 19 17  1  0  0  0  0
 19 10  1  0  0  0  0
 22 24  1  6  0  0  0
 22 21  1  0  0  0  0
 23 20  1  6  0  0  0
 23 22  1  0  0  0  0
 23 21  1  0  0  0  0
 25 24  1  0  0  0  0
M  END
>  <MODEL>
8

>  <REMARK>
 VINA RESULT:      -7.2      3.724      6.990
  Name = 
  5 active torsions:
  status: ('A' for Active; 'I' for Inactive)
    1  A    between atoms: C_1  and  N_19
    2  A    between atoms: C_6  and  C_8
    3  A    between atoms: C_9  and  O_17
    4  A    between atoms: O_17  and  C_20
    5  A    between atoms: N_19  and  C_23
                            x       y       z     vdW  Elec       q    Type
                         _______ _______ _______ _____ _____    ______ ____

>  <TORSDO>
F 5

$$$$
=
 OpenBabel10232408503D

 25 28  0  0  1  0  0  0  0  0999 V2000
  183.1660  177.0030  139.4060 C   0  0  2  0  0  3  0  0  0  0  0  0
  184.9150  179.2110  140.4790 C   0  0  0  0  0  2  0  0  0  0  0  0
  184.2400  179.2930  139.1050 C   0  0  0  0  0  2  0  0  0  0  0  0
  183.0870  177.4560  140.8790 C   0  0  1  0  0  3  0  0  0  0  0  0
  184.4460  178.0160  141.3260 C   0  0  2  0  0  3  0  0  0  0  0  0
  181.9630  178.4610  141.1310 C   0  0  0  0  0  1  0  0  0  0  0  0
  184.0280  177.9060  138.5050 C   0  0  0  0  0  2  0  0  0  0  0  0
  184.4340  178.3680  142.7050 O   0  0  0  0  0  0  0  0  0  0  0  0
  188.6400  177.5100  146.1680 N   0  0  0  0  0  0  0  0  0  0  0  0
  184.1420  178.7930  145.6920 C   0  0  0  0  0  1  0  0  0  0  0  0
  187.7050  177.6790  145.2220 C   0  0  0  0  0  0  0  0  0  0  0  0
  187.8310  177.4370  143.8600 C   0  0  0  0  0  3  0  0  0  0  0  0
  188.5830  177.8540  148.5780 N   0  0  0  0  0  1  0  0  0  0  0  0
  186.5430  178.1240  145.7760 C   0  0  0  0  0  0  0  0  0  0  0  0
  186.7070  177.6790  143.0540 C   0  0  0  0  0  3  0  0  0  0  0  0
  186.6870  178.2560  147.1040 N   0  0  0  0  0  2  0  0  0  0  0  0
  185.4930  178.1530  143.6010 C   0  0  0  0  0  0  0  0  0  0  0  0
  187.9760  177.8740  147.2930 C   0  0  0  0  0  0  0  0  0  0  0  0
  185.4010  178.3720  145.0090 C   0  0  0  0  0  0  0  0  0  0  0  0
  181.8440  176.8020  138.8290 N   0  0  0  0  0  2  0  0  0  0  0  0
  179.9900  175.2340  138.7620 C   0  0  0  0  0  2  0  0  0  0  0  0
  181.0490  174.6540  137.8490 C   0  0  2  0  0  3  0  0  0  0  0  0
  181.4540  175.4270  139.1100 C   0  0  1  0  0  3  0  0  0  0  0  0
  181.1080  175.4640  136.5600 C   0  0  0  0  0  2  0  0  0  0  0  0
  182.1720  175.0190  135.7780 O   0  0  0  0  0  1  0  0  0  0  0  0
  1 20  1  6  0  0  0
  1  4  1  0  0  0  0
  2  5  1  0  0  0  0
  3  2  1  0  0  0  0
  4  6  1  6  0  0  0
  4  5  1  0  0  0  0
  5  8  1  1  0  0  0
  7  3  1  0  0  0  0
  7  1  1  0  0  0  0
  8 17  1  0  0  0  0
  9 18  2  0  0  0  0
 11 14  1  0  0  0  0
 11  9  1  0  0  0  0
 12 11  2  0  0  0  0
 14 16  1  0  0  0  0
 15 17  2  0  0  0  0
 15 12  1  0  0  0  0
 16 18  1  0  0  0  0
 17 19  1  0  0  0  0
 18 13  1  0  0  0  0
 19 10  1  0  0  0  0
 19 14  2  0  0  0  0
 21 23  1  0  0  0  0
 22 24  1  6  0  0  0
 22 21  1  0  0  0  0
 22 23  1  0  0  0  0
 23 20  1  6  0  0  0
 25 24  1  0  0  0  0
M  END
>  <MODEL>
9

>  <REMARK>
 VINA RESULT:      -7.1      4.747      7.634
  Name = 
  5 active torsions:
  status: ('A' for Active; 'I' for Inactive)
    1  A    between atoms: C_1  and  N_19
    2  A    between atoms: C_6  and  C_8
    3  A    between atoms: C_9  and  O_17
    4  A    between atoms: O_17  and  C_20
    5  A    between atoms: N_19  and  C_23
                            x       y       z     vdW  Elec       q    Type
                         _______ _______ _______ _____ _____    ______ ____

>  <TORSDO>
F 5

$$$$
