=
 OpenBabel10232408223D

 30 31  0  0  1  0  0  0  0  0999 V2000
  189.0700  178.1130  141.1530 C   0  0  2  0  0  3  0  0  0  0  0  0
  189.2870  177.9650  139.7190 N   0  0  0  0  0  0  0  0  0  0  0  0
  189.8040  176.9220  141.7790 C   0  0  1  0  0  3  0  0  0  0  0  0
  190.3690  176.2540  140.6640 O   0  0  0  0  0  0  0  0  0  0  0  0
  190.0080  176.9200  139.5120 C   0  0  0  0  0  0  0  0  0  0  0  0
  190.6470  175.0570  138.1380 N   0  0  0  0  0  1  0  0  0  0  0  0
  190.4340  176.4940  138.1530 C   0  0  0  0  0  2  0  0  0  0  0  0
  191.5320  176.3260  143.3580 O   0  0  0  0  0  1  0  0  0  0  0  0
  190.8920  177.4060  142.7450 C   0  0  2  0  0  3  0  0  0  0  0  0
  190.3490  178.3600  143.8050 C   0  0  2  0  0  3  0  0  0  0  0  0
  190.9160  179.6170  143.6820 F   0  0  0  0  0  0  0  0  0  0  0  0
  190.5800  177.8040  145.2030 C   0  0  0  0  0  2  0  0  0  0  0  0
  189.2640  177.6340  145.9500 C   0  0  0  0  0  2  0  0  0  0  0  0
  188.4350  177.3190  148.3130 N   0  0  0  0  0  1  0  0  0  0  0  0
  190.6530  176.9190  147.7510 O   0  0  0  0  0  0  0  0  0  0  0  0
  189.5060  177.2790  147.3780 C   0  0  0  0  0  0  0  0  0  0  0  0
  187.5890  178.0170  141.4680 C   0  0  0  0  0  2  0  0  0  0  0  0
  186.8210  178.7540  140.4690 N   0  0  0  0  0  2  0  0  0  0  0  0
  185.4810  179.0680  140.9770 C   0  0  1  0  0  3  0  0  0  0  0  0
  183.5570  178.1100  139.6750 O   0  0  0  0  0  1  0  0  0  0  0  0
  184.4540  179.1520  139.8810 C   0  0  0  0  0  0  0  0  0  0  0  0
  184.4500  180.1340  139.0930 O   0  0  0  0  0  0  0  0  0  0  0  0
  184.9760  177.9390  142.3270 S   0  0  0  0  0  0  0  0  0  0  0  0
  185.4580  178.5890  147.0790 C   0  0  0  0  0  1  0  0  0  0  0  0
  184.7860  179.2940  143.5260 C   0  0  2  0  0  3  0  0  0  0  0  0
  184.8820  178.8720  145.7400 C   0  0  0  0  0  0  0  0  0  0  0  0
  185.6230  179.0320  144.6890 N   0  0  0  0  0  0  0  0  0  0  0  0
  182.3560  179.4600  143.5070 O   0  0  0  0  0  0  0  0  0  0  0  0
  183.4830  178.9900  145.5190 N   0  0  0  0  0  2  0  0  0  0  0  0
  183.4300  179.2580  144.1310 C   0  0  0  0  0  0  0  0  0  0  0  0
  1 17  1  6  0  0  0
  1  3  1  0  0  0  0
  2  1  1  0  0  0  0
  3  9  1  1  0  0  0
  4  3  1  0  0  0  0
  5  2  2  0  0  0  0
  5  4  1  0  0  0  0
  6  7  1  0  0  0  0
  7  5  1  0  0  0  0
  9  8  1  1  0  0  0
  9 10  1  0  0  0  0
 10 11  1  1  0  0  0
 10 12  1  0  0  0  0
 12 13  1  0  0  0  0
 13 16  1  0  0  0  0
 16 15  2  0  0  0  0
 16 14  1  0  0  0  0
 18 19  1  0  0  0  0
 18 17  1  0  0  0  0
 19 21  1  6  0  0  0
 19 23  1  0  0  0  0
 20 21  1  0  0  0  0
 22 21  2  0  0  0  0
 25 23  1  6  0  0  0
 25 30  1  0  0  0  0
 25 27  1  0  0  0  0
 26 24  1  0  0  0  0
 27 26  2  0  0  0  0
 28 30  2  0  0  0  0
 29 26  1  0  0  0  0
 30 29  1  0  0  0  0
M  END
>  <MODEL>
1

>  <REMARK>
 VINA RESULT:      -7.6      0.000      0.000
  Name = 
  12 active torsions:
  status: ('A' for Active; 'I' for Inactive)
    1  A    between atoms: C_1  and  C_6
    2  A    between atoms: C_1  and  C_19
    3  A    between atoms: S_2  and  C_5
    4  A    between atoms: S_2  and  C_21
    5  A    between atoms: C_4  and  C_20
    6  A    between atoms: C_6  and  C_25
    7  A    between atoms: C_12  and  C_19
    8  A    between atoms: N_16  and  C_20
    9  A    between atoms: N_16  and  C_21
   10  A    between atoms: C_21  and  C_23
   11  A    between atoms: C_22  and  C_28
   12  A    between atoms: C_25  and  C_26
                            x       y       z     vdW  Elec       q    Type
                         _______ _______ _______ _____ _____    ______ ____

>  <TORSDO>
F 12

$$$$
=
 OpenBabel10232408223D

 30 31  0  0  1  0  0  0  0  0999 V2000
  189.3530  177.9790  140.8950 C   0  0  2  0  0  3  0  0  0  0  0  0
  188.2320  178.5540  141.6280 N   0  0  0  0  0  0  0  0  0  0  0  0
  188.7630  177.5850  139.5360 C   0  0  1  0  0  3  0  0  0  0  0  0
  187.4080  177.9920  139.6290 O   0  0  0  0  0  0  0  0  0  0  0  0
  187.1870  178.5310  140.8780 C   0  0  0  0  0  0  0  0  0  0  0  0
  185.0840  179.4360  140.1540 N   0  0  0  0  0  1  0  0  0  0  0  0
  185.8710  179.0660  141.3170 C   0  0  0  0  0  2  0  0  0  0  0  0
  188.7030  179.3650  137.9050 O   0  0  0  0  0  1  0  0  0  0  0  0
  189.4850  178.3190  138.4010 C   0  0  2  0  0  3  0  0  0  0  0  0
  189.8870  177.3840  137.2640 C   0  0  2  0  0  3  0  0  0  0  0  0
  188.7720  176.8580  136.6330 F   0  0  0  0  0  0  0  0  0  0  0  0
  190.7890  176.2680  137.7730 C   0  0  0  0  0  2  0  0  0  0  0  0
  191.9590  176.0360  136.8280 C   0  0  0  0  0  2  0  0  0  0  0  0
  193.2570  176.8890  138.8180 N   0  0  0  0  0  1  0  0  0  0  0  0
  194.3320  176.2720  136.8540 O   0  0  0  0  0  0  0  0  0  0  0  0
  193.2480  176.4080  137.4790 C   0  0  0  0  0  0  0  0  0  0  0  0
  189.8580  176.7380  141.6060 C   0  0  0  0  0  2  0  0  0  0  0  0
  190.8940  177.1030  142.5670 N   0  0  0  0  0  2  0  0  0  0  0  0
  190.4840  176.7470  143.9300 C   0  0  1  0  0  3  0  0  0  0  0  0
  191.9680  176.4570  145.9360 O   0  0  0  0  0  1  0  0  0  0  0  0
  191.5590  176.0140  144.6830 C   0  0  0  0  0  0  0  0  0  0  0  0
  192.1520  175.0400  144.1500 O   0  0  0  0  0  0  0  0  0  0  0  0
  189.8400  178.1920  144.8520 S   0  0  0  0  0  0  0  0  0  0  0  0
  185.1780  178.7670  145.9340 C   0  0  0  0  0  1  0  0  0  0  0  0
  188.5130  177.2280  145.6380 C   0  0  2  0  0  3  0  0  0  0  0  0
  186.5390  178.2040  146.1280 C   0  0  0  0  0  0  0  0  0  0  0  0
  187.2220  177.6960  145.1510 N   0  0  0  0  0  0  0  0  0  0  0  0
  189.3060  177.3220  147.9380 O   0  0  0  0  0  0  0  0  0  0  0  0
  187.1840  178.1820  147.3950 N   0  0  0  0  0  2  0  0  0  0  0  0
  188.4180  177.5650  147.0810 C   0  0  0  0  0  0  0  0  0  0  0  0
  1 17  1  1  0  0  0
  1  2  1  0  0  0  0
  3  9  1  6  0  0  0
  3  4  1  0  0  0  0
  3  1  1  0  0  0  0
  4  5  1  0  0  0  0
  5  7  1  0  0  0  0
  5  2  2  0  0  0  0
  6  7  1  0  0  0  0
  9  8  1  6  0  0  0
 10 11  1  1  0  0  0
 10 12  1  0  0  0  0
 10  9  1  0  0  0  0
 13 16  1  0  0  0  0
 13 12  1  0  0  0  0
 15 16  2  0  0  0  0
 16 14  1  0  0  0  0
 17 18  1  0  0  0  0
 19 18  1  6  0  0  0
 19 21  1  0  0  0  0
 19 23  1  0  0  0  0
 21 20  1  0  0  0  0
 22 21  2  0  0  0  0
 24 26  1  0  0  0  0
 25 23  1  6  0  0  0
 25 30  1  0  0  0  0
 26 29  1  0  0  0  0
 27 25  1  0  0  0  0
 27 26  2  0  0  0  0
 30 29  1  0  0  0  0
 30 28  2  0  0  0  0
M  END
>  <MODEL>
2

>  <REMARK>
 VINA RESULT:      -7.3      2.914      6.778
  Name = 
  12 active torsions:
  status: ('A' for Active; 'I' for Inactive)
    1  A    between atoms: C_1  and  C_6
    2  A    between atoms: C_1  and  C_19
    3  A    between atoms: S_2  and  C_5
    4  A    between atoms: S_2  and  C_21
    5  A    between atoms: C_4  and  C_20
    6  A    between atoms: C_6  and  C_25
    7  A    between atoms: C_12  and  C_19
    8  A    between atoms: N_16  and  C_20
    9  A    between atoms: N_16  and  C_21
   10  A    between atoms: C_21  and  C_23
   11  A    between atoms: C_22  and  C_28
   12  A    between atoms: C_25  and  C_26
                            x       y       z     vdW  Elec       q    Type
                         _______ _______ _______ _____ _____    ______ ____

>  <TORSDO>
F 12

$$$$
=
 OpenBabel10232408223D

 30 31  0  0  1  0  0  0  0  0999 V2000
  190.0010  177.6530  145.2130 C   0  0  2  0  0  3  0  0  0  0  0  0
  191.2650  177.4270  145.9030 N   0  0  0  0  0  0  0  0  0  0  0  0
  188.9460  177.0090  146.1200 C   0  0  1  0  0  3  0  0  0  0  0  0
  189.7010  176.5200  147.2160 O   0  0  0  0  0  0  0  0  0  0  0  0
  191.0340  176.7960  147.0000 C   0  0  0  0  0  0  0  0  0  0  0  0
  192.8810  175.3200  147.4180 N   0  0  0  0  0  1  0  0  0  0  0  0
  192.1110  176.4270  147.9570 C   0  0  0  0  0  2  0  0  0  0  0  0
  188.0300  178.2970  147.9450 O   0  0  0  0  0  1  0  0  0  0  0  0
  187.9180  178.0500  146.5750 C   0  0  2  0  0  3  0  0  0  0  0  0
  186.4870  177.6450  146.2340 C   0  0  2  0  0  3  0  0  0  0  0  0
  186.4320  176.9800  145.0200 F   0  0  0  0  0  0  0  0  0  0  0  0
  185.5690  178.8600  146.2190 C   0  0  0  0  0  2  0  0  0  0  0  0
  184.2100  178.5130  145.6280 C   0  0  0  0  0  2  0  0  0  0  0  0
  182.6270  179.3490  143.8490 N   0  0  0  0  0  1  0  0  0  0  0  0
  184.8400  180.0480  143.9160 O   0  0  0  0  0  0  0  0  0  0  0  0
  183.9300  179.3390  144.4190 C   0  0  0  0  0  0  0  0  0  0  0  0
  190.0100  176.9500  143.8690 C   0  0  0  0  0  2  0  0  0  0  0  0
  190.9200  177.6350  142.9560 N   0  0  0  0  0  2  0  0  0  0  0  0
  190.3310  177.7320  141.6160 C   0  0  1  0  0  3  0  0  0  0  0  0
  190.7280  176.1310  139.7210 O   0  0  0  0  0  0  0  0  0  0  0  0
  191.2110  177.1330  140.5540 C   0  0  0  0  0  0  0  0  0  0  0  0
  192.4180  177.4820  140.4630 O   0  0  0  0  0  1  0  0  0  0  0  0
  188.6230  177.0720  141.5670 S   0  0  0  0  0  0  0  0  0  0  0  0
  184.2920  178.9510  140.5950 C   0  0  0  0  0  1  0  0  0  0  0  0
  187.9510  178.5840  140.8110 C   0  0  2  0  0  3  0  0  0  0  0  0
  185.7460  178.7480  140.3690 C   0  0  0  0  0  0  0  0  0  0  0  0
  186.6130  178.8300  141.3290 N   0  0  0  0  0  0  0  0  0  0  0  0
  188.5400  178.1250  138.4930 O   0  0  0  0  0  0  0  0  0  0  0  0
  186.2860  178.4540  139.0870 N   0  0  0  0  0  2  0  0  0  0  0  0
  187.6690  178.3570  139.3710 C   0  0  0  0  0  0  0  0  0  0  0  0
  1 17  1  6  0  0  0
  1  2  1  0  0  0  0
  1  3  1  0  0  0  0
  2  5  2  0  0  0  0
  3  9  1  1  0  0  0
  3  4  1  0  0  0  0
  5  4  1  0  0  0  0
  5  7  1  0  0  0  0
  6  7  1  0  0  0  0
  9  8  1  1  0  0  0
 10 11  1  6  0  0  0
 10  9  1  0  0  0  0
 12 10  1  0  0  0  0
 13 12  1  0  0  0  0
 14 16  1  0  0  0  0
 15 16  2  0  0  0  0
 16 13  1  0  0  0  0
 18 17  1  0  0  0  0
 19 21  1  6  0  0  0
 19 18  1  0  0  0  0
 20 21  2  0  0  0  0
 22 21  1  0  0  0  0
 23 19  1  0  0  0  0
 25 27  1  0  0  0  0
 25 23  1  1  0  0  0
 26 24  1  0  0  0  0
 26 27  2  0  0  0  0
 28 30  2  0  0  0  0
 29 30  1  0  0  0  0
 29 26  1  0  0  0  0
 30 25  1  0  0  0  0
M  END
>  <MODEL>
3

>  <REMARK>
 VINA RESULT:      -7.2      2.576      6.351
  Name = 
  12 active torsions:
  status: ('A' for Active; 'I' for Inactive)
    1  A    between atoms: C_1  and  C_6
    2  A    between atoms: C_1  and  C_19
    3  A    between atoms: S_2  and  C_5
    4  A    between atoms: S_2  and  C_21
    5  A    between atoms: C_4  and  C_20
    6  A    between atoms: C_6  and  C_25
    7  A    between atoms: C_12  and  C_19
    8  A    between atoms: N_16  and  C_20
    9  A    between atoms: N_16  and  C_21
   10  A    between atoms: C_21  and  C_23
   11  A    between atoms: C_22  and  C_28
   12  A    between atoms: C_25  and  C_26
                            x       y       z     vdW  Elec       q    Type
                         _______ _______ _______ _____ _____    ______ ____

>  <TORSDO>
F 12

$$$$
=
 OpenBabel10232408223D

 30 31  0  0  1  0  0  0  0  0999 V2000
  189.9950  176.9510  141.5770 C   0  0  2  0  0  3  0  0  0  0  0  0
  190.9470  176.2820  140.6980 N   0  0  0  0  0  0  0  0  0  0  0  0
  189.4000  178.0730  140.7190 C   0  0  1  0  0  3  0  0  0  0  0  0
  190.0410  177.9100  139.4650 O   0  0  0  0  0  0  0  0  0  0  0  0
  190.9280  176.8580  139.5490 C   0  0  0  0  0  0  0  0  0  0  0  0
  193.1480  176.8000  138.6350 N   0  0  0  0  0  1  0  0  0  0  0  0
  191.7690  176.4050  138.4090 C   0  0  0  0  0  2  0  0  0  0  0  0
  187.3930  178.6090  139.4870 O   0  0  0  0  0  1  0  0  0  0  0  0
  187.8820  177.9070  140.5920 C   0  0  2  0  0  3  0  0  0  0  0  0
  187.1400  178.3380  141.8540 C   0  0  2  0  0  3  0  0  0  0  0  0
  186.9350  177.2630  142.7030 F   0  0  0  0  0  0  0  0  0  0  0  0
  185.8150  179.0010  141.5020 C   0  0  0  0  0  2  0  0  0  0  0  0
  185.0200  179.3350  142.7570 C   0  0  0  0  0  2  0  0  0  0  0  0
  183.1050  178.4250  141.3870 N   0  0  0  0  0  1  0  0  0  0  0  0
  182.9090  178.7260  143.6810 O   0  0  0  0  0  0  0  0  0  0  0  0
  183.6230  178.8260  142.6500 C   0  0  0  0  0  0  0  0  0  0  0  0
  190.7210  177.5540  142.7660 C   0  0  0  0  0  2  0  0  0  0  0  0
  191.2910  176.4930  143.5900 N   0  0  0  0  0  2  0  0  0  0  0  0
  190.7280  176.5310  144.9440 C   0  0  1  0  0  3  0  0  0  0  0  0
  192.4190  175.0450  146.0580 O   0  0  0  0  0  0  0  0  0  0  0  0
  191.7590  176.2670  146.0060 C   0  0  0  0  0  0  0  0  0  0  0  0
  191.9760  177.1240  146.9020 O   0  0  0  0  0  1  0  0  0  0  0  0
  189.7810  178.0690  145.2500 S   0  0  0  0  0  0  0  0  0  0  0  0
  185.0980  178.4620  146.3200 C   0  0  0  0  0  1  0  0  0  0  0  0
  188.5700  177.2310  146.3190 C   0  0  2  0  0  3  0  0  0  0  0  0
  186.5120  178.1080  146.6050 C   0  0  0  0  0  0  0  0  0  0  0  0
  187.2330  177.4210  145.7750 N   0  0  0  0  0  0  0  0  0  0  0  0
  189.3770  178.0240  148.4750 O   0  0  0  0  0  0  0  0  0  0  0  0
  187.1700  178.4940  147.8040 N   0  0  0  0  0  2  0  0  0  0  0  0
  188.4580  177.9380  147.6200 C   0  0  0  0  0  0  0  0  0  0  0  0
  1 17  1  1  0  0  0
  2  1  1  0  0  0  0
  3  9  1  6  0  0  0
  3  1  1  0  0  0  0
  4  5  1  0  0  0  0
  4  3  1  0  0  0  0
  5  2  2  0  0  0  0
  7  6  1  0  0  0  0
  7  5  1  0  0  0  0
  9  8  1  6  0  0  0
  9 10  1  0  0  0  0
 10 11  1  1  0  0  0
 12 10  1  0  0  0  0
 12 13  1  0  0  0  0
 14 16  1  0  0  0  0
 16 13  1  0  0  0  0
 16 15  2  0  0  0  0
 17 18  1  0  0  0  0
 19 18  1  6  0  0  0
 19 23  1  0  0  0  0
 19 21  1  0  0  0  0
 21 20  2  0  0  0  0
 21 22  1  0  0  0  0
 24 26  1  0  0  0  0
 25 23  1  6  0  0  0
 25 30  1  0  0  0  0
 26 29  1  0  0  0  0
 27 25  1  0  0  0  0
 27 26  2  0  0  0  0
 30 29  1  0  0  0  0
 30 28  2  0  0  0  0
M  END
>  <MODEL>
4

>  <REMARK>
 VINA RESULT:      -7.2      2.394      5.932
  Name = 
  12 active torsions:
  status: ('A' for Active; 'I' for Inactive)
    1  A    between atoms: C_1  and  C_6
    2  A    between atoms: C_1  and  C_19
    3  A    between atoms: S_2  and  C_5
    4  A    between atoms: S_2  and  C_21
    5  A    between atoms: C_4  and  C_20
    6  A    between atoms: C_6  and  C_25
    7  A    between atoms: C_12  and  C_19
    8  A    between atoms: N_16  and  C_20
    9  A    between atoms: N_16  and  C_21
   10  A    between atoms: C_21  and  C_23
   11  A    between atoms: C_22  and  C_28
   12  A    between atoms: C_25  and  C_26
                            x       y       z     vdW  Elec       q    Type
                         _______ _______ _______ _____ _____    ______ ____

>  <TORSDO>
F 12

$$$$
=
 OpenBabel10232408223D

 30 31  0  0  1  0  0  0  0  0999 V2000
  189.7450  177.7740  145.7240 C   0  0  2  0  0  3  0  0  0  0  0  0
  191.0910  177.2710  145.9710 N   0  0  0  0  0  0  0  0  0  0  0  0
  188.8720  177.0660  146.7670 C   0  0  1  0  0  3  0  0  0  0  0  0
  189.7970  176.2750  147.4950 O   0  0  0  0  0  0  0  0  0  0  0  0
  191.0540  176.4470  146.9570 C   0  0  0  0  0  0  0  0  0  0  0  0
  192.8280  176.5480  148.5740 N   0  0  0  0  0  1  0  0  0  0  0  0
  192.2690  175.7680  147.4830 C   0  0  0  0  0  2  0  0  0  0  0  0
  187.7520  177.4920  148.8630 O   0  0  0  0  0  1  0  0  0  0  0  0
  188.1810  178.0880  147.6750 C   0  0  2  0  0  3  0  0  0  0  0  0
  187.0090  178.7820  146.9870 C   0  0  2  0  0  3  0  0  0  0  0  0
  186.2760  179.5350  147.8890 F   0  0  0  0  0  0  0  0  0  0  0  0
  186.1150  177.7680  146.2860 C   0  0  0  0  0  2  0  0  0  0  0  0
  185.8650  178.1670  144.8390 C   0  0  0  0  0  2  0  0  0  0  0  0
  183.6440  179.0100  145.6920 N   0  0  0  0  0  1  0  0  0  0  0  0
  184.6490  179.9470  143.8210 O   0  0  0  0  0  0  0  0  0  0  0  0
  184.6950  179.0860  144.7370 C   0  0  0  0  0  0  0  0  0  0  0  0
  189.2900  177.3790  144.3320 C   0  0  0  0  0  2  0  0  0  0  0  0
  189.5610  178.4660  143.3950 N   0  0  0  0  0  2  0  0  0  0  0  0
  189.9940  177.9330  142.0980 C   0  0  1  0  0  3  0  0  0  0  0  0
  192.3240  177.0050  142.2570 O   0  0  0  0  0  0  0  0  0  0  0  0
  190.9520  176.7820  142.2380 C   0  0  0  0  0  0  0  0  0  0  0  0
  190.5190  175.6000  142.2610 O   0  0  0  0  0  1  0  0  0  0  0  0
  188.5750  177.5370  141.0100 S   0  0  0  0  0  0  0  0  0  0  0  0
  187.4940  178.7510  136.4720 C   0  0  0  0  0  1  0  0  0  0  0  0
  189.4630  178.0330  139.5010 C   0  0  2  0  0  3  0  0  0  0  0  0
  188.3640  178.1930  137.5390 C   0  0  0  0  0  0  0  0  0  0  0  0
  188.5760  178.8180  138.6540 N   0  0  0  0  0  0  0  0  0  0  0  0
  190.4610  175.8830  138.9430 O   0  0  0  0  0  0  0  0  0  0  0  0
  189.0240  176.9410  137.4090 N   0  0  0  0  0  2  0  0  0  0  0  0
  189.7140  176.8490  138.6410 C   0  0  0  0  0  0  0  0  0  0  0  0
  1 17  1  6  0  0  0
  1  2  1  0  0  0  0
  1  3  1  0  0  0  0
  2  5  2  0  0  0  0
  3  4  1  0  0  0  0
  3  9  1  1  0  0  0
  5  7  1  0  0  0  0
  5  4  1  0  0  0  0
  7  6  1  0  0  0  0
  9  8  1  1  0  0  0
 10  9  1  0  0  0  0
 10 11  1  1  0  0  0
 12 10  1  0  0  0  0
 13 12  1  0  0  0  0
 15 16  2  0  0  0  0
 16 13  1  0  0  0  0
 16 14  1  0  0  0  0
 18 17  1  0  0  0  0
 19 23  1  1  0  0  0
 19 21  1  0  0  0  0
 19 18  1  0  0  0  0
 21 20  2  0  0  0  0
 21 22  1  0  0  0  0
 24 26  1  0  0  0  0
 25 23  1  1  0  0  0
 26 27  2  0  0  0  0
 27 25  1  0  0  0  0
 29 26  1  0  0  0  0
 29 30  1  0  0  0  0
 30 28  2  0  0  0  0
 30 25  1  0  0  0  0
M  END
>  <MODEL>
5

>  <REMARK>
 VINA RESULT:      -7.1      2.591      7.137
  Name = 
  12 active torsions:
  status: ('A' for Active; 'I' for Inactive)
    1  A    between atoms: C_1  and  C_6
    2  A    between atoms: C_1  and  C_19
    3  A    between atoms: S_2  and  C_5
    4  A    between atoms: S_2  and  C_21
    5  A    between atoms: C_4  and  C_20
    6  A    between atoms: C_6  and  C_25
    7  A    between atoms: C_12  and  C_19
    8  A    between atoms: N_16  and  C_20
    9  A    between atoms: N_16  and  C_21
   10  A    between atoms: C_21  and  C_23
   11  A    between atoms: C_22  and  C_28
   12  A    between atoms: C_25  and  C_26
                            x       y       z     vdW  Elec       q    Type
                         _______ _______ _______ _____ _____    ______ ____

>  <TORSDO>
F 12

$$$$
=
 OpenBabel10232408223D

 30 31  0  0  1  0  0  0  0  0999 V2000
  187.7140  177.7160  144.2460 C   0  0  2  0  0  3  0  0  0  0  0  0
  188.3010  177.9390  145.5620 N   0  0  0  0  0  0  0  0  0  0  0  0
  186.2210  177.5060  144.5200 C   0  0  1  0  0  3  0  0  0  0  0  0
  186.1150  177.6540  145.9270 O   0  0  0  0  0  0  0  0  0  0  0  0
  187.3690  177.8900  146.4480 C   0  0  0  0  0  0  0  0  0  0  0  0
  188.9430  177.5900  148.2360 N   0  0  0  0  0  1  0  0  0  0  0  0
  187.6270  178.1010  147.8970 C   0  0  0  0  0  2  0  0  0  0  0  0
  184.0490  178.5100  144.1950 O   0  0  0  0  0  1  0  0  0  0  0  0
  185.3840  178.5600  143.7880 C   0  0  2  0  0  3  0  0  0  0  0  0
  185.4720  178.4230  142.2700 C   0  0  2  0  0  3  0  0  0  0  0  0
  186.4320  179.2730  141.7470 F   0  0  0  0  0  0  0  0  0  0  0  0
  184.1180  178.6850  141.6240 C   0  0  0  0  0  2  0  0  0  0  0  0
  184.0610  178.1040  140.2180 C   0  0  0  0  0  2  0  0  0  0  0  0
  185.6820  178.5890  138.3450 N   0  0  0  0  0  1  0  0  0  0  0  0
  184.2610  180.2330  139.1640 O   0  0  0  0  0  0  0  0  0  0  0  0
  184.6670  179.0440  139.2310 C   0  0  0  0  0  0  0  0  0  0  0  0
  188.2950  176.4610  143.6230 C   0  0  0  0  0  2  0  0  0  0  0  0
  189.0030  176.8000  142.3920 N   0  0  0  0  0  2  0  0  0  0  0  0
  190.3340  177.3390  142.6930 C   0  0  1  0  0  3  0  0  0  0  0  0
  191.4560  177.1040  144.9290 O   0  0  0  0  0  1  0  0  0  0  0  0
  191.0650  176.5270  143.7260 C   0  0  0  0  0  0  0  0  0  0  0  0
  191.3980  175.3390  143.4750 O   0  0  0  0  0  0  0  0  0  0  0  0
  191.3260  177.6040  141.1770 S   0  0  0  0  0  0  0  0  0  0  0  0
  191.0800  175.5890  136.8050 C   0  0  0  0  0  1  0  0  0  0  0  0
  190.0510  176.8880  140.0950 C   0  0  2  0  0  3  0  0  0  0  0  0
  190.5430  176.3530  137.9600 C   0  0  0  0  0  0  0  0  0  0  0  0
  190.6700  175.9370  139.1810 N   0  0  0  0  0  0  0  0  0  0  0  0
  188.9010  178.9430  139.4770 O   0  0  0  0  0  0  0  0  0  0  0  0
  189.8540  177.5860  137.8060 N   0  0  0  0  0  2  0  0  0  0  0  0
  189.5450  177.9140  139.1480 C   0  0  0  0  0  0  0  0  0  0  0  0
  1 17  1  1  0  0  0
  1  3  1  0  0  0  0
  1  2  1  0  0  0  0
  2  5  2  0  0  0  0
  3  9  1  6  0  0  0
  3  4  1  0  0  0  0
  4  5  1  0  0  0  0
  5  7  1  0  0  0  0
  7  6  1  0  0  0  0
  9  8  1  1  0  0  0
 10 11  1  6  0  0  0
 10  9  1  0  0  0  0
 12 10  1  0  0  0  0
 13 12  1  0  0  0  0
 14 16  1  0  0  0  0
 15 16  2  0  0  0  0
 16 13  1  0  0  0  0
 18 19  1  0  0  0  0
 18 17  1  0  0  0  0
 19 23  1  6  0  0  0
 19 21  1  0  0  0  0
 21 20  1  0  0  0  0
 22 21  2  0  0  0  0
 24 26  1  0  0  0  0
 25 23  1  1  0  0  0
 26 27  2  0  0  0  0
 27 25  1  0  0  0  0
 29 26  1  0  0  0  0
 29 30  1  0  0  0  0
 30 28  2  0  0  0  0
 30 25  1  0  0  0  0
M  END
>  <MODEL>
6

>  <REMARK>
 VINA RESULT:      -7.0      2.467      7.945
  Name = 
  12 active torsions:
  status: ('A' for Active; 'I' for Inactive)
    1  A    between atoms: C_1  and  C_6
    2  A    between atoms: C_1  and  C_19
    3  A    between atoms: S_2  and  C_5
    4  A    between atoms: S_2  and  C_21
    5  A    between atoms: C_4  and  C_20
    6  A    between atoms: C_6  and  C_25
    7  A    between atoms: C_12  and  C_19
    8  A    between atoms: N_16  and  C_20
    9  A    between atoms: N_16  and  C_21
   10  A    between atoms: C_21  and  C_23
   11  A    between atoms: C_22  and  C_28
   12  A    between atoms: C_25  and  C_26
                            x       y       z     vdW  Elec       q    Type
                         _______ _______ _______ _____ _____    ______ ____

>  <TORSDO>
F 12

$$$$
=
 OpenBabel10232408223D

 30 31  0  0  1  0  0  0  0  0999 V2000
  188.4280  178.1060  142.1300 C   0  0  2  0  0  3  0  0  0  0  0  0
  188.1780  178.6610  140.8060 N   0  0  0  0  0  0  0  0  0  0  0  0
  189.5020  177.0360  141.9030 C   0  0  1  0  0  3  0  0  0  0  0  0
  189.7600  177.1120  140.5110 O   0  0  0  0  0  0  0  0  0  0  0  0
  188.9410  178.0710  139.9550 C   0  0  0  0  0  0  0  0  0  0  0  0
  187.5890  178.5810  138.0370 N   0  0  0  0  0  1  0  0  0  0  0  0
  188.9530  178.4180  138.5090 C   0  0  0  0  0  2  0  0  0  0  0  0
  191.3290  176.1840  143.2330 O   0  0  0  0  0  1  0  0  0  0  0  0
  190.7590  177.3520  142.7190 C   0  0  2  0  0  3  0  0  0  0  0  0
  190.4880  178.3400  143.8500 C   0  0  2  0  0  3  0  0  0  0  0  0
  191.2500  179.4870  143.7030 F   0  0  0  0  0  0  0  0  0  0  0  0
  190.7480  177.6960  145.2050 C   0  0  0  0  0  2  0  0  0  0  0  0
  189.4790  177.6610  146.0460 C   0  0  0  0  0  2  0  0  0  0  0  0
  188.8820  177.9780  148.4780 N   0  0  0  0  0  1  0  0  0  0  0  0
  190.8900  176.9950  147.8490 O   0  0  0  0  0  0  0  0  0  0  0  0
  189.8070  177.5280  147.4950 C   0  0  0  0  0  0  0  0  0  0  0  0
  187.1680  177.4530  142.6670 C   0  0  0  0  0  2  0  0  0  0  0  0
  186.8810  177.9560  144.0070 N   0  0  0  0  0  2  0  0  0  0  0  0
  185.4430  178.2000  144.1690 C   0  0  1  0  0  3  0  0  0  0  0  0
  185.9170  178.1750  146.6370 O   0  0  0  0  0  1  0  0  0  0  0  0
  185.0700  178.5210  145.5900 C   0  0  0  0  0  0  0  0  0  0  0  0
  183.9500  179.0350  145.8480 O   0  0  0  0  0  0  0  0  0  0  0  0
  184.8200  179.4470  142.9810 S   0  0  0  0  0  0  0  0  0  0  0  0
  182.6420  178.8790  138.7190 C   0  0  0  0  0  1  0  0  0  0  0  0
  183.6590  178.2790  142.2080 C   0  0  2  0  0  3  0  0  0  0  0  0
  182.7580  178.7410  140.1930 C   0  0  0  0  0  0  0  0  0  0  0  0
  183.8370  178.3050  140.7630 N   0  0  0  0  0  0  0  0  0  0  0  0
  181.6450  178.9090  143.4250 O   0  0  0  0  0  0  0  0  0  0  0  0
  181.6960  179.0740  141.0780 N   0  0  0  0  0  2  0  0  0  0  0  0
  182.2660  178.7780  142.3380 C   0  0  0  0  0  0  0  0  0  0  0  0
  1 17  1  6  0  0  0
  2  1  1  0  0  0  0
  3  1  1  0  0  0  0
  3  9  1  1  0  0  0
  4  3  1  0  0  0  0
  5  4  1  0  0  0  0
  5  2  2  0  0  0  0
  6  7  1  0  0  0  0
  7  5  1  0  0  0  0
  9  8  1  1  0  0  0
  9 10  1  0  0  0  0
 10 11  1  6  0  0  0
 10 12  1  0  0  0  0
 12 13  1  0  0  0  0
 13 16  1  0  0  0  0
 16 15  2  0  0  0  0
 16 14  1  0  0  0  0
 17 18  1  0  0  0  0
 18 19  1  0  0  0  0
 19 23  1  6  0  0  0
 19 21  1  0  0  0  0
 21 22  2  0  0  0  0
 21 20  1  0  0  0  0
 24 26  1  0  0  0  0
 25 30  1  0  0  0  0
 25 23  1  1  0  0  0
 26 27  2  0  0  0  0
 26 29  1  0  0  0  0
 27 25  1  0  0  0  0
 29 30  1  0  0  0  0
 30 28  2  0  0  0  0
M  END
>  <MODEL>
7

>  <REMARK>
 VINA RESULT:      -6.9      2.052      3.490
  Name = 
  12 active torsions:
  status: ('A' for Active; 'I' for Inactive)
    1  A    between atoms: C_1  and  C_6
    2  A    between atoms: C_1  and  C_19
    3  A    between atoms: S_2  and  C_5
    4  A    between atoms: S_2  and  C_21
    5  A    between atoms: C_4  and  C_20
    6  A    between atoms: C_6  and  C_25
    7  A    between atoms: C_12  and  C_19
    8  A    between atoms: N_16  and  C_20
    9  A    between atoms: N_16  and  C_21
   10  A    between atoms: C_21  and  C_23
   11  A    between atoms: C_22  and  C_28
   12  A    between atoms: C_25  and  C_26
                            x       y       z     vdW  Elec       q    Type
                         _______ _______ _______ _____ _____    ______ ____

>  <TORSDO>
F 12

$$$$
=
 OpenBabel10232408223D

 30 31  0  0  1  0  0  0  0  0999 V2000
  185.1630  178.3440  142.2910 C   0  0  2  0  0  3  0  0  0  0  0  0
  183.8920  178.1880  141.5940 N   0  0  0  0  0  0  0  0  0  0  0  0
  184.8220  179.1690  143.5370 C   0  0  1  0  0  3  0  0  0  0  0  0
  183.4220  179.3680  143.4320 O   0  0  0  0  0  0  0  0  0  0  0  0
  182.9710  178.7770  142.2710 C   0  0  0  0  0  0  0  0  0  0  0  0
  181.3380  177.7930  140.8100 N   0  0  0  0  0  1  0  0  0  0  0  0
  181.5450  178.7880  141.8480 C   0  0  0  0  0  2  0  0  0  0  0  0
  184.9190  179.1610  145.9500 O   0  0  0  0  0  1  0  0  0  0  0  0
  185.1780  178.3950  144.8100 C   0  0  2  0  0  3  0  0  0  0  0  0
  186.6290  177.9210  144.8190 C   0  0  2  0  0  3  0  0  0  0  0  0
  186.7520  176.6800  144.2180 F   0  0  0  0  0  0  0  0  0  0  0  0
  187.1770  177.8840  146.2390 C   0  0  0  0  0  2  0  0  0  0  0  0
  188.6660  177.5660  146.2420 C   0  0  0  0  0  2  0  0  0  0  0  0
  188.4100  178.1220  148.6910 N   0  0  0  0  0  1  0  0  0  0  0  0
  190.4060  177.2860  147.8480 O   0  0  0  0  0  0  0  0  0  0  0  0
  189.2240  177.6530  147.6220 C   0  0  0  0  0  0  0  0  0  0  0  0
  186.1400  179.1170  141.4250 C   0  0  0  0  0  2  0  0  0  0  0  0
  187.4990  178.6400  141.6630 N   0  0  0  0  0  2  0  0  0  0  0  0
  187.9580  177.8080  140.5450 C   0  0  1  0  0  3  0  0  0  0  0  0
  188.7000  179.1510  138.5550 O   0  0  0  0  0  0  0  0  0  0  0  0
  187.6970  178.4440  139.2070 C   0  0  0  0  0  0  0  0  0  0  0  0
  186.5420  178.4060  138.7050 O   0  0  0  0  0  1  0  0  0  0  0  0
  189.7030  177.2900  140.7460 S   0  0  0  0  0  0  0  0  0  0  0  0
  191.9750  179.3510  144.4650 C   0  0  0  0  0  1  0  0  0  0  0  0
  189.5970  177.2780  142.5620 C   0  0  2  0  0  3  0  0  0  0  0  0
  191.1970  178.2740  143.8000 C   0  0  0  0  0  0  0  0  0  0  0  0
  190.1440  178.5220  143.0870 N   0  0  0  0  0  0  0  0  0  0  0  0
  190.4620  175.0380  142.9640 O   0  0  0  0  0  0  0  0  0  0  0  0
  191.5540  176.9020  143.9010 N   0  0  0  0  0  2  0  0  0  0  0  0
  190.5430  176.2840  143.1260 C   0  0  0  0  0  0  0  0  0  0  0  0
  1 17  1  6  0  0  0
  1  3  1  0  0  0  0
  2  5  2  0  0  0  0
  2  1  1  0  0  0  0
  3  9  1  1  0  0  0
  4  3  1  0  0  0  0
  5  4  1  0  0  0  0
  6  7  1  0  0  0  0
  7  5  1  0  0  0  0
  9 10  1  0  0  0  0
  9  8  1  1  0  0  0
 10 11  1  1  0  0  0
 10 12  1  0  0  0  0
 12 13  1  0  0  0  0
 13 16  1  0  0  0  0
 16 15  2  0  0  0  0
 16 14  1  0  0  0  0
 17 18  1  0  0  0  0
 19 21  1  6  0  0  0
 19 23  1  0  0  0  0
 19 18  1  0  0  0  0
 20 21  2  0  0  0  0
 22 21  1  0  0  0  0
 25 23  1  6  0  0  0
 25 27  1  0  0  0  0
 25 30  1  0  0  0  0
 26 29  1  0  0  0  0
 26 24  1  0  0  0  0
 27 26  2  0  0  0  0
 28 30  2  0  0  0  0
 30 29  1  0  0  0  0
M  END
>  <MODEL>
8

>  <REMARK>
 VINA RESULT:      -6.7      2.639      5.800
  Name = 
  12 active torsions:
  status: ('A' for Active; 'I' for Inactive)
    1  A    between atoms: C_1  and  C_6
    2  A    between atoms: C_1  and  C_19
    3  A    between atoms: S_2  and  C_5
    4  A    between atoms: S_2  and  C_21
    5  A    between atoms: C_4  and  C_20
    6  A    between atoms: C_6  and  C_25
    7  A    between atoms: C_12  and  C_19
    8  A    between atoms: N_16  and  C_20
    9  A    between atoms: N_16  and  C_21
   10  A    between atoms: C_21  and  C_23
   11  A    between atoms: C_22  and  C_28
   12  A    between atoms: C_25  and  C_26
                            x       y       z     vdW  Elec       q    Type
                         _______ _______ _______ _____ _____    ______ ____

>  <TORSDO>
F 12

$$$$
=
 OpenBabel10232408223D

 30 31  0  0  1  0  0  0  0  0999 V2000
  186.6290  177.2240  144.4230 C   0  0  2  0  0  3  0  0  0  0  0  0
  185.3850  177.7230  143.8490 N   0  0  0  0  0  0  0  0  0  0  0  0
  187.0280  178.2820  145.4580 C   0  0  1  0  0  3  0  0  0  0  0  0
  185.9800  179.2340  145.3820 O   0  0  0  0  0  0  0  0  0  0  0  0
  185.0810  178.8360  144.4170 C   0  0  0  0  0  0  0  0  0  0  0  0
  182.6860  178.7520  144.2520 N   0  0  0  0  0  1  0  0  0  0  0  0
  183.8520  179.6010  144.0770 C   0  0  0  0  0  2  0  0  0  0  0  0
  187.0990  178.6520  147.8430 O   0  0  0  0  0  1  0  0  0  0  0  0
  187.1140  177.6630  146.8570 C   0  0  2  0  0  3  0  0  0  0  0  0
  188.3450  176.7760  147.0270 C   0  0  2  0  0  3  0  0  0  0  0  0
  188.3700  176.1950  148.2840 F   0  0  0  0  0  0  0  0  0  0  0  0
  189.6210  177.5680  146.7790 C   0  0  0  0  0  2  0  0  0  0  0  0
  190.6770  177.2480  147.8280 C   0  0  0  0  0  2  0  0  0  0  0  0
  192.7250  175.8000  148.1080 N   0  0  0  0  0  1  0  0  0  0  0  0
  191.7850  176.1660  146.0160 O   0  0  0  0  0  0  0  0  0  0  0  0
  191.7520  176.3900  147.2540 C   0  0  0  0  0  0  0  0  0  0  0  0
  187.6990  177.1370  143.3510 C   0  0  0  0  0  2  0  0  0  0  0  0
  188.5710  178.3060  143.4240 N   0  0  0  0  0  2  0  0  0  0  0  0
  189.6760  178.1860  142.4650 C   0  0  1  0  0  3  0  0  0  0  0  0
  191.4720  178.9230  144.0610 O   0  0  0  0  0  1  0  0  0  0  0  0
  191.0060  177.9910  143.1400 C   0  0  0  0  0  0  0  0  0  0  0  0
  191.7410  177.0220  142.8160 O   0  0  0  0  0  0  0  0  0  0  0  0
  189.3430  176.9160  141.1890 S   0  0  0  0  0  0  0  0  0  0  0  0
  186.0000  178.1740  137.9520 C   0  0  0  0  0  1  0  0  0  0  0  0
  189.1470  178.1490  139.8660 C   0  0  2  0  0  3  0  0  0  0  0  0
  187.3900  178.0350  138.4580 C   0  0  0  0  0  0  0  0  0  0  0  0
  187.7300  178.4080  139.6520 N   0  0  0  0  0  0  0  0  0  0  0  0
  190.7020  177.2000  138.2500 O   0  0  0  0  0  0  0  0  0  0  0  0
  188.4390  177.4870  137.6710 N   0  0  0  0  0  2  0  0  0  0  0  0
  189.5380  177.5660  138.5580 C   0  0  0  0  0  0  0  0  0  0  0  0
  1 17  1  6  0  0  0
  1  3  1  0  0  0  0
  2  5  2  0  0  0  0
  2  1  1  0  0  0  0
  3  9  1  1  0  0  0
  4  3  1  0  0  0  0
  5  4  1  0  0  0  0
  7  6  1  0  0  0  0
  7  5  1  0  0  0  0
  9 10  1  0  0  0  0
  9  8  1  1  0  0  0
 10 11  1  1  0  0  0
 12 10  1  0  0  0  0
 12 13  1  0  0  0  0
 15 16  2  0  0  0  0
 16 13  1  0  0  0  0
 16 14  1  0  0  0  0
 17 18  1  0  0  0  0
 19 23  1  6  0  0  0
 19 21  1  0  0  0  0
 19 18  1  0  0  0  0
 21 20  1  0  0  0  0
 22 21  2  0  0  0  0
 24 26  1  0  0  0  0
 25 23  1  1  0  0  0
 26 27  2  0  0  0  0
 27 25  1  0  0  0  0
 28 30  2  0  0  0  0
 29 26  1  0  0  0  0
 29 30  1  0  0  0  0
 30 25  1  0  0  0  0
M  END
>  <MODEL>
9

>  <REMARK>
 VINA RESULT:      -6.7      2.917      6.566
  Name = 
  12 active torsions:
  status: ('A' for Active; 'I' for Inactive)
    1  A    between atoms: C_1  and  C_6
    2  A    between atoms: C_1  and  C_19
    3  A    between atoms: S_2  and  C_5
    4  A    between atoms: S_2  and  C_21
    5  A    between atoms: C_4  and  C_20
    6  A    between atoms: C_6  and  C_25
    7  A    between atoms: C_12  and  C_19
    8  A    between atoms: N_16  and  C_20
    9  A    between atoms: N_16  and  C_21
   10  A    between atoms: C_21  and  C_23
   11  A    between atoms: C_22  and  C_28
   12  A    between atoms: C_25  and  C_26
                            x       y       z     vdW  Elec       q    Type
                         _______ _______ _______ _____ _____    ______ ____

>  <TORSDO>
F 12

$$$$
