=
 OpenBabel10232409003D

 46 48  0  0  1  0  0  0  0  0999 V2000
  188.3440  177.8990  140.0850 C   0  0  0  0  0  0  0  0  0  0  0  0
  186.5620  177.4400  136.7610 C   0  0  0  0  0  1  0  0  0  0  0  0
  187.4060  178.0250  139.0470 C   0  0  0  0  0  0  0  0  0  0  0  0
  186.2980  178.8530  139.2110 O   0  0  0  0  0  1  0  0  0  0  0  0
  188.6950  176.4640  137.6940 C   0  0  0  0  0  0  0  0  0  0  0  0
  189.4520  177.0620  139.9230 C   0  0  0  0  0  3  0  0  0  0  0  0
  187.5780  177.3090  137.8510 C   0  0  0  0  0  0  0  0  0  0  0  0
  189.6260  176.3510  138.7370 C   0  0  0  0  0  3  0  0  0  0  0  0
  188.1300  178.5890  141.3940 C   0  0  0  0  0  2  0  0  0  0  0  0
  188.2350  177.0480  143.4430 C   0  0  2  0  0  3  0  0  0  0  0  0
  187.3600  177.7000  142.3790 C   0  0  1  0  0  3  0  0  0  0  0  0
  187.2630  176.7430  144.5680 C   0  0  0  0  0  2  0  0  0  0  0  0
  186.1820  177.8110  144.5060 C   0  0  0  0  0  2  0  0  0  0  0  0
  186.2590  178.4400  143.1230 C   0  0  2  0  0  3  0  0  0  0  0  0
  184.9390  178.2650  142.3940 C   0  0  0  0  0  2  0  0  0  0  0  0
  183.8600  179.0920  143.0660 C   0  0  0  0  0  2  0  0  0  0  0  0
  182.6230  178.7760  142.5090 O   0  0  0  0  0  0  0  0  0  0  0  0
  182.8780  178.6300  141.1450 C   0  0  0  0  0  1  0  0  0  0  0  0
  189.3240  177.9880  143.9630 C   0  0  0  0  0  2  0  0  0  0  0  0
  191.6610  177.6080  143.7160 O   0  0  0  0  0  1  0  0  0  0  0  0
  190.5380  177.2060  144.4450 C   0  0  1  0  0  3  0  0  0  0  0  0
  191.0350  176.2100  146.5620 O   0  0  0  0  0  1  0  0  0  0  0  0
  190.7720  177.4310  145.9380 C   0  0  2  0  0  3  0  0  0  0  0  0
  189.5430  178.0500  146.5880 C   0  0  0  0  0  2  0  0  0  0  0  0
  189.4670  177.6680  148.0580 C   0  0  0  0  0  2  0  0  0  0  0  0
  188.1200  178.0010  148.6060 C   0  0  0  0  0  3  0  0  0  0  0  0
  187.2330  178.3900  147.8640 O   0  0  0  0  0  0  0  0  0  0  0  0
  188.8750  175.6630  136.4330 C   0  0  2  0  0  3  0  0  0  0  0  0
  184.0550  173.2910  134.3490 O   0  0  0  0  0  0  0  0  0  0  0  0
  185.7190  172.2090  135.6770 C   0  0  0  0  0  0  0  0  0  0  0  0
  187.2630  173.8030  136.0540 C   0  0  0  0  0  0  0  0  0  0  0  0
  186.1570  174.8100  135.0470 S   0  0  0  0  0  0  0  0  0  0  0  0
  186.8450  172.4570  136.2610 N   0  0  0  0  0  0  0  0  0  0  0  0
  188.3840  174.2590  136.6080 C   0  0  0  0  0  3  0  0  0  0  0  0
  185.1510  173.3400  134.9640 C   0  0  0  0  0  0  0  0  0  0  0  0
  185.1000  170.9600  135.7290 O   0  0  0  0  0  0  0  0  0  0  0  0
  183.8750  170.7580  136.4180 C   0  0  0  0  0  2  0  0  0  0  0  0
  182.9620  169.8870  135.5810 C   0  0  0  0  0  1  0  0  0  0  0  0
  190.2950  175.7080  135.9380 C   0  0  0  0  0  0  0  0  0  0  0  0
  190.7760  173.8380  137.2950 O   0  0  0  0  0  1  0  0  0  0  0  0
  190.6460  176.6780  135.0030 O   0  0  0  0  0  1  0  0  0  0  0  0
  191.1920  174.8100  136.3850 C   0  0  0  0  0  0  0  0  0  0  0  0
  192.9880  174.2060  134.8680 N   0  0  0  0  0  2  0  0  0  0  0  0
  192.6130  174.7910  135.9580 C   0  0  0  0  0  0  0  0  0  0  0  0
  193.6190  175.5900  136.7170 C   0  0  0  0  0  2  0  0  0  0  0  0
  194.8050  174.8650  136.8360 O   0  0  0  0  0  1  0  0  0  0  0  0
  1  9  1  0  0  0  0
  2  7  1  0  0  0  0
  3  4  1  0  0  0  0
  3  1  2  0  0  0  0
  5  7  2  0  0  0  0
  5  8  1  0  0  0  0
  6  1  1  0  0  0  0
  7  3  1  0  0  0  0
  8  6  2  0  0  0  0
 10 19  1  1  0  0  0
 10 12  1  0  0  0  0
 11  9  1  1  0  0  0
 11 14  1  0  0  0  0
 11 10  1  0  0  0  0
 13 12  1  0  0  0  0
 14 15  1  6  0  0  0
 14 13  1  0  0  0  0
 15 16  1  0  0  0  0
 17 16  1  0  0  0  0
 18 17  1  0  0  0  0
 19 21  1  0  0  0  0
 21 20  1  6  0  0  0
 21 23  1  0  0  0  0
 23 22  1  1  0  0  0
 23 24  1  0  0  0  0
 24 25  1  0  0  0  0
 25 26  1  0  0  0  0
 27 26  2  0  0  0  0
 28 34  1  1  0  0  0
 28  5  1  0  0  0  0
 29 35  2  0  0  0  0
 30 36  1  0  0  0  0
 30 33  2  0  0  0  0
 31 33  1  0  0  0  0
 31 34  2  0  0  0  0
 32 31  1  0  0  0  0
 35 32  1  0  0  0  0
 35 30  1  0  0  0  0
 36 37  1  0  0  0  0
 38 37  1  0  0  0  0
 39 42  2  0  0  0  0
 39 28  1  0  0  0  0
 41 39  1  0  0  0  0
 42 40  1  0  0  0  0
 43 44  2  0  0  0  0
 44 42  1  0  0  0  0
 44 45  1  0  0  0  0
 45 46  1  0  0  0  0
M  END
>  <MODEL>
1

>  <REMARK>
 VINA RESULT:      -6.7      0.000      0.000
  Name = 
  18 active torsions:
  status: ('A' for Active; 'I' for Inactive)
    1  A    between atoms: C_1  and  C_21
    2  A    between atoms: C_3  and  C_11
    3  A    between atoms: C_3  and  C_22
    4  A    between atoms: C_3  and  C_38
    5  A    between atoms: C_4  and  C_23
    6  A    between atoms: C_5  and  C_18
    7  A    between atoms: C_6  and  C_21
    8  A    between atoms: O_8  and  C_14
    9  A    between atoms: O_8  and  C_26
   10  A    between atoms: O_13  and  C_35
   11  A    between atoms: C_18  and  C_45
   12  A    between atoms: C_23  and  C_30
   13  A    between atoms: C_27  and  C_34
   14  A    between atoms: C_27  and  C_40
   15  A    between atoms: C_28  and  C_34
   16  A    between atoms: C_30  and  C_40
   17  A    between atoms: C_31  and  C_33
   18  A    between atoms: C_31  and  C_35
                            x       y       z     vdW  Elec       q    Type
                         _______ _______ _______ _____ _____    ______ ____

>  <TORSDO>
F 18

$$$$
=
 OpenBabel10232409003D

 46 48  0  0  1  0  0  0  0  0999 V2000
  189.2870  177.8940  142.1070 C   0  0  0  0  0  0  0  0  0  0  0  0
  192.5720  177.2790  140.3010 C   0  0  0  0  0  1  0  0  0  0  0  0
  190.6620  177.8300  141.8260 C   0  0  0  0  0  0  0  0  0  0  0  0
  191.5840  178.2800  142.7680 O   0  0  0  0  0  1  0  0  0  0  0  0
  190.1690  176.8820  139.6380 C   0  0  0  0  0  0  0  0  0  0  0  0
  188.3620  177.4500  141.1590 C   0  0  0  0  0  3  0  0  0  0  0  0
  191.1060  177.3250  140.5920 C   0  0  0  0  0  0  0  0  0  0  0  0
  188.7990  176.9470  139.9340 C   0  0  0  0  0  3  0  0  0  0  0  0
  188.7970  178.5060  143.3800 C   0  0  0  0  0  2  0  0  0  0  0  0
  187.6630  177.3770  145.3870 C   0  0  2  0  0  3  0  0  0  0  0  0
  187.5620  177.7710  143.9180 C   0  0  1  0  0  3  0  0  0  0  0  0
  186.2160  177.2300  145.8190 C   0  0  0  0  0  2  0  0  0  0  0  0
  185.4120  178.2050  144.9720 C   0  0  0  0  0  2  0  0  0  0  0  0
  186.2770  178.5720  143.7760 C   0  0  2  0  0  3  0  0  0  0  0  0
  185.5730  178.1900  142.4860 C   0  0  0  0  0  2  0  0  0  0  0  0
  184.1600  178.7380  142.4810 C   0  0  0  0  0  2  0  0  0  0  0  0
  183.6830  178.7740  141.1730 O   0  0  0  0  0  0  0  0  0  0  0  0
  184.8180  178.9940  140.3920 C   0  0  0  0  0  1  0  0  0  0  0  0
  188.3330  178.4580  146.2390 C   0  0  0  0  0  2  0  0  0  0  0  0
  188.5940  177.5450  148.4210 O   0  0  0  0  0  1  0  0  0  0  0  0
  189.2920  177.8430  147.2480 C   0  0  1  0  0  3  0  0  0  0  0  0
  190.5300  175.8500  147.7160 O   0  0  0  0  0  1  0  0  0  0  0  0
  189.9370  176.5770  146.6830 C   0  0  2  0  0  3  0  0  0  0  0  0
  191.0100  176.9300  145.6630 C   0  0  0  0  0  2  0  0  0  0  0  0
  192.0920  175.8610  145.6370 C   0  0  0  0  0  2  0  0  0  0  0  0
  191.9960  175.0640  144.3790 C   0  0  0  0  0  3  0  0  0  0  0  0
  191.0470  175.2130  143.6270 O   0  0  0  0  0  0  0  0  0  0  0  0
  190.6260  176.3710  138.2990 C   0  0  2  0  0  3  0  0  0  0  0  0
  194.6230  173.8140  135.0280 O   0  0  0  0  0  0  0  0  0  0  0  0
  194.8270  175.9110  136.1530 C   0  0  0  0  0  0  0  0  0  0  0  0
  192.8440  176.1950  137.1800 C   0  0  0  0  0  0  0  0  0  0  0  0
  192.4590  174.6150  136.4030 S   0  0  0  0  0  0  0  0  0  0  0  0
  194.1490  176.7030  136.9150 N   0  0  0  0  0  0  0  0  0  0  0  0
  192.0070  176.8550  137.9770 C   0  0  0  0  0  3  0  0  0  0  0  0
  194.1180  174.7070  135.7550 C   0  0  0  0  0  0  0  0  0  0  0  0
  196.1330  176.1870  135.7470 O   0  0  0  0  0  0  0  0  0  0  0  0
  196.4130  176.8700  134.5340 C   0  0  0  0  0  2  0  0  0  0  0  0
  196.1690  178.3530  134.7210 C   0  0  0  0  0  1  0  0  0  0  0  0
  189.6440  176.6980  137.2070 C   0  0  0  0  0  0  0  0  0  0  0  0
  188.9970  174.4300  137.1760 O   0  0  0  0  0  1  0  0  0  0  0  0
  189.5410  178.0180  136.7760 O   0  0  0  0  0  1  0  0  0  0  0  0
  188.8760  175.7270  136.6810 C   0  0  0  0  0  0  0  0  0  0  0  0
  188.1850  175.7450  134.3540 N   0  0  0  0  0  2  0  0  0  0  0  0
  187.8920  175.9620  135.5940 C   0  0  0  0  0  0  0  0  0  0  0  0
  186.4840  176.3120  135.9410 C   0  0  0  0  0  2  0  0  0  0  0  0
  186.3590  176.4500  137.3230 O   0  0  0  0  0  1  0  0  0  0  0  0
  1  9  1  0  0  0  0
  2  7  1  0  0  0  0
  3  1  1  0  0  0  0
  3  4  1  0  0  0  0
  5  8  2  0  0  0  0
  5  7  1  0  0  0  0
  6  1  2  0  0  0  0
  7  3  2  0  0  0  0
  8  6  1  0  0  0  0
 10 12  1  0  0  0  0
 10 19  1  1  0  0  0
 11  9  1  1  0  0  0
 11 10  1  0  0  0  0
 13 12  1  0  0  0  0
 14 15  1  6  0  0  0
 14 11  1  0  0  0  0
 14 13  1  0  0  0  0
 16 15  1  0  0  0  0
 17 16  1  0  0  0  0
 18 17  1  0  0  0  0
 19 21  1  0  0  0  0
 21 20  1  1  0  0  0
 23 21  1  0  0  0  0
 23 22  1  1  0  0  0
 24 23  1  0  0  0  0
 25 24  1  0  0  0  0
 26 25  1  0  0  0  0
 27 26  2  0  0  0  0
 28 34  1  6  0  0  0
 28  5  1  0  0  0  0
 29 35  2  0  0  0  0
 30 33  2  0  0  0  0
 31 34  2  0  0  0  0
 32 31  1  0  0  0  0
 33 31  1  0  0  0  0
 35 30  1  0  0  0  0
 35 32  1  0  0  0  0
 36 30  1  0  0  0  0
 37 38  1  0  0  0  0
 37 36  1  0  0  0  0
 39 28  1  0  0  0  0
 41 39  1  0  0  0  0
 42 40  1  0  0  0  0
 42 39  2  0  0  0  0
 43 44  2  0  0  0  0
 44 45  1  0  0  0  0
 44 42  1  0  0  0  0
 45 46  1  0  0  0  0
M  END
>  <MODEL>
2

>  <REMARK>
 VINA RESULT:      -6.5      2.677      5.870
  Name = 
  18 active torsions:
  status: ('A' for Active; 'I' for Inactive)
    1  A    between atoms: C_1  and  C_21
    2  A    between atoms: C_3  and  C_11
    3  A    between atoms: C_3  and  C_22
    4  A    between atoms: C_3  and  C_38
    5  A    between atoms: C_4  and  C_23
    6  A    between atoms: C_5  and  C_18
    7  A    between atoms: C_6  and  C_21
    8  A    between atoms: O_8  and  C_14
    9  A    between atoms: O_8  and  C_26
   10  A    between atoms: O_13  and  C_35
   11  A    between atoms: C_18  and  C_45
   12  A    between atoms: C_23  and  C_30
   13  A    between atoms: C_27  and  C_34
   14  A    between atoms: C_27  and  C_40
   15  A    between atoms: C_28  and  C_34
   16  A    between atoms: C_30  and  C_40
   17  A    between atoms: C_31  and  C_33
   18  A    between atoms: C_31  and  C_35
                            x       y       z     vdW  Elec       q    Type
                         _______ _______ _______ _____ _____    ______ ____

>  <TORSDO>
F 18

$$$$
=
 OpenBabel10232409003D

 46 48  0  0  1  0  0  0  0  0999 V2000
  186.5740  177.0640  136.7820 C   0  0  0  0  0  0  0  0  0  0  0  0
  189.3240  179.2820  138.1790 C   0  0  0  0  0  1  0  0  0  0  0  0
  187.3090  178.2030  137.1520 C   0  0  0  0  0  0  0  0  0  0  0  0
  186.8170  179.4720  136.8580 O   0  0  0  0  0  1  0  0  0  0  0  0
  189.0430  176.7750  138.0920 C   0  0  0  0  0  0  0  0  0  0  0  0
  187.0710  175.7910  137.0710 C   0  0  0  0  0  3  0  0  0  0  0  0
  188.5450  178.0610  137.8070 C   0  0  0  0  0  0  0  0  0  0  0  0
  188.2960  175.6470  137.7210 C   0  0  0  0  0  3  0  0  0  0  0  0
  185.3000  177.1980  136.0110 C   0  0  0  0  0  2  0  0  0  0  0  0
  183.7720  176.6610  138.0030 C   0  0  2  0  0  3  0  0  0  0  0  0
  184.1980  176.2970  136.5860 C   0  0  1  0  0  3  0  0  0  0  0  0
  182.3750  176.0810  138.1180 C   0  0  0  0  0  2  0  0  0  0  0  0
  181.7750  176.1220  136.7210 C   0  0  0  0  0  2  0  0  0  0  0  0
  182.9300  176.2870  135.7460 C   0  0  2  0  0  3  0  0  0  0  0  0
  182.9650  175.1200  134.7750 C   0  0  0  0  0  2  0  0  0  0  0  0
  183.8240  174.0030  135.3340 C   0  0  0  0  0  2  0  0  0  0  0  0
  183.1300  172.7980  135.2450 O   0  0  0  0  0  0  0  0  0  0  0  0
  182.7020  172.5430  136.5470 C   0  0  0  0  0  1  0  0  0  0  0  0
  183.7060  178.1740  138.2240 C   0  0  0  0  0  2  0  0  0  0  0  0
  184.5580  179.9590  139.5480 O   0  0  0  0  0  1  0  0  0  0  0  0
  184.4080  178.5700  139.5150 C   0  0  1  0  0  3  0  0  0  0  0  0
  182.4630  178.8740  140.8740 O   0  0  0  0  0  1  0  0  0  0  0  0
  183.6140  178.0970  140.7330 C   0  0  2  0  0  3  0  0  0  0  0  0
  184.4440  178.2290  142.0010 C   0  0  0  0  0  2  0  0  0  0  0  0
  183.6840  179.0170  143.0560 C   0  0  0  0  0  2  0  0  0  0  0  0
  184.2530  178.7470  144.4090 C   0  0  0  0  0  3  0  0  0  0  0  0
  183.6160  179.0290  145.4120 O   0  0  0  0  0  0  0  0  0  0  0  0
  190.3800  176.6050  138.7610 C   0  0  2  0  0  3  0  0  0  0  0  0
  194.9850  175.4310  135.5010 O   0  0  0  0  0  0  0  0  0  0  0  0
  193.6230  173.8540  136.6690 C   0  0  0  0  0  0  0  0  0  0  0  0
  192.0670  175.1100  137.7030 C   0  0  0  0  0  0  0  0  0  0  0  0
  192.9640  176.4710  136.9330 S   0  0  0  0  0  0  0  0  0  0  0  0
  192.5860  173.8090  137.4370 N   0  0  0  0  0  0  0  0  0  0  0  0
  190.9760  175.2670  138.4490 C   0  0  0  0  0  3  0  0  0  0  0  0
  194.0100  175.1930  136.2590 C   0  0  0  0  0  0  0  0  0  0  0  0
  194.3130  172.7110  136.2640 O   0  0  0  0  0  0  0  0  0  0  0  0
  193.6390  171.5540  135.7910 C   0  0  0  0  0  2  0  0  0  0  0  0
  194.2950  170.3170  136.3650 C   0  0  0  0  0  1  0  0  0  0  0  0
  190.3030  176.8580  140.2420 C   0  0  0  0  0  0  0  0  0  0  0  0
  192.5720  177.5010  140.2020 O   0  0  0  0  0  1  0  0  0  0  0  0
  189.0870  176.6590  140.8910 O   0  0  0  0  0  1  0  0  0  0  0  0
  191.3910  177.2850  140.9090 C   0  0  0  0  0  0  0  0  0  0  0  0
  191.1040  178.7050  142.8560 N   0  0  0  0  0  2  0  0  0  0  0  0
  191.4040  177.5460  142.3700 C   0  0  0  0  0  0  0  0  0  0  0  0
  191.6200  176.4130  143.3170 C   0  0  0  0  0  2  0  0  0  0  0  0
  190.3890  175.9140  143.7430 O   0  0  0  0  0  1  0  0  0  0  0  0
  1  6  2  0  0  0  0
  1  3  1  0  0  0  0
  3  7  2  0  0  0  0
  4  3  1  0  0  0  0
  5 28  1  0  0  0  0
  6  8  1  0  0  0  0
  7  5  1  0  0  0  0
  7  2  1  0  0  0  0
  8  5  2  0  0  0  0
  9  1  1  0  0  0  0
 10 12  1  0  0  0  0
 10 19  1  6  0  0  0
 11  9  1  6  0  0  0
 11 10  1  0  0  0  0
 13 12  1  0  0  0  0
 14 15  1  6  0  0  0
 14 11  1  0  0  0  0
 14 13  1  0  0  0  0
 15 16  1  0  0  0  0
 17 16  1  0  0  0  0
 17 18  1  0  0  0  0
 19 21  1  0  0  0  0
 21 20  1  1  0  0  0
 21 23  1  0  0  0  0
 23 22  1  1  0  0  0
 23 24  1  0  0  0  0
 24 25  1  0  0  0  0
 25 26  1  0  0  0  0
 26 27  2  0  0  0  0
 28 34  1  1  0  0  0
 28 39  1  0  0  0  0
 29 35  2  0  0  0  0
 30 33  2  0  0  0  0
 31 34  2  0  0  0  0
 32 31  1  0  0  0  0
 33 31  1  0  0  0  0
 35 30  1  0  0  0  0
 35 32  1  0  0  0  0
 36 30  1  0  0  0  0
 37 36  1  0  0  0  0
 37 38  1  0  0  0  0
 39 41  1  0  0  0  0
 39 42  2  0  0  0  0
 40 42  1  0  0  0  0
 42 44  1  0  0  0  0
 44 43  2  0  0  0  0
 44 45  1  0  0  0  0
 45 46  1  0  0  0  0
M  END
>  <MODEL>
3

>  <REMARK>
 VINA RESULT:      -6.4      2.907      7.158
  Name = 
  18 active torsions:
  status: ('A' for Active; 'I' for Inactive)
    1  A    between atoms: C_1  and  C_21
    2  A    between atoms: C_3  and  C_11
    3  A    between atoms: C_3  and  C_22
    4  A    between atoms: C_3  and  C_38
    5  A    between atoms: C_4  and  C_23
    6  A    between atoms: C_5  and  C_18
    7  A    between atoms: C_6  and  C_21
    8  A    between atoms: O_8  and  C_14
    9  A    between atoms: O_8  and  C_26
   10  A    between atoms: O_13  and  C_35
   11  A    between atoms: C_18  and  C_45
   12  A    between atoms: C_23  and  C_30
   13  A    between atoms: C_27  and  C_34
   14  A    between atoms: C_27  and  C_40
   15  A    between atoms: C_28  and  C_34
   16  A    between atoms: C_30  and  C_40
   17  A    between atoms: C_31  and  C_33
   18  A    between atoms: C_31  and  C_35
                            x       y       z     vdW  Elec       q    Type
                         _______ _______ _______ _____ _____    ______ ____

>  <TORSDO>
F 18

$$$$
=
 OpenBabel10232409003D

 46 48  0  0  1  0  0  0  0  0999 V2000
  188.5740  177.9500  143.5420 C   0  0  0  0  0  0  0  0  0  0  0  0
  191.7770  177.6530  141.5220 C   0  0  0  0  0  1  0  0  0  0  0  0
  189.9340  177.9560  143.1920 C   0  0  0  0  0  0  0  0  0  0  0  0
  190.8930  178.3010  144.1420 O   0  0  0  0  0  1  0  0  0  0  0  0
  189.3520  177.2890  140.9240 C   0  0  0  0  0  0  0  0  0  0  0  0
  187.6110  177.6110  142.5880 C   0  0  0  0  0  3  0  0  0  0  0  0
  190.3260  177.6260  141.8840 C   0  0  0  0  0  0  0  0  0  0  0  0
  187.9970  177.2820  141.2890 C   0  0  0  0  0  3  0  0  0  0  0  0
  188.1360  178.3800  144.9060 C   0  0  0  0  0  2  0  0  0  0  0  0
  186.3770  177.6210  146.6150 C   0  0  2  0  0  3  0  0  0  0  0  0
  186.6710  178.0060  145.1700 C   0  0  1  0  0  3  0  0  0  0  0  0
  184.8870  177.8690  146.7560 C   0  0  0  0  0  2  0  0  0  0  0  0
  184.5470  179.0080  145.8080 C   0  0  0  0  0  2  0  0  0  0  0  0
  185.6940  179.1150  144.8140 C   0  0  2  0  0  3  0  0  0  0  0  0
  185.1800  178.9140  143.3990 C   0  0  0  0  0  2  0  0  0  0  0  0
  183.7680  178.3650  143.4310 C   0  0  0  0  0  2  0  0  0  0  0  0
  183.0460  178.8830  142.3580 O   0  0  0  0  0  0  0  0  0  0  0  0
  181.7630  179.0890  142.8660 C   0  0  0  0  0  1  0  0  0  0  0  0
  187.1280  178.4990  147.6190 C   0  0  0  0  0  2  0  0  0  0  0  0
  187.5160  176.3110  148.4710 O   0  0  0  0  0  1  0  0  0  0  0  0
  187.8830  177.6500  148.6310 C   0  0  1  0  0  3  0  0  0  0  0  0
  189.6810  179.0910  147.9880 O   0  0  0  0  0  1  0  0  0  0  0  0
  189.3940  177.8070  148.4540 C   0  0  2  0  0  3  0  0  0  0  0  0
  189.9240  176.7980  147.4450 C   0  0  0  0  0  2  0  0  0  0  0  0
  191.4340  176.6690  147.5640 C   0  0  0  0  0  2  0  0  0  0  0  0
  192.0010  176.0850  146.3130 C   0  0  0  0  0  3  0  0  0  0  0  0
  192.4860  174.9650  146.3220 O   0  0  0  0  0  0  0  0  0  0  0  0
  189.7520  176.9670  139.5100 C   0  0  2  0  0  3  0  0  0  0  0  0
  193.2090  173.6390  136.3190 O   0  0  0  0  0  0  0  0  0  0  0  0
  193.8580  175.5270  137.6310 C   0  0  0  0  0  0  0  0  0  0  0  0
  191.9360  176.2700  138.5380 C   0  0  0  0  0  0  0  0  0  0  0  0
  191.2190  174.9060  137.6030 S   0  0  0  0  0  0  0  0  0  0  0  0
  193.3470  176.4220  138.4090 N   0  0  0  0  0  0  0  0  0  0  0  0
  191.2350  177.0790  139.3280 C   0  0  0  0  0  3  0  0  0  0  0  0
  192.8950  174.5870  137.0830 C   0  0  0  0  0  0  0  0  0  0  0  0
  195.2220  175.4650  137.3420 O   0  0  0  0  0  0  0  0  0  0  0  0
  196.0140  174.3430  137.7000 C   0  0  0  0  0  2  0  0  0  0  0  0
  197.2860  174.3390  136.8780 C   0  0  0  0  0  1  0  0  0  0  0  0
  188.9960  177.7970  138.5090 C   0  0  0  0  0  0  0  0  0  0  0  0
  187.9070  175.8360  137.7770 O   0  0  0  0  0  1  0  0  0  0  0  0
  189.2160  179.1720  138.4790 O   0  0  0  0  0  1  0  0  0  0  0  0
  188.1140  177.2110  137.6790 C   0  0  0  0  0  0  0  0  0  0  0  0
  186.4110  178.7940  136.9830 N   0  0  0  0  0  2  0  0  0  0  0  0
  187.3370  177.9540  136.6550 C   0  0  0  0  0  0  0  0  0  0  0  0
  187.7250  177.8500  135.2190 C   0  0  0  0  0  2  0  0  0  0  0  0
  189.0910  177.5860  135.1180 O   0  0  0  0  0  1  0  0  0  0  0  0
  1  9  1  0  0  0  0
  2  7  1  0  0  0  0
  3  1  1  0  0  0  0
  3  4  1  0  0  0  0
  5  8  2  0  0  0  0
  5  7  1  0  0  0  0
  6  1  2  0  0  0  0
  7  3  2  0  0  0  0
  8  6  1  0  0  0  0
 10 12  1  0  0  0  0
 10 19  1  1  0  0  0
 11  9  1  1  0  0  0
 11 10  1  0  0  0  0
 13 12  1  0  0  0  0
 14 15  1  6  0  0  0
 14 11  1  0  0  0  0
 14 13  1  0  0  0  0
 15 16  1  0  0  0  0
 17 18  1  0  0  0  0
 17 16  1  0  0  0  0
 19 21  1  0  0  0  0
 21 20  1  6  0  0  0
 23 22  1  6  0  0  0
 23 21  1  0  0  0  0
 24 25  1  0  0  0  0
 24 23  1  0  0  0  0
 26 27  2  0  0  0  0
 26 25  1  0  0  0  0
 28 34  1  1  0  0  0
 28  5  1  0  0  0  0
 29 35  2  0  0  0  0
 30 33  2  0  0  0  0
 31 34  2  0  0  0  0
 32 31  1  0  0  0  0
 33 31  1  0  0  0  0
 35 32  1  0  0  0  0
 35 30  1  0  0  0  0
 36 30  1  0  0  0  0
 36 37  1  0  0  0  0
 38 37  1  0  0  0  0
 39 28  1  0  0  0  0
 41 39  1  0  0  0  0
 42 40  1  0  0  0  0
 42 39  2  0  0  0  0
 44 43  2  0  0  0  0
 44 42  1  0  0  0  0
 45 44  1  0  0  0  0
 46 45  1  0  0  0  0
M  END
>  <MODEL>
4

>  <REMARK>
 VINA RESULT:      -6.3      3.207      5.891
  Name = 
  18 active torsions:
  status: ('A' for Active; 'I' for Inactive)
    1  A    between atoms: C_1  and  C_21
    2  A    between atoms: C_3  and  C_11
    3  A    between atoms: C_3  and  C_22
    4  A    between atoms: C_3  and  C_38
    5  A    between atoms: C_4  and  C_23
    6  A    between atoms: C_5  and  C_18
    7  A    between atoms: C_6  and  C_21
    8  A    between atoms: O_8  and  C_14
    9  A    between atoms: O_8  and  C_26
   10  A    between atoms: O_13  and  C_35
   11  A    between atoms: C_18  and  C_45
   12  A    between atoms: C_23  and  C_30
   13  A    between atoms: C_27  and  C_34
   14  A    between atoms: C_27  and  C_40
   15  A    between atoms: C_28  and  C_34
   16  A    between atoms: C_30  and  C_40
   17  A    between atoms: C_31  and  C_33
   18  A    between atoms: C_31  and  C_35
                            x       y       z     vdW  Elec       q    Type
                         _______ _______ _______ _____ _____    ______ ____

>  <TORSDO>
F 18

$$$$
=
 OpenBabel10232409003D

 46 48  0  0  1  0  0  0  0  0999 V2000
  185.4390  178.8040  140.4350 C   0  0  0  0  0  0  0  0  0  0  0  0
  188.5850  178.2060  138.3920 C   0  0  0  0  0  1  0  0  0  0  0  0
  186.3360  178.7430  139.3550 C   0  0  0  0  0  0  0  0  0  0  0  0
  185.9170  179.1300  138.0840 O   0  0  0  0  0  1  0  0  0  0  0  0
  188.0620  177.8800  140.8400 C   0  0  0  0  0  0  0  0  0  0  0  0
  185.8550  178.4080  141.7090 C   0  0  0  0  0  3  0  0  0  0  0  0
  187.6480  178.2810  139.5540 C   0  0  0  0  0  0  0  0  0  0  0  0
  187.1570  177.9510  141.9100 C   0  0  0  0  0  3  0  0  0  0  0  0
  184.0160  179.2130  140.2220 C   0  0  0  0  0  2  0  0  0  0  0  0
  181.9080  177.9580  140.9770 C   0  0  2  0  0  3  0  0  0  0  0  0
  183.1030  177.9940  140.0320 C   0  0  1  0  0  3  0  0  0  0  0  0
  180.9080  177.0740  140.2570 C   0  0  0  0  0  2  0  0  0  0  0  0
  181.1540  177.2690  138.7680 C   0  0  0  0  0  2  0  0  0  0  0  0
  182.5390  177.8790  138.6240 C   0  0  2  0  0  3  0  0  0  0  0  0
  183.4250  176.9730  137.7870 C   0  0  0  0  0  2  0  0  0  0  0  0
  182.7410  175.6390  137.5640 C   0  0  0  0  0  2  0  0  0  0  0  0
  183.2710  175.0330  136.4260 O   0  0  0  0  0  0  0  0  0  0  0  0
  184.4950  175.6730  136.2260 C   0  0  0  0  0  1  0  0  0  0  0  0
  181.2910  179.3410  141.1940 C   0  0  0  0  0  2  0  0  0  0  0  0
  179.9840  179.7130  143.1480 O   0  0  0  0  0  1  0  0  0  0  0  0
  181.2970  179.7170  142.6700 C   0  0  1  0  0  3  0  0  0  0  0  0
  181.4340  178.2870  144.5830 O   0  0  0  0  0  1  0  0  0  0  0  0
  182.1540  178.7420  143.4760 C   0  0  2  0  0  3  0  0  0  0  0  0
  183.4210  179.4230  143.9710 C   0  0  0  0  0  2  0  0  0  0  0  0
  183.8840  178.8010  145.2800 C   0  0  0  0  0  2  0  0  0  0  0  0
  185.2990  179.1850  145.5590 C   0  0  0  0  0  3  0  0  0  0  0  0
  185.8560  178.7850  146.5690 O   0  0  0  0  0  0  0  0  0  0  0  0
  189.4520  177.3510  141.0640 C   0  0  2  0  0  3  0  0  0  0  0  0
  193.9630  176.8620  137.5100 O   0  0  0  0  0  0  0  0  0  0  0  0
  192.1880  175.2880  137.7900 C   0  0  0  0  0  0  0  0  0  0  0  0
  190.8590  176.2080  139.3560 C   0  0  0  0  0  0  0  0  0  0  0  0
  192.0980  177.5170  139.3300 S   0  0  0  0  0  0  0  0  0  0  0  0
  191.1020  175.1210  138.4670 N   0  0  0  0  0  0  0  0  0  0  0  0
  189.7660  176.2350  140.1140 C   0  0  0  0  0  3  0  0  0  0  0  0
  192.8950  176.5230  138.0820 C   0  0  0  0  0  0  0  0  0  0  0  0
  192.6460  174.3590  136.8540 O   0  0  0  0  0  0  0  0  0  0  0  0
  191.7990  173.8360  135.8410 C   0  0  0  0  0  2  0  0  0  0  0  0
  192.3830  172.5420  135.3140 C   0  0  0  0  0  1  0  0  0  0  0  0
  189.6780  176.9540  142.4970 C   0  0  0  0  0  0  0  0  0  0  0  0
  190.5290  179.1150  142.9110 O   0  0  0  0  0  1  0  0  0  0  0  0
  189.3090  175.6740  142.9020 O   0  0  0  0  0  1  0  0  0  0  0  0
  190.2110  177.8350  143.3630 C   0  0  0  0  0  0  0  0  0  0  0  0
  191.6080  177.0250  145.1750 N   0  0  0  0  0  2  0  0  0  0  0  0
  190.4790  177.5210  144.7890 C   0  0  0  0  0  0  0  0  0  0  0  0
  189.4860  177.9220  145.8280 C   0  0  0  0  0  2  0  0  0  0  0  0
  188.5180  176.9270  145.9640 O   0  0  0  0  0  1  0  0  0  0  0  0
  1  6  1  0  0  0  0
  2  7  1  0  0  0  0
  3  7  1  0  0  0  0
  3  1  2  0  0  0  0
  4  3  1  0  0  0  0
  5 28  1  0  0  0  0
  5  8  1  0  0  0  0
  6  8  2  0  0  0  0
  7  5  2  0  0  0  0
  9  1  1  0  0  0  0
 10 19  1  6  0  0  0
 11  9  1  6  0  0  0
 11 10  1  0  0  0  0
 12 10  1  0  0  0  0
 13 12  1  0  0  0  0
 14 15  1  6  0  0  0
 14 13  1  0  0  0  0
 14 11  1  0  0  0  0
 16 15  1  0  0  0  0
 17 16  1  0  0  0  0
 18 17  1  0  0  0  0
 19 21  1  0  0  0  0
 21 20  1  1  0  0  0
 21 23  1  0  0  0  0
 23 24  1  0  0  0  0
 23 22  1  1  0  0  0
 24 25  1  0  0  0  0
 25 26  1  0  0  0  0
 26 27  2  0  0  0  0
 28 34  1  6  0  0  0
 28 39  1  0  0  0  0
 29 35  2  0  0  0  0
 30 35  1  0  0  0  0
 30 33  2  0  0  0  0
 31 34  2  0  0  0  0
 32 31  1  0  0  0  0
 33 31  1  0  0  0  0
 35 32  1  0  0  0  0
 36 30  1  0  0  0  0
 37 36  1  0  0  0  0
 38 37  1  0  0  0  0
 39 41  1  0  0  0  0
 39 42  2  0  0  0  0
 40 42  1  0  0  0  0
 42 44  1  0  0  0  0
 44 43  2  0  0  0  0
 44 45  1  0  0  0  0
 45 46  1  0  0  0  0
M  END
>  <MODEL>
5

>  <REMARK>
 VINA RESULT:      -6.2      2.853      7.217
  Name = 
  18 active torsions:
  status: ('A' for Active; 'I' for Inactive)
    1  A    between atoms: C_1  and  C_21
    2  A    between atoms: C_3  and  C_11
    3  A    between atoms: C_3  and  C_22
    4  A    between atoms: C_3  and  C_38
    5  A    between atoms: C_4  and  C_23
    6  A    between atoms: C_5  and  C_18
    7  A    between atoms: C_6  and  C_21
    8  A    between atoms: O_8  and  C_14
    9  A    between atoms: O_8  and  C_26
   10  A    between atoms: O_13  and  C_35
   11  A    between atoms: C_18  and  C_45
   12  A    between atoms: C_23  and  C_30
   13  A    between atoms: C_27  and  C_34
   14  A    between atoms: C_27  and  C_40
   15  A    between atoms: C_28  and  C_34
   16  A    between atoms: C_30  and  C_40
   17  A    between atoms: C_31  and  C_33
   18  A    between atoms: C_31  and  C_35
                            x       y       z     vdW  Elec       q    Type
                         _______ _______ _______ _____ _____    ______ ____

>  <TORSDO>
F 18

$$$$
=
 OpenBabel10232409003D

 46 48  0  0  1  0  0  0  0  0999 V2000
  188.9860  177.9140  140.3190 C   0  0  0  0  0  0  0  0  0  0  0  0
  192.4570  176.4900  139.7260 C   0  0  0  0  0  1  0  0  0  0  0  0
  190.3400  177.5840  140.4970 C   0  0  0  0  0  0  0  0  0  0  0  0
  191.0180  178.0300  141.6290 O   0  0  0  0  0  1  0  0  0  0  0  0
  190.3230  176.3790  138.3810 C   0  0  0  0  0  0  0  0  0  0  0  0
  188.3070  177.4740  139.1800 C   0  0  0  0  0  3  0  0  0  0  0  0
  191.0110  176.8180  139.5300 C   0  0  0  0  0  0  0  0  0  0  0  0
  188.9700  176.7110  138.2190 C   0  0  0  0  0  3  0  0  0  0  0  0
  188.2810  178.7990  141.2970 C   0  0  0  0  0  2  0  0  0  0  0  0
  187.4430  177.2200  143.1400 C   0  0  2  0  0  3  0  0  0  0  0  0
  187.0830  178.0860  141.9380 C   0  0  1  0  0  3  0  0  0  0  0  0
  186.1410  177.1190  143.9120 C   0  0  0  0  0  2  0  0  0  0  0  0
  185.3810  178.4090  143.6470 C   0  0  0  0  0  2  0  0  0  0  0  0
  185.9960  179.0400  142.4080 C   0  0  2  0  0  3  0  0  0  0  0  0
  184.9440  179.1960  141.3240 C   0  0  0  0  0  2  0  0  0  0  0  0
  183.8750  178.1340  141.4800 C   0  0  0  0  0  2  0  0  0  0  0  0
  183.5360  177.6310  140.2250 O   0  0  0  0  0  0  0  0  0  0  0  0
  182.4570  178.4130  139.8130 C   0  0  0  0  0  1  0  0  0  0  0  0
  188.5050  177.8680  144.0310 C   0  0  0  0  0  2  0  0  0  0  0  0
  189.8880  175.9720  143.6350 O   0  0  0  0  0  1  0  0  0  0  0  0
  189.4200  176.8180  144.6440 C   0  0  1  0  0  3  0  0  0  0  0  0
  191.7280  176.6660  145.2570 O   0  0  0  0  0  1  0  0  0  0  0  0
  190.5960  177.4760  145.3660 C   0  0  2  0  0  3  0  0  0  0  0  0
  190.2810  177.6680  146.8430 C   0  0  0  0  0  2  0  0  0  0  0  0
  189.1910  176.7040  147.2840 C   0  0  0  0  0  2  0  0  0  0  0  0
  188.2740  177.3740  148.2530 C   0  0  0  0  0  3  0  0  0  0  0  0
  187.5000  178.2370  147.8700 O   0  0  0  0  0  0  0  0  0  0  0  0
  191.0370  175.5870  137.3200 C   0  0  2  0  0  3  0  0  0  0  0  0
  196.0600  173.3270  135.6270 O   0  0  0  0  0  0  0  0  0  0  0  0
  195.4850  175.6440  135.6850 C   0  0  0  0  0  0  0  0  0  0  0  0
  193.3650  175.6800  136.4390 C   0  0  0  0  0  0  0  0  0  0  0  0
  193.5670  173.8890  136.4550 S   0  0  0  0  0  0  0  0  0  0  0  0
  194.4990  176.4190  135.9950 N   0  0  0  0  0  0  0  0  0  0  0  0
  192.2600  176.3060  136.8380 C   0  0  0  0  0  3  0  0  0  0  0  0
  195.2150  174.2280  135.8630 C   0  0  0  0  0  0  0  0  0  0  0  0
  196.7090  176.1270  135.2200 O   0  0  0  0  0  0  0  0  0  0  0  0
  197.6250  175.2990  134.5200 C   0  0  0  0  0  2  0  0  0  0  0  0
  198.7810  174.9430  135.4310 C   0  0  0  0  0  1  0  0  0  0  0  0
  190.1200  175.2100  136.1890 C   0  0  0  0  0  0  0  0  0  0  0  0
  189.6250  173.2020  137.3230 O   0  0  0  0  0  1  0  0  0  0  0  0
  189.9630  176.1010  135.1310 O   0  0  0  0  0  1  0  0  0  0  0  0
  189.4570  174.0390  136.2220 C   0  0  0  0  0  0  0  0  0  0  0  0
  188.8590  172.6160  134.3490 N   0  0  0  0  0  2  0  0  0  0  0  0
  188.5440  173.5860  135.1430 C   0  0  0  0  0  0  0  0  0  0  0  0
  187.1670  174.1540  135.0580 C   0  0  0  0  0  2  0  0  0  0  0  0
  186.6930  174.4330  136.3400 O   0  0  0  0  0  1  0  0  0  0  0  0
  1  3  1  0  0  0  0
  1  9  1  0  0  0  0
  3  4  1  0  0  0  0
  5  7  1  0  0  0  0
  6  1  2  0  0  0  0
  7  2  1  0  0  0  0
  7  3  2  0  0  0  0
  8  5  2  0  0  0  0
  8  6  1  0  0  0  0
 10 12  1  0  0  0  0
 10 19  1  1  0  0  0
 11  9  1  1  0  0  0
 11 14  1  0  0  0  0
 11 10  1  0  0  0  0
 13 12  1  0  0  0  0
 14 15  1  6  0  0  0
 14 13  1  0  0  0  0
 15 16  1  0  0  0  0
 17 16  1  0  0  0  0
 18 17  1  0  0  0  0
 19 21  1  0  0  0  0
 21 20  1  6  0  0  0
 21 23  1  0  0  0  0
 23 22  1  1  0  0  0
 23 24  1  0  0  0  0
 24 25  1  0  0  0  0
 25 26  1  0  0  0  0
 27 26  2  0  0  0  0
 28 34  1  6  0  0  0
 28  5  1  0  0  0  0
 29 35  2  0  0  0  0
 30 35  1  0  0  0  0
 30 33  2  0  0  0  0
 31 32  1  0  0  0  0
 31 34  2  0  0  0  0
 33 31  1  0  0  0  0
 35 32  1  0  0  0  0
 36 30  1  0  0  0  0
 37 36  1  0  0  0  0
 37 38  1  0  0  0  0
 39 42  2  0  0  0  0
 39 28  1  0  0  0  0
 41 39  1  0  0  0  0
 42 40  1  0  0  0  0
 43 44  2  0  0  0  0
 44 42  1  0  0  0  0
 45 44  1  0  0  0  0
 45 46  1  0  0  0  0
M  END
>  <MODEL>
6

>  <REMARK>
 VINA RESULT:      -6.2      2.293      5.714
  Name = 
  18 active torsions:
  status: ('A' for Active; 'I' for Inactive)
    1  A    between atoms: C_1  and  C_21
    2  A    between atoms: C_3  and  C_11
    3  A    between atoms: C_3  and  C_22
    4  A    between atoms: C_3  and  C_38
    5  A    between atoms: C_4  and  C_23
    6  A    between atoms: C_5  and  C_18
    7  A    between atoms: C_6  and  C_21
    8  A    between atoms: O_8  and  C_14
    9  A    between atoms: O_8  and  C_26
   10  A    between atoms: O_13  and  C_35
   11  A    between atoms: C_18  and  C_45
   12  A    between atoms: C_23  and  C_30
   13  A    between atoms: C_27  and  C_34
   14  A    between atoms: C_27  and  C_40
   15  A    between atoms: C_28  and  C_34
   16  A    between atoms: C_30  and  C_40
   17  A    between atoms: C_31  and  C_33
   18  A    between atoms: C_31  and  C_35
                            x       y       z     vdW  Elec       q    Type
                         _______ _______ _______ _____ _____    ______ ____

>  <TORSDO>
F 18

$$$$
=
 OpenBabel10232409003D

 46 48  0  0  1  0  0  0  0  0999 V2000
  186.8200  178.3830  142.2770 C   0  0  0  0  0  0  0  0  0  0  0  0
  183.0510  178.1700  141.8510 C   0  0  0  0  0  1  0  0  0  0  0  0
  185.4490  178.3010  142.5680 C   0  0  0  0  0  0  0  0  0  0  0  0
  185.0250  178.2340  143.8930 O   0  0  0  0  0  1  0  0  0  0  0  0
  184.9420  178.3320  140.1870 C   0  0  0  0  0  0  0  0  0  0  0  0
  187.2470  178.4430  140.9470 C   0  0  0  0  0  3  0  0  0  0  0  0
  184.5070  178.2750  141.5260 C   0  0  0  0  0  0  0  0  0  0  0  0
  186.3150  178.4190  139.9110 C   0  0  0  0  0  3  0  0  0  0  0  0
  187.8370  178.3280  143.3720 C   0  0  0  0  0  2  0  0  0  0  0  0
  190.3390  178.8420  143.6230 C   0  0  2  0  0  3  0  0  0  0  0  0
  189.2540  178.1410  142.8140 C   0  0  1  0  0  3  0  0  0  0  0  0
  191.6010  178.0760  143.2710 C   0  0  0  0  0  2  0  0  0  0  0  0
  191.1700  176.6480  142.9740 C   0  0  0  0  0  2  0  0  0  0  0  0
  189.6730  176.6830  142.7100 C   0  0  2  0  0  3  0  0  0  0  0  0
  189.3760  176.1610  141.3150 C   0  0  0  0  0  2  0  0  0  0  0  0
  190.3290  176.7800  140.3140 C   0  0  0  0  0  2  0  0  0  0  0  0
  190.7630  175.8010  139.4220 O   0  0  0  0  0  0  0  0  0  0  0  0
  191.1940  176.5130  138.3020 C   0  0  0  0  0  1  0  0  0  0  0  0
  190.0990  178.7460  145.1310 C   0  0  0  0  0  2  0  0  0  0  0  0
  191.9800  177.5170  145.9190 O   0  0  0  0  0  1  0  0  0  0  0  0
  190.6060  177.4200  145.6830 C   0  0  1  0  0  3  0  0  0  0  0  0
  190.3710  175.8470  147.4700 O   0  0  0  0  0  1  0  0  0  0  0  0
  189.8740  177.0540  146.9740 C   0  0  2  0  0  3  0  0  0  0  0  0
  188.3820  176.8920  146.7190 C   0  0  0  0  0  2  0  0  0  0  0  0
  187.5840  177.8240  147.6170 C   0  0  0  0  0  2  0  0  0  0  0  0
  186.6240  178.6260  146.8030 C   0  0  0  0  0  3  0  0  0  0  0  0
  185.5930  179.0450  147.3040 O   0  0  0  0  0  0  0  0  0  0  0  0
  183.9500  178.2700  139.0580 C   0  0  2  0  0  3  0  0  0  0  0  0
  183.4660  173.0400  136.6860 O   0  0  0  0  0  0  0  0  0  0  0  0
  184.7340  174.8790  135.8410 C   0  0  0  0  0  0  0  0  0  0  0  0
  184.3840  176.5350  137.3250 C   0  0  0  0  0  0  0  0  0  0  0  0
  183.3440  175.3020  138.1300 S   0  0  0  0  0  0  0  0  0  0  0  0
  185.0240  176.1050  136.1260 N   0  0  0  0  0  0  0  0  0  0  0  0
  184.5880  177.7600  137.8020 C   0  0  0  0  0  3  0  0  0  0  0  0
  183.8450  174.2340  136.7920 C   0  0  0  0  0  0  0  0  0  0  0  0
  185.2360  174.2260  134.7140 O   0  0  0  0  0  0  0  0  0  0  0  0
  186.5920  173.8160  134.6260 C   0  0  0  0  0  2  0  0  0  0  0  0
  186.7530  172.4600  135.2820 C   0  0  0  0  0  1  0  0  0  0  0  0
  183.2580  179.5890  138.8450 C   0  0  0  0  0  0  0  0  0  0  0  0
  181.2040  178.4350  138.7130 O   0  0  0  0  0  1  0  0  0  0  0  0
  184.0230  180.7520  138.8500 O   0  0  0  0  0  1  0  0  0  0  0  0
  181.9240  179.6290  138.6730 C   0  0  0  0  0  0  0  0  0  0  0  0
  180.6720  181.5670  139.4250 N   0  0  0  0  0  2  0  0  0  0  0  0
  181.1660  180.8840  138.4450 C   0  0  0  0  0  0  0  0  0  0  0  0
  181.0960  181.4600  137.0710 C   0  0  0  0  0  2  0  0  0  0  0  0
  181.0200  182.8510  137.1450 O   0  0  0  0  0  1  0  0  0  0  0  0
  1  3  1  0  0  0  0
  1  9  1  0  0  0  0
  3  4  1  0  0  0  0
  5  7  1  0  0  0  0
  6  1  2  0  0  0  0
  7  2  1  0  0  0  0
  7  3  2  0  0  0  0
  8  5  2  0  0  0  0
  8  6  1  0  0  0  0
 10 19  1  1  0  0  0
 11  9  1  1  0  0  0
 11 10  1  0  0  0  0
 12 10  1  0  0  0  0
 13 12  1  0  0  0  0
 14 15  1  6  0  0  0
 14 11  1  0  0  0  0
 14 13  1  0  0  0  0
 16 15  1  0  0  0  0
 17 16  1  0  0  0  0
 18 17  1  0  0  0  0
 19 21  1  0  0  0  0
 21 20  1  1  0  0  0
 21 23  1  0  0  0  0
 23 22  1  6  0  0  0
 24 23  1  0  0  0  0
 24 25  1  0  0  0  0
 26 27  2  0  0  0  0
 26 25  1  0  0  0  0
 28 34  1  6  0  0  0
 28  5  1  0  0  0  0
 29 35  2  0  0  0  0
 30 33  2  0  0  0  0
 30 35  1  0  0  0  0
 31 34  2  0  0  0  0
 31 32  1  0  0  0  0
 33 31  1  0  0  0  0
 35 32  1  0  0  0  0
 36 30  1  0  0  0  0
 37 36  1  0  0  0  0
 37 38  1  0  0  0  0
 39 41  1  0  0  0  0
 39 28  1  0  0  0  0
 42 40  1  0  0  0  0
 42 39  2  0  0  0  0
 44 42  1  0  0  0  0
 44 43  2  0  0  0  0
 45 46  1  0  0  0  0
 45 44  1  0  0  0  0
M  END
>  <MODEL>
7

>  <REMARK>
 VINA RESULT:      -6.1      2.959      6.475
  Name = 
  18 active torsions:
  status: ('A' for Active; 'I' for Inactive)
    1  A    between atoms: C_1  and  C_21
    2  A    between atoms: C_3  and  C_11
    3  A    between atoms: C_3  and  C_22
    4  A    between atoms: C_3  and  C_38
    5  A    between atoms: C_4  and  C_23
    6  A    between atoms: C_5  and  C_18
    7  A    between atoms: C_6  and  C_21
    8  A    between atoms: O_8  and  C_14
    9  A    between atoms: O_8  and  C_26
   10  A    between atoms: O_13  and  C_35
   11  A    between atoms: C_18  and  C_45
   12  A    between atoms: C_23  and  C_30
   13  A    between atoms: C_27  and  C_34
   14  A    between atoms: C_27  and  C_40
   15  A    between atoms: C_28  and  C_34
   16  A    between atoms: C_30  and  C_40
   17  A    between atoms: C_31  and  C_33
   18  A    between atoms: C_31  and  C_35
                            x       y       z     vdW  Elec       q    Type
                         _______ _______ _______ _____ _____    ______ ____

>  <TORSDO>
F 18

$$$$
=
 OpenBabel10232409003D

 46 48  0  0  1  0  0  0  0  0999 V2000
  185.1450  177.0060  136.5380 C   0  0  0  0  0  0  0  0  0  0  0  0
  188.0690  174.6380  137.0610 C   0  0  0  0  0  1  0  0  0  0  0  0
  185.9900  175.8890  136.4350 C   0  0  0  0  0  0  0  0  0  0  0  0
  185.6320  174.8220  135.6150 O   0  0  0  0  0  1  0  0  0  0  0  0
  187.5410  176.9200  138.0040 C   0  0  0  0  0  0  0  0  0  0  0  0
  185.5010  178.0740  137.3660 C   0  0  0  0  0  3  0  0  0  0  0  0
  187.1880  175.8420  137.1670 C   0  0  0  0  0  0  0  0  0  0  0  0
  186.6900  178.0310  138.0930 C   0  0  0  0  0  3  0  0  0  0  0  0
  183.8280  177.0330  135.8300 C   0  0  0  0  0  2  0  0  0  0  0  0
  182.0950  176.6780  137.6910 C   0  0  2  0  0  3  0  0  0  0  0  0
  182.8180  176.0830  136.4880 C   0  0  1  0  0  3  0  0  0  0  0  0
  180.8220  175.8590  137.7860 C   0  0  0  0  0  2  0  0  0  0  0  0
  180.4750  175.4340  136.3680 C   0  0  0  0  0  2  0  0  0  0  0  0
  181.7350  175.6020  135.5330 C   0  0  2  0  0  3  0  0  0  0  0  0
  182.1410  174.2710  134.9250 C   0  0  0  0  0  2  0  0  0  0  0  0
  181.3840  173.1410  135.5940 C   0  0  0  0  0  2  0  0  0  0  0  0
  182.2330  172.0490  135.7570 O   0  0  0  0  0  0  0  0  0  0  0  0
  182.0600  171.6660  137.0870 C   0  0  0  0  0  1  0  0  0  0  0  0
  181.7300  178.1500  137.4850 C   0  0  0  0  0  2  0  0  0  0  0  0
  182.0310  180.3550  138.3290 O   0  0  0  0  0  1  0  0  0  0  0  0
  182.2490  179.0080  138.6310 C   0  0  1  0  0  3  0  0  0  0  0  0
  180.5150  179.5440  140.1890 O   0  0  0  0  0  1  0  0  0  0  0  0
  181.5520  178.6430  139.9420 C   0  0  2  0  0  3  0  0  0  0  0  0
  182.5310  178.7030  141.1050 C   0  0  0  0  0  2  0  0  0  0  0  0
  183.7030  177.7640  140.8650 C   0  0  0  0  0  2  0  0  0  0  0  0
  184.9810  178.4240  141.2610 C   0  0  0  0  0  3  0  0  0  0  0  0
  185.2550  179.5360  140.8390 O   0  0  0  0  0  0  0  0  0  0  0  0
  188.8030  176.8710  138.8210 C   0  0  2  0  0  3  0  0  0  0  0  0
  191.5140  176.2910  143.8730 O   0  0  0  0  0  0  0  0  0  0  0  0
  189.9790  178.0170  143.2670 C   0  0  0  0  0  0  0  0  0  0  0  0
  189.3970  177.5350  141.1470 C   0  0  0  0  0  0  0  0  0  0  0  0
  190.5400  176.1600  141.3730 S   0  0  0  0  0  0  0  0  0  0  0  0
  189.2500  178.3990  142.2710 N   0  0  0  0  0  0  0  0  0  0  0  0
  188.6980  177.7440  140.0340 C   0  0  0  0  0  3  0  0  0  0  0  0
  190.7590  176.8180  143.0170 C   0  0  0  0  0  0  0  0  0  0  0  0
  190.0120  178.7000  144.4840 O   0  0  0  0  0  0  0  0  0  0  0  0
  189.6320  178.0790  145.7030 C   0  0  0  0  0  2  0  0  0  0  0  0
  188.1800  177.6580  145.6240 C   0  0  0  0  0  1  0  0  0  0  0  0
  190.0190  177.1940  137.9960 C   0  0  0  0  0  0  0  0  0  0  0  0
  190.8560  175.0410  138.4750 O   0  0  0  0  0  1  0  0  0  0  0  0
  190.0920  178.4360  137.3730 O   0  0  0  0  0  1  0  0  0  0  0  0
  190.9990  176.2820  137.8580 C   0  0  0  0  0  0  0  0  0  0  0  0
  193.3320  176.9130  137.6360 N   0  0  0  0  0  2  0  0  0  0  0  0
  192.2360  176.5240  137.0730 C   0  0  0  0  0  0  0  0  0  0  0  0
  192.2670  176.1690  135.6250 C   0  0  0  0  0  2  0  0  0  0  0  0
  193.5870  176.1420  135.1750 O   0  0  0  0  0  1  0  0  0  0  0  0
  1  6  1  0  0  0  0
  2  7  1  0  0  0  0
  3  1  2  0  0  0  0
  3  7  1  0  0  0  0
  4  3  1  0  0  0  0
  5  8  1  0  0  0  0
  5 28  1  0  0  0  0
  6  8  2  0  0  0  0
  7  5  2  0  0  0  0
  9  1  1  0  0  0  0
 10 19  1  6  0  0  0
 10 12  1  0  0  0  0
 11  9  1  6  0  0  0
 11 10  1  0  0  0  0
 13 12  1  0  0  0  0
 14 15  1  1  0  0  0
 14 13  1  0  0  0  0
 14 11  1  0  0  0  0
 15 16  1  0  0  0  0
 16 17  1  0  0  0  0
 17 18  1  0  0  0  0
 19 21  1  0  0  0  0
 21 20  1  6  0  0  0
 21 23  1  0  0  0  0
 23 22  1  1  0  0  0
 23 24  1  0  0  0  0
 25 24  1  0  0  0  0
 25 26  1  0  0  0  0
 27 26  2  0  0  0  0
 28 34  1  1  0  0  0
 30 36  1  0  0  0  0
 31 32  1  0  0  0  0
 31 33  1  0  0  0  0
 32 35  1  0  0  0  0
 33 30  2  0  0  0  0
 34 31  2  0  0  0  0
 35 30  1  0  0  0  0
 35 29  2  0  0  0  0
 36 37  1  0  0  0  0
 38 37  1  0  0  0  0
 39 28  1  0  0  0  0
 41 39  1  0  0  0  0
 42 39  2  0  0  0  0
 42 40  1  0  0  0  0
 44 43  2  0  0  0  0
 44 42  1  0  0  0  0
 45 44  1  0  0  0  0
 46 45  1  0  0  0  0
M  END
>  <MODEL>
8

>  <REMARK>
 VINA RESULT:      -6.0      3.021      8.039
  Name = 
  18 active torsions:
  status: ('A' for Active; 'I' for Inactive)
    1  A    between atoms: C_1  and  C_21
    2  A    between atoms: C_3  and  C_11
    3  A    between atoms: C_3  and  C_22
    4  A    between atoms: C_3  and  C_38
    5  A    between atoms: C_4  and  C_23
    6  A    between atoms: C_5  and  C_18
    7  A    between atoms: C_6  and  C_21
    8  A    between atoms: O_8  and  C_14
    9  A    between atoms: O_8  and  C_26
   10  A    between atoms: O_13  and  C_35
   11  A    between atoms: C_18  and  C_45
   12  A    between atoms: C_23  and  C_30
   13  A    between atoms: C_27  and  C_34
   14  A    between atoms: C_27  and  C_40
   15  A    between atoms: C_28  and  C_34
   16  A    between atoms: C_30  and  C_40
   17  A    between atoms: C_31  and  C_33
   18  A    between atoms: C_31  and  C_35
                            x       y       z     vdW  Elec       q    Type
                         _______ _______ _______ _____ _____    ______ ____

>  <TORSDO>
F 18

$$$$
=
 OpenBabel10232409003D

 46 48  0  0  1  0  0  0  0  0999 V2000
  186.5500  178.8230  142.3170 C   0  0  0  0  0  0  0  0  0  0  0  0
  182.9260  178.7880  143.4530 C   0  0  0  0  0  1  0  0  0  0  0  0
  185.4080  178.8910  143.1320 C   0  0  0  0  0  0  0  0  0  0  0  0
  185.5460  179.1050  144.5010 O   0  0  0  0  0  1  0  0  0  0  0  0
  183.9980  178.5030  141.1860 C   0  0  0  0  0  0  0  0  0  0  0  0
  186.4130  178.6000  140.9440 C   0  0  0  0  0  3  0  0  0  0  0  0
  184.1310  178.7300  142.5700 C   0  0  0  0  0  0  0  0  0  0  0  0
  185.1470  178.4430  140.3830 C   0  0  0  0  0  3  0  0  0  0  0  0
  187.9190  178.9070  142.9140 C   0  0  0  0  0  2  0  0  0  0  0  0
  189.5530  176.9520  142.6030 C   0  0  2  0  0  3  0  0  0  0  0  0
  188.4010  177.5380  143.4110 C   0  0  1  0  0  3  0  0  0  0  0  0
  190.2060  175.9780  143.5660 C   0  0  0  0  0  2  0  0  0  0  0  0
  189.9880  176.5390  144.9620 C   0  0  0  0  0  2  0  0  0  0  0  0
  188.8580  177.5510  144.8620 C   0  0  2  0  0  3  0  0  0  0  0  0
  187.7080  177.1440  145.7670 C   0  0  0  0  0  2  0  0  0  0  0  0
  188.1870  177.0400  147.2010 C   0  0  0  0  0  2  0  0  0  0  0  0
  188.0500  178.2790  147.8240 O   0  0  0  0  0  0  0  0  0  0  0  0
  189.2040  178.4130  148.5950 C   0  0  0  0  0  1  0  0  0  0  0  0
  190.5770  178.0120  142.1900 C   0  0  0  0  0  2  0  0  0  0  0  0
  192.1970  177.1470  140.6760 O   0  0  0  0  0  1  0  0  0  0  0  0
  190.9850  177.8400  140.7340 C   0  0  1  0  0  3  0  0  0  0  0  0
  190.4820  175.9900  139.3030 O   0  0  0  0  0  1  0  0  0  0  0  0
  189.9090  177.0850  139.9530 C   0  0  2  0  0  3  0  0  0  0  0  0
  189.2700  177.9870  138.9080 C   0  0  0  0  0  2  0  0  0  0  0  0
  188.2210  177.2240  138.1150 C   0  0  0  0  0  2  0  0  0  0  0  0
  187.8190  178.0060  136.9090 C   0  0  0  0  0  3  0  0  0  0  0  0
  187.4480  179.1630  137.0220 O   0  0  0  0  0  0  0  0  0  0  0  0
  182.6400  178.2950  140.5730 C   0  0  2  0  0  3  0  0  0  0  0  0
  184.8530  176.3880  135.6060 O   0  0  0  0  0  0  0  0  0  0  0  0
  183.5490  175.1320  137.1630 C   0  0  0  0  0  0  0  0  0  0  0  0
  183.1010  176.5840  138.8240 C   0  0  0  0  0  0  0  0  0  0  0  0
  184.0810  177.7100  137.8130 S   0  0  0  0  0  0  0  0  0  0  0  0
  182.9470  175.2680  138.2980 N   0  0  0  0  0  0  0  0  0  0  0  0
  182.5200  176.9290  139.9710 C   0  0  0  0  0  3  0  0  0  0  0  0
  184.2260  176.3280  136.6940 C   0  0  0  0  0  0  0  0  0  0  0  0
  183.5480  173.9350  136.4460 O   0  0  0  0  0  0  0  0  0  0  0  0
  184.2300  172.7800  136.9130 C   0  0  0  0  0  2  0  0  0  0  0  0
  183.2670  171.6130  136.9710 C   0  0  0  0  0  1  0  0  0  0  0  0
  182.2960  179.3790  139.5880 C   0  0  0  0  0  0  0  0  0  0  0  0
  180.0550  178.6420  139.6330 O   0  0  0  0  0  1  0  0  0  0  0  0
  183.3040  180.2420  139.1650 O   0  0  0  0  0  1  0  0  0  0  0  0
  181.0310  179.5110  139.1480 C   0  0  0  0  0  0  0  0  0  0  0  0
  180.2400  181.7250  138.5430 N   0  0  0  0  0  2  0  0  0  0  0  0
  180.6100  180.5440  138.1680 C   0  0  0  0  0  0  0  0  0  0  0  0
  180.7560  180.2750  136.7090 C   0  0  0  0  0  2  0  0  0  0  0  0
  180.9280  178.9070  136.4960 O   0  0  0  0  0  1  0  0  0  0  0  0
  1  9  1  0  0  0  0
  1  3  1  0  0  0  0
  3  4  1  0  0  0  0
  5  7  1  0  0  0  0
  6  1  2  0  0  0  0
  7  3  2  0  0  0  0
  7  2  1  0  0  0  0
  8  6  1  0  0  0  0
  8  5  2  0  0  0  0
 10 19  1  1  0  0  0
 10 11  1  0  0  0  0
 10 12  1  0  0  0  0
 11  9  1  6  0  0  0
 11 14  1  0  0  0  0
 12 13  1  0  0  0  0
 14 13  1  0  0  0  0
 14 15  1  1  0  0  0
 15 16  1  0  0  0  0
 16 17  1  0  0  0  0
 17 18  1  0  0  0  0
 21 20  1  1  0  0  0
 21 19  1  0  0  0  0
 23 22  1  6  0  0  0
 23 21  1  0  0  0  0
 24 23  1  0  0  0  0
 25 24  1  0  0  0  0
 26 27  2  0  0  0  0
 26 25  1  0  0  0  0
 28 34  1  6  0  0  0
 28  5  1  0  0  0  0
 29 35  2  0  0  0  0
 30 33  2  0  0  0  0
 31 34  2  0  0  0  0
 32 31  1  0  0  0  0
 33 31  1  0  0  0  0
 35 30  1  0  0  0  0
 35 32  1  0  0  0  0
 36 37  1  0  0  0  0
 36 30  1  0  0  0  0
 37 38  1  0  0  0  0
 39 28  1  0  0  0  0
 41 39  1  0  0  0  0
 42 39  2  0  0  0  0
 42 40  1  0  0  0  0
 44 43  2  0  0  0  0
 44 42  1  0  0  0  0
 45 44  1  0  0  0  0
 46 45  1  0  0  0  0
M  END
>  <MODEL>
9

>  <REMARK>
 VINA RESULT:      -5.9      3.079      7.437
  Name = 
  18 active torsions:
  status: ('A' for Active; 'I' for Inactive)
    1  A    between atoms: C_1  and  C_21
    2  A    between atoms: C_3  and  C_11
    3  A    between atoms: C_3  and  C_22
    4  A    between atoms: C_3  and  C_38
    5  A    between atoms: C_4  and  C_23
    6  A    between atoms: C_5  and  C_18
    7  A    between atoms: C_6  and  C_21
    8  A    between atoms: O_8  and  C_14
    9  A    between atoms: O_8  and  C_26
   10  A    between atoms: O_13  and  C_35
   11  A    between atoms: C_18  and  C_45
   12  A    between atoms: C_23  and  C_30
   13  A    between atoms: C_27  and  C_34
   14  A    between atoms: C_27  and  C_40
   15  A    between atoms: C_28  and  C_34
   16  A    between atoms: C_30  and  C_40
   17  A    between atoms: C_31  and  C_33
   18  A    between atoms: C_31  and  C_35
                            x       y       z     vdW  Elec       q    Type
                         _______ _______ _______ _____ _____    ______ ____

>  <TORSDO>
F 18

$$$$
