=
 OpenBabel10232410183D

 41 45  0  0  1  0  0  0  0  0999 V2000
  181.3810  179.1780  141.9870 C   0  0  1  0  0  3  0  0  0  0  0  0
  184.4570  178.0280  140.5400 C   0  0  0  0  0  0  0  0  0  0  0  0
  181.4080  178.2750  139.5820 N   0  0  0  0  0  2  0  0  0  0  0  0
  183.5020  177.6970  138.4420 C   0  0  2  0  0  3  0  0  0  0  0  0
  181.8810  178.5050  140.9520 C   0  0  2  0  0  0  0  0  0  0  0  0
  184.7390  178.0140  139.2530 C   0  0  0  0  0  0  0  0  0  0  0  0
  186.8360  178.5390  141.1150 C   0  0  0  0  0  0  0  0  0  0  0  0
  187.1290  178.4470  139.7040 N   0  0  0  0  0  0  0  0  0  0  0  0
  182.4510  177.3380  139.5210 C   0  0  1  0  0  0  0  0  0  0  0  0
  187.7760  178.6980  141.9410 O   0  0  0  0  0  0  0  0  0  0  0  0
  180.0960  179.9130  141.8330 C   0  0  0  0  0  1  0  0  0  0  0  0
  185.0370  178.5480  142.8030 N   0  0  0  0  0  0  0  0  0  0  0  0
  186.0560  178.4670  138.6930 C   0  0  0  0  0  2  0  0  0  0  0  0
  185.4300  178.3870  141.5730 C   0  0  0  0  0  0  0  0  0  0  0  0
  183.0970  177.7080  140.7040 N   0  0  0  0  0  0  0  0  0  0  0  0
  183.7420  176.5840  137.6360 O   0  0  0  0  0  1  0  0  0  0  0  0
  182.4680  179.0700  144.3910 C   0  0  0  0  0  3  0  0  0  0  0  0
  181.9800  179.1030  143.2900 C   0  0  0  0  0  0  0  0  0  0  0  0
  188.5220  178.4980  139.2650 C   0  0  2  0  0  3  0  0  0  0  0  0
  188.6020  178.6750  137.7560 C   0  0  0  0  0  1  0  0  0  0  0  0
  189.2740  177.2490  139.7050 C   0  0  0  0  0  2  0  0  0  0  0  0
  189.4710  176.3640  138.5710 N   0  0  0  0  0  2  0  0  0  0  0  0
  190.5660  175.4920  138.5460 N   0  0  0  0  0  0  0  0  0  0  0  0
  190.9530  176.0480  136.2130 C   0  0  0  0  0  1  0  0  0  0  0  0
  191.2790  175.3100  137.4780 C   0  0  0  0  0  0  0  0  0  0  0  0
  192.3510  174.4150  137.5380 O   0  0  0  0  0  0  0  0  0  0  0  0
  194.0350  176.2630  138.7750 O   0  0  0  0  0  1  0  0  0  0  0  0
  194.8550  173.6470  138.4760 O   0  0  0  0  0  1  0  0  0  0  0  0
  193.9850  174.9090  137.7640 P   0  0  0  0  0  0  0  0  0  0  0  0
  194.6040  175.2510  136.4290 O   0  0  0  0  0  0  0  0  0  0  0  0
  185.8690  178.9540  143.9320 C   0  0  0  0  0  2  0  0  0  0  0  0
  187.5810  177.3050  146.6550 N   0  0  0  0  0  0  0  0  0  0  0  0
  185.4560  178.3600  146.3030 C   0  0  0  0  0  2  0  0  0  0  0  0
  187.3840  177.4270  145.2140 C   0  0  0  0  0  2  0  0  0  0  0  0
  185.9460  177.8450  144.9740 C   0  0  2  0  0  3  0  0  0  0  0  0
  186.6540  178.2770  147.2230 C   0  0  0  0  0  2  0  0  0  0  0  0
  189.0050  178.4260  148.3220 C   0  0  0  0  0  1  0  0  0  0  0  0
  188.9570  177.7060  146.9790 C   0  0  1  0  0  3  0  0  0  0  0  0
  189.8690  176.4810  147.0650 C   0  0  0  0  0  2  0  0  0  0  0  0
  191.2980  176.8240  146.6790 C   0  0  0  0  0  2  0  0  0  0  0  0
  192.1620  176.5300  147.7340 O   0  0  0  0  0  1  0  0  0  0  0  0
  1 11  1  1  0  0  0
  1 18  1  0  0  0  0
  2 15  1  0  0  0  0
  2 14  1  0  0  0  0
  3  5  1  0  0  0  0
  4 16  1  6  0  0  0
  4  6  1  0  0  0  0
  4  9  1  0  0  0  0
  5  1  1  1  0  0  0
  6  2  2  0  0  0  0
  7 14  1  0  0  0  0
  7 10  2  0  0  0  0
  8  7  1  0  0  0  0
  9  3  1  6  0  0  0
  9 15  1  0  0  0  0
  9  5  1  0  0  0  0
 12 31  1  0  0  0  0
 13  6  1  0  0  0  0
 13  8  1  0  0  0  0
 14 12  2  0  0  0  0
 15  5  1  0  0  0  0
 18 17  3  0  0  0  0
 19 20  1  6  0  0  0
 19  8  1  0  0  0  0
 19 21  1  0  0  0  0
 22 21  1  0  0  0  0
 23 22  1  0  0  0  0
 24 25  1  0  0  0  0
 25 26  1  0  0  0  0
 25 23  2  0  0  0  0
 26 29  1  0  0  0  0
 29 28  1  0  0  0  0
 29 27  1  0  0  0  0
 30 29  2  0  0  0  0
 32 38  1  0  0  0  0
 32 36  1  0  0  0  0
 33 36  1  0  0  0  0
 34 32  1  0  0  0  0
 35 31  1  6  0  0  0
 35 34  1  0  0  0  0
 35 33  1  0  0  0  0
 38 39  1  0  0  0  0
 38 37  1  1  0  0  0
 40 39  1  0  0  0  0
 40 41  1  0  0  0  0
M  END
>  <MODEL>
1

>  <REMARK>
 VINA RESULT:      -7.8      0.000      0.000
  Name = 
  12 active torsions:
  status: ('A' for Active; 'I' for Inactive)
    1  A    between atoms: N_1  and  C_31
    2  A    between atoms: C_3  and  C_8
    3  A    between atoms: C_6  and  N_32
    4  A    between atoms: C_6  and  C_38
    5  A    between atoms: N_7  and  N_21
    6  A    between atoms: C_10  and  N_17
    7  A    between atoms: C_10  and  C_39
    8  A    between atoms: C_12  and  C_24
    9  A    between atoms: C_12  and  C_31
   10  A    between atoms: O_18  and  P_19
   11  A    between atoms: O_18  and  C_23
   12  A    between atoms: N_21  and  C_39
                            x       y       z     vdW  Elec       q    Type
                         _______ _______ _______ _____ _____    ______ ____

>  <TORSDO>
F 12

$$$$
=
 OpenBabel10232410183D

 41 45  0  0  1  0  0  0  0  0999 V2000
  181.1140  178.9670  138.3160 C   0  0  1  0  0  3  0  0  0  0  0  0
  184.4540  177.6610  138.1900 C   0  0  0  0  0  0  0  0  0  0  0  0
  181.9160  177.6950  136.2330 N   0  0  0  0  0  2  0  0  0  0  0  0
  184.2490  176.9830  135.9720 C   0  0  2  0  0  3  0  0  0  0  0  0
  181.9080  178.1480  137.6290 C   0  0  2  0  0  0  0  0  0  0  0  0
  185.1510  177.4490  137.0920 C   0  0  0  0  0  0  0  0  0  0  0  0
  186.5180  178.3030  139.4470 C   0  0  0  0  0  0  0  0  0  0  0  0
  187.2650  177.9930  138.2510 N   0  0  0  0  0  0  0  0  0  0  0  0
  182.8840  176.7800  136.6740 C   0  0  1  0  0  0  0  0  0  0  0  0
  187.1300  178.6080  140.5070 O   0  0  0  0  0  0  0  0  0  0  0  0
  179.9820  179.6430  137.6250 C   0  0  0  0  0  1  0  0  0  0  0  0
  184.2580  178.5440  140.4050 N   0  0  0  0  0  0  0  0  0  0  0  0
  186.5950  177.8330  136.9470 C   0  0  0  0  0  2  0  0  0  0  0  0
  185.0350  178.1980  139.4210 C   0  0  0  0  0  0  0  0  0  0  0  0
  183.1070  177.3450  137.9320 N   0  0  0  0  0  0  0  0  0  0  0  0
  184.7050  175.7610  135.4780 O   0  0  0  0  0  1  0  0  0  0  0  0
  181.3220  179.2020  140.9380 C   0  0  0  0  0  3  0  0  0  0  0  0
  181.2360  179.1110  139.7390 C   0  0  0  0  0  0  0  0  0  0  0  0
  188.7250  178.0010  138.3060 C   0  0  2  0  0  3  0  0  0  0  0  0
  189.2910  179.0280  137.3370 C   0  0  0  0  0  1  0  0  0  0  0  0
  189.2840  176.6150  138.0140 C   0  0  0  0  0  2  0  0  0  0  0  0
  190.2840  176.2650  139.0060 N   0  0  0  0  0  2  0  0  0  0  0  0
  190.2410  176.8470  140.2800 N   0  0  0  0  0  0  0  0  0  0  0  0
  192.6230  177.3030  140.1490 C   0  0  0  0  0  1  0  0  0  0  0  0
  191.2980  177.3360  140.8500 C   0  0  0  0  0  0  0  0  0  0  0  0
  191.1670  177.8930  142.1260 O   0  0  0  0  0  0  0  0  0  0  0  0
  191.7780  175.7120  143.7550 O   0  0  0  0  0  1  0  0  0  0  0  0
  190.7020  177.9960  144.8670 O   0  0  0  0  0  1  0  0  0  0  0  0
  190.6940  176.9870  143.5110 P   0  0  0  0  0  0  0  0  0  0  0  0
  189.3020  176.4350  143.3090 O   0  0  0  0  0  0  0  0  0  0  0  0
  184.6760  179.1400  141.6710 C   0  0  0  0  0  2  0  0  0  0  0  0
  185.2890  178.0470  145.0620 N   0  0  0  0  0  0  0  0  0  0  0  0
  183.4180  178.8400  143.7870 C   0  0  0  0  0  2  0  0  0  0  0  0
  185.6470  177.9510  143.6500 C   0  0  0  0  0  2  0  0  0  0  0  0
  184.3930  178.1960  142.8340 C   0  0  2  0  0  3  0  0  0  0  0  0
  184.1810  178.9970  145.0830 C   0  0  0  0  0  2  0  0  0  0  0  0
  185.9570  179.2380  147.1110 C   0  0  0  0  0  1  0  0  0  0  0  0
  186.4250  178.6170  145.7990 C   0  0  1  0  0  3  0  0  0  0  0  0
  187.4510  177.5310  146.1300 C   0  0  0  0  0  2  0  0  0  0  0  0
  187.8350  177.5580  147.5990 C   0  0  0  0  0  2  0  0  0  0  0  0
  189.2200  177.4600  147.7340 O   0  0  0  0  0  1  0  0  0  0  0  0
  1 11  1  1  0  0  0
  1 18  1  0  0  0  0
  2 14  1  0  0  0  0
  3  5  1  0  0  0  0
  4 16  1  1  0  0  0
  4  9  1  0  0  0  0
  4  6  1  0  0  0  0
  5 15  1  0  0  0  0
  5  1  1  1  0  0  0
  6  2  2  0  0  0  0
  7 10  2  0  0  0  0
  8 19  1  0  0  0  0
  8  7  1  0  0  0  0
  9  3  1  6  0  0  0
  9  5  1  0  0  0  0
  9 15  1  0  0  0  0
 12 31  1  0  0  0  0
 13  6  1  0  0  0  0
 13  8  1  0  0  0  0
 14  7  1  0  0  0  0
 14 12  2  0  0  0  0
 15  2  1  0  0  0  0
 18 17  3  0  0  0  0
 19 20  1  6  0  0  0
 21 19  1  0  0  0  0
 21 22  1  0  0  0  0
 22 23  1  0  0  0  0
 23 25  2  0  0  0  0
 24 25  1  0  0  0  0
 25 26  1  0  0  0  0
 26 29  1  0  0  0  0
 29 27  1  0  0  0  0
 29 28  1  0  0  0  0
 30 29  2  0  0  0  0
 32 36  1  0  0  0  0
 32 38  1  0  0  0  0
 33 36  1  0  0  0  0
 34 32  1  0  0  0  0
 35 31  1  6  0  0  0
 35 34  1  0  0  0  0
 35 33  1  0  0  0  0
 38 39  1  0  0  0  0
 38 37  1  1  0  0  0
 39 40  1  0  0  0  0
 40 41  1  0  0  0  0
M  END
>  <MODEL>
2

>  <REMARK>
 VINA RESULT:      -7.7      2.748      3.688
  Name = 
  12 active torsions:
  status: ('A' for Active; 'I' for Inactive)
    1  A    between atoms: N_1  and  C_31
    2  A    between atoms: C_3  and  C_8
    3  A    between atoms: C_6  and  N_32
    4  A    between atoms: C_6  and  C_38
    5  A    between atoms: N_7  and  N_21
    6  A    between atoms: C_10  and  N_17
    7  A    between atoms: C_10  and  C_39
    8  A    between atoms: C_12  and  C_24
    9  A    between atoms: C_12  and  C_31
   10  A    between atoms: O_18  and  P_19
   11  A    between atoms: O_18  and  C_23
   12  A    between atoms: N_21  and  C_39
                            x       y       z     vdW  Elec       q    Type
                         _______ _______ _______ _____ _____    ______ ____

>  <TORSDO>
F 12

$$$$
=
 OpenBabel10232410183D

 41 45  0  0  1  0  0  0  0  0999 V2000
  186.9820  177.6770  144.4040 C   0  0  1  0  0  3  0  0  0  0  0  0
  188.2520  178.0660  141.0700 C   0  0  0  0  0  0  0  0  0  0  0  0
  189.4460  177.1540  143.9010 N   0  0  0  0  0  2  0  0  0  0  0  0
  190.3280  177.1630  141.6120 C   0  0  2  0  0  3  0  0  0  0  0  0
  188.1090  177.7230  143.6960 C   0  0  2  0  0  0  0  0  0  0  0  0
  189.2720  177.4080  140.5590 C   0  0  0  0  0  0  0  0  0  0  0  0
  187.0850  178.0930  138.8590 C   0  0  0  0  0  0  0  0  0  0  0  0
  188.2470  177.4350  138.3100 N   0  0  0  0  0  0  0  0  0  0  0  0
  189.8160  177.9760  142.8260 C   0  0  1  0  0  0  0  0  0  0  0  0
  186.1530  178.4610  138.0930 O   0  0  0  0  0  0  0  0  0  0  0  0
  186.9400  176.8950  145.6690 C   0  0  0  0  0  1  0  0  0  0  0  0
  186.0030  178.8750  140.9340 N   0  0  0  0  0  0  0  0  0  0  0  0
  189.2590  176.8100  139.1820 C   0  0  0  0  0  2  0  0  0  0  0  0
  187.0360  178.3780  140.3170 C   0  0  0  0  0  0  0  0  0  0  0  0
  188.5280  178.3380  142.4230 N   0  0  0  0  0  0  0  0  0  0  0  0
  191.5490  177.6860  141.1840 O   0  0  0  0  0  1  0  0  0  0  0  0
  184.8750  179.1450  143.7850 C   0  0  0  0  0  3  0  0  0  0  0  0
  185.8410  178.4750  144.0490 C   0  0  0  0  0  0  0  0  0  0  0  0
  188.3370  177.2450  136.8640 C   0  0  2  0  0  3  0  0  0  0  0  0
  187.7880  175.8820  136.4680 C   0  0  0  0  0  1  0  0  0  0  0  0
  189.7720  177.4120  136.3850 C   0  0  0  0  0  2  0  0  0  0  0  0
  190.1640  176.2660  135.5860 N   0  0  0  0  0  2  0  0  0  0  0  0
  191.4870  175.8080  135.6190 N   0  0  0  0  0  0  0  0  0  0  0  0
  190.8230  174.0030  137.1030 C   0  0  0  0  0  1  0  0  0  0  0  0
  191.8400  174.7690  136.3100 C   0  0  0  0  0  0  0  0  0  0  0  0
  193.1840  174.3840  136.2930 O   0  0  0  0  0  0  0  0  0  0  0  0
  193.6600  176.1450  138.4040 O   0  0  0  0  0  1  0  0  0  0  0  0
  194.7880  173.6270  138.4370 O   0  0  0  0  0  1  0  0  0  0  0  0
  194.3390  174.9240  137.4500 P   0  0  0  0  0  0  0  0  0  0  0  0
  195.5610  175.4580  136.7400 O   0  0  0  0  0  0  0  0  0  0  0  0
  184.7080  179.1890  140.3390 C   0  0  0  0  0  2  0  0  0  0  0  0
  181.2890  178.0190  140.4410 N   0  0  0  0  0  0  0  0  0  0  0  0
  183.3530  177.3160  139.4420 C   0  0  0  0  0  2  0  0  0  0  0  0
  182.3690  178.7370  141.1110 C   0  0  0  0  0  2  0  0  0  0  0  0
  183.6820  178.1140  140.6780 C   0  0  2  0  0  3  0  0  0  0  0  0
  181.8850  177.5730  139.1860 C   0  0  0  0  0  2  0  0  0  0  0  0
  180.1310  180.0480  141.2190 C   0  0  0  0  0  1  0  0  0  0  0  0
  180.2030  178.9650  140.1480 C   0  0  1  0  0  3  0  0  0  0  0  0
  180.4340  179.6480  138.7990 C   0  0  0  0  0  2  0  0  0  0  0  0
  180.7740  181.1190  138.9720 C   0  0  0  0  0  2  0  0  0  0  0  0
  182.0900  181.3560  138.5760 O   0  0  0  0  0  1  0  0  0  0  0  0
  1 11  1  1  0  0  0
  2 15  1  0  0  0  0
  4 16  1  6  0  0  0
  4  9  1  0  0  0  0
  5  3  1  0  0  0  0
  5  1  1  1  0  0  0
  6  2  2  0  0  0  0
  6  4  1  0  0  0  0
  7 14  1  0  0  0  0
  8  7  1  0  0  0  0
  8 13  1  0  0  0  0
  9  5  1  0  0  0  0
  9  3  1  1  0  0  0
 10  7  2  0  0  0  0
 13  6  1  0  0  0  0
 14 12  2  0  0  0  0
 14  2  1  0  0  0  0
 15  9  1  0  0  0  0
 15  5  1  0  0  0  0
 17 18  3  0  0  0  0
 18  1  1  0  0  0  0
 19 20  1  1  0  0  0
 19  8  1  0  0  0  0
 21 19  1  0  0  0  0
 22 23  1  0  0  0  0
 22 21  1  0  0  0  0
 23 25  2  0  0  0  0
 25 24  1  0  0  0  0
 26 25  1  0  0  0  0
 26 29  1  0  0  0  0
 29 27  1  0  0  0  0
 29 28  1  0  0  0  0
 30 29  2  0  0  0  0
 31 12  1  0  0  0  0
 32 34  1  0  0  0  0
 33 35  1  0  0  0  0
 35 31  1  6  0  0  0
 35 34  1  0  0  0  0
 36 33  1  0  0  0  0
 36 32  1  0  0  0  0
 38 32  1  0  0  0  0
 38 37  1  1  0  0  0
 39 40  1  0  0  0  0
 39 38  1  0  0  0  0
 41 40  1  0  0  0  0
M  END
>  <MODEL>
3

>  <REMARK>
 VINA RESULT:      -7.5      2.222      6.553
  Name = 
  12 active torsions:
  status: ('A' for Active; 'I' for Inactive)
    1  A    between atoms: N_1  and  C_31
    2  A    between atoms: C_3  and  C_8
    3  A    between atoms: C_6  and  N_32
    4  A    between atoms: C_6  and  C_38
    5  A    between atoms: N_7  and  N_21
    6  A    between atoms: C_10  and  N_17
    7  A    between atoms: C_10  and  C_39
    8  A    between atoms: C_12  and  C_24
    9  A    between atoms: C_12  and  C_31
   10  A    between atoms: O_18  and  P_19
   11  A    between atoms: O_18  and  C_23
   12  A    between atoms: N_21  and  C_39
                            x       y       z     vdW  Elec       q    Type
                         _______ _______ _______ _____ _____    ______ ____

>  <TORSDO>
F 12

$$$$
=
 OpenBabel10232410183D

 41 45  0  0  1  0  0  0  0  0999 V2000
  184.6630  178.9430  139.0900 C   0  0  1  0  0  3  0  0  0  0  0  0
  187.4610  176.9780  137.9980 C   0  0  0  0  0  0  0  0  0  0  0  0
  184.5980  177.7790  136.8000 N   0  0  0  0  0  2  0  0  0  0  0  0
  186.5570  176.6220  135.8820 C   0  0  2  0  0  3  0  0  0  0  0  0
  185.0450  178.0580  138.1700 C   0  0  2  0  0  0  0  0  0  0  0  0
  187.7930  176.7500  136.7430 C   0  0  0  0  0  0  0  0  0  0  0  0
  189.8640  177.0130  138.6890 C   0  0  0  0  0  0  0  0  0  0  0  0
  190.1950  176.6930  137.3200 N   0  0  0  0  0  0  0  0  0  0  0  0
  185.4020  176.6340  136.9130 C   0  0  1  0  0  0  0  0  0  0  0  0
  190.7750  177.0560  139.5600 O   0  0  0  0  0  0  0  0  0  0  0  0
  183.5880  179.9200  138.7680 C   0  0  0  0  0  1  0  0  0  0  0  0
  188.0360  177.6190  140.2310 N   0  0  0  0  0  0  0  0  0  0  0  0
  189.2040  176.8320  136.2370 C   0  0  0  0  0  2  0  0  0  0  0  0
  188.4400  177.2310  139.0560 C   0  0  0  0  0  0  0  0  0  0  0  0
  186.0570  176.9890  138.0950 N   0  0  0  0  0  0  0  0  0  0  0  0
  186.5730  175.3960  135.2160 O   0  0  0  0  0  1  0  0  0  0  0  0
  185.5580  178.8540  141.5730 C   0  0  0  0  0  3  0  0  0  0  0  0
  185.1670  178.8900  140.4340 C   0  0  0  0  0  0  0  0  0  0  0  0
  191.5820  176.3820  136.9810 C   0  0  2  0  0  3  0  0  0  0  0  0
  191.7350  176.1890  135.4800 C   0  0  0  0  0  1  0  0  0  0  0  0
  192.0610  175.1510  137.7380 C   0  0  0  0  0  2  0  0  0  0  0  0
  193.3210  174.6880  137.1850 N   0  0  0  0  0  2  0  0  0  0  0  0
  194.5290  175.0800  137.7730 N   0  0  0  0  0  0  0  0  0  0  0  0
  195.0250  172.7590  138.2950 C   0  0  0  0  0  1  0  0  0  0  0  0
  195.3480  174.2240  138.3030 C   0  0  0  0  0  0  0  0  0  0  0  0
  196.5310  174.7010  138.8750 O   0  0  0  0  0  0  0  0  0  0  0  0
  197.9450  175.7410  136.7060 O   0  0  0  0  0  0  0  0  0  0  0  0
  199.2420  175.2850  139.0980 O   0  0  0  0  0  1  0  0  0  0  0  0
  198.0420  174.7190  138.0510 P   0  0  0  0  0  0  0  0  0  0  0  0
  198.3930  173.3200  137.5980 O   0  0  0  0  0  1  0  0  0  0  0  0
  188.8850  177.9610  141.3690 C   0  0  0  0  0  2  0  0  0  0  0  0
  190.1820  176.4180  144.3700 N   0  0  0  0  0  0  0  0  0  0  0  0
  188.1080  177.3860  143.6530 C   0  0  0  0  0  2  0  0  0  0  0  0
  190.2200  176.5110  142.9130 C   0  0  0  0  0  2  0  0  0  0  0  0
  188.8280  176.8710  142.4330 C   0  0  2  0  0  3  0  0  0  0  0  0
  189.1400  177.3630  144.7580 C   0  0  0  0  0  2  0  0  0  0  0  0
  191.7790  178.2920  144.4280 C   0  0  0  0  0  1  0  0  0  0  0  0
  191.4710  176.8770  144.9060 C   0  0  1  0  0  3  0  0  0  0  0  0
  191.4430  176.8900  146.4360 C   0  0  0  0  0  2  0  0  0  0  0  0
  192.1220  175.6600  147.0140 C   0  0  0  0  0  2  0  0  0  0  0  0
  192.8740  176.0110  148.1350 O   0  0  0  0  0  1  0  0  0  0  0  0
  1 11  1  1  0  0  0
  1 18  1  0  0  0  0
  2 15  1  0  0  0  0
  2 14  1  0  0  0  0
  3  5  1  0  0  0  0
  4 16  1  1  0  0  0
  4  6  1  0  0  0  0
  4  9  1  0  0  0  0
  5  1  1  1  0  0  0
  6  2  2  0  0  0  0
  7 14  1  0  0  0  0
  7 10  2  0  0  0  0
  8  7  1  0  0  0  0
  9  3  1  1  0  0  0
  9 15  1  0  0  0  0
  9  5  1  0  0  0  0
 12 31  1  0  0  0  0
 13  6  1  0  0  0  0
 13  8  1  0  0  0  0
 14 12  2  0  0  0  0
 15  5  1  0  0  0  0
 18 17  3  0  0  0  0
 19 20  1  6  0  0  0
 19  8  1  0  0  0  0
 19 21  1  0  0  0  0
 22 21  1  0  0  0  0
 22 23  1  0  0  0  0
 23 25  2  0  0  0  0
 24 25  1  0  0  0  0
 25 26  1  0  0  0  0
 27 29  2  0  0  0  0
 29 26  1  0  0  0  0
 29 28  1  0  0  0  0
 30 29  1  0  0  0  0
 32 36  1  0  0  0  0
 32 38  1  0  0  0  0
 33 36  1  0  0  0  0
 34 32  1  0  0  0  0
 35 31  1  6  0  0  0
 35 34  1  0  0  0  0
 35 33  1  0  0  0  0
 38 37  1  6  0  0  0
 38 39  1  0  0  0  0
 39 40  1  0  0  0  0
 40 41  1  0  0  0  0
M  END
>  <MODEL>
4

>  <REMARK>
 VINA RESULT:      -7.5      2.817      4.083
  Name = 
  12 active torsions:
  status: ('A' for Active; 'I' for Inactive)
    1  A    between atoms: N_1  and  C_31
    2  A    between atoms: C_3  and  C_8
    3  A    between atoms: C_6  and  N_32
    4  A    between atoms: C_6  and  C_38
    5  A    between atoms: N_7  and  N_21
    6  A    between atoms: C_10  and  N_17
    7  A    between atoms: C_10  and  C_39
    8  A    between atoms: C_12  and  C_24
    9  A    between atoms: C_12  and  C_31
   10  A    between atoms: O_18  and  P_19
   11  A    between atoms: O_18  and  C_23
   12  A    between atoms: N_21  and  C_39
                            x       y       z     vdW  Elec       q    Type
                         _______ _______ _______ _____ _____    ______ ____

>  <TORSDO>
F 12

$$$$
=
 OpenBabel10232410183D

 41 45  0  0  1  0  0  0  0  0999 V2000
  184.8710  177.5360  137.3230 C   0  0  1  0  0  3  0  0  0  0  0  0
  187.1880  178.3570  139.9370 C   0  0  0  0  0  0  0  0  0  0  0  0
  184.0000  178.2800  139.6220 N   0  0  0  0  0  2  0  0  0  0  0  0
  185.5080  178.6260  141.5260 C   0  0  2  0  0  3  0  0  0  0  0  0
  184.9580  178.1030  138.5250 C   0  0  2  0  0  0  0  0  0  0  0  0
  186.9470  178.2690  141.2290 C   0  0  0  0  0  0  0  0  0  0  0  0
  189.5780  177.7070  140.2800 C   0  0  0  0  0  0  0  0  0  0  0  0
  189.3020  177.6870  141.6970 N   0  0  0  0  0  0  0  0  0  0  0  0
  184.9770  179.1310  140.1620 C   0  0  1  0  0  0  0  0  0  0  0  0
  190.7570  177.5310  139.8690 O   0  0  0  0  0  0  0  0  0  0  0  0
  183.5960  176.8920  136.9060 C   0  0  0  0  0  1  0  0  0  0  0  0
  188.5810  177.9400  138.0360 N   0  0  0  0  0  0  0  0  0  0  0  0
  187.9200  177.6840  142.2110 C   0  0  0  0  0  2  0  0  0  0  0  0
  188.4700  177.9930  139.3310 C   0  0  0  0  0  0  0  0  0  0  0  0
  186.0150  178.7890  139.2910 N   0  0  0  0  0  0  0  0  0  0  0  0
  185.4640  179.6650  142.4560 O   0  0  0  0  0  1  0  0  0  0  0  0
  186.8170  177.7760  135.5530 C   0  0  0  0  0  3  0  0  0  0  0  0
  185.9330  177.6480  136.3630 C   0  0  0  0  0  0  0  0  0  0  0  0
  190.4110  177.5040  142.6320 C   0  0  2  0  0  3  0  0  0  0  0  0
  190.3290  176.1380  143.2970 C   0  0  0  0  0  1  0  0  0  0  0  0
  190.4280  178.6140  143.6730 C   0  0  0  0  0  2  0  0  0  0  0  0
  190.1250  178.0700  144.9840 N   0  0  0  0  0  2  0  0  0  0  0  0
  188.9220  178.4020  145.6200 N   0  0  0  0  0  0  0  0  0  0  0  0
  189.3010  176.6430  147.2520 C   0  0  0  0  0  1  0  0  0  0  0  0
  188.4980  177.7680  146.6680 C   0  0  0  0  0  0  0  0  0  0  0  0
  187.2830  178.1610  147.2370 O   0  0  0  0  0  0  0  0  0  0  0  0
  185.8510  177.3780  144.9740 O   0  0  0  0  0  0  0  0  0  0  0  0
  184.5040  178.0340  147.2910 O   0  0  0  0  0  1  0  0  0  0  0  0
  185.8420  178.3970  146.3250 P   0  0  0  0  0  0  0  0  0  0  0  0
  185.7550  179.8360  145.8710 O   0  0  0  0  0  1  0  0  0  0  0  0
  189.7680  177.5450  137.2830 C   0  0  0  0  0  2  0  0  0  0  0  0
  188.1670  174.3930  136.5240 N   0  0  0  0  0  0  0  0  0  0  0  0
  190.0000  175.6800  135.6660 C   0  0  0  0  0  2  0  0  0  0  0  0
  188.5150  175.3910  137.5320 C   0  0  0  0  0  2  0  0  0  0  0  0
  189.8270  176.0300  137.1220 C   0  0  2  0  0  3  0  0  0  0  0  0
  188.7490  174.9160  135.2920 C   0  0  0  0  0  2  0  0  0  0  0  0
  186.3110  173.9440  134.9690 C   0  0  0  0  0  1  0  0  0  0  0  0
  186.7040  174.3530  136.3840 C   0  0  1  0  0  3  0  0  0  0  0  0
  186.0990  173.3380  137.3560 C   0  0  0  0  0  2  0  0  0  0  0  0
  184.5810  173.3730  137.3200 C   0  0  0  0  0  2  0  0  0  0  0  0
  184.0720  172.0740  137.3310 O   0  0  0  0  0  1  0  0  0  0  0  0
  1 11  1  6  0  0  0
  2  6  2  0  0  0  0
  4 16  1  1  0  0  0
  5  1  1  6  0  0  0
  5 15  1  0  0  0  0
  5  3  1  0  0  0  0
  5  9  1  0  0  0  0
  6  4  1  0  0  0  0
  6 13  1  0  0  0  0
  7  8  1  0  0  0  0
  8 13  1  0  0  0  0
  8 19  1  0  0  0  0
  9  3  1  6  0  0  0
  9  4  1  0  0  0  0
 10  7  2  0  0  0  0
 12 14  2  0  0  0  0
 14  2  1  0  0  0  0
 14  7  1  0  0  0  0
 15  2  1  0  0  0  0
 15  9  1  0  0  0  0
 17 18  3  0  0  0  0
 18  1  1  0  0  0  0
 19 20  1  1  0  0  0
 19 21  1  0  0  0  0
 21 22  1  0  0  0  0
 22 23  1  0  0  0  0
 23 25  2  0  0  0  0
 25 26  1  0  0  0  0
 25 24  1  0  0  0  0
 27 29  2  0  0  0  0
 29 26  1  0  0  0  0
 29 28  1  0  0  0  0
 30 29  1  0  0  0  0
 31 12  1  0  0  0  0
 32 34  1  0  0  0  0
 33 35  1  0  0  0  0
 35 31  1  6  0  0  0
 35 34  1  0  0  0  0
 36 33  1  0  0  0  0
 36 32  1  0  0  0  0
 38 37  1  6  0  0  0
 38 32  1  0  0  0  0
 38 39  1  0  0  0  0
 40 41  1  0  0  0  0
 40 39  1  0  0  0  0
M  END
>  <MODEL>
5

>  <REMARK>
 VINA RESULT:      -7.2      3.553      8.628
  Name = 
  12 active torsions:
  status: ('A' for Active; 'I' for Inactive)
    1  A    between atoms: N_1  and  C_31
    2  A    between atoms: C_3  and  C_8
    3  A    between atoms: C_6  and  N_32
    4  A    between atoms: C_6  and  C_38
    5  A    between atoms: N_7  and  N_21
    6  A    between atoms: C_10  and  N_17
    7  A    between atoms: C_10  and  C_39
    8  A    between atoms: C_12  and  C_24
    9  A    between atoms: C_12  and  C_31
   10  A    between atoms: O_18  and  P_19
   11  A    between atoms: O_18  and  C_23
   12  A    between atoms: N_21  and  C_39
                            x       y       z     vdW  Elec       q    Type
                         _______ _______ _______ _____ _____    ______ ____

>  <TORSDO>
F 12

$$$$
=
 OpenBabel10232410183D

 41 45  0  0  1  0  0  0  0  0999 V2000
  186.4920  177.9090  145.2920 C   0  0  1  0  0  3  0  0  0  0  0  0
  188.7870  178.0110  142.5350 C   0  0  0  0  0  0  0  0  0  0  0  0
  188.9400  177.2100  145.6350 N   0  0  0  0  0  2  0  0  0  0  0  0
  190.5060  177.0230  143.7560 C   0  0  2  0  0  3  0  0  0  0  0  0
  187.7860  177.8430  144.9850 C   0  0  2  0  0  0  0  0  0  0  0  0
  189.8640  177.2630  142.4080 C   0  0  0  0  0  0  0  0  0  0  0  0
  188.3940  177.9680  140.0660 C   0  0  0  0  0  0  0  0  0  0  0  0
  189.6170  177.2090  139.9500 N   0  0  0  0  0  0  0  0  0  0  0  0
  189.6960  177.9400  144.7050 C   0  0  1  0  0  0  0  0  0  0  0  0
  187.7870  178.3410  139.0260 O   0  0  0  0  0  0  0  0  0  0  0  0
  185.9880  177.2120  146.5060 C   0  0  0  0  0  1  0  0  0  0  0  0
  186.7690  178.9410  141.6460 N   0  0  0  0  0  0  0  0  0  0  0  0
  190.2460  176.5810  141.1260 C   0  0  0  0  0  2  0  0  0  0  0  0
  187.9030  178.3460  141.4180 C   0  0  0  0  0  0  0  0  0  0  0  0
  188.6360  178.3510  143.8920 N   0  0  0  0  0  0  0  0  0  0  0  0
  191.8360  177.4450  143.7240 O   0  0  0  0  0  1  0  0  0  0  0  0
  184.8090  179.4280  143.9360 C   0  0  0  0  0  3  0  0  0  0  0  0
  185.5890  178.7490  144.5550 C   0  0  0  0  0  0  0  0  0  0  0  0
  190.1500  176.9230  138.6190 C   0  0  2  0  0  3  0  0  0  0  0  0
  189.6600  175.5700  138.1260 C   0  0  0  0  0  1  0  0  0  0  0  0
  191.6710  176.9810  138.6220 C   0  0  0  0  0  2  0  0  0  0  0  0
  192.1870  176.5350  137.3410 N   0  0  0  0  0  2  0  0  0  0  0  0
  193.5680  176.4190  137.1440 N   0  0  0  0  0  0  0  0  0  0  0  0
  193.3900  174.0040  137.3340 C   0  0  0  0  0  1  0  0  0  0  0  0
  194.1690  175.2700  137.1370 C   0  0  0  0  0  0  0  0  0  0  0  0
  195.5530  175.2440  136.9410 O   0  0  0  0  0  0  0  0  0  0  0  0
  198.0370  175.2820  138.2100 O   0  0  0  0  0  1  0  0  0  0  0  0
  195.8900  174.0570  139.4340 O   0  0  0  0  0  1  0  0  0  0  0  0
  196.6380  174.3680  137.9510 P   0  0  0  0  0  0  0  0  0  0  0  0
  197.0040  173.0580  137.2920 O   0  0  0  0  0  0  0  0  0  0  0  0
  185.7590  179.2930  140.6520 C   0  0  0  0  0  2  0  0  0  0  0  0
  182.4550  177.8980  140.2000 N   0  0  0  0  0  0  0  0  0  0  0  0
  184.4640  178.1000  138.9060 C   0  0  0  0  0  2  0  0  0  0  0  0
  183.5380  178.2350  141.1190 C   0  0  0  0  0  2  0  0  0  0  0  0
  184.8460  178.1070  140.3640 C   0  0  2  0  0  3  0  0  0  0  0  0
  182.9640  178.2940  138.8920 C   0  0  0  0  0  2  0  0  0  0  0  0
  180.2410  178.6420  139.4190 C   0  0  0  0  0  1  0  0  0  0  0  0
  181.2830  178.7220  140.5300 C   0  0  1  0  0  3  0  0  0  0  0  0
  180.6310  178.2370  141.8260 C   0  0  0  0  0  2  0  0  0  0  0  0
  180.8970  179.1960  142.9740 C   0  0  0  0  0  2  0  0  0  0  0  0
  180.2770  178.7360  144.1360 O   0  0  0  0  0  1  0  0  0  0  0  0
  1 11  1  1  0  0  0
  2 15  1  0  0  0  0
  4 16  1  6  0  0  0
  4  9  1  0  0  0  0
  5  1  1  1  0  0  0
  5  3  1  0  0  0  0
  6  2  2  0  0  0  0
  6  4  1  0  0  0  0
  7 14  1  0  0  0  0
  8  7  1  0  0  0  0
  8 13  1  0  0  0  0
  9  5  1  0  0  0  0
  9  3  1  1  0  0  0
 10  7  2  0  0  0  0
 13  6  1  0  0  0  0
 14 12  2  0  0  0  0
 14  2  1  0  0  0  0
 15  9  1  0  0  0  0
 15  5  1  0  0  0  0
 17 18  3  0  0  0  0
 18  1  1  0  0  0  0
 19 20  1  1  0  0  0
 19 21  1  0  0  0  0
 19  8  1  0  0  0  0
 22 21  1  0  0  0  0
 23 22  1  0  0  0  0
 25 23  2  0  0  0  0
 25 24  1  0  0  0  0
 26 25  1  0  0  0  0
 26 29  1  0  0  0  0
 29 27  1  0  0  0  0
 29 28  1  0  0  0  0
 30 29  2  0  0  0  0
 31 12  1  0  0  0  0
 32 38  1  0  0  0  0
 32 34  1  0  0  0  0
 33 35  1  0  0  0  0
 35 31  1  6  0  0  0
 35 34  1  0  0  0  0
 36 33  1  0  0  0  0
 36 32  1  0  0  0  0
 38 37  1  6  0  0  0
 38 39  1  0  0  0  0
 39 40  1  0  0  0  0
 40 41  1  0  0  0  0
M  END
>  <MODEL>
6

>  <REMARK>
 VINA RESULT:      -7.0      2.353      6.505
  Name = 
  12 active torsions:
  status: ('A' for Active; 'I' for Inactive)
    1  A    between atoms: N_1  and  C_31
    2  A    between atoms: C_3  and  C_8
    3  A    between atoms: C_6  and  N_32
    4  A    between atoms: C_6  and  C_38
    5  A    between atoms: N_7  and  N_21
    6  A    between atoms: C_10  and  N_17
    7  A    between atoms: C_10  and  C_39
    8  A    between atoms: C_12  and  C_24
    9  A    between atoms: C_12  and  C_31
   10  A    between atoms: O_18  and  P_19
   11  A    between atoms: O_18  and  C_23
   12  A    between atoms: N_21  and  C_39
                            x       y       z     vdW  Elec       q    Type
                         _______ _______ _______ _____ _____    ______ ____

>  <TORSDO>
F 12

$$$$
=
 OpenBabel10232410183D

 41 45  0  0  1  0  0  0  0  0999 V2000
  185.0260  177.3740  136.9970 C   0  0  1  0  0  3  0  0  0  0  0  0
  187.2710  178.4000  139.6010 C   0  0  0  0  0  0  0  0  0  0  0  0
  184.0920  178.2340  139.2310 N   0  0  0  0  0  2  0  0  0  0  0  0
  185.5530  178.7260  141.1390 C   0  0  2  0  0  3  0  0  0  0  0  0
  185.0760  178.0130  138.1650 C   0  0  2  0  0  0  0  0  0  0  0  0
  187.0050  178.3830  140.8920 C   0  0  0  0  0  0  0  0  0  0  0  0
  189.6670  177.8240  140.0280 C   0  0  0  0  0  0  0  0  0  0  0  0
  189.3630  177.8830  141.4380 N   0  0  0  0  0  0  0  0  0  0  0  0
  185.0400  179.1370  139.7370 C   0  0  1  0  0  0  0  0  0  0  0  0
  190.8580  177.6500  139.6500 O   0  0  0  0  0  0  0  0  0  0  0  0
  183.7730  176.6780  136.5940 C   0  0  0  0  0  1  0  0  0  0  0  0
  188.7110  177.9010  137.7550 N   0  0  0  0  0  0  0  0  0  0  0  0
  187.9710  177.8790  141.9250 C   0  0  0  0  0  2  0  0  0  0  0  0
  188.5720  178.0280  139.0430 C   0  0  0  0  0  0  0  0  0  0  0  0
  186.1030  178.7660  138.9080 N   0  0  0  0  0  0  0  0  0  0  0  0
  185.4690  179.8170  142.0040 O   0  0  0  0  0  1  0  0  0  0  0  0
  187.0040  177.5520  135.2570 C   0  0  0  0  0  3  0  0  0  0  0  0
  186.1040  177.4520  136.0530 C   0  0  0  0  0  0  0  0  0  0  0  0
  190.4550  177.7800  142.4030 C   0  0  2  0  0  3  0  0  0  0  0  0
  190.7200  176.3240  142.7580 C   0  0  0  0  0  1  0  0  0  0  0  0
  190.1520  178.5960  143.6520 C   0  0  0  0  0  2  0  0  0  0  0  0
  190.1030  177.7260  144.8130 N   0  0  0  0  0  2  0  0  0  0  0  0
  189.1690  177.9650  145.8290 N   0  0  0  0  0  0  0  0  0  0  0  0
  187.5410  176.6030  144.6480 C   0  0  0  0  0  1  0  0  0  0  0  0
  187.9710  177.4700  145.7940 C   0  0  0  0  0  0  0  0  0  0  0  0
  187.0990  177.7640  146.8460 O   0  0  0  0  0  0  0  0  0  0  0  0
  185.9850  180.2150  147.5770 O   0  0  0  0  0  1  0  0  0  0  0  0
  185.5240  179.1950  145.0550 O   0  0  0  0  0  0  0  0  0  0  0  0
  185.7340  178.8000  146.6840 P   0  0  0  0  0  0  0  0  0  0  0  0
  184.4960  178.0960  147.1910 O   0  0  0  0  0  1  0  0  0  0  0  0
  189.9210  177.4880  137.0500 C   0  0  0  0  0  2  0  0  0  0  0  0
  191.4050  174.3980  135.9020 N   0  0  0  0  0  0  0  0  0  0  0  0
  189.9360  175.0870  137.6680 C   0  0  0  0  0  2  0  0  0  0  0  0
  190.9060  175.7290  135.5660 C   0  0  0  0  0  2  0  0  0  0  0  0
  189.7840  176.0620  136.5290 C   0  0  2  0  0  3  0  0  0  0  0  0
  191.1760  174.2870  137.3390 C   0  0  0  0  0  2  0  0  0  0  0  0
  193.2160  175.2940  134.4940 C   0  0  0  0  0  1  0  0  0  0  0  0
  192.8500  174.3570  135.6410 C   0  0  1  0  0  3  0  0  0  0  0  0
  193.6330  174.7960  136.8790 C   0  0  0  0  0  2  0  0  0  0  0  0
  195.1220  174.5350  136.7160 C   0  0  0  0  0  2  0  0  0  0  0  0
  195.8210  175.0590  137.8040 O   0  0  0  0  0  1  0  0  0  0  0  0
  1 11  1  6  0  0  0
  2  6  2  0  0  0  0
  4 16  1  1  0  0  0
  5  1  1  6  0  0  0
  5 15  1  0  0  0  0
  5  3  1  0  0  0  0
  5  9  1  0  0  0  0
  6  4  1  0  0  0  0
  6 13  1  0  0  0  0
  7  8  1  0  0  0  0
  8 13  1  0  0  0  0
  8 19  1  0  0  0  0
  9  3  1  6  0  0  0
  9  4  1  0  0  0  0
 10  7  2  0  0  0  0
 12 14  2  0  0  0  0
 14  2  1  0  0  0  0
 14  7  1  0  0  0  0
 15  2  1  0  0  0  0
 15  9  1  0  0  0  0
 17 18  3  0  0  0  0
 18  1  1  0  0  0  0
 19 20  1  1  0  0  0
 19 21  1  0  0  0  0
 21 22  1  0  0  0  0
 22 23  1  0  0  0  0
 24 25  1  0  0  0  0
 25 23  2  0  0  0  0
 25 26  1  0  0  0  0
 28 29  2  0  0  0  0
 29 26  1  0  0  0  0
 29 30  1  0  0  0  0
 29 27  1  0  0  0  0
 31 12  1  0  0  0  0
 32 36  1  0  0  0  0
 34 32  1  0  0  0  0
 34 35  1  0  0  0  0
 35 31  1  1  0  0  0
 35 33  1  0  0  0  0
 36 33  1  0  0  0  0
 38 37  1  6  0  0  0
 38 32  1  0  0  0  0
 38 39  1  0  0  0  0
 40 39  1  0  0  0  0
 40 41  1  0  0  0  0
M  END
>  <MODEL>
7

>  <REMARK>
 VINA RESULT:      -6.8      3.386      8.592
  Name = 
  12 active torsions:
  status: ('A' for Active; 'I' for Inactive)
    1  A    between atoms: N_1  and  C_31
    2  A    between atoms: C_3  and  C_8
    3  A    between atoms: C_6  and  N_32
    4  A    between atoms: C_6  and  C_38
    5  A    between atoms: N_7  and  N_21
    6  A    between atoms: C_10  and  N_17
    7  A    between atoms: C_10  and  C_39
    8  A    between atoms: C_12  and  C_24
    9  A    between atoms: C_12  and  C_31
   10  A    between atoms: O_18  and  P_19
   11  A    between atoms: O_18  and  C_23
   12  A    between atoms: N_21  and  C_39
                            x       y       z     vdW  Elec       q    Type
                         _______ _______ _______ _____ _____    ______ ____

>  <TORSDO>
F 12

$$$$
=
 OpenBabel10232410183D

 41 45  0  0  1  0  0  0  0  0999 V2000
  186.7170  177.7190  145.1040 C   0  0  1  0  0  3  0  0  0  0  0  0
  188.4150  178.1410  141.9710 C   0  0  0  0  0  0  0  0  0  0  0  0
  189.2400  177.2660  144.9420 N   0  0  0  0  0  2  0  0  0  0  0  0
  190.4240  177.2990  142.7940 C   0  0  2  0  0  3  0  0  0  0  0  0
  187.9280  177.7960  144.5550 C   0  0  2  0  0  0  0  0  0  0  0  0
  189.5140  177.5120  141.6060 C   0  0  0  0  0  0  0  0  0  0  0  0
  187.5580  178.1320  139.6230 C   0  0  0  0  0  0  0  0  0  0  0  0
  188.8020  177.5070  139.2390 N   0  0  0  0  0  0  0  0  0  0  0  0
  189.7300  178.0980  143.9230 C   0  0  1  0  0  0  0  0  0  0  0  0
  186.7280  178.4720  138.7350 O   0  0  0  0  0  0  0  0  0  0  0  0
  186.5270  176.9370  146.3560 C   0  0  0  0  0  1  0  0  0  0  0  0
  186.1840  178.8850  141.5280 N   0  0  0  0  0  0  0  0  0  0  0  0
  189.7040  176.9120  140.2420 C   0  0  0  0  0  2  0  0  0  0  0  0
  187.3040  178.4160  141.0590 C   0  0  0  0  0  0  0  0  0  0  0  0
  188.4980  178.4220  143.3470 N   0  0  0  0  0  0  0  0  0  0  0  0
  191.6760  177.8560  142.5320 O   0  0  0  0  0  1  0  0  0  0  0  0
  184.6780  179.1340  144.1990 C   0  0  0  0  0  3  0  0  0  0  0  0
  185.6130  178.4840  144.5950 C   0  0  0  0  0  0  0  0  0  0  0  0
  189.0920  177.3190  137.8190 C   0  0  2  0  0  3  0  0  0  0  0  0
  188.5540  178.4850  137.0040 C   0  0  0  0  0  1  0  0  0  0  0  0
  188.5210  175.9990  137.3210 C   0  0  0  0  0  2  0  0  0  0  0  0
  187.5730  176.2420  136.2490 N   0  0  0  0  0  2  0  0  0  0  0  0
  186.6040  175.2790  135.9390 N   0  0  0  0  0  0  0  0  0  0  0  0
  184.8590  176.9420  136.2370 C   0  0  0  0  0  1  0  0  0  0  0  0
  185.3370  175.5550  135.9250 C   0  0  0  0  0  0  0  0  0  0  0  0
  184.4370  174.5330  135.6110 O   0  0  0  0  0  0  0  0  0  0  0  0
  182.5750  174.3480  137.6800 O   0  0  0  0  0  1  0  0  0  0  0  0
  182.9920  172.1900  136.0130 O   0  0  0  0  0  0  0  0  0  0  0  0
  183.7330  173.4950  136.7900 P   0  0  0  0  0  0  0  0  0  0  0  0
  184.8060  172.9780  137.7200 O   0  0  0  0  0  1  0  0  0  0  0  0
  184.9720  179.1600  140.7620 C   0  0  0  0  0  2  0  0  0  0  0  0
  181.5700  177.9660  140.5090 N   0  0  0  0  0  0  0  0  0  0  0  0
  183.7350  177.2640  139.7510 C   0  0  0  0  0  2  0  0  0  0  0  0
  182.5670  178.7020  141.2820 C   0  0  0  0  0  2  0  0  0  0  0  0
  183.9220  178.0830  141.0030 C   0  0  2  0  0  3  0  0  0  0  0  0
  182.3020  177.5070  139.3330 C   0  0  0  0  0  2  0  0  0  0  0  0
  180.3570  180.0250  141.1030 C   0  0  0  0  0  1  0  0  0  0  0  0
  180.5170  178.9000  140.0860 C   0  0  1  0  0  3  0  0  0  0  0  0
  180.8660  179.5280  138.7350 C   0  0  0  0  0  2  0  0  0  0  0  0
  181.1470  181.0150  138.8710 C   0  0  0  0  0  2  0  0  0  0  0  0
  182.5110  181.2610  138.7140 O   0  0  0  0  0  1  0  0  0  0  0  0
  1 11  1  1  0  0  0
  2 15  1  0  0  0  0
  4 16  1  6  0  0  0
  4  9  1  0  0  0  0
  5  3  1  0  0  0  0
  5  1  1  1  0  0  0
  6  2  2  0  0  0  0
  6  4  1  0  0  0  0
  7 14  1  0  0  0  0
  8  7  1  0  0  0  0
  8 13  1  0  0  0  0
  9  5  1  0  0  0  0
  9  3  1  1  0  0  0
 10  7  2  0  0  0  0
 13  6  1  0  0  0  0
 14 12  2  0  0  0  0
 14  2  1  0  0  0  0
 15  9  1  0  0  0  0
 15  5  1  0  0  0  0
 17 18  3  0  0  0  0
 18  1  1  0  0  0  0
 19 20  1  6  0  0  0
 19  8  1  0  0  0  0
 21 19  1  0  0  0  0
 22 21  1  0  0  0  0
 23 22  1  0  0  0  0
 25 23  2  0  0  0  0
 25 24  1  0  0  0  0
 26 25  1  0  0  0  0
 26 29  1  0  0  0  0
 28 29  2  0  0  0  0
 29 27  1  0  0  0  0
 29 30  1  0  0  0  0
 31 12  1  0  0  0  0
 32 34  1  0  0  0  0
 33 35  1  0  0  0  0
 35 31  1  6  0  0  0
 35 34  1  0  0  0  0
 36 33  1  0  0  0  0
 36 32  1  0  0  0  0
 38 32  1  0  0  0  0
 38 37  1  1  0  0  0
 39 40  1  0  0  0  0
 39 38  1  0  0  0  0
 41 40  1  0  0  0  0
M  END
>  <MODEL>
8

>  <REMARK>
 VINA RESULT:      -6.7      3.227      7.605
  Name = 
  12 active torsions:
  status: ('A' for Active; 'I' for Inactive)
    1  A    between atoms: N_1  and  C_31
    2  A    between atoms: C_3  and  C_8
    3  A    between atoms: C_6  and  N_32
    4  A    between atoms: C_6  and  C_38
    5  A    between atoms: N_7  and  N_21
    6  A    between atoms: C_10  and  N_17
    7  A    between atoms: C_10  and  C_39
    8  A    between atoms: C_12  and  C_24
    9  A    between atoms: C_12  and  C_31
   10  A    between atoms: O_18  and  P_19
   11  A    between atoms: O_18  and  C_23
   12  A    between atoms: N_21  and  C_39
                            x       y       z     vdW  Elec       q    Type
                         _______ _______ _______ _____ _____    ______ ____

>  <TORSDO>
F 12

$$$$
=
 OpenBabel10232410183D

 41 45  0  0  1  0  0  0  0  0999 V2000
  181.2490  179.2980  142.3430 C   0  0  1  0  0  3  0  0  0  0  0  0
  183.9340  178.0670  140.3050 C   0  0  0  0  0  0  0  0  0  0  0  0
  180.7770  178.4860  139.9520 N   0  0  0  0  0  2  0  0  0  0  0  0
  182.5860  177.8590  138.4190 C   0  0  2  0  0  3  0  0  0  0  0  0
  181.5100  178.6430  141.2130 C   0  0  2  0  0  0  0  0  0  0  0  0
  183.9670  178.0890  138.9880 C   0  0  0  0  0  0  0  0  0  0  0  0
  186.4020  178.4490  140.4320 C   0  0  0  0  0  0  0  0  0  0  0  0
  186.4190  178.3970  138.9890 N   0  0  0  0  0  0  0  0  0  0  0  0
  181.7400  177.5060  139.6660 C   0  0  1  0  0  0  0  0  0  0  0  0
  187.4880  178.5340  141.0680 O   0  0  0  0  0  0  0  0  0  0  0  0
  179.9970  180.0940  142.4580 C   0  0  0  0  0  1  0  0  0  0  0  0
  184.9570  178.4740  142.4300 N   0  0  0  0  0  0  0  0  0  0  0  0
  185.1770  178.5040  138.2020 C   0  0  0  0  0  2  0  0  0  0  0  0
  185.1020  178.3430  141.1440 C   0  0  0  0  0  0  0  0  0  0  0  0
  182.6150  177.8020  140.7150 N   0  0  0  0  0  0  0  0  0  0  0  0
  182.6120  176.7670  137.5500 O   0  0  0  0  0  1  0  0  0  0  0  0
  182.8020  179.0300  144.4630 C   0  0  0  0  0  3  0  0  0  0  0  0
  182.0790  179.1460  143.5060 C   0  0  0  0  0  0  0  0  0  0  0  0
  187.7050  178.4030  138.2940 C   0  0  2  0  0  3  0  0  0  0  0  0
  187.6060  179.1810  136.9910 C   0  0  0  0  0  1  0  0  0  0  0  0
  188.1890  176.9820  138.0420 C   0  0  0  0  0  2  0  0  0  0  0  0
  187.9760  176.6250  136.6520 N   0  0  0  0  0  2  0  0  0  0  0  0
  186.9430  175.7460  136.3040 N   0  0  0  0  0  0  0  0  0  0  0  0
  186.0890  177.3790  134.7210 C   0  0  0  0  0  1  0  0  0  0  0  0
  186.0440  176.0520  135.4200 C   0  0  0  0  0  0  0  0  0  0  0  0
  185.0430  175.1190  135.1380 O   0  0  0  0  0  0  0  0  0  0  0  0
  184.0370  172.5980  134.4920 O   0  0  0  0  0  0  0  0  0  0  0  0
  186.7600  172.9650  134.7450 O   0  0  0  0  0  1  0  0  0  0  0  0
  185.2460  173.4210  135.3420 P   0  0  0  0  0  0  0  0  0  0  0  0
  185.1610  173.0700  136.8090 O   0  0  0  0  0  1  0  0  0  0  0  0
  186.0070  178.8000  143.3920 C   0  0  0  0  0  2  0  0  0  0  0  0
  188.1350  177.0070  145.7000 N   0  0  0  0  0  0  0  0  0  0  0  0
  185.9880  178.0750  145.7630 C   0  0  0  0  0  2  0  0  0  0  0  0
  187.7020  177.2080  144.3200 C   0  0  0  0  0  2  0  0  0  0  0  0
  186.2480  177.6350  144.3450 C   0  0  2  0  0  3  0  0  0  0  0  0
  187.3210  177.9450  146.4660 C   0  0  0  0  0  2  0  0  0  0  0  0
  190.1790  176.7690  147.0520 C   0  0  0  0  0  1  0  0  0  0  0  0
  189.5480  177.3940  145.8120 C   0  0  1  0  0  3  0  0  0  0  0  0
  190.3350  176.9180  144.5900 C   0  0  0  0  0  2  0  0  0  0  0  0
  190.6470  178.0690  143.6480 C   0  0  0  0  0  2  0  0  0  0  0  0
  190.9150  179.2260  144.3790 O   0  0  0  0  0  1  0  0  0  0  0  0
  1 11  1  1  0  0  0
  1 18  1  0  0  0  0
  2 15  1  0  0  0  0
  2 14  1  0  0  0  0
  3  5  1  0  0  0  0
  4 16  1  6  0  0  0
  4  6  1  0  0  0  0
  4  9  1  0  0  0  0
  5  1  1  1  0  0  0
  6  2  2  0  0  0  0
  7 10  2  0  0  0  0
  7 14  1  0  0  0  0
  8  7  1  0  0  0  0
  9  3  1  1  0  0  0
  9 15  1  0  0  0  0
  9  5  1  0  0  0  0
 12 31  1  0  0  0  0
 13  6  1  0  0  0  0
 13  8  1  0  0  0  0
 14 12  2  0  0  0  0
 15  5  1  0  0  0  0
 18 17  3  0  0  0  0
 19 20  1  6  0  0  0
 19  8  1  0  0  0  0
 21 19  1  0  0  0  0
 22 21  1  0  0  0  0
 23 22  1  0  0  0  0
 24 25  1  0  0  0  0
 25 23  2  0  0  0  0
 26 29  1  0  0  0  0
 26 25  1  0  0  0  0
 27 29  2  0  0  0  0
 28 29  1  0  0  0  0
 29 30  1  0  0  0  0
 32 38  1  0  0  0  0
 32 36  1  0  0  0  0
 33 36  1  0  0  0  0
 34 35  1  0  0  0  0
 34 32  1  0  0  0  0
 35 31  1  6  0  0  0
 35 33  1  0  0  0  0
 38 37  1  1  0  0  0
 39 38  1  0  0  0  0
 40 41  1  0  0  0  0
 40 39  1  0  0  0  0
M  END
>  <MODEL>
9

>  <REMARK>
 VINA RESULT:      -6.5      3.191      3.829
  Name = 
  12 active torsions:
  status: ('A' for Active; 'I' for Inactive)
    1  A    between atoms: N_1  and  C_31
    2  A    between atoms: C_3  and  C_8
    3  A    between atoms: C_6  and  N_32
    4  A    between atoms: C_6  and  C_38
    5  A    between atoms: N_7  and  N_21
    6  A    between atoms: C_10  and  N_17
    7  A    between atoms: C_10  and  C_39
    8  A    between atoms: C_12  and  C_24
    9  A    between atoms: C_12  and  C_31
   10  A    between atoms: O_18  and  P_19
   11  A    between atoms: O_18  and  C_23
   12  A    between atoms: N_21  and  C_39
                            x       y       z     vdW  Elec       q    Type
                         _______ _______ _______ _____ _____    ______ ____

>  <TORSDO>
F 12

$$$$
