=
 OpenBabel10232410283D

 43 49  0  0  1  0  0  0  0  0999 V2000
  183.0730  178.7140  141.2950 C   0  0  0  0  0  0  0  0  0  0  0  0
  188.0430  178.6160  138.6910 C   0  0  0  0  0  0  0  0  0  0  0  0
  190.0140  176.4290  137.9630 C   0  0  0  0  0  0  0  0  0  0  0  0
  184.4860  179.0580  139.2090 C   0  0  0  0  0  3  0  0  0  0  0  0
  185.4140  178.1290  142.0610 C   0  0  0  0  0  3  0  0  0  0  0  0
  185.7450  178.7720  139.5280 C   0  0  0  0  0  0  0  0  0  0  0  0
  186.6880  178.9040  138.5010 O   0  0  0  0  0  0  0  0  0  0  0  0
  186.2260  178.3260  140.8590 C   0  0  0  0  0  0  0  0  0  0  0  0
  184.1080  178.2910  142.2400 C   0  0  0  0  0  3  0  0  0  0  0  0
  189.3850  177.3840  137.1390 O   0  0  0  0  0  0  0  0  0  0  0  0
  188.4910  178.2200  139.8880 C   0  0  0  0  0  0  0  0  0  0  0  0
  188.9840  178.6950  137.5340 C   0  0  0  0  0  2  0  0  0  0  0  0
  183.2620  179.0320  140.0160 C   0  0  0  0  0  3  0  0  0  0  0  0
  181.7440  178.7940  141.7950 N   0  0  0  0  0  1  0  0  0  0  0  0
  187.5290  178.0670  140.9980 C   0  0  0  0  0  3  0  0  0  0  0  0
  190.2770  176.6210  139.2670 C   0  0  0  0  0  3  0  0  0  0  0  0
  189.9470  177.8600  140.0470 C   0  0  2  0  0  3  0  0  0  0  0  0
  191.5950  174.6050  137.6210 N   0  0  0  0  0  0  0  0  0  0  0  0
  192.0020  173.4550  137.0320 C   0  0  0  0  0  3  0  0  0  0  0  0
  189.5000  174.4390  136.4860 C   0  0  0  0  0  0  0  0  0  0  0  0
  190.3670  175.1300  137.3670 C   0  0  0  0  0  0  0  0  0  0  0  0
  189.9590  173.2970  135.9060 N   0  0  0  0  0  0  0  0  0  0  0  0
  191.1740  172.8170  136.1670 N   0  0  0  0  0  0  0  0  0  0  0  0
  185.4720  175.7270  135.7640 C   0  0  0  0  0  0  0  0  0  0  0  0
  184.0760  176.1810  135.5210 C   0  0  0  0  0  1  0  0  0  0  0  0
  185.8240  175.1770  137.0010 C   0  0  0  0  0  3  0  0  0  0  0  0
  188.1050  174.8590  136.2170 C   0  0  0  0  0  0  0  0  0  0  0  0
  186.4330  175.8620  134.7590 C   0  0  0  0  0  3  0  0  0  0  0  0
  187.7450  175.4350  134.9880 C   0  0  0  0  0  3  0  0  0  0  0  0
  187.1370  174.7500  137.2280 C   0  0  0  0  0  3  0  0  0  0  0  0
  190.3010  177.6720  141.4470 N   0  0  0  0  0  2  0  0  0  0  0  0
  190.2690  176.2940  141.6980 N   0  0  0  0  0  2  0  0  0  0  0  0
  190.9290  176.0830  142.9740 C   0  0  0  0  0  2  0  0  0  0  0  0
  188.8100  176.9690  144.5090 C   0  0  0  0  0  0  0  0  0  0  0  0
  190.0550  176.5040  144.0530 N   0  0  0  0  0  0  0  0  0  0  0  0
  189.8520  176.8480  145.4000 C   0  0  0  0  0  0  0  0  0  0  0  0
  188.2650  177.9770  148.5450 C   0  0  0  0  0  1  0  0  0  0  0  0
  187.4220  177.7290  146.1640 C   0  0  0  0  0  3  0  0  0  0  0  0
  188.5190  177.6050  147.1250 C   0  0  0  0  0  0  0  0  0  0  0  0
  187.5410  177.4020  144.7650 C   0  0  0  0  0  3  0  0  0  0  0  0
  189.8230  177.1410  146.7340 C   0  0  0  0  0  0  0  0  0  0  0  0
  190.9040  177.0140  147.6110 O   0  0  0  0  0  0  0  0  0  0  0  0
  191.9530  176.0850  147.3840 C   0  0  0  0  0  1  0  0  0  0  0  0
  1 14  1  0  0  0  0
  1  9  1  0  0  0  0
  2 11  2  0  0  0  0
  3 16  2  0  0  0  0
  4  6  2  0  0  0  0
  4 13  1  0  0  0  0
  5  9  2  0  0  0  0
  6  8  1  0  0  0  0
  7  2  1  0  0  0  0
  7  6  1  0  0  0  0
  8 15  2  0  0  0  0
  8  5  1  0  0  0  0
 10 12  1  0  0  0  0
 10  3  1  0  0  0  0
 11 17  1  0  0  0  0
 11 15  1  0  0  0  0
 12  2  1  0  0  0  0
 13  1  2  0  0  0  0
 16 17  1  0  0  0  0
 17 31  1  1  0  0  0
 19 18  2  0  0  0  0
 20 21  2  0  0  0  0
 21 18  1  0  0  0  0
 21  3  1  0  0  0  0
 22 23  2  0  0  0  0
 22 20  1  0  0  0  0
 23 19  1  0  0  0  0
 24 26  1  0  0  0  0
 25 24  1  0  0  0  0
 26 30  2  0  0  0  0
 27 20  1  0  0  0  0
 27 30  1  0  0  0  0
 28 29  1  0  0  0  0
 28 24  2  0  0  0  0
 29 27  2  0  0  0  0
 31 32  1  0  0  0  0
 32 33  1  0  0  0  0
 33 35  1  0  0  0  0
 34 40  2  0  0  0  0
 34 36  1  0  0  0  0
 35 34  1  0  0  0  0
 35 36  1  0  0  0  0
 36 41  2  0  0  0  0
 38 39  2  0  0  0  0
 39 37  1  0  0  0  0
 40 38  1  0  0  0  0
 41 39  1  0  0  0  0
 41 42  1  0  0  0  0
 43 42  1  0  0  0  0
M  END
>  <MODEL>
1

>  <REMARK>
 VINA RESULT:      -9.5      0.000      0.000
  Name = 
  7 active torsions:
  status: ('A' for Active; 'I' for Inactive)
    1  A    between atoms: N_4  and  N_32
    2  A    between atoms: N_4  and  C_42
    3  A    between atoms: C_6  and  C_21
    4  A    between atoms: C_7  and  C_15
    5  A    between atoms: N_10  and  C_29
    6  A    between atoms: O_26  and  C_43
    7  A    between atoms: C_29  and  N_32
                            x       y       z     vdW  Elec       q    Type
                         _______ _______ _______ _____ _____    ______ ____

>  <TORSDO>
F 7

$$$$
=
 OpenBabel10232410283D

 43 49  0  0  1  0  0  0  0  0999 V2000
  185.0090  178.6580  144.4220 C   0  0  0  0  0  0  0  0  0  0  0  0
  187.4510  178.2670  139.3840 C   0  0  0  0  0  0  0  0  0  0  0  0
  188.1340  175.9650  137.5310 C   0  0  0  0  0  0  0  0  0  0  0  0
  185.0170  179.1290  141.9230 C   0  0  0  0  0  3  0  0  0  0  0  0
  187.1800  177.6220  143.6280 C   0  0  0  0  0  3  0  0  0  0  0  0
  186.1370  178.6150  141.4230 C   0  0  0  0  0  0  0  0  0  0  0  0
  186.3290  178.7750  140.0440 O   0  0  0  0  0  0  0  0  0  0  0  0
  187.1810  177.8930  142.1900 C   0  0  0  0  0  0  0  0  0  0  0  0
  186.2800  177.9400  144.5520 C   0  0  0  0  0  3  0  0  0  0  0  0
  187.3690  177.1240  137.2830 O   0  0  0  0  0  0  0  0  0  0  0  0
  188.4040  177.6200  140.0650 C   0  0  0  0  0  0  0  0  0  0  0  0
  187.5560  178.3960  137.9000 C   0  0  0  0  0  2  0  0  0  0  0  0
  184.4990  179.1490  143.2940 C   0  0  0  0  0  3  0  0  0  0  0  0
  184.2570  178.8470  145.6130 N   0  0  0  0  0  1  0  0  0  0  0  0
  188.2400  177.4290  141.5200 C   0  0  0  0  0  3  0  0  0  0  0  0
  189.1270  175.9020  138.4340 C   0  0  0  0  0  3  0  0  0  0  0  0
  189.5740  177.0310  139.3160 C   0  0  2  0  0  3  0  0  0  0  0  0
  186.5450  174.2290  136.8970 N   0  0  0  0  0  0  0  0  0  0  0  0
  186.2080  173.0630  136.2950 C   0  0  0  0  0  3  0  0  0  0  0  0
  188.7490  174.0500  135.9950 C   0  0  0  0  0  0  0  0  0  0  0  0
  187.7980  174.7440  136.7800 C   0  0  0  0  0  0  0  0  0  0  0  0
  188.3700  172.8750  135.4240 N   0  0  0  0  0  0  0  0  0  0  0  0
  187.1370  172.3920  135.5680 N   0  0  0  0  0  0  0  0  0  0  0  0
  192.7030  175.4730  135.1250 C   0  0  0  0  0  0  0  0  0  0  0  0
  194.0750  175.9560  134.8190 C   0  0  0  0  0  1  0  0  0  0  0  0
  192.5170  174.4100  136.0160 C   0  0  0  0  0  3  0  0  0  0  0  0
  190.1090  174.5680  135.7120 C   0  0  0  0  0  0  0  0  0  0  0  0
  191.5990  176.0740  134.5130 C   0  0  0  0  0  3  0  0  0  0  0  0
  190.3090  175.6180  134.8010 C   0  0  0  0  0  3  0  0  0  0  0  0
  191.2250  173.9560  136.3030 C   0  0  0  0  0  3  0  0  0  0  0  0
  190.6110  176.5680  140.2260 N   0  0  0  0  0  2  0  0  0  0  0  0
  191.6870  177.4580  140.1090 N   0  0  0  0  0  2  0  0  0  0  0  0
  192.6040  177.1550  141.1940 C   0  0  0  0  0  2  0  0  0  0  0  0
  191.1230  178.1140  143.3200 C   0  0  0  0  0  0  0  0  0  0  0  0
  191.9350  177.3470  142.4680 N   0  0  0  0  0  0  0  0  0  0  0  0
  191.7010  176.9600  143.7980 C   0  0  0  0  0  0  0  0  0  0  0  0
  190.4590  176.9040  147.2820 C   0  0  0  0  0  1  0  0  0  0  0  0
  190.1270  178.5090  145.3440 C   0  0  0  0  0  3  0  0  0  0  0  0
  190.7320  177.2830  145.8680 C   0  0  0  0  0  0  0  0  0  0  0  0
  190.3150  178.9830  143.9950 C   0  0  0  0  0  3  0  0  0  0  0  0
  191.5780  176.4470  145.0580 C   0  0  0  0  0  0  0  0  0  0  0  0
  192.1850  175.2740  145.5140 O   0  0  0  0  0  0  0  0  0  0  0  0
  192.2410  174.0980  144.7220 C   0  0  0  0  0  1  0  0  0  0  0  0
  1  9  1  0  0  0  0
  1 14  1  0  0  0  0
  2  7  1  0  0  0  0
  2 11  2  0  0  0  0
  3 16  2  0  0  0  0
  4 13  1  0  0  0  0
  5  9  2  0  0  0  0
  6  4  2  0  0  0  0
  6  8  1  0  0  0  0
  7  6  1  0  0  0  0
  8  5  1  0  0  0  0
 10  3  1  0  0  0  0
 10 12  1  0  0  0  0
 11 15  1  0  0  0  0
 12  2  1  0  0  0  0
 13  1  2  0  0  0  0
 15  8  2  0  0  0  0
 16 17  1  0  0  0  0
 17 11  1  0  0  0  0
 17 31  1  1  0  0  0
 19 18  2  0  0  0  0
 20 21  2  0  0  0  0
 21 18  1  0  0  0  0
 21  3  1  0  0  0  0
 22 23  2  0  0  0  0
 22 20  1  0  0  0  0
 23 19  1  0  0  0  0
 24 26  1  0  0  0  0
 25 24  1  0  0  0  0
 26 30  2  0  0  0  0
 27 20  1  0  0  0  0
 27 30  1  0  0  0  0
 28 29  1  0  0  0  0
 28 24  2  0  0  0  0
 29 27  2  0  0  0  0
 32 31  1  0  0  0  0
 32 33  1  0  0  0  0
 33 35  1  0  0  0  0
 34 36  2  0  0  0  0
 34 40  1  0  0  0  0
 35 34  1  0  0  0  0
 35 36  1  0  0  0  0
 36 41  1  0  0  0  0
 38 39  1  0  0  0  0
 39 37  1  0  0  0  0
 40 38  2  0  0  0  0
 41 42  1  0  0  0  0
 41 39  2  0  0  0  0
 43 42  1  0  0  0  0
M  END
>  <MODEL>
2

>  <REMARK>
 VINA RESULT:      -8.8      2.049      3.534
  Name = 
  7 active torsions:
  status: ('A' for Active; 'I' for Inactive)
    1  A    between atoms: N_4  and  N_32
    2  A    between atoms: N_4  and  C_42
    3  A    between atoms: C_6  and  C_21
    4  A    between atoms: C_7  and  C_15
    5  A    between atoms: N_10  and  C_29
    6  A    between atoms: O_26  and  C_43
    7  A    between atoms: C_29  and  N_32
                            x       y       z     vdW  Elec       q    Type
                         _______ _______ _______ _____ _____    ______ ____

>  <TORSDO>
F 7

$$$$
=
 OpenBabel10232410283D

 43 49  0  0  1  0  0  0  0  0999 V2000
  187.9140  177.3320  145.5780 C   0  0  0  0  0  0  0  0  0  0  0  0
  183.6660  178.9480  142.2850 C   0  0  0  0  0  0  0  0  0  0  0  0
  182.0800  177.6220  140.0660 C   0  0  0  0  0  0  0  0  0  0  0  0
  185.4920  178.0490  145.2810 C   0  0  0  0  0  3  0  0  0  0  0  0
  187.7110  177.7230  143.0840 C   0  0  0  0  0  3  0  0  0  0  0  0
  185.3000  178.2800  143.9850 C   0  0  0  0  0  0  0  0  0  0  0  0
  184.0130  178.6910  143.6150 O   0  0  0  0  0  0  0  0  0  0  0  0
  186.3170  178.1340  142.9150 C   0  0  0  0  0  0  0  0  0  0  0  0
  188.3720  177.3920  144.1880 C   0  0  0  0  0  3  0  0  0  0  0  0
  181.6300  178.2150  141.2640 O   0  0  0  0  0  0  0  0  0  0  0  0
  184.5760  178.8270  141.3110 C   0  0  0  0  0  0  0  0  0  0  0  0
  182.2550  179.3010  141.9450 C   0  0  0  0  0  2  0  0  0  0  0  0
  186.6870  177.6160  146.0110 C   0  0  0  0  0  3  0  0  0  0  0  0
  188.8720  176.9380  146.5510 N   0  0  0  0  0  1  0  0  0  0  0  0
  185.9450  178.3950  141.6590 C   0  0  0  0  0  3  0  0  0  0  0  0
  183.2060  177.9830  139.4290 C   0  0  0  0  0  3  0  0  0  0  0  0
  184.1570  179.0530  139.8800 C   0  0  2  0  0  3  0  0  0  0  0  0
  181.1230  175.3870  140.2430 N   0  0  0  0  0  0  0  0  0  0  0  0
  180.4730  174.3090  139.7410 C   0  0  0  0  0  3  0  0  0  0  0  0
  180.7430  176.5610  138.1980 C   0  0  0  0  0  0  0  0  0  0  0  0
  181.2860  176.5160  139.5040 C   0  0  0  0  0  0  0  0  0  0  0  0
  180.1140  175.4490  137.7310 N   0  0  0  0  0  0  0  0  0  0  0  0
  179.9820  174.3520  138.4770 N   0  0  0  0  0  0  0  0  0  0  0  0
  180.7590  180.0210  135.6620 C   0  0  0  0  0  0  0  0  0  0  0  0
  180.7600  181.2160  134.7750 C   0  0  0  0  0  1  0  0  0  0  0  0
  181.4640  178.8720  135.2890 C   0  0  0  0  0  3  0  0  0  0  0  0
  180.7680  177.7710  137.3430 C   0  0  0  0  0  0  0  0  0  0  0  0
  180.0440  180.0450  136.8630 C   0  0  0  0  0  3  0  0  0  0  0  0
  180.0440  178.9220  137.6960 C   0  0  0  0  0  3  0  0  0  0  0  0
  181.4630  177.7490  136.1240 C   0  0  0  0  0  3  0  0  0  0  0  0
  185.3060  179.1030  138.9890 N   0  0  0  0  0  2  0  0  0  0  0  0
  185.2530  177.9560  138.1850 N   0  0  0  0  0  2  0  0  0  0  0  0
  186.2610  178.1180  137.1530 C   0  0  0  0  0  2  0  0  0  0  0  0
  188.4900  177.7410  138.7420 C   0  0  0  0  0  0  0  0  0  0  0  0
  187.5670  177.7690  137.6830 N   0  0  0  0  0  0  0  0  0  0  0  0
  188.8790  177.3030  137.4960 C   0  0  0  0  0  0  0  0  0  0  0  0
  192.3940  176.3350  138.1230 C   0  0  0  0  0  1  0  0  0  0  0  0
  190.5660  177.2950  139.5990 C   0  0  0  0  0  3  0  0  0  0  0  0
  190.9960  176.8230  138.2810 C   0  0  0  0  0  0  0  0  0  0  0  0
  189.2420  177.7910  139.8800 C   0  0  0  0  0  3  0  0  0  0  0  0
  190.1090  176.8250  137.1470 C   0  0  0  0  0  0  0  0  0  0  0  0
  190.4750  176.3940  135.8690 O   0  0  0  0  0  0  0  0  0  0  0  0
  189.7850  175.3480  135.2010 C   0  0  0  0  0  1  0  0  0  0  0  0
  1 13  2  0  0  0  0
  1 14  1  0  0  0  0
  2  7  1  0  0  0  0
  3 10  1  0  0  0  0
  4 13  1  0  0  0  0
  5  9  2  0  0  0  0
  6  4  2  0  0  0  0
  7  6  1  0  0  0  0
  8  5  1  0  0  0  0
  8  6  1  0  0  0  0
  9  1  1  0  0  0  0
 10 12  1  0  0  0  0
 11 15  1  0  0  0  0
 11  2  2  0  0  0  0
 12  2  1  0  0  0  0
 15  8  2  0  0  0  0
 16 17  1  0  0  0  0
 16  3  2  0  0  0  0
 17 31  1  6  0  0  0
 17 11  1  0  0  0  0
 19 18  1  0  0  0  0
 20 21  1  0  0  0  0
 21  3  1  0  0  0  0
 21 18  2  0  0  0  0
 22 20  2  0  0  0  0
 22 23  1  0  0  0  0
 23 19  2  0  0  0  0
 24 28  1  0  0  0  0
 25 24  1  0  0  0  0
 26 24  2  0  0  0  0
 26 30  1  0  0  0  0
 27 29  1  0  0  0  0
 27 20  1  0  0  0  0
 28 29  2  0  0  0  0
 30 27  2  0  0  0  0
 32 31  1  0  0  0  0
 33 35  1  0  0  0  0
 33 32  1  0  0  0  0
 34 40  1  0  0  0  0
 35 34  1  0  0  0  0
 36 35  1  0  0  0  0
 36 34  2  0  0  0  0
 37 39  1  0  0  0  0
 38 40  2  0  0  0  0
 39 38  1  0  0  0  0
 41 36  1  0  0  0  0
 41 39  2  0  0  0  0
 42 41  1  0  0  0  0
 43 42  1  0  0  0  0
M  END
>  <MODEL>
3

>  <REMARK>
 VINA RESULT:      -8.3      3.282      7.827
  Name = 
  7 active torsions:
  status: ('A' for Active; 'I' for Inactive)
    1  A    between atoms: N_4  and  N_32
    2  A    between atoms: N_4  and  C_42
    3  A    between atoms: C_6  and  C_21
    4  A    between atoms: C_7  and  C_15
    5  A    between atoms: N_10  and  C_29
    6  A    between atoms: O_26  and  C_43
    7  A    between atoms: C_29  and  N_32
                            x       y       z     vdW  Elec       q    Type
                         _______ _______ _______ _____ _____    ______ ____

>  <TORSDO>
F 7

$$$$
=
 OpenBabel10232410283D

 43 49  0  0  1  0  0  0  0  0999 V2000
  185.4970  178.5760  144.8530 C   0  0  0  0  0  0  0  0  0  0  0  0
  187.0170  178.3960  139.4540 C   0  0  0  0  0  0  0  0  0  0  0  0
  187.3770  176.1710  137.4250 C   0  0  0  0  0  0  0  0  0  0  0  0
  185.0620  179.1360  142.4110 C   0  0  0  0  0  3  0  0  0  0  0  0
  187.5000  177.5970  143.6530 C   0  0  0  0  0  3  0  0  0  0  0  0
  186.0800  178.6550  141.7030 C   0  0  0  0  0  0  0  0  0  0  0  0
  186.0250  178.8660  140.3190 O   0  0  0  0  0  0  0  0  0  0  0  0
  187.2470  177.9190  142.2480 C   0  0  0  0  0  0  0  0  0  0  0  0
  186.7740  177.8700  144.7310 C   0  0  0  0  0  3  0  0  0  0  0  0
  186.5740  177.3280  137.3590 O   0  0  0  0  0  0  0  0  0  0  0  0
  188.0790  177.7370  139.9320 C   0  0  0  0  0  0  0  0  0  0  0  0
  186.8580  178.5800  137.9800 C   0  0  0  0  0  2  0  0  0  0  0  0
  184.7930  179.1020  143.8520 C   0  0  0  0  0  3  0  0  0  0  0  0
  184.9640  178.7140  146.1640 N   0  0  0  0  0  1  0  0  0  0  0  0
  188.1740  177.4920  141.3860 C   0  0  0  0  0  3  0  0  0  0  0  0
  188.5140  176.0880  138.1370 C   0  0  0  0  0  3  0  0  0  0  0  0
  189.1020  177.1900  138.9690 C   0  0  2  0  0  3  0  0  0  0  0  0
  187.8470  174.0670  136.2860 N   0  0  0  0  0  0  0  0  0  0  0  0
  187.4910  172.9910  135.5440 C   0  0  0  0  0  3  0  0  0  0  0  0
  185.5630  174.7630  136.3610 C   0  0  0  0  0  0  0  0  0  0  0  0
  186.9210  174.9730  136.7000 C   0  0  0  0  0  0  0  0  0  0  0  0
  185.2570  173.6770  135.6010 N   0  0  0  0  0  0  0  0  0  0  0  0
  186.1900  172.8150  135.2010 N   0  0  0  0  0  0  0  0  0  0  0  0
  182.4220  177.2950  137.8220 C   0  0  0  0  0  0  0  0  0  0  0  0
  181.3390  178.1760  138.3350 C   0  0  0  0  0  1  0  0  0  0  0  0
  182.8990  176.2400  138.6070 C   0  0  0  0  0  3  0  0  0  0  0  0
  184.4580  175.6240  136.8450 C   0  0  0  0  0  0  0  0  0  0  0  0
  182.9700  177.5290  136.5570 C   0  0  0  0  0  3  0  0  0  0  0  0
  183.9880  176.7010  136.0750 C   0  0  0  0  0  3  0  0  0  0  0  0
  183.9170  175.4120  138.1220 C   0  0  0  0  0  3  0  0  0  0  0  0
  190.2860  176.7080  139.6640 N   0  0  0  0  0  2  0  0  0  0  0  0
  191.3020  177.6480  139.4480 N   0  0  0  0  0  2  0  0  0  0  0  0
  192.3610  177.3490  140.3950 C   0  0  0  0  0  2  0  0  0  0  0  0
  191.4040  178.2670  142.8190 C   0  0  0  0  0  0  0  0  0  0  0  0
  191.8560  177.4750  141.7510 N   0  0  0  0  0  0  0  0  0  0  0  0
  191.5550  176.9110  143.0020 C   0  0  0  0  0  0  0  0  0  0  0  0
  190.5180  176.5250  146.5310 C   0  0  0  0  0  1  0  0  0  0  0  0
  190.6950  178.5270  144.9810 C   0  0  0  0  0  3  0  0  0  0  0  0
  190.8490  177.0860  145.1920 C   0  0  0  0  0  0  0  0  0  0  0  0
  190.9830  179.1890  143.7330 C   0  0  0  0  0  3  0  0  0  0  0  0
  191.3110  176.2100  144.1480 C   0  0  0  0  0  0  0  0  0  0  0  0
  191.4820  174.8320  144.3020 O   0  0  0  0  0  0  0  0  0  0  0  0
  192.5810  174.2850  145.0150 C   0  0  0  0  0  1  0  0  0  0  0  0
  1 14  1  0  0  0  0
  2 11  2  0  0  0  0
  2  7  1  0  0  0  0
  3 16  2  0  0  0  0
  4 13  1  0  0  0  0
  5  9  2  0  0  0  0
  6  8  1  0  0  0  0
  6  4  2  0  0  0  0
  7  6  1  0  0  0  0
  8  5  1  0  0  0  0
  9  1  1  0  0  0  0
 10  3  1  0  0  0  0
 10 12  1  0  0  0  0
 11 15  1  0  0  0  0
 12  2  1  0  0  0  0
 13  1  2  0  0  0  0
 15  8  2  0  0  0  0
 16 17  1  0  0  0  0
 17 31  1  1  0  0  0
 17 11  1  0  0  0  0
 18 21  1  0  0  0  0
 19 18  2  0  0  0  0
 20 21  2  0  0  0  0
 20 27  1  0  0  0  0
 21  3  1  0  0  0  0
 22 20  1  0  0  0  0
 23 19  1  0  0  0  0
 23 22  2  0  0  0  0
 24 25  1  0  0  0  0
 24 26  1  0  0  0  0
 27 30  1  0  0  0  0
 28 24  2  0  0  0  0
 29 28  1  0  0  0  0
 29 27  2  0  0  0  0
 30 26  2  0  0  0  0
 32 31  1  0  0  0  0
 32 33  1  0  0  0  0
 33 35  1  0  0  0  0
 34 36  2  0  0  0  0
 34 40  1  0  0  0  0
 35 34  1  0  0  0  0
 35 36  1  0  0  0  0
 36 41  1  0  0  0  0
 38 39  1  0  0  0  0
 39 37  1  0  0  0  0
 40 38  2  0  0  0  0
 41 42  1  0  0  0  0
 41 39  2  0  0  0  0
 42 43  1  0  0  0  0
M  END
>  <MODEL>
4

>  <REMARK>
 VINA RESULT:      -8.2      2.234      3.403
  Name = 
  7 active torsions:
  status: ('A' for Active; 'I' for Inactive)
    1  A    between atoms: N_4  and  N_32
    2  A    between atoms: N_4  and  C_42
    3  A    between atoms: C_6  and  C_21
    4  A    between atoms: C_7  and  C_15
    5  A    between atoms: N_10  and  C_29
    6  A    between atoms: O_26  and  C_43
    7  A    between atoms: C_29  and  N_32
                            x       y       z     vdW  Elec       q    Type
                         _______ _______ _______ _____ _____    ______ ____

>  <TORSDO>
F 7

$$$$
=
 OpenBabel10232410283D

 43 49  0  0  1  0  0  0  0  0999 V2000
  182.5140  178.6860  143.0220 C   0  0  0  0  0  0  0  0  0  0  0  0
  185.8670  178.4280  138.5300 C   0  0  0  0  0  0  0  0  0  0  0  0
  187.7400  176.3280  137.3990 C   0  0  0  0  0  0  0  0  0  0  0  0
  182.8360  178.6400  140.5000 C   0  0  0  0  0  3  0  0  0  0  0  0
  185.0270  178.5350  142.7470 C   0  0  0  0  0  3  0  0  0  0  0  0
  184.1430  178.5640  140.2660 C   0  0  0  0  0  0  0  0  0  0  0  0
  184.5280  178.5290  138.9190 O   0  0  0  0  0  0  0  0  0  0  0  0
  185.2100  178.5070  141.2950 C   0  0  0  0  0  0  0  0  0  0  0  0
  183.9090  178.6100  143.4610 C   0  0  0  0  0  3  0  0  0  0  0  0
  186.6530  176.9870  136.7890 O   0  0  0  0  0  0  0  0  0  0  0  0
  186.8390  178.3840  139.4470 C   0  0  0  0  0  0  0  0  0  0  0  0
  186.2070  178.3100  137.0800 C   0  0  0  0  0  2  0  0  0  0  0  0
  182.0890  178.6960  141.7610 C   0  0  0  0  0  3  0  0  0  0  0  0
  181.5260  178.7590  144.0420 N   0  0  0  0  0  1  0  0  0  0  0  0
  186.4760  178.4170  140.8790 C   0  0  0  0  0  3  0  0  0  0  0  0
  188.4790  176.8600  138.3870 C   0  0  0  0  0  3  0  0  0  0  0  0
  188.2700  178.2150  138.9980 C   0  0  2  0  0  3  0  0  0  0  0  0
  189.3540  174.5490  136.9810 N   0  0  0  0  0  0  0  0  0  0  0  0
  189.7120  173.3330  136.5020 C   0  0  0  0  0  3  0  0  0  0  0  0
  187.0760  174.0880  136.4280 C   0  0  0  0  0  0  0  0  0  0  0  0
  188.0590  174.9620  136.9500 C   0  0  0  0  0  0  0  0  0  0  0  0
  187.4870  172.8840  135.9440 N   0  0  0  0  0  0  0  0  0  0  0  0
  188.7660  172.5150  135.9770 N   0  0  0  0  0  0  0  0  0  0  0  0
  182.8590  174.8760  136.4190 C   0  0  0  0  0  0  0  0  0  0  0  0
  181.3950  175.1410  136.4090 C   0  0  0  0  0  1  0  0  0  0  0  0
  183.5990  174.9900  135.2370 C   0  0  0  0  0  3  0  0  0  0  0  0
  185.6250  174.3880  136.4400 C   0  0  0  0  0  0  0  0  0  0  0  0
  183.4920  174.5020  137.6070 C   0  0  0  0  0  3  0  0  0  0  0  0
  184.8670  174.2530  137.6160 C   0  0  0  0  0  3  0  0  0  0  0  0
  184.9760  174.7410  135.2470 C   0  0  0  0  0  3  0  0  0  0  0  0
  189.2010  178.4120  140.0980 N   0  0  0  0  0  2  0  0  0  0  0  0
  189.6560  177.1440  140.4840 N   0  0  0  0  0  2  0  0  0  0  0  0
  190.6540  177.3520  141.5180 C   0  0  0  0  0  2  0  0  0  0  0  0
  188.8760  177.3370  143.6320 C   0  0  0  0  0  0  0  0  0  0  0  0
  190.0250  177.2980  142.8250 N   0  0  0  0  0  0  0  0  0  0  0  0
  190.1150  177.2720  144.2270 C   0  0  0  0  0  0  0  0  0  0  0  0
  189.2090  177.2530  147.8130 C   0  0  0  0  0  1  0  0  0  0  0  0
  187.8430  177.3530  145.6760 C   0  0  0  0  0  3  0  0  0  0  0  0
  189.1540  177.2810  146.3250 C   0  0  0  0  0  0  0  0  0  0  0  0
  187.6580  177.3860  144.2470 C   0  0  0  0  0  3  0  0  0  0  0  0
  190.3760  177.2420  145.5670 C   0  0  0  0  0  0  0  0  0  0  0  0
  191.6500  177.1830  146.1390 O   0  0  0  0  0  0  0  0  0  0  0  0
  191.9010  176.4790  147.3460 C   0  0  0  0  0  1  0  0  0  0  0  0
  1  9  1  0  0  0  0
  1 14  1  0  0  0  0
  2  7  1  0  0  0  0
  2 11  2  0  0  0  0
  3 16  2  0  0  0  0
  4 13  1  0  0  0  0
  5  9  2  0  0  0  0
  6  4  2  0  0  0  0
  6  8  1  0  0  0  0
  7  6  1  0  0  0  0
  8  5  1  0  0  0  0
 10 12  1  0  0  0  0
 10  3  1  0  0  0  0
 11 15  1  0  0  0  0
 12  2  1  0  0  0  0
 13  1  2  0  0  0  0
 15  8  2  0  0  0  0
 16 17  1  0  0  0  0
 17 11  1  0  0  0  0
 17 31  1  1  0  0  0
 19 18  2  0  0  0  0
 20 27  1  0  0  0  0
 20 21  2  0  0  0  0
 21 18  1  0  0  0  0
 21  3  1  0  0  0  0
 22 23  2  0  0  0  0
 22 20  1  0  0  0  0
 23 19  1  0  0  0  0
 24 28  1  0  0  0  0
 25 24  1  0  0  0  0
 26 30  1  0  0  0  0
 26 24  2  0  0  0  0
 27 29  1  0  0  0  0
 28 29  2  0  0  0  0
 30 27  2  0  0  0  0
 31 32  1  0  0  0  0
 32 33  1  0  0  0  0
 33 35  1  0  0  0  0
 34 36  2  0  0  0  0
 34 40  1  0  0  0  0
 35 34  1  0  0  0  0
 35 36  1  0  0  0  0
 36 41  1  0  0  0  0
 38 39  1  0  0  0  0
 39 37  1  0  0  0  0
 40 38  2  0  0  0  0
 41 42  1  0  0  0  0
 41 39  2  0  0  0  0
 42 43  1  0  0  0  0
M  END
>  <MODEL>
5

>  <REMARK>
 VINA RESULT:      -8.2      1.519      2.162
  Name = 
  7 active torsions:
  status: ('A' for Active; 'I' for Inactive)
    1  A    between atoms: N_4  and  N_32
    2  A    between atoms: N_4  and  C_42
    3  A    between atoms: C_6  and  C_21
    4  A    between atoms: C_7  and  C_15
    5  A    between atoms: N_10  and  C_29
    6  A    between atoms: O_26  and  C_43
    7  A    between atoms: C_29  and  N_32
                            x       y       z     vdW  Elec       q    Type
                         _______ _______ _______ _____ _____    ______ ____

>  <TORSDO>
F 7

$$$$
=
 OpenBabel10232410283D

 43 49  0  0  1  0  0  0  0  0999 V2000
  181.9200  178.7890  142.5110 C   0  0  0  0  0  0  0  0  0  0  0  0
  186.0890  178.6570  138.7570 C   0  0  0  0  0  0  0  0  0  0  0  0
  188.0490  176.5330  137.8370 C   0  0  0  0  0  0  0  0  0  0  0  0
  182.7390  178.9130  140.1070 C   0  0  0  0  0  3  0  0  0  0  0  0
  184.4270  178.4980  142.7210 C   0  0  0  0  0  3  0  0  0  0  0  0
  184.0610  178.7710  140.1270 C   0  0  0  0  0  0  0  0  0  0  0  0
  184.7060  178.8130  138.8840 O   0  0  0  0  0  0  0  0  0  0  0  0
  184.8960  178.5690  141.3370 C   0  0  0  0  0  0  0  0  0  0  0  0
  183.1940  178.5900  143.2070 C   0  0  0  0  0  3  0  0  0  0  0  0
  187.1390  177.3040  137.0850 O   0  0  0  0  0  0  0  0  0  0  0  0
  186.8550  178.4810  139.8400 C   0  0  0  0  0  0  0  0  0  0  0  0
  186.7070  178.6270  137.3970 C   0  0  0  0  0  2  0  0  0  0  0  0
  181.7580  178.9220  141.1970 C   0  0  0  0  0  3  0  0  0  0  0  0
  180.7530  178.8480  143.3200 N   0  0  0  0  0  1  0  0  0  0  0  0
  186.2140  178.4300  141.1700 C   0  0  0  0  0  3  0  0  0  0  0  0
  188.5990  176.9400  138.9930 C   0  0  0  0  0  3  0  0  0  0  0  0
  188.3370  178.2560  139.6660 C   0  0  2  0  0  3  0  0  0  0  0  0
  189.6760  174.7660  137.4190 N   0  0  0  0  0  0  0  0  0  0  0  0
  190.0540  173.5720  136.9030 C   0  0  0  0  0  3  0  0  0  0  0  0
  187.4280  174.3430  136.7320 C   0  0  0  0  0  0  0  0  0  0  0  0
  188.3850  175.1870  137.3430 C   0  0  0  0  0  0  0  0  0  0  0  0
  187.8580  173.1610  136.2150 N   0  0  0  0  0  0  0  0  0  0  0  0
  189.1330  172.7830  136.2940 N   0  0  0  0  0  0  0  0  0  0  0  0
  183.2210  175.1650  136.5330 C   0  0  0  0  0  0  0  0  0  0  0  0
  181.7620  175.4440  136.4560 C   0  0  0  0  0  1  0  0  0  0  0  0
  184.0650  175.5510  135.4860 C   0  0  0  0  0  3  0  0  0  0  0  0
  185.9790  174.6500  136.6860 C   0  0  0  0  0  0  0  0  0  0  0  0
  183.7470  174.5070  137.6490 C   0  0  0  0  0  3  0  0  0  0  0  0
  185.1190  174.2460  137.7200 C   0  0  0  0  0  3  0  0  0  0  0  0
  185.4370  175.2890  135.5600 C   0  0  0  0  0  3  0  0  0  0  0  0
  189.0380  178.3090  140.9410 N   0  0  0  0  0  2  0  0  0  0  0  0
  189.2680  176.9860  141.3390 N   0  0  0  0  0  2  0  0  0  0  0  0
  190.5830  176.9540  141.9550 C   0  0  0  0  0  2  0  0  0  0  0  0
  190.9560  176.8190  144.6890 C   0  0  0  0  0  0  0  0  0  0  0  0
  190.4500  177.0430  143.3980 N   0  0  0  0  0  0  0  0  0  0  0  0
  189.6820  177.3200  144.5410 C   0  0  0  0  0  0  0  0  0  0  0  0
  188.6160  177.6700  148.0660 C   0  0  0  0  0  1  0  0  0  0  0  0
  190.7540  176.8500  146.9690 C   0  0  0  0  0  3  0  0  0  0  0  0
  189.3980  177.3860  146.8310 C   0  0  0  0  0  0  0  0  0  0  0  0
  191.6090  176.5350  145.8530 C   0  0  0  0  0  3  0  0  0  0  0  0
  188.8100  177.6390  145.5420 C   0  0  0  0  0  0  0  0  0  0  0  0
  187.5190  178.1400  145.3570 O   0  0  0  0  0  0  0  0  0  0  0  0
  186.4090  177.2900  145.1060 C   0  0  0  0  0  1  0  0  0  0  0  0
  1  9  1  0  0  0  0
  1 14  1  0  0  0  0
  2  7  1  0  0  0  0
  2 11  2  0  0  0  0
  3 16  2  0  0  0  0
  4  6  2  0  0  0  0
  4 13  1  0  0  0  0
  5  9  2  0  0  0  0
  6  8  1  0  0  0  0
  7  6  1  0  0  0  0
  8  5  1  0  0  0  0
 10 12  1  0  0  0  0
 10  3  1  0  0  0  0
 11 15  1  0  0  0  0
 12  2  1  0  0  0  0
 13  1  2  0  0  0  0
 15  8  2  0  0  0  0
 16 17  1  0  0  0  0
 17 11  1  0  0  0  0
 17 31  1  1  0  0  0
 19 18  2  0  0  0  0
 20 21  2  0  0  0  0
 21 18  1  0  0  0  0
 21  3  1  0  0  0  0
 22 23  2  0  0  0  0
 22 20  1  0  0  0  0
 23 19  1  0  0  0  0
 24 28  1  0  0  0  0
 25 24  1  0  0  0  0
 26 30  1  0  0  0  0
 26 24  2  0  0  0  0
 27 20  1  0  0  0  0
 27 29  1  0  0  0  0
 28 29  2  0  0  0  0
 30 27  2  0  0  0  0
 31 32  1  0  0  0  0
 32 33  1  0  0  0  0
 33 35  1  0  0  0  0
 34 40  1  0  0  0  0
 35 36  1  0  0  0  0
 35 34  1  0  0  0  0
 36 34  2  0  0  0  0
 36 41  1  0  0  0  0
 39 38  1  0  0  0  0
 39 37  1  0  0  0  0
 40 38  2  0  0  0  0
 41 39  2  0  0  0  0
 42 41  1  0  0  0  0
 43 42  1  0  0  0  0
M  END
>  <MODEL>
6

>  <REMARK>
 VINA RESULT:      -8.2      1.507      2.383
  Name = 
  7 active torsions:
  status: ('A' for Active; 'I' for Inactive)
    1  A    between atoms: N_4  and  N_32
    2  A    between atoms: N_4  and  C_42
    3  A    between atoms: C_6  and  C_21
    4  A    between atoms: C_7  and  C_15
    5  A    between atoms: N_10  and  C_29
    6  A    between atoms: O_26  and  C_43
    7  A    between atoms: C_29  and  N_32
                            x       y       z     vdW  Elec       q    Type
                         _______ _______ _______ _____ _____    ______ ____

>  <TORSDO>
F 7

$$$$
=
 OpenBabel10232410283D

 43 49  0  0  1  0  0  0  0  0999 V2000
  187.4640  177.6260  145.5080 C   0  0  0  0  0  0  0  0  0  0  0  0
  184.7540  178.9090  140.7650 C   0  0  0  0  0  0  0  0  0  0  0  0
  183.9150  177.3380  138.3100 C   0  0  0  0  0  0  0  0  0  0  0  0
  185.3610  178.3830  144.2960 C   0  0  0  0  0  3  0  0  0  0  0  0
  188.1610  177.6600  143.0740 C   0  0  0  0  0  3  0  0  0  0  0  0
  185.6440  178.4310  142.9970 C   0  0  0  0  0  0  0  0  0  0  0  0
  184.6020  178.8330  142.1520 O   0  0  0  0  0  0  0  0  0  0  0  0
  186.9490  178.0940  142.3780 C   0  0  0  0  0  0  0  0  0  0  0  0
  188.3740  177.4670  144.3710 C   0  0  0  0  0  3  0  0  0  0  0  0
  183.1350  178.1140  139.1910 O   0  0  0  0  0  0  0  0  0  0  0  0
  185.9280  178.6150  140.1940 C   0  0  0  0  0  0  0  0  0  0  0  0
  183.5800  179.2620  139.9110 C   0  0  0  0  0  2  0  0  0  0  0  0
  186.1920  178.0150  145.4460 C   0  0  0  0  0  3  0  0  0  0  0  0
  187.9950  177.3400  146.7960 N   0  0  0  0  0  1  0  0  0  0  0  0
  187.0530  178.1850  141.0490 C   0  0  0  0  0  3  0  0  0  0  0  0
  185.2180  177.5600  138.0680 C   0  0  0  0  0  3  0  0  0  0  0  0
  186.0450  178.6480  138.6900 C   0  0  2  0  0  3  0  0  0  0  0  0
  183.6020  174.9350  138.0390 N   0  0  0  0  0  0  0  0  0  0  0  0
  183.1010  173.8470  137.4050 C   0  0  0  0  0  3  0  0  0  0  0  0
  182.3670  176.3540  136.5660 C   0  0  0  0  0  0  0  0  0  0  0  0
  183.2700  176.1930  137.6440 C   0  0  0  0  0  0  0  0  0  0  0  0
  181.9030  175.2320  135.9510 N   0  0  0  0  0  0  0  0  0  0  0  0
  182.2590  174.0130  136.3540 N   0  0  0  0  0  0  0  0  0  0  0  0
  180.8140  180.1210  135.2210 C   0  0  0  0  0  0  0  0  0  0  0  0
  180.2690  181.4210  134.7480 C   0  0  0  0  0  1  0  0  0  0  0  0
  181.5380  179.3040  134.3460 C   0  0  0  0  0  3  0  0  0  0  0  0
  181.8530  177.6700  136.1200 C   0  0  0  0  0  0  0  0  0  0  0  0
  180.5920  179.7100  136.5390 C   0  0  0  0  0  3  0  0  0  0  0  0
  181.1040  178.4870  136.9830 C   0  0  0  0  0  3  0  0  0  0  0  0
  182.0500  178.0810  134.7920 C   0  0  0  0  0  3  0  0  0  0  0  0
  187.4290  178.5240  138.2600 N   0  0  0  0  0  2  0  0  0  0  0  0
  187.5050  179.0490  136.9620 N   0  0  0  0  0  2  0  0  0  0  0  0
  188.5350  178.3000  136.2640 C   0  0  0  0  0  2  0  0  0  0  0  0
  187.1900  175.9480  135.7240 C   0  0  0  0  0  0  0  0  0  0  0  0
  188.1260  176.9130  136.1300 N   0  0  0  0  0  0  0  0  0  0  0  0
  188.3210  175.5480  136.3980 C   0  0  0  0  0  0  0  0  0  0  0  0
  187.8300  171.8850  136.5520 C   0  0  0  0  0  1  0  0  0  0  0  0
  186.4580  173.7830  135.5740 C   0  0  0  0  0  3  0  0  0  0  0  0
  187.6570  173.3410  136.2870 C   0  0  0  0  0  0  0  0  0  0  0  0
  186.1760  175.1620  135.2590 C   0  0  0  0  0  3  0  0  0  0  0  0
  188.6590  174.2700  136.7380 C   0  0  0  0  0  0  0  0  0  0  0  0
  189.8150  173.8980  137.4300 O   0  0  0  0  0  0  0  0  0  0  0  0
  191.0630  174.5360  137.2090 C   0  0  0  0  0  1  0  0  0  0  0  0
  1 14  1  0  0  0  0
  2  7  1  0  0  0  0
  3 10  1  0  0  0  0
  4 13  1  0  0  0  0
  5  9  2  0  0  0  0
  6  4  2  0  0  0  0
  7  6  1  0  0  0  0
  8  6  1  0  0  0  0
  8  5  1  0  0  0  0
  9  1  1  0  0  0  0
 10 12  1  0  0  0  0
 11  2  2  0  0  0  0
 11 15  1  0  0  0  0
 12  2  1  0  0  0  0
 13  1  2  0  0  0  0
 15  8  2  0  0  0  0
 16  3  2  0  0  0  0
 16 17  1  0  0  0  0
 17 31  1  1  0  0  0
 17 11  1  0  0  0  0
 19 18  2  0  0  0  0
 20 21  2  0  0  0  0
 21 18  1  0  0  0  0
 21  3  1  0  0  0  0
 22 23  2  0  0  0  0
 22 20  1  0  0  0  0
 23 19  1  0  0  0  0
 24 28  1  0  0  0  0
 25 24  1  0  0  0  0
 26 30  1  0  0  0  0
 26 24  2  0  0  0  0
 27 20  1  0  0  0  0
 27 29  1  0  0  0  0
 28 29  2  0  0  0  0
 30 27  2  0  0  0  0
 32 31  1  0  0  0  0
 33 32  1  0  0  0  0
 34 35  1  0  0  0  0
 34 36  1  0  0  0  0
 35 33  1  0  0  0  0
 35 36  1  0  0  0  0
 36 41  2  0  0  0  0
 38 39  2  0  0  0  0
 39 37  1  0  0  0  0
 39 41  1  0  0  0  0
 40 38  1  0  0  0  0
 40 34  2  0  0  0  0
 41 42  1  0  0  0  0
 43 42  1  0  0  0  0
M  END
>  <MODEL>
7

>  <REMARK>
 VINA RESULT:      -7.9      3.258      7.416
  Name = 
  7 active torsions:
  status: ('A' for Active; 'I' for Inactive)
    1  A    between atoms: N_4  and  N_32
    2  A    between atoms: N_4  and  C_42
    3  A    between atoms: C_6  and  C_21
    4  A    between atoms: C_7  and  C_15
    5  A    between atoms: N_10  and  C_29
    6  A    between atoms: O_26  and  C_43
    7  A    between atoms: C_29  and  N_32
                            x       y       z     vdW  Elec       q    Type
                         _______ _______ _______ _____ _____    ______ ____

>  <TORSDO>
F 7

$$$$
=
 OpenBabel10232410283D

 43 49  0  0  1  0  0  0  0  0999 V2000
  192.1900  175.6540  147.1170 C   0  0  0  0  0  0  0  0  0  0  0  0
  190.1760  178.7220  142.8710 C   0  0  0  0  0  0  0  0  0  0  0  0
  187.7180  178.5420  141.1040 C   0  0  0  0  0  0  0  0  0  0  0  0
  191.2310  177.8310  146.2190 C   0  0  0  0  0  3  0  0  0  0  0  0
  191.8220  175.1720  144.6580 C   0  0  0  0  0  3  0  0  0  0  0  0
  191.0100  177.6640  144.9180 C   0  0  0  0  0  0  0  0  0  0  0  0
  190.4770  178.7650  144.2360 O   0  0  0  0  0  0  0  0  0  0  0  0
  191.2690  176.4260  144.1440 C   0  0  0  0  0  0  0  0  0  0  0  0
  192.2040  174.8540  145.8900 C   0  0  0  0  0  3  0  0  0  0  0  0
  188.1700  179.6070  141.9110 O   0  0  0  0  0  0  0  0  0  0  0  0
  190.4120  177.6140  142.1590 C   0  0  0  0  0  0  0  0  0  0  0  0
  189.5310  179.9010  142.2200 C   0  0  0  0  0  2  0  0  0  0  0  0
  191.7710  176.9130  147.2260 C   0  0  0  0  0  3  0  0  0  0  0  0
  192.6720  175.0240  148.2960 N   0  0  0  0  0  1  0  0  0  0  0  0
  190.9720  176.4300  142.8410 C   0  0  0  0  0  3  0  0  0  0  0  0
  188.5290  177.6250  140.5510 C   0  0  0  0  0  3  0  0  0  0  0  0
  190.0210  177.5780  140.7030 C   0  0  2  0  0  3  0  0  0  0  0  0
  185.7940  178.4140  139.6130 N   0  0  0  0  0  0  0  0  0  0  0  0
  184.4630  178.3780  139.3600 C   0  0  0  0  0  3  0  0  0  0  0  0
  185.3440  178.3460  141.9580 C   0  0  0  0  0  0  0  0  0  0  0  0
  186.2670  178.4100  140.8870 C   0  0  0  0  0  0  0  0  0  0  0  0
  184.0180  178.3290  141.6550 N   0  0  0  0  0  0  0  0  0  0  0  0
  183.5860  178.3460  140.3950 N   0  0  0  0  0  0  0  0  0  0  0  0
  186.5910  178.0570  146.0530 C   0  0  0  0  0  0  0  0  0  0  0  0
  187.0320  177.9610  147.4700 C   0  0  0  0  0  1  0  0  0  0  0  0
  187.2130  177.2800  145.0710 C   0  0  0  0  0  3  0  0  0  0  0  0
  185.7470  178.2310  143.3790 C   0  0  0  0  0  0  0  0  0  0  0  0
  185.5600  178.9340  145.7020 C   0  0  0  0  0  3  0  0  0  0  0  0
  185.1460  179.0240  144.3700 C   0  0  0  0  0  3  0  0  0  0  0  0
  186.7960  177.3710  143.7390 C   0  0  0  0  0  3  0  0  0  0  0  0
  190.5500  176.3960  140.0380 N   0  0  0  0  0  2  0  0  0  0  0  0
  191.6290  176.8160  139.2490 N   0  0  0  0  0  2  0  0  0  0  0  0
  191.4030  176.2930  137.9130 C   0  0  0  0  0  2  0  0  0  0  0  0
  189.3040  177.9100  137.1340 C   0  0  0  0  0  0  0  0  0  0  0  0
  190.1630  176.8270  137.3810 N   0  0  0  0  0  0  0  0  0  0  0  0
  188.8880  176.6360  136.8240 C   0  0  0  0  0  0  0  0  0  0  0  0
  185.5070  177.2770  135.4650 C   0  0  0  0  0  1  0  0  0  0  0  0
  187.3230  178.7880  136.3940 C   0  0  0  0  0  3  0  0  0  0  0  0
  186.8650  177.4390  136.0560 C   0  0  0  0  0  0  0  0  0  0  0  0
  188.6120  179.0760  136.9710 C   0  0  0  0  0  3  0  0  0  0  0  0
  187.6860  176.2790  136.2830 C   0  0  0  0  0  0  0  0  0  0  0  0
  187.2910  174.9720  135.9860 O   0  0  0  0  0  0  0  0  0  0  0  0
  186.7410  174.1100  136.9700 C   0  0  0  0  0  1  0  0  0  0  0  0
  1 13  2  0  0  0  0
  1 14  1  0  0  0  0
  2  7  1  0  0  0  0
  3 10  1  0  0  0  0
  4 13  1  0  0  0  0
  5  9  2  0  0  0  0
  6  4  2  0  0  0  0
  7  6  1  0  0  0  0
  8  5  1  0  0  0  0
  8  6  1  0  0  0  0
  9  1  1  0  0  0  0
 10 12  1  0  0  0  0
 11 15  1  0  0  0  0
 11  2  2  0  0  0  0
 12  2  1  0  0  0  0
 15  8  2  0  0  0  0
 16 17  1  0  0  0  0
 16  3  2  0  0  0  0
 17 31  1  1  0  0  0
 17 11  1  0  0  0  0
 18 21  1  0  0  0  0
 19 18  2  0  0  0  0
 19 23  1  0  0  0  0
 20 27  1  0  0  0  0
 21  3  1  0  0  0  0
 21 20  2  0  0  0  0
 22 20  1  0  0  0  0
 23 22  2  0  0  0  0
 24 25  1  0  0  0  0
 26 24  2  0  0  0  0
 27 30  2  0  0  0  0
 27 29  1  0  0  0  0
 28 24  1  0  0  0  0
 29 28  2  0  0  0  0
 30 26  1  0  0  0  0
 32 31  1  0  0  0  0
 33 32  1  0  0  0  0
 34 35  1  0  0  0  0
 35 33  1  0  0  0  0
 36 34  2  0  0  0  0
 36 35  1  0  0  0  0
 37 39  1  0  0  0  0
 38 40  2  0  0  0  0
 39 41  2  0  0  0  0
 39 38  1  0  0  0  0
 40 34  1  0  0  0  0
 41 36  1  0  0  0  0
 42 41  1  0  0  0  0
 42 43  1  0  0  0  0
M  END
>  <MODEL>
8

>  <REMARK>
 VINA RESULT:      -7.8      2.115      8.582
  Name = 
  7 active torsions:
  status: ('A' for Active; 'I' for Inactive)
    1  A    between atoms: N_4  and  N_32
    2  A    between atoms: N_4  and  C_42
    3  A    between atoms: C_6  and  C_21
    4  A    between atoms: C_7  and  C_15
    5  A    between atoms: N_10  and  C_29
    6  A    between atoms: O_26  and  C_43
    7  A    between atoms: C_29  and  N_32
                            x       y       z     vdW  Elec       q    Type
                         _______ _______ _______ _____ _____    ______ ____

>  <TORSDO>
F 7

$$$$
=
 OpenBabel10232410283D

 43 49  0  0  1  0  0  0  0  0999 V2000
  186.8280  177.6810  146.1900 C   0  0  0  0  0  0  0  0  0  0  0  0
  183.1600  179.0200  142.1600 C   0  0  0  0  0  0  0  0  0  0  0  0
  181.8920  177.5070  139.8570 C   0  0  0  0  0  0  0  0  0  0  0  0
  184.4960  178.3890  145.4660 C   0  0  0  0  0  3  0  0  0  0  0  0
  187.0100  177.8370  143.6690 C   0  0  0  0  0  3  0  0  0  0  0  0
  184.5050  178.4990  144.1400 C   0  0  0  0  0  0  0  0  0  0  0  0
  183.2980  178.8860  143.5440 O   0  0  0  0  0  0  0  0  0  0  0  0
  185.6670  178.2430  143.2540 C   0  0  0  0  0  0  0  0  0  0  0  0
  187.4910  177.6050  144.8850 C   0  0  0  0  0  3  0  0  0  0  0  0
  181.2820  178.2140  140.9130 O   0  0  0  0  0  0  0  0  0  0  0  0
  184.2020  178.8000  141.3490 C   0  0  0  0  0  0  0  0  0  0  0  0
  181.8240  179.3530  141.5800 C   0  0  0  0  0  2  0  0  0  0  0  0
  185.5580  178.0150  146.4050 C   0  0  0  0  0  3  0  0  0  0  0  0
  187.6210  177.3710  147.3280 N   0  0  0  0  0  1  0  0  0  0  0  0
  185.4930  178.3890  141.9380 C   0  0  0  0  0  3  0  0  0  0  0  0
  183.1090  177.7950  139.3670 C   0  0  0  0  0  3  0  0  0  0  0  0
  184.0070  178.8940  139.8560 C   0  0  2  0  0  3  0  0  0  0  0  0
  180.9760  175.2560  140.0550 N   0  0  0  0  0  0  0  0  0  0  0  0
  180.3880  174.1440  139.5520 C   0  0  0  0  0  3  0  0  0  0  0  0
  180.7160  176.3410  137.9430 C   0  0  0  0  0  0  0  0  0  0  0  0
  181.1660  176.3610  139.2850 C   0  0  0  0  0  0  0  0  0  0  0  0
  180.1460  175.1970  137.4780 N   0  0  0  0  0  0  0  0  0  0  0  0
  179.9870  174.1270  138.2560 N   0  0  0  0  0  0  0  0  0  0  0  0
  180.8360  179.7020  135.2780 C   0  0  0  0  0  0  0  0  0  0  0  0
  180.8730  180.8610  134.3460 C   0  0  0  0  0  1  0  0  0  0  0  0
  181.6110  178.5670  135.0160 C   0  0  0  0  0  3  0  0  0  0  0  0
  180.7740  177.5190  137.0450 C   0  0  0  0  0  0  0  0  0  0  0  0
  180.0170  179.7430  136.4100 C   0  0  0  0  0  3  0  0  0  0  0  0
  179.9820  178.6530  137.2850 C   0  0  0  0  0  3  0  0  0  0  0  0
  181.5750  177.4780  135.8930 C   0  0  0  0  0  3  0  0  0  0  0  0
  185.2770  178.8490  139.1480 N   0  0  0  0  0  2  0  0  0  0  0  0
  185.0590  178.1440  137.9570 N   0  0  0  0  0  2  0  0  0  0  0  0
  186.2930  178.2150  137.1940 C   0  0  0  0  0  2  0  0  0  0  0  0
  188.0360  176.0840  136.9720 C   0  0  0  0  0  0  0  0  0  0  0  0
  186.9040  176.9000  137.1270 N   0  0  0  0  0  0  0  0  0  0  0  0
  186.7920  175.5010  137.0640 C   0  0  0  0  0  0  0  0  0  0  0  0
  187.6410  171.9110  136.7960 C   0  0  0  0  0  1  0  0  0  0  0  0
  189.0330  174.0330  136.7650 C   0  0  0  0  0  3  0  0  0  0  0  0
  187.7190  173.3960  136.8640 C   0  0  0  0  0  0  0  0  0  0  0  0
  189.2390  175.4590  136.8160 C   0  0  0  0  0  3  0  0  0  0  0  0
  186.5120  174.1650  137.0200 C   0  0  0  0  0  0  0  0  0  0  0  0
  185.2350  173.6060  137.1100 O   0  0  0  0  0  0  0  0  0  0  0  0
  184.1320  174.3280  137.6360 C   0  0  0  0  0  1  0  0  0  0  0  0
  1 13  2  0  0  0  0
  1 14  1  0  0  0  0
  2  7  1  0  0  0  0
  3 10  1  0  0  0  0
  4 13  1  0  0  0  0
  5  9  2  0  0  0  0
  6  4  2  0  0  0  0
  7  6  1  0  0  0  0
  8  5  1  0  0  0  0
  8  6  1  0  0  0  0
  9  1  1  0  0  0  0
 10 12  1  0  0  0  0
 11 15  1  0  0  0  0
 11  2  2  0  0  0  0
 12  2  1  0  0  0  0
 15  8  2  0  0  0  0
 16 17  1  0  0  0  0
 16  3  2  0  0  0  0
 17 31  1  6  0  0  0
 17 11  1  0  0  0  0
 19 18  1  0  0  0  0
 20 21  1  0  0  0  0
 21  3  1  0  0  0  0
 21 18  2  0  0  0  0
 22 20  2  0  0  0  0
 22 23  1  0  0  0  0
 23 19  2  0  0  0  0
 24 28  1  0  0  0  0
 25 24  1  0  0  0  0
 26 24  2  0  0  0  0
 26 30  1  0  0  0  0
 27 29  1  0  0  0  0
 27 20  1  0  0  0  0
 28 29  2  0  0  0  0
 30 27  2  0  0  0  0
 32 31  1  0  0  0  0
 33 32  1  0  0  0  0
 34 36  1  0  0  0  0
 34 35  1  0  0  0  0
 35 33  1  0  0  0  0
 36 35  1  0  0  0  0
 37 39  1  0  0  0  0
 38 40  1  0  0  0  0
 38 39  2  0  0  0  0
 39 41  1  0  0  0  0
 40 34  2  0  0  0  0
 41 36  2  0  0  0  0
 41 42  1  0  0  0  0
 42 43  1  0  0  0  0
M  END
>  <MODEL>
9

>  <REMARK>
 VINA RESULT:      -7.8      3.510      8.205
  Name = 
  7 active torsions:
  status: ('A' for Active; 'I' for Inactive)
    1  A    between atoms: N_4  and  N_32
    2  A    between atoms: N_4  and  C_42
    3  A    between atoms: C_6  and  C_21
    4  A    between atoms: C_7  and  C_15
    5  A    between atoms: N_10  and  C_29
    6  A    between atoms: O_26  and  C_43
    7  A    between atoms: C_29  and  N_32
                            x       y       z     vdW  Elec       q    Type
                         _______ _______ _______ _____ _____    ______ ____

>  <TORSDO>
F 7

$$$$
