=
 OpenBabel10232411243D

 36 42  0  0  1  0  0  0  0  0999 V2000
  190.1720  177.7750  140.8830 C   0  0  0  0  0  2  0  0  0  0  0  0
  184.0590  179.6350  144.0320 C   0  0  1  0  0  3  0  0  0  0  0  0
  182.3880  178.0100  139.7390 S   0  0  0  0  0  0  0  0  0  0  0  0
  189.3020  178.3130  139.7860 C   0  0  1  0  0  3  0  0  0  0  0  0
  183.8180  178.5090  144.9510 N   0  0  0  0  0  2  0  0  0  0  0  0
  186.2000  178.9830  140.3150 N   0  0  0  0  0  2  0  0  0  0  0  0
  184.6130  178.0440  138.0870 N   0  0  0  0  0  2  0  0  0  0  0  0
  188.4900  177.8130  135.1570 C   0  0  0  0  0  1  0  0  0  0  0  0
  189.6550  177.7530  138.4870 N   0  0  0  0  0  2  0  0  0  0  0  0
  187.1680  178.0850  142.4020 C   0  0  0  0  0  0  0  0  0  0  0  0
  188.9480  178.5420  137.4810 C   0  0  0  0  0  2  0  0  0  0  0  0
  188.9950  177.1610  141.6280 C   0  0  1  0  0  3  0  0  0  0  0  0
  185.9930  178.3230  143.3290 C   0  0  1  0  0  3  0  0  0  0  0  0
  184.7500  178.8980  140.3700 C   0  0  2  0  0  3  0  0  0  0  0  0
  182.6880  178.5850  141.4760 C   0  0  0  0  0  2  0  0  0  0  0  0
  184.1880  178.4870  141.6900 C   0  0  2  0  0  3  0  0  0  0  0  0
  184.9330  179.4440  145.2030 C   0  0  1  0  0  3  0  0  0  0  0  0
  187.1320  178.2090  141.0600 C   0  0  2  0  0  3  0  0  0  0  0  0
  186.6270  178.0440  136.7390 C   0  0  0  0  0  3  0  0  0  0  0  0
  188.0670  177.6530  136.6030 C   0  0  1  0  0  3  0  0  0  0  0  0
  188.4240  177.4120  142.7940 C   0  0  0  0  0  3  0  0  0  0  0  0
  185.9600  177.6480  137.8120 C   0  0  0  0  0  3  0  0  0  0  0  0
  184.1820  177.8480  139.4650 C   0  0  1  0  0  3  0  0  0  0  0  0
  186.2700  178.8540  144.7150 C   0  0  1  0  0  3  0  0  0  0  0  0
  188.2340  177.4790  140.3930 C   0  0  1  0  0  3  0  0  0  0  0  0
  184.8910  179.2250  142.8170 C   0  0  1  0  0  3  0  0  0  0  0  0
  186.0530  176.7770  145.8950 O   0  0  0  0  0  0  0  0  0  0  0  0
  186.7670  177.7850  145.6370 C   0  0  0  0  0  0  0  0  0  0  0  0
  188.0600  177.9250  146.2290 N   0  0  0  0  0  2  0  0  0  0  0  0
  188.6070  176.9470  147.1590 C   0  0  0  0  0  2  0  0  0  0  0  0
  189.7560  177.5100  147.8560 N   0  0  0  0  0  2  0  0  0  0  0  0
  192.3420  177.0360  148.2030 O   0  0  0  0  0  0  0  0  0  0  0  0
  190.9400  175.1940  147.4040 O   0  0  0  0  0  0  0  0  0  0  0  0
  191.1780  176.6750  147.3230 S   0  0  0  0  0  0  0  0  0  0  0  0
  190.8030  176.3340  144.7790 F   0  0  0  0  0  0  0  0  0  0  0  0
  191.5530  177.1130  145.6390 C   0  0  0  0  0  2  0  0  0  0  0  0
  2  5  1  1  0  0  0
  2 17  1  0  0  0  0
  3 15  1  0  0  0  0
  4 25  1  0  0  0  0
  4  1  1  1  0  0  0
  9  4  1  0  0  0  0
 10 21  2  0  0  0  0
 11  9  1  0  0  0  0
 12  1  1  6  0  0  0
 12 21  1  0  0  0  0
 13 10  1  6  0  0  0
 13 24  1  0  0  0  0
 14  6  1  1  0  0  0
 14 16  1  0  0  0  0
 16 15  1  6  0  0  0
 16 26  1  0  0  0  0
 17  5  1  1  0  0  0
 18  6  1  1  0  0  0
 18 10  1  0  0  0  0
 19 22  2  0  0  0  0
 20  8  1  6  0  0  0
 20 19  1  0  0  0  0
 20 11  1  0  0  0  0
 22  7  1  0  0  0  0
 23  7  1  6  0  0  0
 23  3  1  0  0  0  0
 23 14  1  0  0  0  0
 24 17  1  0  0  0  0
 24 28  1  1  0  0  0
 25 18  1  0  0  0  0
 25 12  1  0  0  0  0
 26 13  1  0  0  0  0
 26  2  1  0  0  0  0
 28 27  2  0  0  0  0
 28 29  1  0  0  0  0
 29 30  1  0  0  0  0
 30 31  1  0  0  0  0
 34 33  2  0  0  0  0
 34 31  1  0  0  0  0
 34 32  2  0  0  0  0
 35 36  1  0  0  0  0
 36 34  1  0  0  0  0
M  END
>  <MODEL>
1

>  <REMARK>
 VINA RESULT:      -9.0      0.000      0.000
  Name = 
  5 active torsions:
  status: ('A' for Active; 'I' for Inactive)
    1  A    between atoms: C_3  and  N_24
    2  A    between atoms: C_3  and  N_26
    3  A    between atoms: C_15  and  C_33
    4  A    between atoms: N_26  and  S_36
    5  A    between atoms: C_31  and  S_36
                            x       y       z     vdW  Elec       q    Type
                         _______ _______ _______ _____ _____    ______ ____

>  <TORSDO>
F 5

$$$$
=
 OpenBabel10232411243D

 36 42  0  0  1  0  0  0  0  0999 V2000
  182.8950  178.8670  140.4200 C   0  0  0  0  0  2  0  0  0  0  0  0
  189.3050  178.4620  137.3400 C   0  0  1  0  0  3  0  0  0  0  0  0
  190.3430  176.7140  141.7820 S   0  0  0  0  0  0  0  0  0  0  0  0
  183.8830  179.1810  141.5040 C   0  0  1  0  0  3  0  0  0  0  0  0
  189.1840  177.2520  136.5070 N   0  0  0  0  0  2  0  0  0  0  0  0
  187.0410  178.7960  141.0250 N   0  0  0  0  0  2  0  0  0  0  0  0
  188.2310  177.5710  143.3590 N   0  0  0  0  0  2  0  0  0  0  0  0
  184.4590  178.7940  146.1790 C   0  0  0  0  0  1  0  0  0  0  0  0
  183.3610  178.8590  142.8260 N   0  0  0  0  0  2  0  0  0  0  0  0
  185.8530  178.0990  138.9760 C   0  0  0  0  0  0  0  0  0  0  0  0
  184.2740  179.4560  143.7980 C   0  0  0  0  0  2  0  0  0  0  0  0
  183.8220  177.8590  139.7550 C   0  0  1  0  0  3  0  0  0  0  0  0
  187.0500  177.8840  138.0700 C   0  0  1  0  0  3  0  0  0  0  0  0
  188.3890  178.2540  141.0210 C   0  0  2  0  0  3  0  0  0  0  0  0
  190.2530  177.2240  140.0010 C   0  0  0  0  0  2  0  0  0  0  0  0
  188.8020  177.5900  139.7490 C   0  0  2  0  0  3  0  0  0  0  0  0
  188.4250  178.4700  136.1580 C   0  0  1  0  0  3  0  0  0  0  0  0
  185.9170  178.3030  140.3070 C   0  0  2  0  0  3  0  0  0  0  0  0
  186.3110  178.3070  144.6420 C   0  0  0  0  0  3  0  0  0  0  0  0
  184.8210  178.4020  144.7610 C   0  0  1  0  0  3  0  0  0  0  0  0
  184.4520  177.8290  138.5920 C   0  0  0  0  0  3  0  0  0  0  0  0
  186.8260  177.6420  143.6190 C   0  0  0  0  0  3  0  0  0  0  0  0
  188.5870  177.1480  142.0110 C   0  0  1  0  0  3  0  0  0  0  0  0
  186.9660  178.3710  136.6440 C   0  0  1  0  0  3  0  0  0  0  0  0
  184.6350  178.0110  140.9870 C   0  0  1  0  0  3  0  0  0  0  0  0
  188.3770  178.4270  138.5540 C   0  0  1  0  0  3  0  0  0  0  0  0
  185.5770  177.8810  134.7510 O   0  0  0  0  0  0  0  0  0  0  0  0
  186.1620  177.4490  135.7820 C   0  0  0  0  0  0  0  0  0  0  0  0
  186.0600  176.0710  136.1480 N   0  0  0  0  0  2  0  0  0  0  0  0
  185.2750  175.1120  135.3830 C   0  0  0  0  0  2  0  0  0  0  0  0
  185.7750  173.7640  135.6080 N   0  0  0  0  0  2  0  0  0  0  0  0
  184.3630  171.6740  136.4260 O   0  0  0  0  0  0  0  0  0  0  0  0
  185.6740  172.8930  138.0970 O   0  0  0  0  0  0  0  0  0  0  0  0
  184.8290  173.0340  136.8630 S   0  0  0  0  0  0  0  0  0  0  0  0
  183.6470  174.7530  138.4050 F   0  0  0  0  0  0  0  0  0  0  0  0
  183.4170  174.0510  137.2380 C   0  0  0  0  0  2  0  0  0  0  0  0
  2  5  1  6  0  0  0
  2 26  1  0  0  0  0
  4  1  1  6  0  0  0
  4  9  1  0  0  0  0
  7 22  1  0  0  0  0
  9 11  1  0  0  0  0
 11 20  1  0  0  0  0
 12 21  1  6  0  0  0
 12  1  1  0  0  0  0
 12 25  1  0  0  0  0
 13 26  1  0  0  0  0
 13 10  1  1  0  0  0
 14  6  1  6  0  0  0
 14 23  1  0  0  0  0
 15  3  1  0  0  0  0
 16 15  1  1  0  0  0
 16 14  1  0  0  0  0
 17  5  1  6  0  0  0
 17 24  1  0  0  0  0
 17  2  1  0  0  0  0
 18 10  1  6  0  0  0
 18 25  1  0  0  0  0
 18  6  1  0  0  0  0
 19 20  1  0  0  0  0
 20  8  1  1  0  0  0
 21 10  2  0  0  0  0
 22 19  2  0  0  0  0
 23  3  1  1  0  0  0
 23  7  1  0  0  0  0
 24 28  1  6  0  0  0
 24 13  1  0  0  0  0
 25  4  1  0  0  0  0
 26 16  1  0  0  0  0
 27 28  2  0  0  0  0
 28 29  1  0  0  0  0
 30 31  1  0  0  0  0
 30 29  1  0  0  0  0
 31 34  1  0  0  0  0
 32 34  2  0  0  0  0
 34 36  1  0  0  0  0
 34 33  2  0  0  0  0
 36 35  1  0  0  0  0
M  END
>  <MODEL>
2

>  <REMARK>
 VINA RESULT:      -7.8      4.187      8.614
  Name = 
  5 active torsions:
  status: ('A' for Active; 'I' for Inactive)
    1  A    between atoms: C_3  and  N_24
    2  A    between atoms: C_3  and  N_26
    3  A    between atoms: C_15  and  C_33
    4  A    between atoms: N_26  and  S_36
    5  A    between atoms: C_31  and  S_36
                            x       y       z     vdW  Elec       q    Type
                         _______ _______ _______ _____ _____    ______ ____

>  <TORSDO>
F 5

$$$$
=
 OpenBabel10232411243D

 36 42  0  0  1  0  0  0  0  0999 V2000
  183.2030  179.0880  140.8640 C   0  0  0  0  0  2  0  0  0  0  0  0
  189.5990  178.4100  137.8020 C   0  0  1  0  0  3  0  0  0  0  0  0
  190.4830  176.3890  142.1600 S   0  0  0  0  0  0  0  0  0  0  0  0
  184.2000  179.2850  141.9680 C   0  0  1  0  0  3  0  0  0  0  0  0
  189.4050  177.2510  136.9110 N   0  0  0  0  0  2  0  0  0  0  0  0
  187.3300  178.7170  141.4870 N   0  0  0  0  0  2  0  0  0  0  0  0
  188.4190  177.3070  143.7660 N   0  0  0  0  0  0  0  0  0  0  0  0
  184.7120  178.6390  146.6210 C   0  0  0  0  0  1  0  0  0  0  0  0
  183.6480  178.9350  143.2700 N   0  0  0  0  0  2  0  0  0  0  0  0
  186.1170  178.1960  139.4010 C   0  0  0  0  0  0  0  0  0  0  0  0
  184.5900  179.4250  144.2740 C   0  0  0  0  0  2  0  0  0  0  0  0
  184.0670  178.0540  140.1570 C   0  0  1  0  0  3  0  0  0  0  0  0
  187.3040  177.9460  138.4920 C   0  0  1  0  0  3  0  0  0  0  0  0
  188.6410  178.0880  141.4640 C   0  0  2  0  0  3  0  0  0  0  0  0
  190.4420  176.9880  140.4060 C   0  0  0  0  0  2  0  0  0  0  0  0
  189.0190  177.4590  140.1640 C   0  0  2  0  0  3  0  0  0  0  0  0
  188.7300  178.5320  136.6170 C   0  0  1  0  0  3  0  0  0  0  0  0
  186.1820  178.3330  140.7400 C   0  0  2  0  0  3  0  0  0  0  0  0
  186.5410  178.1060  145.0720 C   0  0  0  0  0  2  0  0  0  0  0  0
  185.0590  178.2920  145.1880 C   0  0  1  0  0  3  0  0  0  0  0  0
  184.7040  178.0380  138.9970 C   0  0  0  0  0  3  0  0  0  0  0  0
  187.0200  177.4570  144.0220 C   0  0  0  0  0  3  0  0  0  0  0  0
  188.7580  176.9250  142.4010 C   0  0  1  0  0  3  0  0  0  0  0  0
  187.2640  178.5050  137.0910 C   0  0  1  0  0  3  0  0  0  0  0  0
  184.8790  178.0930  141.3990 C   0  0  1  0  0  3  0  0  0  0  0  0
  188.6600  178.3780  139.0080 C   0  0  1  0  0  3  0  0  0  0  0  0
  185.9390  178.1730  135.1200 O   0  0  0  0  0  0  0  0  0  0  0  0
  186.4090  177.6790  136.1810 C   0  0  0  0  0  0  0  0  0  0  0  0
  186.1250  176.3250  136.5370 N   0  0  0  0  0  2  0  0  0  0  0  0
  185.2790  175.4610  135.7250 C   0  0  0  0  0  2  0  0  0  0  0  0
  183.8760  175.7160  136.0210 N   0  0  0  0  0  2  0  0  0  0  0  0
  183.2020  174.9900  138.4810 O   0  0  0  0  0  0  0  0  0  0  0  0
  181.9490  174.0140  136.6170 O   0  0  0  0  0  0  0  0  0  0  0  0
  183.3070  174.4650  137.0760 S   0  0  0  0  0  0  0  0  0  0  0  0
  185.0170  172.9340  138.2840 F   0  0  0  0  0  0  0  0  0  0  0  0
  184.4220  173.0790  137.0460 C   0  0  0  0  0  2  0  0  0  0  0  0
  2  5  1  6  0  0  0
  2 26  1  0  0  0  0
  4  1  1  6  0  0  0
  4  9  1  0  0  0  0
  7 22  2  0  0  0  0
  9 11  1  0  0  0  0
 11 20  1  0  0  0  0
 12 21  1  6  0  0  0
 12  1  1  0  0  0  0
 12 25  1  0  0  0  0
 13 26  1  0  0  0  0
 13 10  1  1  0  0  0
 14  6  1  6  0  0  0
 14 23  1  0  0  0  0
 15  3  1  0  0  0  0
 16 15  1  1  0  0  0
 16 14  1  0  0  0  0
 17  5  1  6  0  0  0
 17 24  1  0  0  0  0
 17  2  1  0  0  0  0
 18 10  1  6  0  0  0
 18 25  1  0  0  0  0
 18  6  1  0  0  0  0
 19 20  1  0  0  0  0
 20  8  1  1  0  0  0
 21 10  2  0  0  0  0
 22 19  1  0  0  0  0
 23  3  1  1  0  0  0
 23  7  1  0  0  0  0
 24 28  1  6  0  0  0
 24 13  1  0  0  0  0
 25  4  1  0  0  0  0
 26 16  1  0  0  0  0
 27 28  2  0  0  0  0
 28 29  1  0  0  0  0
 30 31  1  0  0  0  0
 30 29  1  0  0  0  0
 31 34  1  0  0  0  0
 33 34  2  0  0  0  0
 34 32  2  0  0  0  0
 36 34  1  0  0  0  0
 36 35  1  0  0  0  0
M  END
>  <MODEL>
3

>  <REMARK>
 VINA RESULT:      -7.8      4.141      8.613
  Name = 
  5 active torsions:
  status: ('A' for Active; 'I' for Inactive)
    1  A    between atoms: C_3  and  N_24
    2  A    between atoms: C_3  and  N_26
    3  A    between atoms: C_15  and  C_33
    4  A    between atoms: N_26  and  S_36
    5  A    between atoms: C_31  and  S_36
                            x       y       z     vdW  Elec       q    Type
                         _______ _______ _______ _____ _____    ______ ____

>  <TORSDO>
F 5

$$$$
=
 OpenBabel10232411243D

 36 42  0  0  1  0  0  0  0  0999 V2000
  190.4720  176.4620  141.5350 C   0  0  0  0  0  2  0  0  0  0  0  0
  183.6210  177.9450  142.8040 C   0  0  1  0  0  3  0  0  0  0  0  0
  185.6070  179.1930  147.0880 S   0  0  0  0  0  0  0  0  0  0  0  0
  190.2450  176.1140  142.9770 C   0  0  1  0  0  3  0  0  0  0  0  0
  183.4390  179.2340  142.1130 N   0  0  0  0  0  2  0  0  0  0  0  0
  187.4930  176.8910  144.4520 N   0  0  0  0  0  2  0  0  0  0  0  0
  188.0670  177.9180  147.0940 N   0  0  0  0  0  2  0  0  0  0  0  0
  192.5140  175.9420  147.1190 C   0  0  0  0  0  1  0  0  0  0  0  0
  191.4720  176.2020  143.7580 N   0  0  0  0  0  2  0  0  0  0  0  0
  187.3920  177.7220  142.1290 C   0  0  0  0  0  0  0  0  0  0  0  0
  191.1950  175.5820  145.0520 C   0  0  0  0  0  2  0  0  0  0  0  0
  189.5100  177.6400  141.5840 C   0  0  1  0  0  3  0  0  0  0  0  0
  185.9470  178.1800  142.1040 C   0  0  1  0  0  3  0  0  0  0  0  0
  186.4940  177.5690  145.2610 C   0  0  2  0  0  3  0  0  0  0  0  0
  184.5790  178.9150  145.5710 C   0  0  0  0  0  2  0  0  0  0  0  0
  185.5440  178.4340  144.5020 C   0  0  2  0  0  3  0  0  0  0  0  0
  183.6530  177.9990  141.3310 C   0  0  1  0  0  3  0  0  0  0  0  0
  188.0670  177.3520  143.2350 C   0  0  2  0  0  3  0  0  0  0  0  0
  190.2250  176.8200  146.9780 C   0  0  0  0  0  3  0  0  0  0  0  0
  191.4770  176.5530  146.1990 C   0  0  1  0  0  3  0  0  0  0  0  0
  188.3440  177.8900  141.0110 C   0  0  0  0  0  3  0  0  0  0  0  0
  189.3350  177.6640  146.4810 C   0  0  0  0  0  3  0  0  0  0  0  0
  187.0800  178.5500  146.2290 C   0  0  1  0  0  3  0  0  0  0  0  0
  185.1210  177.8780  140.8770 C   0  0  1  0  0  3  0  0  0  0  0  0
  189.5350  177.4150  143.0510 C   0  0  1  0  0  3  0  0  0  0  0  0
  185.0670  177.7210  143.2470 C   0  0  1  0  0  3  0  0  0  0  0  0
  184.8620  179.9430  139.6850 O   0  0  0  0  0  0  0  0  0  0  0  0
  185.4250  178.8160  139.7510 C   0  0  0  0  0  0  0  0  0  0  0  0
  186.3570  178.4130  138.7460 N   0  0  0  0  0  2  0  0  0  0  0  0
  186.6880  179.2510  137.6010 C   0  0  0  0  0  2  0  0  0  0  0  0
  188.1120  179.1640  137.3130 N   0  0  0  0  0  2  0  0  0  0  0  0
  187.1270  177.0840  135.9950 O   0  0  0  0  0  0  0  0  0  0  0  0
  189.3570  177.8810  135.3710 O   0  0  0  0  0  0  0  0  0  0  0  0
  188.4160  177.6530  136.5200 S   0  0  0  0  0  0  0  0  0  0  0  0
  190.2630  177.0710  138.2450 F   0  0  0  0  0  0  0  0  0  0  0  0
  189.1520  176.4980  137.6560 C   0  0  0  0  0  2  0  0  0  0  0  0
  1 12  1  0  0  0  0
  2  5  1  1  0  0  0
  2 26  1  0  0  0  0
  4  1  1  6  0  0  0
  4 25  1  0  0  0  0
  4  9  1  0  0  0  0
  9 11  1  0  0  0  0
 11 20  1  0  0  0  0
 12 21  1  6  0  0  0
 12 25  1  0  0  0  0
 13 10  1  6  0  0  0
 13 26  1  0  0  0  0
 14  6  1  6  0  0  0
 14 23  1  0  0  0  0
 15  3  1  0  0  0  0
 16 14  1  0  0  0  0
 16 15  1  1  0  0  0
 17  5  1  1  0  0  0
 17  2  1  0  0  0  0
 18 10  1  6  0  0  0
 18  6  1  0  0  0  0
 20 19  1  0  0  0  0
 20  8  1  1  0  0  0
 21 10  2  0  0  0  0
 22 19  2  0  0  0  0
 22  7  1  0  0  0  0
 23  3  1  1  0  0  0
 23  7  1  0  0  0  0
 24 28  1  6  0  0  0
 24 17  1  0  0  0  0
 24 13  1  0  0  0  0
 25 18  1  0  0  0  0
 26 16  1  0  0  0  0
 27 28  2  0  0  0  0
 29 28  1  0  0  0  0
 30 29  1  0  0  0  0
 31 30  1  0  0  0  0
 32 34  2  0  0  0  0
 33 34  2  0  0  0  0
 34 31  1  0  0  0  0
 34 36  1  0  0  0  0
 36 35  1  0  0  0  0
M  END
>  <MODEL>
4

>  <REMARK>
 VINA RESULT:      -7.4      3.739      7.259
  Name = 
  5 active torsions:
  status: ('A' for Active; 'I' for Inactive)
    1  A    between atoms: C_3  and  N_24
    2  A    between atoms: C_3  and  N_26
    3  A    between atoms: C_15  and  C_33
    4  A    between atoms: N_26  and  S_36
    5  A    between atoms: C_31  and  S_36
                            x       y       z     vdW  Elec       q    Type
                         _______ _______ _______ _____ _____    ______ ____

>  <TORSDO>
F 5

$$$$
=
 OpenBabel10232411243D

 36 42  0  0  1  0  0  0  0  0999 V2000
  187.6350  177.1400  137.8840 C   0  0  0  0  0  2  0  0  0  0  0  0
  187.1370  177.2820  144.9890 C   0  0  1  0  0  3  0  0  0  0  0  0
  191.8700  178.3430  144.4090 S   0  0  0  0  0  0  0  0  0  0  0  0
  188.9370  176.5940  138.3890 C   0  0  1  0  0  3  0  0  0  0  0  0
  186.5120  178.5930  145.2390 N   0  0  0  0  0  2  0  0  0  0  0  0
  189.6780  176.7160  141.5180 N   0  0  0  0  0  2  0  0  0  0  0  0
  192.4410  177.5120  141.8280 N   0  0  0  0  0  2  0  0  0  0  0  0
  193.5110  176.3300  137.2310 C   0  0  0  0  0  1  0  0  0  0  0  0
  190.0200  176.7980  137.4350 N   0  0  0  0  0  2  0  0  0  0  0  0
  187.4740  177.7820  141.1990 C   0  0  0  0  0  0  0  0  0  0  0  0
  191.1490  175.9940  137.8990 C   0  0  0  0  0  2  0  0  0  0  0  0
  187.5060  178.1250  139.0370 C   0  0  1  0  0  3  0  0  0  0  0  0
  187.0980  177.9880  142.6530 C   0  0  1  0  0  3  0  0  0  0  0  0
  190.2370  177.1160  142.7990 C   0  0  2  0  0  3  0  0  0  0  0  0
  190.1190  178.0730  144.9540 C   0  0  0  0  0  2  0  0  0  0  0  0
  189.3140  177.8900  143.6790 C   0  0  2  0  0  3  0  0  0  0  0  0
  185.7330  177.5110  144.6030 C   0  0  1  0  0  3  0  0  0  0  0  0
  188.6920  177.4060  140.7600 C   0  0  2  0  0  3  0  0  0  0  0  0
  192.8280  176.8170  139.5380 C   0  0  0  0  0  3  0  0  0  0  0  0
  192.3930  176.8580  138.1050 C   0  0  1  0  0  3  0  0  0  0  0  0
  186.6630  178.2370  140.0500 C   0  0  0  0  0  3  0  0  0  0  0  0
  192.1710  177.5500  140.4230 C   0  0  0  0  0  3  0  0  0  0  0  0
  191.3910  178.0630  142.6730 C   0  0  1  0  0  3  0  0  0  0  0  0
  185.6780  177.6940  143.0740 C   0  0  1  0  0  3  0  0  0  0  0  0
  188.9080  177.7380  139.3340 C   0  0  1  0  0  3  0  0  0  0  0  0
  187.9320  177.2570  143.6830 C   0  0  1  0  0  3  0  0  0  0  0  0
  184.9180  179.9690  143.1130 O   0  0  0  0  0  0  0  0  0  0  0  0
  184.7390  178.7940  142.6870 C   0  0  0  0  0  0  0  0  0  0  0  0
  183.6320  178.4940  141.8360 N   0  0  0  0  0  2  0  0  0  0  0  0
  182.6550  179.4970  141.4360 C   0  0  0  0  0  2  0  0  0  0  0  0
  181.9210  179.0400  140.2650 N   0  0  0  0  0  2  0  0  0  0  0  0
  181.9630  180.2510  137.9050 O   0  0  0  0  0  0  0  0  0  0  0  0
  184.0030  180.3110  139.2580 O   0  0  0  0  0  0  0  0  0  0  0  0
  182.8290  179.4670  138.8520 S   0  0  0  0  0  0  0  0  0  0  0  0
  183.7310  177.0380  138.9760 F   0  0  0  0  0  0  0  0  0  0  0  0
  183.4210  178.0010  138.0350 C   0  0  0  0  0  2  0  0  0  0  0  0
  2  5  1  1  0  0  0
  3 15  1  0  0  0  0
  4  1  1  6  0  0  0
  4 25  1  0  0  0  0
  9 11  1  0  0  0  0
  9  4  1  0  0  0  0
 11 20  1  0  0  0  0
 12  1  1  6  0  0  0
 12 25  1  0  0  0  0
 12 21  1  0  0  0  0
 13 10  1  6  0  0  0
 13 24  1  0  0  0  0
 13 26  1  0  0  0  0
 14  6  1  6  0  0  0
 14 16  1  0  0  0  0
 16 26  1  0  0  0  0
 16 15  1  1  0  0  0
 17  2  1  0  0  0  0
 17  5  1  1  0  0  0
 18 10  1  6  0  0  0
 18  6  1  0  0  0  0
 19 22  2  0  0  0  0
 20  8  1  6  0  0  0
 20 19  1  0  0  0  0
 21 10  2  0  0  0  0
 22  7  1  0  0  0  0
 23  7  1  6  0  0  0
 23 14  1  0  0  0  0
 23  3  1  0  0  0  0
 24 28  1  1  0  0  0
 24 17  1  0  0  0  0
 25 18  1  0  0  0  0
 26  2  1  0  0  0  0
 28 27  2  0  0  0  0
 29 28  1  0  0  0  0
 30 29  1  0  0  0  0
 31 30  1  0  0  0  0
 32 34  2  0  0  0  0
 34 33  2  0  0  0  0
 34 31  1  0  0  0  0
 36 34  1  0  0  0  0
 36 35  1  0  0  0  0
M  END
>  <MODEL>
5

>  <REMARK>
 VINA RESULT:      -7.3      3.444      6.778
  Name = 
  5 active torsions:
  status: ('A' for Active; 'I' for Inactive)
    1  A    between atoms: C_3  and  N_24
    2  A    between atoms: C_3  and  N_26
    3  A    between atoms: C_15  and  C_33
    4  A    between atoms: N_26  and  S_36
    5  A    between atoms: C_31  and  S_36
                            x       y       z     vdW  Elec       q    Type
                         _______ _______ _______ _____ _____    ______ ____

>  <TORSDO>
F 5

$$$$
=
 OpenBabel10232411243D

 36 42  0  0  1  0  0  0  0  0999 V2000
  183.5510  179.0460  142.7240 C   0  0  0  0  0  2  0  0  0  0  0  0
  188.9990  178.4860  138.1690 C   0  0  1  0  0  3  0  0  0  0  0  0
  190.9140  176.3320  142.1120 S   0  0  0  0  0  0  0  0  0  0  0  0
  184.7890  179.2110  143.5550 C   0  0  1  0  0  3  0  0  0  0  0  0
  188.5880  177.3560  137.3170 N   0  0  0  0  0  2  0  0  0  0  0  0
  187.7040  178.6690  142.3050 N   0  0  0  0  0  2  0  0  0  0  0  0
  189.3110  177.1910  144.2020 N   0  0  0  0  0  2  0  0  0  0  0  0
  186.4210  178.4210  147.9190 C   0  0  0  0  0  1  0  0  0  0  0  0
  184.5710  178.8190  144.9420 N   0  0  0  0  0  2  0  0  0  0  0  0
  186.0140  178.2110  140.5640 C   0  0  0  0  0  0  0  0  0  0  0  0
  185.7320  179.2800  145.6990 C   0  0  0  0  0  2  0  0  0  0  0  0
  184.2110  178.0380  141.7940 C   0  0  1  0  0  3  0  0  0  0  0  0
  186.9410  177.9940  139.3850 C   0  0  1  0  0  3  0  0  0  0  0  0
  188.9650  178.0450  141.9420 C   0  0  2  0  0  3  0  0  0  0  0  0
  190.4480  176.9850  140.4410 C   0  0  0  0  0  2  0  0  0  0  0  0
  189.0110  177.4600  140.5700 C   0  0  2  0  0  3  0  0  0  0  0  0
  187.8680  178.6430  137.2370 C   0  0  1  0  0  3  0  0  0  0  0  0
  186.4060  178.3060  141.8500 C   0  0  2  0  0  3  0  0  0  0  0  0
  187.8130  177.9430  145.9540 C   0  0  0  0  0  3  0  0  0  0  0  0
  186.4050  178.1210  146.4350 C   0  0  1  0  0  3  0  0  0  0  0  0
  184.5450  178.0610  140.5140 C   0  0  0  0  0  3  0  0  0  0  0  0
  188.0170  177.3290  144.7980 C   0  0  0  0  0  3  0  0  0  0  0  0
  189.3030  176.8540  142.7850 C   0  0  1  0  0  3  0  0  0  0  0  0
  186.5620  178.5970  138.0540 C   0  0  1  0  0  3  0  0  0  0  0  0
  185.3020  178.0410  142.8010 C   0  0  1  0  0  3  0  0  0  0  0  0
  188.3840  178.4130  139.5670 C   0  0  1  0  0  3  0  0  0  0  0  0
  184.3080  178.1910  137.3410 O   0  0  0  0  0  0  0  0  0  0  0  0
  185.5060  177.7970  137.3560 C   0  0  0  0  0  0  0  0  0  0  0  0
  185.8740  176.5750  136.7140 N   0  0  0  0  0  2  0  0  0  0  0  0
  184.9060  175.7220  136.0390 C   0  0  0  0  0  2  0  0  0  0  0  0
  185.4080  174.3570  135.9670 N   0  0  0  0  0  2  0  0  0  0  0  0
  185.6090  172.7880  138.0960 O   0  0  0  0  0  0  0  0  0  0  0  0
  183.6950  174.3110  137.9750 O   0  0  0  0  0  0  0  0  0  0  0  0
  184.5980  173.4150  137.1760 S   0  0  0  0  0  0  0  0  0  0  0  0
  183.2570  171.2030  137.3590 F   0  0  0  0  0  0  0  0  0  0  0  0
  183.6240  172.1380  136.4110 C   0  0  0  0  0  2  0  0  0  0  0  0
  2  5  1  6  0  0  0
  2 26  1  0  0  0  0
  4  1  1  6  0  0  0
  4  9  1  0  0  0  0
  7 22  1  0  0  0  0
  9 11  1  0  0  0  0
 11 20  1  0  0  0  0
 12 21  1  6  0  0  0
 12  1  1  0  0  0  0
 12 25  1  0  0  0  0
 13 26  1  0  0  0  0
 13 10  1  1  0  0  0
 14  6  1  1  0  0  0
 14 23  1  0  0  0  0
 15  3  1  0  0  0  0
 16 15  1  6  0  0  0
 16 14  1  0  0  0  0
 17  5  1  6  0  0  0
 17 24  1  0  0  0  0
 17  2  1  0  0  0  0
 18 10  1  6  0  0  0
 18  6  1  0  0  0  0
 18 25  1  0  0  0  0
 19 20  1  0  0  0  0
 20  8  1  1  0  0  0
 21 10  2  0  0  0  0
 22 19  2  0  0  0  0
 23  3  1  6  0  0  0
 23  7  1  0  0  0  0
 24 28  1  6  0  0  0
 24 13  1  0  0  0  0
 25  4  1  0  0  0  0
 26 16  1  0  0  0  0
 27 28  2  0  0  0  0
 29 28  1  0  0  0  0
 30 29  1  0  0  0  0
 31 30  1  0  0  0  0
 31 34  1  0  0  0  0
 34 33  2  0  0  0  0
 34 32  2  0  0  0  0
 36 34  1  0  0  0  0
 36 35  1  0  0  0  0
M  END
>  <MODEL>
6

>  <REMARK>
 VINA RESULT:      -7.3      4.206      8.546
  Name = 
  5 active torsions:
  status: ('A' for Active; 'I' for Inactive)
    1  A    between atoms: C_3  and  N_24
    2  A    between atoms: C_3  and  N_26
    3  A    between atoms: C_15  and  C_33
    4  A    between atoms: N_26  and  S_36
    5  A    between atoms: C_31  and  S_36
                            x       y       z     vdW  Elec       q    Type
                         _______ _______ _______ _____ _____    ______ ____

>  <TORSDO>
F 5

$$$$
=
 OpenBabel10232411243D

 36 42  0  0  1  0  0  0  0  0999 V2000
  182.2590  178.4310  137.9830 C   0  0  0  0  0  2  0  0  0  0  0  0
  189.3570  178.8160  138.4560 C   0  0  1  0  0  3  0  0  0  0  0  0
  188.2210  177.6660  143.0660 S   0  0  0  0  0  0  0  0  0  0  0  0
  182.5420  178.9990  139.3430 C   0  0  1  0  0  3  0  0  0  0  0  0
  189.7860  177.5340  137.8710 N   0  0  0  0  0  2  0  0  0  0  0  0
  185.5410  179.0990  140.5020 N   0  0  0  0  0  2  0  0  0  0  0  0
  185.5320  178.3000  143.2810 N   0  0  0  0  0  0  0  0  0  0  0  0
  180.7570  179.1300  143.7170 C   0  0  0  0  0  1  0  0  0  0  0  0
  181.4680  178.7140  140.2860 N   0  0  0  0  0  2  0  0  0  0  0  0
  185.6040  178.0360  138.2740 C   0  0  0  0  0  0  0  0  0  0  0  0
  181.7130  179.5380  141.4670 C   0  0  0  0  0  2  0  0  0  0  0  0
  183.4890  177.5350  138.0120 C   0  0  1  0  0  3  0  0  0  0  0  0
  187.1070  177.9410  138.0990 C   0  0  1  0  0  3  0  0  0  0  0  0
  186.7610  178.7880  141.2290 C   0  0  2  0  0  3  0  0  0  0  0  0
  188.9770  177.9940  141.4050 C   0  0  0  0  0  2  0  0  0  0  0  0
  187.8130  178.0910  140.4340 C   0  0  2  0  0  3  0  0  0  0  0  0
  189.1830  178.5740  137.0130 C   0  0  1  0  0  3  0  0  0  0  0  0
  184.9780  178.3660  139.4210 C   0  0  2  0  0  3  0  0  0  0  0  0
  183.1660  178.8210  143.3530 C   0  0  0  0  0  2  0  0  0  0  0  0
  181.8120  178.6790  142.7280 C   0  0  1  0  0  3  0  0  0  0  0  0
  184.6130  177.5060  137.3150 C   0  0  0  0  0  3  0  0  0  0  0  0
  184.1840  178.1610  142.8220 C   0  0  0  0  0  3  0  0  0  0  0  0
  186.5500  177.8230  142.3550 C   0  0  1  0  0  3  0  0  0  0  0  0
  187.6940  178.2790  136.7500 C   0  0  1  0  0  3  0  0  0  0  0  0
  183.5640  177.9270  139.4420 C   0  0  1  0  0  3  0  0  0  0  0  0
  187.9570  178.7370  139.0660 C   0  0  1  0  0  3  0  0  0  0  0  0
  187.3260  177.4100  134.5450 O   0  0  0  0  0  0  0  0  0  0  0  0
  187.5210  177.1640  135.7670 C   0  0  0  0  0  0  0  0  0  0  0  0
  187.5700  175.8140  136.2340 N   0  0  0  0  0  2  0  0  0  0  0  0
  187.3820  174.6710  135.3520 C   0  0  0  0  0  2  0  0  0  0  0  0
  186.0260  174.1570  135.4830 N   0  0  0  0  0  2  0  0  0  0  0  0
  185.8460  171.5130  135.5880 O   0  0  0  0  0  0  0  0  0  0  0  0
  187.4320  172.6120  137.0960 O   0  0  0  0  0  0  0  0  0  0  0  0
  186.0790  172.7220  136.4520 S   0  0  0  0  0  0  0  0  0  0  0  0
  184.5990  174.1050  138.0710 F   0  0  0  0  0  0  0  0  0  0  0  0
  184.8330  172.7890  137.7210 C   0  0  0  0  0  2  0  0  0  0  0  0
  1 12  1  0  0  0  0
  2  5  1  1  0  0  0
  2 26  1  0  0  0  0
  4  1  1  6  0  0  0
  4 25  1  0  0  0  0
  4  9  1  0  0  0  0
  9 11  1  0  0  0  0
 11 20  1  0  0  0  0
 12 21  1  6  0  0  0
 12 25  1  0  0  0  0
 13 10  1  6  0  0  0
 13 26  1  0  0  0  0
 14  6  1  6  0  0  0
 14 23  1  0  0  0  0
 15  3  1  0  0  0  0
 16 14  1  0  0  0  0
 16 15  1  1  0  0  0
 17  5  1  1  0  0  0
 17  2  1  0  0  0  0
 18 10  1  6  0  0  0
 18 25  1  0  0  0  0
 18  6  1  0  0  0  0
 20 19  1  0  0  0  0
 20  8  1  1  0  0  0
 21 10  2  0  0  0  0
 22  7  2  0  0  0  0
 22 19  1  0  0  0  0
 23  3  1  1  0  0  0
 23  7  1  0  0  0  0
 24 28  1  6  0  0  0
 24 17  1  0  0  0  0
 24 13  1  0  0  0  0
 26 16  1  0  0  0  0
 27 28  2  0  0  0  0
 28 29  1  0  0  0  0
 30 31  1  0  0  0  0
 30 29  1  0  0  0  0
 31 34  1  0  0  0  0
 32 34  2  0  0  0  0
 34 33  2  0  0  0  0
 34 36  1  0  0  0  0
 36 35  1  0  0  0  0
M  END
>  <MODEL>
7

>  <REMARK>
 VINA RESULT:      -7.2      4.473      8.468
  Name = 
  5 active torsions:
  status: ('A' for Active; 'I' for Inactive)
    1  A    between atoms: C_3  and  N_24
    2  A    between atoms: C_3  and  N_26
    3  A    between atoms: C_15  and  C_33
    4  A    between atoms: N_26  and  S_36
    5  A    between atoms: C_31  and  S_36
                            x       y       z     vdW  Elec       q    Type
                         _______ _______ _______ _____ _____    ______ ____

>  <TORSDO>
F 5

$$$$
=
 OpenBabel10232411243D

 36 42  0  0  1  0  0  0  0  0999 V2000
  191.9170  177.3520  142.0850 C   0  0  0  0  0  2  0  0  0  0  0  0
  185.1990  179.2520  140.6670 C   0  0  1  0  0  3  0  0  0  0  0  0
  186.2430  176.6360  136.6770 S   0  0  0  0  0  0  0  0  0  0  0  0
  191.8650  177.5710  140.6020 C   0  0  1  0  0  3  0  0  0  0  0  0
  184.4210  178.3210  141.5030 N   0  0  0  0  0  2  0  0  0  0  0  0
  189.0610  178.0500  139.0980 N   0  0  0  0  0  2  0  0  0  0  0  0
  189.0120  176.5320  136.6370 N   0  0  0  0  0  0  0  0  0  0  0  0
  193.8540  176.0600  136.5900 C   0  0  0  0  0  1  0  0  0  0  0  0
  192.8770  176.7920  139.9010 N   0  0  0  0  0  2  0  0  0  0  0  0
  188.6050  177.6910  141.4990 C   0  0  0  0  0  0  0  0  0  0  0  0
  192.9180  177.2900  138.5280 C   0  0  0  0  0  2  0  0  0  0  0  0
  190.5000  176.7990  142.1350 C   0  0  1  0  0  3  0  0  0  0  0  0
  187.1220  178.0060  141.5070 C   0  0  1  0  0  3  0  0  0  0  0  0
  187.8440  177.8460  138.3310 C   0  0  2  0  0  3  0  0  0  0  0  0
  185.5100  177.5790  138.0940 C   0  0  0  0  0  2  0  0  0  0  0  0
  186.6050  177.6650  139.1430 C   0  0  2  0  0  3  0  0  0  0  0  0
  185.2260  179.3860  142.1350 C   0  0  1  0  0  3  0  0  0  0  0  0
  189.3560  177.5330  140.3910 C   0  0  2  0  0  3  0  0  0  0  0  0
  191.4320  176.4410  136.7240 C   0  0  0  0  0  2  0  0  0  0  0  0
  192.6670  176.1630  137.5250 C   0  0  1  0  0  3  0  0  0  0  0  0
  189.3710  177.2310  142.6750 C   0  0  0  0  0  3  0  0  0  0  0  0
  190.2510  176.2130  137.2770 C   0  0  0  0  0  3  0  0  0  0  0  0
  187.8560  176.5850  137.5220 C   0  0  1  0  0  3  0  0  0  0  0  0
  186.5720  178.8330  142.6440 C   0  0  1  0  0  3  0  0  0  0  0  0
  190.6070  176.7860  140.6550 C   0  0  1  0  0  3  0  0  0  0  0  0
  186.5610  178.6790  140.2730 C   0  0  1  0  0  3  0  0  0  0  0  0
  186.3710  176.7650  143.8420 O   0  0  0  0  0  0  0  0  0  0  0  0
  186.3960  178.0260  143.8920 C   0  0  0  0  0  0  0  0  0  0  0  0
  186.2480  178.7030  145.1410 N   0  0  0  0  0  2  0  0  0  0  0  0
  186.0430  177.9960  146.3970 C   0  0  0  0  0  2  0  0  0  0  0  0
  186.7750  178.6580  147.4680 N   0  0  0  0  0  2  0  0  0  0  0  0
  189.1680  178.5720  148.6080 O   0  0  0  0  0  0  0  0  0  0  0  0
  187.8570  176.5040  148.5450 O   0  0  0  0  0  0  0  0  0  0  0  0
  188.2160  177.7490  147.7850 S   0  0  0  0  0  0  0  0  0  0  0  0
  189.6110  178.3970  145.6960 F   0  0  0  0  0  0  0  0  0  0  0  0
  189.0020  177.2900  146.2550 C   0  0  0  0  0  2  0  0  0  0  0  0
  2  5  1  1  0  0  0
  2 17  1  0  0  0  0
  3 23  1  0  0  0  0
  3 15  1  0  0  0  0
  4 25  1  0  0  0  0
  4  1  1  1  0  0  0
  7 22  2  0  0  0  0
  9  4  1  0  0  0  0
 10 21  2  0  0  0  0
 11  9  1  0  0  0  0
 12  1  1  1  0  0  0
 12 21  1  0  0  0  0
 13 10  1  6  0  0  0
 13 24  1  0  0  0  0
 14  6  1  1  0  0  0
 14 16  1  0  0  0  0
 16 15  1  6  0  0  0
 16 26  1  0  0  0  0
 17  5  1  1  0  0  0
 17 24  1  0  0  0  0
 18  6  1  1  0  0  0
 18 25  1  0  0  0  0
 18 10  1  0  0  0  0
 19 22  1  0  0  0  0
 19 20  1  0  0  0  0
 20  8  1  6  0  0  0
 20 11  1  0  0  0  0
 23  7  1  6  0  0  0
 23 14  1  0  0  0  0
 24 28  1  1  0  0  0
 25 12  1  0  0  0  0
 26  2  1  0  0  0  0
 26 13  1  0  0  0  0
 27 28  2  0  0  0  0
 28 29  1  0  0  0  0
 29 30  1  0  0  0  0
 30 31  1  0  0  0  0
 31 34  1  0  0  0  0
 34 33  2  0  0  0  0
 34 32  2  0  0  0  0
 35 36  1  0  0  0  0
 36 34  1  0  0  0  0
M  END
>  <MODEL>
8

>  <REMARK>
 VINA RESULT:      -7.1      2.429      3.448
  Name = 
  5 active torsions:
  status: ('A' for Active; 'I' for Inactive)
    1  A    between atoms: C_3  and  N_24
    2  A    between atoms: C_3  and  N_26
    3  A    between atoms: C_15  and  C_33
    4  A    between atoms: N_26  and  S_36
    5  A    between atoms: C_31  and  S_36
                            x       y       z     vdW  Elec       q    Type
                         _______ _______ _______ _____ _____    ______ ____

>  <TORSDO>
F 5

$$$$
=
 OpenBabel10232411243D

 36 42  0  0  1  0  0  0  0  0999 V2000
  184.1780  179.0450  144.0910 C   0  0  0  0  0  2  0  0  0  0  0  0
  188.9790  178.5460  138.8520 C   0  0  1  0  0  3  0  0  0  0  0  0
  191.2890  176.1200  142.4070 S   0  0  0  0  0  0  0  0  0  0  0  0
  185.5170  179.1240  144.7640 C   0  0  1  0  0  3  0  0  0  0  0  0
  188.4180  177.4780  138.0060 N   0  0  0  0  0  2  0  0  0  0  0  0
  188.2260  178.5510  143.1250 N   0  0  0  0  0  2  0  0  0  0  0  0
  189.9990  176.9200  144.7250 N   0  0  0  0  0  0  0  0  0  0  0  0
  187.6550  178.0460  148.8380 C   0  0  0  0  0  1  0  0  0  0  0  0
  185.4600  178.6650  146.1460 N   0  0  0  0  0  2  0  0  0  0  0  0
  186.3120  178.2440  141.5950 C   0  0  0  0  0  0  0  0  0  0  0  0
  186.7250  179.0450  146.7690 C   0  0  0  0  0  2  0  0  0  0  0  0
  184.6740  178.0670  143.0360 C   0  0  1  0  0  3  0  0  0  0  0  0
  187.0730  178.0590  140.2970 C   0  0  1  0  0  3  0  0  0  0  0  0
  189.4050  177.9050  142.5720 C   0  0  2  0  0  3  0  0  0  0  0  0
  190.6420  176.8780  140.8440 C   0  0  0  0  0  2  0  0  0  0  0  0
  189.2530  177.3930  141.1790 C   0  0  2  0  0  3  0  0  0  0  0  0
  187.7460  178.7910  138.0830 C   0  0  1  0  0  3  0  0  0  0  0  0
  186.8670  178.2560  142.8230 C   0  0  2  0  0  3  0  0  0  0  0  0
  188.7660  177.6270  146.6890 C   0  0  0  0  0  2  0  0  0  0  0  0
  187.4390  177.8260  147.3550 C   0  0  1  0  0  3  0  0  0  0  0  0
  184.8430  178.1470  141.7270 C   0  0  0  0  0  3  0  0  0  0  0  0
  188.7980  177.0700  145.4880 C   0  0  0  0  0  3  0  0  0  0  0  0
  189.7990  176.6600  143.3060 C   0  0  1  0  0  3  0  0  0  0  0  0
  186.5530  178.7450  139.0570 C   0  0  1  0  0  3  0  0  0  0  0  0
  185.8830  177.9780  143.8930 C   0  0  1  0  0  3  0  0  0  0  0  0
  188.5440  178.4190  140.3120 C   0  0  1  0  0  3  0  0  0  0  0  0
  185.5550  176.9360  137.8400 O   0  0  0  0  0  0  0  0  0  0  0  0
  185.3870  178.0200  138.4630 C   0  0  0  0  0  0  0  0  0  0  0  0
  184.0780  178.5780  138.6030 N   0  0  0  0  0  2  0  0  0  0  0  0
  182.8940  177.9540  138.0290 C   0  0  0  0  0  2  0  0  0  0  0  0
  182.3960  176.9150  138.9200 N   0  0  0  0  0  2  0  0  0  0  0  0
  179.9820  177.5360  138.0130 O   0  0  0  0  0  0  0  0  0  0  0  0
  180.1270  176.0700  139.9700 O   0  0  0  0  0  0  0  0  0  0  0  0
  180.7370  177.2590  139.2840 S   0  0  0  0  0  0  0  0  0  0  0  0
  181.6680  178.6540  141.2630 F   0  0  0  0  0  0  0  0  0  0  0  0
  180.6240  178.6730  140.3580 C   0  0  0  0  0  2  0  0  0  0  0  0
  2  5  1  6  0  0  0
  2 26  1  0  0  0  0
  4  1  1  6  0  0  0
  4  9  1  0  0  0  0
  7 22  2  0  0  0  0
  9 11  1  0  0  0  0
 10 21  2  0  0  0  0
 11 20  1  0  0  0  0
 12 21  1  6  0  0  0
 12 25  1  0  0  0  0
 12  1  1  0  0  0  0
 13 26  1  0  0  0  0
 13 10  1  1  0  0  0
 14  6  1  1  0  0  0
 14 23  1  0  0  0  0
 15  3  1  0  0  0  0
 16 15  1  6  0  0  0
 16 14  1  0  0  0  0
 17  5  1  6  0  0  0
 17  2  1  0  0  0  0
 17 24  1  0  0  0  0
 18 10  1  1  0  0  0
 18  6  1  0  0  0  0
 18 25  1  0  0  0  0
 19 20  1  0  0  0  0
 20  8  1  1  0  0  0
 22 19  1  0  0  0  0
 23  3  1  6  0  0  0
 23  7  1  0  0  0  0
 24 28  1  6  0  0  0
 24 13  1  0  0  0  0
 25  4  1  0  0  0  0
 26 16  1  0  0  0  0
 27 28  2  0  0  0  0
 28 29  1  0  0  0  0
 30 29  1  0  0  0  0
 30 31  1  0  0  0  0
 31 34  1  0  0  0  0
 32 34  2  0  0  0  0
 34 33  2  0  0  0  0
 34 36  1  0  0  0  0
 36 35  1  0  0  0  0
M  END
>  <MODEL>
9

>  <REMARK>
 VINA RESULT:      -6.9      3.921      8.626
  Name = 
  5 active torsions:
  status: ('A' for Active; 'I' for Inactive)
    1  A    between atoms: C_3  and  N_24
    2  A    between atoms: C_3  and  N_26
    3  A    between atoms: C_15  and  C_33
    4  A    between atoms: N_26  and  S_36
    5  A    between atoms: C_31  and  S_36
                            x       y       z     vdW  Elec       q    Type
                         _______ _______ _______ _____ _____    ______ ____

>  <TORSDO>
F 5

$$$$
