=
 OpenBabel10232410363D

 50 56  0  0  1  0  0  0  0  0999 V2000
  189.9180  177.0200  147.0210 C   0  0  0  0  0  3  0  0  0  0  0  0
  188.8690  177.3200  137.4700 C   0  0  1  0  0  3  0  0  0  0  0  0
  188.0040  178.7040  141.4010 C   0  0  2  0  0  3  0  0  0  0  0  0
  188.7100  180.0420  141.2620 C   0  0  0  0  0  1  0  0  0  0  0  0
  190.5750  176.1210  139.1500 S   0  0  0  0  0  0  0  0  0  0  0  0
  190.3490  177.1800  137.7480 C   0  0  2  0  0  3  0  0  0  0  0  0
  187.6980  178.4680  142.8160 N   0  0  1  0  0  0  0  0  0  0  0  0
  186.2630  178.5490  143.0680 C   0  0  2  0  0  3  0  0  0  0  0  0
  190.6220  176.5300  145.9230 C   0  0  0  0  0  0  0  0  0  0  0  0
  188.6350  177.5410  146.8550 C   0  0  0  0  0  3  0  0  0  0  0  0
  189.5060  177.4090  139.8690 C   0  0  0  0  0  0  0  0  0  0  0  0
  188.0170  177.5960  145.5940 C   0  0  0  0  0  0  0  0  0  0  0  0
  185.9640  178.5610  144.5030 N   0  0  0  0  0  0  0  0  0  0  0  0
  186.6240  178.1670  145.5680 C   0  0  0  0  0  0  0  0  0  0  0  0
  188.1430  177.1080  143.1200 C   0  0  2  0  0  3  0  0  0  0  0  0
  188.9150  177.5920  141.0440 C   0  0  0  0  0  0  0  0  0  0  0  0
  188.7390  177.0950  144.4810 C   0  0  0  0  0  0  0  0  0  0  0  0
  189.0400  176.7200  142.0960 O   0  0  0  0  0  0  0  0  0  0  0  0
  190.0270  176.5650  144.6590 C   0  0  0  0  0  3  0  0  0  0  0  0
  189.5410  178.1460  138.5460 C   0  0  2  0  0  3  0  0  0  0  0  0
  192.4840  175.6800  147.4170 C   0  0  0  0  0  1  0  0  0  0  0  0
  191.9400  176.0080  146.1090 N   0  0  0  0  0  2  0  0  0  0  0  0
  185.9960  178.3130  146.8110 O   0  0  0  0  0  0  0  0  0  0  0  0
  184.5870  178.4180  146.9520 C   0  0  0  0  0  1  0  0  0  0  0  0
  185.4390  177.4750  142.3360 C   0  0  0  0  0  2  0  0  0  0  0  0
  184.1170  178.7240  140.5690 C   0  0  0  0  0  0  0  0  0  0  0  0
  184.1970  178.0340  141.8210 N   0  0  0  0  0  2  0  0  0  0  0  0
  185.1880  178.9640  139.8820 N   0  0  0  0  0  2  0  0  0  0  0  0
  180.5530  179.4570  139.9730 C   0  0  0  0  0  2  0  0  0  0  0  0
  180.7770  179.4220  137.4940 C   0  0  0  0  0  1  0  0  0  0  0  0
  182.6630  179.8210  138.9720 N   0  0  0  0  0  0  0  0  0  0  0  0
  181.2480  180.0950  138.7680 C   0  0  2  0  0  3  0  0  0  0  0  0
  182.8100  179.1650  140.0680 C   0  0  0  0  0  0  0  0  0  0  0  0
  181.6230  178.9100  140.7230 O   0  0  0  0  0  0  0  0  0  0  0  0
  188.6750  178.1640  136.2250 C   0  0  0  0  0  2  0  0  0  0  0  0
  187.1920  178.3580  135.9530 C   0  0  0  0  0  2  0  0  0  0  0  0
  186.8150  177.6660  134.7320 N   0  0  0  0  0  2  0  0  0  0  0  0
  185.5340  177.0170  134.9780 C   0  0  0  0  0  2  0  0  0  0  0  0
  185.4270  176.6190  136.4410 C   0  0  2  0  0  3  0  0  0  0  0  0
  187.8780  170.8720  135.6570 C   0  0  0  0  0  1  0  0  0  0  0  0
  184.6790  174.4470  137.4200 C   0  0  0  0  0  3  0  0  0  0  0  0
  186.7030  173.0470  136.1130 C   0  0  0  0  0  0  0  0  0  0  0  0
  186.5880  174.4350  135.9360 C   0  0  0  0  0  3  0  0  0  0  0  0
  185.8160  172.4050  136.9280 N   0  0  0  0  0  0  0  0  0  0  0  0
  185.5660  175.1370  136.5890 C   0  0  0  0  0  0  0  0  0  0  0  0
  187.7420  172.3050  135.4490 N   0  0  0  0  0  0  0  0  0  0  0  0
  184.8200  173.0680  137.5780 C   0  0  0  0  0  3  0  0  0  0  0  0
  188.6880  172.9570  134.5540 C   0  0  0  0  0  1  0  0  0  0  0  0
  184.1590  177.0680  136.9960 N   0  0  0  0  0  2  0  0  0  0  0  0
  183.3640  177.4750  135.9190 N   0  0  0  0  0  1  0  0  0  0  0  0
  2 35  1  6  0  0  0
  2  6  1  0  0  0  0
  2 20  1  0  0  0  0
  3  4  1  1  0  0  0
  3  7  1  0  0  0  0
  5 11  1  0  0  0  0
  6 20  1  0  0  0  0
  6  5  1  1  0  0  0
  7  8  1  0  0  0  0
  7 15  1  0  0  0  0
  8 13  1  0  0  0  0
  9 22  1  0  0  0  0
  9  1  2  0  0  0  0
 10  1  1  0  0  0  0
 11 16  2  0  0  0  0
 12 10  2  0  0  0  0
 13 14  2  0  0  0  0
 14 12  1  0  0  0  0
 14 23  1  0  0  0  0
 15 17  1  0  0  0  0
 16  3  1  0  0  0  0
 16 18  1  0  0  0  0
 17 19  2  0  0  0  0
 17 12  1  0  0  0  0
 18 15  1  0  0  0  0
 19  9  1  0  0  0  0
 20 11  1  0  0  0  0
 22 21  1  0  0  0  0
 23 24  1  0  0  0  0
 25  8  1  0  0  0  0
 26 27  1  0  0  0  0
 27 25  1  0  0  0  0
 28 26  2  0  0  0  0
 29 34  1  0  0  0  0
 30 32  1  0  0  0  0
 31 33  2  0  0  0  0
 32 31  1  0  0  0  0
 32 29  1  0  0  0  0
 33 26  1  0  0  0  0
 33 34  1  0  0  0  0
 36 35  1  0  0  0  0
 37 38  1  0  0  0  0
 37 36  1  0  0  0  0
 38 39  1  0  0  0  0
 39 45  1  0  0  0  0
 39 49  1  0  0  0  0
 41 47  1  0  0  0  0
 42 44  1  0  0  0  0
 43 42  2  0  0  0  0
 43 45  1  0  0  0  0
 44 47  2  0  0  0  0
 45 41  2  0  0  0  0
 46 40  1  0  0  0  0
 46 42  1  0  0  0  0
 48 46  1  0  0  0  0
 50 49  1  0  0  0  0
M  END
>  <MODEL>
1

>  <REMARK>
 VINA RESULT:      -6.2      0.000      0.000
  Name = 
  12 active torsions:
  status: ('A' for Active; 'I' for Inactive)
    1  A    between atoms: C_2  and  C_42
    2  A    between atoms: N_6  and  C_16
    3  A    between atoms: C_8  and  C_44
    4  A    between atoms: N_9  and  C_25
    5  A    between atoms: C_10  and  N_19
    6  A    between atoms: C_10  and  C_29
    7  A    between atoms: O_14  and  C_31
    8  A    between atoms: C_15  and  C_25
    9  A    between atoms: N_19  and  C_20
   10  A    between atoms: C_20  and  C_42
   11  A    between atoms: N_23  and  C_29
   12  A    between atoms: C_29  and  C_37
                            x       y       z     vdW  Elec       q    Type
                         _______ _______ _______ _____ _____    ______ ____

>  <TORSDO>
F 12

$$$$
=
 OpenBabel10232410363D

 50 56  0  0  1  0  0  0  0  0999 V2000
  193.6930  175.0770  136.0000 C   0  0  0  0  0  3  0  0  0  0  0  0
  184.2280  175.7160  137.5600 C   0  0  1  0  0  3  0  0  0  0  0  0
  188.1990  177.2290  137.8090 C   0  0  2  0  0  3  0  0  0  0  0  0
  188.0050  178.3580  136.8110 C   0  0  0  0  0  1  0  0  0  0  0  0
  185.8010  174.1230  136.0900 S   0  0  0  0  0  0  0  0  0  0  0  0
  184.4110  175.2190  136.1420 C   0  0  2  0  0  3  0  0  0  0  0  0
  189.6320  177.0600  138.0700 N   0  0  1  0  0  0  0  0  0  0  0  0
  189.9760  177.4830  139.4240 C   0  0  2  0  0  3  0  0  0  0  0  0
  192.5540  174.4430  135.5070 C   0  0  0  0  0  0  0  0  0  0  0  0
  193.6070  175.8950  137.1260 C   0  0  0  0  0  3  0  0  0  0  0  0
  186.5810  175.6240  136.7660 C   0  0  0  0  0  0  0  0  0  0  0  0
  192.3880  176.1100  137.7930 C   0  0  0  0  0  0  0  0  0  0  0  0
  191.4270  177.5530  139.6170 N   0  0  0  0  0  0  0  0  0  0  0  0
  192.4500  177.0010  139.0060 C   0  0  0  0  0  0  0  0  0  0  0  0
  189.9150  175.6300  137.9490 C   0  0  2  0  0  3  0  0  0  0  0  0
  187.7900  175.9330  137.2190 C   0  0  0  0  0  0  0  0  0  0  0  0
  191.2340  175.4600  137.2870 C   0  0  0  0  0  0  0  0  0  0  0  0
  188.8370  175.0460  137.2410 O   0  0  0  0  0  0  0  0  0  0  0  0
  191.3310  174.6330  136.1570 C   0  0  0  0  0  3  0  0  0  0  0  0
  185.2530  176.3430  136.6400 C   0  0  2  0  0  3  0  0  0  0  0  0
  193.0030  172.2050  134.4060 C   0  0  0  0  0  1  0  0  0  0  0  0
  192.6580  173.6160  134.3460 N   0  0  0  0  0  2  0  0  0  0  0  0
  193.7300  177.2830  139.4980 O   0  0  0  0  0  0  0  0  0  0  0  0
  194.3180  176.5580  140.5670 C   0  0  0  0  0  1  0  0  0  0  0  0
  189.3060  176.6480  140.5290 C   0  0  0  0  0  2  0  0  0  0  0  0
  189.2180  176.5940  143.0620 C   0  0  0  0  0  0  0  0  0  0  0  0
  189.8470  176.9860  141.8370 N   0  0  0  0  0  2  0  0  0  0  0  0
  188.0700  175.9950  143.0480 N   0  0  0  0  0  2  0  0  0  0  0  0
  191.5030  176.9100  145.9380 C   0  0  0  0  0  2  0  0  0  0  0  0
  189.6690  176.8940  147.6230 C   0  0  0  0  0  1  0  0  0  0  0  0
  189.3070  177.5120  145.3020 N   0  0  0  0  0  0  0  0  0  0  0  0
  190.2350  177.6200  146.4190 C   0  0  2  0  0  3  0  0  0  0  0  0
  189.8810  176.8800  144.3400 C   0  0  0  0  0  0  0  0  0  0  0  0
  191.1730  176.4920  144.6260 O   0  0  0  0  0  0  0  0  0  0  0  0
  182.9930  176.5930  137.6230 C   0  0  0  0  0  2  0  0  0  0  0  0
  182.6360  177.0890  136.2310 C   0  0  0  0  0  2  0  0  0  0  0  0
  181.9330  178.3580  136.3200 N   0  0  0  0  0  2  0  0  0  0  0  0
  181.2890  178.4070  137.6260 C   0  0  0  0  0  2  0  0  0  0  0  0
  181.7550  179.6370  138.3880 C   0  0  2  0  0  3  0  0  0  0  0  0
  185.3890  178.3490  143.3650 C   0  0  0  0  0  1  0  0  0  0  0  0
  181.0750  179.1180  140.7340 C   0  0  0  0  0  3  0  0  0  0  0  0
  183.7260  178.8100  141.5380 C   0  0  0  0  0  0  0  0  0  0  0  0
  183.4350  179.1280  140.2020 C   0  0  0  0  0  3  0  0  0  0  0  0
  182.6990  178.6570  142.4240 N   0  0  0  0  0  0  0  0  0  0  0  0
  182.1010  179.2770  139.7970 C   0  0  0  0  0  0  0  0  0  0  0  0
  185.0880  178.6480  141.9740 N   0  0  0  0  0  0  0  0  0  0  0  0
  181.3970  178.8050  142.0550 C   0  0  0  0  0  3  0  0  0  0  0  0
  186.2040  178.7800  141.0480 C   0  0  0  0  0  1  0  0  0  0  0  0
  180.7250  180.6660  138.3650 N   0  0  0  0  0  2  0  0  0  0  0  0
  181.3370  181.8470  137.9300 N   0  0  0  0  0  1  0  0  0  0  0  0
  1 10  1  0  0  0  0
  2 35  1  6  0  0  0
  3  4  1  6  0  0  0
  3  7  1  0  0  0  0
  5 11  1  0  0  0  0
  6  5  1  1  0  0  0
  6 20  1  0  0  0  0
  6  2  1  0  0  0  0
  7  8  1  0  0  0  0
  8 13  1  0  0  0  0
  8 25  1  0  0  0  0
  9  1  2  0  0  0  0
  9 19  1  0  0  0  0
 10 12  2  0  0  0  0
 11 16  2  0  0  0  0
 12 14  1  0  0  0  0
 14 23  1  0  0  0  0
 14 13  2  0  0  0  0
 15  7  1  0  0  0  0
 16 18  1  0  0  0  0
 16  3  1  0  0  0  0
 17 12  1  0  0  0  0
 17 15  1  0  0  0  0
 18 15  1  0  0  0  0
 19 17  2  0  0  0  0
 20 11  1  0  0  0  0
 20  2  1  0  0  0  0
 22 21  1  0  0  0  0
 22  9  1  0  0  0  0
 23 24  1  0  0  0  0
 25 27  1  0  0  0  0
 26 33  1  0  0  0  0
 27 26  1  0  0  0  0
 28 26  2  0  0  0  0
 29 32  1  0  0  0  0
 31 32  1  0  0  0  0
 32 30  1  0  0  0  0
 33 34  1  0  0  0  0
 33 31  2  0  0  0  0
 34 29  1  0  0  0  0
 36 37  1  0  0  0  0
 36 35  1  0  0  0  0
 37 38  1  0  0  0  0
 38 39  1  0  0  0  0
 39 45  1  0  0  0  0
 41 47  1  0  0  0  0
 42 46  1  0  0  0  0
 42 44  1  0  0  0  0
 43 42  2  0  0  0  0
 45 43  1  0  0  0  0
 45 41  2  0  0  0  0
 46 40  1  0  0  0  0
 47 44  2  0  0  0  0
 48 46  1  0  0  0  0
 49 39  1  0  0  0  0
 50 49  1  0  0  0  0
M  END
>  <MODEL>
2

>  <REMARK>
 VINA RESULT:      -6.1      2.873      8.192
  Name = 
  12 active torsions:
  status: ('A' for Active; 'I' for Inactive)
    1  A    between atoms: C_2  and  C_42
    2  A    between atoms: N_6  and  C_16
    3  A    between atoms: C_8  and  C_44
    4  A    between atoms: N_9  and  C_25
    5  A    between atoms: C_10  and  N_19
    6  A    between atoms: C_10  and  C_29
    7  A    between atoms: O_14  and  C_31
    8  A    between atoms: C_15  and  C_25
    9  A    between atoms: N_19  and  C_20
   10  A    between atoms: C_20  and  C_42
   11  A    between atoms: N_23  and  C_29
   12  A    between atoms: C_29  and  C_37
                            x       y       z     vdW  Elec       q    Type
                         _______ _______ _______ _____ _____    ______ ____

>  <TORSDO>
F 12

$$$$
=
 OpenBabel10232410363D

 50 56  0  0  1  0  0  0  0  0999 V2000
  189.8010  177.1060  147.0740 C   0  0  0  0  0  3  0  0  0  0  0  0
  188.8330  177.3040  137.5120 C   0  0  1  0  0  3  0  0  0  0  0  0
  187.9470  178.7400  141.4190 C   0  0  2  0  0  3  0  0  0  0  0  0
  188.6640  180.0700  141.2700 C   0  0  0  0  0  1  0  0  0  0  0  0
  190.5160  176.1110  139.2190 S   0  0  0  0  0  0  0  0  0  0  0  0
  190.3100  177.1550  137.8040 C   0  0  2  0  0  3  0  0  0  0  0  0
  187.6280  178.5230  142.8340 N   0  0  1  0  0  0  0  0  0  0  0  0
  186.1910  178.6170  143.0730 C   0  0  2  0  0  3  0  0  0  0  0  0
  190.5100  176.5980  145.9870 C   0  0  0  0  0  0  0  0  0  0  0  0
  188.5240  177.6350  146.8910 C   0  0  0  0  0  3  0  0  0  0  0  0
  189.4520  177.4150  139.9150 C   0  0  0  0  0  0  0  0  0  0  0  0
  187.9170  177.6810  145.6240 C   0  0  0  0  0  0  0  0  0  0  0  0
  185.8810  178.6490  144.5050 N   0  0  0  0  0  0  0  0  0  0  0  0
  186.5280  178.2620  145.5800 C   0  0  0  0  0  0  0  0  0  0  0  0
  188.0590  177.1630  143.1580 C   0  0  2  0  0  3  0  0  0  0  0  0
  188.8520  177.6170  141.0820 C   0  0  0  0  0  0  0  0  0  0  0  0
  188.6440  177.1610  144.5230 C   0  0  0  0  0  0  0  0  0  0  0  0
  188.9610  176.7560  142.1450 O   0  0  0  0  0  0  0  0  0  0  0  0
  189.9260  176.6230  144.7180 C   0  0  0  0  0  3  0  0  0  0  0  0
  189.5030  178.1360  138.5830 C   0  0  2  0  0  3  0  0  0  0  0  0
  192.3660  175.7830  147.5090 C   0  0  0  0  0  1  0  0  0  0  0  0
  191.8220  176.0680  146.1910 N   0  0  0  0  0  2  0  0  0  0  0  0
  185.8910  178.4280  146.8160 O   0  0  0  0  0  0  0  0  0  0  0  0
  184.4910  178.2650  146.9860 C   0  0  0  0  0  1  0  0  0  0  0  0
  185.3650  177.5420  142.3460 C   0  0  0  0  0  2  0  0  0  0  0  0
  184.1690  178.6770  140.4200 C   0  0  0  0  0  0  0  0  0  0  0  0
  184.1750  178.1220  141.7400 N   0  0  0  0  0  2  0  0  0  0  0  0
  185.2680  178.7710  139.7420 N   0  0  0  0  0  2  0  0  0  0  0  0
  180.6630  179.3960  139.5370 C   0  0  0  0  0  2  0  0  0  0  0  0
  181.1440  179.6670  137.1090 C   0  0  0  0  0  1  0  0  0  0  0  0
  182.8510  179.9270  138.8170 N   0  0  0  0  0  0  0  0  0  0  0  0
  181.4560  180.1910  138.4960 C   0  0  2  0  0  3  0  0  0  0  0  0
  182.9060  179.1460  139.8380 C   0  0  0  0  0  0  0  0  0  0  0  0
  181.6680  178.7860  140.3260 O   0  0  0  0  0  0  0  0  0  0  0  0
  188.6570  178.1340  136.2550 C   0  0  0  0  0  2  0  0  0  0  0  0
  187.3770  177.7310  135.5410 C   0  0  0  0  0  2  0  0  0  0  0  0
  187.4330  176.3260  135.1740 N   0  0  0  0  0  2  0  0  0  0  0  0
  186.1800  175.7160  135.6000 C   0  0  0  0  0  2  0  0  0  0  0  0
  186.4000  174.2440  135.9110 C   0  0  2  0  0  3  0  0  0  0  0  0
  180.4080  173.8550  137.8060 C   0  0  0  0  0  1  0  0  0  0  0  0
  185.0090  172.2090  136.3080 C   0  0  0  0  0  3  0  0  0  0  0  0
  182.8070  173.7400  137.0650 C   0  0  0  0  0  0  0  0  0  0  0  0
  184.0050  174.3740  136.7020 C   0  0  0  0  0  3  0  0  0  0  0  0
  182.7420  172.3770  137.0410 N   0  0  0  0  0  0  0  0  0  0  0  0
  185.1140  173.6030  136.3260 C   0  0  0  0  0  0  0  0  0  0  0  0
  181.6580  174.5120  137.4590 N   0  0  0  0  0  0  0  0  0  0  0  0
  183.8040  171.6080  136.6730 C   0  0  0  0  0  3  0  0  0  0  0  0
  181.7030  175.9660  137.5190 C   0  0  0  0  0  1  0  0  0  0  0  0
  187.4030  174.0930  136.9540 N   0  0  0  0  0  2  0  0  0  0  0  0
  188.4080  173.2680  136.4360 N   0  0  0  0  0  1  0  0  0  0  0  0
  2 35  1  6  0  0  0
  2  6  1  0  0  0  0
  2 20  1  0  0  0  0
  3  4  1  1  0  0  0
  3  7  1  0  0  0  0
  5 11  1  0  0  0  0
  6 20  1  0  0  0  0
  6  5  1  1  0  0  0
  7  8  1  0  0  0  0
  7 15  1  0  0  0  0
  8 13  1  0  0  0  0
  9 22  1  0  0  0  0
  9  1  2  0  0  0  0
 10  1  1  0  0  0  0
 11 16  2  0  0  0  0
 12 10  2  0  0  0  0
 13 14  2  0  0  0  0
 14 12  1  0  0  0  0
 14 23  1  0  0  0  0
 15 17  1  0  0  0  0
 16  3  1  0  0  0  0
 16 18  1  0  0  0  0
 17 19  2  0  0  0  0
 17 12  1  0  0  0  0
 18 15  1  0  0  0  0
 19  9  1  0  0  0  0
 20 11  1  0  0  0  0
 22 21  1  0  0  0  0
 23 24  1  0  0  0  0
 25  8  1  0  0  0  0
 26 27  1  0  0  0  0
 27 25  1  0  0  0  0
 28 26  2  0  0  0  0
 29 34  1  0  0  0  0
 30 32  1  0  0  0  0
 31 33  2  0  0  0  0
 32 31  1  0  0  0  0
 32 29  1  0  0  0  0
 33 34  1  0  0  0  0
 33 26  1  0  0  0  0
 36 35  1  0  0  0  0
 37 36  1  0  0  0  0
 37 38  1  0  0  0  0
 38 39  1  0  0  0  0
 39 45  1  0  0  0  0
 39 49  1  0  0  0  0
 41 45  2  0  0  0  0
 41 47  1  0  0  0  0
 42 46  1  0  0  0  0
 43 42  2  0  0  0  0
 44 42  1  0  0  0  0
 45 43  1  0  0  0  0
 46 48  1  0  0  0  0
 46 40  1  0  0  0  0
 47 44  2  0  0  0  0
 50 49  1  0  0  0  0
M  END
>  <MODEL>
3

>  <REMARK>
 VINA RESULT:      -6.1      1.262      2.469
  Name = 
  12 active torsions:
  status: ('A' for Active; 'I' for Inactive)
    1  A    between atoms: C_2  and  C_42
    2  A    between atoms: N_6  and  C_16
    3  A    between atoms: C_8  and  C_44
    4  A    between atoms: N_9  and  C_25
    5  A    between atoms: C_10  and  N_19
    6  A    between atoms: C_10  and  C_29
    7  A    between atoms: O_14  and  C_31
    8  A    between atoms: C_15  and  C_25
    9  A    between atoms: N_19  and  C_20
   10  A    between atoms: C_20  and  C_42
   11  A    between atoms: N_23  and  C_29
   12  A    between atoms: C_29  and  C_37
                            x       y       z     vdW  Elec       q    Type
                         _______ _______ _______ _____ _____    ______ ____

>  <TORSDO>
F 12

$$$$
=
 OpenBabel10232410363D

 50 56  0  0  1  0  0  0  0  0999 V2000
  185.4760  178.5050  147.3390 C   0  0  0  0  0  3  0  0  0  0  0  0
  190.2480  176.6300  139.2080 C   0  0  1  0  0  3  0  0  0  0  0  0
  187.2740  178.7010  141.4390 C   0  0  2  0  0  3  0  0  0  0  0  0
  187.9600  180.0560  141.4070 C   0  0  0  0  0  1  0  0  0  0  0  0
  190.6100  176.0390  141.7940 S   0  0  0  0  0  0  0  0  0  0  0  0
  191.2790  176.7380  140.3110 C   0  0  2  0  0  3  0  0  0  0  0  0
  186.1890  178.7360  142.4260 N   0  0  1  0  0  0  0  0  0  0  0  0
  184.8820  178.6890  141.7770 C   0  0  2  0  0  3  0  0  0  0  0  0
  186.6780  177.8840  147.0070 C   0  0  0  0  0  0  0  0  0  0  0  0
  184.5490  178.8150  146.3440 C   0  0  0  0  0  3  0  0  0  0  0  0
  189.3560  177.3070  141.4250 C   0  0  0  0  0  0  0  0  0  0  0  0
  184.7920  178.5230  144.9910 C   0  0  0  0  0  0  0  0  0  0  0  0
  183.7980  178.9700  142.7220 N   0  0  0  0  0  0  0  0  0  0  0  0
  183.6950  178.8960  144.0290 C   0  0  0  0  0  0  0  0  0  0  0  0
  186.3350  177.5380  143.2530 C   0  0  2  0  0  3  0  0  0  0  0  0
  188.1920  177.6610  141.9570 C   0  0  0  0  0  0  0  0  0  0  0  0
  186.0170  177.8900  144.6600 C   0  0  0  0  0  0  0  0  0  0  0  0
  187.6530  177.0550  143.0640 O   0  0  0  0  0  0  0  0  0  0  0  0
  186.9410  177.5750  145.6700 C   0  0  0  0  0  3  0  0  0  0  0  0
  190.1810  177.7430  140.2320 C   0  0  2  0  0  3  0  0  0  0  0  0
  188.8950  178.2690  148.1740 C   0  0  0  0  0  1  0  0  0  0  0  0
  187.6210  177.5820  148.0390 N   0  0  0  0  0  2  0  0  0  0  0  0
  182.4600  179.2250  144.6020 O   0  0  0  0  0  0  0  0  0  0  0  0
  181.2210  178.8050  144.0510 C   0  0  0  0  0  1  0  0  0  0  0  0
  184.6190  177.3900  140.9950 C   0  0  0  0  0  2  0  0  0  0  0  0
  183.4130  178.2220  138.9260 C   0  0  0  0  0  0  0  0  0  0  0  0
  183.4270  177.5130  140.1690 N   0  0  0  0  0  2  0  0  0  0  0  0
  184.4590  178.8750  138.5310 N   0  0  0  0  0  2  0  0  0  0  0  0
  180.3690  177.3990  137.0160 C   0  0  0  0  0  2  0  0  0  0  0  0
  180.7460  179.1720  135.3090 C   0  0  0  0  0  1  0  0  0  0  0  0
  181.7310  179.2630  137.5280 N   0  0  0  0  0  0  0  0  0  0  0  0
  180.5310  178.9040  136.7850 C   0  0  2  0  0  3  0  0  0  0  0  0
  182.2010  178.2100  138.0990 C   0  0  0  0  0  0  0  0  0  0  0  0
  181.4620  177.0720  137.8550 O   0  0  0  0  0  0  0  0  0  0  0  0
  190.8450  177.1580  137.9180 C   0  0  0  0  0  2  0  0  0  0  0  0
  190.0700  176.6190  136.7270 C   0  0  0  0  0  2  0  0  0  0  0  0
  188.8460  175.9780  137.1790 N   0  0  0  0  0  2  0  0  0  0  0  0
  187.8880  176.0520  136.0840 C   0  0  0  0  0  2  0  0  0  0  0  0
  186.7400  176.9750  136.4600 C   0  0  2  0  0  3  0  0  0  0  0  0
  182.0960  172.7380  136.0950 C   0  0  0  0  0  1  0  0  0  0  0  0
  184.5670  177.1300  135.2390 C   0  0  0  0  0  3  0  0  0  0  0  0
  183.8080  174.5790  136.0640 C   0  0  0  0  0  0  0  0  0  0  0  0
  185.0500  175.0980  136.4600 C   0  0  0  0  0  3  0  0  0  0  0  0
  182.9900  175.3370  135.2780 N   0  0  0  0  0  0  0  0  0  0  0  0
  185.4340  176.3800  136.0400 C   0  0  0  0  0  0  0  0  0  0  0  0
  183.3960  173.2630  136.4800 N   0  0  0  0  0  0  0  0  0  0  0  0
  183.3380  176.5860  134.8640 C   0  0  0  0  0  3  0  0  0  0  0  0
  184.2570  172.4200  137.2980 C   0  0  0  0  0  1  0  0  0  0  0  0
  186.9220  178.2830  135.8490 N   0  0  0  0  0  2  0  0  0  0  0  0
  187.5200  179.1030  136.8130 N   0  0  0  0  0  1  0  0  0  0  0  0
  2 35  1  6  0  0  0
  2 20  1  0  0  0  0
  2  6  1  0  0  0  0
  3  4  1  1  0  0  0
  3 16  1  0  0  0  0
  3  7  1  0  0  0  0
  6  5  1  1  0  0  0
  7 15  1  0  0  0  0
  8  7  1  0  0  0  0
  8 13  1  0  0  0  0
  9  1  1  0  0  0  0
  9 22  1  0  0  0  0
 10  1  2  0  0  0  0
 11  5  1  0  0  0  0
 11 16  2  0  0  0  0
 12 10  1  0  0  0  0
 13 14  2  0  0  0  0
 14 23  1  0  0  0  0
 14 12  1  0  0  0  0
 15 17  1  0  0  0  0
 16 18  1  0  0  0  0
 17 12  2  0  0  0  0
 17 19  1  0  0  0  0
 18 15  1  0  0  0  0
 19  9  2  0  0  0  0
 20  6  1  0  0  0  0
 20 11  1  0  0  0  0
 22 21  1  0  0  0  0
 24 23  1  0  0  0  0
 25  8  1  0  0  0  0
 26 27  1  0  0  0  0
 27 25  1  0  0  0  0
 28 26  2  0  0  0  0
 29 34  1  0  0  0  0
 30 32  1  0  0  0  0
 31 33  2  0  0  0  0
 32 29  1  0  0  0  0
 32 31  1  0  0  0  0
 33 26  1  0  0  0  0
 34 33  1  0  0  0  0
 36 37  1  0  0  0  0
 36 35  1  0  0  0  0
 38 39  1  0  0  0  0
 38 37  1  0  0  0  0
 40 46  1  0  0  0  0
 41 45  1  0  0  0  0
 42 43  1  0  0  0  0
 42 46  1  0  0  0  0
 44 42  2  0  0  0  0
 45 43  2  0  0  0  0
 45 39  1  0  0  0  0
 46 48  1  0  0  0  0
 47 41  2  0  0  0  0
 47 44  1  0  0  0  0
 49 39  1  0  0  0  0
 49 50  1  0  0  0  0
M  END
>  <MODEL>
4

>  <REMARK>
 VINA RESULT:      -5.7      2.255      3.219
  Name = 
  12 active torsions:
  status: ('A' for Active; 'I' for Inactive)
    1  A    between atoms: C_2  and  C_42
    2  A    between atoms: N_6  and  C_16
    3  A    between atoms: C_8  and  C_44
    4  A    between atoms: N_9  and  C_25
    5  A    between atoms: C_10  and  N_19
    6  A    between atoms: C_10  and  C_29
    7  A    between atoms: O_14  and  C_31
    8  A    between atoms: C_15  and  C_25
    9  A    between atoms: N_19  and  C_20
   10  A    between atoms: C_20  and  C_42
   11  A    between atoms: N_23  and  C_29
   12  A    between atoms: C_29  and  C_37
                            x       y       z     vdW  Elec       q    Type
                         _______ _______ _______ _____ _____    ______ ____

>  <TORSDO>
F 12

$$$$
=
 OpenBabel10232410363D

 50 56  0  0  1  0  0  0  0  0999 V2000
  185.6340  178.4090  147.3770 C   0  0  0  0  0  3  0  0  0  0  0  0
  190.1390  176.7240  139.0530 C   0  0  1  0  0  3  0  0  0  0  0  0
  187.3050  178.8080  141.4490 C   0  0  2  0  0  3  0  0  0  0  0  0
  188.0470  180.1340  141.4640 C   0  0  0  0  0  1  0  0  0  0  0  0
  190.5340  175.9970  141.6000 S   0  0  0  0  0  0  0  0  0  0  0  0
  191.1970  176.7380  140.1350 C   0  0  2  0  0  3  0  0  0  0  0  0
  186.2450  178.8420  142.4630 N   0  0  1  0  0  0  0  0  0  0  0  0
  184.9230  178.8790  141.8450 C   0  0  2  0  0  3  0  0  0  0  0  0
  186.8010  177.7560  146.9870 C   0  0  0  0  0  0  0  0  0  0  0  0
  184.6990  178.8030  146.4200 C   0  0  0  0  0  3  0  0  0  0  0  0
  189.3260  177.3320  141.3210 C   0  0  0  0  0  0  0  0  0  0  0  0
  184.8990  178.5660  145.0490 C   0  0  0  0  0  0  0  0  0  0  0  0
  183.8730  179.1590  142.8280 N   0  0  0  0  0  0  0  0  0  0  0  0
  183.7970  179.0290  144.1330 C   0  0  0  0  0  0  0  0  0  0  0  0
  186.3600  177.6010  143.2300 C   0  0  2  0  0  3  0  0  0  0  0  0
  188.1900  177.7080  141.8960 C   0  0  0  0  0  0  0  0  0  0  0  0
  186.0880  177.8990  144.6600 C   0  0  0  0  0  0  0  0  0  0  0  0
  187.6510  177.0740  142.9870 O   0  0  0  0  0  0  0  0  0  0  0  0
  187.0200  177.4990  145.6310 C   0  0  0  0  0  3  0  0  0  0  0  0
  190.1410  177.7900  140.1280 C   0  0  2  0  0  3  0  0  0  0  0  0
  188.8720  178.2060  148.3770 C   0  0  0  0  0  1  0  0  0  0  0  0
  187.7530  177.3670  147.9800 N   0  0  0  0  0  2  0  0  0  0  0  0
  182.5900  179.3810  144.7500 O   0  0  0  0  0  0  0  0  0  0  0  0
  181.3320  178.8910  144.3120 C   0  0  0  0  0  1  0  0  0  0  0  0
  184.5880  177.6300  141.0110 C   0  0  0  0  0  2  0  0  0  0  0  0
  183.5080  179.0130  139.1810 C   0  0  0  0  0  0  0  0  0  0  0  0
  183.5000  177.9010  140.0830 N   0  0  0  0  0  2  0  0  0  0  0  0
  184.4600  179.8890  139.2270 N   0  0  0  0  0  2  0  0  0  0  0  0
  181.1190  178.7190  136.3880 C   0  0  0  0  0  2  0  0  0  0  0  0
  180.7370  181.1740  136.2230 C   0  0  0  0  0  1  0  0  0  0  0  0
  181.5620  180.1120  138.2460 N   0  0  0  0  0  0  0  0  0  0  0  0
  180.6350  179.9660  137.1330 C   0  0  2  0  0  3  0  0  0  0  0  0
  182.4250  179.1590  138.2020 C   0  0  0  0  0  0  0  0  0  0  0  0
  182.2370  178.2920  137.1450 O   0  0  0  0  0  0  0  0  0  0  0  0
  190.7280  177.2880  137.7750 C   0  0  0  0  0  2  0  0  0  0  0  0
  191.5640  176.2270  137.0770 C   0  0  0  0  0  2  0  0  0  0  0  0
  190.7610  175.0400  136.8340 N   0  0  0  0  0  2  0  0  0  0  0  0
  190.4880  174.9860  135.4040 C   0  0  0  0  0  2  0  0  0  0  0  0
  189.2480  174.1460  135.1440 C   0  0  2  0  0  3  0  0  0  0  0  0
  183.6660  174.9990  137.9300 C   0  0  0  0  0  1  0  0  0  0  0  0
  187.9090  176.2430  135.3670 C   0  0  0  0  0  3  0  0  0  0  0  0
  185.8780  174.9170  136.7390 C   0  0  0  0  0  0  0  0  0  0  0  0
  187.0040  174.2030  136.3010 C   0  0  0  0  0  3  0  0  0  0  0  0
  185.7980  176.2560  136.4840 N   0  0  0  0  0  0  0  0  0  0  0  0
  188.0230  174.8700  135.6060 C   0  0  0  0  0  0  0  0  0  0  0  0
  184.8180  174.2530  137.4500 N   0  0  0  0  0  0  0  0  0  0  0  0
  186.7780  176.9250  135.8170 C   0  0  0  0  0  3  0  0  0  0  0  0
  184.8620  172.8210  137.7170 C   0  0  0  0  0  1  0  0  0  0  0  0
  189.3590  172.8590  135.8140 N   0  0  0  0  0  2  0  0  0  0  0  0
  189.7570  171.9290  134.8460 N   0  0  0  0  0  1  0  0  0  0  0  0
  2 35  1  6  0  0  0
  2 20  1  0  0  0  0
  2  6  1  0  0  0  0
  3  4  1  1  0  0  0
  3 16  1  0  0  0  0
  3  7  1  0  0  0  0
  6  5  1  1  0  0  0
  7 15  1  0  0  0  0
  8  7  1  0  0  0  0
  8 13  1  0  0  0  0
  9  1  1  0  0  0  0
  9 22  1  0  0  0  0
 10  1  2  0  0  0  0
 11  5  1  0  0  0  0
 11 16  2  0  0  0  0
 12 10  1  0  0  0  0
 13 14  2  0  0  0  0
 14 23  1  0  0  0  0
 14 12  1  0  0  0  0
 15 17  1  0  0  0  0
 16 18  1  0  0  0  0
 17 12  2  0  0  0  0
 17 19  1  0  0  0  0
 18 15  1  0  0  0  0
 19  9  2  0  0  0  0
 20  6  1  0  0  0  0
 20 11  1  0  0  0  0
 22 21  1  0  0  0  0
 24 23  1  0  0  0  0
 25  8  1  0  0  0  0
 26 28  2  0  0  0  0
 26 27  1  0  0  0  0
 27 25  1  0  0  0  0
 29 32  1  0  0  0  0
 29 34  1  0  0  0  0
 30 32  1  0  0  0  0
 32 31  1  0  0  0  0
 33 31  2  0  0  0  0
 33 26  1  0  0  0  0
 34 33  1  0  0  0  0
 36 35  1  0  0  0  0
 37 36  1  0  0  0  0
 38 37  1  0  0  0  0
 39 38  1  0  0  0  0
 39 45  1  0  0  0  0
 39 49  1  0  0  0  0
 41 45  2  0  0  0  0
 41 47  1  0  0  0  0
 42 46  1  0  0  0  0
 43 42  2  0  0  0  0
 44 42  1  0  0  0  0
 45 43  1  0  0  0  0
 46 48  1  0  0  0  0
 46 40  1  0  0  0  0
 47 44  2  0  0  0  0
 50 49  1  0  0  0  0
M  END
>  <MODEL>
5

>  <REMARK>
 VINA RESULT:      -5.6      2.060      3.592
  Name = 
  12 active torsions:
  status: ('A' for Active; 'I' for Inactive)
    1  A    between atoms: C_2  and  C_42
    2  A    between atoms: N_6  and  C_16
    3  A    between atoms: C_8  and  C_44
    4  A    between atoms: N_9  and  C_25
    5  A    between atoms: C_10  and  N_19
    6  A    between atoms: C_10  and  C_29
    7  A    between atoms: O_14  and  C_31
    8  A    between atoms: C_15  and  C_25
    9  A    between atoms: N_19  and  C_20
   10  A    between atoms: C_20  and  C_42
   11  A    between atoms: N_23  and  C_29
   12  A    between atoms: C_29  and  C_37
                            x       y       z     vdW  Elec       q    Type
                         _______ _______ _______ _____ _____    ______ ____

>  <TORSDO>
F 12

$$$$
=
 OpenBabel10232410363D

 50 56  0  0  1  0  0  0  0  0999 V2000
  185.5740  178.5480  147.2970 C   0  0  0  0  0  3  0  0  0  0  0  0
  190.1790  176.7350  139.0560 C   0  0  1  0  0  3  0  0  0  0  0  0
  187.2490  178.7860  141.3620 C   0  0  2  0  0  3  0  0  0  0  0  0
  187.9330  180.1420  141.3260 C   0  0  0  0  0  1  0  0  0  0  0  0
  190.5950  176.1270  141.6300 S   0  0  0  0  0  0  0  0  0  0  0  0
  191.2320  176.8370  140.1380 C   0  0  2  0  0  3  0  0  0  0  0  0
  186.1850  178.8130  142.3710 N   0  0  1  0  0  0  0  0  0  0  0  0
  184.8650  178.7690  141.7500 C   0  0  2  0  0  3  0  0  0  0  0  0
  186.7700  177.9310  146.9360 C   0  0  0  0  0  0  0  0  0  0  0  0
  184.6260  178.8630  146.3240 C   0  0  0  0  0  3  0  0  0  0  0  0
  189.3320  177.3950  141.2960 C   0  0  0  0  0  0  0  0  0  0  0  0
  184.8420  178.5810  144.9630 C   0  0  0  0  0  0  0  0  0  0  0  0
  183.8000  179.0420  142.7190 N   0  0  0  0  0  0  0  0  0  0  0  0
  183.7240  178.9590  144.0270 C   0  0  0  0  0  0  0  0  0  0  0  0
  186.3500  177.6100  143.1870 C   0  0  2  0  0  3  0  0  0  0  0  0
  188.1790  177.7440  141.8540 C   0  0  0  0  0  0  0  0  0  0  0  0
  186.0600  177.9520  144.6030 C   0  0  0  0  0  0  0  0  0  0  0  0
  187.6630  177.1300  142.9680 O   0  0  0  0  0  0  0  0  0  0  0  0
  187.0050  177.6310  145.5920 C   0  0  0  0  0  3  0  0  0  0  0  0
  190.1320  177.8410  140.0890 C   0  0  2  0  0  3  0  0  0  0  0  0
  189.1560  177.4930  147.6710 C   0  0  0  0  0  1  0  0  0  0  0  0
  187.7340  177.6230  147.9460 N   0  0  0  0  0  2  0  0  0  0  0  0
  182.5010  179.2830  144.6280 O   0  0  0  0  0  0  0  0  0  0  0  0
  181.2500  178.8910  144.0820 C   0  0  0  0  0  1  0  0  0  0  0  0
  184.5870  177.4750  140.9650 C   0  0  0  0  0  2  0  0  0  0  0  0
  183.7510  177.9480  138.6190 C   0  0  0  0  0  0  0  0  0  0  0  0
  183.5130  177.6710  140.0030 N   0  0  0  0  0  2  0  0  0  0  0  0
  184.9560  178.1340  138.1840 N   0  0  0  0  0  2  0  0  0  0  0  0
  181.2560  177.5040  135.9410 C   0  0  0  0  0  2  0  0  0  0  0  0
  180.7300  179.9320  135.7840 C   0  0  0  0  0  1  0  0  0  0  0  0
  181.7060  178.9320  137.7710 N   0  0  0  0  0  0  0  0  0  0  0  0
  180.7380  178.7260  136.7020 C   0  0  2  0  0  3  0  0  0  0  0  0
  182.6170  178.0270  137.6900 C   0  0  0  0  0  0  0  0  0  0  0  0
  182.4300  177.1450  136.6470 O   0  0  0  0  0  0  0  0  0  0  0  0
  190.7490  177.2730  137.7580 C   0  0  0  0  0  2  0  0  0  0  0  0
  191.0830  176.1230  136.8210 C   0  0  0  0  0  2  0  0  0  0  0  0
  192.4970  175.7990  136.9140 N   0  0  0  0  0  2  0  0  0  0  0  0
  193.0130  175.7160  135.5550 C   0  0  0  0  0  2  0  0  0  0  0  0
  194.5020  175.4090  135.5830 C   0  0  2  0  0  3  0  0  0  0  0  0
  194.9440  169.6280  138.0390 C   0  0  0  0  0  1  0  0  0  0  0  0
  195.3640  174.7170  137.8230 C   0  0  0  0  0  3  0  0  0  0  0  0
  194.8520  172.0290  137.2990 C   0  0  0  0  0  0  0  0  0  0  0  0
  194.5430  172.9980  136.3320 C   0  0  0  0  0  3  0  0  0  0  0  0
  195.4000  172.4230  138.4850 N   0  0  0  0  0  0  0  0  0  0  0  0
  194.7960  174.3520  136.5990 C   0  0  0  0  0  0  0  0  0  0  0  0
  194.5960  170.6350  137.0490 N   0  0  0  0  0  0  0  0  0  0  0  0
  195.6610  173.7300  138.7620 C   0  0  0  0  0  3  0  0  0  0  0  0
  193.9890  170.1850  135.8040 C   0  0  0  0  0  1  0  0  0  0  0  0
  195.2610  176.6160  135.8740 N   0  0  0  0  0  2  0  0  0  0  0  0
  195.0850  177.4810  134.7870 N   0  0  0  0  0  1  0  0  0  0  0  0
  2 35  1  6  0  0  0
  2 20  1  0  0  0  0
  2  6  1  0  0  0  0
  3  4  1  1  0  0  0
  3 16  1  0  0  0  0
  3  7  1  0  0  0  0
  6  5  1  1  0  0  0
  7 15  1  0  0  0  0
  8  7  1  0  0  0  0
  8 13  1  0  0  0  0
  9  1  1  0  0  0  0
  9 22  1  0  0  0  0
 10  1  2  0  0  0  0
 11  5  1  0  0  0  0
 11 16  2  0  0  0  0
 12 10  1  0  0  0  0
 13 14  2  0  0  0  0
 14 23  1  0  0  0  0
 14 12  1  0  0  0  0
 15 17  1  0  0  0  0
 16 18  1  0  0  0  0
 17 12  2  0  0  0  0
 17 19  1  0  0  0  0
 18 15  1  0  0  0  0
 19  9  2  0  0  0  0
 20  6  1  0  0  0  0
 20 11  1  0  0  0  0
 21 22  1  0  0  0  0
 24 23  1  0  0  0  0
 25  8  1  0  0  0  0
 26 27  1  0  0  0  0
 27 25  1  0  0  0  0
 28 26  2  0  0  0  0
 29 34  1  0  0  0  0
 29 32  1  0  0  0  0
 30 32  1  0  0  0  0
 32 31  1  0  0  0  0
 33 31  2  0  0  0  0
 33 26  1  0  0  0  0
 34 33  1  0  0  0  0
 36 37  1  0  0  0  0
 36 35  1  0  0  0  0
 38 39  1  0  0  0  0
 38 37  1  0  0  0  0
 39 49  1  0  0  0  0
 39 45  1  0  0  0  0
 41 47  1  0  0  0  0
 42 44  1  0  0  0  0
 43 45  1  0  0  0  0
 43 42  2  0  0  0  0
 44 47  2  0  0  0  0
 45 41  2  0  0  0  0
 46 42  1  0  0  0  0
 46 40  1  0  0  0  0
 48 46  1  0  0  0  0
 50 49  1  0  0  0  0
M  END
>  <MODEL>
6

>  <REMARK>
 VINA RESULT:      -5.3      3.913      5.414
  Name = 
  12 active torsions:
  status: ('A' for Active; 'I' for Inactive)
    1  A    between atoms: C_2  and  C_42
    2  A    between atoms: N_6  and  C_16
    3  A    between atoms: C_8  and  C_44
    4  A    between atoms: N_9  and  C_25
    5  A    between atoms: C_10  and  N_19
    6  A    between atoms: C_10  and  C_29
    7  A    between atoms: O_14  and  C_31
    8  A    between atoms: C_15  and  C_25
    9  A    between atoms: N_19  and  C_20
   10  A    between atoms: C_20  and  C_42
   11  A    between atoms: N_23  and  C_29
   12  A    between atoms: C_29  and  C_37
                            x       y       z     vdW  Elec       q    Type
                         _______ _______ _______ _____ _____    ______ ____

>  <TORSDO>
F 12

$$$$
=
 OpenBabel10232410363D

 50 56  0  0  1  0  0  0  0  0999 V2000
  182.6060  176.5100  134.3460 C   0  0  0  0  0  3  0  0  0  0  0  0
  183.5390  178.5930  143.6840 C   0  0  1  0  0  3  0  0  0  0  0  0
  184.6520  179.0220  139.5990 C   0  0  2  0  0  3  0  0  0  0  0  0
  184.1400  180.4440  139.4390 C   0  0  0  0  0  1  0  0  0  0  0  0
  181.7070  177.3210  142.2030 S   0  0  0  0  0  0  0  0  0  0  0  0
  182.0580  178.6010  143.3750 C   0  0  2  0  0  3  0  0  0  0  0  0
  184.9430  178.4650  138.2730 N   0  0  1  0  0  0  0  0  0  0  0  0
  186.3790  178.2980  138.0730 C   0  0  2  0  0  3  0  0  0  0  0  0
  181.8230  176.3530  135.4880 C   0  0  0  0  0  0  0  0  0  0  0  0
  183.9470  176.8750  134.4610 C   0  0  0  0  0  3  0  0  0  0  0  0
  182.9580  178.2790  141.2900 C   0  0  0  0  0  0  0  0  0  0  0  0
  184.5470  177.1010  135.7120 C   0  0  0  0  0  0  0  0  0  0  0  0
  186.6990  177.9790  136.6790 N   0  0  0  0  0  0  0  0  0  0  0  0
  186.0070  177.4700  135.6850 C   0  0  0  0  0  0  0  0  0  0  0  0
  184.3150  177.1450  138.2250 C   0  0  2  0  0  3  0  0  0  0  0  0
  183.5870  178.1390  140.1290 C   0  0  0  0  0  0  0  0  0  0  0  0
  183.7440  176.9380  136.8700 C   0  0  0  0  0  0  0  0  0  0  0  0
  183.3570  177.0970  139.2660 O   0  0  0  0  0  0  0  0  0  0  0  0
  182.3970  176.5620  136.7440 C   0  0  0  0  0  3  0  0  0  0  0  0
  183.0070  179.2670  142.4380 C   0  0  2  0  0  3  0  0  0  0  0  0
  179.9930  174.6060  135.3270 C   0  0  0  0  0  1  0  0  0  0  0  0
  180.4470  175.9870  135.3510 N   0  0  0  0  0  2  0  0  0  0  0  0
  186.6680  177.2760  134.4660 O   0  0  0  0  0  0  0  0  0  0  0  0
  187.8390  176.4820  134.3470 C   0  0  0  0  0  1  0  0  0  0  0  0
  187.0310  177.2940  139.0390 C   0  0  0  0  0  2  0  0  0  0  0  0
  189.4660  176.8740  138.4700 C   0  0  0  0  0  0  0  0  0  0  0  0
  188.0790  176.5350  138.3710 N   0  0  0  0  0  2  0  0  0  0  0  0
  189.8370  177.9470  139.0920 N   0  0  0  0  0  2  0  0  0  0  0  0
  192.3770  175.3710  136.7780 C   0  0  0  0  0  2  0  0  0  0  0  0
  191.0730  173.4680  135.8400 C   0  0  0  0  0  1  0  0  0  0  0  0
  190.3410  174.7200  137.7890 N   0  0  0  0  0  0  0  0  0  0  0  0
  191.5050  174.1590  137.1180 C   0  0  2  0  0  3  0  0  0  0  0  0
  190.4710  175.9980  137.8560 C   0  0  0  0  0  0  0  0  0  0  0  0
  191.6380  176.4650  137.2890 O   0  0  0  0  0  0  0  0  0  0  0  0
  183.8310  179.6370  144.7450 C   0  0  0  0  0  2  0  0  0  0  0  0
  184.1590  178.9590  146.0650 C   0  0  0  0  0  2  0  0  0  0  0  0
  185.4720  179.3800  146.5270 N   0  0  0  0  0  2  0  0  0  0  0  0
  186.2520  178.1740  146.7740 C   0  0  0  0  0  2  0  0  0  0  0  0
  187.7290  178.4580  146.5530 C   0  0  2  0  0  3  0  0  0  0  0  0
  191.6210  177.1460  141.7810 C   0  0  0  0  0  1  0  0  0  0  0  0
  187.2910  177.1100  144.4970 C   0  0  0  0  0  3  0  0  0  0  0  0
  189.8730  177.5440  143.5440 C   0  0  0  0  0  0  0  0  0  0  0  0
  189.4790  178.1070  144.7670 C   0  0  0  0  0  3  0  0  0  0  0  0
  188.9800  176.7900  142.8390 N   0  0  0  0  0  0  0  0  0  0  0  0
  188.1770  177.8930  145.2430 C   0  0  0  0  0  0  0  0  0  0  0  0
  191.2030  177.7540  143.0340 N   0  0  0  0  0  0  0  0  0  0  0  0
  187.7140  176.5630  143.2850 C   0  0  0  0  0  3  0  0  0  0  0  0
  192.1710  178.5740  143.7490 C   0  0  0  0  0  1  0  0  0  0  0  0
  188.5190  177.9020  147.6420 N   0  0  0  0  0  2  0  0  0  0  0  0
  187.6440  177.6950  148.7160 N   0  0  0  0  0  1  0  0  0  0  0  0
  1 10  2  0  0  0  0
  1  9  1  0  0  0  0
  2 35  1  1  0  0  0
  3  4  1  6  0  0  0
  3 16  1  0  0  0  0
  6  5  1  6  0  0  0
  6  2  1  0  0  0  0
  7  3  1  0  0  0  0
  8  7  1  0  0  0  0
  8 25  1  0  0  0  0
  9 19  2  0  0  0  0
 10 12  1  0  0  0  0
 11  5  1  0  0  0  0
 11 20  1  0  0  0  0
 12 17  2  0  0  0  0
 13  8  1  0  0  0  0
 14 12  1  0  0  0  0
 14 13  2  0  0  0  0
 15  7  1  0  0  0  0
 15 18  1  0  0  0  0
 16 11  2  0  0  0  0
 17 15  1  0  0  0  0
 18 16  1  0  0  0  0
 19 17  1  0  0  0  0
 20  6  1  0  0  0  0
 20  2  1  0  0  0  0
 21 22  1  0  0  0  0
 22  9  1  0  0  0  0
 23 14  1  0  0  0  0
 24 23  1  0  0  0  0
 26 28  2  0  0  0  0
 27 26  1  0  0  0  0
 27 25  1  0  0  0  0
 29 32  1  0  0  0  0
 29 34  1  0  0  0  0
 30 32  1  0  0  0  0
 31 33  2  0  0  0  0
 32 31  1  0  0  0  0
 33 26  1  0  0  0  0
 34 33  1  0  0  0  0
 35 36  1  0  0  0  0
 36 37  1  0  0  0  0
 37 38  1  0  0  0  0
 39 38  1  0  0  0  0
 39 49  1  0  0  0  0
 40 46  1  0  0  0  0
 41 45  1  0  0  0  0
 42 43  1  0  0  0  0
 43 45  2  0  0  0  0
 44 47  1  0  0  0  0
 44 42  2  0  0  0  0
 45 39  1  0  0  0  0
 46 42  1  0  0  0  0
 46 48  1  0  0  0  0
 47 41  2  0  0  0  0
 49 50  1  0  0  0  0
M  END
>  <MODEL>
7

>  <REMARK>
 VINA RESULT:      -5.0      3.195     10.025
  Name = 
  12 active torsions:
  status: ('A' for Active; 'I' for Inactive)
    1  A    between atoms: C_2  and  C_42
    2  A    between atoms: N_6  and  C_16
    3  A    between atoms: C_8  and  C_44
    4  A    between atoms: N_9  and  C_25
    5  A    between atoms: C_10  and  N_19
    6  A    between atoms: C_10  and  C_29
    7  A    between atoms: O_14  and  C_31
    8  A    between atoms: C_15  and  C_25
    9  A    between atoms: N_19  and  C_20
   10  A    between atoms: C_20  and  C_42
   11  A    between atoms: N_23  and  C_29
   12  A    between atoms: C_29  and  C_37
                            x       y       z     vdW  Elec       q    Type
                         _______ _______ _______ _____ _____    ______ ____

>  <TORSDO>
F 12

$$$$
=
 OpenBabel10232410363D

 50 56  0  0  1  0  0  0  0  0999 V2000
  185.3260  178.7800  147.0980 C   0  0  0  0  0  3  0  0  0  0  0  0
  190.1730  176.5940  139.0900 C   0  0  1  0  0  3  0  0  0  0  0  0
  187.1310  178.6950  141.1970 C   0  0  2  0  0  3  0  0  0  0  0  0
  187.7760  180.0670  141.0890 C   0  0  0  0  0  1  0  0  0  0  0  0
  190.5470  176.1620  141.7060 S   0  0  0  0  0  0  0  0  0  0  0  0
  191.1970  176.7960  140.1860 C   0  0  2  0  0  3  0  0  0  0  0  0
  186.0440  178.7530  142.1800 N   0  0  1  0  0  0  0  0  0  0  0  0
  184.7400  178.6290  141.5340 C   0  0  2  0  0  3  0  0  0  0  0  0
  186.5480  178.1790  146.8030 C   0  0  0  0  0  0  0  0  0  0  0  0
  184.3930  179.0040  146.0870 C   0  0  0  0  0  3  0  0  0  0  0  0
  189.2550  177.3670  141.2650 C   0  0  0  0  0  0  0  0  0  0  0  0
  184.6480  178.6430  144.7520 C   0  0  0  0  0  0  0  0  0  0  0  0
  183.6460  178.9300  142.4610 N   0  0  0  0  0  0  0  0  0  0  0  0
  183.5420  178.9280  143.7700 C   0  0  0  0  0  0  0  0  0  0  0  0
  186.2250  177.6090  143.0740 C   0  0  2  0  0  3  0  0  0  0  0  0
  188.0800  177.7150  141.7740 C   0  0  0  0  0  0  0  0  0  0  0  0
  185.8930  178.0310  144.4590 C   0  0  0  0  0  0  0  0  0  0  0  0
  187.5570  177.1570  142.9140 O   0  0  0  0  0  0  0  0  0  0  0  0
  186.8230  177.8020  145.4860 C   0  0  0  0  0  3  0  0  0  0  0  0
  190.0690  177.7600  140.0480 C   0  0  2  0  0  3  0  0  0  0  0  0
  188.2630  176.7370  147.9870 C   0  0  0  0  0  1  0  0  0  0  0  0
  187.4970  177.9650  147.8500 N   0  0  0  0  0  2  0  0  0  0  0  0
  182.2960  179.2500  144.3230 O   0  0  0  0  0  0  0  0  0  0  0  0
  181.0830  179.1540  143.5910 C   0  0  0  0  0  1  0  0  0  0  0  0
  184.5190  177.2800  140.8280 C   0  0  0  0  0  2  0  0  0  0  0  0
  183.7850  177.7180  138.4410 C   0  0  0  0  0  0  0  0  0  0  0  0
  183.4910  177.3920  139.8030 N   0  0  0  0  0  2  0  0  0  0  0  0
  184.9910  178.0260  138.0850 N   0  0  0  0  0  2  0  0  0  0  0  0
  180.9370  178.4410  136.2140 C   0  0  0  0  0  2  0  0  0  0  0  0
  180.1690  176.0740  136.1340 C   0  0  0  0  0  1  0  0  0  0  0  0
  182.4490  176.6910  136.7000 N   0  0  0  0  0  0  0  0  0  0  0  0
  181.3230  177.0100  135.8340 C   0  0  2  0  0  3  0  0  0  0  0  0
  182.7060  177.7070  137.4450 C   0  0  0  0  0  0  0  0  0  0  0  0
  181.8690  178.7800  137.2240 O   0  0  0  0  0  0  0  0  0  0  0  0
  190.7570  177.0660  137.7720 C   0  0  0  0  0  2  0  0  0  0  0  0
  189.7750  176.7980  136.6430 C   0  0  0  0  0  2  0  0  0  0  0  0
  190.4950  176.5620  135.4030 N   0  0  0  0  0  2  0  0  0  0  0  0
  190.1730  175.2100  134.9650 C   0  0  0  0  0  2  0  0  0  0  0  0
  190.6330  174.2040  136.0070 C   0  0  2  0  0  3  0  0  0  0  0  0
  195.7520  170.5740  135.4910 C   0  0  0  0  0  1  0  0  0  0  0  0
  192.9800  174.8680  135.4700 C   0  0  0  0  0  3  0  0  0  0  0  0
  193.8730  172.2360  135.6620 C   0  0  0  0  0  0  0  0  0  0  0  0
  192.5200  172.5300  135.8870 C   0  0  0  0  0  3  0  0  0  0  0  0
  194.7320  173.2500  135.3510 N   0  0  0  0  0  0  0  0  0  0  0  0
  192.0720  173.8560  135.7960 C   0  0  0  0  0  0  0  0  0  0  0  0
  194.3550  170.8830  135.7540 N   0  0  0  0  0  0  0  0  0  0  0  0
  194.3180  174.5430  135.2500 C   0  0  0  0  0  3  0  0  0  0  0  0
  193.4700  169.7820  136.1080 C   0  0  0  0  0  1  0  0  0  0  0  0
  189.8080  173.0060  135.9520 N   0  0  0  0  0  2  0  0  0  0  0  0
  188.8090  173.1540  136.9220 N   0  0  0  0  0  1  0  0  0  0  0  0
  2 35  1  6  0  0  0
  2 20  1  0  0  0  0
  2  6  1  0  0  0  0
  3  4  1  1  0  0  0
  3 16  1  0  0  0  0
  3  7  1  0  0  0  0
  6  5  1  1  0  0  0
  7 15  1  0  0  0  0
  8  7  1  0  0  0  0
  8 13  1  0  0  0  0
  9  1  1  0  0  0  0
  9 22  1  0  0  0  0
 10  1  2  0  0  0  0
 11  5  1  0  0  0  0
 11 16  2  0  0  0  0
 12 10  1  0  0  0  0
 13 14  2  0  0  0  0
 14 23  1  0  0  0  0
 14 12  1  0  0  0  0
 15 17  1  0  0  0  0
 16 18  1  0  0  0  0
 17 12  2  0  0  0  0
 17 19  1  0  0  0  0
 18 15  1  0  0  0  0
 19  9  2  0  0  0  0
 20  6  1  0  0  0  0
 20 11  1  0  0  0  0
 22 21  1  0  0  0  0
 24 23  1  0  0  0  0
 25  8  1  0  0  0  0
 26 27  1  0  0  0  0
 27 25  1  0  0  0  0
 28 26  2  0  0  0  0
 29 34  1  0  0  0  0
 31 33  2  0  0  0  0
 32 30  1  0  0  0  0
 32 29  1  0  0  0  0
 32 31  1  0  0  0  0
 33 26  1  0  0  0  0
 34 33  1  0  0  0  0
 36 35  1  0  0  0  0
 37 36  1  0  0  0  0
 38 37  1  0  0  0  0
 38 39  1  0  0  0  0
 40 46  1  0  0  0  0
 41 45  1  0  0  0  0
 42 46  1  0  0  0  0
 42 43  1  0  0  0  0
 44 42  2  0  0  0  0
 45 43  2  0  0  0  0
 45 39  1  0  0  0  0
 46 48  1  0  0  0  0
 47 44  1  0  0  0  0
 47 41  2  0  0  0  0
 49 39  1  0  0  0  0
 49 50  1  0  0  0  0
M  END
>  <MODEL>
8

>  <REMARK>
 VINA RESULT:      -4.0      3.095      4.641
  Name = 
  12 active torsions:
  status: ('A' for Active; 'I' for Inactive)
    1  A    between atoms: C_2  and  C_42
    2  A    between atoms: N_6  and  C_16
    3  A    between atoms: C_8  and  C_44
    4  A    between atoms: N_9  and  C_25
    5  A    between atoms: C_10  and  N_19
    6  A    between atoms: C_10  and  C_29
    7  A    between atoms: O_14  and  C_31
    8  A    between atoms: C_15  and  C_25
    9  A    between atoms: N_19  and  C_20
   10  A    between atoms: C_20  and  C_42
   11  A    between atoms: N_23  and  C_29
   12  A    between atoms: C_29  and  C_37
                            x       y       z     vdW  Elec       q    Type
                         _______ _______ _______ _____ _____    ______ ____

>  <TORSDO>
F 12

$$$$
=
 OpenBabel10232410363D

 50 56  0  0  1  0  0  0  0  0999 V2000
  190.2480  176.2420  134.3460 C   0  0  0  0  0  3  0  0  0  0  0  0
  191.3810  176.5940  143.8860 C   0  0  1  0  0  3  0  0  0  0  0  0
  192.7950  177.0920  139.9030 C   0  0  2  0  0  3  0  0  0  0  0  0
  192.8640  178.6090  139.9420 C   0  0  0  0  0  1  0  0  0  0  0  0
  189.2890  176.3140  142.2370 S   0  0  0  0  0  0  0  0  0  0  0  0
  190.0300  177.2030  143.5770 C   0  0  2  0  0  3  0  0  0  0  0  0
  192.9280  176.6420  138.5130 N   0  0  1  0  0  0  0  0  0  0  0  0
  194.2060  175.9700  138.2940 C   0  0  2  0  0  3  0  0  0  0  0  0
  189.4020  176.2480  135.4530 C   0  0  0  0  0  0  0  0  0  0  0  0
  191.6190  176.0530  134.5140 C   0  0  0  0  0  3  0  0  0  0  0  0
  190.8560  176.8360  141.4690 C   0  0  0  0  0  0  0  0  0  0  0  0
  192.1910  175.8720  135.7850 C   0  0  0  0  0  0  0  0  0  0  0  0
  194.4580  175.7370  136.8690 N   0  0  0  0  0  0  0  0  0  0  0  0
  193.6820  175.6600  135.8130 C   0  0  0  0  0  0  0  0  0  0  0  0
  191.8550  175.6760  138.2790 C   0  0  2  0  0  3  0  0  0  0  0  0
  191.4500  176.6180  140.3020 C   0  0  0  0  0  0  0  0  0  0  0  0
  191.3240  175.8770  136.9070 C   0  0  0  0  0  0  0  0  0  0  0  0
  190.8930  175.8620  139.3020 O   0  0  0  0  0  0  0  0  0  0  0  0
  189.9430  176.0600  136.7270 C   0  0  0  0  0  3  0  0  0  0  0  0
  191.2090  177.5740  142.7450 C   0  0  2  0  0  3  0  0  0  0  0  0
  187.1450  177.0650  136.2670 C   0  0  0  0  0  1  0  0  0  0  0  0
  187.9990  176.4510  135.2640 N   0  0  0  0  0  2  0  0  0  0  0  0
  194.2880  175.3890  134.5800 O   0  0  0  0  0  0  0  0  0  0  0  0
  195.5580  174.7630  134.4710 C   0  0  0  0  0  1  0  0  0  0  0  0
  194.3800  174.6780  139.1110 C   0  0  0  0  0  2  0  0  0  0  0  0
  195.7350  172.9600  137.8310 C   0  0  0  0  0  0  0  0  0  0  0  0
  194.4810  173.5190  138.2360 N   0  0  0  0  0  2  0  0  0  0  0  0
  196.8470  173.5350  138.1580 N   0  0  0  0  0  2  0  0  0  0  0  0
  196.3260  170.2660  135.3840 C   0  0  0  0  0  2  0  0  0  0  0  0
  194.0080  169.3710  135.5440 C   0  0  0  0  0  1  0  0  0  0  0  0
  195.0170  170.7070  137.3030 N   0  0  0  0  0  0  0  0  0  0  0  0
  195.2760  169.6640  136.3210 C   0  0  2  0  0  3  0  0  0  0  0  0
  195.7540  171.7270  137.0350 C   0  0  0  0  0  0  0  0  0  0  0  0
  196.5560  171.5530  135.9260 O   0  0  0  0  0  0  0  0  0  0  0  0
  191.9830  177.3040  145.0820 C   0  0  0  0  0  2  0  0  0  0  0  0
  191.3850  176.7560  146.3680 C   0  0  0  0  0  2  0  0  0  0  0  0
  189.9740  176.4630  146.1740 N   0  0  0  0  0  2  0  0  0  0  0  0
  189.2280  177.6610  146.5350 C   0  0  0  0  0  2  0  0  0  0  0  0
  187.9150  177.2750  147.1970 C   0  0  2  0  0  3  0  0  0  0  0  0
  184.6290  179.1710  142.1720 C   0  0  0  0  0  1  0  0  0  0  0  0
  185.5690  178.1240  147.0860 C   0  0  0  0  0  3  0  0  0  0  0  0
  185.7290  178.4920  144.3280 C   0  0  0  0  0  0  0  0  0  0  0  0
  186.8390  177.9990  145.0310 C   0  0  0  0  0  3  0  0  0  0  0  0
  184.5840  178.7840  145.0120 N   0  0  0  0  0  0  0  0  0  0  0  0
  186.7600  177.8200  146.4190 C   0  0  0  0  0  0  0  0  0  0  0  0
  185.7900  178.6890  142.9040 N   0  0  0  0  0  0  0  0  0  0  0  0
  184.4830  178.6100  146.3590 C   0  0  0  0  0  3  0  0  0  0  0  0
  187.0040  178.4110  142.1490 C   0  0  0  0  0  1  0  0  0  0  0  0
  187.8780  177.7620  148.5680 N   0  0  0  0  0  2  0  0  0  0  0  0
  188.8280  178.7860  148.6630 N   0  0  0  0  0  1  0  0  0  0  0  0
  1 10  2  0  0  0  0
  1  9  1  0  0  0  0
  2 35  1  1  0  0  0
  3  4  1  6  0  0  0
  3 16  1  0  0  0  0
  6  5  1  6  0  0  0
  6  2  1  0  0  0  0
  7  3  1  0  0  0  0
  8  7  1  0  0  0  0
  8 25  1  0  0  0  0
  9 19  2  0  0  0  0
 10 12  1  0  0  0  0
 11  5  1  0  0  0  0
 11 20  1  0  0  0  0
 12 14  1  0  0  0  0
 12 17  2  0  0  0  0
 13  8  1  0  0  0  0
 14 13  2  0  0  0  0
 15  7  1  0  0  0  0
 15 18  1  0  0  0  0
 16 11  2  0  0  0  0
 17 15  1  0  0  0  0
 18 16  1  0  0  0  0
 19 17  1  0  0  0  0
 20  6  1  0  0  0  0
 20  2  1  0  0  0  0
 22  9  1  0  0  0  0
 22 21  1  0  0  0  0
 23 14  1  0  0  0  0
 24 23  1  0  0  0  0
 26 28  2  0  0  0  0
 26 27  1  0  0  0  0
 27 25  1  0  0  0  0
 29 34  1  0  0  0  0
 29 32  1  0  0  0  0
 30 32  1  0  0  0  0
 32 31  1  0  0  0  0
 33 31  2  0  0  0  0
 33 26  1  0  0  0  0
 34 33  1  0  0  0  0
 35 36  1  0  0  0  0
 37 36  1  0  0  0  0
 37 38  1  0  0  0  0
 38 39  1  0  0  0  0
 39 49  1  0  0  0  0
 40 46  1  0  0  0  0
 42 44  2  0  0  0  0
 42 43  1  0  0  0  0
 43 45  2  0  0  0  0
 44 47  1  0  0  0  0
 45 41  1  0  0  0  0
 45 39  1  0  0  0  0
 46 42  1  0  0  0  0
 47 41  2  0  0  0  0
 48 46  1  0  0  0  0
 49 50  1  0  0  0  0
M  END
>  <MODEL>
9

>  <REMARK>
 VINA RESULT:      -3.7      4.638     11.269
  Name = 
  12 active torsions:
  status: ('A' for Active; 'I' for Inactive)
    1  A    between atoms: C_2  and  C_42
    2  A    between atoms: N_6  and  C_16
    3  A    between atoms: C_8  and  C_44
    4  A    between atoms: N_9  and  C_25
    5  A    between atoms: C_10  and  N_19
    6  A    between atoms: C_10  and  C_29
    7  A    between atoms: O_14  and  C_31
    8  A    between atoms: C_15  and  C_25
    9  A    between atoms: N_19  and  C_20
   10  A    between atoms: C_20  and  C_42
   11  A    between atoms: N_23  and  C_29
   12  A    between atoms: C_29  and  C_37
                            x       y       z     vdW  Elec       q    Type
                         _______ _______ _______ _____ _____    ______ ____

>  <TORSDO>
F 12

$$$$
