=
 OpenBabel10232411443D

 27 29  0  0  1  0  0  0  0  0999 V2000
  188.4960  178.2180  141.4850 N   0  0  0  0  0  0  0  0  0  0  0  0
  188.7400  177.6620  143.7900 C   0  0  0  0  0  2  0  0  0  0  0  0
  188.5260  177.5230  145.0410 C   0  0  0  0  0  0  0  0  0  0  0  0
  191.2220  177.3190  141.2890 O   0  0  0  0  0  0  0  0  0  0  0  0
  191.5580  176.2500  147.1720 C   0  0  0  0  0  3  0  0  0  0  0  0
  190.6670  177.2040  142.4130 C   0  0  0  0  0  0  0  0  0  0  0  0
  188.6980  177.3010  146.2850 C   0  0  0  0  0  0  0  0  0  0  0  0
  189.2610  177.7030  142.5910 C   0  0  2  0  0  3  0  0  0  0  0  0
  191.4430  176.5240  143.4930 C   0  0  0  0  0  3  0  0  0  0  0  0
  191.2820  176.8170  144.7830 C   0  0  0  0  0  3  0  0  0  0  0  0
  190.6220  177.3040  147.7260 C   0  0  0  0  0  2  0  0  0  0  0  0
  189.1590  177.0500  147.4750 C   0  0  0  0  0  2  0  0  0  0  0  0
  191.8680  176.0470  145.8810 C   0  0  0  0  0  3  0  0  0  0  0  0
  187.1080  178.3890  141.5980 N   0  0  0  0  0  0  0  0  0  0  0  0
  185.9320  178.4500  142.3660 C   0  0  0  0  0  0  0  0  0  0  0  0
  184.7540  178.9320  140.2630 C   0  0  0  0  0  3  0  0  0  0  0  0
  183.6680  178.7530  142.5820 C   0  0  0  0  0  0  0  0  0  0  0  0
  185.8610  178.6590  141.0070 C   0  0  0  0  0  0  0  0  0  0  0  0
  184.9080  178.4710  143.2640 C   0  0  0  0  0  3  0  0  0  0  0  0
  183.6060  178.9750  141.1310 C   0  0  0  0  0  3  0  0  0  0  0  0
  182.4640  178.7930  144.6260 O   0  0  0  0  0  1  0  0  0  0  0  0
  181.1960  178.9210  142.7280 O   0  0  0  0  0  0  0  0  0  0  0  0
  182.4260  178.8220  143.3680 C   0  0  0  0  0  0  0  0  0  0  0  0
  189.1580  178.6780  140.2700 C   0  0  0  0  0  2  0  0  0  0  0  0
  188.8010  176.7460  138.9210 O   0  0  0  0  0  1  0  0  0  0  0  0
  188.5990  177.9780  139.0780 C   0  0  0  0  0  0  0  0  0  0  0  0
  187.8830  178.6890  138.1250 O   0  0  0  0  0  0  0  0  0  0  0  0
  1 14  1  0  0  0  0
  2  3  1  0  0  0  0
  3  7  3  0  0  0  0
  4  6  2  0  0  0  0
  5 11  1  0  0  0  0
  6  8  1  0  0  0  0
  6  9  1  0  0  0  0
  7 12  1  0  0  0  0
  8  1  1  1  0  0  0
  8  2  1  0  0  0  0
  9 10  2  0  0  0  0
 10 13  1  0  0  0  0
 12 11  1  0  0  0  0
 13  5  2  0  0  0  0
 14 15  1  0  0  0  0
 15 19  1  0  0  0  0
 16 18  1  0  0  0  0
 16 20  2  0  0  0  0
 17 19  2  0  0  0  0
 17 23  1  0  0  0  0
 18 14  1  0  0  0  0
 18 15  2  0  0  0  0
 20 17  1  0  0  0  0
 22 23  2  0  0  0  0
 23 21  1  0  0  0  0
 24  1  1  0  0  0  0
 25 26  1  0  0  0  0
 26 24  1  0  0  0  0
 27 26  2  0  0  0  0
M  END
>  <MODEL>
1

>  <REMARK>
 VINA RESULT:      -9.0      0.000      0.000
  Name = 
  5 active torsions:
  status: ('A' for Active; 'I' for Inactive)
    1  A    between atoms: N_1  and  N_2
    2  A    between atoms: N_2  and  C_6
    3  A    between atoms: N_2  and  C_15
    4  A    between atoms: C_6  and  C_13
    5  A    between atoms: C_19  and  C_23
                            x       y       z     vdW  Elec       q    Type
                         _______ _______ _______ _____ _____    ______ ____

>  <TORSDO>
F 5

$$$$
=
 OpenBabel10232411443D

 27 29  0  0  1  0  0  0  0  0999 V2000
  189.8940  177.2580  142.9920 N   0  0  0  0  0  0  0  0  0  0  0  0
  187.5510  177.6660  143.1390 C   0  0  0  0  0  2  0  0  0  0  0  0
  186.3270  177.8720  142.8390 C   0  0  0  0  0  0  0  0  0  0  0  0
  189.8340  177.6360  145.8430 O   0  0  0  0  0  0  0  0  0  0  0  0
  183.9700  178.8470  145.8140 C   0  0  0  0  0  3  0  0  0  0  0  0
  188.7280  177.6710  145.2440 C   0  0  0  0  0  0  0  0  0  0  0  0
  185.0910  178.1760  142.9210 C   0  0  0  0  0  0  0  0  0  0  0  0
  188.6990  177.5300  143.7490 C   0  0  2  0  0  3  0  0  0  0  0  0
  187.4990  177.8020  146.0830 C   0  0  0  0  0  3  0  0  0  0  0  0
  186.3940  178.4060  145.6450 C   0  0  0  0  0  3  0  0  0  0  0  0
  183.8020  179.5000  144.4580 C   0  0  0  0  0  2  0  0  0  0  0  0
  183.9030  178.5640  143.2830 C   0  0  0  0  0  2  0  0  0  0  0  0
  185.1110  178.3840  146.3490 C   0  0  0  0  0  3  0  0  0  0  0  0
  189.8910  177.3630  141.5930 N   0  0  0  0  0  0  0  0  0  0  0  0
  189.3320  177.8400  140.3940 C   0  0  0  0  0  0  0  0  0  0  0  0
  191.1860  176.7080  139.2460 C   0  0  0  0  0  3  0  0  0  0  0  0
  189.3190  178.0520  138.1100 C   0  0  0  0  0  0  0  0  0  0  0  0
  190.4790  177.0810  140.3480 C   0  0  0  0  0  0  0  0  0  0  0  0
  188.6540  178.3870  139.3470 C   0  0  0  0  0  3  0  0  0  0  0  0
  190.5430  177.2410  138.0740 C   0  0  0  0  0  3  0  0  0  0  0  0
  187.9100  179.4810  136.8430 O   0  0  0  0  0  1  0  0  0  0  0  0
  189.1370  177.9770  135.6350 O   0  0  0  0  0  0  0  0  0  0  0  0
  188.7500  178.5440  136.8440 C   0  0  0  0  0  0  0  0  0  0  0  0
  191.1570  176.9780  143.6670 C   0  0  0  0  0  2  0  0  0  0  0  0
  192.2890  175.0620  144.5200 O   0  0  0  0  0  1  0  0  0  0  0  0
  191.3560  175.5060  143.8030 C   0  0  0  0  0  0  0  0  0  0  0  0
  190.5320  174.6260  143.1150 O   0  0  0  0  0  0  0  0  0  0  0  0
  1 24  1  0  0  0  0
  2  8  1  0  0  0  0
  3  7  3  0  0  0  0
  3  2  1  0  0  0  0
  5 13  2  0  0  0  0
  6  4  2  0  0  0  0
  6  9  1  0  0  0  0
  7 12  1  0  0  0  0
  8  1  1  6  0  0  0
  8  6  1  0  0  0  0
 10  9  2  0  0  0  0
 10 13  1  0  0  0  0
 11  5  1  0  0  0  0
 12 11  1  0  0  0  0
 14  1  1  0  0  0  0
 15 14  1  0  0  0  0
 16 18  2  0  0  0  0
 17 19  1  0  0  0  0
 18 15  1  0  0  0  0
 18 14  1  0  0  0  0
 19 15  2  0  0  0  0
 20 17  2  0  0  0  0
 20 16  1  0  0  0  0
 21 23  1  0  0  0  0
 22 23  2  0  0  0  0
 23 17  1  0  0  0  0
 24 26  1  0  0  0  0
 26 25  1  0  0  0  0
 27 26  2  0  0  0  0
M  END
>  <MODEL>
2

>  <REMARK>
 VINA RESULT:      -9.0      2.947      6.182
  Name = 
  5 active torsions:
  status: ('A' for Active; 'I' for Inactive)
    1  A    between atoms: N_1  and  N_2
    2  A    between atoms: N_2  and  C_6
    3  A    between atoms: N_2  and  C_15
    4  A    between atoms: C_6  and  C_13
    5  A    between atoms: C_19  and  C_23
                            x       y       z     vdW  Elec       q    Type
                         _______ _______ _______ _____ _____    ______ ____

>  <TORSDO>
F 5

$$$$
=
 OpenBabel10232411443D

 27 29  0  0  1  0  0  0  0  0999 V2000
  190.0400  177.5810  143.6160 N   0  0  0  0  0  0  0  0  0  0  0  0
  187.6870  177.8430  143.3470 C   0  0  0  0  0  2  0  0  0  0  0  0
  186.5240  177.9720  142.8350 C   0  0  0  0  0  0  0  0  0  0  0  0
  189.4620  177.9710  146.4070 O   0  0  0  0  0  0  0  0  0  0  0  0
  183.6300  178.8150  145.3390 C   0  0  0  0  0  3  0  0  0  0  0  0
  188.4760  177.9330  145.6250 C   0  0  0  0  0  0  0  0  0  0  0  0
  185.2760  178.1980  142.6970 C   0  0  0  0  0  0  0  0  0  0  0  0
  188.7180  177.7830  144.1490 C   0  0  2  0  0  3  0  0  0  0  0  0
  187.1150  177.9930  146.2350 C   0  0  0  0  0  3  0  0  0  0  0  0
  186.0690  178.5240  145.6020 C   0  0  0  0  0  3  0  0  0  0  0  0
  183.6620  179.4490  143.9640 C   0  0  0  0  0  2  0  0  0  0  0  0
  184.0230  178.5130  142.8410 C   0  0  0  0  0  2  0  0  0  0  0  0
  184.6860  178.4270  146.0720 C   0  0  0  0  0  3  0  0  0  0  0  0
  190.2330  177.3970  142.2390 N   0  0  0  0  0  0  0  0  0  0  0  0
  191.0690  177.1800  141.1290 C   0  0  0  0  0  0  0  0  0  0  0  0
  189.0220  177.1660  139.7690 C   0  0  0  0  0  3  0  0  0  0  0  0
  191.4100  176.8490  138.8840 C   0  0  0  0  0  0  0  0  0  0  0  0
  189.7080  177.2670  140.9410 C   0  0  0  0  0  0  0  0  0  0  0  0
  192.0270  176.9720  140.1830 C   0  0  0  0  0  3  0  0  0  0  0  0
  189.9560  176.9440  138.6970 C   0  0  0  0  0  3  0  0  0  0  0  0
  191.7770  176.1830  136.6370 O   0  0  0  0  0  0  0  0  0  0  0  0
  193.6300  176.8860  137.7760 O   0  0  0  0  0  1  0  0  0  0  0  0
  192.2670  176.6200  137.7110 C   0  0  0  0  0  0  0  0  0  0  0  0
  191.2140  177.6750  144.4770 C   0  0  0  0  0  2  0  0  0  0  0  0
  191.9780  176.0530  146.0480 O   0  0  0  0  0  1  0  0  0  0  0  0
  191.6930  176.3130  144.8500 C   0  0  0  0  0  0  0  0  0  0  0  0
  191.8550  175.3400  143.8730 O   0  0  0  0  0  0  0  0  0  0  0  0
  1 24  1  0  0  0  0
  2  8  1  0  0  0  0
  3  2  1  0  0  0  0
  5 13  2  0  0  0  0
  6  9  1  0  0  0  0
  6  4  2  0  0  0  0
  7  3  3  0  0  0  0
  7 12  1  0  0  0  0
  8  1  1  6  0  0  0
  8  6  1  0  0  0  0
 10 13  1  0  0  0  0
 10  9  2  0  0  0  0
 11  5  1  0  0  0  0
 12 11  1  0  0  0  0
 14  1  1  0  0  0  0
 15 14  1  0  0  0  0
 16 18  2  0  0  0  0
 17 19  1  0  0  0  0
 18 15  1  0  0  0  0
 18 14  1  0  0  0  0
 19 15  2  0  0  0  0
 20 17  2  0  0  0  0
 20 16  1  0  0  0  0
 21 23  2  0  0  0  0
 23 22  1  0  0  0  0
 23 17  1  0  0  0  0
 24 26  1  0  0  0  0
 26 25  1  0  0  0  0
 27 26  2  0  0  0  0
M  END
>  <MODEL>
3

>  <REMARK>
 VINA RESULT:      -8.7      3.044      7.021
  Name = 
  5 active torsions:
  status: ('A' for Active; 'I' for Inactive)
    1  A    between atoms: N_1  and  N_2
    2  A    between atoms: N_2  and  C_6
    3  A    between atoms: N_2  and  C_15
    4  A    between atoms: C_6  and  C_13
    5  A    between atoms: C_19  and  C_23
                            x       y       z     vdW  Elec       q    Type
                         _______ _______ _______ _____ _____    ______ ____

>  <TORSDO>
F 5

$$$$
=
 OpenBabel10232411443D

 27 29  0  0  1  0  0  0  0  0999 V2000
  188.6270  177.3520  145.4370 N   0  0  0  0  0  0  0  0  0  0  0  0
  188.9790  177.3960  143.0810 C   0  0  0  0  0  2  0  0  0  0  0  0
  188.7900  177.3730  141.8180 C   0  0  0  0  0  0  0  0  0  0  0  0
  191.5010  177.3890  145.5650 O   0  0  0  0  0  0  0  0  0  0  0  0
  192.0190  177.2590  139.6000 C   0  0  0  0  0  3  0  0  0  0  0  0
  190.9840  177.4710  144.4200 C   0  0  0  0  0  0  0  0  0  0  0  0
  188.9950  177.3110  140.5600 C   0  0  0  0  0  0  0  0  0  0  0  0
  189.4890  177.4060  144.2850 C   0  0  2  0  0  3  0  0  0  0  0  0
  191.9070  177.6800  143.2650 C   0  0  0  0  0  3  0  0  0  0  0  0
  191.6350  177.2300  142.0400 C   0  0  0  0  0  3  0  0  0  0  0  0
  190.7910  176.4650  139.2060 C   0  0  0  0  0  2  0  0  0  0  0  0
  189.4840  177.1970  139.3610 C   0  0  0  0  0  2  0  0  0  0  0  0
  192.4060  177.5800  140.8460 C   0  0  0  0  0  3  0  0  0  0  0  0
  187.2840  177.7460  145.3420 N   0  0  0  0  0  0  0  0  0  0  0  0
  186.1210  177.9850  144.5900 C   0  0  0  0  0  0  0  0  0  0  0  0
  185.0390  178.5740  146.7160 C   0  0  0  0  0  3  0  0  0  0  0  0
  183.9170  178.5980  144.4080 C   0  0  0  0  0  0  0  0  0  0  0  0
  186.0920  178.1700  145.9530 C   0  0  0  0  0  0  0  0  0  0  0  0
  185.1000  178.1630  143.7050 C   0  0  0  0  0  3  0  0  0  0  0  0
  183.8990  178.7920  145.8640 C   0  0  0  0  0  3  0  0  0  0  0  0
  181.5670  178.8650  144.2120 O   0  0  0  0  0  1  0  0  0  0  0  0
  182.7540  179.0840  142.2700 O   0  0  0  0  0  0  0  0  0  0  0  0
  182.6890  178.8530  143.6390 C   0  0  0  0  0  0  0  0  0  0  0  0
  189.0980  176.7820  146.6950 C   0  0  0  0  0  2  0  0  0  0  0  0
  189.2940  178.7710  147.9940 O   0  0  0  0  0  0  0  0  0  0  0  0
  188.7190  177.6640  147.8370 C   0  0  0  0  0  0  0  0  0  0  0  0
  187.7550  177.2490  148.7450 O   0  0  0  0  0  1  0  0  0  0  0  0
  1 24  1  0  0  0  0
  2  8  1  0  0  0  0
  3  2  1  0  0  0  0
  5 13  2  0  0  0  0
  6  4  2  0  0  0  0
  7  3  3  0  0  0  0
  8  6  1  0  0  0  0
  8  1  1  6  0  0  0
  9  6  1  0  0  0  0
 10  9  2  0  0  0  0
 11 12  1  0  0  0  0
 11  5  1  0  0  0  0
 12  7  1  0  0  0  0
 13 10  1  0  0  0  0
 14  1  1  0  0  0  0
 14 18  1  0  0  0  0
 15 14  1  0  0  0  0
 15 18  1  0  0  0  0
 17 20  2  0  0  0  0
 18 16  2  0  0  0  0
 19 17  1  0  0  0  0
 19 15  2  0  0  0  0
 20 16  1  0  0  0  0
 22 23  2  0  0  0  0
 23 21  1  0  0  0  0
 23 17  1  0  0  0  0
 24 26  1  0  0  0  0
 26 25  2  0  0  0  0
 26 27  1  0  0  0  0
M  END
>  <MODEL>
4

>  <REMARK>
 VINA RESULT:      -8.6      2.835      5.308
  Name = 
  5 active torsions:
  status: ('A' for Active; 'I' for Inactive)
    1  A    between atoms: N_1  and  N_2
    2  A    between atoms: N_2  and  C_6
    3  A    between atoms: N_2  and  C_15
    4  A    between atoms: C_6  and  C_13
    5  A    between atoms: C_19  and  C_23
                            x       y       z     vdW  Elec       q    Type
                         _______ _______ _______ _____ _____    ______ ____

>  <TORSDO>
F 5

$$$$
=
 OpenBabel10232411443D

 27 29  0  0  1  0  0  0  0  0999 V2000
  189.8350  177.6980  139.8170 N   0  0  0  0  0  0  0  0  0  0  0  0
  188.6040  177.4440  141.8420 C   0  0  0  0  0  2  0  0  0  0  0  0
  187.6520  177.3530  142.6880 C   0  0  0  0  0  0  0  0  0  0  0  0
  192.1250  177.6780  141.5590 O   0  0  0  0  0  0  0  0  0  0  0  0
  188.7080  177.2730  146.4610 C   0  0  0  0  0  3  0  0  0  0  0  0
  191.0020  177.4920  142.0980 C   0  0  0  0  0  0  0  0  0  0  0  0
  187.0030  177.3030  143.7850 C   0  0  0  0  0  0  0  0  0  0  0  0
  189.7640  177.5430  141.2470 C   0  0  2  0  0  3  0  0  0  0  0  0
  190.9860  177.1820  143.5580 C   0  0  0  0  0  3  0  0  0  0  0  0
  189.9700  177.5200  144.3510 C   0  0  0  0  0  3  0  0  0  0  0  0
  187.4680  178.0270  146.0290 C   0  0  0  0  0  2  0  0  0  0  0  0
  186.6070  177.3100  145.0230 C   0  0  0  0  0  2  0  0  0  0  0  0
  189.8190  177.0670  145.7340 C   0  0  0  0  0  3  0  0  0  0  0  0
  190.6380  176.8450  139.0470 N   0  0  0  0  0  0  0  0  0  0  0  0
  191.8850  176.4780  138.5100 C   0  0  0  0  0  0  0  0  0  0  0  0
  190.7310  174.5470  137.5200 C   0  0  0  0  0  3  0  0  0  0  0  0
  193.2280  175.0840  137.2780 C   0  0  0  0  0  0  0  0  0  0  0  0
  190.7840  175.6920  138.2560 C   0  0  0  0  0  0  0  0  0  0  0  0
  193.1630  176.2830  138.0800 C   0  0  0  0  0  3  0  0  0  0  0  0
  192.0460  174.2530  137.0150 C   0  0  0  0  0  3  0  0  0  0  0  0
  195.5980  175.1510  137.1690 O   0  0  0  0  0  1  0  0  0  0  0  0
  194.5760  173.7780  135.6530 O   0  0  0  0  0  0  0  0  0  0  0  0
  194.5240  174.6820  136.7080 C   0  0  0  0  0  0  0  0  0  0  0  0
  188.9890  178.6680  139.1290 C   0  0  0  0  0  2  0  0  0  0  0  0
  187.6520  177.1070  137.9240 O   0  0  0  0  0  0  0  0  0  0  0  0
  187.6850  178.0470  138.7580 C   0  0  0  0  0  0  0  0  0  0  0  0
  186.5040  178.5260  139.3090 O   0  0  0  0  0  1  0  0  0  0  0  0
  2  3  1  0  0  0  0
  3  7  3  0  0  0  0
  4  6  2  0  0  0  0
  6  9  1  0  0  0  0
  7 12  1  0  0  0  0
  8  1  1  1  0  0  0
  8  2  1  0  0  0  0
  8  6  1  0  0  0  0
  9 10  2  0  0  0  0
 10 13  1  0  0  0  0
 11  5  1  0  0  0  0
 12 11  1  0  0  0  0
 13  5  2  0  0  0  0
 14  1  1  0  0  0  0
 15 14  1  0  0  0  0
 16 18  2  0  0  0  0
 17 19  1  0  0  0  0
 18 15  1  0  0  0  0
 18 14  1  0  0  0  0
 19 15  2  0  0  0  0
 20 17  2  0  0  0  0
 20 16  1  0  0  0  0
 22 23  2  0  0  0  0
 23 21  1  0  0  0  0
 23 17  1  0  0  0  0
 24  1  1  0  0  0  0
 25 26  2  0  0  0  0
 26 24  1  0  0  0  0
 26 27  1  0  0  0  0
M  END
>  <MODEL>
5

>  <REMARK>
 VINA RESULT:      -8.5      3.445      6.955
  Name = 
  5 active torsions:
  status: ('A' for Active; 'I' for Inactive)
    1  A    between atoms: N_1  and  N_2
    2  A    between atoms: N_2  and  C_6
    3  A    between atoms: N_2  and  C_15
    4  A    between atoms: C_6  and  C_13
    5  A    between atoms: C_19  and  C_23
                            x       y       z     vdW  Elec       q    Type
                         _______ _______ _______ _____ _____    ______ ____

>  <TORSDO>
F 5

$$$$
=
 OpenBabel10232411443D

 27 29  0  0  1  0  0  0  0  0999 V2000
  189.4620  177.6660  141.1290 N   0  0  0  0  0  0  0  0  0  0  0  0
  188.3580  177.5590  143.2380 C   0  0  0  0  0  0  0  0  0  0  0  0
  187.4680  177.5950  144.1520 C   0  0  0  0  0  0  0  0  0  0  0  0
  191.8440  177.2720  142.6930 O   0  0  0  0  0  0  0  0  0  0  0  0
  188.7730  177.2870  147.8350 C   0  0  0  0  0  3  0  0  0  0  0  0
  190.7490  177.2450  143.3130 C   0  0  0  0  0  0  0  0  0  0  0  0
  186.9000  177.6210  145.2950 C   0  0  0  0  0  2  0  0  0  0  0  0
  189.4730  177.4960  142.5590 C   0  0  2  0  0  3  0  0  0  0  0  0
  190.7930  176.9130  144.7680 C   0  0  0  0  0  3  0  0  0  0  0  0
  189.8990  177.3840  145.6380 C   0  0  0  0  0  3  0  0  0  0  0  0
  187.6310  178.2250  147.5030 C   0  0  0  0  0  2  0  0  0  0  0  0
  186.6010  177.6630  146.5590 C   0  0  0  0  0  2  0  0  0  0  0  0
  189.7840  176.9310  147.0250 C   0  0  0  0  0  3  0  0  0  0  0  0
  188.2640  177.9460  140.4540 N   0  0  0  0  0  0  0  0  0  0  0  0
  186.9370  178.4110  140.4410 C   0  0  0  0  0  0  0  0  0  0  0  0
  186.9560  177.9630  138.0240 C   0  0  0  0  0  3  0  0  0  0  0  0
  184.9760  178.9050  139.3580 C   0  0  0  0  0  0  0  0  0  0  0  0
  187.5170  177.9920  139.2650 C   0  0  0  0  0  0  0  0  0  0  0  0
  185.6750  178.8910  140.6200 C   0  0  0  0  0  3  0  0  0  0  0  0
  185.6060  178.4550  138.1090 C   0  0  0  0  0  3  0  0  0  0  0  0
  182.6440  178.6560  139.7230 O   0  0  0  0  0  1  0  0  0  0  0  0
  183.3000  180.6630  138.8460 O   0  0  0  0  0  0  0  0  0  0  0  0
  183.5860  179.3890  139.3220 C   0  0  0  0  0  0  0  0  0  0  0  0
  190.7060  177.6630  140.3670 C   0  0  0  0  0  2  0  0  0  0  0  0
  190.4940  175.6010  139.1910 O   0  0  0  0  0  1  0  0  0  0  0  0
  190.5500  176.8560  139.1230 C   0  0  0  0  0  0  0  0  0  0  0  0
  190.5000  177.4850  137.8870 O   0  0  0  0  0  0  0  0  0  0  0  0
  2  3  3  0  0  0  0
  3  7  1  0  0  0  0
  4  6  2  0  0  0  0
  6  9  1  0  0  0  0
  7 12  1  0  0  0  0
  8  1  1  1  0  0  0
  8  2  1  0  0  0  0
  8  6  1  0  0  0  0
  9 10  2  0  0  0  0
 10 13  1  0  0  0  0
 11  5  1  0  0  0  0
 12 11  1  0  0  0  0
 13  5  2  0  0  0  0
 14  1  1  0  0  0  0
 15 14  1  0  0  0  0
 15 19  1  0  0  0  0
 16 20  2  0  0  0  0
 16 18  1  0  0  0  0
 17 19  2  0  0  0  0
 18 15  2  0  0  0  0
 18 14  1  0  0  0  0
 20 17  1  0  0  0  0
 22 23  2  0  0  0  0
 23 17  1  0  0  0  0
 23 21  1  0  0  0  0
 24  1  1  0  0  0  0
 26 25  1  0  0  0  0
 26 24  1  0  0  0  0
 27 26  2  0  0  0  0
M  END
>  <MODEL>
6

>  <REMARK>
 VINA RESULT:      -8.4      2.067      2.677
  Name = 
  5 active torsions:
  status: ('A' for Active; 'I' for Inactive)
    1  A    between atoms: N_1  and  N_2
    2  A    between atoms: N_2  and  C_6
    3  A    between atoms: N_2  and  C_15
    4  A    between atoms: C_6  and  C_13
    5  A    between atoms: C_19  and  C_23
                            x       y       z     vdW  Elec       q    Type
                         _______ _______ _______ _____ _____    ______ ____

>  <TORSDO>
F 5

$$$$
=
 OpenBabel10232411443D

 27 29  0  0  1  0  0  0  0  0999 V2000
  185.6920  178.8890  143.5280 N   0  0  0  0  0  0  0  0  0  0  0  0
  186.9740  178.4910  141.5580 C   0  0  0  0  0  0  0  0  0  0  0  0
  187.9460  178.3350  140.7460 C   0  0  0  0  0  0  0  0  0  0  0  0
  183.4500  178.7890  141.7270 O   0  0  0  0  0  0  0  0  0  0  0  0
  186.9920  178.0310  136.9580 C   0  0  0  0  0  3  0  0  0  0  0  0
  184.5840  178.5550  141.2330 C   0  0  0  0  0  0  0  0  0  0  0  0
  188.6250  178.2070  139.6730 C   0  0  0  0  0  2  0  0  0  0  0  0
  185.7990  178.6430  142.1130 C   0  0  2  0  0  3  0  0  0  0  0  0
  184.6350  178.1530  139.7960 C   0  0  0  0  0  3  0  0  0  0  0  0
  185.6780  178.4270  139.0120 C   0  0  0  0  0  3  0  0  0  0  0  0
  188.2310  178.7940  137.3760 C   0  0  0  0  0  2  0  0  0  0  0  0
  189.0540  178.1300  138.4490 C   0  0  0  0  0  2  0  0  0  0  0  0
  185.8590  177.8850  137.6640 C   0  0  0  0  0  3  0  0  0  0  0  0
  186.6760  178.4170  144.4090 N   0  0  0  0  0  0  0  0  0  0  0  0
  187.9960  178.0190  144.6840 C   0  0  0  0  0  0  0  0  0  0  0  0
  187.2560  177.6640  147.0010 C   0  0  0  0  0  3  0  0  0  0  0  0
  189.6310  177.2740  146.1110 C   0  0  0  0  0  0  0  0  0  0  0  0
  187.0660  178.0160  145.6990 C   0  0  0  0  0  0  0  0  0  0  0  0
  189.3110  177.6720  144.7610 C   0  0  0  0  0  3  0  0  0  0  0  0
  188.6290  177.2760  147.1860 C   0  0  0  0  0  3  0  0  0  0  0  0
  191.9740  177.2870  145.7370 O   0  0  0  0  0  0  0  0  0  0  0  0
  191.2560  175.9800  147.4700 O   0  0  0  0  0  1  0  0  0  0  0  0
  191.0080  176.8560  146.4200 C   0  0  0  0  0  0  0  0  0  0  0  0
  184.6240  179.7270  144.0600 C   0  0  0  0  0  2  0  0  0  0  0  0
  182.6870  178.4130  144.5090 O   0  0  0  0  0  0  0  0  0  0  0  0
  183.7400  178.9310  144.9600 C   0  0  0  0  0  0  0  0  0  0  0  0
  184.0620  178.7880  146.3030 O   0  0  0  0  0  1  0  0  0  0  0  0
  1 24  1  0  0  0  0
  1 14  1  0  0  0  0
  2  8  1  0  0  0  0
  3  2  3  0  0  0  0
  5 11  1  0  0  0  0
  5 13  2  0  0  0  0
  6  4  2  0  0  0  0
  6  8  1  0  0  0  0
  7  3  1  0  0  0  0
  8  1  1  6  0  0  0
  9  6  1  0  0  0  0
 10  9  2  0  0  0  0
 11 12  1  0  0  0  0
 12  7  1  0  0  0  0
 13 10  1  0  0  0  0
 14 15  1  0  0  0  0
 14 18  1  0  0  0  0
 15 19  2  0  0  0  0
 15 18  1  0  0  0  0
 16 20  1  0  0  0  0
 17 23  1  0  0  0  0
 17 20  2  0  0  0  0
 18 16  2  0  0  0  0
 19 17  1  0  0  0  0
 21 23  2  0  0  0  0
 23 22  1  0  0  0  0
 24 26  1  0  0  0  0
 25 26  2  0  0  0  0
 26 27  1  0  0  0  0
M  END
>  <MODEL>
7

>  <REMARK>
 VINA RESULT:      -8.4      2.448      7.596
  Name = 
  5 active torsions:
  status: ('A' for Active; 'I' for Inactive)
    1  A    between atoms: N_1  and  N_2
    2  A    between atoms: N_2  and  C_6
    3  A    between atoms: N_2  and  C_15
    4  A    between atoms: C_6  and  C_13
    5  A    between atoms: C_19  and  C_23
                            x       y       z     vdW  Elec       q    Type
                         _______ _______ _______ _____ _____    ______ ____

>  <TORSDO>
F 5

$$$$
=
 OpenBabel10232411443D

 27 29  0  0  1  0  0  0  0  0999 V2000
  187.8290  178.1540  145.4730 N   0  0  0  0  0  0  0  0  0  0  0  0
  186.0720  178.0550  143.8660 C   0  0  0  0  0  2  0  0  0  0  0  0
  185.4220  177.9250  142.7750 C   0  0  0  0  0  0  0  0  0  0  0  0
  185.7510  179.0530  147.2480 O   0  0  0  0  0  0  0  0  0  0  0  0
  181.6310  178.9100  142.9030 C   0  0  0  0  0  3  0  0  0  0  0  0
  185.3990  178.7260  146.0840 C   0  0  0  0  0  0  0  0  0  0  0  0
  184.4900  177.9590  141.9050 C   0  0  0  0  0  0  0  0  0  0  0  0
  186.4470  178.2970  145.0950 C   0  0  2  0  0  3  0  0  0  0  0  0
  183.9380  178.7420  145.7800 C   0  0  0  0  0  3  0  0  0  0  0  0
  183.4620  178.9910  144.5600 C   0  0  0  0  0  3  0  0  0  0  0  0
  182.4670  179.2360  141.6830 C   0  0  0  0  0  2  0  0  0  0  0  0
  183.3910  178.1370  141.2320 C   0  0  0  0  0  2  0  0  0  0  0  0
  182.0610  178.8220  144.1730 C   0  0  0  0  0  3  0  0  0  0  0  0
  188.8140  177.9320  144.4990 N   0  0  0  0  0  0  0  0  0  0  0  0
  189.2010  177.5550  143.2010 C   0  0  0  0  0  0  0  0  0  0  0  0
  191.5060  178.0450  143.8990 C   0  0  0  0  0  3  0  0  0  0  0  0
  190.7890  177.2110  141.5810 C   0  0  0  0  0  0  0  0  0  0  0  0
  190.1620  177.9570  144.1010 C   0  0  0  0  0  0  0  0  0  0  0  0
  189.3840  177.1590  141.9100 C   0  0  0  0  0  3  0  0  0  0  0  0
  191.8050  177.6420  142.5500 C   0  0  0  0  0  3  0  0  0  0  0  0
  190.4740  176.0990  139.5080 O   0  0  0  0  0  0  0  0  0  0  0  0
  192.4390  177.2480  139.7270 O   0  0  0  0  0  1  0  0  0  0  0  0
  191.2140  176.8210  140.2270 C   0  0  0  0  0  0  0  0  0  0  0  0
  188.2490  178.3490  146.8570 C   0  0  0  0  0  2  0  0  0  0  0  0
  188.1810  176.1800  147.8440 O   0  0  0  0  0  1  0  0  0  0  0  0
  188.8920  177.1100  147.3820 C   0  0  0  0  0  0  0  0  0  0  0  0
  190.2750  176.9940  147.3920 O   0  0  0  0  0  0  0  0  0  0  0  0
  1 24  1  0  0  0  0
  2  8  1  0  0  0  0
  3  2  1  0  0  0  0
  5 13  2  0  0  0  0
  6  4  2  0  0  0  0
  7  3  3  0  0  0  0
  8  1  1  6  0  0  0
  8  6  1  0  0  0  0
  9  6  1  0  0  0  0
 10  9  2  0  0  0  0
 11  5  1  0  0  0  0
 12 11  1  0  0  0  0
 12  7  1  0  0  0  0
 13 10  1  0  0  0  0
 14  1  1  0  0  0  0
 15 18  1  0  0  0  0
 15 14  1  0  0  0  0
 16 18  2  0  0  0  0
 17 19  1  0  0  0  0
 17 20  2  0  0  0  0
 18 14  1  0  0  0  0
 19 15  2  0  0  0  0
 20 16  1  0  0  0  0
 21 23  2  0  0  0  0
 22 23  1  0  0  0  0
 23 17  1  0  0  0  0
 24 26  1  0  0  0  0
 26 27  2  0  0  0  0
 26 25  1  0  0  0  0
M  END
>  <MODEL>
8

>  <REMARK>
 VINA RESULT:      -8.3      2.614      7.751
  Name = 
  5 active torsions:
  status: ('A' for Active; 'I' for Inactive)
    1  A    between atoms: N_1  and  N_2
    2  A    between atoms: N_2  and  C_6
    3  A    between atoms: N_2  and  C_15
    4  A    between atoms: C_6  and  C_13
    5  A    between atoms: C_19  and  C_23
                            x       y       z     vdW  Elec       q    Type
                         _______ _______ _______ _____ _____    ______ ____

>  <TORSDO>
F 5

$$$$
=
 OpenBabel10232411443D

 27 29  0  0  1  0  0  0  0  0999 V2000
  186.4860  177.7370  144.7090 N   0  0  0  0  0  0  0  0  0  0  0  0
  187.7190  177.9590  142.6820 C   0  0  0  0  0  2  0  0  0  0  0  0
  188.0310  178.1400  141.4570 C   0  0  0  0  0  0  0  0  0  0  0  0
  189.0230  176.9470  145.8130 O   0  0  0  0  0  0  0  0  0  0  0  0
  191.7570  177.3860  140.5030 C   0  0  0  0  0  3  0  0  0  0  0  0
  189.0180  177.3070  144.6070 C   0  0  0  0  0  0  0  0  0  0  0  0
  188.6860  178.1720  140.3620 C   0  0  0  0  0  0  0  0  0  0  0  0
  187.7150  177.6820  143.9590 C   0  0  2  0  0  3  0  0  0  0  0  0
  190.3360  177.3830  143.9100 C   0  0  0  0  0  3  0  0  0  0  0  0
  190.4660  177.1770  142.6000 C   0  0  0  0  0  3  0  0  0  0  0  0
  190.6350  177.0220  139.5530 C   0  0  0  0  0  2  0  0  0  0  0  0
  189.5620  178.0680  139.4070 C   0  0  0  0  0  2  0  0  0  0  0  0
  191.6930  177.4340  141.8440 C   0  0  0  0  0  3  0  0  0  0  0  0
  185.2830  178.0850  144.0790 N   0  0  0  0  0  0  0  0  0  0  0  0
  184.4960  178.2390  142.9240 C   0  0  0  0  0  0  0  0  0  0  0  0
  182.6830  178.9440  144.4260 C   0  0  0  0  0  3  0  0  0  0  0  0
  182.5300  178.7760  141.8690 C   0  0  0  0  0  0  0  0  0  0  0  0
  183.9470  178.5180  144.1550 C   0  0  0  0  0  0  0  0  0  0  0  0
  183.8910  178.3270  141.7060 C   0  0  0  0  0  3  0  0  0  0  0  0
  181.9560  179.0700  143.1900 C   0  0  0  0  0  3  0  0  0  0  0  0
  182.1680  178.7480  139.5240 O   0  0  0  0  0  0  0  0  0  0  0  0
  180.3550  179.3140  140.7990 O   0  0  0  0  0  1  0  0  0  0  0  0
  181.6890  178.9420  140.6730 C   0  0  0  0  0  0  0  0  0  0  0  0
  186.4460  177.3230  146.1070 C   0  0  0  0  0  2  0  0  0  0  0  0
  185.3910  179.2850  146.9540 O   0  0  0  0  0  0  0  0  0  0  0  0
  186.3860  178.5170  146.9990 C   0  0  0  0  0  0  0  0  0  0  0  0
  187.4400  178.8000  147.8560 O   0  0  0  0  0  1  0  0  0  0  0  0
  1 24  1  0  0  0  0
  2  8  1  0  0  0  0
  3  2  1  0  0  0  0
  5 13  2  0  0  0  0
  6  4  2  0  0  0  0
  7  3  3  0  0  0  0
  8  6  1  0  0  0  0
  8  1  1  6  0  0  0
  9  6  1  0  0  0  0
 10  9  2  0  0  0  0
 11  5  1  0  0  0  0
 12 11  1  0  0  0  0
 12  7  1  0  0  0  0
 13 10  1  0  0  0  0
 14 18  1  0  0  0  0
 14  1  1  0  0  0  0
 15 14  1  0  0  0  0
 15 18  1  0  0  0  0
 17 20  2  0  0  0  0
 18 16  2  0  0  0  0
 19 17  1  0  0  0  0
 19 15  2  0  0  0  0
 20 16  1  0  0  0  0
 21 23  2  0  0  0  0
 23 22  1  0  0  0  0
 23 17  1  0  0  0  0
 24 26  1  0  0  0  0
 25 26  2  0  0  0  0
 26 27  1  0  0  0  0
M  END
>  <MODEL>
9

>  <REMARK>
 VINA RESULT:      -8.2      2.835      5.074
  Name = 
  5 active torsions:
  status: ('A' for Active; 'I' for Inactive)
    1  A    between atoms: N_1  and  N_2
    2  A    between atoms: N_2  and  C_6
    3  A    between atoms: N_2  and  C_15
    4  A    between atoms: C_6  and  C_13
    5  A    between atoms: C_19  and  C_23
                            x       y       z     vdW  Elec       q    Type
                         _______ _______ _______ _____ _____    ______ ____

>  <TORSDO>
F 5

$$$$
