=
 OpenBabel10232412043D

 42 44  0  0  1  0  0  0  0  0999 V2000
  182.8770  179.2180  139.8900 C   0  0  2  0  0  3  0  0  0  0  0  0
  186.8810  177.6370  138.2570 N   0  0  0  0  0  2  0  0  0  0  0  0
  187.6600  176.5900  137.6830 C   0  0  2  0  0  3  0  0  0  0  0  0
  185.7930  175.9250  136.2000 C   0  0  0  0  0  0  0  0  0  0  0  0
  185.5260  177.7560  137.8170 C   0  0  0  0  0  0  0  0  0  0  0  0
  188.9040  176.7290  137.2690 C   0  0  0  0  0  0  0  0  0  0  0  0
  183.9590  179.5460  138.8900 C   0  0  0  0  0  3  0  0  0  0  0  0
  188.1190  175.1090  136.0000 N   0  0  0  0  0  2  0  0  0  0  0  0
  187.0430  175.4680  136.9180 C   0  0  1  0  0  3  0  0  0  0  0  0
  189.7920  177.8840  137.5780 C   0  0  0  0  0  1  0  0  0  0  0  0
  189.1620  175.8040  136.2230 N   0  0  0  0  0  0  0  0  0  0  0  0
  185.0540  176.9380  136.6800 C   0  0  0  0  0  3  0  0  0  0  0  0
  184.7440  178.6540  138.3460 C   0  0  0  0  0  0  0  0  0  0  0  0
  185.2820  175.1500  135.1230 N   0  0  0  0  0  1  0  0  0  0  0  0
  183.2900  178.1950  140.9680 C   0  0  2  0  0  3  0  0  0  0  0  0
  182.6420  176.8390  140.7280 C   0  0  0  0  0  1  0  0  0  0  0  0
  182.9470  178.6740  142.3510 C   0  0  0  0  0  0  0  0  0  0  0  0
  181.5220  178.9820  142.7090 C   0  0  0  0  0  1  0  0  0  0  0  0
  183.9370  178.8020  143.2460 C   0  0  0  0  0  3  0  0  0  0  0  0
  183.7280  179.2660  144.6540 C   0  0  0  0  0  2  0  0  0  0  0  0
  184.6190  178.5500  145.5490 N   0  0  0  0  0  2  0  0  0  0  0  0
  185.7280  178.0760  144.7410 C   0  0  0  0  0  2  0  0  0  0  0  0
  189.2560  177.2540  145.9780 C   0  0  0  0  0  0  0  0  0  0  0  0
  188.1630  177.3840  145.0920 C   0  0  0  0  0  0  0  0  0  0  0  0
  190.4920  176.8020  145.5300 O   0  0  0  0  0  1  0  0  0  0  0  0
  187.8850  178.0030  147.8280 C   0  0  0  0  0  3  0  0  0  0  0  0
  186.9190  177.8320  145.6100 C   0  0  0  0  0  0  0  0  0  0  0  0
  186.7980  178.1420  146.9680 C   0  0  0  0  0  3  0  0  0  0  0  0
  189.1100  177.5600  147.3320 C   0  0  0  0  0  3  0  0  0  0  0  0
  188.9440  177.7740  141.3100 C   0  0  0  0  0  1  0  0  0  0  0  0
  188.0520  175.9000  143.2320 O   0  0  0  0  0  0  0  0  0  0  0  0
  188.3330  177.0560  143.6520 C   0  0  0  0  0  0  0  0  0  0  0  0
  188.7910  178.0500  142.7290 N   0  0  0  0  0  2  0  0  0  0  0  0
  181.7440  178.7760  139.1990 O   0  0  0  0  0  0  0  0  0  0  0  0
  181.3000  179.8910  138.4810 C   0  0  0  0  0  2  0  0  0  0  0  0
  180.0900  180.3350  139.0130 O   0  0  0  0  0  0  0  0  0  0  0  0
  180.2220  181.7220  139.0750 C   0  0  0  0  0  2  0  0  0  0  0  0
  181.3810  182.1590  138.1970 C   0  0  0  0  0  2  0  0  0  0  0  0
  180.8890  182.9420  137.0740 N   0  0  0  0  0  2  0  0  0  0  0  0
  182.1810  184.8320  137.5510 O   0  0  0  0  0  0  0  0  0  0  0  0
  181.3450  184.2680  136.7970 C   0  0  0  0  0  0  0  0  0  0  0  0
  180.8180  184.9930  135.6110 C   0  0  0  0  0  1  0  0  0  0  0  0
  1  7  1  6  0  0  0
  1 15  1  0  0  0  0
  3  6  1  6  0  0  0
  3  2  1  0  0  0  0
  4 12  2  0  0  0  0
  4  9  1  0  0  0  0
  5  2  1  0  0  0  0
  5 13  2  0  0  0  0
  6 10  1  0  0  0  0
  8 11  1  0  0  0  0
  9  8  1  6  0  0  0
  9  3  1  0  0  0  0
 11  6  2  0  0  0  0
 12  5  1  0  0  0  0
 13  7  2  0  0  0  0
 14  4  1  0  0  0  0
 15 16  1  6  0  0  0
 15 17  1  0  0  0  0
 17 18  1  0  0  0  0
 17 19  2  0  0  0  0
 19 20  1  0  0  0  0
 20 21  1  0  0  0  0
 22 21  1  0  0  0  0
 22 27  1  0  0  0  0
 23 29  1  0  0  0  0
 24 27  1  0  0  0  0
 24 23  2  0  0  0  0
 25 23  1  0  0  0  0
 27 28  2  0  0  0  0
 28 26  1  0  0  0  0
 29 26  2  0  0  0  0
 30 33  1  0  0  0  0
 31 32  2  0  0  0  0
 32 24  1  0  0  0  0
 33 32  1  0  0  0  0
 34  1  1  0  0  0  0
 35 36  1  0  0  0  0
 35 34  1  0  0  0  0
 36 37  1  0  0  0  0
 38 37  1  0  0  0  0
 39 38  1  0  0  0  0
 41 39  1  0  0  0  0
 41 40  2  0  0  0  0
 42 41  1  0  0  0  0
M  END
>  <MODEL>
1

>  <REMARK>
 VINA RESULT:      -8.1      0.000      0.000
  Name = 
  14 active torsions:
  status: ('A' for Active; 'I' for Inactive)
    1  A    between atoms: C_2  and  C_22
    2  A    between atoms: C_5  and  C_6
    3  A    between atoms: C_5  and  C_19
    4  A    between atoms: N_11  and  C_34
    5  A    between atoms: N_11  and  C_36
    6  A    between atoms: N_14  and  C_28
    7  A    between atoms: C_16  and  O_23
    8  A    between atoms: C_16  and  C_28
    9  A    between atoms: C_18  and  C_19
   10  A    between atoms: C_19  and  O_41
   11  A    between atoms: O_23  and  C_33
   12  A    between atoms: C_24  and  C_36
   13  A    between atoms: C_26  and  C_34
   14  A    between atoms: C_33  and  O_41
                            x       y       z     vdW  Elec       q    Type
                         _______ _______ _______ _____ _____    ______ ____

>  <TORSDO>
F 14

$$$$
=
 OpenBabel10232412043D

 42 44  0  0  1  0  0  0  0  0999 V2000
  190.0350  177.2820  140.9680 C   0  0  2  0  0  3  0  0  0  0  0  0
  187.7080  177.9480  144.8840 N   0  0  0  0  0  2  0  0  0  0  0  0
  186.6560  178.5800  145.6100 C   0  0  2  0  0  3  0  0  0  0  0  0
  185.0970  178.3190  143.7060 C   0  0  0  0  0  0  0  0  0  0  0  0
  187.4300  177.5700  143.5330 C   0  0  0  0  0  0  0  0  0  0  0  0
  186.3360  178.2940  146.8570 C   0  0  0  0  0  0  0  0  0  0  0  0
  189.3140  176.5280  142.0570 C   0  0  0  0  0  3  0  0  0  0  0  0
  184.4400  179.0010  145.9910 N   0  0  0  0  0  2  0  0  0  0  0  0
  185.4420  179.1260  144.9370 C   0  0  1  0  0  3  0  0  0  0  0  0
  187.1680  177.4950  147.8000 C   0  0  0  0  0  1  0  0  0  0  0  0
  184.9570  178.5590  147.0660 N   0  0  0  0  0  0  0  0  0  0  0  0
  186.0490  177.6690  143.0180 C   0  0  0  0  0  3  0  0  0  0  0  0
  188.3670  177.0430  142.7980 C   0  0  0  0  0  0  0  0  0  0  0  0
  183.7890  178.4110  143.1530 N   0  0  0  0  0  1  0  0  0  0  0  0
  189.8650  176.6860  139.5550 C   0  0  2  0  0  3  0  0  0  0  0  0
  191.2080  176.5000  138.8630 C   0  0  0  0  0  1  0  0  0  0  0  0
  188.9740  177.5370  138.6930 C   0  0  0  0  0  0  0  0  0  0  0  0
  187.6720  178.0520  139.2360 C   0  0  0  0  0  1  0  0  0  0  0  0
  189.3780  177.8300  137.4500 C   0  0  0  0  0  3  0  0  0  0  0  0
  188.5860  178.6680  136.4950 C   0  0  0  0  0  2  0  0  0  0  0  0
  188.0520  177.8370  135.4310 N   0  0  0  0  0  2  0  0  0  0  0  0
  186.6180  177.7560  135.6470 C   0  0  0  0  0  2  0  0  0  0  0  0
  184.7740  174.8900  137.3900 C   0  0  0  0  0  0  0  0  0  0  0  0
  185.0530  176.1980  136.9310 C   0  0  0  0  0  0  0  0  0  0  0  0
  183.6070  174.6090  138.0920 O   0  0  0  0  0  1  0  0  0  0  0  0
  186.8690  174.0900  136.4760 C   0  0  0  0  0  3  0  0  0  0  0  0
  186.2700  176.4280  136.2370 C   0  0  0  0  0  0  0  0  0  0  0  0
  187.1580  175.3720  136.0120 C   0  0  0  0  0  3  0  0  0  0  0  0
  185.6800  173.8520  137.1620 C   0  0  0  0  0  3  0  0  0  0  0  0
  183.1940  179.1260  138.6720 C   0  0  0  0  0  1  0  0  0  0  0  0
  183.1730  177.5330  136.3350 O   0  0  0  0  0  0  0  0  0  0  0  0
  184.0790  177.2930  137.1800 C   0  0  0  0  0  0  0  0  0  0  0  0
  184.1450  178.0660  138.3820 N   0  0  0  0  0  2  0  0  0  0  0  0
  191.3890  177.3760  141.3040 O   0  0  0  0  0  0  0  0  0  0  0  0
  191.4240  177.2730  142.6970 C   0  0  0  0  0  2  0  0  0  0  0  0
  191.6160  178.5370  143.2530 O   0  0  0  0  0  0  0  0  0  0  0  0
  191.5760  178.3250  144.6310 C   0  0  0  0  0  2  0  0  0  0  0  0
  191.1550  176.8930  144.9100 C   0  0  0  0  0  2  0  0  0  0  0  0
  192.0270  176.3030  145.9140 N   0  0  0  0  0  2  0  0  0  0  0  0
  190.7230  176.9650  147.7400 O   0  0  0  0  0  0  0  0  0  0  0  0
  191.7420  176.3600  147.3140 C   0  0  0  0  0  0  0  0  0  0  0  0
  192.6660  175.7060  148.2780 C   0  0  0  0  0  1  0  0  0  0  0  0
  1 34  1  0  0  0  0
  1  7  1  1  0  0  0
  3  2  1  6  0  0  0
  3  6  1  0  0  0  0
  5  2  1  0  0  0  0
  6 11  2  0  0  0  0
  6 10  1  0  0  0  0
  7 13  2  0  0  0  0
  8 11  1  0  0  0  0
  9  4  1  6  0  0  0
  9  3  1  0  0  0  0
  9  8  1  0  0  0  0
 12  5  1  0  0  0  0
 12  4  2  0  0  0  0
 13  5  2  0  0  0  0
 14  4  1  0  0  0  0
 15 16  1  6  0  0  0
 15  1  1  0  0  0  0
 17 18  1  0  0  0  0
 17 15  1  0  0  0  0
 19 17  2  0  0  0  0
 20 19  1  0  0  0  0
 21 22  1  0  0  0  0
 21 20  1  0  0  0  0
 22 27  1  0  0  0  0
 23 25  1  0  0  0  0
 24 32  1  0  0  0  0
 24 23  2  0  0  0  0
 26 29  2  0  0  0  0
 27 24  1  0  0  0  0
 28 27  2  0  0  0  0
 28 26  1  0  0  0  0
 29 23  1  0  0  0  0
 31 32  2  0  0  0  0
 32 33  1  0  0  0  0
 33 30  1  0  0  0  0
 34 35  1  0  0  0  0
 35 36  1  0  0  0  0
 36 37  1  0  0  0  0
 37 38  1  0  0  0  0
 38 39  1  0  0  0  0
 39 41  1  0  0  0  0
 41 40  2  0  0  0  0
 41 42  1  0  0  0  0
M  END
>  <MODEL>
2

>  <REMARK>
 VINA RESULT:      -7.9      3.016     10.328
  Name = 
  14 active torsions:
  status: ('A' for Active; 'I' for Inactive)
    1  A    between atoms: C_2  and  C_22
    2  A    between atoms: C_5  and  C_6
    3  A    between atoms: C_5  and  C_19
    4  A    between atoms: N_11  and  C_34
    5  A    between atoms: N_11  and  C_36
    6  A    between atoms: N_14  and  C_28
    7  A    between atoms: C_16  and  O_23
    8  A    between atoms: C_16  and  C_28
    9  A    between atoms: C_18  and  C_19
   10  A    between atoms: C_19  and  O_41
   11  A    between atoms: O_23  and  C_33
   12  A    between atoms: C_24  and  C_36
   13  A    between atoms: C_26  and  C_34
   14  A    between atoms: C_33  and  O_41
                            x       y       z     vdW  Elec       q    Type
                         _______ _______ _______ _____ _____    ______ ____

>  <TORSDO>
F 14

$$$$
=
 OpenBabel10232412043D

 42 44  0  0  1  0  0  0  0  0999 V2000
  187.4520  177.2330  137.4260 C   0  0  2  0  0  3  0  0  0  0  0  0
  183.4290  177.9720  139.5390 N   0  0  0  0  0  2  0  0  0  0  0  0
  182.6440  178.0310  140.7280 C   0  0  2  0  0  3  0  0  0  0  0  0
  184.4910  179.1130  141.9710 C   0  0  0  0  0  0  0  0  0  0  0  0
  184.7770  178.4410  139.6250 C   0  0  0  0  0  0  0  0  0  0  0  0
  181.3940  178.4470  140.7760 C   0  0  0  0  0  0  0  0  0  0  0  0
  186.3550  178.2610  137.5540 C   0  0  0  0  0  3  0  0  0  0  0  0
  182.1650  178.9110  142.7850 N   0  0  0  0  0  2  0  0  0  0  0  0
  183.2540  178.2500  142.0720 C   0  0  1  0  0  3  0  0  0  0  0  0
  180.5080  178.6500  139.5960 C   0  0  0  0  0  1  0  0  0  0  0  0
  181.1240  178.9920  142.0580 N   0  0  0  0  0  0  0  0  0  0  0  0
  185.2340  179.1240  140.8530 C   0  0  0  0  0  3  0  0  0  0  0  0
  185.5640  178.3590  138.5910 C   0  0  0  0  0  0  0  0  0  0  0  0
  184.9890  179.7610  143.1350 N   0  0  0  0  0  1  0  0  0  0  0  0
  188.8760  177.7830  137.6490 C   0  0  2  0  0  3  0  0  0  0  0  0
  189.7840  177.4770  136.4660 C   0  0  0  0  0  1  0  0  0  0  0  0
  189.4940  177.2370  138.9060 C   0  0  0  0  0  0  0  0  0  0  0  0
  190.5100  176.1340  138.8270 C   0  0  0  0  0  1  0  0  0  0  0  0
  189.1260  177.7660  140.0810 C   0  0  0  0  0  3  0  0  0  0  0  0
  189.6680  177.3140  141.4010 C   0  0  0  0  0  2  0  0  0  0  0  0
  188.5750  176.9890  142.3010 N   0  0  0  0  0  2  0  0  0  0  0  0
  189.1750  176.4490  143.5070 C   0  0  0  0  0  2  0  0  0  0  0  0
  188.3250  177.7800  146.9940 C   0  0  0  0  0  0  0  0  0  0  0  0
  189.0890  177.2350  145.9370 C   0  0  0  0  0  0  0  0  0  0  0  0
  188.9030  178.0590  148.2270 O   0  0  0  0  0  1  0  0  0  0  0  0
  186.3360  177.7520  145.6120 C   0  0  0  0  0  3  0  0  0  0  0  0
  188.4390  176.9520  144.7060 C   0  0  0  0  0  0  0  0  0  0  0  0
  187.0750  177.2200  144.5580 C   0  0  0  0  0  3  0  0  0  0  0  0
  186.9610  178.0310  146.8270 C   0  0  0  0  0  3  0  0  0  0  0  0
  192.3960  175.7760  147.3490 C   0  0  0  0  0  1  0  0  0  0  0  0
  191.3890  177.5980  145.4340 O   0  0  0  0  0  0  0  0  0  0  0  0
  190.5400  176.9750  146.1290 C   0  0  0  0  0  0  0  0  0  0  0  0
  190.9850  176.0370  147.1140 N   0  0  0  0  0  2  0  0  0  0  0  0
  187.3510  176.6190  136.1730 O   0  0  0  0  0  0  0  0  0  0  0  0
  186.4240  175.5870  136.3490 C   0  0  0  0  0  2  0  0  0  0  0  0
  186.8890  174.7060  137.3260 O   0  0  0  0  0  0  0  0  0  0  0  0
  186.4120  173.4580  136.9270 C   0  0  0  0  0  2  0  0  0  0  0  0
  185.2810  173.0310  137.8450 C   0  0  0  0  0  2  0  0  0  0  0  0
  184.0640  172.8250  137.0760 N   0  0  0  0  0  2  0  0  0  0  0  0
  182.9590  174.7060  137.9210 O   0  0  0  0  0  0  0  0  0  0  0  0
  182.9450  173.7120  137.1470 C   0  0  0  0  0  0  0  0  0  0  0  0
  181.7470  173.4520  136.3070 C   0  0  0  0  0  1  0  0  0  0  0  0
  1  7  1  6  0  0  0
  1 15  1  0  0  0  0
  2  5  1  0  0  0  0
  3  2  1  6  0  0  0
  3  6  1  0  0  0  0
  3  9  1  0  0  0  0
  4 14  1  0  0  0  0
  5 12  1  0  0  0  0
  6 11  2  0  0  0  0
  7 13  2  0  0  0  0
  9  4  1  6  0  0  0
  9  8  1  0  0  0  0
 10  6  1  0  0  0  0
 11  8  1  0  0  0  0
 12  4  2  0  0  0  0
 13  5  2  0  0  0  0
 15 16  1  6  0  0  0
 15 17  1  0  0  0  0
 17 19  2  0  0  0  0
 18 17  1  0  0  0  0
 19 20  1  0  0  0  0
 20 21  1  0  0  0  0
 21 22  1  0  0  0  0
 22 27  1  0  0  0  0
 23 25  1  0  0  0  0
 24 32  1  0  0  0  0
 24 23  2  0  0  0  0
 26 29  2  0  0  0  0
 27 24  1  0  0  0  0
 28 27  2  0  0  0  0
 28 26  1  0  0  0  0
 29 23  1  0  0  0  0
 31 32  2  0  0  0  0
 32 33  1  0  0  0  0
 33 30  1  0  0  0  0
 34 35  1  0  0  0  0
 34  1  1  0  0  0  0
 35 36  1  0  0  0  0
 37 36  1  0  0  0  0
 37 38  1  0  0  0  0
 39 41  1  0  0  0  0
 39 38  1  0  0  0  0
 41 40  2  0  0  0  0
 42 41  1  0  0  0  0
M  END
>  <MODEL>
3

>  <REMARK>
 VINA RESULT:      -7.8      3.332      7.016
  Name = 
  14 active torsions:
  status: ('A' for Active; 'I' for Inactive)
    1  A    between atoms: C_2  and  C_22
    2  A    between atoms: C_5  and  C_6
    3  A    between atoms: C_5  and  C_19
    4  A    between atoms: N_11  and  C_34
    5  A    between atoms: N_11  and  C_36
    6  A    between atoms: N_14  and  C_28
    7  A    between atoms: C_16  and  O_23
    8  A    between atoms: C_16  and  C_28
    9  A    between atoms: C_18  and  C_19
   10  A    between atoms: C_19  and  O_41
   11  A    between atoms: O_23  and  C_33
   12  A    between atoms: C_24  and  C_36
   13  A    between atoms: C_26  and  C_34
   14  A    between atoms: C_33  and  O_41
                            x       y       z     vdW  Elec       q    Type
                         _______ _______ _______ _____ _____    ______ ____

>  <TORSDO>
F 14

$$$$
=
 OpenBabel10232412043D

 42 44  0  0  1  0  0  0  0  0999 V2000
  184.0500  178.3490  142.0750 C   0  0  2  0  0  3  0  0  0  0  0  0
  188.6260  177.8970  142.3030 N   0  0  0  0  0  2  0  0  0  0  0  0
  189.8470  177.3650  141.7940 C   0  0  2  0  0  3  0  0  0  0  0  0
  189.1280  177.7740  139.4610 C   0  0  0  0  0  0  0  0  0  0  0  0
  187.6440  178.3020  141.3460 C   0  0  0  0  0  0  0  0  0  0  0  0
  191.0430  177.6770  142.2520 C   0  0  0  0  0  0  0  0  0  0  0  0
  185.3160  179.1660  142.1510 C   0  0  0  0  0  3  0  0  0  0  0  0
  191.4220  177.1520  140.1480 N   0  0  0  0  0  2  0  0  0  0  0  0
  189.9960  176.9360  140.3730 C   0  0  1  0  0  3  0  0  0  0  0  0
  191.3180  178.3940  143.5290 C   0  0  0  0  0  1  0  0  0  0  0  0
  192.0000  177.5420  141.2120 N   0  0  0  0  0  0  0  0  0  0  0  0
  187.9940  178.3330  139.9100 C   0  0  0  0  0  3  0  0  0  0  0  0
  186.4840  178.7410  141.7460 C   0  0  0  0  0  0  0  0  0  0  0  0
  189.4060  177.8050  138.0660 N   0  0  0  0  0  1  0  0  0  0  0  0
  183.1690  178.6460  140.8440 C   0  0  2  0  0  3  0  0  0  0  0  0
  181.6890  178.6340  141.2010 C   0  0  0  0  0  1  0  0  0  0  0  0
  183.4210  177.6700  139.7290 C   0  0  0  0  0  0  0  0  0  0  0  0
  182.7000  176.3530  139.7060 C   0  0  0  0  0  1  0  0  0  0  0  0
  184.2850  178.0120  138.7630 C   0  0  0  0  0  3  0  0  0  0  0  0
  184.6200  177.1320  137.6000 C   0  0  0  0  0  2  0  0  0  0  0  0
  183.7310  177.4180  136.4890 N   0  0  0  0  0  2  0  0  0  0  0  0
  183.7390  176.2440  135.6360 C   0  0  0  0  0  2  0  0  0  0  0  0
  181.9120  173.1430  136.9400 C   0  0  0  0  0  0  0  0  0  0  0  0
  182.9670  173.9510  136.4600 C   0  0  0  0  0  0  0  0  0  0  0  0
  182.1310  171.8210  137.3090 O   0  0  0  0  0  1  0  0  0  0  0  0
  180.3460  174.9700  136.6650 C   0  0  0  0  0  3  0  0  0  0  0  0
  182.6790  175.2890  136.0810 C   0  0  0  0  0  0  0  0  0  0  0  0
  181.3750  175.7830  136.1940 C   0  0  0  0  0  3  0  0  0  0  0  0
  180.6150  173.6540  137.0370 C   0  0  0  0  0  3  0  0  0  0  0  0
  186.5550  172.8550  137.4510 C   0  0  0  0  0  1  0  0  0  0  0  0
  184.7700  172.9610  135.2590 O   0  0  0  0  0  0  0  0  0  0  0  0
  184.3420  173.3940  136.3640 C   0  0  0  0  0  0  0  0  0  0  0  0
  185.1960  173.3670  137.5120 N   0  0  0  0  0  2  0  0  0  0  0  0
  183.3240  178.5310  143.2560 O   0  0  0  0  0  0  0  0  0  0  0  0
  184.1020  179.3970  144.0300 C   0  0  0  0  0  2  0  0  0  0  0  0
  184.1490  178.9320  145.3440 O   0  0  0  0  0  0  0  0  0  0  0  0
  185.4460  179.2150  145.7710 C   0  0  0  0  0  2  0  0  0  0  0  0
  186.2890  177.9540  145.6960 C   0  0  0  0  0  2  0  0  0  0  0  0
  187.2760  177.9500  146.7640 N   0  0  0  0  0  2  0  0  0  0  0  0
  188.9220  176.8410  145.5250 O   0  0  0  0  0  0  0  0  0  0  0  0
  188.5830  177.3910  146.6060 C   0  0  0  0  0  0  0  0  0  0  0  0
  189.5480  177.4520  147.7350 C   0  0  0  0  0  1  0  0  0  0  0  0
  1  7  1  1  0  0  0
  1 34  1  0  0  0  0
  3  6  1  6  0  0  0
  3  2  1  0  0  0  0
  4 12  2  0  0  0  0
  5 13  2  0  0  0  0
  5  2  1  0  0  0  0
  6 10  1  0  0  0  0
  8  9  1  0  0  0  0
  8 11  1  0  0  0  0
  9  4  1  6  0  0  0
  9  3  1  0  0  0  0
 11  6  2  0  0  0  0
 12  5  1  0  0  0  0
 13  7  2  0  0  0  0
 14  4  1  0  0  0  0
 15 16  1  1  0  0  0
 15  1  1  0  0  0  0
 17 15  1  0  0  0  0
 18 17  1  0  0  0  0
 19 17  2  0  0  0  0
 20 19  1  0  0  0  0
 21 20  1  0  0  0  0
 22 27  1  0  0  0  0
 22 21  1  0  0  0  0
 23 29  1  0  0  0  0
 23 25  1  0  0  0  0
 24 23  2  0  0  0  0
 26 29  2  0  0  0  0
 27 28  2  0  0  0  0
 27 24  1  0  0  0  0
 28 26  1  0  0  0  0
 30 33  1  0  0  0  0
 31 32  2  0  0  0  0
 32 24  1  0  0  0  0
 32 33  1  0  0  0  0
 34 35  1  0  0  0  0
 35 36  1  0  0  0  0
 36 37  1  0  0  0  0
 38 37  1  0  0  0  0
 38 39  1  0  0  0  0
 40 41  2  0  0  0  0
 41 39  1  0  0  0  0
 41 42  1  0  0  0  0
M  END
>  <MODEL>
4

>  <REMARK>
 VINA RESULT:      -7.7      3.257      8.541
  Name = 
  14 active torsions:
  status: ('A' for Active; 'I' for Inactive)
    1  A    between atoms: C_2  and  C_22
    2  A    between atoms: C_5  and  C_6
    3  A    between atoms: C_5  and  C_19
    4  A    between atoms: N_11  and  C_34
    5  A    between atoms: N_11  and  C_36
    6  A    between atoms: N_14  and  C_28
    7  A    between atoms: C_16  and  O_23
    8  A    between atoms: C_16  and  C_28
    9  A    between atoms: C_18  and  C_19
   10  A    between atoms: C_19  and  O_41
   11  A    between atoms: O_23  and  C_33
   12  A    between atoms: C_24  and  C_36
   13  A    between atoms: C_26  and  C_34
   14  A    between atoms: C_33  and  O_41
                            x       y       z     vdW  Elec       q    Type
                         _______ _______ _______ _____ _____    ______ ____

>  <TORSDO>
F 14

$$$$
=
 OpenBabel10232412043D

 42 44  0  0  1  0  0  0  0  0999 V2000
  184.7700  177.9770  138.6690 C   0  0  2  0  0  3  0  0  0  0  0  0
  185.2830  173.7940  136.8160 N   0  0  0  0  0  2  0  0  0  0  0  0
  184.9110  172.4200  136.7330 C   0  0  2  0  0  3  0  0  0  0  0  0
  182.5110  172.9880  136.9470 C   0  0  0  0  0  0  0  0  0  0  0  0
  184.2320  174.7400  137.0320 C   0  0  0  0  0  0  0  0  0  0  0  0
  185.3810  171.5740  135.8380 C   0  0  0  0  0  0  0  0  0  0  0  0
  184.7980  177.2700  137.3370 C   0  0  0  0  0  3  0  0  0  0  0  0
  183.3880  170.7660  136.3090 N   0  0  0  0  0  2  0  0  0  0  0  0
  183.5700  171.9310  137.1680 C   0  0  1  0  0  3  0  0  0  0  0  0
  186.5610  171.8140  134.9610 C   0  0  0  0  0  1  0  0  0  0  0  0
  184.4170  170.5620  135.5890 N   0  0  0  0  0  0  0  0  0  0  0  0
  182.8250  174.2930  136.9710 C   0  0  0  0  0  3  0  0  0  0  0  0
  184.5120  176.0040  137.1770 C   0  0  0  0  0  0  0  0  0  0  0  0
  181.1400  172.6100  136.9170 N   0  0  0  0  0  1  0  0  0  0  0  0
  183.4430  178.6990  138.9840 C   0  0  2  0  0  3  0  0  0  0  0  0
  183.5730  180.2060  138.8120 C   0  0  0  0  0  1  0  0  0  0  0  0
  182.9600  178.3960  140.3750 C   0  0  0  0  0  0  0  0  0  0  0  0
  181.6400  177.7110  140.5800 C   0  0  0  0  0  1  0  0  0  0  0  0
  183.7390  178.7370  141.4110 C   0  0  0  0  0  3  0  0  0  0  0  0
  183.3750  178.4880  142.8410 C   0  0  0  0  0  2  0  0  0  0  0  0
  184.4420  178.9490  143.7120 N   0  0  0  0  0  2  0  0  0  0  0  0
  185.5870  178.0950  143.4530 C   0  0  0  0  0  2  0  0  0  0  0  0
  188.4430  177.4130  145.9090 C   0  0  0  0  0  0  0  0  0  0  0  0
  187.7290  177.4520  144.6900 C   0  0  0  0  0  0  0  0  0  0  0  0
  189.7440  176.9260  145.9630 O   0  0  0  0  0  1  0  0  0  0  0  0
  186.5370  178.3290  147.0900 C   0  0  0  0  0  3  0  0  0  0  0  0
  186.3960  177.9410  144.7000 C   0  0  0  0  0  0  0  0  0  0  0  0
  185.8200  178.3790  145.8970 C   0  0  0  0  0  3  0  0  0  0  0  0
  187.8450  177.8470  147.0950 C   0  0  0  0  0  3  0  0  0  0  0  0
  189.7490  177.4900  141.3770 C   0  0  0  0  0  1  0  0  0  0  0  0
  188.2570  175.7860  143.0720 O   0  0  0  0  0  0  0  0  0  0  0  0
  188.3780  176.9880  143.4360 C   0  0  0  0  0  0  0  0  0  0  0  0
  189.1230  177.9000  142.6230 N   0  0  0  0  0  2  0  0  0  0  0  0
  185.8440  178.8720  138.7270 O   0  0  0  0  0  0  0  0  0  0  0  0
  186.9800  178.0660  138.8450 C   0  0  0  0  0  2  0  0  0  0  0  0
  188.1080  178.7940  138.4640 O   0  0  0  0  0  0  0  0  0  0  0  0
  188.3150  178.4480  137.1290 C   0  0  0  0  0  2  0  0  0  0  0  0
  188.9800  177.0860  137.0570 C   0  0  0  0  0  2  0  0  0  0  0  0
  190.4170  177.2220  137.2410 N   0  0  0  0  0  2  0  0  0  0  0  0
  190.6200  175.3910  138.6830 O   0  0  0  0  0  0  0  0  0  0  0  0
  191.1800  176.3280  138.0550 C   0  0  0  0  0  0  0  0  0  0  0  0
  192.6500  176.5140  138.1700 C   0  0  0  0  0  1  0  0  0  0  0  0
  1  7  1  6  0  0  0
  1 34  1  0  0  0  0
  1 15  1  0  0  0  0
  2  5  1  0  0  0  0
  3  6  1  6  0  0  0
  3  2  1  0  0  0  0
  3  9  1  0  0  0  0
  4 12  2  0  0  0  0
  4  9  1  0  0  0  0
  5 13  2  0  0  0  0
  9  8  1  6  0  0  0
 10  6  1  0  0  0  0
 11  6  2  0  0  0  0
 11  8  1  0  0  0  0
 12  5  1  0  0  0  0
 13  7  2  0  0  0  0
 14  4  1  0  0  0  0
 15 16  1  1  0  0  0
 15 17  1  0  0  0  0
 17 18  1  0  0  0  0
 17 19  2  0  0  0  0
 19 20  1  0  0  0  0
 20 21  1  0  0  0  0
 22 21  1  0  0  0  0
 22 27  1  0  0  0  0
 23 25  1  0  0  0  0
 23 29  1  0  0  0  0
 24 27  1  0  0  0  0
 24 23  2  0  0  0  0
 26 29  2  0  0  0  0
 27 28  2  0  0  0  0
 28 26  1  0  0  0  0
 30 33  1  0  0  0  0
 31 32  2  0  0  0  0
 32 24  1  0  0  0  0
 33 32  1  0  0  0  0
 34 35  1  0  0  0  0
 36 35  1  0  0  0  0
 37 36  1  0  0  0  0
 38 37  1  0  0  0  0
 38 39  1  0  0  0  0
 39 41  1  0  0  0  0
 41 42  1  0  0  0  0
 41 40  2  0  0  0  0
M  END
>  <MODEL>
5

>  <REMARK>
 VINA RESULT:      -7.6      2.851      5.676
  Name = 
  14 active torsions:
  status: ('A' for Active; 'I' for Inactive)
    1  A    between atoms: C_2  and  C_22
    2  A    between atoms: C_5  and  C_6
    3  A    between atoms: C_5  and  C_19
    4  A    between atoms: N_11  and  C_34
    5  A    between atoms: N_11  and  C_36
    6  A    between atoms: N_14  and  C_28
    7  A    between atoms: C_16  and  O_23
    8  A    between atoms: C_16  and  C_28
    9  A    between atoms: C_18  and  C_19
   10  A    between atoms: C_19  and  O_41
   11  A    between atoms: O_23  and  C_33
   12  A    between atoms: C_24  and  C_36
   13  A    between atoms: C_26  and  C_34
   14  A    between atoms: C_33  and  O_41
                            x       y       z     vdW  Elec       q    Type
                         _______ _______ _______ _____ _____    ______ ____

>  <TORSDO>
F 14

$$$$
=
 OpenBabel10232412043D

 42 44  0  0  1  0  0  0  0  0999 V2000
  184.2780  178.3430  142.2850 C   0  0  2  0  0  3  0  0  0  0  0  0
  188.8490  177.8000  142.2810 N   0  0  0  0  0  2  0  0  0  0  0  0
  190.0370  177.2850  141.6830 C   0  0  2  0  0  3  0  0  0  0  0  0
  189.2280  177.8680  139.4180 C   0  0  0  0  0  0  0  0  0  0  0  0
  187.8350  178.2880  141.3980 C   0  0  0  0  0  0  0  0  0  0  0  0
  191.2570  177.5440  142.1090 C   0  0  0  0  0  0  0  0  0  0  0  0
  185.5620  179.1320  142.3630 C   0  0  0  0  0  3  0  0  0  0  0  0
  191.5360  177.1610  139.9590 N   0  0  0  0  0  2  0  0  0  0  0  0
  190.1170  176.9540  140.2310 C   0  0  1  0  0  3  0  0  0  0  0  0
  191.6000  178.1650  143.4200 C   0  0  0  0  0  1  0  0  0  0  0  0
  192.1660  177.4660  141.0220 N   0  0  0  0  0  0  0  0  0  0  0  0
  188.1250  178.4130  139.9540 C   0  0  0  0  0  3  0  0  0  0  0  0
  186.7030  178.7160  141.8780 C   0  0  0  0  0  0  0  0  0  0  0  0
  189.4470  177.9930  138.0180 N   0  0  0  0  0  1  0  0  0  0  0  0
  183.1850  178.9820  141.4020 C   0  0  2  0  0  3  0  0  0  0  0  0
  181.7980  178.7760  141.9940 C   0  0  0  0  0  1  0  0  0  0  0  0
  183.2150  178.4410  139.9990 C   0  0  0  0  0  0  0  0  0  0  0  0
  184.0570  179.1110  138.9520 C   0  0  0  0  0  1  0  0  0  0  0  0
  182.4890  177.3500  139.7210 C   0  0  0  0  0  3  0  0  0  0  0  0
  182.4350  176.7120  138.3670 C   0  0  0  0  0  2  0  0  0  0  0  0
  183.1600  175.4540  138.3830 N   0  0  0  0  0  2  0  0  0  0  0  0
  184.2250  175.5760  137.4040 C   0  0  0  0  0  2  0  0  0  0  0  0
  186.1690  172.5990  135.9860 C   0  0  0  0  0  0  0  0  0  0  0  0
  185.8870  173.9260  136.3820 C   0  0  0  0  0  0  0  0  0  0  0  0
  187.4120  172.2540  135.4660 O   0  0  0  0  0  1  0  0  0  0  0  0
  183.9290  171.9090  136.5950 C   0  0  0  0  0  3  0  0  0  0  0  0
  184.5940  174.2230  136.8880 C   0  0  0  0  0  0  0  0  0  0  0  0
  183.6350  173.2110  136.9950 C   0  0  0  0  0  3  0  0  0  0  0  0
  185.1940  171.6050  136.0930 C   0  0  0  0  0  3  0  0  0  0  0  0
  188.1040  176.7440  134.8980 C   0  0  0  0  0  1  0  0  0  0  0  0
  187.7260  175.1830  137.2260 O   0  0  0  0  0  0  0  0  0  0  0  0
  186.9360  174.9730  136.2650 C   0  0  0  0  0  0  0  0  0  0  0  0
  187.0740  175.7310  135.0590 N   0  0  0  0  0  2  0  0  0  0  0  0
  183.8000  178.1300  143.5820 O   0  0  0  0  0  0  0  0  0  0  0  0
  184.2410  179.2350  144.3160 C   0  0  0  0  0  2  0  0  0  0  0  0
  183.7300  179.1660  145.6120 O   0  0  0  0  0  0  0  0  0  0  0  0
  184.6140  178.3300  146.2940 C   0  0  0  0  0  2  0  0  0  0  0  0
  186.0080  178.9300  146.2580 C   0  0  0  0  0  2  0  0  0  0  0  0
  186.9180  178.1270  147.0600 N   0  0  0  0  0  2  0  0  0  0  0  0
  188.5860  178.0020  145.4250 O   0  0  0  0  0  0  0  0  0  0  0  0
  188.2020  177.7110  146.5890 C   0  0  0  0  0  0  0  0  0  0  0  0
  189.0890  176.9170  147.4790 C   0  0  0  0  0  1  0  0  0  0  0  0
  1  7  1  1  0  0  0
  1 34  1  0  0  0  0
  3  6  1  6  0  0  0
  3  2  1  0  0  0  0
  4 12  2  0  0  0  0
  5 13  2  0  0  0  0
  5  2  1  0  0  0  0
  6 10  1  0  0  0  0
  8  9  1  0  0  0  0
  8 11  1  0  0  0  0
  9  4  1  6  0  0  0
  9  3  1  0  0  0  0
 11  6  2  0  0  0  0
 12  5  1  0  0  0  0
 13  7  2  0  0  0  0
 14  4  1  0  0  0  0
 15 16  1  1  0  0  0
 15  1  1  0  0  0  0
 17 15  1  0  0  0  0
 18 17  1  0  0  0  0
 19 17  2  0  0  0  0
 20 21  1  0  0  0  0
 20 19  1  0  0  0  0
 22 21  1  0  0  0  0
 23 29  2  0  0  0  0
 23 24  1  0  0  0  0
 24 27  2  0  0  0  0
 25 23  1  0  0  0  0
 26 28  2  0  0  0  0
 27 28  1  0  0  0  0
 27 22  1  0  0  0  0
 29 26  1  0  0  0  0
 30 33  1  0  0  0  0
 32 24  1  0  0  0  0
 32 31  2  0  0  0  0
 33 32  1  0  0  0  0
 34 35  1  0  0  0  0
 35 36  1  0  0  0  0
 36 37  1  0  0  0  0
 38 37  1  0  0  0  0
 38 39  1  0  0  0  0
 40 41  2  0  0  0  0
 41 39  1  0  0  0  0
 41 42  1  0  0  0  0
M  END
>  <MODEL>
6

>  <REMARK>
 VINA RESULT:      -7.6      3.259      8.140
  Name = 
  14 active torsions:
  status: ('A' for Active; 'I' for Inactive)
    1  A    between atoms: C_2  and  C_22
    2  A    between atoms: C_5  and  C_6
    3  A    between atoms: C_5  and  C_19
    4  A    between atoms: N_11  and  C_34
    5  A    between atoms: N_11  and  C_36
    6  A    between atoms: N_14  and  C_28
    7  A    between atoms: C_16  and  O_23
    8  A    between atoms: C_16  and  C_28
    9  A    between atoms: C_18  and  C_19
   10  A    between atoms: C_19  and  O_41
   11  A    between atoms: O_23  and  C_33
   12  A    between atoms: C_24  and  C_36
   13  A    between atoms: C_26  and  C_34
   14  A    between atoms: C_33  and  O_41
                            x       y       z     vdW  Elec       q    Type
                         _______ _______ _______ _____ _____    ______ ____

>  <TORSDO>
F 14

$$$$
=
 OpenBabel10232412043D

 42 44  0  0  1  0  0  0  0  0999 V2000
  187.8720  176.8730  137.2560 C   0  0  2  0  0  3  0  0  0  0  0  0
  183.5210  175.8420  138.3520 N   0  0  0  0  0  2  0  0  0  0  0  0
  182.3710  176.0300  139.1740 C   0  0  2  0  0  3  0  0  0  0  0  0
  182.7240  178.4790  139.2230 C   0  0  0  0  0  0  0  0  0  0  0  0
  184.2920  177.0050  138.0370 C   0  0  0  0  0  0  0  0  0  0  0  0
  181.1990  175.4680  138.9540 C   0  0  0  0  0  0  0  0  0  0  0  0
  186.4930  176.7750  136.6530 C   0  0  0  0  0  3  0  0  0  0  0  0
  180.6840  177.3260  140.0160 N   0  0  0  0  0  2  0  0  0  0  0  0
  182.1420  177.2850  139.9460 C   0  0  1  0  0  3  0  0  0  0  0  0
  180.9450  174.3460  138.0080 C   0  0  0  0  0  1  0  0  0  0  0  0
  180.1710  176.2920  139.4800 N   0  0  0  0  0  0  0  0  0  0  0  0
  183.7780  178.3420  138.4030 C   0  0  0  0  0  3  0  0  0  0  0  0
  185.3860  176.8940  137.3400 C   0  0  0  0  0  0  0  0  0  0  0  0
  182.2850  179.7880  139.5680 N   0  0  0  0  0  1  0  0  0  0  0  0
  188.1090  178.1330  138.1150 C   0  0  2  0  0  3  0  0  0  0  0  0
  188.9820  179.1470  137.3890 C   0  0  0  0  0  1  0  0  0  0  0  0
  188.7350  177.7950  139.4400 C   0  0  0  0  0  0  0  0  0  0  0  0
  189.9060  176.8570  139.5010 C   0  0  0  0  0  1  0  0  0  0  0  0
  188.2310  178.3590  140.5460 C   0  0  0  0  0  3  0  0  0  0  0  0
  188.7640  178.1080  141.9220 C   0  0  0  0  0  2  0  0  0  0  0  0
  187.9580  177.1020  142.5900 N   0  0  0  0  0  2  0  0  0  0  0  0
  188.7290  176.6390  143.7290 C   0  0  0  0  0  2  0  0  0  0  0  0
  188.2810  178.0030  147.2780 C   0  0  0  0  0  0  0  0  0  0  0  0
  188.9140  177.4250  146.1530 C   0  0  0  0  0  0  0  0  0  0  0  0
  188.9880  178.2550  148.4480 O   0  0  0  0  0  1  0  0  0  0  0  0
  186.1690  178.0670  146.0940 C   0  0  0  0  0  3  0  0  0  0  0  0
  188.1360  177.1730  144.9920 C   0  0  0  0  0  0  0  0  0  0  0  0
  186.7770  177.5030  144.9750 C   0  0  0  0  0  3  0  0  0  0  0  0
  186.9210  178.3160  147.2420 C   0  0  0  0  0  3  0  0  0  0  0  0
  192.2670  175.7890  147.2200 C   0  0  0  0  0  1  0  0  0  0  0  0
  191.1730  177.7060  145.4520 O   0  0  0  0  0  0  0  0  0  0  0  0
  190.3630  177.0990  146.2050 C   0  0  0  0  0  0  0  0  0  0  0  0
  190.8540  176.1150  147.1210 N   0  0  0  0  0  2  0  0  0  0  0  0
  188.8190  176.7900  136.2310 O   0  0  0  0  0  0  0  0  0  0  0  0
  188.7840  175.4570  135.8130 C   0  0  0  0  0  2  0  0  0  0  0  0
  188.8400  174.6180  136.9260 O   0  0  0  0  0  0  0  0  0  0  0  0
  188.9600  173.3350  136.3930 C   0  0  0  0  0  2  0  0  0  0  0  0
  187.8740  172.4450  136.9710 C   0  0  0  0  0  2  0  0  0  0  0  0
  186.6360  172.6200  136.2270 N   0  0  0  0  0  2  0  0  0  0  0  0
  185.2970  172.9470  138.1170 O   0  0  0  0  0  0  0  0  0  0  0  0
  185.3830  172.8870  136.8620 C   0  0  0  0  0  0  0  0  0  0  0  0
  184.1670  173.0850  136.0310 C   0  0  0  0  0  1  0  0  0  0  0  0
  1  7  1  6  0  0  0
  1 15  1  0  0  0  0
  3  2  1  6  0  0  0
  3  9  1  0  0  0  0
  4 14  1  0  0  0  0
  5  2  1  0  0  0  0
  5 12  1  0  0  0  0
  6  3  1  0  0  0  0
  6 11  2  0  0  0  0
  7 13  2  0  0  0  0
  9  4  1  6  0  0  0
  9  8  1  0  0  0  0
 10  6  1  0  0  0  0
 11  8  1  0  0  0  0
 12  4  2  0  0  0  0
 13  5  2  0  0  0  0
 15 16  1  6  0  0  0
 15 17  1  0  0  0  0
 17 18  1  0  0  0  0
 17 19  2  0  0  0  0
 19 20  1  0  0  0  0
 20 21  1  0  0  0  0
 21 22  1  0  0  0  0
 22 27  1  0  0  0  0
 23 25  1  0  0  0  0
 24 32  1  0  0  0  0
 24 23  2  0  0  0  0
 26 29  2  0  0  0  0
 27 24  1  0  0  0  0
 28 27  2  0  0  0  0
 28 26  1  0  0  0  0
 29 23  1  0  0  0  0
 31 32  2  0  0  0  0
 32 33  1  0  0  0  0
 33 30  1  0  0  0  0
 34  1  1  0  0  0  0
 35 34  1  0  0  0  0
 35 36  1  0  0  0  0
 37 36  1  0  0  0  0
 37 38  1  0  0  0  0
 39 41  1  0  0  0  0
 39 38  1  0  0  0  0
 41 40  2  0  0  0  0
 42 41  1  0  0  0  0
M  END
>  <MODEL>
7

>  <REMARK>
 VINA RESULT:      -7.5      3.624      7.143
  Name = 
  14 active torsions:
  status: ('A' for Active; 'I' for Inactive)
    1  A    between atoms: C_2  and  C_22
    2  A    between atoms: C_5  and  C_6
    3  A    between atoms: C_5  and  C_19
    4  A    between atoms: N_11  and  C_34
    5  A    between atoms: N_11  and  C_36
    6  A    between atoms: N_14  and  C_28
    7  A    between atoms: C_16  and  O_23
    8  A    between atoms: C_16  and  C_28
    9  A    between atoms: C_18  and  C_19
   10  A    between atoms: C_19  and  O_41
   11  A    between atoms: O_23  and  C_33
   12  A    between atoms: C_24  and  C_36
   13  A    between atoms: C_26  and  C_34
   14  A    between atoms: C_33  and  O_41
                            x       y       z     vdW  Elec       q    Type
                         _______ _______ _______ _____ _____    ______ ____

>  <TORSDO>
F 14

$$$$
=
 OpenBabel10232412043D

 42 44  0  0  1  0  0  0  0  0999 V2000
  189.7320  177.3870  140.7610 C   0  0  2  0  0  3  0  0  0  0  0  0
  187.2940  178.1040  144.6000 N   0  0  0  0  0  2  0  0  0  0  0  0
  186.2190  178.7420  145.2860 C   0  0  2  0  0  3  0  0  0  0  0  0
  184.7140  178.4410  143.3440 C   0  0  0  0  0  0  0  0  0  0  0  0
  187.0560  177.7020  143.2490 C   0  0  0  0  0  0  0  0  0  0  0  0
  185.8660  178.4760  146.5280 C   0  0  0  0  0  0  0  0  0  0  0  0
  188.9850  176.6470  141.8430 C   0  0  0  0  0  3  0  0  0  0  0  0
  183.9900  179.1580  145.5980 N   0  0  0  0  0  2  0  0  0  0  0  0
  185.0210  179.2700  144.5700 C   0  0  1  0  0  3  0  0  0  0  0  0
  186.6750  177.6970  147.5070 C   0  0  0  0  0  1  0  0  0  0  0  0
  184.4800  178.7360  146.6940 N   0  0  0  0  0  0  0  0  0  0  0  0
  185.6890  177.7850  142.6930 C   0  0  0  0  0  3  0  0  0  0  0  0
  188.0150  177.1680  142.5480 C   0  0  0  0  0  0  0  0  0  0  0  0
  183.4230  178.5160  142.7530 N   0  0  0  0  0  1  0  0  0  0  0  0
  189.9540  176.5780  139.4660 C   0  0  2  0  0  3  0  0  0  0  0  0
  191.2920  176.9130  138.8220 C   0  0  0  0  0  1  0  0  0  0  0  0
  188.8500  176.8040  138.4710 C   0  0  0  0  0  0  0  0  0  0  0  0
  188.8360  176.0430  137.1770 C   0  0  0  0  0  1  0  0  0  0  0  0
  187.8860  177.6830  138.7760 C   0  0  0  0  0  3  0  0  0  0  0  0
  186.7330  177.9970  137.8740 C   0  0  0  0  0  2  0  0  0  0  0  0
  185.9010  179.0260  138.4720 N   0  0  0  0  0  2  0  0  0  0  0  0
  184.7890  178.3440  139.1090 C   0  0  0  0  0  2  0  0  0  0  0  0
  181.5530  178.4530  137.0670 C   0  0  0  0  0  0  0  0  0  0  0  0
  182.7990  177.9890  137.5450 C   0  0  0  0  0  0  0  0  0  0  0  0
  180.8280  177.7260  136.1290 O   0  0  0  0  0  1  0  0  0  0  0  0
  181.7290  180.4380  138.4420 C   0  0  0  0  0  3  0  0  0  0  0  0
  183.5030  178.7850  138.4870 C   0  0  0  0  0  0  0  0  0  0  0  0
  182.9570  179.9940  138.9280 C   0  0  0  0  0  3  0  0  0  0  0  0
  181.0300  179.6690  137.5140 C   0  0  0  0  0  3  0  0  0  0  0  0
  183.6280  174.2030  137.3560 C   0  0  0  0  0  1  0  0  0  0  0  0
  184.0490  176.6570  136.0160 O   0  0  0  0  0  0  0  0  0  0  0  0
  183.3430  176.6930  137.0610 C   0  0  0  0  0  0  0  0  0  0  0  0
  183.0910  175.4840  137.7840 N   0  0  0  0  0  2  0  0  0  0  0  0
  190.9520  177.8330  141.2790 O   0  0  0  0  0  0  0  0  0  0  0  0
  191.2660  176.9260  142.2970 C   0  0  0  0  0  2  0  0  0  0  0  0
  192.0060  177.5750  143.2860 O   0  0  0  0  0  0  0  0  0  0  0  0
  191.1610  178.5820  143.7530 C   0  0  0  0  0  2  0  0  0  0  0  0
  190.6710  178.2250  145.1440 C   0  0  0  0  0  2  0  0  0  0  0  0
  191.6010  177.3050  145.7810 N   0  0  0  0  0  2  0  0  0  0  0  0
  190.1260  176.6480  147.4730 O   0  0  0  0  0  0  0  0  0  0  0  0
  191.2580  176.5330  146.9340 C   0  0  0  0  0  0  0  0  0  0  0  0
  192.2540  175.5910  147.5090 C   0  0  0  0  0  1  0  0  0  0  0  0
  1 34  1  0  0  0  0
  1  7  1  1  0  0  0
  3  2  1  6  0  0  0
  3  6  1  0  0  0  0
  5  2  1  0  0  0  0
  6 11  2  0  0  0  0
  6 10  1  0  0  0  0
  7 13  2  0  0  0  0
  8 11  1  0  0  0  0
  9  4  1  6  0  0  0
  9  3  1  0  0  0  0
  9  8  1  0  0  0  0
 12  5  1  0  0  0  0
 12  4  2  0  0  0  0
 13  5  2  0  0  0  0
 14  4  1  0  0  0  0
 15 16  1  6  0  0  0
 15  1  1  0  0  0  0
 17 19  2  0  0  0  0
 17 15  1  0  0  0  0
 18 17  1  0  0  0  0
 20 21  1  0  0  0  0
 20 19  1  0  0  0  0
 21 22  1  0  0  0  0
 23 29  2  0  0  0  0
 23 24  1  0  0  0  0
 24 27  2  0  0  0  0
 25 23  1  0  0  0  0
 26 28  2  0  0  0  0
 27 28  1  0  0  0  0
 27 22  1  0  0  0  0
 29 26  1  0  0  0  0
 30 33  1  0  0  0  0
 31 32  2  0  0  0  0
 32 24  1  0  0  0  0
 32 33  1  0  0  0  0
 34 35  1  0  0  0  0
 35 36  1  0  0  0  0
 36 37  1  0  0  0  0
 37 38  1  0  0  0  0
 38 39  1  0  0  0  0
 39 41  1  0  0  0  0
 41 40  2  0  0  0  0
 41 42  1  0  0  0  0
M  END
>  <MODEL>
8

>  <REMARK>
 VINA RESULT:      -7.5      2.889     10.113
  Name = 
  14 active torsions:
  status: ('A' for Active; 'I' for Inactive)
    1  A    between atoms: C_2  and  C_22
    2  A    between atoms: C_5  and  C_6
    3  A    between atoms: C_5  and  C_19
    4  A    between atoms: N_11  and  C_34
    5  A    between atoms: N_11  and  C_36
    6  A    between atoms: N_14  and  C_28
    7  A    between atoms: C_16  and  O_23
    8  A    between atoms: C_16  and  C_28
    9  A    between atoms: C_18  and  C_19
   10  A    between atoms: C_19  and  O_41
   11  A    between atoms: O_23  and  C_33
   12  A    between atoms: C_24  and  C_36
   13  A    between atoms: C_26  and  C_34
   14  A    between atoms: C_33  and  O_41
                            x       y       z     vdW  Elec       q    Type
                         _______ _______ _______ _____ _____    ______ ____

>  <TORSDO>
F 14

$$$$
=
 OpenBabel10232412043D

 42 44  0  0  1  0  0  0  0  0999 V2000
  186.9460  177.5800  144.4050 C   0  0  2  0  0  3  0  0  0  0  0  0
  189.7030  176.8810  140.7840 N   0  0  0  0  0  2  0  0  0  0  0  0
  189.8830  176.5990  139.3980 C   0  0  2  0  0  3  0  0  0  0  0  0
  188.0000  178.0830  138.7840 C   0  0  0  0  0  0  0  0  0  0  0  0
  188.6070  177.7290  141.1380 C   0  0  0  0  0  0  0  0  0  0  0  0
  191.0480  176.6090  138.7810 C   0  0  0  0  0  0  0  0  0  0  0  0
  188.0910  178.2120  143.6510 C   0  0  0  0  0  3  0  0  0  0  0  0
  189.6200  177.1150  137.1850 N   0  0  0  0  0  2  0  0  0  0  0  0
  188.8240  176.8800  138.3860 C   0  0  1  0  0  3  0  0  0  0  0  0
  192.3780  176.6310  139.4520 C   0  0  0  0  0  1  0  0  0  0  0  0
  190.8580  176.9360  137.4130 N   0  0  0  0  0  0  0  0  0  0  0  0
  187.8420  178.4130  140.0750 C   0  0  0  0  0  3  0  0  0  0  0  0
  188.3520  177.9770  142.3910 C   0  0  0  0  0  0  0  0  0  0  0  0
  187.2190  178.7520  137.8010 N   0  0  0  0  0  1  0  0  0  0  0  0
  185.9630  178.5860  145.0380 C   0  0  2  0  0  3  0  0  0  0  0  0
  185.6430  178.2210  146.4810 C   0  0  0  0  0  1  0  0  0  0  0  0
  184.6840  178.6850  144.2530 C   0  0  0  0  0  0  0  0  0  0  0  0
  183.3680  178.7880  144.9700 C   0  0  0  0  0  1  0  0  0  0  0  0
  184.7550  178.6930  142.9150 C   0  0  0  0  0  3  0  0  0  0  0  0
  183.5580  178.7900  142.0210 C   0  0  0  0  0  2  0  0  0  0  0  0
  183.7360  177.9350  140.8610 N   0  0  0  0  0  2  0  0  0  0  0  0
  184.2590  178.7780  139.8000 C   0  0  0  0  0  2  0  0  0  0  0  0
  181.8380  178.2890  136.8760 C   0  0  0  0  0  0  0  0  0  0  0  0
  182.9010  178.0280  137.7700 C   0  0  0  0  0  0  0  0  0  0  0  0
  181.5060  177.3860  135.8720 O   0  0  0  0  0  1  0  0  0  0  0  0
  181.4150  180.4160  137.9530 C   0  0  0  0  0  3  0  0  0  0  0  0
  183.2070  178.9960  138.7630 C   0  0  0  0  0  0  0  0  0  0  0  0
  182.4570  180.1740  138.8460 C   0  0  0  0  0  3  0  0  0  0  0  0
  181.1080  179.4760  136.9710 C   0  0  0  0  0  3  0  0  0  0  0  0
  185.5880  175.4550  136.6660 C   0  0  0  0  0  1  0  0  0  0  0  0
  183.2870  175.7350  138.2870 O   0  0  0  0  0  0  0  0  0  0  0  0
  183.6690  176.7600  137.6580 C   0  0  0  0  0  0  0  0  0  0  0  0
  184.8280  176.6840  136.8220 N   0  0  0  0  0  2  0  0  0  0  0  0
  187.4670  176.7210  145.3770 O   0  0  0  0  0  0  0  0  0  0  0  0
  188.4760  177.4550  146.0070 C   0  0  0  0  0  2  0  0  0  0  0  0
  188.8810  176.7920  147.1650 O   0  0  0  0  0  0  0  0  0  0  0  0
  190.1650  177.2740  147.4150 C   0  0  0  0  0  2  0  0  0  0  0  0
  191.1610  176.5380  146.5360 C   0  0  0  0  0  2  0  0  0  0  0  0
  191.6070  177.4040  145.4550 N   0  0  0  0  0  2  0  0  0  0  0  0
  191.1050  175.8840  143.7480 O   0  0  0  0  0  0  0  0  0  0  0  0
  191.5350  177.0210  144.0790 C   0  0  0  0  0  0  0  0  0  0  0  0
  191.9820  177.9730  143.0280 C   0  0  0  0  0  1  0  0  0  0  0  0
  1  7  1  1  0  0  0
  1 15  1  0  0  0  0
  1 34  1  0  0  0  0
  2  5  1  0  0  0  0
  3  6  1  6  0  0  0
  3  2  1  0  0  0  0
  4 12  2  0  0  0  0
  5 13  2  0  0  0  0
  6 10  1  0  0  0  0
  8 11  1  0  0  0  0
  9  8  1  6  0  0  0
  9  4  1  0  0  0  0
  9  3  1  0  0  0  0
 11  6  2  0  0  0  0
 12  5  1  0  0  0  0
 13  7  2  0  0  0  0
 14  4  1  0  0  0  0
 15 16  1  1  0  0  0
 17 18  1  0  0  0  0
 17 15  1  0  0  0  0
 19 17  2  0  0  0  0
 20 19  1  0  0  0  0
 21 20  1  0  0  0  0
 22 21  1  0  0  0  0
 23 29  2  0  0  0  0
 23 24  1  0  0  0  0
 24 27  2  0  0  0  0
 25 23  1  0  0  0  0
 26 28  2  0  0  0  0
 27 28  1  0  0  0  0
 27 22  1  0  0  0  0
 29 26  1  0  0  0  0
 30 33  1  0  0  0  0
 32 24  1  0  0  0  0
 32 31  2  0  0  0  0
 33 32  1  0  0  0  0
 34 35  1  0  0  0  0
 35 36  1  0  0  0  0
 36 37  1  0  0  0  0
 38 37  1  0  0  0  0
 39 38  1  0  0  0  0
 40 41  2  0  0  0  0
 41 39  1  0  0  0  0
 42 41  1  0  0  0  0
M  END
>  <MODEL>
9

>  <REMARK>
 VINA RESULT:      -7.5      2.642      8.509
  Name = 
  14 active torsions:
  status: ('A' for Active; 'I' for Inactive)
    1  A    between atoms: C_2  and  C_22
    2  A    between atoms: C_5  and  C_6
    3  A    between atoms: C_5  and  C_19
    4  A    between atoms: N_11  and  C_34
    5  A    between atoms: N_11  and  C_36
    6  A    between atoms: N_14  and  C_28
    7  A    between atoms: C_16  and  O_23
    8  A    between atoms: C_16  and  C_28
    9  A    between atoms: C_18  and  C_19
   10  A    between atoms: C_19  and  O_41
   11  A    between atoms: O_23  and  C_33
   12  A    between atoms: C_24  and  C_36
   13  A    between atoms: C_26  and  C_34
   14  A    between atoms: C_33  and  O_41
                            x       y       z     vdW  Elec       q    Type
                         _______ _______ _______ _____ _____    ______ ____

>  <TORSDO>
F 14

$$$$
