=
 OpenBabel10232409113D

 59 66  0  0  1  0  0  0  0  0999 V2000
  187.2980  178.0380  146.7320 C   0  0  0  0  0  0  0  0  0  0  0  0
  186.4050  178.3740  145.6620 N   0  0  0  0  0  2  0  0  0  0  0  0
  186.8850  178.0590  147.9240 O   0  0  0  0  0  0  0  0  0  0  0  0
  189.2160  177.9140  145.1620 C   0  0  0  0  0  3  0  0  0  0  0  0
  188.7060  177.7360  146.4500 C   0  0  0  0  0  0  0  0  0  0  0  0
  190.5270  177.5330  144.8620 C   0  0  0  0  0  0  0  0  0  0  0  0
  189.5220  177.1780  147.4380 C   0  0  0  0  0  3  0  0  0  0  0  0
  191.3540  177.0130  145.8590 C   0  0  0  0  0  3  0  0  0  0  0  0
  190.8470  176.8110  147.1500 C   0  0  0  0  0  3  0  0  0  0  0  0
  191.0150  177.7710  143.5390 N   0  0  0  0  0  2  0  0  0  0  0  0
  191.2570  176.7070  142.5700 C   0  0  1  0  0  3  0  0  0  0  0  0
  190.4990  175.4720  143.0040 C   0  0  0  0  0  1  0  0  0  0  0  0
  189.5970  177.7210  140.9950 N   0  0  0  0  0  0  0  0  0  0  0  0
  189.4500  177.7910  139.6860 N   0  0  0  0  0  0  0  0  0  0  0  0
  191.3980  176.7560  140.0940 N   0  0  0  0  0  2  0  0  0  0  0  0
  190.7780  177.1210  141.2270 C   0  0  0  0  0  0  0  0  0  0  0  0
  190.5440  177.2150  139.1550 C   0  0  0  0  0  0  0  0  0  0  0  0
  190.6570  176.8830  137.7140 C   0  0  0  0  0  2  0  0  0  0  0  0
  191.0560  175.4290  137.5900 C   0  0  0  0  0  2  0  0  0  0  0  0
  191.5940  175.6800  135.2730 O   0  0  0  0  0  1  0  0  0  0  0  0
  192.1010  175.2600  136.5110 C   0  0  1  0  0  3  0  0  0  0  0  0
  193.3660  176.0490  136.9200 C   0  0  2  0  0  3  0  0  0  0  0  0
  195.4430  175.1640  135.5740 C   0  0  0  0  0  0  0  0  0  0  0  0
  194.3340  176.1710  135.7890 C   0  0  1  0  0  0  0  0  0  0  0  0
  194.9210  177.4410  135.9150 O   0  0  0  0  0  1  0  0  0  0  0  0
  194.7060  175.3120  136.9320 C   0  0  2  0  0  0  0  0  0  0  0  0
  196.4420  174.6510  134.8610 C   0  0  0  0  0  2  0  0  0  0  0  0
  194.3530  173.8470  137.2520 C   0  0  0  0  0  2  0  0  0  0  0  0
  196.2340  174.1900  138.8250 C   0  0  0  0  0  1  0  0  0  0  0  0
  195.3910  172.0030  138.4110 O   0  0  0  0  0  1  0  0  0  0  0  0
  195.0170  173.3430  138.5320 C   0  0  2  0  0  3  0  0  0  0  0  0
  185.1400  178.7750  145.9120 O   0  0  0  0  0  0  0  0  0  0  0  0
  184.5090  178.9070  144.6640 C   0  0  0  0  0  2  0  0  0  0  0  0
  183.0070  179.1380  144.8200 C   0  0  0  0  0  2  0  0  0  0  0  0
  180.9820  179.0710  143.3500 C   0  0  0  0  0  2  0  0  0  0  0  0
  182.2190  179.1930  142.4840 C   0  0  1  0  0  3  0  0  0  0  0  0
  182.2680  178.3600  143.7440 C   0  0  1  0  0  3  0  0  0  0  0  0
  180.9250  177.9060  140.8020 F   0  0  0  0  0  0  0  0  0  0  0  0
  182.1830  178.3310  141.2110 C   0  0  1  0  0  3  0  0  0  0  0  0
  184.4490  179.1030  140.2900 C   0  0  0  0  0  1  0  0  0  0  0  0
  183.0920  178.6250  140.0840 N   0  0  0  0  0  0  0  0  0  0  0  0
  181.6810  179.5700  138.2710 C   0  0  0  0  0  3  0  0  0  0  0  0
  182.4780  177.5140  136.5430 C   0  0  0  0  0  0  0  0  0  0  0  0
  181.1840  179.5220  136.9700 C   0  0  0  0  0  3  0  0  0  0  0  0
  182.9650  177.5600  137.8630 C   0  0  0  0  0  3  0  0  0  0  0  0
  181.5880  178.5020  136.1030 C   0  0  0  0  0  3  0  0  0  0  0  0
  182.5760  178.5840  138.7320 C   0  0  0  0  0  0  0  0  0  0  0  0
  182.9320  176.4680  135.6080 C   0  0  0  0  0  0  0  0  0  0  0  0
  182.9400  176.7000  134.3650 O   0  0  0  0  0  0  0  0  0  0  0  0
  182.6160  174.5260  137.1090 O   0  0  0  0  0  1  0  0  0  0  0  0
  183.7230  172.8480  135.3510 O   0  0  0  0  0  1  0  0  0  0  0  0
  185.9100  175.8300  135.6520 C   0  0  0  0  0  2  0  0  0  0  0  0
  183.3760  175.1190  136.1030 C   0  0  1  0  0  0  0  0  0  0  0  0
  186.8990  174.3450  137.2960 N   0  0  0  0  0  0  0  0  0  0  0  0
  184.9950  173.0620  137.8230 O   0  0  0  0  0  0  0  0  0  0  0  0
  184.0350  174.1820  135.0700 C   0  0  1  0  0  3  0  0  0  0  0  0
  184.8680  174.8470  136.1680 C   0  0  1  0  0  0  0  0  0  0  0  0
  185.5440  173.9800  137.1520 C   0  0  0  0  0  0  0  0  0  0  0  0
  187.2070  175.4520  136.3940 C   0  0  0  0  0  3  0  0  0  0  0  0
  1  3  2  0  0  0  0
  2 32  1  0  0  0  0
  2  1  1  0  0  0  0
  4  5  1  0  0  0  0
  5  1  1  0  0  0  0
  5  7  2  0  0  0  0
  6  4  2  0  0  0  0
  6  8  1  0  0  0  0
  8  9  2  0  0  0  0
  9  7  1  0  0  0  0
 10  6  1  0  0  0  0
 11 12  1  1  0  0  0
 11 10  1  0  0  0  0
 13 16  2  0  0  0  0
 14 13  1  0  0  0  0
 15 16  1  0  0  0  0
 16 11  1  0  0  0  0
 17 14  2  0  0  0  0
 17 15  1  0  0  0  0
 18 17  1  0  0  0  0
 19 18  1  0  0  0  0
 21 20  1  6  0  0  0
 21 19  1  0  0  0  0
 22 21  1  6  0  0  0
 22 26  1  0  0  0  0
 23 24  1  0  0  0  0
 23 26  1  0  0  0  0
 24 25  1  1  0  0  0
 24 22  1  0  0  0  0
 24 26  1  0  0  0  0
 26 28  1  6  0  0  0
 27 23  2  0  0  0  0
 28 31  1  0  0  0  0
 30 31  1  0  0  0  0
 31 29  1  6  0  0  0
 33 34  1  0  0  0  0
 33 32  1  0  0  0  0
 35 37  1  0  0  0  0
 36 39  1  6  0  0  0
 36 35  1  0  0  0  0
 36 37  1  0  0  0  0
 37 34  1  1  0  0  0
 39 38  1  6  0  0  0
 41 40  1  0  0  0  0
 41 39  1  0  0  0  0
 42 47  1  0  0  0  0
 43 45  1  0  0  0  0
 44 42  2  0  0  0  0
 45 47  2  0  0  0  0
 46 43  2  0  0  0  0
 46 44  1  0  0  0  0
 47 41  1  0  0  0  0
 48 53  1  0  0  0  0
 48 43  1  0  0  0  0
 49 48  2  0  0  0  0
 52 59  1  0  0  0  0
 53 57  1  0  0  0  0
 53 50  1  1  0  0  0
 56 51  1  1  0  0  0
 56 53  1  0  0  0  0
 56 57  1  0  0  0  0
 57 52  1  6  0  0  0
 57 58  1  0  0  0  0
 58 54  1  0  0  0  0
 58 55  2  0  0  0  0
 59 54  2  0  0  0  0
M  END
>  <MODEL>
1

>  <REMARK>
 VINA RESULT:      -8.3      0.000      0.000
  Name = 
  19 active torsions:
  status: ('A' for Active; 'I' for Inactive)
    1  A    between atoms: C_1  and  C_39
    2  A    between atoms: C_1  and  C_43
    3  A    between atoms: C_3  and  C_57
    4  A    between atoms: N_5  and  C_14
    5  A    between atoms: N_5  and  C_32
    6  A    between atoms: C_12  and  C_13
    7  A    between atoms: C_19  and  C_26
    8  A    between atoms: C_22  and  C_26
    9  A    between atoms: N_23  and  O_51
   10  A    between atoms: C_27  and  C_32
   11  A    between atoms: C_28  and  N_36
   12  A    between atoms: C_28  and  C_44
   13  A    between atoms: N_36  and  C_58
   14  A    between atoms: C_43  and  C_57
   15  A    between atoms: C_46  and  C_49
   16  A    between atoms: C_49  and  C_55
   17  A    between atoms: C_50  and  C_53
   18  A    between atoms: C_50  and  C_56
   19  A    between atoms: O_51  and  C_53
                            x       y       z     vdW  Elec       q    Type
                         _______ _______ _______ _____ _____    ______ ____

>  <TORSDO>
F 19

$$$$
=
 OpenBabel10232409113D

 59 66  0  0  1  0  0  0  0  0999 V2000
  185.6140  178.6750  145.8010 C   0  0  0  0  0  0  0  0  0  0  0  0
  185.0500  178.5400  144.4900 N   0  0  0  0  0  2  0  0  0  0  0  0
  184.9740  179.2890  146.7000 O   0  0  0  0  0  0  0  0  0  0  0  0
  187.6910  177.5270  145.0760 C   0  0  0  0  0  3  0  0  0  0  0  0
  186.9580  178.1610  146.0830 C   0  0  0  0  0  0  0  0  0  0  0  0
  188.9280  176.9450  145.3620 C   0  0  0  0  0  0  0  0  0  0  0  0
  187.4800  178.2140  147.3780 C   0  0  0  0  0  3  0  0  0  0  0  0
  189.4670  177.0330  146.6470 C   0  0  0  0  0  3  0  0  0  0  0  0
  188.7330  177.6490  147.6690 C   0  0  0  0  0  3  0  0  0  0  0  0
  189.6570  176.3410  144.2890 N   0  0  0  0  0  2  0  0  0  0  0  0
  190.9570  176.8200  143.8330 C   0  0  1  0  0  3  0  0  0  0  0  0
  192.0080  175.7930  144.1970 C   0  0  0  0  0  1  0  0  0  0  0  0
  189.8910  176.7340  141.5700 N   0  0  0  0  0  0  0  0  0  0  0  0
  190.3010  176.8590  140.3220 N   0  0  0  0  0  0  0  0  0  0  0  0
  192.0610  177.2590  141.6560 N   0  0  0  0  0  2  0  0  0  0  0  0
  190.9470  176.9990  142.3600 C   0  0  0  0  0  0  0  0  0  0  0  0
  191.6060  177.1840  140.3870 C   0  0  0  0  0  0  0  0  0  0  0  0
  192.4920  177.1850  139.1980 C   0  0  0  0  0  2  0  0  0  0  0  0
  191.7150  176.6280  138.0250 C   0  0  0  0  0  2  0  0  0  0  0  0
  190.8000  174.4180  138.0480 O   0  0  0  0  0  1  0  0  0  0  0  0
  191.9840  175.1480  137.8700 C   0  0  1  0  0  3  0  0  0  0  0  0
  192.6150  174.9030  136.4800 C   0  0  2  0  0  3  0  0  0  0  0  0
  193.3000  172.3760  136.2460 C   0  0  0  0  0  0  0  0  0  0  0  0
  192.3460  173.5200  135.9840 C   0  0  1  0  0  0  0  0  0  0  0  0
  192.1740  173.6330  134.5940 O   0  0  0  0  0  1  0  0  0  0  0  0
  193.7310  173.8620  136.3660 C   0  0  2  0  0  0  0  0  0  0  0  0
  193.6260  171.0870  136.2140 C   0  0  0  0  0  2  0  0  0  0  0  0
  194.4270  173.8720  137.7400 C   0  0  0  0  0  2  0  0  0  0  0  0
  196.3100  174.3500  136.2040 C   0  0  0  0  0  1  0  0  0  0  0  0
  196.6020  172.8720  138.0480 O   0  0  0  0  0  1  0  0  0  0  0  0
  195.9430  174.0340  137.6350 C   0  0  2  0  0  3  0  0  0  0  0  0
  183.8680  179.1140  144.1780 O   0  0  0  0  0  0  0  0  0  0  0  0
  183.7360  179.0250  142.7840 C   0  0  0  0  0  2  0  0  0  0  0  0
  184.8200  178.1350  142.1770 C   0  0  0  0  0  2  0  0  0  0  0  0
  187.0940  179.0090  141.5990 C   0  0  0  0  0  2  0  0  0  0  0  0
  186.6480  178.0390  140.5250 C   0  0  1  0  0  3  0  0  0  0  0  0
  185.6330  178.9460  141.1810 C   0  0  1  0  0  3  0  0  0  0  0  0
  188.3300  178.7870  138.8600 F   0  0  0  0  0  0  0  0  0  0  0  0
  186.9940  178.4840  139.0940 C   0  0  1  0  0  3  0  0  0  0  0  0
  184.9300  178.0960  137.6220 C   0  0  0  0  0  1  0  0  0  0  0  0
  186.3300  177.8550  137.9350 N   0  0  0  0  0  0  0  0  0  0  0  0
  188.2260  177.1720  136.4830 C   0  0  0  0  0  3  0  0  0  0  0  0
  187.2410  174.5510  136.3840 C   0  0  0  0  0  0  0  0  0  0  0  0
  188.9030  176.2010  135.7460 C   0  0  0  0  0  3  0  0  0  0  0  0
  186.5550  175.5400  137.1150 C   0  0  0  0  0  3  0  0  0  0  0  0
  188.4180  174.8900  135.7040 C   0  0  0  0  0  3  0  0  0  0  0  0
  187.0410  176.8500  137.1730 C   0  0  0  0  0  0  0  0  0  0  0  0
  186.7620  173.1560  136.3690 C   0  0  0  0  0  0  0  0  0  0  0  0
  187.5670  172.2200  136.0950 O   0  0  0  0  0  0  0  0  0  0  0  0
  184.9040  172.9160  137.9860 O   0  0  0  0  0  1  0  0  0  0  0  0
  183.0740  173.5330  136.1420 O   0  0  0  0  0  1  0  0  0  0  0  0
  185.3850  171.0160  134.6950 C   0  0  0  0  0  2  0  0  0  0  0  0
  185.3250  172.8220  136.6610 C   0  0  1  0  0  0  0  0  0  0  0  0
  183.6300  169.5970  135.5840 N   0  0  0  0  0  0  0  0  0  0  0  0
  182.8540  171.0070  137.3030 O   0  0  0  0  0  0  0  0  0  0  0  0
  184.2960  173.1670  135.5660 C   0  0  1  0  0  3  0  0  0  0  0  0
  184.6800  171.7130  135.8500 C   0  0  1  0  0  0  0  0  0  0  0  0
  183.6280  170.7940  136.3290 C   0  0  0  0  0  0  0  0  0  0  0  0
  184.6580  169.6660  134.5480 C   0  0  0  0  0  3  0  0  0  0  0  0
  1  5  1  0  0  0  0
  1  3  2  0  0  0  0
  2  1  1  0  0  0  0
  4  6  2  0  0  0  0
  4  5  1  0  0  0  0
  5  7  2  0  0  0  0
  6  8  1  0  0  0  0
  7  9  1  0  0  0  0
  8  9  2  0  0  0  0
 10  6  1  0  0  0  0
 11 12  1  6  0  0  0
 11 10  1  0  0  0  0
 13 16  2  0  0  0  0
 14 17  2  0  0  0  0
 14 13  1  0  0  0  0
 15 16  1  0  0  0  0
 16 11  1  0  0  0  0
 17 15  1  0  0  0  0
 18 17  1  0  0  0  0
 19 18  1  0  0  0  0
 21 19  1  0  0  0  0
 21 20  1  6  0  0  0
 22 21  1  1  0  0  0
 23 26  1  0  0  0  0
 24 25  1  6  0  0  0
 24 23  1  0  0  0  0
 24 26  1  0  0  0  0
 24 22  1  0  0  0  0
 26 22  1  0  0  0  0
 26 28  1  1  0  0  0
 27 23  2  0  0  0  0
 31 29  1  6  0  0  0
 31 28  1  0  0  0  0
 31 30  1  0  0  0  0
 32  2  1  0  0  0  0
 33 32  1  0  0  0  0
 34 33  1  0  0  0  0
 36 39  1  6  0  0  0
 36 37  1  0  0  0  0
 36 35  1  0  0  0  0
 37 35  1  0  0  0  0
 37 34  1  1  0  0  0
 39 38  1  6  0  0  0
 40 41  1  0  0  0  0
 41 39  1  0  0  0  0
 42 47  1  0  0  0  0
 43 45  1  0  0  0  0
 44 42  2  0  0  0  0
 45 47  2  0  0  0  0
 46 44  1  0  0  0  0
 46 43  2  0  0  0  0
 47 41  1  0  0  0  0
 48 43  1  0  0  0  0
 48 53  1  0  0  0  0
 49 48  2  0  0  0  0
 53 50  1  1  0  0  0
 54 58  1  0  0  0  0
 56 57  1  0  0  0  0
 56 51  1  1  0  0  0
 56 53  1  0  0  0  0
 57 52  1  6  0  0  0
 57 58  1  0  0  0  0
 57 53  1  0  0  0  0
 58 55  2  0  0  0  0
 59 52  1  0  0  0  0
 59 54  2  0  0  0  0
M  END
>  <MODEL>
2

>  <REMARK>
 VINA RESULT:      -8.2      2.324      3.833
  Name = 
  19 active torsions:
  status: ('A' for Active; 'I' for Inactive)
    1  A    between atoms: C_1  and  C_39
    2  A    between atoms: C_1  and  C_43
    3  A    between atoms: C_3  and  C_57
    4  A    between atoms: N_5  and  C_14
    5  A    between atoms: N_5  and  C_32
    6  A    between atoms: C_12  and  C_13
    7  A    between atoms: C_19  and  C_26
    8  A    between atoms: C_22  and  C_26
    9  A    between atoms: N_23  and  O_51
   10  A    between atoms: C_27  and  C_32
   11  A    between atoms: C_28  and  N_36
   12  A    between atoms: C_28  and  C_44
   13  A    between atoms: N_36  and  C_58
   14  A    between atoms: C_43  and  C_57
   15  A    between atoms: C_46  and  C_49
   16  A    between atoms: C_49  and  C_55
   17  A    between atoms: C_50  and  C_53
   18  A    between atoms: C_50  and  C_56
   19  A    between atoms: O_51  and  C_53
                            x       y       z     vdW  Elec       q    Type
                         _______ _______ _______ _____ _____    ______ ____

>  <TORSDO>
F 19

$$$$
=
 OpenBabel10232409113D

 59 66  0  0  1  0  0  0  0  0999 V2000
  188.0340  175.1440  135.6910 C   0  0  0  0  0  0  0  0  0  0  0  0
  187.2300  174.1610  136.3560 N   0  0  0  0  0  2  0  0  0  0  0  0
  188.6560  174.8370  134.6370 O   0  0  0  0  0  0  0  0  0  0  0  0
  188.9120  176.6570  137.4520 C   0  0  0  0  0  3  0  0  0  0  0  0
  188.1890  176.4830  136.2690 C   0  0  0  0  0  0  0  0  0  0  0  0
  188.9780  177.9120  138.0620 C   0  0  0  0  0  0  0  0  0  0  0  0
  187.5390  177.5800  135.6970 C   0  0  0  0  0  3  0  0  0  0  0  0
  188.3620  179.0160  137.4690 C   0  0  0  0  0  3  0  0  0  0  0  0
  187.6180  178.8500  136.2930 C   0  0  0  0  0  3  0  0  0  0  0  0
  189.7610  178.0460  139.2510 N   0  0  0  0  0  2  0  0  0  0  0  0
  190.5310  176.9520  139.8330 C   0  0  1  0  0  3  0  0  0  0  0  0
  191.9790  177.3780  139.9380 C   0  0  0  0  0  1  0  0  0  0  0  0
  190.5900  175.7480  142.0260 N   0  0  0  0  0  0  0  0  0  0  0  0
  189.7800  175.6170  143.0600 N   0  0  0  0  0  0  0  0  0  0  0  0
  188.8280  177.0650  141.6330 N   0  0  0  0  0  2  0  0  0  0  0  0
  190.0210  176.6350  141.1900 C   0  0  0  0  0  0  0  0  0  0  0  0
  188.7280  176.4210  142.8160 C   0  0  0  0  0  0  0  0  0  0  0  0
  187.4850  176.3850  143.6250 C   0  0  0  0  0  2  0  0  0  0  0  0
  187.0260  177.8070  143.8550 C   0  0  0  0  0  2  0  0  0  0  0  0
  185.8440  178.4370  145.8370 O   0  0  0  0  0  1  0  0  0  0  0  0
  187.1180  178.1600  145.3220 C   0  0  1  0  0  3  0  0  0  0  0  0
  187.8060  176.9940  146.0690 C   0  0  2  0  0  3  0  0  0  0  0  0
  189.3400  177.9420  147.9820 C   0  0  0  0  0  0  0  0  0  0  0  0
  188.0450  177.3200  147.5060 C   0  0  1  0  0  0  0  0  0  0  0  0
  187.8560  176.1200  148.2130 O   0  0  0  0  0  1  0  0  0  0  0  0
  189.2180  177.2170  146.6140 C   0  0  2  0  0  0  0  0  0  0  0  0
  190.0990  178.5040  148.9180 C   0  0  0  0  0  2  0  0  0  0  0  0
  189.8550  178.2470  145.6610 C   0  0  0  0  0  2  0  0  0  0  0  0
  191.6810  178.4900  144.0050 C   0  0  0  0  0  1  0  0  0  0  0  0
  191.5890  176.5840  145.4300 O   0  0  0  0  0  1  0  0  0  0  0  0
  191.3270  177.9560  145.3740 C   0  0  2  0  0  3  0  0  0  0  0  0
  187.1740  172.8880  135.9080 O   0  0  0  0  0  0  0  0  0  0  0  0
  185.9140  172.3900  136.2760 C   0  0  0  0  0  2  0  0  0  0  0  0
  185.5640  171.1260  135.4940 C   0  0  0  0  0  2  0  0  0  0  0  0
  183.4900  169.8920  136.1620 C   0  0  0  0  0  2  0  0  0  0  0  0
  183.4060  171.3150  136.6720 C   0  0  1  0  0  3  0  0  0  0  0  0
  184.0540  171.0370  135.3360 C   0  0  1  0  0  3  0  0  0  0  0  0
  181.2180  171.9390  137.6660 F   0  0  0  0  0  0  0  0  0  0  0  0
  182.0130  171.9540  136.5270 C   0  0  1  0  0  3  0  0  0  0  0  0
  181.0040  173.1760  134.5100 C   0  0  0  0  0  1  0  0  0  0  0  0
  181.8310  173.1690  135.7060 N   0  0  0  0  0  0  0  0  0  0  0  0
  183.4900  174.8970  135.0510 C   0  0  0  0  0  3  0  0  0  0  0  0
  183.2550  176.1130  137.5630 C   0  0  0  0  0  0  0  0  0  0  0  0
  184.2450  176.0300  135.3490 C   0  0  0  0  0  3  0  0  0  0  0  0
  182.5060  174.9600  137.2610 C   0  0  0  0  0  3  0  0  0  0  0  0
  184.1220  176.6440  136.5990 C   0  0  0  0  0  3  0  0  0  0  0  0
  182.6140  174.3480  136.0080 C   0  0  0  0  0  0  0  0  0  0  0  0
  183.1000  176.7940  138.8630 C   0  0  0  0  0  0  0  0  0  0  0  0
  182.1850  176.4280  139.6560 O   0  0  0  0  0  0  0  0  0  0  0  0
  185.3480  177.8270  138.9160 O   0  0  0  0  0  1  0  0  0  0  0  0
  184.3330  180.2970  138.9080 O   0  0  0  0  0  1  0  0  0  0  0  0
  182.5110  178.2950  141.4470 C   0  0  0  0  0  2  0  0  0  0  0  0
  184.0020  177.9290  139.2620 C   0  0  1  0  0  0  0  0  0  0  0  0
  184.2590  179.3000  142.7960 N   0  0  0  0  0  0  0  0  0  0  0  0
  185.8850  179.6060  141.1200 O   0  0  0  0  0  0  0  0  0  0  0  0
  183.3800  179.3400  139.2730 C   0  0  1  0  0  3  0  0  0  0  0  0
  183.7200  178.6230  140.5820 C   0  0  1  0  0  0  0  0  0  0  0  0
  184.7310  179.2330  141.4690 C   0  0  0  0  0  0  0  0  0  0  0  0
  182.9000  178.7690  142.8600 C   0  0  0  0  0  3  0  0  0  0  0  0
  1  5  1  0  0  0  0
  1  2  1  0  0  0  0
  3  1  2  0  0  0  0
  4  6  1  0  0  0  0
  5  4  2  0  0  0  0
  6 10  1  0  0  0  0
  7  5  1  0  0  0  0
  7  9  2  0  0  0  0
  8  6  2  0  0  0  0
  9  8  1  0  0  0  0
 10 11  1  0  0  0  0
 11 12  1  1  0  0  0
 11 16  1  0  0  0  0
 13 14  1  0  0  0  0
 15 17  1  0  0  0  0
 16 15  1  0  0  0  0
 16 13  2  0  0  0  0
 17 14  2  0  0  0  0
 17 18  1  0  0  0  0
 18 19  1  0  0  0  0
 19 21  1  0  0  0  0
 21 20  1  1  0  0  0
 22 21  1  6  0  0  0
 22 26  1  0  0  0  0
 22 24  1  0  0  0  0
 23 27  2  0  0  0  0
 24 23  1  0  0  0  0
 24 25  1  1  0  0  0
 26 28  1  6  0  0  0
 26 24  1  0  0  0  0
 26 23  1  0  0  0  0
 31 29  1  6  0  0  0
 31 30  1  0  0  0  0
 31 28  1  0  0  0  0
 32 33  1  0  0  0  0
 32  2  1  0  0  0  0
 34 33  1  0  0  0  0
 35 36  1  0  0  0  0
 36 39  1  6  0  0  0
 37 34  1  1  0  0  0
 37 35  1  0  0  0  0
 37 36  1  0  0  0  0
 39 38  1  1  0  0  0
 40 41  1  0  0  0  0
 41 47  1  0  0  0  0
 41 39  1  0  0  0  0
 42 44  2  0  0  0  0
 42 47  1  0  0  0  0
 43 48  1  0  0  0  0
 44 46  1  0  0  0  0
 45 43  1  0  0  0  0
 46 43  2  0  0  0  0
 47 45  2  0  0  0  0
 48 53  1  0  0  0  0
 48 49  2  0  0  0  0
 52 59  1  0  0  0  0
 53 50  1  6  0  0  0
 53 56  1  0  0  0  0
 53 57  1  0  0  0  0
 54 59  2  0  0  0  0
 55 58  2  0  0  0  0
 56 51  1  6  0  0  0
 56 57  1  0  0  0  0
 57 52  1  1  0  0  0
 57 58  1  0  0  0  0
 58 54  1  0  0  0  0
M  END
>  <MODEL>
3

>  <REMARK>
 VINA RESULT:      -8.1      3.197      8.749
  Name = 
  19 active torsions:
  status: ('A' for Active; 'I' for Inactive)
    1  A    between atoms: C_1  and  C_39
    2  A    between atoms: C_1  and  C_43
    3  A    between atoms: C_3  and  C_57
    4  A    between atoms: N_5  and  C_14
    5  A    between atoms: N_5  and  C_32
    6  A    between atoms: C_12  and  C_13
    7  A    between atoms: C_19  and  C_26
    8  A    between atoms: C_22  and  C_26
    9  A    between atoms: N_23  and  O_51
   10  A    between atoms: C_27  and  C_32
   11  A    between atoms: C_28  and  N_36
   12  A    between atoms: C_28  and  C_44
   13  A    between atoms: N_36  and  C_58
   14  A    between atoms: C_43  and  C_57
   15  A    between atoms: C_46  and  C_49
   16  A    between atoms: C_49  and  C_55
   17  A    between atoms: C_50  and  C_53
   18  A    between atoms: C_50  and  C_56
   19  A    between atoms: O_51  and  C_53
                            x       y       z     vdW  Elec       q    Type
                         _______ _______ _______ _____ _____    ______ ____

>  <TORSDO>
F 19

$$$$
=
 OpenBabel10232409113D

 59 66  0  0  1  0  0  0  0  0999 V2000
  186.7350  178.3740  146.4710 C   0  0  0  0  0  0  0  0  0  0  0  0
  185.9960  178.7850  145.3130 N   0  0  0  0  0  2  0  0  0  0  0  0
  186.2100  178.4650  147.6160 O   0  0  0  0  0  0  0  0  0  0  0  0
  188.7360  177.9010  145.0820 C   0  0  0  0  0  3  0  0  0  0  0  0
  188.1200  177.9110  146.3360 C   0  0  0  0  0  0  0  0  0  0  0  0
  190.0180  177.3670  144.9290 C   0  0  0  0  0  0  0  0  0  0  0  0
  188.8030  177.3890  147.4380 C   0  0  0  0  0  3  0  0  0  0  0  0
  190.7160  176.8810  146.0370 C   0  0  0  0  0  3  0  0  0  0  0  0
  190.1000  176.8690  147.2960 C   0  0  0  0  0  3  0  0  0  0  0  0
  190.6210  177.4130  143.6330 N   0  0  0  0  0  2  0  0  0  0  0  0
  190.2880  176.4830  142.5600 C   0  0  1  0  0  3  0  0  0  0  0  0
  189.0710  175.6830  142.9700 C   0  0  0  0  0  1  0  0  0  0  0  0
  188.9770  178.1190  141.1930 N   0  0  0  0  0  0  0  0  0  0  0  0
  188.9100  178.4540  139.9190 N   0  0  0  0  0  0  0  0  0  0  0  0
  190.5500  176.9380  140.1360 N   0  0  0  0  0  2  0  0  0  0  0  0
  189.9780  177.2290  141.3150 C   0  0  0  0  0  0  0  0  0  0  0  0
  189.8670  177.7430  139.2940 C   0  0  0  0  0  0  0  0  0  0  0  0
  189.9670  177.6560  137.8170 C   0  0  0  0  0  2  0  0  0  0  0  0
  189.6110  176.2470  137.3970 C   0  0  0  0  0  2  0  0  0  0  0  0
  191.0030  174.4400  138.1150 O   0  0  0  0  0  1  0  0  0  0  0  0
  190.8640  175.4400  137.1430 C   0  0  1  0  0  3  0  0  0  0  0  0
  190.7950  174.8560  135.7130 C   0  0  2  0  0  3  0  0  0  0  0  0
  192.3760  172.7650  135.5260 C   0  0  0  0  0  0  0  0  0  0  0  0
  191.0040  173.3780  135.7060 C   0  0  1  0  0  0  0  0  0  0  0  0
  190.1680  172.8720  134.6980 O   0  0  0  0  0  1  0  0  0  0  0  0
  192.0610  174.2310  135.1250 C   0  0  2  0  0  0  0  0  0  0  0  0
  193.2060  171.7260  135.5140 C   0  0  0  0  0  2  0  0  0  0  0  0
  193.2260  174.9900  135.7880 C   0  0  0  0  0  2  0  0  0  0  0  0
  195.5240  175.8270  135.4010 C   0  0  0  0  0  1  0  0  0  0  0  0
  193.6640  176.8790  134.3510 O   0  0  0  0  0  1  0  0  0  0  0  0
  194.1620  175.6430  134.7730 C   0  0  2  0  0  3  0  0  0  0  0  0
  184.7660  179.3290  145.4300 O   0  0  0  0  0  0  0  0  0  0  0  0
  183.9900  178.7900  144.3910 C   0  0  0  0  0  2  0  0  0  0  0  0
  182.4980  178.8790  144.7050 C   0  0  0  0  0  2  0  0  0  0  0  0
  180.8070  179.4820  142.9590 C   0  0  0  0  0  2  0  0  0  0  0  0
  182.1250  179.1650  142.2840 C   0  0  1  0  0  3  0  0  0  0  0  0
  181.7050  178.3820  143.5070 C   0  0  1  0  0  3  0  0  0  0  0  0
  180.9420  177.4300  140.9590 F   0  0  0  0  0  0  0  0  0  0  0  0
  181.9860  178.3470  140.9880 C   0  0  1  0  0  3  0  0  0  0  0  0
  181.3290  179.9410  139.0890 C   0  0  0  0  0  1  0  0  0  0  0  0
  182.2440  178.9760  139.6770 N   0  0  0  0  0  0  0  0  0  0  0  0
  184.6800  178.8810  139.1990 C   0  0  0  0  0  3  0  0  0  0  0  0
  184.2090  177.2190  136.9930 C   0  0  0  0  0  0  0  0  0  0  0  0
  185.7480  178.4350  138.4210 C   0  0  0  0  0  3  0  0  0  0  0  0
  183.1330  177.6840  137.7730 C   0  0  0  0  0  3  0  0  0  0  0  0
  185.5150  177.5980  137.3260 C   0  0  0  0  0  3  0  0  0  0  0  0
  183.3590  178.5120  138.8780 C   0  0  0  0  0  0  0  0  0  0  0  0
  183.9780  176.3000  135.8620 C   0  0  0  0  0  0  0  0  0  0  0  0
  183.9310  176.7560  134.6840 O   0  0  0  0  0  0  0  0  0  0  0  0
  182.6910  174.4350  136.8590 O   0  0  0  0  0  1  0  0  0  0  0  0
  183.3620  172.7710  134.8810 O   0  0  0  0  0  1  0  0  0  0  0  0
  186.4320  174.5040  136.0390 C   0  0  0  0  0  2  0  0  0  0  0  0
  183.7810  174.8250  136.0840 C   0  0  1  0  0  0  0  0  0  0  0  0
  186.4790  172.4940  137.3950 N   0  0  0  0  0  0  0  0  0  0  0  0
  184.1700  172.0310  137.4460 O   0  0  0  0  0  0  0  0  0  0  0  0
  184.2030  173.8880  134.9340 C   0  0  1  0  0  3  0  0  0  0  0  0
  185.0220  173.9620  136.2250 C   0  0  1  0  0  0  0  0  0  0  0  0
  185.1350  172.7430  137.0490 C   0  0  0  0  0  0  0  0  0  0  0  0
  187.3370  173.5120  136.7940 C   0  0  0  0  0  3  0  0  0  0  0  0
  1  3  2  0  0  0  0
  2 32  1  0  0  0  0
  2  1  1  0  0  0  0
  4  5  1  0  0  0  0
  5  1  1  0  0  0  0
  5  7  2  0  0  0  0
  6  4  2  0  0  0  0
  6  8  1  0  0  0  0
  8  9  2  0  0  0  0
  9  7  1  0  0  0  0
 10  6  1  0  0  0  0
 11 12  1  1  0  0  0
 11 10  1  0  0  0  0
 13 16  2  0  0  0  0
 14 13  1  0  0  0  0
 15 16  1  0  0  0  0
 16 11  1  0  0  0  0
 17 14  2  0  0  0  0
 17 15  1  0  0  0  0
 18 17  1  0  0  0  0
 19 18  1  0  0  0  0
 21 19  1  0  0  0  0
 21 20  1  1  0  0  0
 22 21  1  1  0  0  0
 23 24  1  0  0  0  0
 24 25  1  6  0  0  0
 24 22  1  0  0  0  0
 26 23  1  0  0  0  0
 26 24  1  0  0  0  0
 26 22  1  0  0  0  0
 26 28  1  1  0  0  0
 27 23  2  0  0  0  0
 30 31  1  0  0  0  0
 31 29  1  1  0  0  0
 31 28  1  0  0  0  0
 33 34  1  0  0  0  0
 33 32  1  0  0  0  0
 35 37  1  0  0  0  0
 36 39  1  6  0  0  0
 36 35  1  0  0  0  0
 36 37  1  0  0  0  0
 37 34  1  1  0  0  0
 39 38  1  6  0  0  0
 40 41  1  0  0  0  0
 41 39  1  0  0  0  0
 43 46  2  0  0  0  0
 43 45  1  0  0  0  0
 44 42  2  0  0  0  0
 45 47  2  0  0  0  0
 46 44  1  0  0  0  0
 47 42  1  0  0  0  0
 47 41  1  0  0  0  0
 48 53  1  0  0  0  0
 48 43  1  0  0  0  0
 49 48  2  0  0  0  0
 52 59  1  0  0  0  0
 53 57  1  0  0  0  0
 53 50  1  1  0  0  0
 56 51  1  1  0  0  0
 56 53  1  0  0  0  0
 56 57  1  0  0  0  0
 57 52  1  6  0  0  0
 57 58  1  0  0  0  0
 58 54  1  0  0  0  0
 58 55  2  0  0  0  0
 59 54  2  0  0  0  0
M  END
>  <MODEL>
4

>  <REMARK>
 VINA RESULT:      -7.9      1.461      2.322
  Name = 
  19 active torsions:
  status: ('A' for Active; 'I' for Inactive)
    1  A    between atoms: C_1  and  C_39
    2  A    between atoms: C_1  and  C_43
    3  A    between atoms: C_3  and  C_57
    4  A    between atoms: N_5  and  C_14
    5  A    between atoms: N_5  and  C_32
    6  A    between atoms: C_12  and  C_13
    7  A    between atoms: C_19  and  C_26
    8  A    between atoms: C_22  and  C_26
    9  A    between atoms: N_23  and  O_51
   10  A    between atoms: C_27  and  C_32
   11  A    between atoms: C_28  and  N_36
   12  A    between atoms: C_28  and  C_44
   13  A    between atoms: N_36  and  C_58
   14  A    between atoms: C_43  and  C_57
   15  A    between atoms: C_46  and  C_49
   16  A    between atoms: C_49  and  C_55
   17  A    between atoms: C_50  and  C_53
   18  A    between atoms: C_50  and  C_56
   19  A    between atoms: O_51  and  C_53
                            x       y       z     vdW  Elec       q    Type
                         _______ _______ _______ _____ _____    ______ ____

>  <TORSDO>
F 19

$$$$
=
 OpenBabel10232409113D

 59 66  0  0  1  0  0  0  0  0999 V2000
  188.2330  177.2960  144.6620 C   0  0  0  0  0  0  0  0  0  0  0  0
  187.9010  177.9000  145.9190 N   0  0  0  0  0  2  0  0  0  0  0  0
  187.4740  176.4160  144.1680 O   0  0  0  0  0  0  0  0  0  0  0  0
  189.6960  177.2520  142.6580 C   0  0  0  0  0  3  0  0  0  0  0  0
  189.4830  177.6490  143.9810 C   0  0  0  0  0  0  0  0  0  0  0  0
  190.9240  177.4960  142.0370 C   0  0  0  0  0  0  0  0  0  0  0  0
  190.5080  178.2990  144.6740 C   0  0  0  0  0  3  0  0  0  0  0  0
  191.9340  178.1800  142.7170 C   0  0  0  0  0  3  0  0  0  0  0  0
  191.7380  178.5650  144.0500 C   0  0  0  0  0  3  0  0  0  0  0  0
  191.0810  177.1040  140.6700 N   0  0  0  0  0  2  0  0  0  0  0  0
  189.9580  176.8780  139.7670 C   0  0  1  0  0  3  0  0  0  0  0  0
  189.3260  178.2120  139.4340 C   0  0  0  0  0  1  0  0  0  0  0  0
  190.0810  175.0100  138.1060 N   0  0  0  0  0  0  0  0  0  0  0  0
  190.8130  174.7290  137.0450 N   0  0  0  0  0  0  0  0  0  0  0  0
  191.4140  176.7690  137.7610 N   0  0  0  0  0  2  0  0  0  0  0  0
  190.4330  176.2430  138.5120 C   0  0  0  0  0  0  0  0  0  0  0  0
  191.6050  175.7990  136.8420 C   0  0  0  0  0  0  0  0  0  0  0  0
  192.7390  175.7870  135.8870 C   0  0  0  0  0  2  0  0  0  0  0  0
  194.0170  176.0240  136.6630 C   0  0  0  0  0  2  0  0  0  0  0  0
  194.1140  173.6860  136.1740 O   0  0  0  0  0  1  0  0  0  0  0  0
  194.7730  174.7280  136.8410 C   0  0  1  0  0  3  0  0  0  0  0  0
  196.2180  174.9240  136.3270 C   0  0  2  0  0  3  0  0  0  0  0  0
  197.6250  172.7480  136.7700 C   0  0  0  0  0  0  0  0  0  0  0  0
  196.8180  173.6410  135.8530 C   0  0  1  0  0  0  0  0  0  0  0  0
  197.6240  173.9730  134.7520 O   0  0  0  0  0  1  0  0  0  0  0  0
  197.3560  174.2420  137.0900 C   0  0  2  0  0  0  0  0  0  0  0  0
  198.2660  171.6140  137.0400 C   0  0  0  0  0  2  0  0  0  0  0  0
  196.8650  174.1620  138.5490 C   0  0  0  0  0  2  0  0  0  0  0  0
  197.0430  175.3810  140.6970 C   0  0  0  0  0  1  0  0  0  0  0  0
  198.5590  175.8410  138.9190 O   0  0  0  0  0  1  0  0  0  0  0  0
  197.8290  174.8200  139.5350 C   0  0  2  0  0  3  0  0  0  0  0  0
  186.8180  177.4980  146.6190 O   0  0  0  0  0  0  0  0  0  0  0  0
  185.7420  177.4850  145.7170 C   0  0  0  0  0  2  0  0  0  0  0  0
  184.7370  178.5910  146.0320 C   0  0  0  0  0  2  0  0  0  0  0  0
  184.0280  180.1430  144.2000 C   0  0  0  0  0  2  0  0  0  0  0  0
  184.6470  178.9050  143.5880 C   0  0  1  0  0  3  0  0  0  0  0  0
  183.8120  178.7810  144.8410 C   0  0  1  0  0  3  0  0  0  0  0  0
  182.5380  178.5800  142.3210 F   0  0  0  0  0  0  0  0  0  0  0  0
  183.9130  178.3850  142.3400 C   0  0  1  0  0  3  0  0  0  0  0  0
  185.9430  178.8230  140.8330 C   0  0  0  0  0  1  0  0  0  0  0  0
  184.5350  178.5030  141.0050 N   0  0  0  0  0  0  0  0  0  0  0  0
  182.9780  179.5850  139.4010 C   0  0  0  0  0  3  0  0  0  0  0  0
  182.7790  177.2000  137.9440 C   0  0  0  0  0  0  0  0  0  0  0  0
  182.1650  179.5250  138.2690 C   0  0  0  0  0  3  0  0  0  0  0  0
  183.5860  177.2630  139.0960 C   0  0  0  0  0  3  0  0  0  0  0  0
  182.0730  178.3390  137.5350 C   0  0  0  0  0  3  0  0  0  0  0  0
  183.6940  178.4500  139.8270 C   0  0  0  0  0  0  0  0  0  0  0  0
  182.7100  175.9660  137.1380 C   0  0  0  0  0  0  0  0  0  0  0  0
  181.6130  175.6240  136.6100 O   0  0  0  0  0  0  0  0  0  0  0  0
  184.1900  174.1460  137.9260 O   0  0  0  0  0  1  0  0  0  0  0  0
  184.8360  173.4440  135.4320 O   0  0  0  0  0  1  0  0  0  0  0  0
  185.1420  177.1310  135.7220 C   0  0  0  0  0  2  0  0  0  0  0  0
  183.9190  175.0940  136.9410 C   0  0  1  0  0  0  0  0  0  0  0  0
  187.4060  176.4230  136.2290 N   0  0  0  0  0  0  0  0  0  0  0  0
  186.9390  174.2720  137.0660 O   0  0  0  0  0  0  0  0  0  0  0  0
  184.2810  174.7270  135.4880 C   0  0  1  0  0  3  0  0  0  0  0  0
  185.1370  175.7160  136.2840 C   0  0  1  0  0  0  0  0  0  0  0  0
  186.5430  175.3580  136.5590 C   0  0  0  0  0  0  0  0  0  0  0  0
  186.6280  177.5340  135.6870 C   0  0  0  0  0  3  0  0  0  0  0  0
  1  2  1  0  0  0  0
  2 32  1  0  0  0  0
  3  1  2  0  0  0  0
  4  5  1  0  0  0  0
  5  1  1  0  0  0  0
  5  7  2  0  0  0  0
  6  4  2  0  0  0  0
  6  8  1  0  0  0  0
  8  9  2  0  0  0  0
  9  7  1  0  0  0  0
 10  6  1  0  0  0  0
 11 12  1  6  0  0  0
 11 10  1  0  0  0  0
 13 16  2  0  0  0  0
 14 13  1  0  0  0  0
 15 16  1  0  0  0  0
 16 11  1  0  0  0  0
 17 14  2  0  0  0  0
 17 15  1  0  0  0  0
 18 19  1  0  0  0  0
 18 17  1  0  0  0  0
 19 21  1  0  0  0  0
 21 20  1  6  0  0  0
 22 21  1  1  0  0  0
 22 26  1  0  0  0  0
 23 27  2  0  0  0  0
 23 26  1  0  0  0  0
 24 25  1  6  0  0  0
 24 22  1  0  0  0  0
 24 23  1  0  0  0  0
 24 26  1  0  0  0  0
 26 28  1  1  0  0  0
 28 31  1  0  0  0  0
 30 31  1  0  0  0  0
 31 29  1  1  0  0  0
 33 34  1  0  0  0  0
 33 32  1  0  0  0  0
 35 37  1  0  0  0  0
 36 39  1  6  0  0  0
 36 35  1  0  0  0  0
 36 37  1  0  0  0  0
 37 34  1  1  0  0  0
 39 38  1  6  0  0  0
 40 41  1  0  0  0  0
 41 39  1  0  0  0  0
 42 47  1  0  0  0  0
 43 45  1  0  0  0  0
 44 42  2  0  0  0  0
 45 47  2  0  0  0  0
 46 43  2  0  0  0  0
 46 44  1  0  0  0  0
 47 41  1  0  0  0  0
 48 43  1  0  0  0  0
 49 48  2  0  0  0  0
 53 48  1  0  0  0  0
 53 50  1  1  0  0  0
 54 58  1  0  0  0  0
 56 51  1  1  0  0  0
 56 57  1  0  0  0  0
 56 53  1  0  0  0  0
 57 52  1  6  0  0  0
 57 58  1  0  0  0  0
 57 53  1  0  0  0  0
 58 55  2  0  0  0  0
 59 52  1  0  0  0  0
 59 54  2  0  0  0  0
M  END
>  <MODEL>
5

>  <REMARK>
 VINA RESULT:      -7.8      1.933      2.769
  Name = 
  19 active torsions:
  status: ('A' for Active; 'I' for Inactive)
    1  A    between atoms: C_1  and  C_39
    2  A    between atoms: C_1  and  C_43
    3  A    between atoms: C_3  and  C_57
    4  A    between atoms: N_5  and  C_14
    5  A    between atoms: N_5  and  C_32
    6  A    between atoms: C_12  and  C_13
    7  A    between atoms: C_19  and  C_26
    8  A    between atoms: C_22  and  C_26
    9  A    between atoms: N_23  and  O_51
   10  A    between atoms: C_27  and  C_32
   11  A    between atoms: C_28  and  N_36
   12  A    between atoms: C_28  and  C_44
   13  A    between atoms: N_36  and  C_58
   14  A    between atoms: C_43  and  C_57
   15  A    between atoms: C_46  and  C_49
   16  A    between atoms: C_49  and  C_55
   17  A    between atoms: C_50  and  C_53
   18  A    between atoms: C_50  and  C_56
   19  A    between atoms: O_51  and  C_53
                            x       y       z     vdW  Elec       q    Type
                         _______ _______ _______ _____ _____    ______ ____

>  <TORSDO>
F 19

$$$$
=
 OpenBabel10232409113D

 59 66  0  0  1  0  0  0  0  0999 V2000
  190.9850  176.7890  143.9580 C   0  0  0  0  0  0  0  0  0  0  0  0
  191.0500  177.5980  142.7750 N   0  0  0  0  0  2  0  0  0  0  0  0
  191.7710  175.8110  144.0930 O   0  0  0  0  0  0  0  0  0  0  0  0
  188.7490  177.6390  144.6170 C   0  0  0  0  0  3  0  0  0  0  0  0
  189.9650  177.0550  144.9780 C   0  0  0  0  0  0  0  0  0  0  0  0
  187.8140  177.9880  145.5960 C   0  0  0  0  0  0  0  0  0  0  0  0
  190.2350  176.8150  146.3280 C   0  0  0  0  0  3  0  0  0  0  0  0
  188.0680  177.7130  146.9410 C   0  0  0  0  0  3  0  0  0  0  0  0
  189.2930  177.1440  147.3160 C   0  0  0  0  0  3  0  0  0  0  0  0
  186.5690  178.5490  145.1730 N   0  0  0  0  0  2  0  0  0  0  0  0
  185.2720  177.9850  145.5310 C   0  0  1  0  0  3  0  0  0  0  0  0
  184.9110  178.4440  146.9270 C   0  0  0  0  0  1  0  0  0  0  0  0
  182.9340  178.6170  144.9010 N   0  0  0  0  0  0  0  0  0  0  0  0
  182.2930  178.8900  143.7800 N   0  0  0  0  0  0  0  0  0  0  0  0
  184.4550  178.5790  143.2660 N   0  0  0  0  0  2  0  0  0  0  0  0
  184.2310  178.4560  144.5840 C   0  0  0  0  0  0  0  0  0  0  0  0
  183.2210  178.8730  142.8040 C   0  0  0  0  0  0  0  0  0  0  0  0
  182.8710  178.9030  141.3640 C   0  0  0  0  0  2  0  0  0  0  0  0
  183.9690  178.2050  140.5920 C   0  0  0  0  0  2  0  0  0  0  0  0
  182.1920  176.7050  140.0340 O   0  0  0  0  0  1  0  0  0  0  0  0
  183.3780  177.2790  139.5540 C   0  0  1  0  0  3  0  0  0  0  0  0
  183.1500  178.0790  138.2510 C   0  0  2  0  0  3  0  0  0  0  0  0
  183.1530  176.4460  136.1910 C   0  0  0  0  0  0  0  0  0  0  0  0
  182.4220  177.2740  137.2250 C   0  0  1  0  0  0  0  0  0  0  0  0
  181.5850  178.1750  136.5460 O   0  0  0  0  0  1  0  0  0  0  0  0
  183.8420  177.5950  136.9750 C   0  0  2  0  0  0  0  0  0  0  0  0
  183.1790  175.5540  135.2050 C   0  0  0  0  0  2  0  0  0  0  0  0
  185.1340  176.9070  137.4580 C   0  0  0  0  0  2  0  0  0  0  0  0
  187.3540  176.6620  136.3910 C   0  0  0  0  0  1  0  0  0  0  0  0
  187.0120  178.2770  138.1060 O   0  0  0  0  0  1  0  0  0  0  0  0
  186.3970  177.6470  137.0210 C   0  0  2  0  0  3  0  0  0  0  0  0
  191.8990  177.2940  141.7700 O   0  0  0  0  0  0  0  0  0  0  0  0
  191.1130  177.1430  140.6160 C   0  0  0  0  0  2  0  0  0  0  0  0
  191.9600  177.2390  139.3490 C   0  0  0  0  0  2  0  0  0  0  0  0
  192.0960  176.5010  136.9600 C   0  0  0  0  0  2  0  0  0  0  0  0
  191.9170  175.2850  137.8450 C   0  0  1  0  0  3  0  0  0  0  0  0
  191.2180  176.5770  138.1990 C   0  0  1  0  0  3  0  0  0  0  0  0
  189.6030  174.4340  137.5530 F   0  0  0  0  0  0  0  0  0  0  0  0
  190.9500  174.2320  137.2770 C   0  0  1  0  0  3  0  0  0  0  0  0
  190.1820  173.6750  134.8940 C   0  0  0  0  0  1  0  0  0  0  0  0
  191.1880  173.6420  135.9440 N   0  0  0  0  0  0  0  0  0  0  0  0
  192.5400  172.0880  134.5560 C   0  0  0  0  0  3  0  0  0  0  0  0
  194.6140  172.1700  136.4380 C   0  0  0  0  0  0  0  0  0  0  0  0
  193.7020  171.3460  134.3460 C   0  0  0  0  0  3  0  0  0  0  0  0
  193.4330  172.9060  136.6520 C   0  0  0  0  0  3  0  0  0  0  0  0
  194.7410  171.3940  135.2790 C   0  0  0  0  0  3  0  0  0  0  0  0
  192.3940  172.8740  135.7160 C   0  0  0  0  0  0  0  0  0  0  0  0
  195.7340  172.2490  137.3950 C   0  0  0  0  0  0  0  0  0  0  0  0
  195.7270  171.5190  138.4270 O   0  0  0  0  0  0  0  0  0  0  0  0
  198.0540  172.6610  136.6390 O   0  0  0  0  0  1  0  0  0  0  0  0
  197.4930  175.1730  135.9290 O   0  0  0  0  0  1  0  0  0  0  0  0
  196.1040  174.5810  139.3190 C   0  0  0  0  0  2  0  0  0  0  0  0
  196.8840  173.1940  137.1750 C   0  0  1  0  0  0  0  0  0  0  0  0
  198.2870  175.4960  139.8510 N   0  0  0  0  0  0  0  0  0  0  0  0
  199.4400  174.8520  137.9000 O   0  0  0  0  0  0  0  0  0  0  0  0
  196.5270  174.6440  136.7910 C   0  0  1  0  0  3  0  0  0  0  0  0
  197.0790  174.3140  138.1800 C   0  0  1  0  0  0  0  0  0  0  0  0
  198.3730  174.9030  138.5740 C   0  0  0  0  0  0  0  0  0  0  0  0
  196.9250  175.3640  140.3620 C   0  0  0  0  0  3  0  0  0  0  0  0
  1  3  2  0  0  0  0
  1  5  1  0  0  0  0
  2  1  1  0  0  0  0
  4  5  2  0  0  0  0
  4  6  1  0  0  0  0
  5  7  1  0  0  0  0
  6  8  2  0  0  0  0
  7  9  2  0  0  0  0
  8  9  1  0  0  0  0
 10 11  1  0  0  0  0
 10  6  1  0  0  0  0
 11 12  1  1  0  0  0
 14 13  1  0  0  0  0
 15 16  1  0  0  0  0
 16 13  2  0  0  0  0
 16 11  1  0  0  0  0
 17 15  1  0  0  0  0
 17 14  2  0  0  0  0
 18 17  1  0  0  0  0
 19 18  1  0  0  0  0
 21 20  1  1  0  0  0
 21 19  1  0  0  0  0
 22 21  1  1  0  0  0
 23 26  1  0  0  0  0
 23 24  1  0  0  0  0
 24 25  1  6  0  0  0
 24 22  1  0  0  0  0
 26 24  1  0  0  0  0
 26 28  1  1  0  0  0
 26 22  1  0  0  0  0
 27 23  2  0  0  0  0
 31 29  1  1  0  0  0
 31 28  1  0  0  0  0
 31 30  1  0  0  0  0
 32  2  1  0  0  0  0
 33 32  1  0  0  0  0
 34 33  1  0  0  0  0
 35 36  1  0  0  0  0
 35 37  1  0  0  0  0
 36 39  1  6  0  0  0
 36 37  1  0  0  0  0
 37 34  1  1  0  0  0
 39 38  1  6  0  0  0
 40 41  1  0  0  0  0
 41 39  1  0  0  0  0
 42 47  1  0  0  0  0
 43 45  1  0  0  0  0
 43 48  1  0  0  0  0
 44 42  2  0  0  0  0
 44 46  1  0  0  0  0
 46 43  2  0  0  0  0
 47 41  1  0  0  0  0
 47 45  2  0  0  0  0
 48 49  2  0  0  0  0
 52 59  1  0  0  0  0
 53 50  1  6  0  0  0
 53 48  1  0  0  0  0
 53 57  1  0  0  0  0
 54 59  2  0  0  0  0
 55 58  2  0  0  0  0
 56 51  1  6  0  0  0
 56 53  1  0  0  0  0
 56 57  1  0  0  0  0
 57 58  1  0  0  0  0
 57 52  1  1  0  0  0
 58 54  1  0  0  0  0
M  END
>  <MODEL>
6

>  <REMARK>
 VINA RESULT:      -7.7      2.962     10.431
  Name = 
  19 active torsions:
  status: ('A' for Active; 'I' for Inactive)
    1  A    between atoms: C_1  and  C_39
    2  A    between atoms: C_1  and  C_43
    3  A    between atoms: C_3  and  C_57
    4  A    between atoms: N_5  and  C_14
    5  A    between atoms: N_5  and  C_32
    6  A    between atoms: C_12  and  C_13
    7  A    between atoms: C_19  and  C_26
    8  A    between atoms: C_22  and  C_26
    9  A    between atoms: N_23  and  O_51
   10  A    between atoms: C_27  and  C_32
   11  A    between atoms: C_28  and  N_36
   12  A    between atoms: C_28  and  C_44
   13  A    between atoms: N_36  and  C_58
   14  A    between atoms: C_43  and  C_57
   15  A    between atoms: C_46  and  C_49
   16  A    between atoms: C_49  and  C_55
   17  A    between atoms: C_50  and  C_53
   18  A    between atoms: C_50  and  C_56
   19  A    between atoms: O_51  and  C_53
                            x       y       z     vdW  Elec       q    Type
                         _______ _______ _______ _____ _____    ______ ____

>  <TORSDO>
F 19

$$$$
=
 OpenBabel10232409113D

 59 66  0  0  1  0  0  0  0  0999 V2000
  181.1910  175.7810  138.7480 C   0  0  0  0  0  0  0  0  0  0  0  0
  181.5610  175.1580  137.5110 N   0  0  0  0  0  2  0  0  0  0  0  0
  180.2010  175.3450  139.3980 O   0  0  0  0  0  0  0  0  0  0  0  0
  183.0930  177.3660  138.5870 C   0  0  0  0  0  3  0  0  0  0  0  0
  181.9180  176.9620  139.2250 C   0  0  0  0  0  0  0  0  0  0  0  0
  183.8450  178.4280  139.0980 C   0  0  0  0  0  0  0  0  0  0  0  0
  181.4970  177.6360  140.3750 C   0  0  0  0  0  3  0  0  0  0  0  0
  183.4030  179.1260  140.2240 C   0  0  0  0  0  3  0  0  0  0  0  0
  182.2360  178.7170  140.8830 C   0  0  0  0  0  3  0  0  0  0  0  0
  185.0200  178.8280  138.3880 N   0  0  0  0  0  2  0  0  0  0  0  0
  186.1820  177.9650  138.2090 C   0  0  1  0  0  3  0  0  0  0  0  0
  186.9610  178.4410  137.0030 C   0  0  0  0  0  1  0  0  0  0  0  0
  186.8060  178.7910  140.4880 N   0  0  0  0  0  0  0  0  0  0  0  0
  187.8680  178.7170  141.2670 N   0  0  0  0  0  0  0  0  0  0  0  0
  188.2850  177.4880  139.4360 N   0  0  0  0  0  2  0  0  0  0  0  0
  187.0570  178.0320  139.4060 C   0  0  0  0  0  0  0  0  0  0  0  0
  188.7480  177.9230  140.6270 C   0  0  0  0  0  0  0  0  0  0  0  0
  190.1580  177.7760  141.0610 C   0  0  0  0  0  2  0  0  0  0  0  0
  190.3970  176.3250  141.4180 C   0  0  0  0  0  2  0  0  0  0  0  0
  190.8300  175.0060  143.3650 O   0  0  0  0  0  1  0  0  0  0  0  0
  190.0770  176.0820  142.8750 C   0  0  1  0  0  3  0  0  0  0  0  0
  190.3420  177.3850  143.6640 C   0  0  2  0  0  3  0  0  0  0  0  0
  189.7610  177.0250  146.2020 C   0  0  0  0  0  0  0  0  0  0  0  0
  190.7610  177.1070  145.0700 C   0  0  1  0  0  0  0  0  0  0  0  0
  191.7050  178.0950  145.3970 O   0  0  0  0  0  1  0  0  0  0  0  0
  189.4320  177.7110  144.8490 C   0  0  2  0  0  0  0  0  0  0  0  0
  189.4340  176.7620  147.4640 C   0  0  0  0  0  2  0  0  0  0  0  0
  188.0760  177.0690  144.4990 C   0  0  0  0  0  2  0  0  0  0  0  0
  186.3810  177.8530  146.1260 C   0  0  0  0  0  1  0  0  0  0  0  0
  185.8720  177.7620  143.8030 O   0  0  0  0  0  1  0  0  0  0  0  0
  186.8980  178.0180  144.7160 C   0  0  2  0  0  3  0  0  0  0  0  0
  180.8290  174.1480  136.9940 O   0  0  0  0  0  0  0  0  0  0  0  0
  181.4540  173.7750  135.7930 C   0  0  0  0  0  2  0  0  0  0  0  0
  182.4870  172.6730  136.0200 C   0  0  0  0  0  2  0  0  0  0  0  0
  184.6650  172.7420  137.2530 C   0  0  0  0  0  2  0  0  0  0  0  0
  184.9020  172.2060  135.8570 C   0  0  1  0  0  3  0  0  0  0  0  0
  183.8740  173.2910  136.0760 C   0  0  1  0  0  3  0  0  0  0  0  0
  186.1850  174.0890  134.8730 F   0  0  0  0  0  0  0  0  0  0  0  0
  186.1830  172.7360  135.1900 C   0  0  1  0  0  3  0  0  0  0  0  0
  187.7830  170.8180  135.7690 C   0  0  0  0  0  1  0  0  0  0  0  0
  187.5070  172.2360  135.6120 N   0  0  0  0  0  0  0  0  0  0  0  0
  188.1640  174.3680  136.7050 C   0  0  0  0  0  3  0  0  0  0  0  0
  190.8640  173.8380  136.1760 C   0  0  0  0  0  0  0  0  0  0  0  0
  189.1440  175.2780  137.0990 C   0  0  0  0  0  3  0  0  0  0  0  0
  189.8690  172.9290  135.7670 C   0  0  0  0  0  3  0  0  0  0  0  0
  190.4920  175.0100  136.8450 C   0  0  0  0  0  3  0  0  0  0  0  0
  188.5190  173.1840  136.0300 C   0  0  0  0  0  0  0  0  0  0  0  0
  192.2920  173.5430  135.9520 C   0  0  0  0  0  0  0  0  0  0  0  0
  192.6420  172.3840  135.5860 O   0  0  0  0  0  0  0  0  0  0  0  0
  193.6340  175.4340  135.0880 O   0  0  0  0  0  1  0  0  0  0  0  0
  193.8400  176.5370  137.5120 O   0  0  0  0  0  1  0  0  0  0  0  0
  194.6290  172.9230  137.8040 C   0  0  0  0  0  2  0  0  0  0  0  0
  193.3480  174.5940  136.1620 C   0  0  1  0  0  0  0  0  0  0  0  0
  196.8380  173.8690  137.4730 N   0  0  0  0  0  0  0  0  0  0  0  0
  196.2330  175.8070  136.2800 O   0  0  0  0  0  0  0  0  0  0  0  0
  193.4590  175.1920  137.5780 C   0  0  1  0  0  3  0  0  0  0  0  0
  194.5300  174.2390  137.0440 C   0  0  1  0  0  0  0  0  0  0  0  0
  195.9060  174.7510  136.8900 C   0  0  0  0  0  0  0  0  0  0  0  0
  196.1350  172.7390  138.0750 C   0  0  0  0  0  3  0  0  0  0  0  0
  1  5  1  0  0  0  0
  1  3  2  0  0  0  0
  2  1  1  0  0  0  0
  4  6  2  0  0  0  0
  4  5  1  0  0  0  0
  5  7  2  0  0  0  0
  6  8  1  0  0  0  0
  7  9  1  0  0  0  0
  8  9  2  0  0  0  0
 10  6  1  0  0  0  0
 11 12  1  6  0  0  0
 11 10  1  0  0  0  0
 11 16  1  0  0  0  0
 13 14  1  0  0  0  0
 15 17  1  0  0  0  0
 16 15  1  0  0  0  0
 16 13  2  0  0  0  0
 17 18  1  0  0  0  0
 17 14  2  0  0  0  0
 18 19  1  0  0  0  0
 19 21  1  0  0  0  0
 21 20  1  1  0  0  0
 22 21  1  6  0  0  0
 22 26  1  0  0  0  0
 22 24  1  0  0  0  0
 23 27  2  0  0  0  0
 24 25  1  1  0  0  0
 24 23  1  0  0  0  0
 26 28  1  6  0  0  0
 26 24  1  0  0  0  0
 26 23  1  0  0  0  0
 28 31  1  0  0  0  0
 30 31  1  0  0  0  0
 31 29  1  1  0  0  0
 32  2  1  0  0  0  0
 33 34  1  0  0  0  0
 33 32  1  0  0  0  0
 36 39  1  6  0  0  0
 36 37  1  0  0  0  0
 36 35  1  0  0  0  0
 37 34  1  1  0  0  0
 37 35  1  0  0  0  0
 39 38  1  1  0  0  0
 39 41  1  0  0  0  0
 41 40  1  0  0  0  0
 41 47  1  0  0  0  0
 42 44  1  0  0  0  0
 43 46  1  0  0  0  0
 45 47  1  0  0  0  0
 45 43  2  0  0  0  0
 46 44  2  0  0  0  0
 47 42  2  0  0  0  0
 48 53  1  0  0  0  0
 48 43  1  0  0  0  0
 49 48  2  0  0  0  0
 52 59  1  0  0  0  0
 53 50  1  6  0  0  0
 53 57  1  0  0  0  0
 53 56  1  0  0  0  0
 54 59  2  0  0  0  0
 55 58  2  0  0  0  0
 56 51  1  6  0  0  0
 57 56  1  0  0  0  0
 57 52  1  1  0  0  0
 58 57  1  0  0  0  0
 58 54  1  0  0  0  0
M  END
>  <MODEL>
7

>  <REMARK>
 VINA RESULT:      -7.5      2.725      9.436
  Name = 
  19 active torsions:
  status: ('A' for Active; 'I' for Inactive)
    1  A    between atoms: C_1  and  C_39
    2  A    between atoms: C_1  and  C_43
    3  A    between atoms: C_3  and  C_57
    4  A    between atoms: N_5  and  C_14
    5  A    between atoms: N_5  and  C_32
    6  A    between atoms: C_12  and  C_13
    7  A    between atoms: C_19  and  C_26
    8  A    between atoms: C_22  and  C_26
    9  A    between atoms: N_23  and  O_51
   10  A    between atoms: C_27  and  C_32
   11  A    between atoms: C_28  and  N_36
   12  A    between atoms: C_28  and  C_44
   13  A    between atoms: N_36  and  C_58
   14  A    between atoms: C_43  and  C_57
   15  A    between atoms: C_46  and  C_49
   16  A    between atoms: C_49  and  C_55
   17  A    between atoms: C_50  and  C_53
   18  A    between atoms: C_50  and  C_56
   19  A    between atoms: O_51  and  C_53
                            x       y       z     vdW  Elec       q    Type
                         _______ _______ _______ _____ _____    ______ ____

>  <TORSDO>
F 19

$$$$
=
 OpenBabel10232409113D

 59 66  0  0  1  0  0  0  0  0999 V2000
  185.3330  178.6940  144.5890 C   0  0  0  0  0  0  0  0  0  0  0  0
  184.9710  178.4900  143.2170 N   0  0  0  0  0  2  0  0  0  0  0  0
  184.5910  179.3910  145.3360 O   0  0  0  0  0  0  0  0  0  0  0  0
  187.5870  177.7230  144.2260 C   0  0  0  0  0  3  0  0  0  0  0  0
  186.5930  178.1520  145.1090 C   0  0  0  0  0  0  0  0  0  0  0  0
  188.7470  177.1130  144.7110 C   0  0  0  0  0  0  0  0  0  0  0  0
  186.7730  177.9720  146.4830 C   0  0  0  0  0  3  0  0  0  0  0  0
  188.9440  176.9680  146.0860 C   0  0  0  0  0  3  0  0  0  0  0  0
  187.9450  177.3780  146.9800 C   0  0  0  0  0  3  0  0  0  0  0  0
  189.7520  176.7250  143.7710 N   0  0  0  0  0  2  0  0  0  0  0  0
  190.5230  177.6790  142.9820 C   0  0  1  0  0  3  0  0  0  0  0  0
  191.9540  177.6720  143.4740 C   0  0  0  0  0  1  0  0  0  0  0  0
  189.6770  176.3680  141.0240 N   0  0  0  0  0  0  0  0  0  0  0  0
  190.0540  176.1780  139.7740 N   0  0  0  0  0  0  0  0  0  0  0  0
  191.4470  177.6870  140.6800 N   0  0  0  0  0  2  0  0  0  0  0  0
  190.5040  177.2900  141.5490 C   0  0  0  0  0  0  0  0  0  0  0  0
  191.1140  176.9840  139.5760 C   0  0  0  0  0  0  0  0  0  0  0  0
  191.9740  176.8970  138.3710 C   0  0  0  0  0  2  0  0  0  0  0  0
  192.1430  175.4370  138.0110 C   0  0  0  0  0  2  0  0  0  0  0  0
  194.2490  176.3580  137.3510 O   0  0  0  0  0  1  0  0  0  0  0  0
  193.4240  175.2300  137.2350 C   0  0  1  0  0  3  0  0  0  0  0  0
  194.1160  173.9490  137.7550 C   0  0  2  0  0  3  0  0  0  0  0  0
  196.6450  173.9480  137.0400 C   0  0  0  0  0  0  0  0  0  0  0  0
  195.5570  174.1830  138.0660 C   0  0  1  0  0  0  0  0  0  0  0  0
  195.8450  173.3930  139.1910 O   0  0  0  0  0  1  0  0  0  0  0  0
  195.2270  173.3310  136.9050 C   0  0  2  0  0  0  0  0  0  0  0  0
  197.9080  174.0220  136.6300 C   0  0  0  0  0  2  0  0  0  0  0  0
  194.8690  173.6990  135.4520 C   0  0  0  0  0  2  0  0  0  0  0  0
  193.9980  171.4220  135.0140 C   0  0  0  0  0  1  0  0  0  0  0  0
  196.2280  171.9980  134.4110 O   0  0  0  0  0  1  0  0  0  0  0  0
  194.9270  172.5000  134.5060 C   0  0  2  0  0  3  0  0  0  0  0  0
  183.8790  179.0830  142.6890 O   0  0  0  0  0  0  0  0  0  0  0  0
  183.7910  178.6460  141.3580 C   0  0  0  0  0  2  0  0  0  0  0  0
  185.0320  177.8560  140.9470 C   0  0  0  0  0  2  0  0  0  0  0  0
  187.3150  178.8620  140.7410 C   0  0  0  0  0  2  0  0  0  0  0  0
  187.0840  177.9160  139.5810 C   0  0  1  0  0  3  0  0  0  0  0  0
  185.9360  178.7450  140.1090 C   0  0  1  0  0  3  0  0  0  0  0  0
  188.8860  178.9840  138.2500 F   0  0  0  0  0  0  0  0  0  0  0  0
  187.6100  178.4350  138.2320 C   0  0  1  0  0  3  0  0  0  0  0  0
  186.9730  178.3960  135.7480 C   0  0  0  0  0  1  0  0  0  0  0  0
  187.3090  177.7060  136.9830 N   0  0  0  0  0  0  0  0  0  0  0  0
  188.3420  175.4480  137.0450 C   0  0  0  0  0  3  0  0  0  0  0  0
  185.8050  174.2600  137.0670 C   0  0  0  0  0  0  0  0  0  0  0  0
  188.2230  174.0590  137.0720 C   0  0  0  0  0  3  0  0  0  0  0  0
  185.9310  175.6610  137.0250 C   0  0  0  0  0  3  0  0  0  0  0  0
  186.9580  173.4650  137.0930 C   0  0  0  0  0  3  0  0  0  0  0  0
  187.1930  176.2630  137.0170 C   0  0  0  0  0  0  0  0  0  0  0  0
  184.4750  173.6240  137.1340 C   0  0  0  0  0  0  0  0  0  0  0  0
  184.3400  172.5140  137.7240 O   0  0  0  0  0  0  0  0  0  0  0  0
  183.3780  174.6440  135.1640 O   0  0  0  0  0  1  0  0  0  0  0  0
  180.9610  173.8200  135.9470 O   0  0  0  0  0  1  0  0  0  0  0  0
  182.6650  175.3660  138.8580 C   0  0  0  0  0  2  0  0  0  0  0  0
  183.2710  174.2660  136.5010 C   0  0  1  0  0  0  0  0  0  0  0  0
  181.4420  177.2590  137.9620 N   0  0  0  0  0  0  0  0  0  0  0  0
  181.3100  176.5770  135.7110 O   0  0  0  0  0  0  0  0  0  0  0  0
  181.8900  173.7880  136.9930 C   0  0  1  0  0  3  0  0  0  0  0  0
  182.4180  175.1750  137.3680 C   0  0  1  0  0  0  0  0  0  0  0  0
  181.6680  176.3570  136.9010 C   0  0  0  0  0  0  0  0  0  0  0  0
  181.9990  176.7130  139.1970 C   0  0  0  0  0  3  0  0  0  0  0  0
  1  5  1  0  0  0  0
  1  3  2  0  0  0  0
  2  1  1  0  0  0  0
  4  6  2  0  0  0  0
  4  5  1  0  0  0  0
  5  7  2  0  0  0  0
  6  8  1  0  0  0  0
  7  9  1  0  0  0  0
  8  9  2  0  0  0  0
 10  6  1  0  0  0  0
 11 12  1  1  0  0  0
 11 10  1  0  0  0  0
 13 16  2  0  0  0  0
 14 13  1  0  0  0  0
 15 16  1  0  0  0  0
 16 11  1  0  0  0  0
 17 14  2  0  0  0  0
 17 15  1  0  0  0  0
 18 17  1  0  0  0  0
 19 18  1  0  0  0  0
 21 20  1  1  0  0  0
 21 19  1  0  0  0  0
 22 21  1  6  0  0  0
 22 24  1  0  0  0  0
 23 24  1  0  0  0  0
 24 25  1  1  0  0  0
 26 28  1  6  0  0  0
 26 23  1  0  0  0  0
 26 22  1  0  0  0  0
 26 24  1  0  0  0  0
 27 23  2  0  0  0  0
 30 31  1  0  0  0  0
 31 29  1  1  0  0  0
 31 28  1  0  0  0  0
 32  2  1  0  0  0  0
 33 32  1  0  0  0  0
 34 33  1  0  0  0  0
 36 39  1  6  0  0  0
 36 37  1  0  0  0  0
 36 35  1  0  0  0  0
 37 35  1  0  0  0  0
 37 34  1  1  0  0  0
 39 38  1  1  0  0  0
 40 41  1  0  0  0  0
 41 47  1  0  0  0  0
 41 39  1  0  0  0  0
 42 44  1  0  0  0  0
 43 46  1  0  0  0  0
 43 48  1  0  0  0  0
 44 46  2  0  0  0  0
 45 43  2  0  0  0  0
 47 45  1  0  0  0  0
 47 42  2  0  0  0  0
 48 49  2  0  0  0  0
 52 59  1  0  0  0  0
 53 50  1  6  0  0  0
 53 56  1  0  0  0  0
 53 48  1  0  0  0  0
 53 57  1  0  0  0  0
 54 59  2  0  0  0  0
 55 58  2  0  0  0  0
 56 51  1  6  0  0  0
 56 57  1  0  0  0  0
 57 52  1  1  0  0  0
 58 57  1  0  0  0  0
 58 54  1  0  0  0  0
M  END
>  <MODEL>
8

>  <REMARK>
 VINA RESULT:      -7.3      2.189      4.173
  Name = 
  19 active torsions:
  status: ('A' for Active; 'I' for Inactive)
    1  A    between atoms: C_1  and  C_39
    2  A    between atoms: C_1  and  C_43
    3  A    between atoms: C_3  and  C_57
    4  A    between atoms: N_5  and  C_14
    5  A    between atoms: N_5  and  C_32
    6  A    between atoms: C_12  and  C_13
    7  A    between atoms: C_19  and  C_26
    8  A    between atoms: C_22  and  C_26
    9  A    between atoms: N_23  and  O_51
   10  A    between atoms: C_27  and  C_32
   11  A    between atoms: C_28  and  N_36
   12  A    between atoms: C_28  and  C_44
   13  A    between atoms: N_36  and  C_58
   14  A    between atoms: C_43  and  C_57
   15  A    between atoms: C_46  and  C_49
   16  A    between atoms: C_49  and  C_55
   17  A    between atoms: C_50  and  C_53
   18  A    between atoms: C_50  and  C_56
   19  A    between atoms: O_51  and  C_53
                            x       y       z     vdW  Elec       q    Type
                         _______ _______ _______ _____ _____    ______ ____

>  <TORSDO>
F 19

$$$$
=
 OpenBabel10232409113D

 59 66  0  0  1  0  0  0  0  0999 V2000
  188.1120  177.2750  144.4850 C   0  0  0  0  0  0  0  0  0  0  0  0
  187.9580  178.0430  145.6860 N   0  0  0  0  0  2  0  0  0  0  0  0
  187.2550  176.3970  144.1870 O   0  0  0  0  0  0  0  0  0  0  0  0
  189.3260  176.9190  142.3500 C   0  0  0  0  0  3  0  0  0  0  0  0
  189.2960  177.4590  143.6390 C   0  0  0  0  0  0  0  0  0  0  0  0
  190.4860  177.0020  141.5770 C   0  0  0  0  0  0  0  0  0  0  0  0
  190.4360  178.0900  144.1430 C   0  0  0  0  0  3  0  0  0  0  0  0
  191.6120  177.6680  142.0650 C   0  0  0  0  0  3  0  0  0  0  0  0
  191.6000  178.1960  143.3630 C   0  0  0  0  0  3  0  0  0  0  0  0
  190.4560  176.4680  140.2500 N   0  0  0  0  0  2  0  0  0  0  0  0
  189.5170  176.9140  139.2270 C   0  0  1  0  0  3  0  0  0  0  0  0
  189.3550  178.4150  139.3380 C   0  0  0  0  0  1  0  0  0  0  0  0
  189.2850  176.1200  136.8650 N   0  0  0  0  0  0  0  0  0  0  0  0
  190.1090  175.7940  135.8870 N   0  0  0  0  0  0  0  0  0  0  0  0
  191.3520  176.5350  137.6010 N   0  0  0  0  0  2  0  0  0  0  0  0
  190.0390  176.5840  137.8770 C   0  0  0  0  0  0  0  0  0  0  0  0
  191.3490  176.0570  136.3390 C   0  0  0  0  0  0  0  0  0  0  0  0
  192.5730  175.6110  135.6290 C   0  0  0  0  0  2  0  0  0  0  0  0
  193.1350  174.4100  136.3570 C   0  0  0  0  0  2  0  0  0  0  0  0
  195.0470  175.8460  136.3690 O   0  0  0  0  0  1  0  0  0  0  0  0
  194.6400  174.5060  136.4490 C   0  0  1  0  0  3  0  0  0  0  0  0
  195.1000  173.8370  137.7640 C   0  0  2  0  0  3  0  0  0  0  0  0
  197.6990  174.1130  138.0450 C   0  0  0  0  0  0  0  0  0  0  0  0
  196.2790  174.5330  138.3590 C   0  0  1  0  0  0  0  0  0  0  0  0
  196.1070  174.4690  139.7520 O   0  0  0  0  0  1  0  0  0  0  0  0
  196.4810  173.1820  137.7990 C   0  0  2  0  0  0  0  0  0  0  0  0
  199.0160  174.2870  138.1050 C   0  0  0  0  0  2  0  0  0  0  0  0
  196.7380  172.7160  136.3520 C   0  0  0  0  0  2  0  0  0  0  0  0
  195.4580  170.6120  136.0880 C   0  0  0  0  0  1  0  0  0  0  0  0
  197.4790  170.6450  137.3460 O   0  0  0  0  0  1  0  0  0  0  0  0
  196.8440  171.1960  136.2300 C   0  0  2  0  0  3  0  0  0  0  0  0
  186.9400  177.8020  146.5400 O   0  0  0  0  0  0  0  0  0  0  0  0
  185.7930  177.6130  145.7520 C   0  0  0  0  0  2  0  0  0  0  0  0
  184.7630  178.7140  145.9930 C   0  0  0  0  0  2  0  0  0  0  0  0
  184.0370  180.1730  144.0920 C   0  0  0  0  0  2  0  0  0  0  0  0
  184.7150  178.9380  143.5380 C   0  0  1  0  0  3  0  0  0  0  0  0
  183.8580  178.8270  144.7770 C   0  0  1  0  0  3  0  0  0  0  0  0
  182.6400  178.4170  142.2790 F   0  0  0  0  0  0  0  0  0  0  0  0
  184.0270  178.3480  142.2940 C   0  0  1  0  0  3  0  0  0  0  0  0
  186.0490  178.7850  140.7770 C   0  0  0  0  0  1  0  0  0  0  0  0
  184.6310  178.5160  140.9570 N   0  0  0  0  0  0  0  0  0  0  0  0
  182.6720  179.4490  139.7490 C   0  0  0  0  0  3  0  0  0  0  0  0
  183.1980  177.7860  137.5560 C   0  0  0  0  0  0  0  0  0  0  0  0
  181.8430  179.4890  138.6280 C   0  0  0  0  0  3  0  0  0  0  0  0
  184.0230  177.7390  138.6970 C   0  0  0  0  0  3  0  0  0  0  0  0
  182.1100  178.6670  137.5300 C   0  0  0  0  0  3  0  0  0  0  0  0
  183.7700  178.5680  139.7940 C   0  0  0  0  0  0  0  0  0  0  0  0
  183.4980  176.9540  136.3750 C   0  0  0  0  0  0  0  0  0  0  0  0
  184.0210  177.4840  135.3530 O   0  0  0  0  0  0  0  0  0  0  0  0
  181.9650  175.0870  136.9120 O   0  0  0  0  0  1  0  0  0  0  0  0
  182.8110  173.6490  134.8260 O   0  0  0  0  0  1  0  0  0  0  0  0
  185.7820  174.9550  136.6240 C   0  0  0  0  0  2  0  0  0  0  0  0
  183.1790  175.4840  136.3550 C   0  0  1  0  0  0  0  0  0  0  0  0
  185.5060  172.7860  137.6730 N   0  0  0  0  0  0  0  0  0  0  0  0
  183.1900  172.5120  137.3440 O   0  0  0  0  0  0  0  0  0  0  0  0
  183.7030  174.6770  135.1510 C   0  0  1  0  0  3  0  0  0  0  0  0
  184.3290  174.5110  136.5380 C   0  0  1  0  0  0  0  0  0  0  0  0
  184.2440  173.1880  137.1880 C   0  0  0  0  0  0  0  0  0  0  0  0
  186.5040  173.8010  137.3450 C   0  0  0  0  0  3  0  0  0  0  0  0
  1  2  1  0  0  0  0
  2 32  1  0  0  0  0
  3  1  2  0  0  0  0
  4  5  1  0  0  0  0
  5  7  2  0  0  0  0
  5  1  1  0  0  0  0
  6  8  1  0  0  0  0
  6  4  2  0  0  0  0
  8  9  2  0  0  0  0
  9  7  1  0  0  0  0
 10  6  1  0  0  0  0
 11 12  1  6  0  0  0
 11 10  1  0  0  0  0
 13 16  2  0  0  0  0
 14 17  2  0  0  0  0
 14 13  1  0  0  0  0
 15 16  1  0  0  0  0
 16 11  1  0  0  0  0
 17 15  1  0  0  0  0
 18 17  1  0  0  0  0
 18 19  1  0  0  0  0
 19 21  1  0  0  0  0
 21 20  1  1  0  0  0
 22 21  1  6  0  0  0
 22 26  1  0  0  0  0
 22 24  1  0  0  0  0
 23 27  2  0  0  0  0
 23 24  1  0  0  0  0
 24 25  1  1  0  0  0
 26 28  1  6  0  0  0
 26 23  1  0  0  0  0
 26 24  1  0  0  0  0
 31 29  1  1  0  0  0
 31 28  1  0  0  0  0
 31 30  1  0  0  0  0
 33 34  1  0  0  0  0
 33 32  1  0  0  0  0
 35 37  1  0  0  0  0
 36 39  1  6  0  0  0
 36 35  1  0  0  0  0
 36 37  1  0  0  0  0
 37 34  1  1  0  0  0
 39 38  1  6  0  0  0
 40 41  1  0  0  0  0
 41 39  1  0  0  0  0
 42 47  1  0  0  0  0
 43 45  1  0  0  0  0
 44 42  2  0  0  0  0
 45 47  2  0  0  0  0
 46 43  2  0  0  0  0
 46 44  1  0  0  0  0
 47 41  1  0  0  0  0
 48 43  1  0  0  0  0
 49 48  2  0  0  0  0
 52 59  1  0  0  0  0
 53 48  1  0  0  0  0
 53 57  1  0  0  0  0
 53 50  1  1  0  0  0
 56 51  1  1  0  0  0
 56 53  1  0  0  0  0
 56 57  1  0  0  0  0
 57 52  1  1  0  0  0
 57 58  1  0  0  0  0
 58 55  2  0  0  0  0
 58 54  1  0  0  0  0
 59 54  2  0  0  0  0
M  END
>  <MODEL>
9

>  <REMARK>
 VINA RESULT:      -7.2      1.784      2.843
  Name = 
  19 active torsions:
  status: ('A' for Active; 'I' for Inactive)
    1  A    between atoms: C_1  and  C_39
    2  A    between atoms: C_1  and  C_43
    3  A    between atoms: C_3  and  C_57
    4  A    between atoms: N_5  and  C_14
    5  A    between atoms: N_5  and  C_32
    6  A    between atoms: C_12  and  C_13
    7  A    between atoms: C_19  and  C_26
    8  A    between atoms: C_22  and  C_26
    9  A    between atoms: N_23  and  O_51
   10  A    between atoms: C_27  and  C_32
   11  A    between atoms: C_28  and  N_36
   12  A    between atoms: C_28  and  C_44
   13  A    between atoms: N_36  and  C_58
   14  A    between atoms: C_43  and  C_57
   15  A    between atoms: C_46  and  C_49
   16  A    between atoms: C_49  and  C_55
   17  A    between atoms: C_50  and  C_53
   18  A    between atoms: C_50  and  C_56
   19  A    between atoms: O_51  and  C_53
                            x       y       z     vdW  Elec       q    Type
                         _______ _______ _______ _____ _____    ______ ____

>  <TORSDO>
F 19

$$$$
