=
 OpenBabel10232409553D

 34 38  0  0  1  0  0  0  0  0999 V2000
  190.7400  176.4230  140.4100 N   0  0  0  0  0  0  0  0  0  0  0  0
  190.1480  176.7420  136.6960 C   0  0  0  0  0  3  0  0  0  0  0  0
  189.9720  176.8000  138.0750 C   0  0  0  0  0  0  0  0  0  0  0  0
  186.1370  177.3040  134.8140 N   0  0  0  0  0  2  0  0  0  0  0  0
  185.0460  176.8840  135.6350 C   0  0  0  0  0  0  0  0  0  0  0  0
  188.7860  177.3310  138.5910 C   0  0  0  0  0  0  0  0  0  0  0  0
  189.6350  176.9190  140.8860 C   0  0  0  0  0  0  0  0  0  0  0  0
  185.2130  177.9350  137.9770 C   0  0  0  0  0  0  0  0  0  0  0  0
  184.0720  178.4520  138.7760 C   0  0  0  0  0  1  0  0  0  0  0  0
  189.1840  177.2140  135.8660 N   0  0  0  0  0  0  0  0  0  0  0  0
  187.0850  178.3150  135.2930 C   0  0  0  0  0  2  0  0  0  0  0  0
  191.0520  176.2830  138.9830 C   0  0  0  0  0  2  0  0  0  0  0  0
  188.6070  177.3780  140.0050 N   0  0  0  0  0  2  0  0  0  0  0  0
  186.5560  178.2870  138.3350 N   0  0  0  0  0  2  0  0  0  0  0  0
  187.7730  177.7870  137.7310 C   0  0  0  0  0  0  0  0  0  0  0  0
  184.9950  177.3480  136.8440 C   0  0  0  0  0  0  0  0  0  0  0  0
  184.0760  175.8640  135.1590 C   0  0  0  0  0  1  0  0  0  0  0  0
  188.0170  177.7440  136.3250 C   0  0  0  0  0  0  0  0  0  0  0  0
  189.4370  176.9810  142.3640 C   0  0  1  0  0  3  0  0  0  0  0  0
  189.9910  178.2180  142.8990 N   0  0  0  0  0  2  0  0  0  0  0  0
  191.0580  178.2350  143.8470 C   0  0  0  0  0  0  0  0  0  0  0  0
  191.5300  177.1600  144.3030 O   0  0  0  0  0  0  0  0  0  0  0  0
  191.6170  179.5370  144.3000 C   0  0  0  0  0  1  0  0  0  0  0  0
  187.9540  176.8880  142.6900 C   0  0  0  0  0  2  0  0  0  0  0  0
  187.7590  176.7900  144.1300 N   0  0  0  0  0  0  0  0  0  0  0  0
  187.0030  177.7260  146.2180 C   0  0  2  0  0  3  0  0  0  0  0  0
  184.8230  178.8410  146.5470 C   0  0  0  0  0  3  0  0  0  0  0  0
  184.3700  178.3750  145.2000 C   0  0  0  0  0  2  0  0  0  0  0  0
  186.8910  177.6530  144.8750 C   0  0  0  0  0  0  0  0  0  0  0  0
  186.0310  178.5150  147.0130 C   0  0  0  0  0  3  0  0  0  0  0  0
  185.6950  178.6950  143.9980 S   0  0  0  0  0  0  0  0  0  0  0  0
  188.3190  177.6290  148.3220 C   0  0  0  0  0  2  0  0  0  0  0  0
  188.1320  177.0310  146.9350 C   0  0  0  0  0  3  0  0  0  0  0  0
  189.2840  177.9850  147.2160 C   0  0  0  0  0  2  0  0  0  0  0  0
  1  7  2  0  0  0  0
  2  3  1  0  0  0  0
  3  6  2  0  0  0  0
  3 12  1  0  0  0  0
  4 11  1  0  0  0  0
  4  5  1  0  0  0  0
  5 16  2  0  0  0  0
  6 13  1  0  0  0  0
  7 19  1  0  0  0  0
  8 14  1  0  0  0  0
  8  9  1  0  0  0  0
 10 18  1  0  0  0  0
 10  2  2  0  0  0  0
 11 18  1  0  0  0  0
 12  1  1  0  0  0  0
 13  7  1  0  0  0  0
 15 14  1  0  0  0  0
 15  6  1  0  0  0  0
 16  8  2  0  0  0  0
 17  5  1  0  0  0  0
 18 15  2  0  0  0  0
 19 24  1  6  0  0  0
 19 20  1  0  0  0  0
 20 21  1  0  0  0  0
 21 23  1  0  0  0  0
 21 22  2  0  0  0  0
 24 25  1  0  0  0  0
 25 29  2  0  0  0  0
 26 33  1  6  0  0  0
 26 30  1  0  0  0  0
 27 30  2  0  0  0  0
 28 27  1  0  0  0  0
 29 26  1  0  0  0  0
 31 29  1  0  0  0  0
 31 28  1  0  0  0  0
 33 34  1  0  0  0  0
 33 32  1  0  0  0  0
 34 32  1  0  0  0  0
M  END
>  <MODEL>
1

>  <REMARK>
 VINA RESULT:      -8.8      0.000      0.000
  Name = 
  6 active torsions:
  status: ('A' for Active; 'I' for Inactive)
    1  A    between atoms: N_1  and  C_3
    2  A    between atoms: C_3  and  C_17
    3  A    between atoms: C_3  and  C_32
    4  A    between atoms: N_4  and  C_24
    5  A    between atoms: N_4  and  C_32
    6  A    between atoms: C_5  and  C_9
                            x       y       z     vdW  Elec       q    Type
                         _______ _______ _______ _____ _____    ______ ____

>  <TORSDO>
F 6

$$$$
=
 OpenBabel10232409553D

 34 38  0  0  1  0  0  0  0  0999 V2000
  188.6200  177.7030  140.4290 N   0  0  0  0  0  0  0  0  0  0  0  0
  188.9660  177.5080  136.6760 C   0  0  0  0  0  3  0  0  0  0  0  0
  189.1750  177.3110  138.0370 C   0  0  0  0  0  0  0  0  0  0  0  0
  192.6260  176.0910  134.5440 N   0  0  0  0  0  2  0  0  0  0  0  0
  193.8190  176.1650  135.3270 C   0  0  0  0  0  0  0  0  0  0  0  0
  190.2060  176.4630  138.4540 C   0  0  0  0  0  0  0  0  0  0  0  0
  189.5790  176.9130  140.8130 C   0  0  0  0  0  0  0  0  0  0  0  0
  193.4820  175.0270  137.6080 C   0  0  0  0  0  0  0  0  0  0  0  0
  194.4830  174.1840  138.3110 C   0  0  0  0  0  1  0  0  0  0  0  0
  189.7460  176.8690  135.7670 N   0  0  0  0  0  0  0  0  0  0  0  0
  191.4710  175.3200  135.0140 C   0  0  0  0  0  2  0  0  0  0  0  0
  188.2980  178.0170  139.0320 C   0  0  0  0  0  2  0  0  0  0  0  0
  190.4220  176.2730  139.8510 N   0  0  0  0  0  2  0  0  0  0  0  0
  192.1080  174.9990  138.0190 N   0  0  0  0  0  2  0  0  0  0  0  0
  191.0360  175.8300  137.5140 C   0  0  0  0  0  0  0  0  0  0  0  0
  193.7970  175.6190  136.5020 C   0  0  0  0  0  0  0  0  0  0  0  0
  194.9970  176.9400  134.8580 C   0  0  0  0  0  1  0  0  0  0  0  0
  190.7560  176.0320  136.1290 C   0  0  0  0  0  0  0  0  0  0  0  0
  189.8130  176.6980  142.2710 C   0  0  1  0  0  3  0  0  0  0  0  0
  190.1970  177.9500  142.9130 N   0  0  0  0  0  2  0  0  0  0  0  0
  191.3000  178.0430  143.8150 C   0  0  0  0  0  0  0  0  0  0  0  0
  191.9570  177.0170  144.1360 O   0  0  0  0  0  0  0  0  0  0  0  0
  191.6740  179.3660  144.3830 C   0  0  0  0  0  1  0  0  0  0  0  0
  188.5540  176.1440  142.9210 C   0  0  0  0  0  2  0  0  0  0  0  0
  188.4490  176.6080  144.2970 N   0  0  0  0  0  0  0  0  0  0  0  0
  187.2590  177.7100  146.0790 C   0  0  2  0  0  3  0  0  0  0  0  0
  185.0470  178.7830  145.8330 C   0  0  0  0  0  3  0  0  0  0  0  0
  184.8940  178.1810  144.4730 C   0  0  0  0  0  2  0  0  0  0  0  0
  187.4340  177.5100  144.7560 C   0  0  0  0  0  0  0  0  0  0  0  0
  186.1320  178.5390  146.5720 C   0  0  0  0  0  3  0  0  0  0  0  0
  186.4400  178.4290  143.5510 S   0  0  0  0  0  0  0  0  0  0  0  0
  187.9280  177.6690  148.4700 C   0  0  0  0  0  2  0  0  0  0  0  0
  188.2170  177.1200  147.0810 C   0  0  0  0  0  3  0  0  0  0  0  0
  189.1120  178.1890  147.6910 C   0  0  0  0  0  2  0  0  0  0  0  0
  1  7  2  0  0  0  0
  2  3  1  0  0  0  0
  3  6  2  0  0  0  0
  3 12  1  0  0  0  0
  4 11  1  0  0  0  0
  4  5  1  0  0  0  0
  5 16  2  0  0  0  0
  6 13  1  0  0  0  0
  7 19  1  0  0  0  0
  8 14  1  0  0  0  0
  8  9  1  0  0  0  0
 10 18  1  0  0  0  0
 10  2  2  0  0  0  0
 11 18  1  0  0  0  0
 12  1  1  0  0  0  0
 13  7  1  0  0  0  0
 15 14  1  0  0  0  0
 15  6  1  0  0  0  0
 16  8  2  0  0  0  0
 17  5  1  0  0  0  0
 18 15  2  0  0  0  0
 19 20  1  0  0  0  0
 19 24  1  1  0  0  0
 20 21  1  0  0  0  0
 21 22  2  0  0  0  0
 21 23  1  0  0  0  0
 24 25  1  0  0  0  0
 25 29  2  0  0  0  0
 26 30  1  0  0  0  0
 26 33  1  6  0  0  0
 27 30  2  0  0  0  0
 28 27  1  0  0  0  0
 29 26  1  0  0  0  0
 31 28  1  0  0  0  0
 31 29  1  0  0  0  0
 33 34  1  0  0  0  0
 33 32  1  0  0  0  0
 34 32  1  0  0  0  0
M  END
>  <MODEL>
2

>  <REMARK>
 VINA RESULT:      -8.6      1.973      4.386
  Name = 
  6 active torsions:
  status: ('A' for Active; 'I' for Inactive)
    1  A    between atoms: N_1  and  C_3
    2  A    between atoms: C_3  and  C_17
    3  A    between atoms: C_3  and  C_32
    4  A    between atoms: N_4  and  C_24
    5  A    between atoms: N_4  and  C_32
    6  A    between atoms: C_5  and  C_9
                            x       y       z     vdW  Elec       q    Type
                         _______ _______ _______ _____ _____    ______ ____

>  <TORSDO>
F 6

$$$$
=
 OpenBabel10232409553D

 34 38  0  0  1  0  0  0  0  0999 V2000
  190.7970  176.4040  140.3140 N   0  0  0  0  0  0  0  0  0  0  0  0
  190.0790  176.7530  136.6250 C   0  0  0  0  0  3  0  0  0  0  0  0
  189.9520  176.8040  138.0100 C   0  0  0  0  0  0  0  0  0  0  0  0
  186.0110  177.3720  134.8890 N   0  0  0  0  0  2  0  0  0  0  0  0
  184.9450  176.9590  135.7460 C   0  0  0  0  0  0  0  0  0  0  0  0
  188.7910  177.3460  138.5700 C   0  0  0  0  0  0  0  0  0  0  0  0
  189.7160  176.9100  140.8310 C   0  0  0  0  0  0  0  0  0  0  0  0
  185.2060  177.9940  138.0870 C   0  0  0  0  0  0  0  0  0  0  0  0
  184.1000  178.5200  138.9280 C   0  0  0  0  0  1  0  0  0  0  0  0
  189.0910  177.2410  135.8320 N   0  0  0  0  0  0  0  0  0  0  0  0
  186.9870  178.3690  135.3400 C   0  0  0  0  0  2  0  0  0  0  0  0
  191.0580  176.2690  138.8760 C   0  0  0  0  0  2  0  0  0  0  0  0
  188.6630  177.3860  139.9900 N   0  0  0  0  0  2  0  0  0  0  0  0
  186.5660  178.3290  138.3990 N   0  0  0  0  0  2  0  0  0  0  0  0
  187.7540  177.8190  137.7490 C   0  0  0  0  0  0  0  0  0  0  0  0
  184.9410  177.4170  136.9590 C   0  0  0  0  0  0  0  0  0  0  0  0
  183.9470  175.9540  135.2990 C   0  0  0  0  0  1  0  0  0  0  0  0
  187.9480  177.7820  136.3350 C   0  0  0  0  0  0  0  0  0  0  0  0
  189.5710  176.9650  142.3160 C   0  0  1  0  0  3  0  0  0  0  0  0
  190.1460  178.1990  142.8360 N   0  0  0  0  0  2  0  0  0  0  0  0
  191.1720  178.2090  143.8290 C   0  0  0  0  0  0  0  0  0  0  0  0
  191.5840  177.1340  144.3380 O   0  0  0  0  0  0  0  0  0  0  0  0
  191.7570  179.5050  144.2670 C   0  0  0  0  0  1  0  0  0  0  0  0
  188.1010  176.8740  142.6950 C   0  0  0  0  0  2  0  0  0  0  0  0
  187.7000  178.0510  143.4520 N   0  0  0  0  0  2  0  0  0  0  0  0
  185.6380  178.5670  144.5880 C   0  0  0  0  0  0  0  0  0  0  0  0
  185.3420  178.5340  147.0400 C   0  0  0  0  0  3  0  0  0  0  0  0
  186.8190  178.3940  147.2270 C   0  0  0  0  0  2  0  0  0  0  0  0
  186.8630  178.0010  144.6150 C   0  0  0  0  0  0  0  0  0  0  0  0
  184.8130  178.6350  145.8190 C   0  0  0  0  0  3  0  0  0  0  0  0
  187.4310  177.1150  146.0900 S   0  0  0  0  0  0  0  0  0  0  0  0
  183.5500  179.0900  143.3490 C   0  0  0  0  0  2  0  0  0  0  0  0
  185.0710  179.1150  143.3040 C   0  0  0  0  0  3  0  0  0  0  0  0
  184.2930  178.0530  142.5410 C   0  0  0  0  0  2  0  0  0  0  0  0
  1  7  2  0  0  0  0
  2  3  1  0  0  0  0
  3  6  2  0  0  0  0
  3 12  1  0  0  0  0
  4 11  1  0  0  0  0
  4  5  1  0  0  0  0
  5 16  2  0  0  0  0
  6 13  1  0  0  0  0
  7 19  1  0  0  0  0
  8 14  1  0  0  0  0
  8  9  1  0  0  0  0
 10 18  1  0  0  0  0
 10  2  2  0  0  0  0
 11 18  1  0  0  0  0
 12  1  1  0  0  0  0
 13  7  1  0  0  0  0
 15 14  1  0  0  0  0
 15  6  1  0  0  0  0
 16  8  2  0  0  0  0
 17  5  1  0  0  0  0
 18 15  2  0  0  0  0
 19 24  1  6  0  0  0
 19 20  1  0  0  0  0
 20 21  1  0  0  0  0
 21 23  1  0  0  0  0
 21 22  2  0  0  0  0
 24 25  1  0  0  0  0
 25 29  1  0  0  0  0
 26 29  2  0  0  0  0
 26 30  1  0  0  0  0
 27 28  1  0  0  0  0
 29 31  1  0  0  0  0
 30 27  2  0  0  0  0
 31 28  1  0  0  0  0
 33 32  1  0  0  0  0
 33 26  1  0  0  0  0
 34 33  1  0  0  0  0
 34 32  1  0  0  0  0
M  END
>  <MODEL>
3

>  <REMARK>
 VINA RESULT:      -8.6      0.980      2.133
  Name = 
  6 active torsions:
  status: ('A' for Active; 'I' for Inactive)
    1  A    between atoms: N_1  and  C_3
    2  A    between atoms: C_3  and  C_17
    3  A    between atoms: C_3  and  C_32
    4  A    between atoms: N_4  and  C_24
    5  A    between atoms: N_4  and  C_32
    6  A    between atoms: C_5  and  C_9
                            x       y       z     vdW  Elec       q    Type
                         _______ _______ _______ _____ _____    ______ ____

>  <TORSDO>
F 6

$$$$
=
 OpenBabel10232409553D

 34 38  0  0  1  0  0  0  0  0999 V2000
  190.2230  177.4660  141.1500 N   0  0  0  0  0  0  0  0  0  0  0  0
  190.7550  176.4370  137.5580 C   0  0  0  0  0  3  0  0  0  0  0  0
  190.1690  176.9150  138.7260 C   0  0  0  0  0  0  0  0  0  0  0  0
  187.4670  175.6490  134.6400 N   0  0  0  0  0  2  0  0  0  0  0  0
  186.2120  175.3410  135.2490 C   0  0  0  0  0  0  0  0  0  0  0  0
  188.8480  177.3740  138.6890 C   0  0  0  0  0  0  0  0  0  0  0  0
  188.9950  177.8930  141.1110 C   0  0  0  0  0  0  0  0  0  0  0  0
  185.5920  177.1160  137.0040 C   0  0  0  0  0  0  0  0  0  0  0  0
  184.2310  177.6640  137.2370 C   0  0  0  0  0  1  0  0  0  0  0  0
  190.0540  176.4360  136.3950 N   0  0  0  0  0  0  0  0  0  0  0  0
  188.1540  176.9080  134.9420 C   0  0  0  0  0  2  0  0  0  0  0  0
  190.9590  176.9200  140.0040 C   0  0  0  0  0  2  0  0  0  0  0  0
  188.2490  177.8520  139.8920 N   0  0  0  0  0  2  0  0  0  0  0  0
  186.7380  177.7930  137.5400 N   0  0  0  0  0  2  0  0  0  0  0  0
  188.1120  177.3390  137.4930 C   0  0  0  0  0  0  0  0  0  0  0  0
  185.7670  176.1610  136.1480 C   0  0  0  0  0  0  0  0  0  0  0  0
  185.5030  174.0700  134.9460 C   0  0  0  0  0  1  0  0  0  0  0  0
  188.7690  176.8790  136.3130 C   0  0  0  0  0  0  0  0  0  0  0  0
  188.3570  178.4030  142.3610 C   0  0  1  0  0  3  0  0  0  0  0  0
  187.0000  177.8860  142.4850 N   0  0  0  0  0  2  0  0  0  0  0  0
  185.8500  178.6540  142.1300 C   0  0  0  0  0  0  0  0  0  0  0  0
  185.9680  179.8460  141.7410 O   0  0  0  0  0  0  0  0  0  0  0  0
  184.4990  178.0380  142.2220 C   0  0  0  0  0  1  0  0  0  0  0  0
  189.1850  177.9920  143.5690 C   0  0  0  0  0  2  0  0  0  0  0  0
  188.3960  177.1530  144.4600 N   0  0  0  0  0  2  0  0  0  0  0  0
  187.2850  177.6650  146.5360 C   0  0  0  0  0  0  0  0  0  0  0  0
  188.4440  178.1940  148.6530 C   0  0  0  0  0  3  0  0  0  0  0  0
  189.7470  178.2920  147.9270 C   0  0  0  0  0  2  0  0  0  0  0  0
  188.4050  177.2820  145.8870 C   0  0  0  0  0  0  0  0  0  0  0  0
  187.3130  177.9270  147.9960 C   0  0  0  0  0  3  0  0  0  0  0  0
  189.9040  176.8620  146.8160 S   0  0  0  0  0  0  0  0  0  0  0  0
  185.6070  179.2770  145.6700 C   0  0  0  0  0  2  0  0  0  0  0  0
  185.9780  177.8070  145.7980 C   0  0  0  0  0  3  0  0  0  0  0  0
  184.9010  178.4120  146.6870 C   0  0  0  0  0  2  0  0  0  0  0  0
  2  3  1  0  0  0  0
  3 12  1  0  0  0  0
  4 11  1  0  0  0  0
  4  5  1  0  0  0  0
  5 16  2  0  0  0  0
  6  3  2  0  0  0  0
  6 13  1  0  0  0  0
  7  1  2  0  0  0  0
  7 19  1  0  0  0  0
  8  9  1  0  0  0  0
  8 14  1  0  0  0  0
 10  2  2  0  0  0  0
 11 18  1  0  0  0  0
 12  1  1  0  0  0  0
 13  7  1  0  0  0  0
 15 14  1  0  0  0  0
 15  6  1  0  0  0  0
 16  8  2  0  0  0  0
 17  5  1  0  0  0  0
 18 10  1  0  0  0  0
 18 15  2  0  0  0  0
 19 20  1  0  0  0  0
 19 24  1  1  0  0  0
 21 23  1  0  0  0  0
 21 20  1  0  0  0  0
 22 21  2  0  0  0  0
 24 25  1  0  0  0  0
 25 29  1  0  0  0  0
 26 30  1  0  0  0  0
 28 27  1  0  0  0  0
 29 26  2  0  0  0  0
 29 31  1  0  0  0  0
 30 27  2  0  0  0  0
 31 28  1  0  0  0  0
 32 33  1  0  0  0  0
 32 34  1  0  0  0  0
 33 26  1  0  0  0  0
 33 34  1  0  0  0  0
M  END
>  <MODEL>
4

>  <REMARK>
 VINA RESULT:      -8.5      2.011      3.055
  Name = 
  6 active torsions:
  status: ('A' for Active; 'I' for Inactive)
    1  A    between atoms: N_1  and  C_3
    2  A    between atoms: C_3  and  C_17
    3  A    between atoms: C_3  and  C_32
    4  A    between atoms: N_4  and  C_24
    5  A    between atoms: N_4  and  C_32
    6  A    between atoms: C_5  and  C_9
                            x       y       z     vdW  Elec       q    Type
                         _______ _______ _______ _____ _____    ______ ____

>  <TORSDO>
F 6

$$$$
=
 OpenBabel10232409553D

 34 38  0  0  1  0  0  0  0  0999 V2000
  186.7720  178.5740  137.5840 N   0  0  0  0  0  0  0  0  0  0  0  0
  190.3240  177.8030  138.6010 C   0  0  0  0  0  3  0  0  0  0  0  0
  188.9460  177.9920  138.6420 C   0  0  0  0  0  0  0  0  0  0  0  0
  191.7840  177.7190  142.8210 N   0  0  0  0  0  2  0  0  0  0  0  0
  190.9690  178.4590  143.7320 C   0  0  0  0  0  0  0  0  0  0  0  0
  188.2620  177.7790  139.8430 C   0  0  0  0  0  0  0  0  0  0  0  0
  186.1400  178.3730  138.7030 C   0  0  0  0  0  0  0  0  0  0  0  0
  188.5010  177.7690  143.5100 C   0  0  0  0  0  0  0  0  0  0  0  0
  187.5450  177.6040  144.6350 C   0  0  0  0  0  1  0  0  0  0  0  0
  190.9890  177.3980  139.7130 N   0  0  0  0  0  0  0  0  0  0  0  0
  191.2110  176.6350  142.0180 C   0  0  0  0  0  2  0  0  0  0  0  0
  188.2210  178.4310  137.4010 C   0  0  0  0  0  2  0  0  0  0  0  0
  186.8510  177.9850  139.8810 N   0  0  0  0  0  2  0  0  0  0  0  0
  188.1880  177.2310  142.2180 N   0  0  0  0  0  2  0  0  0  0  0  0
  188.9560  177.3940  141.0020 C   0  0  0  0  0  0  0  0  0  0  0  0
  189.6980  178.2050  143.7390 C   0  0  0  0  0  0  0  0  0  0  0  0
  191.5400  179.5570  144.5550 C   0  0  0  0  0  1  0  0  0  0  0  0
  190.3620  177.1730  140.9010 C   0  0  0  0  0  0  0  0  0  0  0  0
  184.6620  178.5780  138.7560 C   0  0  1  0  0  3  0  0  0  0  0  0
  183.9690  177.3000  138.6630 N   0  0  0  0  0  2  0  0  0  0  0  0
  182.7740  177.1280  137.9000 C   0  0  0  0  0  0  0  0  0  0  0  0
  182.2380  178.1060  137.3150 O   0  0  0  0  0  0  0  0  0  0  0  0
  182.1560  175.7790  137.7980 C   0  0  0  0  0  1  0  0  0  0  0  0
  184.2840  179.2840  140.0490 C   0  0  0  0  0  2  0  0  0  0  0  0
  183.6650  178.3460  140.9750 N   0  0  0  0  0  2  0  0  0  0  0  0
  182.6720  178.6930  143.1430 C   0  0  0  0  0  0  0  0  0  0  0  0
  180.2430  178.6760  143.5910 C   0  0  0  0  0  3  0  0  0  0  0  0
  179.9820  178.1490  142.2160 C   0  0  0  0  0  2  0  0  0  0  0  0
  182.5390  178.6700  141.8000 C   0  0  0  0  0  0  0  0  0  0  0  0
  181.4890  178.9010  144.0140 C   0  0  0  0  0  3  0  0  0  0  0  0
  180.9610  179.1160  141.0280 S   0  0  0  0  0  0  0  0  0  0  0  0
  183.9830  179.0230  145.2260 C   0  0  0  0  0  2  0  0  0  0  0  0
  184.0270  178.5370  143.7850 C   0  0  0  0  0  3  0  0  0  0  0  0
  184.6220  179.8850  144.1630 C   0  0  0  0  0  2  0  0  0  0  0  0
  1  7  2  0  0  0  0
  2  3  2  0  0  0  0
  2 10  1  0  0  0  0
  3  6  1  0  0  0  0
  4  5  1  0  0  0  0
  5 16  2  0  0  0  0
  5 17  1  0  0  0  0
  6 13  1  0  0  0  0
  6 15  2  0  0  0  0
  7 19  1  0  0  0  0
  7 13  1  0  0  0  0
  8 16  2  0  0  0  0
  8  9  1  0  0  0  0
 10 18  2  0  0  0  0
 11  4  1  0  0  0  0
 12  1  1  0  0  0  0
 12  3  1  0  0  0  0
 14  8  1  0  0  0  0
 15 14  1  0  0  0  0
 18 15  1  0  0  0  0
 18 11  1  0  0  0  0
 19 24  1  1  0  0  0
 20 19  1  0  0  0  0
 21 20  1  0  0  0  0
 22 21  2  0  0  0  0
 23 21  1  0  0  0  0
 24 25  1  0  0  0  0
 25 29  1  0  0  0  0
 26 33  1  0  0  0  0
 26 30  1  0  0  0  0
 27 30  2  0  0  0  0
 28 27  1  0  0  0  0
 29 26  2  0  0  0  0
 31 29  1  0  0  0  0
 31 28  1  0  0  0  0
 33 34  1  0  0  0  0
 33 32  1  0  0  0  0
 34 32  1  0  0  0  0
M  END
>  <MODEL>
5

>  <REMARK>
 VINA RESULT:      -8.3      3.060      6.731
  Name = 
  6 active torsions:
  status: ('A' for Active; 'I' for Inactive)
    1  A    between atoms: N_1  and  C_3
    2  A    between atoms: C_3  and  C_17
    3  A    between atoms: C_3  and  C_32
    4  A    between atoms: N_4  and  C_24
    5  A    between atoms: N_4  and  C_32
    6  A    between atoms: C_5  and  C_9
                            x       y       z     vdW  Elec       q    Type
                         _______ _______ _______ _____ _____    ______ ____

>  <TORSDO>
F 6

$$$$
=
 OpenBabel10232409553D

 34 38  0  0  1  0  0  0  0  0999 V2000
  189.7310  177.3280  139.7340 N   0  0  0  0  0  0  0  0  0  0  0  0
  188.9250  176.3660  136.1740 C   0  0  0  0  0  3  0  0  0  0  0  0
  188.8140  176.8590  137.4700 C   0  0  0  0  0  0  0  0  0  0  0  0
  184.7890  175.9740  134.5360 N   0  0  0  0  0  2  0  0  0  0  0  0
  183.7870  175.7640  135.5330 C   0  0  0  0  0  0  0  0  0  0  0  0
  187.6090  177.4390  137.8800 C   0  0  0  0  0  0  0  0  0  0  0  0
  188.6090  177.8670  140.1100 C   0  0  0  0  0  0  0  0  0  0  0  0
  183.9680  177.5350  137.3900 C   0  0  0  0  0  0  0  0  0  0  0  0
  182.8230  178.1980  138.0670 C   0  0  0  0  0  1  0  0  0  0  0  0
  187.8790  176.4650  135.3160 N   0  0  0  0  0  0  0  0  0  0  0  0
  185.6570  177.1550  134.5860 C   0  0  0  0  0  2  0  0  0  0  0  0
  189.9840  176.7530  138.4080 C   0  0  0  0  0  2  0  0  0  0  0  0
  187.4980  177.9330  139.2130 N   0  0  0  0  0  2  0  0  0  0  0  0
  185.2870  178.0860  137.5080 N   0  0  0  0  0  2  0  0  0  0  0  0
  186.5140  177.5090  137.0020 C   0  0  0  0  0  0  0  0  0  0  0  0
  183.7510  176.5940  136.5280 C   0  0  0  0  0  0  0  0  0  0  0  0
  182.8980  174.5750  135.4890 C   0  0  0  0  0  1  0  0  0  0  0  0
  186.6900  177.0270  135.6700 C   0  0  0  0  0  0  0  0  0  0  0  0
  188.4800  178.3960  141.5000 C   0  0  1  0  0  3  0  0  0  0  0  0
  187.2460  177.9180  142.1120 N   0  0  0  0  0  2  0  0  0  0  0  0
  186.0280  178.6600  142.0650 C   0  0  0  0  0  0  0  0  0  0  0  0
  185.9900  179.8000  141.5300 O   0  0  0  0  0  0  0  0  0  0  0  0
  184.7920  178.0810  142.6550 C   0  0  0  0  0  1  0  0  0  0  0  0
  189.6770  177.9610  142.3320 C   0  0  0  0  0  2  0  0  0  0  0  0
  189.5020  178.3630  143.7200 N   0  0  0  0  0  2  0  0  0  0  0  0
  189.0410  177.5350  145.9360 C   0  0  0  0  0  0  0  0  0  0  0  0
  190.6900  176.3890  147.3750 C   0  0  0  0  0  3  0  0  0  0  0  0
  191.7880  176.7620  146.4310 C   0  0  0  0  0  2  0  0  0  0  0  0
  189.8240  177.5240  144.8370 C   0  0  0  0  0  0  0  0  0  0  0  0
  189.4310  176.7710  147.1460 C   0  0  0  0  0  3  0  0  0  0  0  0
  191.2440  176.4030  144.7350 S   0  0  0  0  0  0  0  0  0  0  0  0
  186.9050  177.8910  147.1520 C   0  0  0  0  0  2  0  0  0  0  0  0
  187.7420  178.2990  145.9490 C   0  0  0  0  0  3  0  0  0  0  0  0
  186.5480  177.3690  145.7810 C   0  0  0  0  0  2  0  0  0  0  0  0
  1  7  2  0  0  0  0
  2  3  1  0  0  0  0
  3  6  2  0  0  0  0
  3 12  1  0  0  0  0
  4 11  1  0  0  0  0
  4  5  1  0  0  0  0
  5 16  2  0  0  0  0
  6 13  1  0  0  0  0
  7 19  1  0  0  0  0
  8 14  1  0  0  0  0
  8  9  1  0  0  0  0
 10 18  1  0  0  0  0
 10  2  2  0  0  0  0
 11 18  1  0  0  0  0
 12  1  1  0  0  0  0
 13  7  1  0  0  0  0
 15 14  1  0  0  0  0
 15  6  1  0  0  0  0
 16  8  2  0  0  0  0
 17  5  1  0  0  0  0
 18 15  2  0  0  0  0
 19 20  1  0  0  0  0
 19 24  1  1  0  0  0
 21 20  1  0  0  0  0
 21 23  1  0  0  0  0
 22 21  2  0  0  0  0
 24 25  1  0  0  0  0
 25 29  1  0  0  0  0
 26 33  1  0  0  0  0
 26 30  1  0  0  0  0
 28 27  1  0  0  0  0
 29 26  2  0  0  0  0
 30 27  2  0  0  0  0
 31 29  1  0  0  0  0
 31 28  1  0  0  0  0
 33 32  1  0  0  0  0
 34 33  1  0  0  0  0
 34 32  1  0  0  0  0
M  END
>  <MODEL>
6

>  <REMARK>
 VINA RESULT:      -8.1      2.180      3.306
  Name = 
  6 active torsions:
  status: ('A' for Active; 'I' for Inactive)
    1  A    between atoms: N_1  and  C_3
    2  A    between atoms: C_3  and  C_17
    3  A    between atoms: C_3  and  C_32
    4  A    between atoms: N_4  and  C_24
    5  A    between atoms: N_4  and  C_32
    6  A    between atoms: C_5  and  C_9
                            x       y       z     vdW  Elec       q    Type
                         _______ _______ _______ _____ _____    ______ ____

>  <TORSDO>
F 6

$$$$
=
 OpenBabel10232409553D

 34 38  0  0  1  0  0  0  0  0999 V2000
  184.9030  178.5420  145.3480 N   0  0  0  0  0  0  0  0  0  0  0  0
  181.4880  179.1430  143.8580 C   0  0  0  0  0  3  0  0  0  0  0  0
  182.8410  178.8470  143.9930 C   0  0  0  0  0  0  0  0  0  0  0  0
  180.7230  179.9530  139.5330 N   0  0  0  0  0  2  0  0  0  0  0  0
  181.8620  180.4430  138.8230 C   0  0  0  0  0  0  0  0  0  0  0  0
  183.5850  178.5190  142.8550 C   0  0  0  0  0  0  0  0  0  0  0  0
  185.5920  178.2370  144.2870 C   0  0  0  0  0  0  0  0  0  0  0  0
  183.9010  178.9250  139.2150 C   0  0  0  0  0  0  0  0  0  0  0  0
  184.9040  178.5410  138.1890 C   0  0  0  0  0  1  0  0  0  0  0  0
  180.8990  179.0960  142.6360 N   0  0  0  0  0  0  0  0  0  0  0  0
  180.7790  178.6690  140.2390 C   0  0  0  0  0  2  0  0  0  0  0  0
  183.4780  178.8930  145.3520 C   0  0  0  0  0  2  0  0  0  0  0  0
  184.9740  178.2270  142.9980 N   0  0  0  0  0  2  0  0  0  0  0  0
  183.8240  178.1970  140.4490 N   0  0  0  0  0  2  0  0  0  0  0  0
  182.9830  178.5050  141.5860 C   0  0  0  0  0  0  0  0  0  0  0  0
  182.9630  179.7660  138.9200 C   0  0  0  0  0  0  0  0  0  0  0  0
  181.8160  181.7400  138.1000 C   0  0  0  0  0  1  0  0  0  0  0  0
  181.5840  178.7760  141.5040 C   0  0  0  0  0  0  0  0  0  0  0  0
  187.0440  177.9210  144.4220 C   0  0  1  0  0  3  0  0  0  0  0  0
  187.3070  177.2770  145.7030 N   0  0  0  0  0  2  0  0  0  0  0  0
  188.4860  177.5360  146.4650 C   0  0  0  0  0  0  0  0  0  0  0  0
  189.3830  178.3020  146.0220 O   0  0  0  0  0  0  0  0  0  0  0  0
  188.6570  176.8910  147.7950 C   0  0  0  0  0  1  0  0  0  0  0  0
  187.4850  177.0150  143.2830 C   0  0  0  0  0  2  0  0  0  0  0  0
  188.0350  177.8070  142.1910 N   0  0  0  0  0  2  0  0  0  0  0  0
  189.8230  177.5260  140.6000 C   0  0  0  0  0  0  0  0  0  0  0  0
  192.2000  177.2290  141.2010 C   0  0  0  0  0  3  0  0  0  0  0  0
  191.8260  177.0510  142.6370 C   0  0  0  0  0  2  0  0  0  0  0  0
  189.4270  177.8340  141.8530 C   0  0  0  0  0  0  0  0  0  0  0  0
  191.2650  177.4250  140.2690 C   0  0  0  0  0  3  0  0  0  0  0  0
  190.6420  178.3510  143.0960 S   0  0  0  0  0  0  0  0  0  0  0  0
  189.5080  177.2080  138.1570 C   0  0  0  0  0  2  0  0  0  0  0  0
  188.8100  177.3060  139.5050 C   0  0  0  0  0  3  0  0  0  0  0  0
  188.7790  178.4760  138.5330 C   0  0  0  0  0  2  0  0  0  0  0  0
  1 12  1  0  0  0  0
  2  3  1  0  0  0  0
  3 12  1  0  0  0  0
  4 11  1  0  0  0  0
  5 16  2  0  0  0  0
  5  4  1  0  0  0  0
  6 13  1  0  0  0  0
  6  3  2  0  0  0  0
  7 19  1  0  0  0  0
  7  1  2  0  0  0  0
  8 14  1  0  0  0  0
  9  8  1  0  0  0  0
 10  2  2  0  0  0  0
 11 18  1  0  0  0  0
 13  7  1  0  0  0  0
 14 15  1  0  0  0  0
 15  6  1  0  0  0  0
 16  8  2  0  0  0  0
 17  5  1  0  0  0  0
 18 15  2  0  0  0  0
 18 10  1  0  0  0  0
 19 24  1  6  0  0  0
 19 20  1  0  0  0  0
 20 21  1  0  0  0  0
 21 23  1  0  0  0  0
 22 21  2  0  0  0  0
 25 24  1  0  0  0  0
 26 29  2  0  0  0  0
 27 28  1  0  0  0  0
 28 31  1  0  0  0  0
 29 25  1  0  0  0  0
 29 31  1  0  0  0  0
 30 26  1  0  0  0  0
 30 27  2  0  0  0  0
 32 34  1  0  0  0  0
 32 33  1  0  0  0  0
 33 26  1  0  0  0  0
 34 33  1  0  0  0  0
M  END
>  <MODEL>
7

>  <REMARK>
 VINA RESULT:      -8.1      2.848      6.804
  Name = 
  6 active torsions:
  status: ('A' for Active; 'I' for Inactive)
    1  A    between atoms: N_1  and  C_3
    2  A    between atoms: C_3  and  C_17
    3  A    between atoms: C_3  and  C_32
    4  A    between atoms: N_4  and  C_24
    5  A    between atoms: N_4  and  C_32
    6  A    between atoms: C_5  and  C_9
                            x       y       z     vdW  Elec       q    Type
                         _______ _______ _______ _____ _____    ______ ____

>  <TORSDO>
F 6

$$$$
=
 OpenBabel10232409553D

 34 38  0  0  1  0  0  0  0  0999 V2000
  191.3020  177.2940  140.5980 N   0  0  0  0  0  0  0  0  0  0  0  0
  191.7960  176.4270  136.9580 C   0  0  0  0  0  3  0  0  0  0  0  0
  191.2010  176.6960  138.1870 C   0  0  0  0  0  0  0  0  0  0  0  0
  188.7250  174.4460  134.3910 N   0  0  0  0  0  2  0  0  0  0  0  0
  187.7310  173.7290  135.1240 C   0  0  0  0  0  0  0  0  0  0  0  0
  189.8070  176.6550  138.2940 C   0  0  0  0  0  0  0  0  0  0  0  0
  190.0060  177.2560  140.6930 C   0  0  0  0  0  0  0  0  0  0  0  0
  186.7020  175.2140  136.9550 C   0  0  0  0  0  0  0  0  0  0  0  0
  185.2670  175.2490  137.3360 C   0  0  0  0  0  1  0  0  0  0  0  0
  191.0280  176.1470  135.8750 N   0  0  0  0  0  0  0  0  0  0  0  0
  188.9470  175.8750  134.6350 C   0  0  0  0  0  2  0  0  0  0  0  0
  192.0640  177.0150  139.3750 C   0  0  0  0  0  2  0  0  0  0  0  0
  189.2030  176.9210  139.5580 N   0  0  0  0  0  2  0  0  0  0  0  0
  187.5810  176.2670  137.3770 N   0  0  0  0  0  2  0  0  0  0  0  0
  189.0140  176.3300  137.1810 C   0  0  0  0  0  0  0  0  0  0  0  0
  187.1170  174.3610  136.0750 C   0  0  0  0  0  0  0  0  0  0  0  0
  187.4940  172.2820  134.8830 C   0  0  0  0  0  1  0  0  0  0  0  0
  189.6680  176.1020  135.9330 C   0  0  0  0  0  0  0  0  0  0  0  0
  189.3590  177.5390  142.0080 C   0  0  1  0  0  3  0  0  0  0  0  0
  190.1660  178.4770  142.7790 N   0  0  0  0  0  2  0  0  0  0  0  0
  191.1610  178.0500  143.7100 C   0  0  0  0  0  0  0  0  0  0  0  0
  191.3410  176.8250  143.9410 O   0  0  0  0  0  0  0  0  0  0  0  0
  191.9910  179.0640  144.4140 C   0  0  0  0  0  1  0  0  0  0  0  0
  187.9660  178.1080  141.7880 C   0  0  0  0  0  2  0  0  0  0  0  0
  187.0090  177.4610  142.6740 N   0  0  0  0  0  2  0  0  0  0  0  0
  186.1340  178.0310  144.8460 C   0  0  0  0  0  0  0  0  0  0  0  0
  183.9130  179.0390  145.2420 C   0  0  0  0  0  3  0  0  0  0  0  0
  183.5350  178.7920  143.8170 C   0  0  0  0  0  2  0  0  0  0  0  0
  186.0860  178.1760  143.5050 C   0  0  0  0  0  0  0  0  0  0  0  0
  185.1060  178.6630  145.7090 C   0  0  0  0  0  3  0  0  0  0  0  0
  184.9060  179.3270  142.7500 S   0  0  0  0  0  0  0  0  0  0  0  0
  187.3830  177.6470  146.9580 C   0  0  0  0  0  2  0  0  0  0  0  0
  187.2450  177.2470  145.4970 C   0  0  0  0  0  3  0  0  0  0  0  0
  188.3790  178.1580  145.9440 C   0  0  0  0  0  2  0  0  0  0  0  0
  1  7  2  0  0  0  0
  2  3  1  0  0  0  0
  3  6  2  0  0  0  0
  3 12  1  0  0  0  0
  4 11  1  0  0  0  0
  4  5  1  0  0  0  0
  5 16  2  0  0  0  0
  6 13  1  0  0  0  0
  7 19  1  0  0  0  0
  8  9  1  0  0  0  0
  8 14  1  0  0  0  0
 10 18  1  0  0  0  0
 10  2  2  0  0  0  0
 11 18  1  0  0  0  0
 12  1  1  0  0  0  0
 13  7  1  0  0  0  0
 15 14  1  0  0  0  0
 15  6  1  0  0  0  0
 16  8  2  0  0  0  0
 17  5  1  0  0  0  0
 18 15  2  0  0  0  0
 19 24  1  6  0  0  0
 19 20  1  0  0  0  0
 20 21  1  0  0  0  0
 21 22  2  0  0  0  0
 21 23  1  0  0  0  0
 24 25  1  0  0  0  0
 25 29  1  0  0  0  0
 26 33  1  0  0  0  0
 26 30  1  0  0  0  0
 27 30  2  0  0  0  0
 28 27  1  0  0  0  0
 29 26  2  0  0  0  0
 31 29  1  0  0  0  0
 31 28  1  0  0  0  0
 33 34  1  0  0  0  0
 33 32  1  0  0  0  0
 34 32  1  0  0  0  0
M  END
>  <MODEL>
8

>  <REMARK>
 VINA RESULT:      -7.9      1.900      2.211
  Name = 
  6 active torsions:
  status: ('A' for Active; 'I' for Inactive)
    1  A    between atoms: N_1  and  C_3
    2  A    between atoms: C_3  and  C_17
    3  A    between atoms: C_3  and  C_32
    4  A    between atoms: N_4  and  C_24
    5  A    between atoms: N_4  and  C_32
    6  A    between atoms: C_5  and  C_9
                            x       y       z     vdW  Elec       q    Type
                         _______ _______ _______ _____ _____    ______ ____

>  <TORSDO>
F 6

$$$$
=
 OpenBabel10232409553D

 34 38  0  0  1  0  0  0  0  0999 V2000
  189.9430  177.7240  141.3410 N   0  0  0  0  0  0  0  0  0  0  0  0
  191.7400  176.6200  138.2110 C   0  0  0  0  0  3  0  0  0  0  0  0
  190.7420  177.0220  139.0940 C   0  0  0  0  0  0  0  0  0  0  0  0
  189.7270  174.9060  134.6110 N   0  0  0  0  0  2  0  0  0  0  0  0
  188.4350  174.3550  134.8760 C   0  0  0  0  0  0  0  0  0  0  0  0
  189.4310  177.1600  138.6260 C   0  0  0  0  0  0  0  0  0  0  0  0
  188.7250  177.8520  140.9020 C   0  0  0  0  0  0  0  0  0  0  0  0
  186.9660  176.0470  136.1380 C   0  0  0  0  0  0  0  0  0  0  0  0
  185.5170  176.2780  135.9040 C   0  0  0  0  0  1  0  0  0  0  0  0
  191.4420  176.3830  136.9090 N   0  0  0  0  0  0  0  0  0  0  0  0
  190.0200  176.3080  134.9290 C   0  0  0  0  0  2  0  0  0  0  0  0
  191.0880  177.2920  140.5310 C   0  0  0  0  0  2  0  0  0  0  0  0
  188.4110  177.5610  139.5380 N   0  0  0  0  0  2  0  0  0  0  0  0
  187.7320  177.0030  136.8840 N   0  0  0  0  0  2  0  0  0  0  0  0
  189.1170  176.8790  137.2860 C   0  0  0  0  0  0  0  0  0  0  0  0
  187.5820  175.1060  135.4980 C   0  0  0  0  0  0  0  0  0  0  0  0
  188.1250  172.9390  134.5530 C   0  0  0  0  0  1  0  0  0  0  0  0
  190.1810  176.5090  136.4100 C   0  0  0  0  0  0  0  0  0  0  0  0
  187.6480  178.2790  141.8430 C   0  0  1  0  0  3  0  0  0  0  0  0
  186.3810  178.4140  141.1360 N   0  0  0  0  0  2  0  0  0  0  0  0
  185.2240  178.9970  141.7370 C   0  0  0  0  0  0  0  0  0  0  0  0
  185.2450  179.3710  142.9400 O   0  0  0  0  0  0  0  0  0  0  0  0
  183.9840  179.1620  140.9340 C   0  0  0  0  0  1  0  0  0  0  0  0
  187.5120  177.2630  142.9680 C   0  0  0  0  0  2  0  0  0  0  0  0
  188.0780  177.7950  144.2000 N   0  0  0  0  0  2  0  0  0  0  0  0
  189.2750  177.3430  146.2420 C   0  0  0  0  0  0  0  0  0  0  0  0
  191.6080  176.5390  146.3510 C   0  0  0  0  0  3  0  0  0  0  0  0
  191.7740  176.7910  144.8870 C   0  0  0  0  0  2  0  0  0  0  0  0
  189.1610  177.1780  144.9080 C   0  0  0  0  0  0  0  0  0  0  0  0
  190.4570  176.8190  146.9680 C   0  0  0  0  0  3  0  0  0  0  0  0
  190.3290  176.1200  144.0130 S   0  0  0  0  0  0  0  0  0  0  0  0
  188.7040  178.4110  148.4100 C   0  0  0  0  0  2  0  0  0  0  0  0
  188.1920  178.0380  147.0270 C   0  0  0  0  0  3  0  0  0  0  0  0
  187.7810  177.2270  148.2480 C   0  0  0  0  0  2  0  0  0  0  0  0
  2  3  1  0  0  0  0
  3 12  1  0  0  0  0
  4  5  1  0  0  0  0
  4 11  1  0  0  0  0
  5 16  2  0  0  0  0
  6  3  2  0  0  0  0
  6 13  1  0  0  0  0
  7  1  2  0  0  0  0
  7 19  1  0  0  0  0
  8 14  1  0  0  0  0
  9  8  1  0  0  0  0
 10  2  2  0  0  0  0
 11 18  1  0  0  0  0
 12  1  1  0  0  0  0
 13  7  1  0  0  0  0
 14 15  1  0  0  0  0
 15  6  1  0  0  0  0
 16  8  2  0  0  0  0
 17  5  1  0  0  0  0
 18 10  1  0  0  0  0
 18 15  2  0  0  0  0
 19 24  1  1  0  0  0
 20 21  1  0  0  0  0
 20 19  1  0  0  0  0
 21 22  2  0  0  0  0
 23 21  1  0  0  0  0
 24 25  1  0  0  0  0
 25 29  1  0  0  0  0
 26 30  1  0  0  0  0
 26 33  1  0  0  0  0
 27 30  2  0  0  0  0
 28 27  1  0  0  0  0
 29 26  2  0  0  0  0
 31 28  1  0  0  0  0
 31 29  1  0  0  0  0
 33 34  1  0  0  0  0
 33 32  1  0  0  0  0
 34 32  1  0  0  0  0
M  END
>  <MODEL>
9

>  <REMARK>
 VINA RESULT:      -7.6      2.450      3.851
  Name = 
  6 active torsions:
  status: ('A' for Active; 'I' for Inactive)
    1  A    between atoms: N_1  and  C_3
    2  A    between atoms: C_3  and  C_17
    3  A    between atoms: C_3  and  C_32
    4  A    between atoms: N_4  and  C_24
    5  A    between atoms: N_4  and  C_32
    6  A    between atoms: C_5  and  C_9
                            x       y       z     vdW  Elec       q    Type
                         _______ _______ _______ _____ _____    ______ ____

>  <TORSDO>
F 6

$$$$
