=
 OpenBabel10232407443D

 63 69  0  0  1  0  0  0  0  0999 V2000
  189.7320  175.6020  135.0840 C   0  0  1  0  0  3  0  0  0  0  0  0
  189.3800  173.1230  136.0000 S   0  0  0  0  0  0  0  0  0  0  0  0
  188.2720  173.7040  134.6860 C   0  0  2  0  0  3  0  0  0  0  0  0
  190.3490  174.7040  136.1030 C   0  0  1  0  0  3  0  0  0  0  0  0
  188.3400  175.2220  134.7080 C   0  0  0  0  0  2  0  0  0  0  0  0
  189.1740  177.3110  136.4770 C   0  0  0  0  0  1  0  0  0  0  0  0
  189.9570  176.9330  135.3200 O   0  0  0  0  0  0  0  0  0  0  0  0
  191.9310  174.7190  136.2040 C   0  0  2  0  0  3  0  0  0  0  0  0
  192.3790  176.1140  136.2060 N   0  0  0  0  0  2  0  0  0  0  0  0
  192.8650  176.6580  137.4210 C   0  0  2  0  0  3  0  0  0  0  0  0
  193.2840  175.5370  138.3230 C   0  0  0  0  0  2  0  0  0  0  0  0
  191.9760  176.2890  138.5320 N   0  0  0  0  0  0  0  0  0  0  0  0
  192.0270  177.1030  139.8130 C   0  0  0  0  0  2  0  0  0  0  0  0
  190.7270  177.1720  142.0780 C   0  0  0  0  0  0  0  0  0  0  0  0
  190.7000  176.9750  140.5650 C   0  0  1  0  0  3  0  0  0  0  0  0
  188.6310  178.3580  141.9760 C   0  0  0  0  0  2  0  0  0  0  0  0
  189.8810  177.9810  139.9720 O   0  0  0  0  0  0  0  0  0  0  0  0
  189.5340  177.4680  142.7150 N   0  0  0  0  0  0  0  0  0  0  0  0
  191.8010  177.0870  142.7790 O   0  0  0  0  0  0  0  0  0  0  0  0
  188.5970  177.8980  140.5190 C   0  0  0  0  0  2  0  0  0  0  0  0
  189.0620  176.6790  143.8640 C   0  0  0  0  0  2  0  0  0  0  0  0
  189.7330  178.6410  144.9820 F   0  0  0  0  0  0  0  0  0  0  0  0
  189.4910  177.3110  145.1960 C   0  0  0  0  0  0  0  0  0  0  0  0
  190.6220  176.7050  145.6890 F   0  0  0  0  0  0  0  0  0  0  0  0
  188.4850  177.1910  146.1190 F   0  0  0  0  0  0  0  0  0  0  0  0
  192.5410  174.0250  135.0440 C   0  0  0  0  0  2  0  0  0  0  0  0
  194.0910  174.0660  135.0490 C   0  0  2  0  0  3  0  0  0  0  0  0
  195.8150  175.7070  134.6790 N   0  0  0  0  0  0  0  0  0  0  0  0
  196.4850  175.2930  135.7010 C   0  0  0  0  0  0  0  0  0  0  0  0
  197.2870  173.6380  136.9640 N   0  0  0  0  0  0  0  0  0  0  0  0
  196.1300  174.0870  136.3400 N   0  0  0  0  0  0  0  0  0  0  0  0
  199.6090  174.2320  137.4320 C   0  0  0  0  0  1  0  0  0  0  0  0
  195.1220  173.2010  135.7840 C   0  0  1  0  0  3  0  0  0  0  0  0
  198.2450  174.4800  136.7800 C   0  0  0  0  0  0  0  0  0  0  0  0
  194.5700  172.2880  136.8700 C   0  0  0  0  0  1  0  0  0  0  0  0
  197.8780  175.6500  135.9830 N   0  0  0  0  0  2  0  0  0  0  0  0
  194.5280  175.1450  134.3760 C   0  0  0  0  0  2  0  0  0  0  0  0
  186.7570  173.3540  134.7360 C   0  0  0  0  0  2  0  0  0  0  0  0
  185.9290  172.0030  136.4540 F   0  0  0  0  0  0  0  0  0  0  0  0
  186.3120  174.1610  137.0140 F   0  0  0  0  0  0  0  0  0  0  0  0
  185.8990  173.2800  135.9930 C   0  0  0  0  0  0  0  0  0  0  0  0
  184.5530  173.6710  135.4260 C   0  0  0  0  0  2  0  0  0  0  0  0
  182.4230  172.7400  136.1040 O   0  0  0  0  0  0  0  0  0  0  0  0
  183.2730  173.6150  136.2520 C   0  0  0  0  0  0  0  0  0  0  0  0
  183.1470  174.4920  137.4530 C   0  0  0  0  0  2  0  0  0  0  0  0
  183.3600  178.2290  138.4600 C   0  0  2  0  0  3  0  0  0  0  0  0
  184.6980  178.9050  138.8360 C   0  0  1  0  0  3  0  0  0  0  0  0
  182.5340  177.8350  139.6970 C   0  0  0  0  0  2  0  0  0  0  0  0
  182.7120  178.8260  140.7990 C   0  0  2  0  0  3  0  0  0  0  0  0
  181.9470  176.3260  136.4910 O   0  0  0  0  0  0  0  0  0  0  0  0
  184.1320  178.4960  141.3720 C   0  0  1  0  0  3  0  0  0  0  0  0
  183.7660  177.0600  137.7290 N   0  0  0  0  0  0  0  0  0  0  0  0
  181.6390  178.6910  141.6920 O   0  0  0  0  0  1  0  0  0  0  0  0
  182.9140  175.9820  137.2330 C   0  0  0  0  0  0  0  0  0  0  0  0
  185.1930  178.8640  140.3160 C   0  0  0  0  0  2  0  0  0  0  0  0
  186.7270  178.9210  137.4150 O   0  0  0  0  0  0  0  0  0  0  0  0
  185.1330  177.1300  137.3300 N   0  0  0  0  0  2  0  0  0  0  0  0
  185.6480  178.3430  137.8430 C   0  0  0  0  0  0  0  0  0  0  0  0
  184.3800  179.1970  142.5780 O   0  0  0  0  0  0  0  0  0  0  0  0
  184.3780  178.3570  143.7520 C   0  0  1  0  0  3  0  0  0  0  0  0
  185.7100  178.3330  144.4870 C   0  0  0  0  0  1  0  0  0  0  0  0
  183.2710  178.5810  144.6990 N   0  0  0  0  0  2  0  0  0  0  0  0
  183.7260  179.0960  145.8700 O   0  0  0  0  0  1  0  0  0  0  0  0
  1  7  1  1  0  0  0
  1  4  1  0  0  0  0
  2  4  1  0  0  0  0
  3  5  1  0  0  0  0
  3 38  1  1  0  0  0
  3  2  1  0  0  0  0
  4  8  1  6  0  0  0
  5  1  1  0  0  0  0
  7  6  1  0  0  0  0
  8 26  1  6  0  0  0
  8  9  1  0  0  0  0
 10  9  1  6  0  0  0
 10 11  1  0  0  0  0
 10 12  1  0  0  0  0
 11 12  1  0  0  0  0
 12 13  1  0  0  0  0
 14 18  1  0  0  0  0
 14 19  2  0  0  0  0
 15 13  1  6  0  0  0
 15 14  1  0  0  0  0
 16 18  1  0  0  0  0
 17 20  1  0  0  0  0
 17 15  1  0  0  0  0
 18 21  1  0  0  0  0
 20 16  1  0  0  0  0
 21 23  1  0  0  0  0
 22 23  1  0  0  0  0
 23 24  1  0  0  0  0
 23 25  1  0  0  0  0
 27 26  1  1  0  0  0
 27 33  1  0  0  0  0
 28 29  2  0  0  0  0
 29 36  1  0  0  0  0
 29 31  1  0  0  0  0
 31 30  1  0  0  0  0
 33 31  1  0  0  0  0
 33 35  1  1  0  0  0
 34 30  2  0  0  0  0
 34 32  1  0  0  0  0
 36 34  1  0  0  0  0
 37 28  1  0  0  0  0
 37 27  1  0  0  0  0
 38 41  1  0  0  0  0
 41 39  1  0  0  0  0
 41 40  1  0  0  0  0
 42 41  1  0  0  0  0
 42 44  1  0  0  0  0
 43 44  2  0  0  0  0
 44 45  1  0  0  0  0
 46 47  1  0  0  0  0
 46 48  1  1  0  0  0
 47 55  1  1  0  0  0
 48 49  1  0  0  0  0
 49 51  1  0  0  0  0
 49 53  1  1  0  0  0
 50 54  2  0  0  0  0
 51 59  1  1  0  0  0
 52 46  1  0  0  0  0
 54 45  1  0  0  0  0
 54 52  1  0  0  0  0
 55 51  1  0  0  0  0
 56 58  2  0  0  0  0
 57 52  1  0  0  0  0
 57 58  1  0  0  0  0
 58 47  1  0  0  0  0
 59 60  1  0  0  0  0
 60 61  1  1  0  0  0
 60 62  1  0  0  0  0
 62 63  1  0  0  0  0
M  END
>  <MODEL>
1

>  <REMARK>
 VINA RESULT:      -7.7      0.000      0.000
  Name = 
  19 active torsions:
  status: ('A' for Active; 'I' for Inactive)
    1  A    between atoms: N_1  and  C_2
    2  A    between atoms: C_2  and  O_29
    3  A    between atoms: C_3  and  O_36
    4  A    between atoms: C_4  and  C_55
    5  A    between atoms: C_7  and  C_35
    6  A    between atoms: C_7  and  N_44
    7  A    between atoms: N_9  and  C_23
    8  A    between atoms: N_9  and  C_37
    9  A    between atoms: C_22  and  O_29
   10  A    between atoms: C_24  and  C_39
   11  A    between atoms: C_30  and  C_48
   12  A    between atoms: C_32  and  C_62
   13  A    between atoms: C_37  and  C_54
   14  A    between atoms: C_37  and  C_55
   15  A    between atoms: C_39  and  N_45
   16  A    between atoms: C_48  and  C_63
   17  A    between atoms: C_52  and  C_53
   18  A    between atoms: C_52  and  C_62
   19  A    between atoms: C_53  and  C_63
                            x       y       z     vdW  Elec       q    Type
                         _______ _______ _______ _____ _____    ______ ____

>  <TORSDO>
F 19

$$$$
=
 OpenBabel10232407443D

 63 69  0  0  1  0  0  0  0  0999 V2000
  188.1210  176.0690  136.0460 C   0  0  1  0  0  3  0  0  0  0  0  0
  188.7870  173.6560  136.9630 S   0  0  0  0  0  0  0  0  0  0  0  0
  188.0420  173.7560  135.3120 C   0  0  2  0  0  3  0  0  0  0  0  0
  188.7300  175.4860  137.2760 C   0  0  1  0  0  3  0  0  0  0  0  0
  187.3240  175.0930  135.2470 C   0  0  0  0  0  2  0  0  0  0  0  0
  186.3250  177.0980  136.9870 C   0  0  0  0  0  1  0  0  0  0  0  0
  187.5510  177.2990  136.2480 O   0  0  0  0  0  0  0  0  0  0  0  0
  189.9530  176.2730  137.9090 C   0  0  2  0  0  3  0  0  0  0  0  0
  189.4250  177.3950  138.6870 N   0  0  0  0  0  2  0  0  0  0  0  0
  190.1120  177.7710  139.8690 C   0  0  2  0  0  3  0  0  0  0  0  0
  190.4810  176.5360  140.6320 C   0  0  0  0  0  2  0  0  0  0  0  0
  189.3140  177.4200  141.0520 N   0  0  0  0  0  0  0  0  0  0  0  0
  189.6160  178.1110  142.3700 C   0  0  0  0  0  2  0  0  0  0  0  0
  189.0840  177.9290  144.9210 C   0  0  0  0  0  0  0  0  0  0  0  0
  188.8070  177.4610  143.4960 C   0  0  1  0  0  3  0  0  0  0  0  0
  186.7310  177.8150  145.4320 C   0  0  0  0  0  2  0  0  0  0  0  0
  187.4560  177.7640  143.1540 O   0  0  0  0  0  0  0  0  0  0  0  0
  188.1200  177.6800  145.8850 N   0  0  0  0  0  0  0  0  0  0  0  0
  190.1580  178.5470  145.2630 O   0  0  0  0  0  0  0  0  0  0  0  0
  186.6060  177.1350  144.0690 C   0  0  0  0  0  2  0  0  0  0  0  0
  188.4540  176.9970  147.1440 C   0  0  0  0  0  2  0  0  0  0  0  0
  189.6430  178.3960  148.6200 F   0  0  0  0  0  0  0  0  0  0  0  0
  188.3780  177.9550  148.3430 C   0  0  0  0  0  0  0  0  0  0  0  0
  187.8510  177.3250  149.4450 F   0  0  0  0  0  0  0  0  0  0  0  0
  187.5940  179.0350  148.0320 F   0  0  0  0  0  0  0  0  0  0  0  0
  190.8430  176.8050  136.8490 C   0  0  0  0  0  2  0  0  0  0  0  0
  192.0840  175.9140  136.5840 C   0  0  2  0  0  3  0  0  0  0  0  0
  193.2710  175.0640  134.6690 N   0  0  0  0  0  0  0  0  0  0  0  0
  194.4130  175.3430  135.2010 C   0  0  0  0  0  0  0  0  0  0  0  0
  195.7780  175.3940  136.9640 N   0  0  0  0  0  0  0  0  0  0  0  0
  194.4890  175.7140  136.5600 N   0  0  0  0  0  0  0  0  0  0  0  0
  197.9250  174.5540  136.1600 C   0  0  0  0  0  1  0  0  0  0  0  0
  193.3310  175.6400  137.4330 C   0  0  1  0  0  3  0  0  0  0  0  0
  196.4500  174.9190  135.9720 C   0  0  0  0  0  0  0  0  0  0  0  0
  193.5250  176.5470  138.6400 C   0  0  0  0  0  1  0  0  0  0  0  0
  195.7010  174.8390  134.7170 N   0  0  0  0  0  2  0  0  0  0  0  0
  192.0500  175.4340  135.3280 C   0  0  0  0  0  2  0  0  0  0  0  0
  186.9920  172.6970  134.8690 C   0  0  0  0  0  2  0  0  0  0  0  0
  186.7790  170.5890  135.8580 F   0  0  0  0  0  0  0  0  0  0  0  0
  186.0300  172.3250  137.1000 F   0  0  0  0  0  0  0  0  0  0  0  0
  186.1760  171.8050  135.7980 C   0  0  0  0  0  0  0  0  0  0  0  0
  184.8590  171.7740  135.0550 C   0  0  0  0  0  2  0  0  0  0  0  0
  183.1550  170.1050  135.4700 O   0  0  0  0  0  0  0  0  0  0  0  0
  183.5800  171.2370  135.6870 C   0  0  0  0  0  0  0  0  0  0  0  0
  182.9460  172.0020  136.8010 C   0  0  0  0  0  2  0  0  0  0  0  0
  181.3460  175.5230  137.0610 C   0  0  2  0  0  3  0  0  0  0  0  0
  182.1580  176.8160  136.8240 C   0  0  1  0  0  3  0  0  0  0  0  0
  181.1580  175.2130  138.5570 C   0  0  0  0  0  2  0  0  0  0  0  0
  181.0190  176.4690  139.3510 C   0  0  2  0  0  3  0  0  0  0  0  0
  180.7730  172.6690  136.0510 O   0  0  0  0  0  0  0  0  0  0  0  0
  182.4800  177.0260  139.4270 C   0  0  1  0  0  3  0  0  0  0  0  0
  182.1380  174.5050  136.4280 N   0  0  0  0  0  0  0  0  0  0  0  0
  180.4150  176.1510  140.5770 O   0  0  0  0  0  1  0  0  0  0  0  0
  181.9100  173.0620  136.4460 C   0  0  0  0  0  0  0  0  0  0  0  0
  182.9130  177.4800  138.0180 C   0  0  0  0  0  2  0  0  0  0  0  0
  183.4870  177.3040  134.7920 O   0  0  0  0  0  0  0  0  0  0  0  0
  183.1270  175.0600  135.5640 N   0  0  0  0  0  2  0  0  0  0  0  0
  183.0110  176.4670  135.6610 C   0  0  0  0  0  0  0  0  0  0  0  0
  182.5760  178.1070  140.3380 O   0  0  0  0  0  0  0  0  0  0  0  0
  183.8290  178.1570  141.0530 C   0  0  1  0  0  3  0  0  0  0  0  0
  184.8240  179.1520  140.4730 C   0  0  0  0  0  1  0  0  0  0  0  0
  183.7280  178.3230  142.5150 N   0  0  0  0  0  2  0  0  0  0  0  0
  184.3110  179.4820  142.9170 O   0  0  0  0  0  1  0  0  0  0  0  0
  1  7  1  1  0  0  0
  1  4  1  0  0  0  0
  2  4  1  0  0  0  0
  3 38  1  1  0  0  0
  3  2  1  0  0  0  0
  4  8  1  6  0  0  0
  5  3  1  0  0  0  0
  5  1  1  0  0  0  0
  7  6  1  0  0  0  0
  8 26  1  6  0  0  0
  8  9  1  0  0  0  0
 10  9  1  6  0  0  0
 10 11  1  0  0  0  0
 10 12  1  0  0  0  0
 11 12  1  0  0  0  0
 12 13  1  0  0  0  0
 14 19  2  0  0  0  0
 14 18  1  0  0  0  0
 15 13  1  6  0  0  0
 15 14  1  0  0  0  0
 16 18  1  0  0  0  0
 17 15  1  0  0  0  0
 17 20  1  0  0  0  0
 18 21  1  0  0  0  0
 20 16  1  0  0  0  0
 21 23  1  0  0  0  0
 23 22  1  0  0  0  0
 23 24  1  0  0  0  0
 25 23  1  0  0  0  0
 27 26  1  6  0  0  0
 27 33  1  0  0  0  0
 28 29  2  0  0  0  0
 28 37  1  0  0  0  0
 29 31  1  0  0  0  0
 31 30  1  0  0  0  0
 31 33  1  0  0  0  0
 33 35  1  1  0  0  0
 34 32  1  0  0  0  0
 34 30  2  0  0  0  0
 36 29  1  0  0  0  0
 36 34  1  0  0  0  0
 37 27  1  0  0  0  0
 38 41  1  0  0  0  0
 41 39  1  0  0  0  0
 41 40  1  0  0  0  0
 42 44  1  0  0  0  0
 42 41  1  0  0  0  0
 43 44  2  0  0  0  0
 44 45  1  0  0  0  0
 46 48  1  1  0  0  0
 47 46  1  0  0  0  0
 47 55  1  1  0  0  0
 48 49  1  0  0  0  0
 49 51  1  0  0  0  0
 49 53  1  1  0  0  0
 50 54  2  0  0  0  0
 51 59  1  1  0  0  0
 52 54  1  0  0  0  0
 52 46  1  0  0  0  0
 54 45  1  0  0  0  0
 55 51  1  0  0  0  0
 56 58  2  0  0  0  0
 57 58  1  0  0  0  0
 57 52  1  0  0  0  0
 58 47  1  0  0  0  0
 59 60  1  0  0  0  0
 60 61  1  6  0  0  0
 60 62  1  0  0  0  0
 62 63  1  0  0  0  0
M  END
>  <MODEL>
2

>  <REMARK>
 VINA RESULT:      -7.1      1.949      3.134
  Name = 
  19 active torsions:
  status: ('A' for Active; 'I' for Inactive)
    1  A    between atoms: N_1  and  C_2
    2  A    between atoms: C_2  and  O_29
    3  A    between atoms: C_3  and  O_36
    4  A    between atoms: C_4  and  C_55
    5  A    between atoms: C_7  and  C_35
    6  A    between atoms: C_7  and  N_44
    7  A    between atoms: N_9  and  C_23
    8  A    between atoms: N_9  and  C_37
    9  A    between atoms: C_22  and  O_29
   10  A    between atoms: C_24  and  C_39
   11  A    between atoms: C_30  and  C_48
   12  A    between atoms: C_32  and  C_62
   13  A    between atoms: C_37  and  C_54
   14  A    between atoms: C_37  and  C_55
   15  A    between atoms: C_39  and  N_45
   16  A    between atoms: C_48  and  C_63
   17  A    between atoms: C_52  and  C_53
   18  A    between atoms: C_52  and  C_62
   19  A    between atoms: C_53  and  C_63
                            x       y       z     vdW  Elec       q    Type
                         _______ _______ _______ _____ _____    ______ ____

>  <TORSDO>
F 19

$$$$
=
 OpenBabel10232407443D

 63 69  0  0  1  0  0  0  0  0999 V2000
  188.6650  175.4830  135.8540 C   0  0  1  0  0  3  0  0  0  0  0  0
  188.8050  173.0180  136.8600 S   0  0  0  0  0  0  0  0  0  0  0  0
  187.2520  173.5190  136.0680 C   0  0  2  0  0  3  0  0  0  0  0  0
  189.6660  174.6370  136.5670 C   0  0  1  0  0  3  0  0  0  0  0  0
  187.2540  175.0390  136.0470 C   0  0  0  0  0  2  0  0  0  0  0  0
  187.8170  177.5230  135.3150 C   0  0  0  0  0  1  0  0  0  0  0  0
  188.9010  176.8270  135.9730 O   0  0  0  0  0  0  0  0  0  0  0  0
  191.1640  174.7160  136.0520 C   0  0  2  0  0  3  0  0  0  0  0  0
  191.5670  176.1230  136.0250 N   0  0  0  0  0  2  0  0  0  0  0  0
  192.2220  176.6530  137.1650 C   0  0  2  0  0  3  0  0  0  0  0  0
  192.9070  175.5370  137.8950 C   0  0  0  0  0  2  0  0  0  0  0  0
  191.5980  176.1370  138.3910 N   0  0  0  0  0  0  0  0  0  0  0  0
  191.8140  176.8850  139.6950 C   0  0  0  0  0  2  0  0  0  0  0  0
  190.6840  177.0420  142.0450 C   0  0  0  0  0  0  0  0  0  0  0  0
  190.5380  176.8400  140.5400 C   0  0  1  0  0  3  0  0  0  0  0  0
  188.6610  178.3520  142.0820 C   0  0  0  0  0  2  0  0  0  0  0  0
  189.7420  177.8920  139.9980 O   0  0  0  0  0  0  0  0  0  0  0  0
  189.5590  177.4120  142.7630 N   0  0  0  0  0  0  0  0  0  0  0  0
  191.7980  176.8940  142.6700 O   0  0  0  0  0  0  0  0  0  0  0  0
  188.4960  177.8890  140.6340 C   0  0  0  0  0  2  0  0  0  0  0  0
  189.1230  176.6570  143.9480 C   0  0  0  0  0  2  0  0  0  0  0  0
  189.6470  178.6760  145.0410 F   0  0  0  0  0  0  0  0  0  0  0  0
  189.5980  177.3240  145.2470 C   0  0  0  0  0  0  0  0  0  0  0  0
  190.8400  176.8620  145.6140 F   0  0  0  0  0  0  0  0  0  0  0  0
  188.7110  177.0660  146.2590 F   0  0  0  0  0  0  0  0  0  0  0  0
  191.2790  174.1610  134.6810 C   0  0  0  0  0  2  0  0  0  0  0  0
  192.4300  173.1320  134.5320 C   0  0  2  0  0  3  0  0  0  0  0  0
  194.7410  172.9600  135.1860 N   0  0  0  0  0  0  0  0  0  0  0  0
  194.5880  171.7350  135.5600 C   0  0  0  0  0  0  0  0  0  0  0  0
  193.7470  169.6930  135.2400 N   0  0  0  0  0  0  0  0  0  0  0  0
  193.4040  171.0380  135.2350 N   0  0  0  0  0  0  0  0  0  0  0  0
  195.5770  168.1460  135.7110 C   0  0  0  0  0  1  0  0  0  0  0  0
  192.4070  171.6090  134.3470 C   0  0  1  0  0  3  0  0  0  0  0  0
  194.9840  169.5510  135.5720 C   0  0  0  0  0  0  0  0  0  0  0  0
  191.0600  170.9340  134.5670 C   0  0  0  0  0  1  0  0  0  0  0  0
  195.6850  170.8070  135.8430 N   0  0  0  0  0  2  0  0  0  0  0  0
  193.6170  173.7310  134.7350 C   0  0  0  0  0  2  0  0  0  0  0  0
  185.8900  173.1120  136.7000 C   0  0  0  0  0  2  0  0  0  0  0  0
  184.4790  174.3030  135.2670 F   0  0  0  0  0  0  0  0  0  0  0  0
  184.2730  172.0520  135.1830 F   0  0  0  0  0  0  0  0  0  0  0  0
  184.5330  173.1650  136.0070 C   0  0  0  0  0  0  0  0  0  0  0  0
  183.6170  173.2000  137.2100 C   0  0  0  0  0  2  0  0  0  0  0  0
  181.4170  173.8330  136.4210 O   0  0  0  0  0  0  0  0  0  0  0  0
  182.3270  174.0110  137.2270 C   0  0  0  0  0  0  0  0  0  0  0  0
  182.0340  174.8800  138.4050 C   0  0  0  0  0  2  0  0  0  0  0  0
  182.7250  178.5750  139.3500 C   0  0  2  0  0  3  0  0  0  0  0  0
  184.1520  179.1000  139.6260 C   0  0  1  0  0  3  0  0  0  0  0  0
  181.9470  178.2800  140.6450 C   0  0  0  0  0  2  0  0  0  0  0  0
  182.3090  179.2510  141.7200 C   0  0  2  0  0  3  0  0  0  0  0  0
  180.9790  176.8310  137.5040 O   0  0  0  0  0  0  0  0  0  0  0  0
  183.7190  178.7680  142.2000 C   0  0  1  0  0  3  0  0  0  0  0  0
  182.9490  177.3650  138.6070 N   0  0  0  0  0  0  0  0  0  0  0  0
  181.2910  179.2390  142.6850 O   0  0  0  0  0  1  0  0  0  0  0  0
  181.9510  176.3860  138.1840 C   0  0  0  0  0  0  0  0  0  0  0  0
  184.7390  179.0120  141.0700 C   0  0  0  0  0  2  0  0  0  0  0  0
  186.0680  178.8860  138.0710 O   0  0  0  0  0  0  0  0  0  0  0  0
  184.2840  177.2810  138.1160 N   0  0  0  0  0  2  0  0  0  0  0  0
  184.9630  178.4330  138.5780 C   0  0  0  0  0  0  0  0  0  0  0  0
  184.1260  179.4430  143.3770 O   0  0  0  0  0  0  0  0  0  0  0  0
  184.4170  178.5620  144.4830 C   0  0  1  0  0  3  0  0  0  0  0  0
  185.8550  178.0650  144.5050 C   0  0  0  0  0  1  0  0  0  0  0  0
  184.0210  179.0530  145.8160 N   0  0  0  0  0  2  0  0  0  0  0  0
  184.4280  178.1990  146.7910 O   0  0  0  0  0  1  0  0  0  0  0  0
  1  7  1  1  0  0  0
  1  5  1  0  0  0  0
  1  4  1  0  0  0  0
  3 38  1  1  0  0  0
  3  2  1  0  0  0  0
  4  8  1  6  0  0  0
  4  2  1  0  0  0  0
  5  3  1  0  0  0  0
  6  7  1  0  0  0  0
  8 26  1  6  0  0  0
  9  8  1  0  0  0  0
 10  9  1  6  0  0  0
 10 11  1  0  0  0  0
 10 12  1  0  0  0  0
 11 12  1  0  0  0  0
 12 13  1  0  0  0  0
 14 19  2  0  0  0  0
 14 18  1  0  0  0  0
 15 13  1  6  0  0  0
 15 14  1  0  0  0  0
 16 18  1  0  0  0  0
 17 15  1  0  0  0  0
 17 20  1  0  0  0  0
 18 21  1  0  0  0  0
 20 16  1  0  0  0  0
 21 23  1  0  0  0  0
 22 23  1  0  0  0  0
 23 24  1  0  0  0  0
 23 25  1  0  0  0  0
 27 26  1  1  0  0  0
 27 37  1  0  0  0  0
 28 29  2  0  0  0  0
 29 36  1  0  0  0  0
 30 34  2  0  0  0  0
 31 30  1  0  0  0  0
 31 29  1  0  0  0  0
 33 27  1  0  0  0  0
 33 35  1  1  0  0  0
 33 31  1  0  0  0  0
 34 32  1  0  0  0  0
 34 36  1  0  0  0  0
 37 28  1  0  0  0  0
 39 41  1  0  0  0  0
 40 41  1  0  0  0  0
 41 38  1  0  0  0  0
 41 42  1  0  0  0  0
 42 44  1  0  0  0  0
 43 44  2  0  0  0  0
 44 45  1  0  0  0  0
 46 47  1  0  0  0  0
 46 48  1  1  0  0  0
 47 55  1  1  0  0  0
 48 49  1  0  0  0  0
 49 51  1  0  0  0  0
 49 53  1  1  0  0  0
 50 54  2  0  0  0  0
 51 59  1  1  0  0  0
 52 46  1  0  0  0  0
 54 45  1  0  0  0  0
 54 52  1  0  0  0  0
 55 51  1  0  0  0  0
 56 58  2  0  0  0  0
 57 58  1  0  0  0  0
 57 52  1  0  0  0  0
 58 47  1  0  0  0  0
 59 60  1  0  0  0  0
 60 61  1  1  0  0  0
 60 62  1  0  0  0  0
 62 63  1  0  0  0  0
M  END
>  <MODEL>
3

>  <REMARK>
 VINA RESULT:      -6.9      1.657      2.229
  Name = 
  19 active torsions:
  status: ('A' for Active; 'I' for Inactive)
    1  A    between atoms: N_1  and  C_2
    2  A    between atoms: C_2  and  O_29
    3  A    between atoms: C_3  and  O_36
    4  A    between atoms: C_4  and  C_55
    5  A    between atoms: C_7  and  C_35
    6  A    between atoms: C_7  and  N_44
    7  A    between atoms: N_9  and  C_23
    8  A    between atoms: N_9  and  C_37
    9  A    between atoms: C_22  and  O_29
   10  A    between atoms: C_24  and  C_39
   11  A    between atoms: C_30  and  C_48
   12  A    between atoms: C_32  and  C_62
   13  A    between atoms: C_37  and  C_54
   14  A    between atoms: C_37  and  C_55
   15  A    between atoms: C_39  and  N_45
   16  A    between atoms: C_48  and  C_63
   17  A    between atoms: C_52  and  C_53
   18  A    between atoms: C_52  and  C_62
   19  A    between atoms: C_53  and  C_63
                            x       y       z     vdW  Elec       q    Type
                         _______ _______ _______ _____ _____    ______ ____

>  <TORSDO>
F 19

$$$$
=
 OpenBabel10232407443D

 63 69  0  0  1  0  0  0  0  0999 V2000
  190.3480  176.9060  140.1480 C   0  0  1  0  0  3  0  0  0  0  0  0
  188.1250  177.7930  138.9730 S   0  0  0  0  0  0  0  0  0  0  0  0
  189.2200  176.7180  138.0060 C   0  0  2  0  0  3  0  0  0  0  0  0
  189.1830  177.7700  140.4990 C   0  0  1  0  0  3  0  0  0  0  0  0
  190.5810  176.7750  138.6800 C   0  0  0  0  0  2  0  0  0  0  0  0
  192.5280  177.5450  140.0390 C   0  0  0  0  0  1  0  0  0  0  0  0
  191.4550  177.1400  140.9210 O   0  0  0  0  0  0  0  0  0  0  0  0
  188.5700  177.5860  141.9500 C   0  0  2  0  0  3  0  0  0  0  0  0
  187.1250  177.3880  141.8160 N   0  0  0  0  0  2  0  0  0  0  0  0
  186.2910  178.5350  141.8090 C   0  0  2  0  0  3  0  0  0  0  0  0
  185.2580  178.3920  142.8840 C   0  0  0  0  0  2  0  0  0  0  0  0
  184.9240  178.1640  141.4170 N   0  0  0  0  0  0  0  0  0  0  0  0
  183.9890  179.2460  140.9070 C   0  0  0  0  0  2  0  0  0  0  0  0
  183.7000  178.1290  138.5630 C   0  0  0  0  0  0  0  0  0  0  0  0
  183.0580  178.6690  139.8370 C   0  0  1  0  0  3  0  0  0  0  0  0
  182.1320  176.2990  138.5290 C   0  0  0  0  0  2  0  0  0  0  0  0
  182.3880  177.6080  140.5150 O   0  0  0  0  0  0  0  0  0  0  0  0
  182.9620  177.2520  137.7850 N   0  0  0  0  0  0  0  0  0  0  0  0
  184.8910  178.4400  138.1890 O   0  0  0  0  0  0  0  0  0  0  0  0
  181.4310  177.0570  139.6560 C   0  0  0  0  0  2  0  0  0  0  0  0
  182.7560  177.4920  136.3480 C   0  0  0  0  0  2  0  0  0  0  0  0
  184.2120  175.6450  136.2210 F   0  0  0  0  0  0  0  0  0  0  0  0
  183.7750  176.7200  135.4960 C   0  0  0  0  0  0  0  0  0  0  0  0
  184.8400  177.5190  135.1570 F   0  0  0  0  0  0  0  0  0  0  0  0
  183.1790  176.2640  134.3490 F   0  0  0  0  0  0  0  0  0  0  0  0
  188.8100  178.7910  142.7810 C   0  0  0  0  0  2  0  0  0  0  0  0
  189.3370  178.4610  144.2010 C   0  0  2  0  0  3  0  0  0  0  0  0
  188.6190  177.1510  146.0900 N   0  0  0  0  0  0  0  0  0  0  0  0
  189.8050  176.6740  146.2630 C   0  0  0  0  0  0  0  0  0  0  0  0
  192.0190  176.9390  146.3360 N   0  0  0  0  0  0  0  0  0  0  0  0
  190.9000  177.2270  145.5660 N   0  0  0  0  0  0  0  0  0  0  0  0
  192.7590  175.7540  148.3390 C   0  0  0  0  0  1  0  0  0  0  0  0
  190.7610  178.4340  144.7710 C   0  0  1  0  0  3  0  0  0  0  0  0
  191.6810  176.2490  147.3710 C   0  0  0  0  0  0  0  0  0  0  0  0
  191.8870  178.5210  143.7490 C   0  0  0  0  0  1  0  0  0  0  0  0
  190.2490  175.9620  147.4650 N   0  0  0  0  0  2  0  0  0  0  0  0
  188.3340  178.0080  144.9740 C   0  0  0  0  0  2  0  0  0  0  0  0
  189.4850  177.0280  136.5050 C   0  0  0  0  0  2  0  0  0  0  0  0
  187.3930  176.2040  135.8670 F   0  0  0  0  0  0  0  0  0  0  0  0
  188.1940  177.9030  134.6050 F   0  0  0  0  0  0  0  0  0  0  0  0
  188.5240  176.7550  135.3540 C   0  0  0  0  0  0  0  0  0  0  0  0
  189.3430  175.7740  134.5440 C   0  0  0  0  0  2  0  0  0  0  0  0
  188.2830  173.5980  134.6160 O   0  0  0  0  0  0  0  0  0  0  0  0
  189.2950  174.2720  134.7950 C   0  0  0  0  0  0  0  0  0  0  0  0
  190.5730  173.5350  135.0220 C   0  0  0  0  0  2  0  0  0  0  0  0
  193.8220  173.9770  137.0890 C   0  0  2  0  0  3  0  0  0  0  0  0
  194.9380  174.9600  136.6680 C   0  0  1  0  0  3  0  0  0  0  0  0
  194.1430  172.5220  136.7010 C   0  0  0  0  0  2  0  0  0  0  0  0
  195.6070  172.2510  136.8050 C   0  0  2  0  0  3  0  0  0  0  0  0
  190.7830  173.5780  137.4060 O   0  0  0  0  0  0  0  0  0  0  0  0
  196.2070  172.9510  135.5390 C   0  0  1  0  0  3  0  0  0  0  0  0
  192.6680  174.4490  136.3740 N   0  0  0  0  0  0  0  0  0  0  0  0
  195.7930  170.8630  136.8900 O   0  0  0  0  0  1  0  0  0  0  0  0
  191.3500  173.8230  136.3010 C   0  0  0  0  0  0  0  0  0  0  0  0
  196.0630  174.4780  135.7000 C   0  0  0  0  0  2  0  0  0  0  0  0
  194.6070  177.3730  136.2180 O   0  0  0  0  0  0  0  0  0  0  0  0
  192.8620  175.7650  135.8600 N   0  0  0  0  0  2  0  0  0  0  0  0
  194.1790  176.1490  136.2040 C   0  0  0  0  0  0  0  0  0  0  0  0
  197.5690  172.6070  135.3530 O   0  0  0  0  0  0  0  0  0  0  0  0
  198.4810  173.3740  136.1680 C   0  0  1  0  0  3  0  0  0  0  0  0
  199.2250  172.5410  137.2010 C   0  0  0  0  0  1  0  0  0  0  0  0
  199.4190  174.2450  135.4360 N   0  0  0  0  0  2  0  0  0  0  0  0
  200.1740  174.9790  136.2940 O   0  0  0  0  0  1  0  0  0  0  0  0
  1  4  1  0  0  0  0
  1  7  1  1  0  0  0
  2  4  1  0  0  0  0
  3 38  1  6  0  0  0
  3  5  1  0  0  0  0
  3  2  1  0  0  0  0
  4  8  1  1  0  0  0
  5  1  1  0  0  0  0
  6  7  1  0  0  0  0
  8 26  1  1  0  0  0
  9  8  1  0  0  0  0
 10  9  1  1  0  0  0
 10 11  1  0  0  0  0
 12 10  1  0  0  0  0
 12 11  1  0  0  0  0
 13 12  1  0  0  0  0
 14 15  1  0  0  0  0
 15 17  1  0  0  0  0
 15 13  1  1  0  0  0
 16 20  1  0  0  0  0
 18 16  1  0  0  0  0
 18 14  1  0  0  0  0
 19 14  2  0  0  0  0
 20 17  1  0  0  0  0
 21 18  1  0  0  0  0
 23 22  1  0  0  0  0
 23 21  1  0  0  0  0
 24 23  1  0  0  0  0
 25 23  1  0  0  0  0
 27 26  1  6  0  0  0
 27 33  1  0  0  0  0
 27 37  1  0  0  0  0
 28 29  2  0  0  0  0
 29 36  1  0  0  0  0
 30 34  2  0  0  0  0
 31 29  1  0  0  0  0
 31 30  1  0  0  0  0
 33 35  1  6  0  0  0
 33 31  1  0  0  0  0
 34 36  1  0  0  0  0
 34 32  1  0  0  0  0
 37 28  1  0  0  0  0
 40 41  1  0  0  0  0
 41 39  1  0  0  0  0
 41 38  1  0  0  0  0
 42 44  1  0  0  0  0
 42 41  1  0  0  0  0
 43 44  2  0  0  0  0
 44 45  1  0  0  0  0
 45 54  1  0  0  0  0
 46 48  1  6  0  0  0
 47 55  1  6  0  0  0
 47 46  1  0  0  0  0
 48 49  1  0  0  0  0
 49 53  1  6  0  0  0
 51 59  1  1  0  0  0
 51 55  1  0  0  0  0
 51 49  1  0  0  0  0
 52 46  1  0  0  0  0
 54 52  1  0  0  0  0
 54 50  2  0  0  0  0
 57 58  1  0  0  0  0
 57 52  1  0  0  0  0
 58 56  2  0  0  0  0
 58 47  1  0  0  0  0
 59 60  1  0  0  0  0
 60 61  1  6  0  0  0
 62 60  1  0  0  0  0
 62 63  1  0  0  0  0
M  END
>  <MODEL>
4

>  <REMARK>
 VINA RESULT:      -6.9      3.253     10.521
  Name = 
  19 active torsions:
  status: ('A' for Active; 'I' for Inactive)
    1  A    between atoms: N_1  and  C_2
    2  A    between atoms: C_2  and  O_29
    3  A    between atoms: C_3  and  O_36
    4  A    between atoms: C_4  and  C_55
    5  A    between atoms: C_7  and  C_35
    6  A    between atoms: C_7  and  N_44
    7  A    between atoms: N_9  and  C_23
    8  A    between atoms: N_9  and  C_37
    9  A    between atoms: C_22  and  O_29
   10  A    between atoms: C_24  and  C_39
   11  A    between atoms: C_30  and  C_48
   12  A    between atoms: C_32  and  C_62
   13  A    between atoms: C_37  and  C_54
   14  A    between atoms: C_37  and  C_55
   15  A    between atoms: C_39  and  N_45
   16  A    between atoms: C_48  and  C_63
   17  A    between atoms: C_52  and  C_53
   18  A    between atoms: C_52  and  C_62
   19  A    between atoms: C_53  and  C_63
                            x       y       z     vdW  Elec       q    Type
                         _______ _______ _______ _____ _____    ______ ____

>  <TORSDO>
F 19

$$$$
=
 OpenBabel10232407443D

 63 69  0  0  1  0  0  0  0  0999 V2000
  189.9540  176.8250  139.2160 C   0  0  1  0  0  3  0  0  0  0  0  0
  192.2620  177.0820  140.5260 S   0  0  0  0  0  0  0  0  0  0  0  0
  190.7910  176.6290  141.4870 C   0  0  2  0  0  3  0  0  0  0  0  0
  191.3720  177.1630  138.8990 C   0  0  1  0  0  3  0  0  0  0  0  0
  189.5910  177.0340  140.6480 C   0  0  0  0  0  2  0  0  0  0  0  0
  189.0250  178.7310  138.3940 C   0  0  0  0  0  1  0  0  0  0  0  0
  189.0600  177.2890  138.2870 O   0  0  0  0  0  0  0  0  0  0  0  0
  191.9760  176.5360  137.5730 C   0  0  2  0  0  3  0  0  0  0  0  0
  190.8840  176.3410  136.6170 N   0  0  0  0  0  2  0  0  0  0  0  0
  190.6670  175.0360  136.1070 C   0  0  2  0  0  3  0  0  0  0  0  0
  190.9330  175.0400  134.6320 C   0  0  0  0  0  2  0  0  0  0  0  0
  189.5170  175.0360  135.1920 N   0  0  0  0  0  0  0  0  0  0  0  0
  188.8250  173.7190  134.8850 C   0  0  0  0  0  2  0  0  0  0  0  0
  187.0110  173.3350  136.7250 C   0  0  0  0  0  0  0  0  0  0  0  0
  187.3560  173.7900  135.3110 C   0  0  1  0  0  3  0  0  0  0  0  0
  185.4210  175.1340  136.9330 C   0  0  0  0  0  2  0  0  0  0  0  0
  187.0340  175.1730  135.1680 O   0  0  0  0  0  0  0  0  0  0  0  0
  185.8100  173.7610  137.2700 N   0  0  0  0  0  0  0  0  0  0  0  0
  187.7830  172.5890  137.4330 O   0  0  0  0  0  0  0  0  0  0  0  0
  185.6740  175.3500  135.4420 C   0  0  0  0  0  2  0  0  0  0  0  0
  184.8440  172.8060  137.8350 C   0  0  0  0  0  2  0  0  0  0  0  0
  184.9290  171.4720  135.8950 F   0  0  0  0  0  0  0  0  0  0  0  0
  184.0440  172.0940  136.7340 C   0  0  0  0  0  0  0  0  0  0  0  0
  183.2790  172.9880  136.0240 F   0  0  0  0  0  0  0  0  0  0  0  0
  183.2230  171.1470  137.2860 F   0  0  0  0  0  0  0  0  0  0  0  0
  192.6050  175.2220  137.8510 C   0  0  0  0  0  2  0  0  0  0  0  0
  193.9090  174.9830  137.0470 C   0  0  2  0  0  3  0  0  0  0  0  0
  195.4650  176.3080  135.7740 N   0  0  0  0  0  0  0  0  0  0  0  0
  196.4760  175.7120  136.3100 C   0  0  0  0  0  0  0  0  0  0  0  0
  197.4860  173.8570  137.0290 N   0  0  0  0  0  0  0  0  0  0  0  0
  196.2830  174.5480  137.0840 N   0  0  0  0  0  0  0  0  0  0  0  0
  199.7780  173.9890  136.1960 C   0  0  0  0  0  1  0  0  0  0  0  0
  194.9870  173.8980  137.1670 C   0  0  1  0  0  3  0  0  0  0  0  0
  198.3500  174.5230  136.3420 C   0  0  0  0  0  0  0  0  0  0  0  0
  194.9160  173.0260  138.4130 C   0  0  0  0  0  1  0  0  0  0  0  0
  197.8510  175.7920  135.8120 N   0  0  0  0  0  2  0  0  0  0  0  0
  194.1290  176.0090  136.2060 C   0  0  0  0  0  2  0  0  0  0  0  0
  190.5530  177.2620  142.8880 C   0  0  0  0  0  2  0  0  0  0  0  0
  189.6330  178.9710  144.1920 F   0  0  0  0  0  0  0  0  0  0  0  0
  188.5150  178.4960  142.2830 F   0  0  0  0  0  0  0  0  0  0  0  0
  189.2810  177.9700  143.3430 C   0  0  0  0  0  0  0  0  0  0  0  0
  188.5710  176.8300  144.0370 C   0  0  0  0  0  2  0  0  0  0  0  0
  188.3560  177.2720  146.4080 O   0  0  0  0  0  0  0  0  0  0  0  0
  187.8040  177.0220  145.3400 C   0  0  0  0  0  0  0  0  0  0  0  0
  186.3180  177.1640  145.2910 C   0  0  0  0  0  2  0  0  0  0  0  0
  184.2560  179.3680  142.8600 C   0  0  2  0  0  3  0  0  0  0  0  0
  182.7810  179.0580  142.5190 C   0  0  1  0  0  3  0  0  0  0  0  0
  185.2250  178.8860  141.7650 C   0  0  0  0  0  2  0  0  0  0  0  0
  184.6130  179.0200  140.4110 C   0  0  2  0  0  3  0  0  0  0  0  0
  186.3520  179.5500  145.1110 O   0  0  0  0  0  0  0  0  0  0  0  0
  183.5980  177.8300  140.3400 C   0  0  1  0  0  3  0  0  0  0  0  0
  184.4770  178.6500  144.0850 N   0  0  0  0  0  0  0  0  0  0  0  0
  185.6430  179.0090  139.4590 O   0  0  0  0  0  1  0  0  0  0  0  0
  185.7390  178.4860  144.8030 C   0  0  0  0  0  0  0  0  0  0  0  0
  182.4500  178.0960  141.3350 C   0  0  0  0  0  2  0  0  0  0  0  0
  180.9690  178.7740  144.1840 O   0  0  0  0  0  0  0  0  0  0  0  0
  183.2530  178.2400  144.6900 N   0  0  0  0  0  2  0  0  0  0  0  0
  182.2110  178.6560  143.8290 C   0  0  0  0  0  0  0  0  0  0  0  0
  183.0810  177.6660  139.0310 O   0  0  0  0  0  0  0  0  0  0  0  0
  181.7720  177.0590  138.9930 C   0  0  1  0  0  3  0  0  0  0  0  0
  180.7350  177.8910  138.2530 C   0  0  0  0  0  1  0  0  0  0  0  0
  181.7270  175.6570  138.5400 N   0  0  0  0  0  2  0  0  0  0  0  0
  181.9070  175.5720  137.1970 O   0  0  0  0  0  1  0  0  0  0  0  0
  1  7  1  6  0  0  0
  1  5  1  0  0  0  0
  2  3  1  0  0  0  0
  3 38  1  1  0  0  0
  4  8  1  6  0  0  0
  4  1  1  0  0  0  0
  4  2  1  0  0  0  0
  5  3  1  0  0  0  0
  7  6  1  0  0  0  0
  8 26  1  1  0  0  0
  9  8  1  0  0  0  0
 10  9  1  1  0  0  0
 11 12  1  0  0  0  0
 11 10  1  0  0  0  0
 12 10  1  0  0  0  0
 13 12  1  0  0  0  0
 14 18  1  0  0  0  0
 14 19  2  0  0  0  0
 15 13  1  1  0  0  0
 15 14  1  0  0  0  0
 16 18  1  0  0  0  0
 17 15  1  0  0  0  0
 17 20  1  0  0  0  0
 18 21  1  0  0  0  0
 20 16  1  0  0  0  0
 22 23  1  0  0  0  0
 23 25  1  0  0  0  0
 23 21  1  0  0  0  0
 24 23  1  0  0  0  0
 27 33  1  0  0  0  0
 27 26  1  1  0  0  0
 28 37  1  0  0  0  0
 28 29  2  0  0  0  0
 29 31  1  0  0  0  0
 30 31  1  0  0  0  0
 31 33  1  0  0  0  0
 32 34  1  0  0  0  0
 33 35  1  1  0  0  0
 34 30  2  0  0  0  0
 36 29  1  0  0  0  0
 36 34  1  0  0  0  0
 37 27  1  0  0  0  0
 38 41  1  0  0  0  0
 40 41  1  0  0  0  0
 41 42  1  0  0  0  0
 41 39  1  0  0  0  0
 42 44  1  0  0  0  0
 44 43  2  0  0  0  0
 45 44  1  0  0  0  0
 46 48  1  6  0  0  0
 46 52  1  0  0  0  0
 47 55  1  6  0  0  0
 47 46  1  0  0  0  0
 47 58  1  0  0  0  0
 49 53  1  6  0  0  0
 49 48  1  0  0  0  0
 51 59  1  6  0  0  0
 51 49  1  0  0  0  0
 51 55  1  0  0  0  0
 52 57  1  0  0  0  0
 52 54  1  0  0  0  0
 54 50  2  0  0  0  0
 54 45  1  0  0  0  0
 58 56  2  0  0  0  0
 58 57  1  0  0  0  0
 60 61  1  6  0  0  0
 60 59  1  0  0  0  0
 62 60  1  0  0  0  0
 63 62  1  0  0  0  0
M  END
>  <MODEL>
5

>  <REMARK>
 VINA RESULT:      -6.5      2.171      6.777
  Name = 
  19 active torsions:
  status: ('A' for Active; 'I' for Inactive)
    1  A    between atoms: N_1  and  C_2
    2  A    between atoms: C_2  and  O_29
    3  A    between atoms: C_3  and  O_36
    4  A    between atoms: C_4  and  C_55
    5  A    between atoms: C_7  and  C_35
    6  A    between atoms: C_7  and  N_44
    7  A    between atoms: N_9  and  C_23
    8  A    between atoms: N_9  and  C_37
    9  A    between atoms: C_22  and  O_29
   10  A    between atoms: C_24  and  C_39
   11  A    between atoms: C_30  and  C_48
   12  A    between atoms: C_32  and  C_62
   13  A    between atoms: C_37  and  C_54
   14  A    between atoms: C_37  and  C_55
   15  A    between atoms: C_39  and  N_45
   16  A    between atoms: C_48  and  C_63
   17  A    between atoms: C_52  and  C_53
   18  A    between atoms: C_52  and  C_62
   19  A    between atoms: C_53  and  C_63
                            x       y       z     vdW  Elec       q    Type
                         _______ _______ _______ _____ _____    ______ ____

>  <TORSDO>
F 19

$$$$
=
 OpenBabel10232407443D

 63 69  0  0  1  0  0  0  0  0999 V2000
  185.7330  178.6110  142.7100 C   0  0  1  0  0  3  0  0  0  0  0  0
  186.1380  178.3820  140.0850 S   0  0  0  0  0  0  0  0  0  0  0  0
  184.6680  179.2900  140.6360 C   0  0  2  0  0  3  0  0  0  0  0  0
  186.7400  177.9940  141.7980 C   0  0  1  0  0  3  0  0  0  0  0  0
  184.4080  178.8550  142.0690 C   0  0  0  0  0  2  0  0  0  0  0  0
  184.7480  178.7830  144.7520 C   0  0  0  0  0  1  0  0  0  0  0  0
  185.7100  178.0500  143.9590 O   0  0  0  0  0  0  0  0  0  0  0  0
  188.2630  178.1420  142.2120 C   0  0  2  0  0  3  0  0  0  0  0  0
  189.0610  178.2740  140.9910 N   0  0  0  0  0  2  0  0  0  0  0  0
  189.6560  177.1050  140.4520 C   0  0  2  0  0  3  0  0  0  0  0  0
  191.0790  177.4040  140.0930 C   0  0  0  0  0  2  0  0  0  0  0  0
  189.9880  177.3150  139.0360 N   0  0  0  0  0  0  0  0  0  0  0  0
  190.2050  176.1020  138.1470 C   0  0  0  0  0  2  0  0  0  0  0  0
  192.5240  175.9340  136.9560 C   0  0  0  0  0  0  0  0  0  0  0  0
  191.0980  176.4780  136.9620 C   0  0  1  0  0  3  0  0  0  0  0  0
  192.3880  175.5580  134.5800 C   0  0  0  0  0  2  0  0  0  0  0  0
  190.3920  175.9630  135.8340 O   0  0  0  0  0  0  0  0  0  0  0  0
  193.2030  175.9040  135.7490 N   0  0  0  0  0  0  0  0  0  0  0  0
  193.1140  175.4970  138.0110 O   0  0  0  0  0  0  0  0  0  0  0  0
  191.0730  176.3310  134.6690 C   0  0  0  0  0  2  0  0  0  0  0  0
  194.5340  176.5120  135.6040 C   0  0  0  0  0  2  0  0  0  0  0  0
  196.8000  176.0530  135.1540 F   0  0  0  0  0  0  0  0  0  0  0  0
  195.6380  175.4460  135.5430 C   0  0  0  0  0  0  0  0  0  0  0  0
  195.3120  174.4490  134.6550 F   0  0  0  0  0  0  0  0  0  0  0  0
  195.8250  174.8920  136.7830 F   0  0  0  0  0  0  0  0  0  0  0  0
  188.7260  176.9460  142.9560 C   0  0  0  0  0  2  0  0  0  0  0  0
  189.6100  177.2910  144.1830 C   0  0  2  0  0  3  0  0  0  0  0  0
  189.2730  178.0100  146.4560 N   0  0  0  0  0  0  0  0  0  0  0  0
  190.1530  177.1740  146.8950 C   0  0  0  0  0  0  0  0  0  0  0  0
  192.1310  176.1570  146.7180 N   0  0  0  0  0  0  0  0  0  0  0  0
  190.9970  176.4940  145.9910 N   0  0  0  0  0  0  0  0  0  0  0  0
  193.1040  176.2160  148.9570 C   0  0  0  0  0  1  0  0  0  0  0  0
  191.0180  176.8250  144.5770 C   0  0  1  0  0  3  0  0  0  0  0  0
  192.0020  176.5370  147.9430 C   0  0  0  0  0  0  0  0  0  0  0  0
  191.5810  175.6600  143.7750 C   0  0  0  0  0  1  0  0  0  0  0  0
  190.7360  177.2080  148.2380 N   0  0  0  0  0  2  0  0  0  0  0  0
  188.9110  178.0240  145.0660 C   0  0  0  0  0  2  0  0  0  0  0  0
  183.3150  179.1030  139.8920 C   0  0  0  0  0  2  0  0  0  0  0  0
  183.2840  176.7700  139.7600 F   0  0  0  0  0  0  0  0  0  0  0  0
  181.6780  177.6900  141.0600 F   0  0  0  0  0  0  0  0  0  0  0  0
  182.4600  177.8410  139.8970 C   0  0  0  0  0  0  0  0  0  0  0  0
  181.6050  178.0870  138.6750 C   0  0  0  0  0  2  0  0  0  0  0  0
  180.5550  175.9090  138.5730 O   0  0  0  0  0  0  0  0  0  0  0  0
  180.7740  176.9870  138.0270 C   0  0  0  0  0  0  0  0  0  0  0  0
  179.9830  177.3040  136.8010 C   0  0  0  0  0  2  0  0  0  0  0  0
  182.7600  175.9090  134.4840 C   0  0  2  0  0  3  0  0  0  0  0  0
  183.2230  174.4360  134.5500 C   0  0  1  0  0  3  0  0  0  0  0  0
  183.7150  176.8580  135.2300 C   0  0  0  0  0  2  0  0  0  0  0  0
  185.1300  176.4000  135.1080 C   0  0  2  0  0  3  0  0  0  0  0  0
  180.3300  177.8040  134.4860 O   0  0  0  0  0  0  0  0  0  0  0  0
  185.2150  175.1870  136.0950 C   0  0  1  0  0  3  0  0  0  0  0  0
  181.4710  175.8860  135.1180 N   0  0  0  0  0  0  0  0  0  0  0  0
  185.9710  177.4860  135.3910 O   0  0  0  0  0  1  0  0  0  0  0  0
  180.6200  177.0290  135.4440 C   0  0  0  0  0  0  0  0  0  0  0  0
  184.3620  174.0300  135.5370 C   0  0  0  0  0  2  0  0  0  0  0  0
  181.7300  172.4690  134.3490 O   0  0  0  0  0  0  0  0  0  0  0  0
  180.9620  174.5600  135.2430 N   0  0  0  0  0  2  0  0  0  0  0  0
  181.9500  173.6920  134.7230 C   0  0  0  0  0  0  0  0  0  0  0  0
  186.5540  174.7600  136.2780 O   0  0  0  0  0  0  0  0  0  0  0  0
  186.6950  173.6610  137.2020 C   0  0  1  0  0  3  0  0  0  0  0  0
  185.3700  173.1530  137.7520 C   0  0  0  0  0  1  0  0  0  0  0  0
  187.5260  172.5350  136.7390 N   0  0  0  0  0  2  0  0  0  0  0  0
  188.8300  172.9000  136.6380 O   0  0  0  0  0  1  0  0  0  0  0  0
  1  7  1  1  0  0  0
  2  3  1  0  0  0  0
  2  4  1  0  0  0  0
  3 38  1  6  0  0  0
  3  5  1  0  0  0  0
  4  8  1  1  0  0  0
  4  1  1  0  0  0  0
  5  1  1  0  0  0  0
  7  6  1  0  0  0  0
  8 26  1  6  0  0  0
  9  8  1  0  0  0  0
 10  9  1  1  0  0  0
 11 10  1  0  0  0  0
 12 11  1  0  0  0  0
 12 10  1  0  0  0  0
 13 12  1  0  0  0  0
 14 15  1  0  0  0  0
 14 19  2  0  0  0  0
 15 13  1  1  0  0  0
 16 20  1  0  0  0  0
 16 18  1  0  0  0  0
 17 15  1  0  0  0  0
 18 14  1  0  0  0  0
 20 17  1  0  0  0  0
 21 18  1  0  0  0  0
 22 23  1  0  0  0  0
 23 21  1  0  0  0  0
 23 25  1  0  0  0  0
 24 23  1  0  0  0  0
 27 26  1  1  0  0  0
 27 33  1  0  0  0  0
 27 37  1  0  0  0  0
 28 29  2  0  0  0  0
 29 36  1  0  0  0  0
 30 34  2  0  0  0  0
 31 30  1  0  0  0  0
 31 29  1  0  0  0  0
 33 35  1  6  0  0  0
 33 31  1  0  0  0  0
 34 36  1  0  0  0  0
 34 32  1  0  0  0  0
 37 28  1  0  0  0  0
 38 41  1  0  0  0  0
 39 41  1  0  0  0  0
 41 40  1  0  0  0  0
 42 41  1  0  0  0  0
 44 43  2  0  0  0  0
 44 42  1  0  0  0  0
 45 44  1  0  0  0  0
 46 47  1  0  0  0  0
 46 52  1  0  0  0  0
 46 48  1  1  0  0  0
 47 58  1  0  0  0  0
 47 55  1  1  0  0  0
 49 48  1  0  0  0  0
 49 53  1  1  0  0  0
 49 51  1  0  0  0  0
 50 54  2  0  0  0  0
 51 59  1  6  0  0  0
 52 57  1  0  0  0  0
 52 54  1  0  0  0  0
 54 45  1  0  0  0  0
 55 51  1  0  0  0  0
 56 58  2  0  0  0  0
 58 57  1  0  0  0  0
 59 60  1  0  0  0  0
 60 61  1  6  0  0  0
 62 60  1  0  0  0  0
 63 62  1  0  0  0  0
M  END
>  <MODEL>
6

>  <REMARK>
 VINA RESULT:      -6.1      3.610      8.516
  Name = 
  19 active torsions:
  status: ('A' for Active; 'I' for Inactive)
    1  A    between atoms: N_1  and  C_2
    2  A    between atoms: C_2  and  O_29
    3  A    between atoms: C_3  and  O_36
    4  A    between atoms: C_4  and  C_55
    5  A    between atoms: C_7  and  C_35
    6  A    between atoms: C_7  and  N_44
    7  A    between atoms: N_9  and  C_23
    8  A    between atoms: N_9  and  C_37
    9  A    between atoms: C_22  and  O_29
   10  A    between atoms: C_24  and  C_39
   11  A    between atoms: C_30  and  C_48
   12  A    between atoms: C_32  and  C_62
   13  A    between atoms: C_37  and  C_54
   14  A    between atoms: C_37  and  C_55
   15  A    between atoms: C_39  and  N_45
   16  A    between atoms: C_48  and  C_63
   17  A    between atoms: C_52  and  C_53
   18  A    between atoms: C_52  and  C_62
   19  A    between atoms: C_53  and  C_63
                            x       y       z     vdW  Elec       q    Type
                         _______ _______ _______ _____ _____    ______ ____

>  <TORSDO>
F 19

$$$$
=
 OpenBabel10232407443D

 63 69  0  0  1  0  0  0  0  0999 V2000
  189.9540  176.7990  137.3550 C   0  0  1  0  0  3  0  0  0  0  0  0
  191.8410  176.5160  139.2170 S   0  0  0  0  0  0  0  0  0  0  0  0
  190.1240  176.6960  139.7750 C   0  0  2  0  0  3  0  0  0  0  0  0
  191.4350  176.6260  137.4080 C   0  0  1  0  0  3  0  0  0  0  0  0
  189.3630  177.3240  138.6200 C   0  0  0  0  0  2  0  0  0  0  0  0
  188.2330  176.7810  135.8680 C   0  0  0  0  0  1  0  0  0  0  0  0
  189.5120  177.3740  136.1920 O   0  0  0  0  0  0  0  0  0  0  0  0
  192.0780  175.6490  136.3370 C   0  0  2  0  0  3  0  0  0  0  0  0
  190.9940  175.0260  135.5730 N   0  0  0  0  0  2  0  0  0  0  0  0
  190.5740  173.7250  135.9490 C   0  0  2  0  0  3  0  0  0  0  0  0
  190.8860  172.7720  134.8350 C   0  0  0  0  0  2  0  0  0  0  0  0
  189.4730  173.2800  135.0840 N   0  0  0  0  0  0  0  0  0  0  0  0
  188.5770  172.1510  135.5620 C   0  0  0  0  0  2  0  0  0  0  0  0
  186.0130  171.6600  135.6660 C   0  0  0  0  0  0  0  0  0  0  0  0
  187.1520  172.6700  135.7720 C   0  0  1  0  0  3  0  0  0  0  0  0
  184.8790  172.7210  137.5090 C   0  0  0  0  0  2  0  0  0  0  0  0
  187.1840  173.2080  137.0930 O   0  0  0  0  0  0  0  0  0  0  0  0
  184.7960  171.9910  136.2400 N   0  0  0  0  0  0  0  0  0  0  0  0
  186.1340  170.5210  135.0810 O   0  0  0  0  0  0  0  0  0  0  0  0
  185.9480  173.8040  137.3670 C   0  0  0  0  0  2  0  0  0  0  0  0
  183.5440  171.9310  135.4690 C   0  0  0  0  0  2  0  0  0  0  0  0
  183.4660  169.8690  136.6050 F   0  0  0  0  0  0  0  0  0  0  0  0
  182.6810  170.7320  135.8890 C   0  0  0  0  0  0  0  0  0  0  0  0
  182.1620  170.0880  134.7910 F   0  0  0  0  0  0  0  0  0  0  0  0
  181.6490  171.1520  136.6870 F   0  0  0  0  0  0  0  0  0  0  0  0
  192.8650  174.5830  137.0020 C   0  0  0  0  0  2  0  0  0  0  0  0
  194.3020  174.4380  136.4360 C   0  0  2  0  0  3  0  0  0  0  0  0
  196.1960  175.8710  136.0400 N   0  0  0  0  0  0  0  0  0  0  0  0
  197.0130  174.9940  136.5200 C   0  0  0  0  0  0  0  0  0  0  0  0
  197.7020  172.8820  136.7230 N   0  0  0  0  0  0  0  0  0  0  0  0
  196.5680  173.6810  136.7810 N   0  0  0  0  0  0  0  0  0  0  0  0
  200.1290  172.9520  136.4550 C   0  0  0  0  0  1  0  0  0  0  0  0
  195.2480  173.2310  136.3750 C   0  0  1  0  0  3  0  0  0  0  0  0
  198.7440  173.6060  136.4970 C   0  0  0  0  0  0  0  0  0  0  0  0
  194.8310  172.0190  137.1960 C   0  0  0  0  0  1  0  0  0  0  0  0
  198.4680  175.0370  136.3600 N   0  0  0  0  0  2  0  0  0  0  0  0
  194.7800  175.6400  136.0700 C   0  0  0  0  0  2  0  0  0  0  0  0
  189.7990  177.5750  141.0160 C   0  0  0  0  0  2  0  0  0  0  0  0
  188.6790  179.4550  141.8390 F   0  0  0  0  0  0  0  0  0  0  0  0
  187.5990  178.3170  140.2080 F   0  0  0  0  0  0  0  0  0  0  0  0
  188.4510  178.2170  141.3270 C   0  0  0  0  0  0  0  0  0  0  0  0
  187.9180  177.2430  142.3530 C   0  0  0  0  0  2  0  0  0  0  0  0
  187.3180  178.1640  144.5100 O   0  0  0  0  0  0  0  0  0  0  0  0
  186.9480  177.6650  143.4500 C   0  0  0  0  0  0  0  0  0  0  0  0
  185.4880  177.7150  143.1460 C   0  0  0  0  0  2  0  0  0  0  0  0
  183.5650  179.0900  140.0740 C   0  0  2  0  0  3  0  0  0  0  0  0
  182.0790  178.7510  139.8140 C   0  0  1  0  0  3  0  0  0  0  0  0
  184.5200  178.2330  139.2230 C   0  0  0  0  0  2  0  0  0  0  0  0
  183.9290  177.9430  137.8830 C   0  0  2  0  0  3  0  0  0  0  0  0
  185.6440  179.9070  142.1960 O   0  0  0  0  0  0  0  0  0  0  0  0
  182.8560  176.8420  138.1790 C   0  0  1  0  0  3  0  0  0  0  0  0
  183.7370  178.8040  141.4720 N   0  0  0  0  0  0  0  0  0  0  0  0
  184.9670  177.5750  137.0150 O   0  0  0  0  0  1  0  0  0  0  0  0
  184.9810  178.8290  142.2370 C   0  0  0  0  0  0  0  0  0  0  0  0
  181.7120  177.4700  139.0010 C   0  0  0  0  0  2  0  0  0  0  0  0
  180.2390  179.1100  141.4330 O   0  0  0  0  0  0  0  0  0  0  0  0
  182.4880  178.6700  142.1460 N   0  0  0  0  0  2  0  0  0  0  0  0
  181.4770  178.8270  141.1690 C   0  0  0  0  0  0  0  0  0  0  0  0
  182.3440  176.2810  136.9830 O   0  0  0  0  0  0  0  0  0  0  0  0
  180.9990  175.7730  137.1050 C   0  0  1  0  0  3  0  0  0  0  0  0
  179.9840  176.5230  136.2550 C   0  0  0  0  0  1  0  0  0  0  0  0
  180.8440  174.3170  136.9290 N   0  0  0  0  0  2  0  0  0  0  0  0
  181.0150  173.6630  138.1070 O   0  0  0  0  0  1  0  0  0  0  0  0
  1  7  1  6  0  0  0
  1  4  1  0  0  0  0
  1  5  1  0  0  0  0
  2  3  1  0  0  0  0
  3 38  1  1  0  0  0
  4  8  1  6  0  0  0
  4  2  1  0  0  0  0
  5  3  1  0  0  0  0
  6  7  1  0  0  0  0
  8 26  1  1  0  0  0
  9  8  1  0  0  0  0
 10  9  1  6  0  0  0
 11 12  1  0  0  0  0
 11 10  1  0  0  0  0
 12 13  1  0  0  0  0
 12 10  1  0  0  0  0
 14 15  1  0  0  0  0
 14 18  1  0  0  0  0
 15 13  1  1  0  0  0
 15 17  1  0  0  0  0
 17 20  1  0  0  0  0
 18 16  1  0  0  0  0
 19 14  2  0  0  0  0
 20 16  1  0  0  0  0
 21 23  1  0  0  0  0
 21 18  1  0  0  0  0
 23 22  1  0  0  0  0
 23 25  1  0  0  0  0
 24 23  1  0  0  0  0
 27 26  1  1  0  0  0
 28 37  1  0  0  0  0
 28 29  2  0  0  0  0
 29 31  1  0  0  0  0
 30 31  1  0  0  0  0
 32 34  1  0  0  0  0
 33 27  1  0  0  0  0
 33 31  1  0  0  0  0
 33 35  1  1  0  0  0
 34 30  2  0  0  0  0
 36 34  1  0  0  0  0
 36 29  1  0  0  0  0
 37 27  1  0  0  0  0
 38 41  1  0  0  0  0
 40 41  1  0  0  0  0
 41 39  1  0  0  0  0
 41 42  1  0  0  0  0
 42 44  1  0  0  0  0
 44 43  2  0  0  0  0
 45 44  1  0  0  0  0
 46 48  1  6  0  0  0
 46 52  1  0  0  0  0
 47 55  1  1  0  0  0
 47 46  1  0  0  0  0
 47 58  1  0  0  0  0
 49 53  1  6  0  0  0
 49 51  1  0  0  0  0
 49 48  1  0  0  0  0
 50 54  2  0  0  0  0
 51 59  1  6  0  0  0
 51 55  1  0  0  0  0
 52 57  1  0  0  0  0
 52 54  1  0  0  0  0
 54 45  1  0  0  0  0
 58 56  2  0  0  0  0
 58 57  1  0  0  0  0
 59 60  1  0  0  0  0
 60 61  1  6  0  0  0
 62 60  1  0  0  0  0
 62 63  1  0  0  0  0
M  END
>  <MODEL>
7

>  <REMARK>
 VINA RESULT:      -6.1      2.488      6.838
  Name = 
  19 active torsions:
  status: ('A' for Active; 'I' for Inactive)
    1  A    between atoms: N_1  and  C_2
    2  A    between atoms: C_2  and  O_29
    3  A    between atoms: C_3  and  O_36
    4  A    between atoms: C_4  and  C_55
    5  A    between atoms: C_7  and  C_35
    6  A    between atoms: C_7  and  N_44
    7  A    between atoms: N_9  and  C_23
    8  A    between atoms: N_9  and  C_37
    9  A    between atoms: C_22  and  O_29
   10  A    between atoms: C_24  and  C_39
   11  A    between atoms: C_30  and  C_48
   12  A    between atoms: C_32  and  C_62
   13  A    between atoms: C_37  and  C_54
   14  A    between atoms: C_37  and  C_55
   15  A    between atoms: C_39  and  N_45
   16  A    between atoms: C_48  and  C_63
   17  A    between atoms: C_52  and  C_53
   18  A    between atoms: C_52  and  C_62
   19  A    between atoms: C_53  and  C_63
                            x       y       z     vdW  Elec       q    Type
                         _______ _______ _______ _____ _____    ______ ____

>  <TORSDO>
F 19

$$$$
=
 OpenBabel10232407443D

 63 69  0  0  1  0  0  0  0  0999 V2000
  185.3930  178.4730  139.0320 C   0  0  1  0  0  3  0  0  0  0  0  0
  183.2360  177.4980  140.2560 S   0  0  0  0  0  0  0  0  0  0  0  0
  184.1980  178.7680  141.1240 C   0  0  2  0  0  3  0  0  0  0  0  0
  184.3260  177.4690  138.7540 C   0  0  1  0  0  3  0  0  0  0  0  0
  185.5740  178.7760  140.4810 C   0  0  0  0  0  2  0  0  0  0  0  0
  187.6440  178.7940  139.0760 C   0  0  0  0  0  1  0  0  0  0  0  0
  186.5370  178.2720  138.3050 O   0  0  0  0  0  0  0  0  0  0  0  0
  183.7360  177.4430  137.2820 C   0  0  2  0  0  3  0  0  0  0  0  0
  182.2820  177.5950  137.3670 N   0  0  0  0  0  2  0  0  0  0  0  0
  181.5050  177.2310  136.2390 C   0  0  2  0  0  3  0  0  0  0  0  0
  180.0720  177.5810  136.5010 C   0  0  0  0  0  2  0  0  0  0  0  0
  180.5770  176.1480  136.5920 N   0  0  0  0  0  0  0  0  0  0  0  0
  179.9820  175.3010  135.4800 C   0  0  0  0  0  2  0  0  0  0  0  0
  181.7270  173.3770  135.2080 C   0  0  0  0  0  0  0  0  0  0  0  0
  180.3530  173.8310  135.6900 C   0  0  1  0  0  3  0  0  0  0  0  0
  181.9670  171.9790  137.1560 C   0  0  0  0  0  2  0  0  0  0  0  0
  180.2700  173.6640  137.1040 O   0  0  0  0  0  0  0  0  0  0  0  0
  182.2460  172.2050  135.7340 N   0  0  0  0  0  0  0  0  0  0  0  0
  182.4240  174.0330  134.3490 O   0  0  0  0  0  0  0  0  0  0  0  0
  180.5000  172.3190  137.4140 C   0  0  0  0  0  2  0  0  0  0  0  0
  182.7230  171.1190  134.8630 C   0  0  0  0  0  2  0  0  0  0  0  0
  184.6710  171.4570  136.1440 F   0  0  0  0  0  0  0  0  0  0  0  0
  184.0340  170.5130  135.3860 C   0  0  0  0  0  0  0  0  0  0  0  0
  184.8450  170.1230  134.3470 F   0  0  0  0  0  0  0  0  0  0  0  0
  183.7670  169.4240  136.1730 F   0  0  0  0  0  0  0  0  0  0  0  0
  184.0410  176.1540  136.6140 C   0  0  0  0  0  2  0  0  0  0  0  0
  185.3510  176.1890  135.7850 C   0  0  2  0  0  3  0  0  0  0  0  0
  186.6610  177.8410  134.6210 N   0  0  0  0  0  0  0  0  0  0  0  0
  187.7610  177.3650  135.0990 C   0  0  0  0  0  0  0  0  0  0  0  0
  189.0580  175.6360  135.6500 N   0  0  0  0  0  0  0  0  0  0  0  0
  187.7640  176.1250  135.7710 N   0  0  0  0  0  0  0  0  0  0  0  0
  191.2860  176.1910  134.8190 C   0  0  0  0  0  1  0  0  0  0  0  0
  186.5850  175.2780  135.8060 C   0  0  1  0  0  3  0  0  0  0  0  0
  189.7960  176.4830  135.0190 C   0  0  0  0  0  0  0  0  0  0  0  0
  186.6720  174.3040  136.9730 C   0  0  0  0  0  1  0  0  0  0  0  0
  189.0980  177.7000  134.6010 N   0  0  0  0  0  2  0  0  0  0  0  0
  185.3950  177.3030  135.0330 C   0  0  0  0  0  2  0  0  0  0  0  0
  184.4520  178.6400  142.6530 C   0  0  0  0  0  2  0  0  0  0  0  0
  182.5680  179.9050  143.2130 F   0  0  0  0  0  0  0  0  0  0  0  0
  182.8450  177.9990  144.3990 F   0  0  0  0  0  0  0  0  0  0  0  0
  183.4940  179.0730  143.7570 C   0  0  0  0  0  0  0  0  0  0  0  0
  184.4530  179.7840  144.6850 C   0  0  0  0  0  2  0  0  0  0  0  0
  184.5130  178.4390  146.6970 O   0  0  0  0  0  0  0  0  0  0  0  0
  185.1340  179.0780  145.8510 C   0  0  0  0  0  0  0  0  0  0  0  0
  186.6190  178.9330  145.8420 C   0  0  0  0  0  2  0  0  0  0  0  0
  189.1010  176.5380  144.0720 C   0  0  2  0  0  3  0  0  0  0  0  0
  190.6320  176.7260  144.1630 C   0  0  1  0  0  3  0  0  0  0  0  0
  188.5200  177.0790  142.7530 C   0  0  0  0  0  2  0  0  0  0  0  0
  189.4760  176.8770  141.6240 C   0  0  2  0  0  3  0  0  0  0  0  0
  186.4480  176.5530  145.6400 O   0  0  0  0  0  0  0  0  0  0  0  0
  190.5610  177.9830  141.8530 C   0  0  1  0  0  3  0  0  0  0  0  0
  188.6010  177.2890  145.1910 N   0  0  0  0  0  0  0  0  0  0  0  0
  188.7590  176.9550  140.4210 O   0  0  0  0  0  1  0  0  0  0  0  0
  187.2060  177.5620  145.5260 C   0  0  0  0  0  0  0  0  0  0  0  0
  191.3580  177.6410  143.1280 C   0  0  0  0  0  2  0  0  0  0  0  0
  191.9180  176.8900  146.2740 O   0  0  0  0  0  0  0  0  0  0  0  0
  189.6340  177.6100  146.1200 N   0  0  0  0  0  2  0  0  0  0  0  0
  190.8400  177.1000  145.5840 C   0  0  0  0  0  0  0  0  0  0  0  0
  191.4370  178.0860  140.7440 O   0  0  0  0  0  0  0  0  0  0  0  0
  191.9270  176.8150  140.2670 C   0  0  1  0  0  3  0  0  0  0  0  0
  191.4020  176.4370  138.8900 C   0  0  0  0  0  1  0  0  0  0  0  0
  193.3880  176.6240  140.3320 N   0  0  0  0  0  2  0  0  0  0  0  0
  193.9680  176.8880  139.1330 O   0  0  0  0  0  1  0  0  0  0  0  0
  1  7  1  1  0  0  0
  1  5  1  0  0  0  0
  2  3  1  0  0  0  0
  3 38  1  1  0  0  0
  4  8  1  6  0  0  0
  4  1  1  0  0  0  0
  4  2  1  0  0  0  0
  5  3  1  0  0  0  0
  7  6  1  0  0  0  0
  8 26  1  1  0  0  0
  8  9  1  0  0  0  0
 10 11  1  0  0  0  0
 10 12  1  0  0  0  0
 10  9  1  1  0  0  0
 11 12  1  0  0  0  0
 13 12  1  0  0  0  0
 14 15  1  0  0  0  0
 14 18  1  0  0  0  0
 15 13  1  1  0  0  0
 15 17  1  0  0  0  0
 16 20  1  0  0  0  0
 17 20  1  0  0  0  0
 18 16  1  0  0  0  0
 19 14  2  0  0  0  0
 21 23  1  0  0  0  0
 21 18  1  0  0  0  0
 23 22  1  0  0  0  0
 23 25  1  0  0  0  0
 24 23  1  0  0  0  0
 27 33  1  0  0  0  0
 27 26  1  1  0  0  0
 28 37  1  0  0  0  0
 28 29  2  0  0  0  0
 29 31  1  0  0  0  0
 30 31  1  0  0  0  0
 31 33  1  0  0  0  0
 32 34  1  0  0  0  0
 33 35  1  1  0  0  0
 34 30  2  0  0  0  0
 36 34  1  0  0  0  0
 36 29  1  0  0  0  0
 37 27  1  0  0  0  0
 38 41  1  0  0  0  0
 39 41  1  0  0  0  0
 41 40  1  0  0  0  0
 41 42  1  0  0  0  0
 42 44  1  0  0  0  0
 44 43  2  0  0  0  0
 45 44  1  0  0  0  0
 46 48  1  6  0  0  0
 46 47  1  0  0  0  0
 46 52  1  0  0  0  0
 47 55  1  6  0  0  0
 47 58  1  0  0  0  0
 49 53  1  6  0  0  0
 49 51  1  0  0  0  0
 49 48  1  0  0  0  0
 51 59  1  6  0  0  0
 51 55  1  0  0  0  0
 52 54  1  0  0  0  0
 52 57  1  0  0  0  0
 54 50  2  0  0  0  0
 54 45  1  0  0  0  0
 58 57  1  0  0  0  0
 58 56  2  0  0  0  0
 60 61  1  6  0  0  0
 60 62  1  0  0  0  0
 60 59  1  0  0  0  0
 63 62  1  0  0  0  0
M  END
>  <MODEL>
8

>  <REMARK>
 VINA RESULT:      -6.0      3.710      9.906
  Name = 
  19 active torsions:
  status: ('A' for Active; 'I' for Inactive)
    1  A    between atoms: N_1  and  C_2
    2  A    between atoms: C_2  and  O_29
    3  A    between atoms: C_3  and  O_36
    4  A    between atoms: C_4  and  C_55
    5  A    between atoms: C_7  and  C_35
    6  A    between atoms: C_7  and  N_44
    7  A    between atoms: N_9  and  C_23
    8  A    between atoms: N_9  and  C_37
    9  A    between atoms: C_22  and  O_29
   10  A    between atoms: C_24  and  C_39
   11  A    between atoms: C_30  and  C_48
   12  A    between atoms: C_32  and  C_62
   13  A    between atoms: C_37  and  C_54
   14  A    between atoms: C_37  and  C_55
   15  A    between atoms: C_39  and  N_45
   16  A    between atoms: C_48  and  C_63
   17  A    between atoms: C_52  and  C_53
   18  A    between atoms: C_52  and  C_62
   19  A    between atoms: C_53  and  C_63
                            x       y       z     vdW  Elec       q    Type
                         _______ _______ _______ _____ _____    ______ ____

>  <TORSDO>
F 19

$$$$
=
 OpenBabel10232407443D

 63 69  0  0  1  0  0  0  0  0999 V2000
  188.9260  177.9580  141.3100 C   0  0  1  0  0  3  0  0  0  0  0  0
  186.4440  178.4120  140.4490 S   0  0  0  0  0  0  0  0  0  0  0  0
  187.7190  178.0620  139.2060 C   0  0  2  0  0  3  0  0  0  0  0  0
  187.5940  178.2740  141.9010 C   0  0  1  0  0  3  0  0  0  0  0  0
  189.0550  178.3400  139.8740 C   0  0  0  0  0  2  0  0  0  0  0  0
  191.1630  177.6550  141.5870 C   0  0  0  0  0  1  0  0  0  0  0  0
  189.9780  178.2870  142.1240 O   0  0  0  0  0  0  0  0  0  0  0  0
  187.1950  177.4930  143.2230 C   0  0  2  0  0  3  0  0  0  0  0  0
  185.7340  177.4680  143.3190 N   0  0  0  0  0  2  0  0  0  0  0  0
  185.0150  178.6030  142.8680 C   0  0  2  0  0  3  0  0  0  0  0  0
  183.9810  178.9630  143.8910 C   0  0  0  0  0  2  0  0  0  0  0  0
  183.6160  178.2420  142.6010 N   0  0  0  0  0  0  0  0  0  0  0  0
  182.7860  179.1430  141.7030 C   0  0  0  0  0  2  0  0  0  0  0  0
  182.8660  178.9530  139.0990 C   0  0  0  0  0  0  0  0  0  0  0  0
  182.3870  178.3880  140.4320 C   0  0  1  0  0  3  0  0  0  0  0  0
  183.2840  176.7240  138.2840 C   0  0  0  0  0  2  0  0  0  0  0  0
  182.9510  177.0910  140.6240 O   0  0  0  0  0  0  0  0  0  0  0  0
  182.8830  178.1070  138.0020 N   0  0  0  0  0  0  0  0  0  0  0  0
  183.2600  180.1690  138.9510 O   0  0  0  0  0  0  0  0  0  0  0  0
  182.5700  176.2710  139.5570 C   0  0  0  0  0  2  0  0  0  0  0  0
  182.2170  178.4720  136.7420 C   0  0  0  0  0  2  0  0  0  0  0  0
  180.3600  177.8980  138.0730 F   0  0  0  0  0  0  0  0  0  0  0  0
  180.7220  178.1180  136.7720 C   0  0  0  0  0  0  0  0  0  0  0  0
  180.4650  176.9960  136.0200 F   0  0  0  0  0  0  0  0  0  0  0  0
  179.9820  179.1620  136.2800 F   0  0  0  0  0  0  0  0  0  0  0  0
  187.7400  178.1740  144.4220 C   0  0  0  0  0  2  0  0  0  0  0  0
  188.7180  177.2890  145.2380 C   0  0  2  0  0  3  0  0  0  0  0  0
  190.7710  176.0960  144.8390 N   0  0  0  0  0  0  0  0  0  0  0  0
  191.2810  176.5190  145.9460 C   0  0  0  0  0  0  0  0  0  0  0  0
  191.0990  176.9870  148.1200 N   0  0  0  0  0  0  0  0  0  0  0  0
  190.4670  177.1710  146.8970 N   0  0  0  0  0  0  0  0  0  0  0  0
  193.1080  176.0700  149.1620 C   0  0  0  0  0  1  0  0  0  0  0  0
  189.0260  177.2430  146.7400 C   0  0  1  0  0  3  0  0  0  0  0  0
  192.2000  176.3370  147.9580 C   0  0  0  0  0  0  0  0  0  0  0  0
  188.4650  178.3910  147.5690 C   0  0  0  0  0  1  0  0  0  0  0  0
  192.4870  175.9690  146.5710 N   0  0  0  0  0  2  0  0  0  0  0  0
  189.4800  176.5540  144.4090 C   0  0  0  0  0  2  0  0  0  0  0  0
  187.7440  178.8640  137.8730 C   0  0  0  0  0  2  0  0  0  0  0  0
  186.0840  177.7820  136.6320 F   0  0  0  0  0  0  0  0  0  0  0  0
  187.2910  179.3260  135.5020 F   0  0  0  0  0  0  0  0  0  0  0  0
  187.3180  178.3380  136.5070 C   0  0  0  0  0  0  0  0  0  0  0  0
  188.4030  177.3150  136.2600 C   0  0  0  0  0  2  0  0  0  0  0  0
  186.9900  175.5820  135.3320 O   0  0  0  0  0  0  0  0  0  0  0  0
  188.1010  175.9160  135.7370 C   0  0  0  0  0  0  0  0  0  0  0  0
  189.2340  174.9840  135.4640 C   0  0  0  0  0  2  0  0  0  0  0  0
  192.4650  174.0860  137.4090 C   0  0  2  0  0  3  0  0  0  0  0  0
  193.5560  175.1350  137.7200 C   0  0  1  0  0  3  0  0  0  0  0  0
  192.8250  173.2060  136.1980 C   0  0  0  0  0  2  0  0  0  0  0  0
  194.2950  172.9570  136.1350 C   0  0  2  0  0  3  0  0  0  0  0  0
  189.4360  173.5210  137.3470 O   0  0  0  0  0  0  0  0  0  0  0  0
  194.8810  174.3080  135.6030 C   0  0  1  0  0  3  0  0  0  0  0  0
  191.3020  174.8820  137.1290 N   0  0  0  0  0  0  0  0  0  0  0  0
  194.5160  171.8290  135.3310 O   0  0  0  0  0  1  0  0  0  0  0  0
  190.0000  174.4170  136.6530 C   0  0  0  0  0  0  0  0  0  0  0  0
  194.6960  175.3910  136.6860 C   0  0  0  0  0  2  0  0  0  0  0  0
  193.1640  177.2870  138.8830 O   0  0  0  0  0  0  0  0  0  0  0  0
  191.4630  176.2310  137.5600 N   0  0  0  0  0  2  0  0  0  0  0  0
  192.7690  176.3370  138.0940 C   0  0  0  0  0  0  0  0  0  0  0  0
  196.2520  174.1830  135.2670 O   0  0  0  0  0  0  0  0  0  0  0  0
  197.1410  174.2940  136.3980 C   0  0  1  0  0  3  0  0  0  0  0  0
  197.8060  172.9810  136.7830 C   0  0  0  0  0  1  0  0  0  0  0  0
  198.1410  175.3760  136.3260 N   0  0  0  0  0  2  0  0  0  0  0  0
  197.5970  176.5080  135.8100 O   0  0  0  0  0  1  0  0  0  0  0  0
  1  4  1  0  0  0  0
  1  7  1  1  0  0  0
  2  4  1  0  0  0  0
  3 38  1  6  0  0  0
  3  5  1  0  0  0  0
  3  2  1  0  0  0  0
  4  8  1  1  0  0  0
  5  1  1  0  0  0  0
  6  7  1  0  0  0  0
  8  9  1  0  0  0  0
  8 26  1  1  0  0  0
 10  9  1  1  0  0  0
 10 11  1  0  0  0  0
 12 10  1  0  0  0  0
 12 11  1  0  0  0  0
 13 12  1  0  0  0  0
 14 15  1  0  0  0  0
 15 17  1  0  0  0  0
 15 13  1  1  0  0  0
 16 20  1  0  0  0  0
 18 16  1  0  0  0  0
 18 14  1  0  0  0  0
 19 14  2  0  0  0  0
 20 17  1  0  0  0  0
 21 23  1  0  0  0  0
 21 18  1  0  0  0  0
 23 22  1  0  0  0  0
 24 23  1  0  0  0  0
 25 23  1  0  0  0  0
 27 26  1  6  0  0  0
 27 33  1  0  0  0  0
 28 29  2  0  0  0  0
 29 36  1  0  0  0  0
 29 31  1  0  0  0  0
 31 30  1  0  0  0  0
 33 31  1  0  0  0  0
 33 35  1  1  0  0  0
 34 30  2  0  0  0  0
 34 32  1  0  0  0  0
 36 34  1  0  0  0  0
 37 28  1  0  0  0  0
 37 27  1  0  0  0  0
 40 41  1  0  0  0  0
 41 39  1  0  0  0  0
 41 38  1  0  0  0  0
 42 41  1  0  0  0  0
 43 44  2  0  0  0  0
 44 42  1  0  0  0  0
 45 44  1  0  0  0  0
 45 54  1  0  0  0  0
 46 48  1  6  0  0  0
 46 47  1  0  0  0  0
 47 55  1  6  0  0  0
 47 58  1  0  0  0  0
 49 53  1  6  0  0  0
 49 48  1  0  0  0  0
 51 59  1  1  0  0  0
 51 49  1  0  0  0  0
 51 55  1  0  0  0  0
 52 46  1  0  0  0  0
 52 57  1  0  0  0  0
 54 52  1  0  0  0  0
 54 50  2  0  0  0  0
 57 58  1  0  0  0  0
 58 56  2  0  0  0  0
 59 60  1  0  0  0  0
 60 61  1  6  0  0  0
 62 60  1  0  0  0  0
 63 62  1  0  0  0  0
M  END
>  <MODEL>
9

>  <REMARK>
 VINA RESULT:      -5.9      3.346     10.439
  Name = 
  19 active torsions:
  status: ('A' for Active; 'I' for Inactive)
    1  A    between atoms: N_1  and  C_2
    2  A    between atoms: C_2  and  O_29
    3  A    between atoms: C_3  and  O_36
    4  A    between atoms: C_4  and  C_55
    5  A    between atoms: C_7  and  C_35
    6  A    between atoms: C_7  and  N_44
    7  A    between atoms: N_9  and  C_23
    8  A    between atoms: N_9  and  C_37
    9  A    between atoms: C_22  and  O_29
   10  A    between atoms: C_24  and  C_39
   11  A    between atoms: C_30  and  C_48
   12  A    between atoms: C_32  and  C_62
   13  A    between atoms: C_37  and  C_54
   14  A    between atoms: C_37  and  C_55
   15  A    between atoms: C_39  and  N_45
   16  A    between atoms: C_48  and  C_63
   17  A    between atoms: C_52  and  C_53
   18  A    between atoms: C_52  and  C_62
   19  A    between atoms: C_53  and  C_63
                            x       y       z     vdW  Elec       q    Type
                         _______ _______ _______ _____ _____    ______ ____

>  <TORSDO>
F 19

$$$$
