=
 OpenBabel10232410213D

 29 32  0  0  1  0  0  0  0  0999 V2000
  188.4530  177.1320  142.0940 C   0  0  0  0  0  2  0  0  0  0  0  0
  187.0160  178.0300  144.4630 C   0  0  2  0  0  3  0  0  0  0  0  0
  187.2310  179.3340  140.5670 O   0  0  0  0  0  0  0  0  0  0  0  0
  185.2120  179.1470  141.9100 C   0  0  2  0  0  3  0  0  0  0  0  0
  186.5670  178.7250  141.4470 C   0  0  0  0  0  0  0  0  0  0  0  0
  188.3680  177.3390  144.6190 C   0  0  0  0  0  2  0  0  0  0  0  0
  184.9230  178.0970  143.0080 C   0  0  1  0  0  3  0  0  0  0  0  0
  189.1950  177.6010  143.3530 C   0  0  0  0  0  2  0  0  0  0  0  0
  187.0640  177.5860  142.1300 N   0  0  0  0  0  0  0  0  0  0  0  0
  186.1640  178.1170  145.7170 C   0  0  2  0  0  3  0  0  0  0  0  0
  185.0320  179.0840  145.3990 C   0  0  0  0  0  2  0  0  0  0  0  0
  186.2530  177.3730  143.3080 C   0  0  1  0  0  3  0  0  0  0  0  0
  184.1450  178.5390  144.2780 C   0  0  1  0  0  3  0  0  0  0  0  0
  183.3810  177.3890  139.2180 C   0  0  0  0  0  2  0  0  0  0  0  0
  184.8910  179.2630  139.4380 N   0  0  0  0  0  0  0  0  0  0  0  0
  183.6560  177.6220  140.6760 C   0  0  0  0  0  2  0  0  0  0  0  0
  184.3570  178.2900  138.4890 C   0  0  1  0  0  3  0  0  0  0  0  0
  184.2440  179.0140  140.7230 C   0  0  1  0  0  3  0  0  0  0  0  0
  184.4750  180.4820  139.0200 O   0  0  0  0  0  1  0  0  0  0  0  0
  186.8190  178.5390  137.1150 C   0  0  0  0  0  1  0  0  0  0  0  0
  185.7080  177.3060  137.8090 S   0  0  2  0  0  0  0  0  0  0  0  0
  185.0940  176.6640  136.5720 O   0  0  0  0  0  0  0  0  0  0  0  0
  183.0090  179.5050  143.9870 C   0  0  0  0  0  2  0  0  0  0  0  0
  181.7240  178.7490  143.7130 C   0  0  0  0  0  1  0  0  0  0  0  0
  186.9680  178.6740  146.8860 C   0  0  0  0  0  2  0  0  0  0  0  0
  187.5320  177.6180  147.6550 O   0  0  0  0  0  0  0  0  0  0  0  0
  189.2380  178.4360  148.9860 O   0  0  0  0  0  0  0  0  0  0  0  0
  188.8590  177.6350  148.0890 C   0  0  0  0  0  0  0  0  0  0  0  0
  189.8370  176.6920  147.4870 C   0  0  0  0  0  1  0  0  0  0  0  0
  1  9  1  0  0  0  0
  1  8  1  0  0  0  0
  2  6  1  1  0  0  0
  2 10  1  0  0  0  0
  3  5  2  0  0  0  0
  4  5  1  6  0  0  0
  4  7  1  0  0  0  0
  5  9  1  0  0  0  0
  7 12  1  0  0  0  0
  7 13  1  0  0  0  0
  8  6  1  0  0  0  0
  9 12  1  0  0  0  0
 10 25  1  0  0  0  0
 11 10  1  0  0  0  0
 12  2  1  0  0  0  0
 13 11  1  0  0  0  0
 14 16  1  0  0  0  0
 15 18  1  0  0  0  0
 16 18  1  0  0  0  0
 17 14  1  0  0  0  0
 17 15  1  0  0  0  0
 18  4  1  0  0  0  0
 19 15  1  0  0  0  0
 20 21  1  0  0  0  0
 21 17  1  0  0  0  0
 22 21  2  0  0  0  0
 23 13  1  0  0  0  0
 24 23  1  0  0  0  0
 25 26  1  0  0  0  0
 26 28  1  0  0  0  0
 28 27  2  0  0  0  0
 29 28  1  0  0  0  0
M  END
>  <MODEL>
1

>  <REMARK>
 VINA RESULT:      -8.3      0.000      0.000
  Name = 
  6 active torsions:
  status: ('A' for Active; 'I' for Inactive)
    1  A    between atoms: C_8  and  O_10
    2  A    between atoms: C_9  and  C_22
    3  A    between atoms: O_10  and  C_23
    4  A    between atoms: C_11  and  C_29
    5  A    between atoms: C_20  and  C_23
    6  A    between atoms: C_21  and  S_25
                            x       y       z     vdW  Elec       q    Type
                         _______ _______ _______ _____ _____    ______ ____

>  <TORSDO>
F 6

$$$$
=
 OpenBabel10232410213D

 29 32  0  0  1  0  0  0  0  0999 V2000
  187.8820  177.2750  147.2610 C   0  0  0  0  0  2  0  0  0  0  0  0
  186.1010  178.2860  145.1900 C   0  0  2  0  0  3  0  0  0  0  0  0
  190.1510  178.5330  145.8670 O   0  0  0  0  0  0  0  0  0  0  0  0
  189.0750  178.1060  143.7280 C   0  0  2  0  0  3  0  0  0  0  0  0
  189.2140  178.0040  145.2110 C   0  0  0  0  0  0  0  0  0  0  0  0
  185.5740  178.0970  146.6110 C   0  0  0  0  0  2  0  0  0  0  0  0
  187.7510  177.3420  143.4920 C   0  0  1  0  0  3  0  0  0  0  0  0
  186.7470  178.2560  147.5880 C   0  0  0  0  0  2  0  0  0  0  0  0
  188.1590  177.2860  145.8260 N   0  0  0  0  0  0  0  0  0  0  0  0
  185.0490  178.4380  144.1050 C   0  0  2  0  0  3  0  0  0  0  0  0
  185.7870  178.9030  142.8570 C   0  0  0  0  0  2  0  0  0  0  0  0
  187.0820  177.1530  144.8700 C   0  0  1  0  0  3  0  0  0  0  0  0
  186.7850  177.8450  142.3850 C   0  0  1  0  0  3  0  0  0  0  0  0
  191.7550  177.5500  141.2380 C   0  0  0  0  0  2  0  0  0  0  0  0
  189.8680  176.3450  142.1480 N   0  0  0  0  0  0  0  0  0  0  0  0
  191.1410  178.3680  142.3370 C   0  0  0  0  0  2  0  0  0  0  0  0
  190.7820  176.4120  141.0110 C   0  0  1  0  0  3  0  0  0  0  0  0
  190.2740  177.3850  143.0890 C   0  0  1  0  0  3  0  0  0  0  0  0
  190.0910  175.1570  142.7570 O   0  0  0  0  0  1  0  0  0  0  0  0
  190.7290  175.7430  138.2600 C   0  0  0  0  0  1  0  0  0  0  0  0
  189.8420  176.7020  139.4970 S   0  0  2  0  0  0  0  0  0  0  0  0
  190.1900  178.1380  139.1320 O   0  0  0  0  0  0  0  0  0  0  0  0
  187.4980  178.3160  141.1280 C   0  0  0  0  0  2  0  0  0  0  0  0
  186.5120  178.4780  139.9860 C   0  0  0  0  0  1  0  0  0  0  0  0
  184.0190  179.4950  144.4870 C   0  0  0  0  0  2  0  0  0  0  0  0
  182.7360  178.9030  144.6620 O   0  0  0  0  0  0  0  0  0  0  0  0
  182.1320  179.0230  142.4330 O   0  0  0  0  0  0  0  0  0  0  0  0
  181.7940  178.8430  143.6330 C   0  0  0  0  0  0  0  0  0  0  0  0
  180.3730  178.5570  143.9600 C   0  0  0  0  0  1  0  0  0  0  0  0
  1  8  1  0  0  0  0
  2  6  1  1  0  0  0
  4  5  1  1  0  0  0
  5  9  1  0  0  0  0
  5  3  2  0  0  0  0
  6  8  1  0  0  0  0
  7  4  1  0  0  0  0
  7 12  1  0  0  0  0
  9  1  1  0  0  0  0
 10 25  1  0  0  0  0
 10  2  1  0  0  0  0
 11 10  1  0  0  0  0
 12  2  1  0  0  0  0
 12  9  1  0  0  0  0
 13 11  1  0  0  0  0
 13  7  1  0  0  0  0
 14 16  1  0  0  0  0
 15 19  1  0  0  0  0
 15 18  1  0  0  0  0
 16 18  1  0  0  0  0
 17 14  1  0  0  0  0
 17 15  1  0  0  0  0
 18  4  1  0  0  0  0
 20 21  1  0  0  0  0
 21 17  1  0  0  0  0
 22 21  2  0  0  0  0
 23 13  1  0  0  0  0
 24 23  1  0  0  0  0
 25 26  1  0  0  0  0
 27 28  2  0  0  0  0
 28 29  1  0  0  0  0
 28 26  1  0  0  0  0
M  END
>  <MODEL>
2

>  <REMARK>
 VINA RESULT:      -7.8      2.765      5.877
  Name = 
  6 active torsions:
  status: ('A' for Active; 'I' for Inactive)
    1  A    between atoms: C_8  and  O_10
    2  A    between atoms: C_9  and  C_22
    3  A    between atoms: O_10  and  C_23
    4  A    between atoms: C_11  and  C_29
    5  A    between atoms: C_20  and  C_23
    6  A    between atoms: C_21  and  S_25
                            x       y       z     vdW  Elec       q    Type
                         _______ _______ _______ _____ _____    ______ ____

>  <TORSDO>
F 6

$$$$
=
 OpenBabel10232410213D

 29 32  0  0  1  0  0  0  0  0999 V2000
  189.9120  177.2530  147.7750 C   0  0  0  0  0  2  0  0  0  0  0  0
  187.4730  177.9900  146.3640 C   0  0  2  0  0  3  0  0  0  0  0  0
  191.4850  178.5550  145.6530 O   0  0  0  0  0  0  0  0  0  0  0  0
  189.8130  177.9050  144.0110 C   0  0  2  0  0  3  0  0  0  0  0  0
  190.4360  177.9190  145.3680 C   0  0  0  0  0  0  0  0  0  0  0  0
  187.4560  177.8700  147.8860 C   0  0  0  0  0  2  0  0  0  0  0  0
  188.5560  177.0380  144.2610 C   0  0  1  0  0  3  0  0  0  0  0  0
  188.8640  178.1760  148.4120 C   0  0  0  0  0  2  0  0  0  0  0  0
  189.7040  177.1780  146.3290 N   0  0  0  0  0  0  0  0  0  0  0  0
  186.1160  177.9930  145.6810 C   0  0  2  0  0  3  0  0  0  0  0  0
  186.3640  178.4150  144.2400 C   0  0  0  0  0  2  0  0  0  0  0  0
  188.3900  176.9050  145.7900 C   0  0  1  0  0  3  0  0  0  0  0  0
  187.2420  177.3950  143.5140 C   0  0  1  0  0  3  0  0  0  0  0  0
  191.7920  177.5170  140.9090 C   0  0  0  0  0  2  0  0  0  0  0  0
  190.1390  176.2690  142.1540 N   0  0  0  0  0  0  0  0  0  0  0  0
  191.4910  178.2500  142.1850 C   0  0  0  0  0  2  0  0  0  0  0  0
  190.7530  176.4170  140.8380 C   0  0  1  0  0  3  0  0  0  0  0  0
  190.7950  177.2200  143.0460 C   0  0  1  0  0  3  0  0  0  0  0  0
  190.4600  175.0310  142.5970 O   0  0  0  0  0  1  0  0  0  0  0  0
  190.0770  176.0770  138.1090 C   0  0  0  0  0  1  0  0  0  0  0  0
  189.4880  176.8470  139.6260 S   0  0  2  0  0  0  0  0  0  0  0  0
  189.7250  178.3290  139.3720 O   0  0  0  0  0  0  0  0  0  0  0  0
  187.4620  177.8200  142.0710 C   0  0  0  0  0  2  0  0  0  0  0  0
  186.3670  178.7680  141.6230 C   0  0  0  0  0  1  0  0  0  0  0  0
  185.1790  179.0030  146.3330 C   0  0  0  0  0  2  0  0  0  0  0  0
  183.8360  178.7810  145.9160 O   0  0  0  0  0  0  0  0  0  0  0  0
  183.9000  180.2400  144.1220 O   0  0  0  0  0  0  0  0  0  0  0  0
  183.3350  179.2810  144.7120 C   0  0  0  0  0  0  0  0  0  0  0  0
  182.1180  178.6690  144.1170 C   0  0  0  0  0  1  0  0  0  0  0  0
  1  8  1  0  0  0  0
  2  6  1  1  0  0  0
  4  7  1  0  0  0  0
  4  5  1  1  0  0  0
  5  3  2  0  0  0  0
  5  9  1  0  0  0  0
  6  8  1  0  0  0  0
  7 12  1  0  0  0  0
  9  1  1  0  0  0  0
 10 25  1  0  0  0  0
 10  2  1  0  0  0  0
 11 10  1  0  0  0  0
 12  9  1  0  0  0  0
 12  2  1  0  0  0  0
 13 11  1  0  0  0  0
 13  7  1  0  0  0  0
 14 16  1  0  0  0  0
 15 19  1  0  0  0  0
 15 18  1  0  0  0  0
 16 18  1  0  0  0  0
 17 14  1  0  0  0  0
 17 15  1  0  0  0  0
 18  4  1  0  0  0  0
 20 21  1  0  0  0  0
 21 17  1  0  0  0  0
 22 21  2  0  0  0  0
 23 13  1  0  0  0  0
 24 23  1  0  0  0  0
 26 25  1  0  0  0  0
 27 28  2  0  0  0  0
 28 26  1  0  0  0  0
 29 28  1  0  0  0  0
M  END
>  <MODEL>
3

>  <REMARK>
 VINA RESULT:      -7.8      2.949      5.642
  Name = 
  6 active torsions:
  status: ('A' for Active; 'I' for Inactive)
    1  A    between atoms: C_8  and  O_10
    2  A    between atoms: C_9  and  C_22
    3  A    between atoms: O_10  and  C_23
    4  A    between atoms: C_11  and  C_29
    5  A    between atoms: C_20  and  C_23
    6  A    between atoms: C_21  and  S_25
                            x       y       z     vdW  Elec       q    Type
                         _______ _______ _______ _____ _____    ______ ____

>  <TORSDO>
F 6

$$$$
=
 OpenBabel10232410213D

 29 32  0  0  1  0  0  0  0  0999 V2000
  191.5610  176.0280  143.6790 C   0  0  0  0  0  2  0  0  0  0  0  0
  188.9160  177.1880  144.0600 C   0  0  2  0  0  3  0  0  0  0  0  0
  192.0960  178.0350  141.5910 O   0  0  0  0  0  0  0  0  0  0  0  0
  189.7500  177.9960  140.9500 C   0  0  2  0  0  3  0  0  0  0  0  0
  190.9480  177.5280  141.7080 C   0  0  0  0  0  0  0  0  0  0  0  0
  189.6240  176.5250  145.2380 C   0  0  0  0  0  2  0  0  0  0  0  0
  188.6460  177.0780  141.5270 C   0  0  1  0  0  3  0  0  0  0  0  0
  191.1390  176.6420  145.0220 C   0  0  0  0  0  2  0  0  0  0  0  0
  190.6630  176.4780  142.6170 N   0  0  0  0  0  0  0  0  0  0  0  0
  187.4230  177.4160  144.2230 C   0  0  2  0  0  3  0  0  0  0  0  0
  187.0040  178.3350  143.0840 C   0  0  0  0  0  2  0  0  0  0  0  0
  189.2290  176.3990  142.7840 C   0  0  1  0  0  3  0  0  0  0  0  0
  187.2210  177.6600  141.7290 C   0  0  1  0  0  3  0  0  0  0  0  0
  189.0160  178.0930  137.3250 C   0  0  0  0  0  2  0  0  0  0  0  0
  189.4640  176.4340  139.0240 N   0  0  0  0  0  0  0  0  0  0  0  0
  189.3490  178.7930  138.6100 C   0  0  0  0  0  2  0  0  0  0  0  0
  188.8760  176.6320  137.7030 C   0  0  1  0  0  3  0  0  0  0  0  0
  189.9980  177.7220  139.4570 C   0  0  1  0  0  3  0  0  0  0  0  0
  190.5230  175.6070  138.8590 O   0  0  0  0  0  1  0  0  0  0  0  0
  186.9730  174.9940  136.3950 C   0  0  0  0  0  1  0  0  0  0  0  0
  187.1310  176.1750  137.7430 S   0  0  2  0  0  0  0  0  0  0  0  0
  186.4250  177.4100  137.2020 O   0  0  0  0  0  0  0  0  0  0  0  0
  186.7780  178.5820  140.6040 C   0  0  0  0  0  2  0  0  0  0  0  0
  185.3080  178.9260  140.7450 C   0  0  0  0  0  1  0  0  0  0  0  0
  187.1180  178.1080  145.5470 C   0  0  0  0  0  2  0  0  0  0  0  0
  186.0540  179.0410  145.3910 O   0  0  0  0  0  0  0  0  0  0  0  0
  184.5140  178.3820  146.9850 O   0  0  0  0  0  0  0  0  0  0  0  0
  184.7510  178.7650  145.8090 C   0  0  0  0  0  0  0  0  0  0  0  0
  183.6260  178.9300  144.8510 C   0  0  0  0  0  1  0  0  0  0  0  0
  1  8  1  0  0  0  0
  2 10  1  0  0  0  0
  2  6  1  1  0  0  0
  3  5  2  0  0  0  0
  4  7  1  0  0  0  0
  4  5  1  1  0  0  0
  5  9  1  0  0  0  0
  7 13  1  0  0  0  0
  7 12  1  0  0  0  0
  8  6  1  0  0  0  0
  9 12  1  0  0  0  0
  9  1  1  0  0  0  0
 10 25  1  0  0  0  0
 11 10  1  0  0  0  0
 12  2  1  0  0  0  0
 13 11  1  0  0  0  0
 14 17  1  0  0  0  0
 14 16  1  0  0  0  0
 15 18  1  0  0  0  0
 16 18  1  0  0  0  0
 17 21  1  0  0  0  0
 17 15  1  0  0  0  0
 18  4  1  0  0  0  0
 19 15  1  0  0  0  0
 20 21  1  0  0  0  0
 22 21  2  0  0  0  0
 23 24  1  0  0  0  0
 23 13  1  0  0  0  0
 26 25  1  0  0  0  0
 26 28  1  0  0  0  0
 28 27  2  0  0  0  0
 29 28  1  0  0  0  0
M  END
>  <MODEL>
4

>  <REMARK>
 VINA RESULT:      -7.8      2.584      4.445
  Name = 
  6 active torsions:
  status: ('A' for Active; 'I' for Inactive)
    1  A    between atoms: C_8  and  O_10
    2  A    between atoms: C_9  and  C_22
    3  A    between atoms: O_10  and  C_23
    4  A    between atoms: C_11  and  C_29
    5  A    between atoms: C_20  and  C_23
    6  A    between atoms: C_21  and  S_25
                            x       y       z     vdW  Elec       q    Type
                         _______ _______ _______ _____ _____    ______ ____

>  <TORSDO>
F 6

$$$$
=
 OpenBabel10232410213D

 29 32  0  0  1  0  0  0  0  0999 V2000
  183.2010  179.3510  144.0950 C   0  0  0  0  0  2  0  0  0  0  0  0
  185.9420  178.3720  143.9930 C   0  0  2  0  0  3  0  0  0  0  0  0
  182.6170  177.8520  141.6280 O   0  0  0  0  0  0  0  0  0  0  0  0
  184.8870  178.2470  140.8480 C   0  0  2  0  0  3  0  0  0  0  0  0
  183.7330  178.4160  141.7810 C   0  0  0  0  0  0  0  0  0  0  0  0
  185.2990  178.6750  145.3450 C   0  0  0  0  0  2  0  0  0  0  0  0
  185.9730  179.0970  141.5490 C   0  0  1  0  0  3  0  0  0  0  0  0
  183.7830  178.4780  145.2160 C   0  0  0  0  0  2  0  0  0  0  0  0
  184.0270  179.2440  142.8930 N   0  0  0  0  0  0  0  0  0  0  0  0
  187.4560  178.2440  143.9890 C   0  0  2  0  0  3  0  0  0  0  0  0
  187.8310  177.6590  142.6350 C   0  0  0  0  0  2  0  0  0  0  0  0
  185.4610  179.4080  142.9720 C   0  0  1  0  0  3  0  0  0  0  0  0
  187.4470  178.6110  141.5020 C   0  0  1  0  0  3  0  0  0  0  0  0
  182.5680  179.5400  138.2720 C   0  0  0  0  0  2  0  0  0  0  0  0
  184.2500  177.8170  138.4740 N   0  0  0  0  0  0  0  0  0  0  0  0
  183.2190  179.6530  139.6200 C   0  0  0  0  0  2  0  0  0  0  0  0
  183.0880  178.2380  137.6970 C   0  0  1  0  0  3  0  0  0  0  0  0
  184.4860  178.8400  139.4880 C   0  0  1  0  0  3  0  0  0  0  0  0
  185.3110  177.8450  137.6340 O   0  0  0  0  0  1  0  0  0  0  0  0
  182.5300  175.7190  138.8640 C   0  0  0  0  0  1  0  0  0  0  0  0
  181.8060  176.9710  137.7930 S   0  0  2  0  0  0  0  0  0  0  0  0
  181.8500  176.3140  136.4200 O   0  0  0  0  0  0  0  0  0  0  0  0
  187.8480  178.0220  140.1590 C   0  0  0  0  0  2  0  0  0  0  0  0
  189.3210  177.6640  140.1530 C   0  0  0  0  0  1  0  0  0  0  0  0
  187.9260  177.2900  145.0810 C   0  0  0  0  0  2  0  0  0  0  0  0
  188.7310  177.9770  146.0330 O   0  0  0  0  0  0  0  0  0  0  0  0
  189.8340  176.5390  147.4710 O   0  0  0  0  0  0  0  0  0  0  0  0
  188.9900  177.4600  147.3050 C   0  0  0  0  0  0  0  0  0  0  0  0
  188.2620  178.0080  148.4780 C   0  0  0  0  0  1  0  0  0  0  0  0
  1  8  1  0  0  0  0
  2  6  1  1  0  0  0
  3  5  2  0  0  0  0
  4  7  1  0  0  0  0
  4  5  1  1  0  0  0
  5  9  1  0  0  0  0
  7 12  1  0  0  0  0
  8  6  1  0  0  0  0
  9 12  1  0  0  0  0
  9  1  1  0  0  0  0
 10  2  1  0  0  0  0
 10 25  1  0  0  0  0
 11 10  1  0  0  0  0
 12  2  1  0  0  0  0
 13  7  1  0  0  0  0
 13 11  1  0  0  0  0
 14 16  1  0  0  0  0
 15 18  1  0  0  0  0
 17 21  1  0  0  0  0
 17 14  1  0  0  0  0
 17 15  1  0  0  0  0
 18 16  1  0  0  0  0
 18  4  1  0  0  0  0
 19 15  1  0  0  0  0
 21 20  1  0  0  0  0
 22 21  2  0  0  0  0
 23 13  1  0  0  0  0
 24 23  1  0  0  0  0
 25 26  1  0  0  0  0
 26 28  1  0  0  0  0
 28 27  2  0  0  0  0
 28 29  1  0  0  0  0
M  END
>  <MODEL>
5

>  <REMARK>
 VINA RESULT:      -7.1      1.922      3.708
  Name = 
  6 active torsions:
  status: ('A' for Active; 'I' for Inactive)
    1  A    between atoms: C_8  and  O_10
    2  A    between atoms: C_9  and  C_22
    3  A    between atoms: O_10  and  C_23
    4  A    between atoms: C_11  and  C_29
    5  A    between atoms: C_20  and  C_23
    6  A    between atoms: C_21  and  S_25
                            x       y       z     vdW  Elec       q    Type
                         _______ _______ _______ _____ _____    ______ ____

>  <TORSDO>
F 6

$$$$
=
 OpenBabel10232410213D

 29 32  0  0  1  0  0  0  0  0999 V2000
  188.4860  178.4250  138.8180 C   0  0  0  0  0  2  0  0  0  0  0  0
  186.3240  178.2090  140.7580 C   0  0  2  0  0  3  0  0  0  0  0  0
  189.9130  176.2690  140.2280 O   0  0  0  0  0  0  0  0  0  0  0  0
  188.9980  177.0460  142.3440 C   0  0  2  0  0  3  0  0  0  0  0  0
  189.2550  177.1270  140.8750 C   0  0  0  0  0  0  0  0  0  0  0  0
  186.0130  178.6530  139.3300 C   0  0  0  0  0  2  0  0  0  0  0  0
  188.1160  178.2960  142.5690 C   0  0  1  0  0  3  0  0  0  0  0  0
  187.0610  178.0380  138.3930 C   0  0  0  0  0  2  0  0  0  0  0  0
  188.6460  178.2490  140.2600 N   0  0  0  0  0  0  0  0  0  0  0  0
  185.2460  178.4880  141.7910 C   0  0  2  0  0  3  0  0  0  0  0  0
  185.6390  177.7100  143.0390 C   0  0  0  0  0  2  0  0  0  0  0  0
  187.6740  178.8000  141.1790 C   0  0  1  0  0  3  0  0  0  0  0  0
  186.9640  178.2200  143.6080 C   0  0  1  0  0  3  0  0  0  0  0  0
  191.7480  175.9610  144.5690 C   0  0  0  0  0  2  0  0  0  0  0  0
  190.2420  177.8390  144.3560 N   0  0  0  0  0  0  0  0  0  0  0  0
  190.9300  175.7890  143.3210 C   0  0  0  0  0  2  0  0  0  0  0  0
  191.1130  177.1320  145.2910 C   0  0  1  0  0  3  0  0  0  0  0  0
  190.3490  177.1610  143.0680 C   0  0  1  0  0  3  0  0  0  0  0  0
  190.7680  179.0760  144.1930 O   0  0  0  0  0  1  0  0  0  0  0  0
  189.7390  178.0390  147.5940 C   0  0  0  0  0  1  0  0  0  0  0  0
  190.1420  176.5370  146.6900 S   0  0  2  0  0  0  0  0  0  0  0  0
  191.1760  175.8660  147.5830 O   0  0  0  0  0  0  0  0  0  0  0  0
  187.3310  177.4480  144.8640 C   0  0  0  0  0  2  0  0  0  0  0  0
  186.3520  177.7530  145.9820 C   0  0  0  0  0  1  0  0  0  0  0  0
  183.8880  177.9890  141.3120 C   0  0  0  0  0  2  0  0  0  0  0  0
  182.8800  178.9630  141.5620 O   0  0  0  0  0  0  0  0  0  0  0  0
  180.6910  178.6340  142.2360 O   0  0  0  0  0  0  0  0  0  0  0  0
  181.9030  178.7910  142.5450 C   0  0  0  0  0  0  0  0  0  0  0  0
  182.3000  178.7890  143.9770 C   0  0  0  0  0  1  0  0  0  0  0  0
  1  9  1  0  0  0  0
  2  6  1  6  0  0  0
  2 12  1  0  0  0  0
  2 10  1  0  0  0  0
  3  5  2  0  0  0  0
  4  5  1  6  0  0  0
  4  7  1  0  0  0  0
  4 18  1  0  0  0  0
  7 13  1  0  0  0  0
  8  1  1  0  0  0  0
  8  6  1  0  0  0  0
  9  5  1  0  0  0  0
  9 12  1  0  0  0  0
 10 11  1  0  0  0  0
 11 13  1  0  0  0  0
 12  7  1  0  0  0  0
 13 23  1  0  0  0  0
 14 17  1  0  0  0  0
 15 17  1  0  0  0  0
 16 14  1  0  0  0  0
 17 21  1  0  0  0  0
 18 16  1  0  0  0  0
 18 15  1  0  0  0  0
 19 15  1  0  0  0  0
 21 22  2  0  0  0  0
 21 20  1  0  0  0  0
 23 24  1  0  0  0  0
 25 26  1  0  0  0  0
 25 10  1  0  0  0  0
 26 28  1  0  0  0  0
 27 28  2  0  0  0  0
 28 29  1  0  0  0  0
M  END
>  <MODEL>
6

>  <REMARK>
 VINA RESULT:      -7.1      3.009      7.007
  Name = 
  6 active torsions:
  status: ('A' for Active; 'I' for Inactive)
    1  A    between atoms: C_8  and  O_10
    2  A    between atoms: C_9  and  C_22
    3  A    between atoms: O_10  and  C_23
    4  A    between atoms: C_11  and  C_29
    5  A    between atoms: C_20  and  C_23
    6  A    between atoms: C_21  and  S_25
                            x       y       z     vdW  Elec       q    Type
                         _______ _______ _______ _____ _____    ______ ____

>  <TORSDO>
F 6

$$$$
=
 OpenBabel10232410213D

 29 32  0  0  1  0  0  0  0  0999 V2000
  185.2110  179.1630  141.0800 C   0  0  0  0  0  2  0  0  0  0  0  0
  186.8470  177.9910  143.1860 C   0  0  2  0  0  3  0  0  0  0  0  0
  186.5560  177.4230  139.1210 O   0  0  0  0  0  0  0  0  0  0  0  0
  188.6150  177.5630  140.4090 C   0  0  2  0  0  3  0  0  0  0  0  0
  187.2040  177.9230  140.0800 C   0  0  0  0  0  0  0  0  0  0  0  0
  185.4450  178.4980  143.5150 C   0  0  0  0  0  2  0  0  0  0  0  0
  188.8590  178.4140  141.6780 C   0  0  1  0  0  3  0  0  0  0  0  0
  184.5820  178.3930  142.2500 C   0  0  0  0  0  2  0  0  0  0  0  0
  186.6370  178.8560  140.9840 N   0  0  0  0  0  0  0  0  0  0  0  0
  187.7670  177.7590  144.3720 C   0  0  2  0  0  3  0  0  0  0  0  0
  188.9680  176.9910  143.8380 C   0  0  0  0  0  2  0  0  0  0  0  0
  187.4840  178.9280  142.1540 C   0  0  1  0  0  3  0  0  0  0  0  0
  189.7390  177.8250  142.8140 C   0  0  1  0  0  3  0  0  0  0  0  0
  189.3570  178.7050  136.9680 C   0  0  0  0  0  2  0  0  0  0  0  0
  189.9950  176.8960  138.4390 N   0  0  0  0  0  0  0  0  0  0  0  0
  188.7330  178.9310  138.3150 C   0  0  0  0  0  2  0  0  0  0  0  0
  189.9370  177.3070  137.0390 C   0  0  1  0  0  3  0  0  0  0  0  0
  189.5040  178.0150  139.2380 C   0  0  1  0  0  3  0  0  0  0  0  0
  191.3050  176.7420  138.7450 O   0  0  0  0  0  1  0  0  0  0  0  0
  187.6010  177.2190  135.4410 C   0  0  0  0  0  1  0  0  0  0  0  0
  188.8900  176.1610  136.1170 S   0  0  2  0  0  0  0  0  0  0  0  0
  188.1620  175.3870  137.2070 O   0  0  0  0  0  0  0  0  0  0  0  0
  190.9460  177.0520  142.3060 C   0  0  0  0  0  2  0  0  0  0  0  0
  191.4870  176.1380  143.3890 C   0  0  0  0  0  1  0  0  0  0  0  0
  187.0800  176.9140  145.4380 C   0  0  0  0  0  2  0  0  0  0  0  0
  187.1560  177.5510  146.7090 O   0  0  0  0  0  0  0  0  0  0  0  0
  189.1480  176.5380  147.3020 O   0  0  0  0  0  0  0  0  0  0  0  0
  188.2120  177.3290  147.5950 C   0  0  0  0  0  0  0  0  0  0  0  0
  188.2320  178.0380  148.9000 C   0  0  0  0  0  1  0  0  0  0  0  0
  1  8  1  0  0  0  0
  2  6  1  1  0  0  0
  2 10  1  0  0  0  0
  3  5  2  0  0  0  0
  4  5  1  6  0  0  0
  4  7  1  0  0  0  0
  5  9  1  0  0  0  0
  7 12  1  0  0  0  0
  7 13  1  0  0  0  0
  8  6  1  0  0  0  0
  9  1  1  0  0  0  0
  9 12  1  0  0  0  0
 10 25  1  0  0  0  0
 11 10  1  0  0  0  0
 12  2  1  0  0  0  0
 13 11  1  0  0  0  0
 14 17  1  0  0  0  0
 14 16  1  0  0  0  0
 15 19  1  0  0  0  0
 15 18  1  0  0  0  0
 16 18  1  0  0  0  0
 17 15  1  0  0  0  0
 18  4  1  0  0  0  0
 20 21  1  0  0  0  0
 21 17  1  0  0  0  0
 21 22  2  0  0  0  0
 23 13  1  0  0  0  0
 23 24  1  0  0  0  0
 25 26  1  0  0  0  0
 26 28  1  0  0  0  0
 27 28  2  0  0  0  0
 28 29  1  0  0  0  0
M  END
>  <MODEL>
7

>  <REMARK>
 VINA RESULT:      -7.0      2.332      4.633
  Name = 
  6 active torsions:
  status: ('A' for Active; 'I' for Inactive)
    1  A    between atoms: C_8  and  O_10
    2  A    between atoms: C_9  and  C_22
    3  A    between atoms: O_10  and  C_23
    4  A    between atoms: C_11  and  C_29
    5  A    between atoms: C_20  and  C_23
    6  A    between atoms: C_21  and  S_25
                            x       y       z     vdW  Elec       q    Type
                         _______ _______ _______ _____ _____    ______ ____

>  <TORSDO>
F 6

$$$$
=
 OpenBabel10232410213D

 29 32  0  0  1  0  0  0  0  0999 V2000
  186.9620  177.5080  147.2070 C   0  0  0  0  0  2  0  0  0  0  0  0
  185.4580  178.4050  144.8800 C   0  0  2  0  0  3  0  0  0  0  0  0
  189.3700  178.7870  146.0940 O   0  0  0  0  0  0  0  0  0  0  0  0
  188.6080  178.2660  143.8440 C   0  0  2  0  0  3  0  0  0  0  0  0
  188.5450  178.2120  145.3350 C   0  0  0  0  0  0  0  0  0  0  0  0
  184.7460  178.2440  146.2210 C   0  0  0  0  0  2  0  0  0  0  0  0
  187.3480  177.4570  143.4550 C   0  0  1  0  0  3  0  0  0  0  0  0
  185.7690  178.4660  147.3420 C   0  0  0  0  0  2  0  0  0  0  0  0
  187.4320  177.4830  145.8230 N   0  0  0  0  0  0  0  0  0  0  0  0
  184.5620  178.4940  143.6560 C   0  0  2  0  0  3  0  0  0  0  0  0
  185.4520  178.9420  142.5060 C   0  0  0  0  0  2  0  0  0  0  0  0
  186.5000  177.2910  144.7350 C   0  0  1  0  0  3  0  0  0  0  0  0
  186.5320  177.8990  142.2110 C   0  0  1  0  0  3  0  0  0  0  0  0
  190.9160  175.4110  143.3800 C   0  0  0  0  0  2  0  0  0  0  0  0
  190.9400  177.5900  144.4230 N   0  0  0  0  0  0  0  0  0  0  0  0
  189.6230  176.1090  143.0740 C   0  0  0  0  0  2  0  0  0  0  0  0
  191.5960  176.2860  144.4130 C   0  0  1  0  0  3  0  0  0  0  0  0
  189.9000  177.5590  143.3990 C   0  0  1  0  0  3  0  0  0  0  0  0
  191.8640  178.4930  144.0170 O   0  0  0  0  0  1  0  0  0  0  0  0
  191.6790  176.9110  147.1730 C   0  0  0  0  0  1  0  0  0  0  0  0
  191.4570  175.5270  146.0450 S   0  0  2  0  0  0  0  0  0  0  0  0
  192.7600  174.7530  146.1910 O   0  0  0  0  0  0  0  0  0  0  0  0
  187.3980  178.3520  141.0470 C   0  0  0  0  0  2  0  0  0  0  0  0
  186.5870  178.4030  139.7670 C   0  0  0  0  0  1  0  0  0  0  0  0
  183.4640  179.5320  143.8580 C   0  0  0  0  0  2  0  0  0  0  0  0
  182.4360  179.3690  142.8860 O   0  0  0  0  0  0  0  0  0  0  0  0
  180.3740  180.4080  142.7460 O   0  0  0  0  0  0  0  0  0  0  0  0
  181.0810  179.4730  143.2080 C   0  0  0  0  0  0  0  0  0  0  0  0
  180.4640  178.4620  144.1050 C   0  0  0  0  0  1  0  0  0  0  0  0
  1  8  1  0  0  0  0
  2  6  1  1  0  0  0
  4  5  1  1  0  0  0
  5  9  1  0  0  0  0
  5  3  2  0  0  0  0
  6  8  1  0  0  0  0
  7  4  1  0  0  0  0
  7 12  1  0  0  0  0
  9  1  1  0  0  0  0
 10 25  1  0  0  0  0
 10  2  1  0  0  0  0
 11 10  1  0  0  0  0
 12  2  1  0  0  0  0
 12  9  1  0  0  0  0
 13 11  1  0  0  0  0
 13  7  1  0  0  0  0
 14 17  1  0  0  0  0
 16 14  1  0  0  0  0
 16 18  1  0  0  0  0
 17 15  1  0  0  0  0
 17 21  1  0  0  0  0
 18  4  1  0  0  0  0
 18 15  1  0  0  0  0
 19 15  1  0  0  0  0
 21 22  2  0  0  0  0
 21 20  1  0  0  0  0
 23 13  1  0  0  0  0
 24 23  1  0  0  0  0
 26 28  1  0  0  0  0
 26 25  1  0  0  0  0
 27 28  2  0  0  0  0
 28 29  1  0  0  0  0
M  END
>  <MODEL>
8

>  <REMARK>
 VINA RESULT:      -6.9      3.464      7.041
  Name = 
  6 active torsions:
  status: ('A' for Active; 'I' for Inactive)
    1  A    between atoms: C_8  and  O_10
    2  A    between atoms: C_9  and  C_22
    3  A    between atoms: O_10  and  C_23
    4  A    between atoms: C_11  and  C_29
    5  A    between atoms: C_20  and  C_23
    6  A    between atoms: C_21  and  S_25
                            x       y       z     vdW  Elec       q    Type
                         _______ _______ _______ _____ _____    ______ ____

>  <TORSDO>
F 6

$$$$
=
 OpenBabel10232410213D

 29 32  0  0  1  0  0  0  0  0999 V2000
  188.8130  177.0880  144.8180 C   0  0  0  0  0  2  0  0  0  0  0  0
  186.2560  178.1140  143.8720 C   0  0  2  0  0  3  0  0  0  0  0  0
  190.1870  178.8740  142.9230 O   0  0  0  0  0  0  0  0  0  0  0  0
  188.3520  178.6150  141.3470 C   0  0  2  0  0  3  0  0  0  0  0  0
  189.1060  178.3130  142.6000 C   0  0  0  0  0  0  0  0  0  0  0  0
  186.3880  177.6340  145.3150 C   0  0  0  0  0  2  0  0  0  0  0  0
  187.1140  177.7010  141.5060 C   0  0  1  0  0  3  0  0  0  0  0  0
  187.8450  177.8220  145.7570 C   0  0  0  0  0  2  0  0  0  0  0  0
  188.4630  177.3570  143.4250 N   0  0  0  0  0  0  0  0  0  0  0  0
  184.8390  178.2650  143.3460 C   0  0  2  0  0  3  0  0  0  0  0  0
  184.9500  179.0200  142.0290 C   0  0  0  0  0  2  0  0  0  0  0  0
  187.0990  177.2060  142.9690 C   0  0  1  0  0  3  0  0  0  0  0  0
  185.7390  178.2110  140.9980 C   0  0  1  0  0  3  0  0  0  0  0  0
  189.2640  178.2510  137.7790 C   0  0  0  0  0  2  0  0  0  0  0  0
  188.9460  176.8290  139.7080 N   0  0  0  0  0  0  0  0  0  0  0  0
  188.9990  179.1130  138.9790 C   0  0  0  0  0  2  0  0  0  0  0  0
  188.9880  176.8370  138.2480 C   0  0  1  0  0  3  0  0  0  0  0  0
  189.2260  178.1900  140.1550 C   0  0  1  0  0  3  0  0  0  0  0  0
  189.9800  176.0600  140.1220 O   0  0  0  0  0  1  0  0  0  0  0  0
  187.7960  174.6870  136.8430 C   0  0  0  0  0  1  0  0  0  0  0  0
  187.4020  176.2730  137.5950 S   0  0  2  0  0  0  0  0  0  0  0  0
  187.1710  177.1760  136.3920 O   0  0  0  0  0  0  0  0  0  0  0  0
  185.8220  178.9700  139.6840 C   0  0  0  0  0  2  0  0  0  0  0  0
  184.4380  179.3760  139.2150 C   0  0  0  0  0  1  0  0  0  0  0  0
  183.9840  179.0810  144.3080 C   0  0  0  0  0  2  0  0  0  0  0  0
  182.7070  178.4750  144.4810 O   0  0  0  0  0  0  0  0  0  0  0  0
  181.6480  179.8310  142.9350 O   0  0  0  0  0  0  0  0  0  0  0  0
  181.5700  178.9220  143.8050 C   0  0  0  0  0  0  0  0  0  0  0  0
  180.2500  178.3130  144.1130 C   0  0  0  0  0  1  0  0  0  0  0  0
  1  8  1  0  0  0  0
  2  6  1  1  0  0  0
  4  7  1  0  0  0  0
  4  5  1  1  0  0  0
  5  3  2  0  0  0  0
  5  9  1  0  0  0  0
  6  8  1  0  0  0  0
  7 12  1  0  0  0  0
  9  1  1  0  0  0  0
 10  2  1  0  0  0  0
 10 25  1  0  0  0  0
 11 10  1  0  0  0  0
 12  9  1  0  0  0  0
 12  2  1  0  0  0  0
 13  7  1  0  0  0  0
 13 11  1  0  0  0  0
 14 17  1  0  0  0  0
 14 16  1  0  0  0  0
 15 19  1  0  0  0  0
 15 18  1  0  0  0  0
 16 18  1  0  0  0  0
 17 15  1  0  0  0  0
 18  4  1  0  0  0  0
 20 21  1  0  0  0  0
 21 17  1  0  0  0  0
 22 21  2  0  0  0  0
 23 13  1  0  0  0  0
 24 23  1  0  0  0  0
 25 26  1  0  0  0  0
 27 28  2  0  0  0  0
 28 29  1  0  0  0  0
 28 26  1  0  0  0  0
M  END
>  <MODEL>
9

>  <REMARK>
 VINA RESULT:      -6.9      2.564      4.898
  Name = 
  6 active torsions:
  status: ('A' for Active; 'I' for Inactive)
    1  A    between atoms: C_8  and  O_10
    2  A    between atoms: C_9  and  C_22
    3  A    between atoms: O_10  and  C_23
    4  A    between atoms: C_11  and  C_29
    5  A    between atoms: C_20  and  C_23
    6  A    between atoms: C_21  and  S_25
                            x       y       z     vdW  Elec       q    Type
                         _______ _______ _______ _____ _____    ______ ____

>  <TORSDO>
F 6

$$$$
