=
 OpenBabel10232408433D

 30 33  0  0  1  0  0  0  0  0999 V2000
  189.7830  177.2110  137.2110 C   0  0  0  0  0  3  0  0  0  0  0  0
  187.7540  178.3350  140.9370 C   0  0  0  0  0  0  0  0  0  0  0  0
  190.0020  176.7580  138.4110 N   0  0  0  0  0  0  0  0  0  0  0  0
  187.7620  178.6180  137.4370 N   0  0  0  0  0  0  0  0  0  0  0  0
  189.5710  177.2390  142.0870 C   0  0  0  0  0  0  0  0  0  0  0  0
  189.5540  177.3300  139.6490 C   0  0  0  0  0  0  0  0  0  0  0  0
  186.3370  178.8000  140.6850 C   0  0  1  0  0  3  0  0  0  0  0  0
  190.1780  176.8260  143.2280 F   0  0  0  0  0  0  0  0  0  0  0  0
  187.4810  178.4990  138.6960 C   0  0  0  0  0  0  0  0  0  0  0  0
  190.1360  176.8980  140.8480 C   0  0  0  0  0  3  0  0  0  0  0  0
  188.3640  177.9620  142.1500 C   0  0  0  0  0  0  0  0  0  0  0  0
  186.2670  178.8620  139.2530 O   0  0  0  0  0  0  0  0  0  0  0  0
  188.3910  178.1020  139.7370 C   0  0  0  0  0  0  0  0  0  0  0  0
  189.1180  178.5190  136.9080 C   0  0  0  0  0  2  0  0  0  0  0  0
  186.8180  176.1280  143.8300 O   0  0  0  0  0  0  0  0  0  0  0  0
  187.7810  178.2270  143.4320 N   0  0  0  0  0  2  0  0  0  0  0  0
  187.0680  177.2910  144.2480 C   0  0  0  0  0  0  0  0  0  0  0  0
  186.5910  177.7300  145.5990 C   0  0  1  0  0  3  0  0  0  0  0  0
  189.9650  177.2070  147.2900 C   0  0  0  0  0  3  0  0  0  0  0  0
  188.9520  177.1910  146.3250 C   0  0  0  0  0  3  0  0  0  0  0  0
  188.4710  178.3090  148.8450 C   0  0  0  0  0  3  0  0  0  0  0  0
  189.7260  177.7670  148.5490 C   0  0  0  0  0  3  0  0  0  0  0  0
  187.4570  178.2920  147.8800 C   0  0  0  0  0  3  0  0  0  0  0  0
  187.6930  177.7360  146.6170 C   0  0  0  0  0  0  0  0  0  0  0  0
  184.6510  178.7350  145.8970 C   0  0  0  0  0  1  0  0  0  0  0  0
  185.9700  178.9780  145.5210 O   0  0  0  0  0  0  0  0  0  0  0  0
  185.4350  177.8340  141.1510 O   0  0  0  0  0  0  0  0  0  0  0  0
  184.1790  178.4490  141.1380 C   0  0  0  0  0  3  0  0  0  0  0  0
  183.1910  177.5800  140.3820 C   0  0  0  0  0  1  0  0  0  0  0  0
  183.6870  178.6120  142.5590 C   0  0  0  0  0  1  0  0  0  0  0  0
  1  3  2  0  0  0  0
  2 11  1  0  0  0  0
  3  6  1  0  0  0  0
  4  9  2  0  0  0  0
  5 11  2  0  0  0  0
  5  8  1  0  0  0  0
  6 13  1  0  0  0  0
  6 10  2  0  0  0  0
  7  2  1  0  0  0  0
  7 27  1  6  0  0  0
  9 12  1  0  0  0  0
  9 13  1  0  0  0  0
 10  5  1  0  0  0  0
 11 16  1  0  0  0  0
 12  7  1  0  0  0  0
 13  2  2  0  0  0  0
 14  1  1  0  0  0  0
 14  4  1  0  0  0  0
 15 17  2  0  0  0  0
 16 17  1  0  0  0  0
 18 17  1  6  0  0  0
 18 24  1  0  0  0  0
 19 22  1  0  0  0  0
 20 24  1  0  0  0  0
 20 19  2  0  0  0  0
 22 21  2  0  0  0  0
 23 21  1  0  0  0  0
 24 23  2  0  0  0  0
 26 18  1  0  0  0  0
 26 25  1  0  0  0  0
 28 27  1  0  0  0  0
 28 30  1  0  0  0  0
 29 28  1  0  0  0  0
M  END
>  <MODEL>
1

>  <REMARK>
 VINA RESULT:      -7.9      0.000      0.000
  Name = 
  6 active torsions:
  status: ('A' for Active; 'I' for Inactive)
    1  A    between atoms: O_2  and  C_3
    2  A    between atoms: O_2  and  C_14
    3  A    between atoms: N_11  and  C_20
    4  A    between atoms: C_12  and  C_22
    5  A    between atoms: O_19  and  C_22
    6  A    between atoms: C_22  and  C_29
                            x       y       z     vdW  Elec       q    Type
                         _______ _______ _______ _____ _____    ______ ____

>  <TORSDO>
F 6

$$$$
=
 OpenBabel10232408433D

 30 33  0  0  1  0  0  0  0  0999 V2000
  188.0010  177.2010  136.4350 C   0  0  0  0  0  3  0  0  0  0  0  0
  188.1790  178.2650  140.6900 C   0  0  0  0  0  0  0  0  0  0  0  0
  188.8190  176.7500  137.3410 N   0  0  0  0  0  0  0  0  0  0  0  0
  186.3640  178.5580  137.6990 N   0  0  0  0  0  0  0  0  0  0  0  0
  190.3500  177.2090  140.7140 C   0  0  0  0  0  0  0  0  0  0  0  0
  189.0680  177.3070  138.6400 C   0  0  0  0  0  0  0  0  0  0  0  0
  186.8290  178.6960  141.2170 C   0  0  1  0  0  3  0  0  0  0  0  0
  191.4690  176.8080  141.3670 F   0  0  0  0  0  0  0  0  0  0  0  0
  186.7800  178.4290  138.9190 C   0  0  0  0  0  0  0  0  0  0  0  0
  190.1960  176.8850  139.3560 C   0  0  0  0  0  3  0  0  0  0  0  0
  189.3370  177.9030  141.4040 C   0  0  0  0  0  0  0  0  0  0  0  0
  186.0250  178.7600  140.0300 O   0  0  0  0  0  0  0  0  0  0  0  0
  188.1050  178.0510  139.3300 C   0  0  0  0  0  0  0  0  0  0  0  0
  187.2500  178.4940  136.5420 C   0  0  0  0  0  2  0  0  0  0  0  0
  188.8900  176.0370  143.6170 O   0  0  0  0  0  0  0  0  0  0  0  0
  189.5000  178.1490  142.8070 N   0  0  0  0  0  2  0  0  0  0  0  0
  189.3160  177.1980  143.8610 C   0  0  0  0  0  0  0  0  0  0  0  0
  189.6040  177.6200  145.2700 C   0  0  1  0  0  3  0  0  0  0  0  0
  185.9540  178.2550  146.1560 C   0  0  0  0  0  3  0  0  0  0  0  0
  187.1090  177.9980  145.4080 C   0  0  0  0  0  3  0  0  0  0  0  0
  187.2740  178.3100  148.1840 C   0  0  0  0  0  3  0  0  0  0  0  0
  186.0350  178.4100  147.5430 C   0  0  0  0  0  3  0  0  0  0  0  0
  188.4300  178.0540  147.4380 C   0  0  0  0  0  3  0  0  0  0  0  0
  188.3520  177.8940  146.0490 C   0  0  0  0  0  0  0  0  0  0  0  0
  191.6860  176.9110  145.4320 C   0  0  0  0  0  1  0  0  0  0  0  0
  190.4020  176.6710  145.9140 O   0  0  0  0  0  0  0  0  0  0  0  0
  186.3190  177.7070  142.0690 O   0  0  0  0  0  0  0  0  0  0  0  0
  185.1630  178.2530  142.6350 C   0  0  0  0  0  3  0  0  0  0  0  0
  185.3220  179.7560  142.7760 C   0  0  0  0  0  1  0  0  0  0  0  0
  183.9840  177.9770  141.7280 C   0  0  0  0  0  1  0  0  0  0  0  0
  1 14  1  0  0  0  0
  1  3  2  0  0  0  0
  2  7  1  0  0  0  0
  2 11  1  0  0  0  0
  3  6  1  0  0  0  0
  4  9  2  0  0  0  0
  5  8  1  0  0  0  0
  5 11  2  0  0  0  0
  6 13  1  0  0  0  0
  6 10  2  0  0  0  0
  7 27  1  1  0  0  0
  9 13  1  0  0  0  0
  9 12  1  0  0  0  0
 10  5  1  0  0  0  0
 11 16  1  0  0  0  0
 12  7  1  0  0  0  0
 13  2  2  0  0  0  0
 14  4  1  0  0  0  0
 15 17  2  0  0  0  0
 16 17  1  0  0  0  0
 18 17  1  6  0  0  0
 18 26  1  0  0  0  0
 18 24  1  0  0  0  0
 19 22  1  0  0  0  0
 20 24  1  0  0  0  0
 20 19  2  0  0  0  0
 22 21  2  0  0  0  0
 23 21  1  0  0  0  0
 24 23  2  0  0  0  0
 25 26  1  0  0  0  0
 27 28  1  0  0  0  0
 28 29  1  0  0  0  0
 30 28  1  0  0  0  0
M  END
>  <MODEL>
2

>  <REMARK>
 VINA RESULT:      -7.8      1.557      2.520
  Name = 
  6 active torsions:
  status: ('A' for Active; 'I' for Inactive)
    1  A    between atoms: O_2  and  C_3
    2  A    between atoms: O_2  and  C_14
    3  A    between atoms: N_11  and  C_20
    4  A    between atoms: C_12  and  C_22
    5  A    between atoms: O_19  and  C_22
    6  A    between atoms: C_22  and  C_29
                            x       y       z     vdW  Elec       q    Type
                         _______ _______ _______ _____ _____    ______ ____

>  <TORSDO>
F 6

$$$$
=
 OpenBabel10232408433D

 30 33  0  0  1  0  0  0  0  0999 V2000
  188.9800  178.0110  148.1090 C   0  0  0  0  0  3  0  0  0  0  0  0
  188.5800  176.8310  143.9010 C   0  0  0  0  0  0  0  0  0  0  0  0
  189.9140  177.9290  147.2070 N   0  0  0  0  0  0  0  0  0  0  0  0
  186.8760  177.6570  146.8570 N   0  0  0  0  0  0  0  0  0  0  0  0
  190.9830  176.5950  143.8890 C   0  0  0  0  0  0  0  0  0  0  0  0
  189.8360  177.2700  145.9350 C   0  0  0  0  0  0  0  0  0  0  0  0
  187.2050  177.1460  143.3580 C   0  0  1  0  0  3  0  0  0  0  0  0
  192.1470  176.3250  143.2490 F   0  0  0  0  0  0  0  0  0  0  0  0
  187.2990  177.4980  145.6430 C   0  0  0  0  0  0  0  0  0  0  0  0
  191.0190  177.0090  145.2310 C   0  0  0  0  0  3  0  0  0  0  0  0
  189.7580  176.5040  143.2010 C   0  0  0  0  0  0  0  0  0  0  0  0
  186.4840  177.5620  144.5280 O   0  0  0  0  0  0  0  0  0  0  0  0
  188.6270  177.1100  145.2500 C   0  0  0  0  0  0  0  0  0  0  0  0
  187.6640  177.2980  148.0320 C   0  0  0  0  0  2  0  0  0  0  0  0
  190.2680  178.2530  140.9080 O   0  0  0  0  0  0  0  0  0  0  0  0
  189.7690  176.1490  141.8120 N   0  0  0  0  0  2  0  0  0  0  0  0
  190.0670  177.0220  140.7170 C   0  0  0  0  0  0  0  0  0  0  0  0
  190.1020  176.4540  139.3310 C   0  0  1  0  0  3  0  0  0  0  0  0
  188.5340  179.0800  137.0600 C   0  0  0  0  0  3  0  0  0  0  0  0
  189.4330  178.4440  137.9230 C   0  0  0  0  0  3  0  0  0  0  0  0
  187.0730  177.1510  137.1540 C   0  0  0  0  0  3  0  0  0  0  0  0
  187.3560  178.4340  136.6740 C   0  0  0  0  0  3  0  0  0  0  0  0
  187.9710  176.5140  138.0190 C   0  0  0  0  0  3  0  0  0  0  0  0
  189.1550  177.1550  138.4040 C   0  0  0  0  0  0  0  0  0  0  0  0
  191.4800  175.3300  138.0260 C   0  0  0  0  0  1  0  0  0  0  0  0
  191.4050  176.4670  138.8260 O   0  0  0  0  0  0  0  0  0  0  0  0
  187.2880  178.2190  142.4600 O   0  0  0  0  0  0  0  0  0  0  0  0
  186.0240  178.3170  141.8680 C   0  0  0  0  0  3  0  0  0  0  0  0
  185.2310  179.4260  142.5360 C   0  0  0  0  0  1  0  0  0  0  0  0
  186.1840  178.6550  140.4020 C   0  0  0  0  0  1  0  0  0  0  0  0
  2 13  1  0  0  0  0
  3  1  2  0  0  0  0
  4 14  1  0  0  0  0
  5 10  2  0  0  0  0
  6  3  1  0  0  0  0
  7 27  1  6  0  0  0
  7  2  1  0  0  0  0
  7 12  1  0  0  0  0
  8  5  1  0  0  0  0
  9  4  2  0  0  0  0
 10  6  1  0  0  0  0
 11  5  1  0  0  0  0
 11  2  2  0  0  0  0
 12  9  1  0  0  0  0
 13  9  1  0  0  0  0
 13  6  2  0  0  0  0
 14  1  1  0  0  0  0
 16 11  1  0  0  0  0
 17 15  2  0  0  0  0
 17 16  1  0  0  0  0
 18 26  1  6  0  0  0
 18 17  1  0  0  0  0
 19 20  1  0  0  0  0
 20 24  2  0  0  0  0
 21 23  2  0  0  0  0
 22 19  2  0  0  0  0
 22 21  1  0  0  0  0
 23 24  1  0  0  0  0
 24 18  1  0  0  0  0
 25 26  1  0  0  0  0
 28 27  1  0  0  0  0
 28 29  1  0  0  0  0
 30 28  1  0  0  0  0
M  END
>  <MODEL>
3

>  <REMARK>
 VINA RESULT:      -7.6      2.279      7.321
  Name = 
  6 active torsions:
  status: ('A' for Active; 'I' for Inactive)
    1  A    between atoms: O_2  and  C_3
    2  A    between atoms: O_2  and  C_14
    3  A    between atoms: N_11  and  C_20
    4  A    between atoms: C_12  and  C_22
    5  A    between atoms: O_19  and  C_22
    6  A    between atoms: C_22  and  C_29
                            x       y       z     vdW  Elec       q    Type
                         _______ _______ _______ _____ _____    ______ ____

>  <TORSDO>
F 6

$$$$
=
 OpenBabel10232408433D

 30 33  0  0  1  0  0  0  0  0999 V2000
  191.8850  176.9090  146.2460 C   0  0  0  0  0  3  0  0  0  0  0  0
  187.8650  177.2520  144.5190 C   0  0  0  0  0  0  0  0  0  0  0  0
  191.5610  177.1970  145.0190 N   0  0  0  0  0  0  0  0  0  0  0  0
  189.7350  176.9010  147.4690 N   0  0  0  0  0  0  0  0  0  0  0  0
  188.9420  177.1630  142.3600 C   0  0  0  0  0  0  0  0  0  0  0  0
  190.2810  177.0190  144.3950 C   0  0  0  0  0  0  0  0  0  0  0  0
  186.8420  177.6620  145.5540 C   0  0  1  0  0  3  0  0  0  0  0  0
  188.8920  177.1960  141.0050 F   0  0  0  0  0  0  0  0  0  0  0  0
  188.8850  177.1990  146.5380 C   0  0  0  0  0  0  0  0  0  0  0  0
  190.1900  177.0850  142.9980 C   0  0  0  0  0  3  0  0  0  0  0  0
  187.7560  177.2530  143.1150 C   0  0  0  0  0  0  0  0  0  0  0  0
  187.5850  177.6050  146.7810 O   0  0  0  0  0  0  0  0  0  0  0  0
  189.0860  177.0440  145.1220 C   0  0  0  0  0  0  0  0  0  0  0  0
  190.9880  176.1980  147.2130 C   0  0  0  0  0  2  0  0  0  0  0  0
  186.6330  179.6980  141.9610 O   0  0  0  0  0  0  0  0  0  0  0  0
  186.5080  177.4060  142.4270 N   0  0  0  0  0  2  0  0  0  0  0  0
  186.0090  178.6100  141.8340 C   0  0  0  0  0  0  0  0  0  0  0  0
  184.7100  178.5620  141.0890 C   0  0  1  0  0  3  0  0  0  0  0  0
  182.5700  178.9010  144.2230 C   0  0  0  0  0  3  0  0  0  0  0  0
  183.6900  178.7870  143.3910 C   0  0  0  0  0  3  0  0  0  0  0  0
  181.1180  178.8080  142.2880 C   0  0  0  0  0  3  0  0  0  0  0  0
  181.2850  178.9130  143.6720 C   0  0  0  0  0  3  0  0  0  0  0  0
  182.2370  178.6930  141.4550 C   0  0  0  0  0  3  0  0  0  0  0  0
  183.5260  178.6860  142.0010 C   0  0  0  0  0  0  0  0  0  0  0  0
  184.9110  178.8320  138.9090 C   0  0  0  0  0  1  0  0  0  0  0  0
  184.6800  179.5360  140.0890 O   0  0  0  0  0  0  0  0  0  0  0  0
  186.4390  178.9830  145.3190 O   0  0  0  0  0  0  0  0  0  0  0  0
  185.5510  179.2990  146.3530 C   0  0  0  0  0  3  0  0  0  0  0  0
  184.8560  178.0380  146.8340 C   0  0  0  0  0  1  0  0  0  0  0  0
  186.3210  179.8960  147.5090 C   0  0  0  0  0  1  0  0  0  0  0  0
  1 14  1  0  0  0  0
  2 13  1  0  0  0  0
  2  7  1  0  0  0  0
  3  1  2  0  0  0  0
  5 10  2  0  0  0  0
  5 11  1  0  0  0  0
  6  3  1  0  0  0  0
  6 13  2  0  0  0  0
  7 27  1  6  0  0  0
  7 12  1  0  0  0  0
  8  5  1  0  0  0  0
  9 12  1  0  0  0  0
  9  4  2  0  0  0  0
 10  6  1  0  0  0  0
 11  2  2  0  0  0  0
 13  9  1  0  0  0  0
 14  4  1  0  0  0  0
 16 11  1  0  0  0  0
 17 15  2  0  0  0  0
 17 16  1  0  0  0  0
 18 26  1  6  0  0  0
 18 17  1  0  0  0  0
 18 24  1  0  0  0  0
 20 19  2  0  0  0  0
 21 22  2  0  0  0  0
 22 19  1  0  0  0  0
 23 24  2  0  0  0  0
 23 21  1  0  0  0  0
 24 20  1  0  0  0  0
 25 26  1  0  0  0  0
 27 28  1  0  0  0  0
 28 29  1  0  0  0  0
 28 30  1  0  0  0  0
M  END
>  <MODEL>
4

>  <REMARK>
 VINA RESULT:      -7.5      2.539      6.468
  Name = 
  6 active torsions:
  status: ('A' for Active; 'I' for Inactive)
    1  A    between atoms: O_2  and  C_3
    2  A    between atoms: O_2  and  C_14
    3  A    between atoms: N_11  and  C_20
    4  A    between atoms: C_12  and  C_22
    5  A    between atoms: O_19  and  C_22
    6  A    between atoms: C_22  and  C_29
                            x       y       z     vdW  Elec       q    Type
                         _______ _______ _______ _____ _____    ______ ____

>  <TORSDO>
F 6

$$$$
=
 OpenBabel10232408433D

 30 33  0  0  1  0  0  0  0  0999 V2000
  189.3930  177.8180  147.6880 C   0  0  0  0  0  3  0  0  0  0  0  0
  188.2920  177.0950  143.5010 C   0  0  0  0  0  0  0  0  0  0  0  0
  190.1360  177.9530  146.6280 N   0  0  0  0  0  0  0  0  0  0  0  0
  187.1290  177.3610  146.8030 N   0  0  0  0  0  0  0  0  0  0  0  0
  190.6570  177.1510  143.0210 C   0  0  0  0  0  0  0  0  0  0  0  0
  189.8740  177.4410  145.3140 C   0  0  0  0  0  0  0  0  0  0  0  0
  186.8130  177.3040  143.2660 C   0  0  1  0  0  3  0  0  0  0  0  0
  191.6940  177.0980  142.1480 F   0  0  0  0  0  0  0  0  0  0  0  0
  187.3190  177.3960  145.5230 C   0  0  0  0  0  0  0  0  0  0  0  0
  190.9160  177.4080  144.3770 C   0  0  0  0  0  3  0  0  0  0  0  0
  189.3350  176.9950  142.5610 C   0  0  0  0  0  0  0  0  0  0  0  0
  186.2990  177.4920  144.5930 O   0  0  0  0  0  0  0  0  0  0  0  0
  188.5750  177.2190  144.8450 C   0  0  0  0  0  0  0  0  0  0  0  0
  188.1620  176.9660  147.7550 C   0  0  0  0  0  2  0  0  0  0  0  0
  188.9810  179.0560  140.5110 O   0  0  0  0  0  0  0  0  0  0  0  0
  189.1080  176.8070  141.1580 N   0  0  0  0  0  2  0  0  0  0  0  0
  188.9840  177.8400  140.1750 C   0  0  0  0  0  0  0  0  0  0  0  0
  188.8220  177.4510  138.7370 C   0  0  1  0  0  3  0  0  0  0  0  0
  190.5340  174.4130  137.2030 C   0  0  0  0  0  3  0  0  0  0  0  0
  189.5330  175.3010  137.6140 C   0  0  0  0  0  3  0  0  0  0  0  0
  192.2220  175.8770  138.1350 C   0  0  0  0  0  3  0  0  0  0  0  0
  191.8780  174.7010  137.4620 C   0  0  0  0  0  3  0  0  0  0  0  0
  191.2220  176.7660  138.5470 C   0  0  0  0  0  3  0  0  0  0  0  0
  189.8760  176.4840  138.2860 C   0  0  0  0  0  0  0  0  0  0  0  0
  186.9370  177.8860  137.6780 C   0  0  0  0  0  1  0  0  0  0  0  0
  187.5410  176.9440  138.5060 O   0  0  0  0  0  0  0  0  0  0  0  0
  186.6160  178.4750  142.5230 O   0  0  0  0  0  0  0  0  0  0  0  0
  185.3040  178.4050  142.0440 C   0  0  0  0  0  3  0  0  0  0  0  0
  184.3810  179.1900  142.9590 C   0  0  0  0  0  1  0  0  0  0  0  0
  185.2430  179.0150  140.6610 C   0  0  0  0  0  1  0  0  0  0  0  0
  1 14  1  0  0  0  0
  2 13  1  0  0  0  0
  3  1  2  0  0  0  0
  4 14  1  0  0  0  0
  5 10  2  0  0  0  0
  6  3  1  0  0  0  0
  7 27  1  6  0  0  0
  7  2  1  0  0  0  0
  7 12  1  0  0  0  0
  8  5  1  0  0  0  0
  9  4  2  0  0  0  0
 10  6  1  0  0  0  0
 11  5  1  0  0  0  0
 11  2  2  0  0  0  0
 12  9  1  0  0  0  0
 13  6  2  0  0  0  0
 13  9  1  0  0  0  0
 16 11  1  0  0  0  0
 17 15  2  0  0  0  0
 17 16  1  0  0  0  0
 18 26  1  1  0  0  0
 18 17  1  0  0  0  0
 19 22  2  0  0  0  0
 19 20  1  0  0  0  0
 20 24  2  0  0  0  0
 21 23  2  0  0  0  0
 22 21  1  0  0  0  0
 24 23  1  0  0  0  0
 24 18  1  0  0  0  0
 25 26  1  0  0  0  0
 28 27  1  0  0  0  0
 28 29  1  0  0  0  0
 30 28  1  0  0  0  0
M  END
>  <MODEL>
5

>  <REMARK>
 VINA RESULT:      -7.4      2.060      6.986
  Name = 
  6 active torsions:
  status: ('A' for Active; 'I' for Inactive)
    1  A    between atoms: O_2  and  C_3
    2  A    between atoms: O_2  and  C_14
    3  A    between atoms: N_11  and  C_20
    4  A    between atoms: C_12  and  C_22
    5  A    between atoms: O_19  and  C_22
    6  A    between atoms: C_22  and  C_29
                            x       y       z     vdW  Elec       q    Type
                         _______ _______ _______ _____ _____    ______ ____

>  <TORSDO>
F 6

$$$$
=
 OpenBabel10232408433D

 30 33  0  0  1  0  0  0  0  0999 V2000
  180.2600  179.2990  142.2160 C   0  0  0  0  0  3  0  0  0  0  0  0
  184.5020  178.2000  141.9720 C   0  0  0  0  0  0  0  0  0  0  0  0
  181.2430  179.7250  142.9540 N   0  0  0  0  0  0  0  0  0  0  0  0
  181.3520  177.9670  140.4400 N   0  0  0  0  0  0  0  0  0  0  0  0
  184.7400  179.2090  144.1520 C   0  0  0  0  0  0  0  0  0  0  0  0
  182.5540  179.1530  143.0680 C   0  0  0  0  0  0  0  0  0  0  0  0
  184.8970  177.7930  140.5700 C   0  0  1  0  0  3  0  0  0  0  0  0
  185.4990  179.5820  145.2120 F   0  0  0  0  0  0  0  0  0  0  0  0
  182.6070  178.0780  140.7420 C   0  0  0  0  0  0  0  0  0  0  0  0
  183.3770  179.5460  144.1330 C   0  0  0  0  0  3  0  0  0  0  0  0
  185.3260  178.5320  143.0650 C   0  0  0  0  0  0  0  0  0  0  0  0
  183.6390  177.7540  139.8800 O   0  0  0  0  0  0  0  0  0  0  0  0
  183.1440  178.4250  142.0300 C   0  0  0  0  0  0  0  0  0  0  0  0
  180.2830  178.0210  141.4320 C   0  0  0  0  0  2  0  0  0  0  0  0
  186.7550  176.5570  144.6870 O   0  0  0  0  0  0  0  0  0  0  0  0
  186.7350  178.2710  143.0900 N   0  0  0  0  0  2  0  0  0  0  0  0
  187.3970  177.2650  143.8640 C   0  0  0  0  0  0  0  0  0  0  0  0
  188.8760  177.0900  143.7050 C   0  0  1  0  0  3  0  0  0  0  0  0
  189.6240  177.3420  147.4320 C   0  0  0  0  0  3  0  0  0  0  0  0
  188.9410  177.4040  146.2120 C   0  0  0  0  0  3  0  0  0  0  0  0
  191.6010  176.5380  146.2880 C   0  0  0  0  0  3  0  0  0  0  0  0
  190.9530  176.9080  147.4710 C   0  0  0  0  0  3  0  0  0  0  0  0
  190.9190  176.6010  145.0670 C   0  0  0  0  0  3  0  0  0  0  0  0
  189.5870  177.0310  145.0240 C   0  0  0  0  0  0  0  0  0  0  0  0
  189.8850  176.4580  141.8480 C   0  0  0  0  0  1  0  0  0  0  0  0
  189.1590  175.9640  142.9290 O   0  0  0  0  0  0  0  0  0  0  0  0
  185.7060  178.7860  140.0020 O   0  0  0  0  0  0  0  0  0  0  0  0
  186.6130  178.1110  139.1790 C   0  0  0  0  0  3  0  0  0  0  0  0
  186.4050  178.5320  137.7350 C   0  0  0  0  0  1  0  0  0  0  0  0
  188.0240  178.4730  139.5870 C   0  0  0  0  0  1  0  0  0  0  0  0
  1  3  2  0  0  0  0
  2 13  2  0  0  0  0
  2 11  1  0  0  0  0
  3  6  1  0  0  0  0
  4  9  2  0  0  0  0
  4 14  1  0  0  0  0
  5  8  1  0  0  0  0
  6 10  2  0  0  0  0
  7 27  1  6  0  0  0
  7  2  1  0  0  0  0
  9 13  1  0  0  0  0
 10  5  1  0  0  0  0
 11 16  1  0  0  0  0
 11  5  2  0  0  0  0
 12  7  1  0  0  0  0
 12  9  1  0  0  0  0
 13  6  1  0  0  0  0
 14  1  1  0  0  0  0
 16 17  1  0  0  0  0
 17 15  2  0  0  0  0
 18 26  1  1  0  0  0
 18 17  1  0  0  0  0
 18 24  1  0  0  0  0
 19 22  1  0  0  0  0
 20 19  2  0  0  0  0
 21 22  2  0  0  0  0
 23 21  1  0  0  0  0
 24 23  2  0  0  0  0
 24 20  1  0  0  0  0
 25 26  1  0  0  0  0
 28 30  1  0  0  0  0
 28 27  1  0  0  0  0
 29 28  1  0  0  0  0
M  END
>  <MODEL>
6

>  <REMARK>
 VINA RESULT:      -7.1      2.590      5.353
  Name = 
  6 active torsions:
  status: ('A' for Active; 'I' for Inactive)
    1  A    between atoms: O_2  and  C_3
    2  A    between atoms: O_2  and  C_14
    3  A    between atoms: N_11  and  C_20
    4  A    between atoms: C_12  and  C_22
    5  A    between atoms: O_19  and  C_22
    6  A    between atoms: C_22  and  C_29
                            x       y       z     vdW  Elec       q    Type
                         _______ _______ _______ _____ _____    ______ ____

>  <TORSDO>
F 6

$$$$
=
 OpenBabel10232408433D

 30 33  0  0  1  0  0  0  0  0999 V2000
  191.6340  177.3010  145.5830 C   0  0  0  0  0  3  0  0  0  0  0  0
  187.4320  177.4910  144.3300 C   0  0  0  0  0  0  0  0  0  0  0  0
  191.1590  177.6120  144.4120 N   0  0  0  0  0  0  0  0  0  0  0  0
  189.6390  177.1390  147.0370 N   0  0  0  0  0  0  0  0  0  0  0  0
  188.2610  177.5320  142.0630 C   0  0  0  0  0  0  0  0  0  0  0  0
  189.8270  177.3890  143.9290 C   0  0  0  0  0  0  0  0  0  0  0  0
  186.5150  177.8120  145.4880 C   0  0  1  0  0  3  0  0  0  0  0  0
  188.0560  177.6080  140.7240 F   0  0  0  0  0  0  0  0  0  0  0  0
  188.6760  177.4230  146.2190 C   0  0  0  0  0  0  0  0  0  0  0  0
  189.5760  177.4970  142.5540 C   0  0  0  0  0  3  0  0  0  0  0  0
  187.1650  177.5340  142.9480 C   0  0  0  0  0  0  0  0  0  0  0  0
  187.3940  177.7520  146.6220 O   0  0  0  0  0  0  0  0  0  0  0  0
  188.7230  177.3270  144.7850 C   0  0  0  0  0  0  0  0  0  0  0  0
  190.8870  176.5110  146.6160 C   0  0  0  0  0  2  0  0  0  0  0  0
  185.8560  179.9280  141.8850 O   0  0  0  0  0  0  0  0  0  0  0  0
  185.8410  177.6450  142.4100 N   0  0  0  0  0  2  0  0  0  0  0  0
  185.2480  178.8240  141.8560 C   0  0  0  0  0  0  0  0  0  0  0  0
  183.8710  178.7320  141.2720 C   0  0  1  0  0  3  0  0  0  0  0  0
  184.6350  177.7170  137.6800 C   0  0  0  0  0  3  0  0  0  0  0  0
  184.6660  178.4140  138.8930 C   0  0  0  0  0  3  0  0  0  0  0  0
  182.9890  176.1940  138.5920 C   0  0  0  0  0  3  0  0  0  0  0  0
  183.7990  176.6070  137.5290 C   0  0  0  0  0  3  0  0  0  0  0  0
  183.0170  176.8910  139.8050 C   0  0  0  0  0  3  0  0  0  0  0  0
  183.8570  178.0000  139.9620 C   0  0  0  0  0  0  0  0  0  0  0  0
  181.8580  178.9650  142.1410 C   0  0  0  0  0  1  0  0  0  0  0  0
  182.9870  178.1510  142.1840 O   0  0  0  0  0  0  0  0  0  0  0  0
  186.0240  179.1180  145.3520 O   0  0  0  0  0  0  0  0  0  0  0  0
  184.8290  179.1520  146.0770 C   0  0  0  0  0  3  0  0  0  0  0  0
  183.6560  178.9300  145.1400 C   0  0  0  0  0  1  0  0  0  0  0  0
  184.8370  178.0450  147.1080 C   0  0  0  0  0  1  0  0  0  0  0  0
  1 14  1  0  0  0  0
  2 13  1  0  0  0  0
  2  7  1  0  0  0  0
  3  1  2  0  0  0  0
  5 10  2  0  0  0  0
  5 11  1  0  0  0  0
  6  3  1  0  0  0  0
  6 13  2  0  0  0  0
  7 27  1  6  0  0  0
  7 12  1  0  0  0  0
  8  5  1  0  0  0  0
  9 12  1  0  0  0  0
  9  4  2  0  0  0  0
 10  6  1  0  0  0  0
 11  2  2  0  0  0  0
 13  9  1  0  0  0  0
 14  4  1  0  0  0  0
 16 11  1  0  0  0  0
 17 15  2  0  0  0  0
 17 16  1  0  0  0  0
 18 17  1  1  0  0  0
 18 26  1  0  0  0  0
 19 20  1  0  0  0  0
 20 24  2  0  0  0  0
 21 23  2  0  0  0  0
 22 19  2  0  0  0  0
 22 21  1  0  0  0  0
 23 24  1  0  0  0  0
 24 18  1  0  0  0  0
 25 26  1  0  0  0  0
 27 28  1  0  0  0  0
 28 30  1  0  0  0  0
 29 28  1  0  0  0  0
M  END
>  <MODEL>
7

>  <REMARK>
 VINA RESULT:      -7.1      2.628      6.743
  Name = 
  6 active torsions:
  status: ('A' for Active; 'I' for Inactive)
    1  A    between atoms: O_2  and  C_3
    2  A    between atoms: O_2  and  C_14
    3  A    between atoms: N_11  and  C_20
    4  A    between atoms: C_12  and  C_22
    5  A    between atoms: O_19  and  C_22
    6  A    between atoms: C_22  and  C_29
                            x       y       z     vdW  Elec       q    Type
                         _______ _______ _______ _____ _____    ______ ____

>  <TORSDO>
F 6

$$$$
=
 OpenBabel10232408433D

 30 33  0  0  1  0  0  0  0  0999 V2000
  182.2570  178.6950  138.8210 C   0  0  0  0  0  3  0  0  0  0  0  0
  186.4010  178.2130  140.1840 C   0  0  0  0  0  0  0  0  0  0  0  0
  182.8060  179.1680  139.9020 N   0  0  0  0  0  0  0  0  0  0  0  0
  184.1400  177.7240  137.5440 N   0  0  0  0  0  0  0  0  0  0  0  0
  185.6340  179.0020  142.3330 C   0  0  0  0  0  0  0  0  0  0  0  0
  184.0550  178.7690  140.4870 C   0  0  0  0  0  0  0  0  0  0  0  0
  187.3540  178.0180  139.0260 C   0  0  1  0  0  3  0  0  0  0  0  0
  185.8670  179.3560  143.6210 F   0  0  0  0  0  0  0  0  0  0  0  0
  185.1530  177.9710  138.3120 C   0  0  0  0  0  0  0  0  0  0  0  0
  184.3410  179.1520  141.8040 C   0  0  0  0  0  3  0  0  0  0  0  0
  186.6880  178.5320  141.5250 C   0  0  0  0  0  0  0  0  0  0  0  0
  186.4710  177.8850  137.9020 O   0  0  0  0  0  0  0  0  0  0  0  0
  185.1030  178.2450  139.7230 C   0  0  0  0  0  0  0  0  0  0  0  0
  182.7850  177.5250  138.0470 C   0  0  0  0  0  2  0  0  0  0  0  0
  187.8980  176.3120  143.0030 O   0  0  0  0  0  0  0  0  0  0  0  0
  188.0080  178.4630  142.0810 N   0  0  0  0  0  2  0  0  0  0  0  0
  188.5830  177.3420  142.7600 C   0  0  0  0  0  0  0  0  0  0  0  0
  190.0100  177.4270  143.2100 C   0  0  1  0  0  3  0  0  0  0  0  0
  191.4200  176.4810  146.6200 C   0  0  0  0  0  3  0  0  0  0  0  0
  191.3100  176.6560  145.2360 C   0  0  0  0  0  3  0  0  0  0  0  0
  189.2220  177.4500  146.9220 C   0  0  0  0  0  3  0  0  0  0  0  0
  190.3780  176.8790  147.4630 C   0  0  0  0  0  3  0  0  0  0  0  0
  189.1100  177.6240  145.5380 C   0  0  0  0  0  3  0  0  0  0  0  0
  190.1520  177.2310  144.6900 C   0  0  0  0  0  0  0  0  0  0  0  0
  191.6220  177.3220  141.7080 C   0  0  0  0  0  1  0  0  0  0  0  0
  190.8050  176.5220  142.5030 O   0  0  0  0  0  0  0  0  0  0  0  0
  188.1390  179.1670  138.8640 O   0  0  0  0  0  0  0  0  0  0  0  0
  189.3640  178.7210  138.3570 C   0  0  0  0  0  3  0  0  0  0  0  0
  189.6310  177.3050  138.8340 C   0  0  0  0  0  1  0  0  0  0  0  0
  189.3080  178.7170  136.8450 C   0  0  0  0  0  1  0  0  0  0  0  0
  1  3  2  0  0  0  0
  2 11  1  0  0  0  0
  3  6  1  0  0  0  0
  4 14  1  0  0  0  0
  4  9  2  0  0  0  0
  5  8  1  0  0  0  0
  6 10  2  0  0  0  0
  7 27  1  6  0  0  0
  7  2  1  0  0  0  0
  9 13  1  0  0  0  0
 10  5  1  0  0  0  0
 11 16  1  0  0  0  0
 11  5  2  0  0  0  0
 12  9  1  0  0  0  0
 12  7  1  0  0  0  0
 13  2  2  0  0  0  0
 13  6  1  0  0  0  0
 14  1  1  0  0  0  0
 16 17  1  0  0  0  0
 17 15  2  0  0  0  0
 17 18  1  0  0  0  0
 18 26  1  6  0  0  0
 18 24  1  0  0  0  0
 19 22  1  0  0  0  0
 20 19  2  0  0  0  0
 21 22  2  0  0  0  0
 23 21  1  0  0  0  0
 24 20  1  0  0  0  0
 24 23  2  0  0  0  0
 25 26  1  0  0  0  0
 28 29  1  0  0  0  0
 28 27  1  0  0  0  0
 30 28  1  0  0  0  0
M  END
>  <MODEL>
8

>  <REMARK>
 VINA RESULT:      -7.0      2.249      4.654
  Name = 
  6 active torsions:
  status: ('A' for Active; 'I' for Inactive)
    1  A    between atoms: O_2  and  C_3
    2  A    between atoms: O_2  and  C_14
    3  A    between atoms: N_11  and  C_20
    4  A    between atoms: C_12  and  C_22
    5  A    between atoms: O_19  and  C_22
    6  A    between atoms: C_22  and  C_29
                            x       y       z     vdW  Elec       q    Type
                         _______ _______ _______ _____ _____    ______ ____

>  <TORSDO>
F 6

$$$$
=
 OpenBabel10232408433D

 30 33  0  0  1  0  0  0  0  0999 V2000
  179.9820  179.2750  137.4960 C   0  0  0  0  0  3  0  0  0  0  0  0
  183.6000  177.9540  139.6000 C   0  0  0  0  0  0  0  0  0  0  0  0
  180.3650  179.5790  138.7010 N   0  0  0  0  0  0  0  0  0  0  0  0
  181.8940  178.0340  136.5330 N   0  0  0  0  0  0  0  0  0  0  0  0
  182.5460  178.7610  141.6170 C   0  0  0  0  0  0  0  0  0  0  0  0
  181.3750  178.9240  139.4830 C   0  0  0  0  0  0  0  0  0  0  0  0
  184.7260  177.6430  138.6400 C   0  0  1  0  0  3  0  0  0  0  0  0
  182.5610  178.9990  142.9520 F   0  0  0  0  0  0  0  0  0  0  0  0
  182.7500  178.0470  137.5050 C   0  0  0  0  0  0  0  0  0  0  0  0
  181.4400  179.1780  140.8590 C   0  0  0  0  0  3  0  0  0  0  0  0
  183.6490  178.1440  140.9950 C   0  0  0  0  0  0  0  0  0  0  0  0
  184.0900  177.7370  137.3570 O   0  0  0  0  0  0  0  0  0  0  0  0
  182.4530  178.2530  138.8970 C   0  0  0  0  0  0  0  0  0  0  0  0
  180.4500  178.0680  136.7390 C   0  0  0  0  0  2  0  0  0  0  0  0
  185.8350  179.8970  141.8460 O   0  0  0  0  0  0  0  0  0  0  0  0
  184.7900  177.8010  141.7910 N   0  0  0  0  0  2  0  0  0  0  0  0
  185.8190  178.6960  142.2280 C   0  0  0  0  0  0  0  0  0  0  0  0
  186.9010  178.1690  143.1200 C   0  0  1  0  0  3  0  0  0  0  0  0
  187.0850  177.9960  146.9220 C   0  0  0  0  0  3  0  0  0  0  0  0
  187.4560  177.9240  145.5740 C   0  0  0  0  0  3  0  0  0  0  0  0
  184.8580  178.6920  146.2750 C   0  0  0  0  0  3  0  0  0  0  0  0
  185.7870  178.3810  147.2730 C   0  0  0  0  0  3  0  0  0  0  0  0
  185.2280  178.6200  144.9270 C   0  0  0  0  0  3  0  0  0  0  0  0
  186.5270  178.2390  144.5710 C   0  0  0  0  0  0  0  0  0  0  0  0
  188.6200  176.9360  142.4960 C   0  0  0  0  0  1  0  0  0  0  0  0
  187.2530  176.8680  142.7530 O   0  0  0  0  0  0  0  0  0  0  0  0
  185.7150  178.6320  138.7390 O   0  0  0  0  0  0  0  0  0  0  0  0
  186.8940  178.0360  138.2800 C   0  0  0  0  0  3  0  0  0  0  0  0
  187.2890  178.6450  136.9470 C   0  0  0  0  0  1  0  0  0  0  0  0
  188.0040  178.2930  139.2750 C   0  0  0  0  0  1  0  0  0  0  0  0
  1  3  2  0  0  0  0
  2 11  1  0  0  0  0
  3  6  1  0  0  0  0
  4 14  1  0  0  0  0
  4  9  2  0  0  0  0
  5  8  1  0  0  0  0
  6 10  2  0  0  0  0
  7 27  1  6  0  0  0
  7  2  1  0  0  0  0
  9 13  1  0  0  0  0
 10  5  1  0  0  0  0
 11  5  2  0  0  0  0
 11 16  1  0  0  0  0
 12  9  1  0  0  0  0
 12  7  1  0  0  0  0
 13  6  1  0  0  0  0
 13  2  2  0  0  0  0
 14  1  1  0  0  0  0
 15 17  2  0  0  0  0
 16 17  1  0  0  0  0
 18 17  1  6  0  0  0
 18 24  1  0  0  0  0
 19 22  1  0  0  0  0
 20 19  2  0  0  0  0
 21 22  2  0  0  0  0
 23 21  1  0  0  0  0
 24 23  2  0  0  0  0
 24 20  1  0  0  0  0
 25 26  1  0  0  0  0
 26 18  1  0  0  0  0
 28 27  1  0  0  0  0
 28 30  1  0  0  0  0
 29 28  1  0  0  0  0
M  END
>  <MODEL>
9

>  <REMARK>
 VINA RESULT:      -6.9      3.038      5.591
  Name = 
  6 active torsions:
  status: ('A' for Active; 'I' for Inactive)
    1  A    between atoms: O_2  and  C_3
    2  A    between atoms: O_2  and  C_14
    3  A    between atoms: N_11  and  C_20
    4  A    between atoms: C_12  and  C_22
    5  A    between atoms: O_19  and  C_22
    6  A    between atoms: C_22  and  C_29
                            x       y       z     vdW  Elec       q    Type
                         _______ _______ _______ _____ _____    ______ ____

>  <TORSDO>
F 6

$$$$
