=
 OpenBabel10232410303D

 43 43  0  0  1  0  0  0  0  0999 V2000
  189.5680  177.8370  143.5600 C   0  0  1  0  0  3  0  0  0  0  0  0
  191.7500  177.1240  142.8890 O   0  0  0  0  0  0  0  0  0  0  0  0
  190.5620  177.3660  142.5440 C   0  0  0  0  0  0  0  0  0  0  0  0
  190.1630  177.2090  141.1390 C   0  0  0  0  0  0  0  0  0  0  0  0
  188.9840  177.4760  140.7820 O   0  0  0  0  0  0  0  0  0  0  0  0
  191.1150  176.7560  140.1760 N   0  0  0  0  0  2  0  0  0  0  0  0
  192.4540  176.0830  135.8070 O   0  0  0  0  0  0  0  0  0  0  0  0
  191.6660  176.4320  137.9140 C   0  0  0  0  0  0  0  0  0  0  0  0
  191.3770  176.2840  136.5870 O   0  0  0  0  0  0  0  0  0  0  0  0
  193.5760  176.2450  136.6700 C   0  0  1  0  0  3  0  0  0  0  0  0
  193.1050  176.3660  138.1240 C   0  0  0  0  0  2  0  0  0  0  0  0
  190.7660  176.6070  138.8270 N   0  0  0  0  0  0  0  0  0  0  0  0
  194.5390  175.0710  136.5120 C   0  0  2  0  0  3  0  0  0  0  0  0
  194.9740  174.6380  137.7680 O   0  0  0  0  0  1  0  0  0  0  0  0
  195.7430  175.4880  135.6840 C   0  0  0  0  0  2  0  0  0  0  0  0
  197.9240  175.3430  135.3900 C   0  0  0  0  0  1  0  0  0  0  0  0
  196.8600  174.7410  136.0590 O   0  0  0  0  0  0  0  0  0  0  0  0
  188.5100  176.7670  143.8010 C   0  0  0  0  0  2  0  0  0  0  0  0
  187.1650  177.3330  143.6740 C   0  0  0  0  0  0  0  0  0  0  0  0
  186.0580  177.8020  143.5700 C   0  0  0  0  0  0  0  0  0  0  0  0
  184.7140  178.3760  143.4510 C   0  0  0  0  0  2  0  0  0  0  0  0
  183.0970  178.4060  141.6040 C   0  0  0  0  0  3  0  0  0  0  0  0
  185.4220  179.0980  141.0870 C   0  0  0  0  0  1  0  0  0  0  0  0
  184.3580  178.6050  142.0160 C   0  0  0  0  0  0  0  0  0  0  0  0
  182.6370  178.6420  140.1950 C   0  0  0  0  0  2  0  0  0  0  0  0
  182.6570  176.2610  140.1970 O   0  0  0  0  0  1  0  0  0  0  0  0
  182.0560  177.3690  139.5940 C   0  0  2  0  0  3  0  0  0  0  0  0
  182.2910  177.3370  138.0850 C   0  0  1  0  0  3  0  0  0  0  0  0
  182.4500  178.6940  137.5780 N   0  0  0  0  0  2  0  0  0  0  0  0
  181.3590  178.9310  136.6490 C   0  0  0  0  0  1  0  0  0  0  0  0
  183.5450  176.5330  137.7700 C   0  0  0  0  0  2  0  0  0  0  0  0
  184.7360  177.4570  137.5890 C   0  0  0  0  0  2  0  0  0  0  0  0
  185.6860  176.9030  136.5350 C   0  0  0  0  0  2  0  0  0  0  0  0
  187.3530  178.4300  135.7200 O   0  0  0  0  0  1  0  0  0  0  0  0
  187.1060  177.4460  136.6770 C   0  0  0  0  0  3  0  0  0  0  0  0
  187.3140  177.9660  137.9550 O   0  0  0  0  0  1  0  0  0  0  0  0
  190.2910  178.2100  144.8510 C   0  0  0  0  0  2  0  0  0  0  0  0
  190.1910  177.1000  145.8910 C   0  0  0  0  0  2  0  0  0  0  0  0
  189.6910  177.6310  147.2250 C   0  0  0  0  0  2  0  0  0  0  0  0
  188.3670  176.9830  147.5960 C   0  0  0  0  0  2  0  0  0  0  0  0
  187.4160  178.0200  148.1700 C   0  0  0  0  0  2  0  0  0  0  0  0
  185.2270  178.3520  147.0650 C   0  0  0  0  0  1  0  0  0  0  0  0
  186.6900  178.7470  147.0530 C   0  0  0  0  0  2  0  0  0  0  0  0
  1 18  1  1  0  0  0
  1 37  1  0  0  0  0
  3  2  2  0  0  0  0
  3  1  1  0  0  0  0
  4  3  1  0  0  0  0
  5  4  2  0  0  0  0
  6  4  1  0  0  0  0
  7  9  1  0  0  0  0
  7 10  1  0  0  0  0
  8 11  1  0  0  0  0
  8 12  2  0  0  0  0
  9  8  1  0  0  0  0
 10 13  1  1  0  0  0
 10 11  1  0  0  0  0
 12  6  1  0  0  0  0
 13 14  1  1  0  0  0
 15 17  1  0  0  0  0
 15 13  1  0  0  0  0
 16 17  1  0  0  0  0
 19 18  1  0  0  0  0
 20 19  3  0  0  0  0
 21 20  1  0  0  0  0
 22 24  2  0  0  0  0
 23 24  1  0  0  0  0
 24 21  1  0  0  0  0
 25 22  1  0  0  0  0
 27 25  1  0  0  0  0
 27 26  1  1  0  0  0
 28 31  1  1  0  0  0
 28 27  1  0  0  0  0
 29 28  1  0  0  0  0
 30 29  1  0  0  0  0
 32 31  1  0  0  0  0
 33 35  1  0  0  0  0
 33 32  1  0  0  0  0
 34 35  1  0  0  0  0
 35 36  1  0  0  0  0
 37 38  1  0  0  0  0
 38 39  1  0  0  0  0
 39 40  1  0  0  0  0
 40 41  1  0  0  0  0
 43 42  1  0  0  0  0
 43 41  1  0  0  0  0
M  END
>  <MODEL>
1

>  <REMARK>
 VINA RESULT:      -6.2      0.000      0.000
  Name = 
  24 active torsions:
  status: ('A' for Active; 'I' for Inactive)
    1  A    between atoms: C_1  and  N_12
    2  A    between atoms: C_1  and  C_21
    3  A    between atoms: C_1  and  C_40
    4  A    between atoms: C_4  and  C_13
    5  A    between atoms: C_4  and  C_36
    6  A    between atoms: C_5  and  C_16
    7  A    between atoms: C_5  and  C_27
    8  A    between atoms: C_6  and  C_21
    9  A    between atoms: C_6  and  C_24
   10  A    between atoms: C_7  and  C_15
   11  A    between atoms: C_7  and  C_22
   12  A    between atoms: C_11  and  C_32
   13  A    between atoms: C_13  and  C_22
   14  A    between atoms: C_14  and  C_15
   15  A    between atoms: C_14  and  C_32
   16  A    between atoms: C_14  and  C_41
   17  A    between atoms: C_17  and  C_37
   18  A    between atoms: C_17  and  C_39
   19  A    between atoms: C_18  and  C_24
   20  A    between atoms: O_19  and  C_27
   21  A    between atoms: C_26  and  C_29
   22  A    between atoms: C_29  and  C_40
   23  A    between atoms: C_30  and  C_41
   24  A    between atoms: N_38  and  N_43
                            x       y       z     vdW  Elec       q    Type
                         _______ _______ _______ _____ _____    ______ ____

>  <TORSDO>
F 24

$$$$
=
 OpenBabel10232410303D

 43 43  0  0  1  0  0  0  0  0999 V2000
  189.1280  177.6920  143.7180 C   0  0  1  0  0  3  0  0  0  0  0  0
  191.1720  176.6280  143.0780 O   0  0  0  0  0  0  0  0  0  0  0  0
  190.0810  177.1380  142.7050 C   0  0  0  0  0  0  0  0  0  0  0  0
  189.7600  177.2100  141.2730 C   0  0  0  0  0  0  0  0  0  0  0  0
  188.8390  177.9700  140.8690 O   0  0  0  0  0  0  0  0  0  0  0  0
  190.4950  176.4190  140.3390 N   0  0  0  0  0  2  0  0  0  0  0  0
  192.0280  176.1440  135.9920 O   0  0  0  0  0  0  0  0  0  0  0  0
  191.1510  176.3170  138.0850 C   0  0  0  0  0  0  0  0  0  0  0  0
  190.9310  176.3640  136.7370 O   0  0  0  0  0  0  0  0  0  0  0  0
  193.1060  176.0750  136.9220 C   0  0  1  0  0  3  0  0  0  0  0  0
  192.5590  176.0690  138.3550 C   0  0  0  0  0  2  0  0  0  0  0  0
  190.2170  176.4760  138.9660 N   0  0  0  0  0  0  0  0  0  0  0  0
  193.9510  174.8320  136.6630 C   0  0  2  0  0  3  0  0  0  0  0  0
  194.1520  174.1330  137.8570 O   0  0  0  0  0  1  0  0  0  0  0  0
  195.2990  175.2250  136.0820 C   0  0  0  0  0  2  0  0  0  0  0  0
  196.2570  176.8850  134.9890 C   0  0  0  0  0  1  0  0  0  0  0  0
  195.1170  176.0830  134.9970 O   0  0  0  0  0  0  0  0  0  0  0  0
  187.9650  176.7310  143.9320 C   0  0  0  0  0  2  0  0  0  0  0  0
  186.6940  177.3750  143.5900 C   0  0  0  0  0  0  0  0  0  0  0  0
  185.6490  177.9080  143.3090 C   0  0  0  0  0  0  0  0  0  0  0  0
  184.3800  178.5610  142.9720 C   0  0  0  0  0  2  0  0  0  0  0  0
  182.9780  178.4880  140.9580 C   0  0  0  0  0  3  0  0  0  0  0  0
  185.3950  178.9430  140.6410 C   0  0  0  0  0  1  0  0  0  0  0  0
  184.2000  178.6430  141.4890 C   0  0  0  0  0  0  0  0  0  0  0  0
  182.6930  178.5880  139.4880 C   0  0  0  0  0  2  0  0  0  0  0  0
  181.2600  176.8170  140.1840 O   0  0  0  0  0  1  0  0  0  0  0  0
  181.6290  177.5800  139.0730 C   0  0  2  0  0  3  0  0  0  0  0  0
  182.1590  176.6720  137.9650 C   0  0  1  0  0  3  0  0  0  0  0  0
  182.8660  177.4640  136.9680 N   0  0  0  0  0  2  0  0  0  0  0  0
  181.9150  177.7620  135.9110 C   0  0  0  0  0  1  0  0  0  0  0  0
  183.1120  175.6380  138.5510 C   0  0  0  0  0  2  0  0  0  0  0  0
  184.1190  175.1910  137.5060 C   0  0  0  0  0  2  0  0  0  0  0  0
  184.4520  173.7160  137.6840 C   0  0  0  0  0  2  0  0  0  0  0  0
  183.0640  173.3920  135.7480 O   0  0  0  0  0  1  0  0  0  0  0  0
  183.4840  172.7990  136.9390 C   0  0  0  0  0  3  0  0  0  0  0  0
  184.0740  171.5640  136.6710 O   0  0  0  0  0  1  0  0  0  0  0  0
  189.8700  177.9700  145.0230 C   0  0  0  0  0  2  0  0  0  0  0  0
  189.3140  177.1400  146.1740 C   0  0  0  0  0  2  0  0  0  0  0  0
  189.5650  177.8100  147.5150 C   0  0  0  0  0  2  0  0  0  0  0  0
  188.2500  178.1070  148.2190 C   0  0  0  0  0  2  0  0  0  0  0  0
  187.0790  177.6980  147.3410 C   0  0  0  0  0  2  0  0  0  0  0  0
  184.7950  178.4070  146.7070 C   0  0  0  0  0  1  0  0  0  0  0  0
  186.1850  178.8920  147.0630 C   0  0  0  0  0  2  0  0  0  0  0  0
  1 18  1  1  0  0  0
  1 37  1  0  0  0  0
  3  2  2  0  0  0  0
  3  1  1  0  0  0  0
  4  3  1  0  0  0  0
  5  4  2  0  0  0  0
  6  4  1  0  0  0  0
  7  9  1  0  0  0  0
  7 10  1  0  0  0  0
  8 11  1  0  0  0  0
  8 12  2  0  0  0  0
  9  8  1  0  0  0  0
 10 13  1  6  0  0  0
 10 11  1  0  0  0  0
 12  6  1  0  0  0  0
 13 14  1  1  0  0  0
 15 13  1  0  0  0  0
 16 17  1  0  0  0  0
 17 15  1  0  0  0  0
 19 18  1  0  0  0  0
 20 19  3  0  0  0  0
 21 20  1  0  0  0  0
 22 24  2  0  0  0  0
 23 24  1  0  0  0  0
 24 21  1  0  0  0  0
 25 22  1  0  0  0  0
 27 25  1  0  0  0  0
 27 26  1  1  0  0  0
 28 31  1  1  0  0  0
 28 27  1  0  0  0  0
 29 28  1  0  0  0  0
 30 29  1  0  0  0  0
 32 33  1  0  0  0  0
 32 31  1  0  0  0  0
 34 35  1  0  0  0  0
 35 33  1  0  0  0  0
 36 35  1  0  0  0  0
 37 38  1  0  0  0  0
 38 39  1  0  0  0  0
 39 40  1  0  0  0  0
 41 40  1  0  0  0  0
 42 43  1  0  0  0  0
 43 41  1  0  0  0  0
M  END
>  <MODEL>
2

>  <REMARK>
 VINA RESULT:      -6.2      1.670      2.065
  Name = 
  24 active torsions:
  status: ('A' for Active; 'I' for Inactive)
    1  A    between atoms: C_1  and  N_12
    2  A    between atoms: C_1  and  C_21
    3  A    between atoms: C_1  and  C_40
    4  A    between atoms: C_4  and  C_13
    5  A    between atoms: C_4  and  C_36
    6  A    between atoms: C_5  and  C_16
    7  A    between atoms: C_5  and  C_27
    8  A    between atoms: C_6  and  C_21
    9  A    between atoms: C_6  and  C_24
   10  A    between atoms: C_7  and  C_15
   11  A    between atoms: C_7  and  C_22
   12  A    between atoms: C_11  and  C_32
   13  A    between atoms: C_13  and  C_22
   14  A    between atoms: C_14  and  C_15
   15  A    between atoms: C_14  and  C_32
   16  A    between atoms: C_14  and  C_41
   17  A    between atoms: C_17  and  C_37
   18  A    between atoms: C_17  and  C_39
   19  A    between atoms: C_18  and  C_24
   20  A    between atoms: O_19  and  C_27
   21  A    between atoms: C_26  and  C_29
   22  A    between atoms: C_29  and  C_40
   23  A    between atoms: C_30  and  C_41
   24  A    between atoms: N_38  and  N_43
                            x       y       z     vdW  Elec       q    Type
                         _______ _______ _______ _____ _____    ______ ____

>  <TORSDO>
F 24

$$$$
=
 OpenBabel10232410303D

 43 43  0  0  1  0  0  0  0  0999 V2000
  189.4860  177.7160  143.3580 C   0  0  1  0  0  3  0  0  0  0  0  0
  190.0160  175.4850  142.6790 O   0  0  0  0  0  0  0  0  0  0  0  0
  190.2690  176.7150  142.5660 C   0  0  0  0  0  0  0  0  0  0  0  0
  191.3500  177.1600  141.6750 C   0  0  0  0  0  0  0  0  0  0  0  0
  192.2650  177.9060  142.1160 O   0  0  0  0  0  0  0  0  0  0  0  0
  191.3630  176.7420  140.3100 N   0  0  0  0  0  2  0  0  0  0  0  0
  193.6570  176.0930  136.3540 O   0  0  0  0  0  0  0  0  0  0  0  0
  192.6170  176.5100  138.3360 C   0  0  0  0  0  0  0  0  0  0  0  0
  193.6040  176.8600  137.4570 O   0  0  0  0  0  0  0  0  0  0  0  0
  192.7080  175.0530  136.5760 C   0  0  1  0  0  3  0  0  0  0  0  0
  191.8950  175.3470  137.8420 C   0  0  0  0  0  2  0  0  0  0  0  0
  192.3880  177.1430  139.4410 N   0  0  0  0  0  0  0  0  0  0  0  0
  191.7880  174.9080  135.3670 C   0  0  2  0  0  3  0  0  0  0  0  0
  191.8070  176.0830  134.6100 O   0  0  0  0  0  1  0  0  0  0  0  0
  190.3650  174.6290  135.8200 C   0  0  0  0  0  2  0  0  0  0  0  0
  188.7480  173.1510  136.0790 C   0  0  0  0  0  1  0  0  0  0  0  0
  190.0670  173.2770  135.6440 O   0  0  0  0  0  0  0  0  0  0  0  0
  188.0720  177.8400  142.8040 C   0  0  0  0  0  2  0  0  0  0  0  0
  188.1000  177.9890  141.3460 C   0  0  0  0  0  0  0  0  0  0  0  0
  188.1250  178.1130  140.1470 C   0  0  0  0  0  0  0  0  0  0  0  0
  188.1580  178.2710  138.6890 C   0  0  0  0  0  2  0  0  0  0  0  0
  185.7080  178.4060  138.6180 C   0  0  0  0  0  3  0  0  0  0  0  0
  186.8210  177.0540  136.8630 C   0  0  0  0  0  1  0  0  0  0  0  0
  186.8370  177.9170  138.0840 C   0  0  0  0  0  0  0  0  0  0  0  0
  184.3410  178.1350  138.0610 C   0  0  0  0  0  2  0  0  0  0  0  0
  184.0280  180.2710  139.0660 O   0  0  0  0  0  1  0  0  0  0  0  0
  183.3370  179.1660  138.5620 C   0  0  2  0  0  3  0  0  0  0  0  0
  182.4500  178.5610  139.6490 C   0  0  1  0  0  3  0  0  0  0  0  0
  181.5360  177.5910  139.0620 N   0  0  0  0  0  2  0  0  0  0  0  0
  181.8850  176.2930  139.6110 C   0  0  0  0  0  1  0  0  0  0  0  0
  183.3110  177.8680  140.6970 C   0  0  0  0  0  2  0  0  0  0  0  0
  183.3410  178.6810  141.9800 C   0  0  0  0  0  2  0  0  0  0  0  0
  184.5530  178.3020  142.8220 C   0  0  0  0  0  2  0  0  0  0  0  0
  185.1100  179.5190  144.8180 O   0  0  0  0  0  1  0  0  0  0  0  0
  184.3120  178.4900  144.3180 C   0  0  0  0  0  3  0  0  0  0  0  0
  182.9690  178.7640  144.5750 O   0  0  0  0  0  1  0  0  0  0  0  0
  189.4770  177.3120  144.8290 C   0  0  0  0  0  2  0  0  0  0  0  0
  190.8890  177.2160  145.3950 C   0  0  0  0  0  2  0  0  0  0  0  0
  190.8710  176.9460  146.8910 C   0  0  0  0  0  2  0  0  0  0  0  0
  189.4430  176.8550  147.4020 C   0  0  0  0  0  2  0  0  0  0  0  0
  189.1760  177.9520  148.4180 C   0  0  0  0  0  2  0  0  0  0  0  0
  187.0580  177.7570  147.1540 C   0  0  0  0  0  1  0  0  0  0  0  0
  187.8180  178.5840  148.1700 C   0  0  0  0  0  2  0  0  0  0  0  0
  1 18  1  6  0  0  0
  1 37  1  0  0  0  0
  3  2  2  0  0  0  0
  3  1  1  0  0  0  0
  4  5  2  0  0  0  0
  4  3  1  0  0  0  0
  6  4  1  0  0  0  0
  7 10  1  0  0  0  0
  7  9  1  0  0  0  0
  8 12  2  0  0  0  0
  9  8  1  0  0  0  0
 10 13  1  6  0  0  0
 10 11  1  0  0  0  0
 11  8  1  0  0  0  0
 12  6  1  0  0  0  0
 13 14  1  1  0  0  0
 13 15  1  0  0  0  0
 17 15  1  0  0  0  0
 17 16  1  0  0  0  0
 19 18  1  0  0  0  0
 20 19  3  0  0  0  0
 21 20  1  0  0  0  0
 23 24  1  0  0  0  0
 24 22  2  0  0  0  0
 24 21  1  0  0  0  0
 25 27  1  0  0  0  0
 25 22  1  0  0  0  0
 27 26  1  1  0  0  0
 27 28  1  0  0  0  0
 28 31  1  1  0  0  0
 29 30  1  0  0  0  0
 29 28  1  0  0  0  0
 31 32  1  0  0  0  0
 32 33  1  0  0  0  0
 33 35  1  0  0  0  0
 35 36  1  0  0  0  0
 35 34  1  0  0  0  0
 37 38  1  0  0  0  0
 38 39  1  0  0  0  0
 39 40  1  0  0  0  0
 40 41  1  0  0  0  0
 42 43  1  0  0  0  0
 43 41  1  0  0  0  0
M  END
>  <MODEL>
3

>  <REMARK>
 VINA RESULT:      -6.1      2.133      4.107
  Name = 
  24 active torsions:
  status: ('A' for Active; 'I' for Inactive)
    1  A    between atoms: C_1  and  N_12
    2  A    between atoms: C_1  and  C_21
    3  A    between atoms: C_1  and  C_40
    4  A    between atoms: C_4  and  C_13
    5  A    between atoms: C_4  and  C_36
    6  A    between atoms: C_5  and  C_16
    7  A    between atoms: C_5  and  C_27
    8  A    between atoms: C_6  and  C_21
    9  A    between atoms: C_6  and  C_24
   10  A    between atoms: C_7  and  C_15
   11  A    between atoms: C_7  and  C_22
   12  A    between atoms: C_11  and  C_32
   13  A    between atoms: C_13  and  C_22
   14  A    between atoms: C_14  and  C_15
   15  A    between atoms: C_14  and  C_32
   16  A    between atoms: C_14  and  C_41
   17  A    between atoms: C_17  and  C_37
   18  A    between atoms: C_17  and  C_39
   19  A    between atoms: C_18  and  C_24
   20  A    between atoms: O_19  and  C_27
   21  A    between atoms: C_26  and  C_29
   22  A    between atoms: C_29  and  C_40
   23  A    between atoms: C_30  and  C_41
   24  A    between atoms: N_38  and  N_43
                            x       y       z     vdW  Elec       q    Type
                         _______ _______ _______ _____ _____    ______ ____

>  <TORSDO>
F 24

$$$$
=
 OpenBabel10232410303D

 43 43  0  0  1  0  0  0  0  0999 V2000
  185.9630  177.5830  137.7710 C   0  0  1  0  0  3  0  0  0  0  0  0
  187.1830  178.1970  135.8070 O   0  0  0  0  0  0  0  0  0  0  0  0
  187.2010  178.0300  137.0570 C   0  0  0  0  0  0  0  0  0  0  0  0
  188.4450  178.2510  137.8060 C   0  0  0  0  0  0  0  0  0  0  0  0
  188.8470  179.4240  138.0330 O   0  0  0  0  0  0  0  0  0  0  0  0
  189.1980  177.1340  138.2790 N   0  0  0  0  0  2  0  0  0  0  0  0
  193.7330  176.3570  138.6820 O   0  0  0  0  0  0  0  0  0  0  0  0
  191.5010  176.7990  138.6070 C   0  0  0  0  0  0  0  0  0  0  0  0
  192.6820  176.9460  139.2790 O   0  0  0  0  0  0  0  0  0  0  0  0
  193.1840  175.6390  137.5800 C   0  0  1  0  0  3  0  0  0  0  0  0
  191.7010  175.9930  137.4120 C   0  0  0  0  0  2  0  0  0  0  0  0
  190.3840  177.3160  139.0050 N   0  0  0  0  0  0  0  0  0  0  0  0
  193.9610  175.9510  136.3040 C   0  0  2  0  0  3  0  0  0  0  0  0
  193.0770  176.0970  135.2310 O   0  0  0  0  0  1  0  0  0  0  0  0
  194.9380  174.8280  135.9970 C   0  0  0  0  0  2  0  0  0  0  0  0
  195.1780  172.6640  135.6420 C   0  0  0  0  0  1  0  0  0  0  0  0
  194.3410  173.5940  136.2580 O   0  0  0  0  0  0  0  0  0  0  0  0
  185.1760  178.7890  138.2700 C   0  0  0  0  0  2  0  0  0  0  0  0
  184.6780  178.5540  139.6280 C   0  0  0  0  0  0  0  0  0  0  0  0
  184.2720  178.3600  140.7470 C   0  0  0  0  0  0  0  0  0  0  0  0
  183.7830  178.1190  142.1080 C   0  0  0  0  0  2  0  0  0  0  0  0
  185.9540  177.9280  143.2380 C   0  0  0  0  0  3  0  0  0  0  0  0
  184.4610  179.7730  143.9550 C   0  0  0  0  0  1  0  0  0  0  0  0
  184.7830  178.5730  143.1230 C   0  0  0  0  0  0  0  0  0  0  0  0
  187.0330  178.3300  144.2000 C   0  0  0  0  0  2  0  0  0  0  0  0
  185.9320  177.6390  146.1960 O   0  0  0  0  0  1  0  0  0  0  0  0
  187.0590  177.3980  145.4050 C   0  0  2  0  0  3  0  0  0  0  0  0
  188.3310  177.6210  146.2220 C   0  0  1  0  0  3  0  0  0  0  0  0
  188.1130  177.2130  147.6030 N   0  0  0  0  0  2  0  0  0  0  0  0
  188.7760  178.1930  148.4450 C   0  0  0  0  0  1  0  0  0  0  0  0
  189.4760  176.8080  145.6340 C   0  0  0  0  0  2  0  0  0  0  0  0
  190.5080  177.7250  145.0020 C   0  0  0  0  0  2  0  0  0  0  0  0
  191.4400  176.9330  144.0940 C   0  0  0  0  0  2  0  0  0  0  0  0
  190.3840  175.8010  142.2560 O   0  0  0  0  0  1  0  0  0  0  0  0
  191.0200  176.9860  142.6270 C   0  0  0  0  0  3  0  0  0  0  0  0
  190.1760  178.0710  142.3900 O   0  0  0  0  0  1  0  0  0  0  0  0
  185.1220  176.7120  136.8420 C   0  0  0  0  0  2  0  0  0  0  0  0
  185.1550  175.2470  137.2610 C   0  0  0  0  0  2  0  0  0  0  0  0
  183.7550  174.7030  137.4920 C   0  0  0  0  0  2  0  0  0  0  0  0
  182.7420  175.8350  137.5400 C   0  0  0  0  0  2  0  0  0  0  0  0
  182.1320  175.9380  138.9280 C   0  0  0  0  0  2  0  0  0  0  0  0
  180.6560  177.2850  140.3870 C   0  0  0  0  0  1  0  0  0  0  0  0
  181.0480  177.0000  138.9520 C   0  0  0  0  0  2  0  0  0  0  0  0
  1 37  1  6  0  0  0
  1 18  1  0  0  0  0
  2  3  2  0  0  0  0
  3  1  1  0  0  0  0
  3  4  1  0  0  0  0
  4  5  2  0  0  0  0
  4  6  1  0  0  0  0
  6 12  1  0  0  0  0
  7  9  1  0  0  0  0
  8 12  2  0  0  0  0
  8  9  1  0  0  0  0
 10 13  1  6  0  0  0
 10  7  1  0  0  0  0
 11 10  1  0  0  0  0
 11  8  1  0  0  0  0
 13 14  1  6  0  0  0
 15 17  1  0  0  0  0
 15 13  1  0  0  0  0
 16 17  1  0  0  0  0
 18 19  1  0  0  0  0
 19 20  3  0  0  0  0
 20 21  1  0  0  0  0
 21 24  1  0  0  0  0
 22 25  1  0  0  0  0
 24 22  2  0  0  0  0
 24 23  1  0  0  0  0
 25 27  1  0  0  0  0
 27 26  1  1  0  0  0
 27 28  1  0  0  0  0
 28 31  1  6  0  0  0
 28 29  1  0  0  0  0
 29 30  1  0  0  0  0
 32 31  1  0  0  0  0
 33 32  1  0  0  0  0
 34 35  1  0  0  0  0
 35 33  1  0  0  0  0
 36 35  1  0  0  0  0
 37 38  1  0  0  0  0
 38 39  1  0  0  0  0
 39 40  1  0  0  0  0
 40 41  1  0  0  0  0
 41 43  1  0  0  0  0
 43 42  1  0  0  0  0
M  END
>  <MODEL>
4

>  <REMARK>
 VINA RESULT:      -6.1      2.116      6.996
  Name = 
  24 active torsions:
  status: ('A' for Active; 'I' for Inactive)
    1  A    between atoms: C_1  and  N_12
    2  A    between atoms: C_1  and  C_21
    3  A    between atoms: C_1  and  C_40
    4  A    between atoms: C_4  and  C_13
    5  A    between atoms: C_4  and  C_36
    6  A    between atoms: C_5  and  C_16
    7  A    between atoms: C_5  and  C_27
    8  A    between atoms: C_6  and  C_21
    9  A    between atoms: C_6  and  C_24
   10  A    between atoms: C_7  and  C_15
   11  A    between atoms: C_7  and  C_22
   12  A    between atoms: C_11  and  C_32
   13  A    between atoms: C_13  and  C_22
   14  A    between atoms: C_14  and  C_15
   15  A    between atoms: C_14  and  C_32
   16  A    between atoms: C_14  and  C_41
   17  A    between atoms: C_17  and  C_37
   18  A    between atoms: C_17  and  C_39
   19  A    between atoms: C_18  and  C_24
   20  A    between atoms: O_19  and  C_27
   21  A    between atoms: C_26  and  C_29
   22  A    between atoms: C_29  and  C_40
   23  A    between atoms: C_30  and  C_41
   24  A    between atoms: N_38  and  N_43
                            x       y       z     vdW  Elec       q    Type
                         _______ _______ _______ _____ _____    ______ ____

>  <TORSDO>
F 24

$$$$
=
 OpenBabel10232410303D

 43 43  0  0  1  0  0  0  0  0999 V2000
  184.0070  178.6000  144.0220 C   0  0  1  0  0  3  0  0  0  0  0  0
  185.1240  180.6430  143.4710 O   0  0  0  0  0  0  0  0  0  0  0  0
  184.8560  179.4570  143.1340 C   0  0  0  0  0  0  0  0  0  0  0  0
  185.3580  178.9290  141.8590 C   0  0  0  0  0  0  0  0  0  0  0  0
  186.1490  177.9480  141.8480 O   0  0  0  0  0  0  0  0  0  0  0  0
  184.9440  179.5260  140.6300 N   0  0  0  0  0  2  0  0  0  0  0  0
  184.2200  176.8360  136.9460 O   0  0  0  0  0  0  0  0  0  0  0  0
  184.7020  178.1880  138.7130 C   0  0  0  0  0  0  0  0  0  0  0  0
  185.1020  177.6800  137.5090 O   0  0  0  0  0  0  0  0  0  0  0  0
  183.1960  176.6580  137.9230 C   0  0  1  0  0  3  0  0  0  0  0  0
  183.4090  177.6340  139.0860 C   0  0  0  0  0  2  0  0  0  0  0  0
  185.3990  179.0360  139.3970 N   0  0  0  0  0  0  0  0  0  0  0  0
  181.8220  176.8630  137.2920 C   0  0  2  0  0  3  0  0  0  0  0  0
  181.6740  178.1930  136.8910 O   0  0  0  0  0  1  0  0  0  0  0  0
  180.7290  176.5180  138.2910 C   0  0  0  0  0  2  0  0  0  0  0  0
  180.2650  175.1310  139.9410 C   0  0  0  0  0  1  0  0  0  0  0  0
  180.8380  175.1810  138.6720 O   0  0  0  0  0  0  0  0  0  0  0  0
  184.4590  178.7300  145.4710 C   0  0  0  0  0  2  0  0  0  0  0  0
  185.8170  178.2050  145.6380 C   0  0  0  0  0  0  0  0  0  0  0  0
  186.9330  177.7690  145.7730 C   0  0  0  0  0  0  0  0  0  0  0  0
  188.2890  177.2350  145.9360 C   0  0  0  0  0  2  0  0  0  0  0  0
  188.7110  177.5610  143.5400 C   0  0  0  0  0  3  0  0  0  0  0  0
  190.5230  178.1990  145.1070 C   0  0  0  0  0  1  0  0  0  0  0  0
  189.1670  177.6500  144.7980 C   0  0  0  0  0  0  0  0  0  0  0  0
  189.5040  177.9840  142.3380 C   0  0  0  0  0  2  0  0  0  0  0  0
  190.4450  175.8170  142.0440 O   0  0  0  0  0  1  0  0  0  0  0  0
  189.7170  176.8130  141.3880 C   0  0  2  0  0  3  0  0  0  0  0  0
  190.4640  177.2710  140.1360 C   0  0  1  0  0  3  0  0  0  0  0  0
  190.8960  176.1140  139.3640 N   0  0  0  0  0  2  0  0  0  0  0  0
  192.0200  176.5440  138.5500 C   0  0  0  0  0  1  0  0  0  0  0  0
  189.5550  178.1380  139.2750 C   0  0  0  0  0  2  0  0  0  0  0  0
  188.5130  177.2830  138.5750 C   0  0  0  0  0  2  0  0  0  0  0  0
  188.3670  177.7080  137.1200 C   0  0  0  0  0  2  0  0  0  0  0  0
  189.0200  175.4360  136.6810 O   0  0  0  0  0  1  0  0  0  0  0  0
  189.0230  176.7270  136.1510 C   0  0  0  0  0  3  0  0  0  0  0  0
  188.3710  176.7340  134.9170 O   0  0  0  0  0  1  0  0  0  0  0  0
  182.5400  178.9870  143.8570 C   0  0  0  0  0  2  0  0  0  0  0  0
  182.0330  178.6840  142.4520 C   0  0  0  0  0  2  0  0  0  0  0  0
  180.5190  178.5460  142.4240 C   0  0  0  0  0  2  0  0  0  0  0  0
  179.9820  178.8270  141.0300 C   0  0  0  0  0  2  0  0  0  0  0  0
  180.1570  180.2970  140.6850 C   0  0  0  0  0  2  0  0  0  0  0  0
  180.4640  181.7540  138.7090 C   0  0  0  0  0  1  0  0  0  0  0  0
  180.8720  180.4460  139.3550 C   0  0  0  0  0  2  0  0  0  0  0  0
  1 37  1  1  0  0  0
  1 18  1  0  0  0  0
  3  2  2  0  0  0  0
  3  1  1  0  0  0  0
  4  3  1  0  0  0  0
  5  4  2  0  0  0  0
  6  4  1  0  0  0  0
  7  9  1  0  0  0  0
  7 10  1  0  0  0  0
  8 11  1  0  0  0  0
  8 12  2  0  0  0  0
  9  8  1  0  0  0  0
 10 13  1  6  0  0  0
 10 11  1  0  0  0  0
 12  6  1  0  0  0  0
 13 14  1  1  0  0  0
 13 15  1  0  0  0  0
 15 17  1  0  0  0  0
 17 16  1  0  0  0  0
 18 19  1  0  0  0  0
 19 20  3  0  0  0  0
 20 21  1  0  0  0  0
 22 24  2  0  0  0  0
 24 23  1  0  0  0  0
 24 21  1  0  0  0  0
 25 22  1  0  0  0  0
 27 26  1  1  0  0  0
 27 25  1  0  0  0  0
 28 31  1  6  0  0  0
 28 27  1  0  0  0  0
 29 28  1  0  0  0  0
 30 29  1  0  0  0  0
 32 31  1  0  0  0  0
 33 32  1  0  0  0  0
 35 34  1  0  0  0  0
 35 33  1  0  0  0  0
 36 35  1  0  0  0  0
 38 37  1  0  0  0  0
 39 38  1  0  0  0  0
 40 39  1  0  0  0  0
 41 40  1  0  0  0  0
 42 43  1  0  0  0  0
 43 41  1  0  0  0  0
M  END
>  <MODEL>
5

>  <REMARK>
 VINA RESULT:      -6.1      2.671      8.617
  Name = 
  24 active torsions:
  status: ('A' for Active; 'I' for Inactive)
    1  A    between atoms: C_1  and  N_12
    2  A    between atoms: C_1  and  C_21
    3  A    between atoms: C_1  and  C_40
    4  A    between atoms: C_4  and  C_13
    5  A    between atoms: C_4  and  C_36
    6  A    between atoms: C_5  and  C_16
    7  A    between atoms: C_5  and  C_27
    8  A    between atoms: C_6  and  C_21
    9  A    between atoms: C_6  and  C_24
   10  A    between atoms: C_7  and  C_15
   11  A    between atoms: C_7  and  C_22
   12  A    between atoms: C_11  and  C_32
   13  A    between atoms: C_13  and  C_22
   14  A    between atoms: C_14  and  C_15
   15  A    between atoms: C_14  and  C_32
   16  A    between atoms: C_14  and  C_41
   17  A    between atoms: C_17  and  C_37
   18  A    between atoms: C_17  and  C_39
   19  A    between atoms: C_18  and  C_24
   20  A    between atoms: O_19  and  C_27
   21  A    between atoms: C_26  and  C_29
   22  A    between atoms: C_29  and  C_40
   23  A    between atoms: C_30  and  C_41
   24  A    between atoms: N_38  and  N_43
                            x       y       z     vdW  Elec       q    Type
                         _______ _______ _______ _____ _____    ______ ____

>  <TORSDO>
F 24

$$$$
=
 OpenBabel10232410303D

 43 43  0  0  1  0  0  0  0  0999 V2000
  189.0760  177.1370  141.2160 C   0  0  1  0  0  3  0  0  0  0  0  0
  191.3150  177.0440  140.3780 O   0  0  0  0  0  0  0  0  0  0  0  0
  190.5640  177.1580  141.3840 C   0  0  0  0  0  0  0  0  0  0  0  0
  191.1530  177.2850  142.7250 C   0  0  0  0  0  0  0  0  0  0  0  0
  191.6410  178.3850  143.0990 O   0  0  0  0  0  0  0  0  0  0  0  0
  191.1680  176.1600  143.6040 N   0  0  0  0  0  2  0  0  0  0  0  0
  190.7000  177.5110  147.9950 O   0  0  0  0  0  0  0  0  0  0  0  0
  191.0600  176.8110  145.8590 C   0  0  0  0  0  0  0  0  0  0  0  0
  191.5490  176.9290  147.1300 O   0  0  0  0  0  0  0  0  0  0  0  0
  189.5950  177.9410  147.2040 C   0  0  1  0  0  3  0  0  0  0  0  0
  189.7300  177.3950  145.7770 C   0  0  0  0  0  2  0  0  0  0  0  0
  191.7140  176.2550  144.8910 N   0  0  0  0  0  0  0  0  0  0  0  0
  188.2820  177.4860  147.8340 C   0  0  2  0  0  3  0  0  0  0  0  0
  188.3700  176.1400  148.1990 O   0  0  0  0  0  1  0  0  0  0  0  0
  187.1380  177.6630  146.8500 C   0  0  0  0  0  2  0  0  0  0  0  0
  185.0740  178.4010  146.6060 C   0  0  0  0  0  1  0  0  0  0  0  0
  186.2470  178.6260  147.3250 O   0  0  0  0  0  0  0  0  0  0  0  0
  188.3990  176.7930  142.5360 C   0  0  0  0  0  2  0  0  0  0  0  0
  187.2230  177.6410  142.7500 C   0  0  0  0  0  0  0  0  0  0  0  0
  186.2530  178.3370  142.9240 C   0  0  0  0  0  0  0  0  0  0  0  0
  185.0730  179.1820  143.1290 C   0  0  0  0  0  2  0  0  0  0  0  0
  184.0980  178.0410  141.1860 C   0  0  0  0  0  3  0  0  0  0  0  0
  182.5370  178.7980  142.9570 C   0  0  0  0  0  1  0  0  0  0  0  0
  183.9010  178.6570  142.3610 C   0  0  0  0  0  0  0  0  0  0  0  0
  182.9910  177.4520  140.3610 C   0  0  0  0  0  2  0  0  0  0  0  0
  181.3730  178.8060  139.2560 O   0  0  0  0  0  1  0  0  0  0  0  0
  182.6840  178.3330  139.1560 C   0  0  2  0  0  3  0  0  0  0  0  0
  182.8610  177.5440  137.8610 C   0  0  1  0  0  3  0  0  0  0  0  0
  182.1090  178.1770  136.7860 N   0  0  0  0  0  2  0  0  0  0  0  0
  181.1930  177.1780  136.2630 C   0  0  0  0  0  1  0  0  0  0  0  0
  184.3340  177.4910  137.4790 C   0  0  0  0  0  2  0  0  0  0  0  0
  184.7690  176.0570  137.2370 C   0  0  0  0  0  2  0  0  0  0  0  0
  183.7150  175.0860  137.7550 C   0  0  0  0  0  2  0  0  0  0  0  0
  183.9190  173.4200  136.0340 O   0  0  0  0  0  1  0  0  0  0  0  0
  184.0310  173.6340  137.4090 C   0  0  0  0  0  3  0  0  0  0  0  0
  185.3130  173.2870  137.8390 O   0  0  0  0  0  1  0  0  0  0  0  0
  188.6020  178.4860  140.6790 C   0  0  0  0  0  2  0  0  0  0  0  0
  188.5560  178.5000  139.1560 C   0  0  0  0  0  2  0  0  0  0  0  0
  188.1270  177.1510  138.6000 C   0  0  0  0  0  2  0  0  0  0  0  0
  189.0580  176.7150  137.4800 C   0  0  0  0  0  2  0  0  0  0  0  0
  189.2110  177.8290  136.4580 C   0  0  0  0  0  2  0  0  0  0  0  0
  187.1320  178.0590  135.1370 C   0  0  0  0  0  1  0  0  0  0  0  0
  188.5200  177.4540  135.1600 C   0  0  0  0  0  2  0  0  0  0  0  0
  1 37  1  1  0  0  0
  1  3  1  0  0  0  0
  1 18  1  0  0  0  0
  2  3  2  0  0  0  0
  3  4  1  0  0  0  0
  4  5  2  0  0  0  0
  4  6  1  0  0  0  0
  6 12  1  0  0  0  0
  8  9  1  0  0  0  0
  9  7  1  0  0  0  0
 10 13  1  1  0  0  0
 10  7  1  0  0  0  0
 11  8  1  0  0  0  0
 11 10  1  0  0  0  0
 12  8  2  0  0  0  0
 13 14  1  6  0  0  0
 15 17  1  0  0  0  0
 15 13  1  0  0  0  0
 16 17  1  0  0  0  0
 18 19  1  0  0  0  0
 19 20  3  0  0  0  0
 20 21  1  0  0  0  0
 22 24  2  0  0  0  0
 24 23  1  0  0  0  0
 24 21  1  0  0  0  0
 25 22  1  0  0  0  0
 27 26  1  1  0  0  0
 27 25  1  0  0  0  0
 28 31  1  6  0  0  0
 28 27  1  0  0  0  0
 29 28  1  0  0  0  0
 30 29  1  0  0  0  0
 32 31  1  0  0  0  0
 32 33  1  0  0  0  0
 34 35  1  0  0  0  0
 35 33  1  0  0  0  0
 35 36  1  0  0  0  0
 38 37  1  0  0  0  0
 39 38  1  0  0  0  0
 40 39  1  0  0  0  0
 41 40  1  0  0  0  0
 42 43  1  0  0  0  0
 43 41  1  0  0  0  0
M  END
>  <MODEL>
6

>  <REMARK>
 VINA RESULT:      -5.9      3.310      7.646
  Name = 
  24 active torsions:
  status: ('A' for Active; 'I' for Inactive)
    1  A    between atoms: C_1  and  N_12
    2  A    between atoms: C_1  and  C_21
    3  A    between atoms: C_1  and  C_40
    4  A    between atoms: C_4  and  C_13
    5  A    between atoms: C_4  and  C_36
    6  A    between atoms: C_5  and  C_16
    7  A    between atoms: C_5  and  C_27
    8  A    between atoms: C_6  and  C_21
    9  A    between atoms: C_6  and  C_24
   10  A    between atoms: C_7  and  C_15
   11  A    between atoms: C_7  and  C_22
   12  A    between atoms: C_11  and  C_32
   13  A    between atoms: C_13  and  C_22
   14  A    between atoms: C_14  and  C_15
   15  A    between atoms: C_14  and  C_32
   16  A    between atoms: C_14  and  C_41
   17  A    between atoms: C_17  and  C_37
   18  A    between atoms: C_17  and  C_39
   19  A    between atoms: C_18  and  C_24
   20  A    between atoms: O_19  and  C_27
   21  A    between atoms: C_26  and  C_29
   22  A    between atoms: C_29  and  C_40
   23  A    between atoms: C_30  and  C_41
   24  A    between atoms: N_38  and  N_43
                            x       y       z     vdW  Elec       q    Type
                         _______ _______ _______ _____ _____    ______ ____

>  <TORSDO>
F 24

$$$$
=
 OpenBabel10232410303D

 43 43  0  0  1  0  0  0  0  0999 V2000
  190.1290  176.6610  136.3660 C   0  0  1  0  0  3  0  0  0  0  0  0
  188.3180  177.2940  134.9370 O   0  0  0  0  0  0  0  0  0  0  0  0
  188.8620  177.4030  136.0690 C   0  0  0  0  0  0  0  0  0  0  0  0
  188.2640  178.2790  137.0860 C   0  0  0  0  0  0  0  0  0  0  0  0
  188.8080  179.3790  137.3720 O   0  0  0  0  0  0  0  0  0  0  0  0
  187.0630  177.8830  137.7470 N   0  0  0  0  0  2  0  0  0  0  0  0
  183.2080  179.4370  139.7610 O   0  0  0  0  0  0  0  0  0  0  0  0
  185.1780  178.7600  138.8440 C   0  0  0  0  0  0  0  0  0  0  0  0
  184.5480  179.5450  139.7690 O   0  0  0  0  0  0  0  0  0  0  0  0
  182.9050  178.6070  138.6430 C   0  0  1  0  0  3  0  0  0  0  0  0
  184.1980  178.0270  138.0570 C   0  0  0  0  0  2  0  0  0  0  0  0
  186.4640  178.7040  138.7140 N   0  0  0  0  0  0  0  0  0  0  0  0
  181.9520  177.4890  139.0550 C   0  0  2  0  0  3  0  0  0  0  0  0
  181.7660  177.5060  140.4400 O   0  0  0  0  0  1  0  0  0  0  0  0
  182.5170  176.1390  138.6450 C   0  0  0  0  0  2  0  0  0  0  0  0
  181.4710  175.2490  136.9190 C   0  0  0  0  0  1  0  0  0  0  0  0
  181.4770  175.2700  138.3120 O   0  0  0  0  0  0  0  0  0  0  0  0
  189.9360  175.7460  137.5690 C   0  0  0  0  0  2  0  0  0  0  0  0
  190.5600  176.3230  138.7620 C   0  0  0  0  0  0  0  0  0  0  0  0
  191.0700  176.7990  139.7460 C   0  0  0  0  0  0  0  0  0  0  0  0
  191.6850  177.3830  140.9420 C   0  0  0  0  0  2  0  0  0  0  0  0
  191.0130  178.0670  143.2020 C   0  0  0  0  0  3  0  0  0  0  0  0
  189.2140  177.7940  141.5190 C   0  0  0  0  0  1  0  0  0  0  0  0
  190.6450  177.7490  141.9530 C   0  0  0  0  0  0  0  0  0  0  0  0
  190.0480  178.4810  144.2740 C   0  0  0  0  0  2  0  0  0  0  0  0
  191.0150  176.5110  145.1990 O   0  0  0  0  0  1  0  0  0  0  0  0
  190.1990  177.6030  145.5090 C   0  0  2  0  0  3  0  0  0  0  0  0
  188.8330  177.1170  145.9880 C   0  0  1  0  0  3  0  0  0  0  0  0
  188.4080  177.8910  147.1470 N   0  0  0  0  0  2  0  0  0  0  0  0
  189.5140  177.8860  148.0890 C   0  0  0  0  0  1  0  0  0  0  0  0
  187.8050  177.2760  144.8760 C   0  0  0  0  0  2  0  0  0  0  0  0
  186.4340  177.5700  145.4580 C   0  0  0  0  0  2  0  0  0  0  0  0
  185.6020  178.3860  144.4770 C   0  0  0  0  0  2  0  0  0  0  0  0
  183.2120  178.6360  144.4590 O   0  0  0  0  0  1  0  0  0  0  0  0
  184.3750  179.0180  145.1280 C   0  0  0  0  0  3  0  0  0  0  0  0
  184.2860  178.6610  146.4740 O   0  0  0  0  0  1  0  0  0  0  0  0
  190.5660  175.8780  135.1310 C   0  0  0  0  0  2  0  0  0  0  0  0
  192.0310  176.1280  134.7960 C   0  0  0  0  0  2  0  0  0  0  0  0
  192.8510  174.8510  134.8960 C   0  0  0  0  0  2  0  0  0  0  0  0
  194.1750  175.1180  135.5910 C   0  0  0  0  0  2  0  0  0  0  0  0
  194.9430  173.8210  135.7790 C   0  0  0  0  0  2  0  0  0  0  0  0
  194.4080  174.5210  138.0910 C   0  0  0  0  0  1  0  0  0  0  0  0
  195.2730  173.6100  137.2460 C   0  0  0  0  0  2  0  0  0  0  0  0
  1 37  1  6  0  0  0
  1 18  1  0  0  0  0
  2  3  2  0  0  0  0
  3  1  1  0  0  0  0
  3  4  1  0  0  0  0
  4  5  2  0  0  0  0
  4  6  1  0  0  0  0
  6 12  1  0  0  0  0
  7  9  1  0  0  0  0
  8  9  1  0  0  0  0
 10 13  1  1  0  0  0
 10  7  1  0  0  0  0
 11 10  1  0  0  0  0
 11  8  1  0  0  0  0
 12  8  2  0  0  0  0
 13 14  1  1  0  0  0
 15 13  1  0  0  0  0
 16 17  1  0  0  0  0
 17 15  1  0  0  0  0
 18 19  1  0  0  0  0
 19 20  3  0  0  0  0
 20 21  1  0  0  0  0
 21 24  1  0  0  0  0
 22 25  1  0  0  0  0
 23 24  1  0  0  0  0
 24 22  2  0  0  0  0
 25 27  1  0  0  0  0
 27 26  1  6  0  0  0
 27 28  1  0  0  0  0
 28 31  1  6  0  0  0
 28 29  1  0  0  0  0
 29 30  1  0  0  0  0
 31 32  1  0  0  0  0
 33 35  1  0  0  0  0
 33 32  1  0  0  0  0
 34 35  1  0  0  0  0
 35 36  1  0  0  0  0
 38 39  1  0  0  0  0
 38 37  1  0  0  0  0
 39 40  1  0  0  0  0
 40 41  1  0  0  0  0
 41 43  1  0  0  0  0
 43 42  1  0  0  0  0
M  END
>  <MODEL>
7

>  <REMARK>
 VINA RESULT:      -5.9      2.877     10.098
  Name = 
  24 active torsions:
  status: ('A' for Active; 'I' for Inactive)
    1  A    between atoms: C_1  and  N_12
    2  A    between atoms: C_1  and  C_21
    3  A    between atoms: C_1  and  C_40
    4  A    between atoms: C_4  and  C_13
    5  A    between atoms: C_4  and  C_36
    6  A    between atoms: C_5  and  C_16
    7  A    between atoms: C_5  and  C_27
    8  A    between atoms: C_6  and  C_21
    9  A    between atoms: C_6  and  C_24
   10  A    between atoms: C_7  and  C_15
   11  A    between atoms: C_7  and  C_22
   12  A    between atoms: C_11  and  C_32
   13  A    between atoms: C_13  and  C_22
   14  A    between atoms: C_14  and  C_15
   15  A    between atoms: C_14  and  C_32
   16  A    between atoms: C_14  and  C_41
   17  A    between atoms: C_17  and  C_37
   18  A    between atoms: C_17  and  C_39
   19  A    between atoms: C_18  and  C_24
   20  A    between atoms: O_19  and  C_27
   21  A    between atoms: C_26  and  C_29
   22  A    between atoms: C_29  and  C_40
   23  A    between atoms: C_30  and  C_41
   24  A    between atoms: N_38  and  N_43
                            x       y       z     vdW  Elec       q    Type
                         _______ _______ _______ _____ _____    ______ ____

>  <TORSDO>
F 24

$$$$
=
 OpenBabel10232410303D

 43 43  0  0  1  0  0  0  0  0999 V2000
  189.4030  177.2900  139.6260 C   0  0  1  0  0  3  0  0  0  0  0  0
  191.7630  177.3140  140.0160 O   0  0  0  0  0  0  0  0  0  0  0  0
  190.8150  176.9380  139.2740 C   0  0  0  0  0  0  0  0  0  0  0  0
  191.1020  176.1760  138.0510 C   0  0  0  0  0  0  0  0  0  0  0  0
  191.3190  176.7810  136.9660 O   0  0  0  0  0  0  0  0  0  0  0  0
  191.1390  174.7500  138.0940 N   0  0  0  0  0  2  0  0  0  0  0  0
  194.2390  172.4890  135.5230 O   0  0  0  0  0  0  0  0  0  0  0  0
  192.6190  173.5820  136.6910 C   0  0  0  0  0  0  0  0  0  0  0  0
  192.9450  172.8490  135.5840 O   0  0  0  0  0  0  0  0  0  0  0  0
  194.8650  173.1540  136.6180 C   0  0  1  0  0  3  0  0  0  0  0  0
  193.8020  173.8110  137.5060 C   0  0  0  0  0  2  0  0  0  0  0  0
  191.4210  173.9980  136.9440 N   0  0  0  0  0  0  0  0  0  0  0  0
  195.7080  172.1690  137.4230 C   0  0  2  0  0  3  0  0  0  0  0  0
  195.3650  172.2430  138.7760 O   0  0  0  0  0  1  0  0  0  0  0  0
  197.1850  172.4900  137.2640 C   0  0  0  0  0  2  0  0  0  0  0  0
  197.8210  174.5960  137.4300 C   0  0  0  0  0  1  0  0  0  0  0  0
  197.3400  173.6580  136.5180 O   0  0  0  0  0  0  0  0  0  0  0  0
  189.2620  177.4660  141.1330 C   0  0  0  0  0  2  0  0  0  0  0  0
  187.9750  178.0840  141.4630 C   0  0  0  0  0  0  0  0  0  0  0  0
  186.9160  178.5920  141.7380 C   0  0  0  0  0  0  0  0  0  0  0  0
  185.6280  179.2050  142.0770 C   0  0  0  0  0  2  0  0  0  0  0  0
  185.9000  178.0360  144.2190 C   0  0  0  0  0  3  0  0  0  0  0  0
  183.6070  178.7460  143.5980 C   0  0  0  0  0  1  0  0  0  0  0  0
  185.0740  178.6200  143.3380 C   0  0  0  0  0  0  0  0  0  0  0  0
  185.4440  177.4530  145.5250 C   0  0  0  0  0  2  0  0  0  0  0  0
  185.7230  179.5880  146.5440 O   0  0  0  0  0  1  0  0  0  0  0  0
  186.0240  178.2320  146.6990 C   0  0  2  0  0  3  0  0  0  0  0  0
  187.5370  178.0350  146.7720 C   0  0  1  0  0  3  0  0  0  0  0  0
  187.8730  177.1760  147.8990 N   0  0  0  0  0  2  0  0  0  0  0  0
  188.3240  178.0430  148.9740 C   0  0  0  0  0  1  0  0  0  0  0  0
  188.0410  177.3940  145.4850 C   0  0  0  0  0  2  0  0  0  0  0  0
  189.3820  177.9870  145.0870 C   0  0  0  0  0  2  0  0  0  0  0  0
  190.5140  177.0330  145.4470 C   0  0  0  0  0  2  0  0  0  0  0  0
  191.3890  175.9090  143.5120 O   0  0  0  0  0  1  0  0  0  0  0  0
  191.6020  176.9810  144.3780 C   0  0  0  0  0  3  0  0  0  0  0  0
  191.6460  178.1730  143.6540 O   0  0  0  0  0  1  0  0  0  0  0  0
  188.9870  178.5530  138.8750 C   0  0  0  0  0  2  0  0  0  0  0  0
  188.1260  178.2260  137.6610 C   0  0  0  0  0  2  0  0  0  0  0  0
  186.6790  177.9730  138.0570 C   0  0  0  0  0  2  0  0  0  0  0  0
  186.0610  176.9050  137.1700 C   0  0  0  0  0  2  0  0  0  0  0  0
  186.3630  177.1940  135.7090 C   0  0  0  0  0  2  0  0  0  0  0  0
  184.2780  176.7700  134.4450 C   0  0  0  0  0  1  0  0  0  0  0  0
  185.6350  176.2070  134.8140 C   0  0  0  0  0  2  0  0  0  0  0  0
  1 37  1  6  0  0  0
  1 18  1  0  0  0  0
  3  1  1  0  0  0  0
  3  2  2  0  0  0  0
  4  6  1  0  0  0  0
  4  3  1  0  0  0  0
  5  4  2  0  0  0  0
  7  9  1  0  0  0  0
  7 10  1  0  0  0  0
  8 12  2  0  0  0  0
  8 11  1  0  0  0  0
  9  8  1  0  0  0  0
 10 13  1  1  0  0  0
 10 11  1  0  0  0  0
 12  6  1  0  0  0  0
 13 14  1  1  0  0  0
 15 13  1  0  0  0  0
 17 15  1  0  0  0  0
 17 16  1  0  0  0  0
 18 19  1  0  0  0  0
 19 20  3  0  0  0  0
 20 21  1  0  0  0  0
 21 24  1  0  0  0  0
 22 25  1  0  0  0  0
 24 23  1  0  0  0  0
 24 22  2  0  0  0  0
 25 27  1  0  0  0  0
 27 26  1  6  0  0  0
 27 28  1  0  0  0  0
 28 31  1  6  0  0  0
 28 29  1  0  0  0  0
 29 30  1  0  0  0  0
 32 33  1  0  0  0  0
 32 31  1  0  0  0  0
 34 35  1  0  0  0  0
 35 33  1  0  0  0  0
 36 35  1  0  0  0  0
 38 39  1  0  0  0  0
 38 37  1  0  0  0  0
 40 39  1  0  0  0  0
 41 40  1  0  0  0  0
 42 43  1  0  0  0  0
 43 41  1  0  0  0  0
M  END
>  <MODEL>
8

>  <REMARK>
 VINA RESULT:      -5.9      2.895      7.009
  Name = 
  24 active torsions:
  status: ('A' for Active; 'I' for Inactive)
    1  A    between atoms: C_1  and  N_12
    2  A    between atoms: C_1  and  C_21
    3  A    between atoms: C_1  and  C_40
    4  A    between atoms: C_4  and  C_13
    5  A    between atoms: C_4  and  C_36
    6  A    between atoms: C_5  and  C_16
    7  A    between atoms: C_5  and  C_27
    8  A    between atoms: C_6  and  C_21
    9  A    between atoms: C_6  and  C_24
   10  A    between atoms: C_7  and  C_15
   11  A    between atoms: C_7  and  C_22
   12  A    between atoms: C_11  and  C_32
   13  A    between atoms: C_13  and  C_22
   14  A    between atoms: C_14  and  C_15
   15  A    between atoms: C_14  and  C_32
   16  A    between atoms: C_14  and  C_41
   17  A    between atoms: C_17  and  C_37
   18  A    between atoms: C_17  and  C_39
   19  A    between atoms: C_18  and  C_24
   20  A    between atoms: O_19  and  C_27
   21  A    between atoms: C_26  and  C_29
   22  A    between atoms: C_29  and  C_40
   23  A    between atoms: C_30  and  C_41
   24  A    between atoms: N_38  and  N_43
                            x       y       z     vdW  Elec       q    Type
                         _______ _______ _______ _____ _____    ______ ____

>  <TORSDO>
F 24

$$$$
=
 OpenBabel10232410303D

 43 43  0  0  1  0  0  0  0  0999 V2000
  184.5780  178.3990  142.2630 C   0  0  1  0  0  3  0  0  0  0  0  0
  182.2400  178.8670  142.4530 O   0  0  0  0  0  0  0  0  0  0  0  0
  183.2140  178.6220  141.6900 C   0  0  0  0  0  0  0  0  0  0  0  0
  182.9980  178.5310  140.2390 C   0  0  0  0  0  0  0  0  0  0  0  0
  182.2870  179.3880  139.6500 O   0  0  0  0  0  0  0  0  0  0  0  0
  183.6000  177.4700  139.4970 N   0  0  0  0  0  2  0  0  0  0  0  0
  185.4760  177.2820  135.2810 O   0  0  0  0  0  0  0  0  0  0  0  0
  184.4290  177.3770  137.2990 C   0  0  0  0  0  0  0  0  0  0  0  0
  184.3050  177.2790  135.9420 O   0  0  0  0  0  0  0  0  0  0  0  0
  186.4660  177.5400  136.2730 C   0  0  1  0  0  3  0  0  0  0  0  0
  185.8310  177.4980  137.6680 C   0  0  0  0  0  2  0  0  0  0  0  0
  183.4200  177.3640  138.1100 N   0  0  0  0  0  0  0  0  0  0  0  0
  187.6010  176.5250  136.1670 C   0  0  2  0  0  3  0  0  0  0  0  0
  187.7420  176.1050  134.8420 O   0  0  0  0  0  1  0  0  0  0  0  0
  187.3100  175.3190  137.0450 C   0  0  0  0  0  2  0  0  0  0  0  0
  187.4360  173.1560  136.6330 C   0  0  0  0  0  1  0  0  0  0  0  0
  186.7300  174.3050  136.2820 O   0  0  0  0  0  0  0  0  0  0  0  0
  185.6050  179.2550  141.5320 C   0  0  0  0  0  2  0  0  0  0  0  0
  186.8880  178.5530  141.4370 C   0  0  0  0  0  0  0  0  0  0  0  0
  187.9420  177.9730  141.3570 C   0  0  0  0  0  0  0  0  0  0  0  0
  189.2210  177.2610  141.2600 C   0  0  0  0  0  2  0  0  0  0  0  0
  190.8010  176.6100  139.4980 C   0  0  0  0  0  3  0  0  0  0  0  0
  189.3020  178.5270  139.0250 C   0  0  0  0  0  1  0  0  0  0  0  0
  189.8310  177.4410  139.9070 C   0  0  0  0  0  0  0  0  0  0  0  0
  191.4490  176.6900  138.1470 C   0  0  0  0  0  2  0  0  0  0  0  0
  190.4120  174.5470  138.1000 O   0  0  0  0  0  1  0  0  0  0  0  0
  191.1050  175.4650  137.3080 C   0  0  2  0  0  3  0  0  0  0  0  0
  192.3770  174.8260  136.7540 C   0  0  1  0  0  3  0  0  0  0  0  0
  192.5330  175.1670  135.3460 N   0  0  0  0  0  2  0  0  0  0  0  0
  191.2830  175.7680  134.9140 C   0  0  0  0  0  1  0  0  0  0  0  0
  193.5910  175.3250  137.5280 C   0  0  0  0  0  2  0  0  0  0  0  0
  194.8480  175.1920  136.6860 C   0  0  0  0  0  2  0  0  0  0  0  0
  195.9430  174.4860  137.4740 C   0  0  0  0  0  2  0  0  0  0  0  0
  197.7420  175.7800  136.5420 O   0  0  0  0  0  1  0  0  0  0  0  0
  197.2830  174.4780  136.7420 C   0  0  0  0  0  3  0  0  0  0  0  0
  198.2340  173.7450  137.4520 O   0  0  0  0  0  1  0  0  0  0  0  0
  184.5620  178.7020  143.7590 C   0  0  0  0  0  2  0  0  0  0  0  0
  185.4960  177.7780  144.5300 C   0  0  0  0  0  2  0  0  0  0  0  0
  186.3400  178.5490  145.5330 C   0  0  0  0  0  2  0  0  0  0  0  0
  187.4790  177.6860  146.0490 C   0  0  0  0  0  2  0  0  0  0  0  0
  188.5070  177.4610  144.9530 C   0  0  0  0  0  2  0  0  0  0  0  0
  189.9400  177.1070  146.9390 C   0  0  0  0  0  1  0  0  0  0  0  0
  189.9130  177.6040  145.5090 C   0  0  0  0  0  2  0  0  0  0  0  0
  1 18  1  6  0  0  0
  1 37  1  0  0  0  0
  3  1  1  0  0  0  0
  3  2  2  0  0  0  0
  4  3  1  0  0  0  0
  5  4  2  0  0  0  0
  6  4  1  0  0  0  0
  7  9  1  0  0  0  0
  7 10  1  0  0  0  0
  8 11  1  0  0  0  0
  8 12  2  0  0  0  0
  9  8  1  0  0  0  0
 10 13  1  1  0  0  0
 10 11  1  0  0  0  0
 12  6  1  0  0  0  0
 13 14  1  6  0  0  0
 13 15  1  0  0  0  0
 17 16  1  0  0  0  0
 17 15  1  0  0  0  0
 19 18  1  0  0  0  0
 20 19  3  0  0  0  0
 21 20  1  0  0  0  0
 22 24  2  0  0  0  0
 23 24  1  0  0  0  0
 24 21  1  0  0  0  0
 25 22  1  0  0  0  0
 27 26  1  1  0  0  0
 27 25  1  0  0  0  0
 28 27  1  0  0  0  0
 28 31  1  1  0  0  0
 29 28  1  0  0  0  0
 30 29  1  0  0  0  0
 32 33  1  0  0  0  0
 32 31  1  0  0  0  0
 34 35  1  0  0  0  0
 35 36  1  0  0  0  0
 35 33  1  0  0  0  0
 37 38  1  0  0  0  0
 38 39  1  0  0  0  0
 39 40  1  0  0  0  0
 41 43  1  0  0  0  0
 41 40  1  0  0  0  0
 43 42  1  0  0  0  0
M  END
>  <MODEL>
9

>  <REMARK>
 VINA RESULT:      -5.9      2.245      7.841
  Name = 
  24 active torsions:
  status: ('A' for Active; 'I' for Inactive)
    1  A    between atoms: C_1  and  N_12
    2  A    between atoms: C_1  and  C_21
    3  A    between atoms: C_1  and  C_40
    4  A    between atoms: C_4  and  C_13
    5  A    between atoms: C_4  and  C_36
    6  A    between atoms: C_5  and  C_16
    7  A    between atoms: C_5  and  C_27
    8  A    between atoms: C_6  and  C_21
    9  A    between atoms: C_6  and  C_24
   10  A    between atoms: C_7  and  C_15
   11  A    between atoms: C_7  and  C_22
   12  A    between atoms: C_11  and  C_32
   13  A    between atoms: C_13  and  C_22
   14  A    between atoms: C_14  and  C_15
   15  A    between atoms: C_14  and  C_32
   16  A    between atoms: C_14  and  C_41
   17  A    between atoms: C_17  and  C_37
   18  A    between atoms: C_17  and  C_39
   19  A    between atoms: C_18  and  C_24
   20  A    between atoms: O_19  and  C_27
   21  A    between atoms: C_26  and  C_29
   22  A    between atoms: C_29  and  C_40
   23  A    between atoms: C_30  and  C_41
   24  A    between atoms: N_38  and  N_43
                            x       y       z     vdW  Elec       q    Type
                         _______ _______ _______ _____ _____    ______ ____

>  <TORSDO>
F 24

$$$$
