=
 OpenBabel10222422093D

 29 31  0  0  1  0  0  0  0  0999 V2000
  187.1910  178.2730  139.7520 C   0  0  0  0  0  0  0  0  0  0  0  0
  190.0240  177.9350  138.8840 C   0  0  2  0  0  3  0  0  0  0  0  0
  189.3280  179.1700  136.9530 O   0  0  0  0  0  0  0  0  0  0  0  0
  185.9670  178.2610  140.0400 O   0  0  0  0  0  0  0  0  0  0  0  0
  187.6120  178.7280  138.4630 N   0  0  0  0  0  2  0  0  0  0  0  0
  188.9850  178.6500  138.0480 C   0  0  0  0  0  0  0  0  0  0  0  0
  188.2200  177.7940  140.6850 C   0  0  0  0  0  0  0  0  0  0  0  0
  190.2470  177.0910  141.3150 C   0  0  0  0  0  3  0  0  0  0  0  0
  189.4160  176.9330  142.3680 N   0  0  0  0  0  0  0  0  0  0  0  0
  188.1850  177.3540  142.0070 C   0  0  0  0  0  0  0  0  0  0  0  0
  190.4320  176.6430  138.1940 C   0  0  0  0  0  1  0  0  0  0  0  0
  189.5240  177.6370  140.2690 C   0  0  0  0  0  0  0  0  0  0  0  0
  189.7600  176.3470  143.6610 C   0  0  1  0  0  3  0  0  0  0  0  0
  190.7540  175.2040  143.4930 C   0  0  0  0  0  1  0  0  0  0  0  0
  191.3100  176.9120  145.6080 C   0  0  0  0  0  2  0  0  0  0  0  0
  190.2120  177.4080  144.6770 C   0  0  2  0  0  3  0  0  0  0  0  0
  189.5480  177.9110  146.8590 C   0  0  1  0  0  3  0  0  0  0  0  0
  190.7110  176.9520  146.9870 C   0  0  0  0  0  2  0  0  0  0  0  0
  189.0760  177.8490  145.4810 N   0  0  0  0  0  2  0  0  0  0  0  0
  188.6940  178.0990  149.0770 F   0  0  0  0  0  0  0  0  0  0  0  0
  187.2340  178.1050  147.3650 F   0  0  0  0  0  0  0  0  0  0  0  0
  188.4200  177.5670  147.8290 C   0  0  0  0  0  0  0  0  0  0  0  0
  188.2800  176.1930  147.9430 F   0  0  0  0  0  0  0  0  0  0  0  0
  187.0970  177.3130  142.8870 O   0  0  0  0  0  0  0  0  0  0  0  0
  186.2870  178.4340  143.1960 C   0  0  0  0  0  2  0  0  0  0  0  0
  183.9740  179.9240  144.0850 O   0  0  0  0  0  0  0  0  0  0  0  0
  185.7230  178.2700  144.5250 N   0  0  0  0  0  2  0  0  0  0  0  0
  184.5780  179.0110  144.9420 C   0  0  0  0  0  0  0  0  0  0  0  0
  184.1090  178.8360  146.0970 O   0  0  0  0  0  1  0  0  0  0  0  0
  1  4  2  0  0  0  0
  1  7  1  0  0  0  0
  2 11  1  6  0  0  0
  2 12  1  0  0  0  0
  3  6  2  0  0  0  0
  5  1  1  0  0  0  0
  6  5  1  0  0  0  0
  6  2  1  0  0  0  0
  7 10  2  0  0  0  0
  8  9  1  0  0  0  0
  9 13  1  0  0  0  0
 10  9  1  0  0  0  0
 10 24  1  0  0  0  0
 12  7  1  0  0  0  0
 12  8  2  0  0  0  0
 13 14  1  6  0  0  0
 15 18  1  0  0  0  0
 16 13  1  6  0  0  0
 16 19  1  0  0  0  0
 16 15  1  0  0  0  0
 17 18  1  0  0  0  0
 17 22  1  1  0  0  0
 19 17  1  0  0  0  0
 21 22  1  0  0  0  0
 22 23  1  0  0  0  0
 22 20  1  0  0  0  0
 24 25  1  0  0  0  0
 25 27  1  0  0  0  0
 26 28  2  0  0  0  0
 27 28  1  0  0  0  0
 28 29  1  0  0  0  0
M  END
>  <MODEL>
1

>  <REMARK>
 VINA RESULT:      -8.4      0.000      0.000
  Name = 
  6 active torsions:
  status: ('A' for Active; 'I' for Inactive)
    1  A    between atoms: C_8  and  C_12
    2  A    between atoms: N_10  and  C_14
    3  A    between atoms: C_11  and  C_13
    4  A    between atoms: C_13  and  N_25
    5  A    between atoms: C_14  and  O_18
    6  A    between atoms: O_18  and  C_26
                            x       y       z     vdW  Elec       q    Type
                         _______ _______ _______ _____ _____    ______ ____

>  <TORSDO>
F 6

$$$$
=
 OpenBabel10222422093D

 29 31  0  0  1  0  0  0  0  0999 V2000
  186.6610  178.7010  138.7190 C   0  0  0  0  0  0  0  0  0  0  0  0
  189.3320  177.4400  138.3030 C   0  0  2  0  0  3  0  0  0  0  0  0
  189.0010  178.0610  136.0140 O   0  0  0  0  0  0  0  0  0  0  0  0
  185.4690  179.0720  138.8690 O   0  0  0  0  0  0  0  0  0  0  0  0
  187.2050  178.5750  137.4020 N   0  0  0  0  0  2  0  0  0  0  0  0
  188.5200  178.0440  137.1780 C   0  0  0  0  0  0  0  0  0  0  0  0
  187.5210  178.3480  139.8580 C   0  0  0  0  0  0  0  0  0  0  0  0
  189.2940  177.4560  140.8860 C   0  0  0  0  0  3  0  0  0  0  0  0
  188.4330  177.8660  141.8420 N   0  0  0  0  0  0  0  0  0  0  0  0
  187.3540  178.4100  141.2390 C   0  0  0  0  0  0  0  0  0  0  0  0
  189.4110  175.9330  138.1220 C   0  0  0  0  0  1  0  0  0  0  0  0
  188.7490  177.7600  139.6510 C   0  0  0  0  0  0  0  0  0  0  0  0
  188.5970  177.6980  143.2840 C   0  0  1  0  0  3  0  0  0  0  0  0
  188.0290  176.3610  143.7440 C   0  0  0  0  0  1  0  0  0  0  0  0
  190.9990  176.8380  143.2810 C   0  0  0  0  0  2  0  0  0  0  0  0
  190.0460  177.9370  143.7350 C   0  0  2  0  0  3  0  0  0  0  0  0
  191.2650  177.2610  145.6090 C   0  0  1  0  0  3  0  0  0  0  0  0
  191.5170  176.2130  144.5470 C   0  0  0  0  0  2  0  0  0  0  0  0
  190.1090  178.0430  145.1890 N   0  0  0  0  0  2  0  0  0  0  0  0
  189.6680  176.3820  147.1470 F   0  0  0  0  0  0  0  0  0  0  0  0
  191.7080  175.4350  147.0650 F   0  0  0  0  0  0  0  0  0  0  0  0
  191.0190  176.6310  146.9790 C   0  0  0  0  0  0  0  0  0  0  0  0
  191.4530  177.4770  147.9860 F   0  0  0  0  0  0  0  0  0  0  0  0
  186.2760  178.9270  141.9680 O   0  0  0  0  0  0  0  0  0  0  0  0
  185.1770  178.1510  142.4110 C   0  0  0  0  0  2  0  0  0  0  0  0
  182.6380  179.0830  143.4380 O   0  0  0  0  0  0  0  0  0  0  0  0
  184.9540  178.3920  143.8260 N   0  0  0  0  0  2  0  0  0  0  0  0
  183.6930  178.8470  144.3130 C   0  0  0  0  0  0  0  0  0  0  0  0
  183.5310  179.0350  145.5470 O   0  0  0  0  0  1  0  0  0  0  0  0
  1  4  2  0  0  0  0
  1  7  1  0  0  0  0
  2 11  1  6  0  0  0
  2 12  1  0  0  0  0
  3  6  2  0  0  0  0
  5  1  1  0  0  0  0
  6  5  1  0  0  0  0
  6  2  1  0  0  0  0
  7 10  2  0  0  0  0
  8  9  1  0  0  0  0
  9 13  1  0  0  0  0
 10  9  1  0  0  0  0
 10 24  1  0  0  0  0
 12  7  1  0  0  0  0
 12  8  2  0  0  0  0
 13 14  1  6  0  0  0
 15 16  1  0  0  0  0
 15 18  1  0  0  0  0
 16 13  1  1  0  0  0
 16 19  1  0  0  0  0
 17 22  1  1  0  0  0
 18 17  1  0  0  0  0
 19 17  1  0  0  0  0
 22 21  1  0  0  0  0
 22 20  1  0  0  0  0
 22 23  1  0  0  0  0
 24 25  1  0  0  0  0
 25 27  1  0  0  0  0
 26 28  2  0  0  0  0
 27 28  1  0  0  0  0
 28 29  1  0  0  0  0
M  END
>  <MODEL>
2

>  <REMARK>
 VINA RESULT:      -8.0      1.526      2.021
  Name = 
  6 active torsions:
  status: ('A' for Active; 'I' for Inactive)
    1  A    between atoms: C_8  and  C_12
    2  A    between atoms: N_10  and  C_14
    3  A    between atoms: C_11  and  C_13
    4  A    between atoms: C_13  and  N_25
    5  A    between atoms: C_14  and  O_18
    6  A    between atoms: O_18  and  C_26
                            x       y       z     vdW  Elec       q    Type
                         _______ _______ _______ _____ _____    ______ ____

>  <TORSDO>
F 6

$$$$
=
 OpenBabel10222422093D

 29 31  0  0  1  0  0  0  0  0999 V2000
  185.5440  179.0240  141.8730 C   0  0  0  0  0  0  0  0  0  0  0  0
  184.7610  178.0480  144.5810 C   0  0  2  0  0  3  0  0  0  0  0  0
  182.5580  178.7200  143.9220 O   0  0  0  0  0  0  0  0  0  0  0  0
  185.9060  179.5890  140.8100 O   0  0  0  0  0  0  0  0  0  0  0  0
  184.2010  179.1850  142.3400 N   0  0  0  0  0  2  0  0  0  0  0  0
  183.7760  178.6560  143.6060 C   0  0  0  0  0  0  0  0  0  0  0  0
  186.4680  178.2240  142.6900 C   0  0  0  0  0  0  0  0  0  0  0  0
  187.1790  177.1440  144.5130 C   0  0  0  0  0  3  0  0  0  0  0  0
  188.1990  177.1640  143.6280 N   0  0  0  0  0  0  0  0  0  0  0  0
  187.7870  177.8120  142.5170 C   0  0  0  0  0  0  0  0  0  0  0  0
  184.9350  178.9740  145.7730 C   0  0  0  0  0  1  0  0  0  0  0  0
  186.0950  177.7850  143.9410 C   0  0  0  0  0  0  0  0  0  0  0  0
  189.5440  176.6360  143.8450 C   0  0  1  0  0  3  0  0  0  0  0  0
  190.3080  176.5360  142.5300 C   0  0  0  0  0  1  0  0  0  0  0  0
  191.2000  176.5170  145.7820 C   0  0  0  0  0  2  0  0  0  0  0  0
  190.3020  177.4090  144.9360 C   0  0  2  0  0  3  0  0  0  0  0  0
  189.8310  177.8780  147.1750 C   0  0  1  0  0  3  0  0  0  0  0  0
  190.6480  176.6050  147.1790 C   0  0  0  0  0  2  0  0  0  0  0  0
  189.3580  178.0930  145.8140 N   0  0  0  0  0  2  0  0  0  0  0  0
  189.0430  178.2660  149.3910 F   0  0  0  0  0  0  0  0  0  0  0  0
  187.6190  178.5870  147.6790 F   0  0  0  0  0  0  0  0  0  0  0  0
  188.6560  177.8000  148.1470 C   0  0  0  0  0  0  0  0  0  0  0  0
  188.2130  176.4940  148.2700 F   0  0  0  0  0  0  0  0  0  0  0  0
  188.6260  178.0020  141.4120 O   0  0  0  0  0  0  0  0  0  0  0  0
  188.3360  177.5280  140.1090 C   0  0  0  0  0  2  0  0  0  0  0  0
  189.9790  177.6200  137.7310 O   0  0  0  0  0  1  0  0  0  0  0  0
  188.3000  178.6480  139.1850 N   0  0  0  0  0  2  0  0  0  0  0  0
  189.1150  178.6720  138.0140 C   0  0  0  0  0  0  0  0  0  0  0  0
  189.0510  179.6530  137.2290 O   0  0  0  0  0  0  0  0  0  0  0  0
  1  5  1  0  0  0  0
  1  7  1  0  0  0  0
  2 11  1  1  0  0  0
  4  1  2  0  0  0  0
  5  6  1  0  0  0  0
  6  3  2  0  0  0  0
  6  2  1  0  0  0  0
  7 12  1  0  0  0  0
  9 13  1  0  0  0  0
  9  8  1  0  0  0  0
 10  7  2  0  0  0  0
 10  9  1  0  0  0  0
 12  8  2  0  0  0  0
 12  2  1  0  0  0  0
 13 14  1  6  0  0  0
 15 18  1  0  0  0  0
 16 13  1  6  0  0  0
 16 15  1  0  0  0  0
 16 19  1  0  0  0  0
 17 18  1  0  0  0  0
 17 22  1  1  0  0  0
 19 17  1  0  0  0  0
 21 22  1  0  0  0  0
 22 23  1  0  0  0  0
 22 20  1  0  0  0  0
 24 10  1  0  0  0  0
 25 24  1  0  0  0  0
 26 28  1  0  0  0  0
 27 25  1  0  0  0  0
 28 27  1  0  0  0  0
 29 28  2  0  0  0  0
M  END
>  <MODEL>
3

>  <REMARK>
 VINA RESULT:      -7.9      1.325      4.958
  Name = 
  6 active torsions:
  status: ('A' for Active; 'I' for Inactive)
    1  A    between atoms: C_8  and  C_12
    2  A    between atoms: N_10  and  C_14
    3  A    between atoms: C_11  and  C_13
    4  A    between atoms: C_13  and  N_25
    5  A    between atoms: C_14  and  O_18
    6  A    between atoms: O_18  and  C_26
                            x       y       z     vdW  Elec       q    Type
                         _______ _______ _______ _____ _____    ______ ____

>  <TORSDO>
F 6

$$$$
=
 OpenBabel10222422093D

 29 31  0  0  1  0  0  0  0  0999 V2000
  184.4360  178.7370  139.1340 C   0  0  0  0  0  0  0  0  0  0  0  0
  182.0650  178.0460  140.8050 C   0  0  2  0  0  3  0  0  0  0  0  0
  181.0440  177.5050  138.7060 O   0  0  0  0  0  0  0  0  0  0  0  0
  185.3720  179.1910  138.4280 O   0  0  0  0  0  0  0  0  0  0  0  0
  183.2030  178.3560  138.5170 N   0  0  0  0  0  2  0  0  0  0  0  0
  182.0690  177.9420  139.2950 C   0  0  0  0  0  0  0  0  0  0  0  0
  184.5450  178.6150  140.5940 C   0  0  0  0  0  0  0  0  0  0  0  0
  183.8070  178.3450  142.6870 C   0  0  0  0  0  3  0  0  0  0  0  0
  185.1200  178.6570  142.7550 N   0  0  0  0  0  0  0  0  0  0  0  0
  185.5840  178.8230  141.4980 C   0  0  0  0  0  0  0  0  0  0  0  0
  181.1220  179.1570  141.2370 C   0  0  0  0  0  1  0  0  0  0  0  0
  183.4400  178.3010  141.3540 C   0  0  0  0  0  0  0  0  0  0  0  0
  185.9020  178.8490  143.9740 C   0  0  1  0  0  3  0  0  0  0  0  0
  185.0750  179.5500  145.0450 C   0  0  0  0  0  1  0  0  0  0  0  0
  186.5220  177.3900  145.9730 C   0  0  0  0  0  2  0  0  0  0  0  0
  186.5520  177.5440  144.4580 C   0  0  2  0  0  3  0  0  0  0  0  0
  188.7180  177.0000  145.1420 C   0  0  1  0  0  3  0  0  0  0  0  0
  187.9640  177.3690  146.4000 C   0  0  0  0  0  2  0  0  0  0  0  0
  187.9380  177.4760  144.0060 N   0  0  0  0  0  2  0  0  0  0  0  0
  190.0580  178.9210  144.6930 F   0  0  0  0  0  0  0  0  0  0  0  0
  190.6490  177.5800  146.4000 F   0  0  0  0  0  0  0  0  0  0  0  0
  190.1200  177.6070  145.1230 C   0  0  0  0  0  0  0  0  0  0  0  0
  190.9480  176.8910  144.2750 F   0  0  0  0  0  0  0  0  0  0  0  0
  186.9180  179.1580  141.2360 O   0  0  0  0  0  0  0  0  0  0  0  0
  187.8720  178.2550  140.7060 C   0  0  0  0  0  2  0  0  0  0  0  0
  188.1520  176.9150  138.1580 O   0  0  0  0  0  1  0  0  0  0  0  0
  188.5450  178.8700  139.5760 N   0  0  0  0  0  2  0  0  0  0  0  0
  188.6690  178.1950  138.3260 C   0  0  0  0  0  0  0  0  0  0  0  0
  189.2490  178.7630  137.3650 O   0  0  0  0  0  0  0  0  0  0  0  0
  1  7  1  0  0  0  0
  2 11  1  6  0  0  0
  2 12  1  0  0  0  0
  3  6  2  0  0  0  0
  4  1  2  0  0  0  0
  5  1  1  0  0  0  0
  5  6  1  0  0  0  0
  6  2  1  0  0  0  0
  7 12  1  0  0  0  0
  7 10  2  0  0  0  0
  8  9  1  0  0  0  0
  9 13  1  0  0  0  0
 10  9  1  0  0  0  0
 12  8  2  0  0  0  0
 13 14  1  1  0  0  0
 15 18  1  0  0  0  0
 16 13  1  1  0  0  0
 16 15  1  0  0  0  0
 17 22  1  1  0  0  0
 17 18  1  0  0  0  0
 19 16  1  0  0  0  0
 19 17  1  0  0  0  0
 20 22  1  0  0  0  0
 22 21  1  0  0  0  0
 23 22  1  0  0  0  0
 24 10  1  0  0  0  0
 25 24  1  0  0  0  0
 26 28  1  0  0  0  0
 27 25  1  0  0  0  0
 28 27  1  0  0  0  0
 29 28  2  0  0  0  0
M  END
>  <MODEL>
4

>  <REMARK>
 VINA RESULT:      -7.9      2.922      5.634
  Name = 
  6 active torsions:
  status: ('A' for Active; 'I' for Inactive)
    1  A    between atoms: C_8  and  C_12
    2  A    between atoms: N_10  and  C_14
    3  A    between atoms: C_11  and  C_13
    4  A    between atoms: C_13  and  N_25
    5  A    between atoms: C_14  and  O_18
    6  A    between atoms: O_18  and  C_26
                            x       y       z     vdW  Elec       q    Type
                         _______ _______ _______ _____ _____    ______ ____

>  <TORSDO>
F 6

$$$$
=
 OpenBabel10222422093D

 29 31  0  0  1  0  0  0  0  0999 V2000
  184.4340  179.2570  140.1830 C   0  0  0  0  0  0  0  0  0  0  0  0
  183.4280  178.4360  142.8680 C   0  0  2  0  0  3  0  0  0  0  0  0
  181.2660  178.6850  141.8680 O   0  0  0  0  0  0  0  0  0  0  0  0
  184.8580  179.7660  139.1150 O   0  0  0  0  0  0  0  0  0  0  0  0
  183.0310  179.2480  140.4580 N   0  0  0  0  0  2  0  0  0  0  0  0
  182.5120  178.7840  141.7140 C   0  0  0  0  0  0  0  0  0  0  0  0
  185.3400  178.6950  141.1960 C   0  0  0  0  0  0  0  0  0  0  0  0
  185.9360  177.9230  143.2070 C   0  0  0  0  0  3  0  0  0  0  0  0
  187.0570  178.0170  142.4590 N   0  0  0  0  0  0  0  0  0  0  0  0
  186.7160  178.4810  141.2380 C   0  0  0  0  0  0  0  0  0  0  0  0
  183.2980  179.4880  143.9570 C   0  0  0  0  0  1  0  0  0  0  0  0
  184.8620  178.3260  142.4340 C   0  0  0  0  0  0  0  0  0  0  0  0
  188.4200  177.7310  142.9010 C   0  0  1  0  0  3  0  0  0  0  0  0
  189.2430  179.0110  142.9860 C   0  0  0  0  0  1  0  0  0  0  0  0
  188.0580  177.6990  145.4260 C   0  0  0  0  0  2  0  0  0  0  0  0
  188.4480  176.8980  144.1910 C   0  0  2  0  0  3  0  0  0  0  0  0
  190.0890  176.5180  145.8080 C   0  0  1  0  0  3  0  0  0  0  0  0
  189.2790  177.6940  146.3060 C   0  0  0  0  0  2  0  0  0  0  0  0
  189.7780  176.3350  144.3960 N   0  0  0  0  0  2  0  0  0  0  0  0
  191.9900  177.8710  145.3170 F   0  0  0  0  0  0  0  0  0  0  0  0
  191.8540  176.9170  147.3510 F   0  0  0  0  0  0  0  0  0  0  0  0
  191.5880  176.7390  146.0050 C   0  0  0  0  0  0  0  0  0  0  0  0
  192.3040  175.6480  145.5420 F   0  0  0  0  0  0  0  0  0  0  0  0
  187.6650  178.6930  140.2300 O   0  0  0  0  0  0  0  0  0  0  0  0
  188.2250  177.6580  139.4410 C   0  0  0  0  0  2  0  0  0  0  0  0
  188.9720  179.5450  137.3810 O   0  0  0  0  0  1  0  0  0  0  0  0
  187.6020  177.6600  138.1290 N   0  0  0  0  0  2  0  0  0  0  0  0
  187.9890  178.5960  137.1250 C   0  0  0  0  0  0  0  0  0  0  0  0
  187.4360  178.5620  135.9950 O   0  0  0  0  0  0  0  0  0  0  0  0
  1  5  1  0  0  0  0
  1  7  1  0  0  0  0
  2 11  1  1  0  0  0
  4  1  2  0  0  0  0
  5  6  1  0  0  0  0
  6  3  2  0  0  0  0
  6  2  1  0  0  0  0
  7 10  2  0  0  0  0
  7 12  1  0  0  0  0
  9 13  1  0  0  0  0
  9  8  1  0  0  0  0
 10  9  1  0  0  0  0
 12  2  1  0  0  0  0
 12  8  2  0  0  0  0
 13 14  1  1  0  0  0
 15 18  1  0  0  0  0
 16 13  1  6  0  0  0
 16 19  1  0  0  0  0
 16 15  1  0  0  0  0
 17 22  1  6  0  0  0
 17 18  1  0  0  0  0
 19 17  1  0  0  0  0
 20 22  1  0  0  0  0
 22 21  1  0  0  0  0
 23 22  1  0  0  0  0
 24 10  1  0  0  0  0
 25 24  1  0  0  0  0
 27 25  1  0  0  0  0
 28 26  1  0  0  0  0
 28 27  1  0  0  0  0
 29 28  2  0  0  0  0
M  END
>  <MODEL>
5

>  <REMARK>
 VINA RESULT:      -7.6      2.512      5.459
  Name = 
  6 active torsions:
  status: ('A' for Active; 'I' for Inactive)
    1  A    between atoms: C_8  and  C_12
    2  A    between atoms: N_10  and  C_14
    3  A    between atoms: C_11  and  C_13
    4  A    between atoms: C_13  and  N_25
    5  A    between atoms: C_14  and  O_18
    6  A    between atoms: O_18  and  C_26
                            x       y       z     vdW  Elec       q    Type
                         _______ _______ _______ _____ _____    ______ ____

>  <TORSDO>
F 6

$$$$
=
 OpenBabel10222422093D

 29 31  0  0  1  0  0  0  0  0999 V2000
  187.9090  178.3910  137.8040 C   0  0  0  0  0  0  0  0  0  0  0  0
  190.3120  176.6250  137.8680 C   0  0  2  0  0  3  0  0  0  0  0  0
  190.3680  177.0200  135.5060 O   0  0  0  0  0  0  0  0  0  0  0  0
  186.8040  178.9880  137.7580 O   0  0  0  0  0  0  0  0  0  0  0  0
  188.5620  178.0130  136.5890 N   0  0  0  0  0  2  0  0  0  0  0  0
  189.7650  177.2290  136.5930 C   0  0  0  0  0  0  0  0  0  0  0  0
  188.5500  178.0250  139.0750 C   0  0  0  0  0  0  0  0  0  0  0  0
  189.9890  176.9540  140.4090 C   0  0  0  0  0  3  0  0  0  0  0  0
  189.1220  177.6240  141.1990 N   0  0  0  0  0  0  0  0  0  0  0  0
  188.2450  178.2800  140.4100 C   0  0  0  0  0  0  0  0  0  0  0  0
  190.1160  175.1180  137.8430 C   0  0  0  0  0  1  0  0  0  0  0  0
  189.6550  177.2040  139.0900 C   0  0  0  0  0  0  0  0  0  0  0  0
  189.0870  177.6010  142.6600 C   0  0  1  0  0  3  0  0  0  0  0  0
  188.3550  176.3650  143.1670 C   0  0  0  0  0  1  0  0  0  0  0  0
  191.3970  176.5870  143.0420 C   0  0  0  0  0  2  0  0  0  0  0  0
  190.4830  177.7830  143.2760 C   0  0  2  0  0  3  0  0  0  0  0  0
  191.4010  177.1990  145.3430 C   0  0  1  0  0  3  0  0  0  0  0  0
  191.7030  176.0460  144.4120 C   0  0  0  0  0  2  0  0  0  0  0  0
  190.3710  178.0150  144.7130 N   0  0  0  0  0  2  0  0  0  0  0  0
  191.5650  175.5200  147.0280 F   0  0  0  0  0  0  0  0  0  0  0  0
  191.2690  177.6560  147.6720 F   0  0  0  0  0  0  0  0  0  0  0  0
  190.9380  176.7130  146.7150 C   0  0  0  0  0  0  0  0  0  0  0  0
  189.5660  176.5210  146.7240 F   0  0  0  0  0  0  0  0  0  0  0  0
  187.2130  179.0670  140.9370 O   0  0  0  0  0  0  0  0  0  0  0  0
  185.8720  178.6300  141.0630 C   0  0  0  0  0  2  0  0  0  0  0  0
  183.3380  177.7580  139.9740 O   0  0  0  0  0  1  0  0  0  0  0  0
  185.0020  179.5200  140.3150 N   0  0  0  0  0  2  0  0  0  0  0  0
  183.7530  179.0720  139.7900 C   0  0  0  0  0  0  0  0  0  0  0  0
  183.0190  179.8730  139.1560 O   0  0  0  0  0  0  0  0  0  0  0  0
  1  7  1  0  0  0  0
  2 11  1  6  0  0  0
  2 12  1  0  0  0  0
  3  6  2  0  0  0  0
  4  1  2  0  0  0  0
  5  6  1  0  0  0  0
  5  1  1  0  0  0  0
  6  2  1  0  0  0  0
  7 12  1  0  0  0  0
  7 10  2  0  0  0  0
  8  9  1  0  0  0  0
  9 13  1  0  0  0  0
 10 24  1  0  0  0  0
 10  9  1  0  0  0  0
 12  8  2  0  0  0  0
 13 14  1  6  0  0  0
 15 16  1  0  0  0  0
 15 18  1  0  0  0  0
 16 13  1  1  0  0  0
 16 19  1  0  0  0  0
 17 22  1  1  0  0  0
 18 17  1  0  0  0  0
 19 17  1  0  0  0  0
 22 23  1  0  0  0  0
 22 20  1  0  0  0  0
 22 21  1  0  0  0  0
 24 25  1  0  0  0  0
 27 25  1  0  0  0  0
 28 26  1  0  0  0  0
 28 27  1  0  0  0  0
 29 28  2  0  0  0  0
M  END
>  <MODEL>
6

>  <REMARK>
 VINA RESULT:      -7.5      2.427      2.986
  Name = 
  6 active torsions:
  status: ('A' for Active; 'I' for Inactive)
    1  A    between atoms: C_8  and  C_12
    2  A    between atoms: N_10  and  C_14
    3  A    between atoms: C_11  and  C_13
    4  A    between atoms: C_13  and  N_25
    5  A    between atoms: C_14  and  O_18
    6  A    between atoms: O_18  and  C_26
                            x       y       z     vdW  Elec       q    Type
                         _______ _______ _______ _____ _____    ______ ____

>  <TORSDO>
F 6

$$$$
=
 OpenBabel10222422093D

 29 31  0  0  1  0  0  0  0  0999 V2000
  192.2070  176.9300  139.3530 C   0  0  0  0  0  0  0  0  0  0  0  0
  189.8040  176.4430  137.6550 C   0  0  2  0  0  3  0  0  0  0  0  0
  191.3530  175.3430  136.1970 O   0  0  0  0  0  0  0  0  0  0  0  0
  193.2350  177.2860  139.9830 O   0  0  0  0  0  0  0  0  0  0  0  0
  192.3400  176.3100  138.0700 N   0  0  0  0  0  2  0  0  0  0  0  0
  191.1950  175.9930  137.2650 C   0  0  0  0  0  0  0  0  0  0  0  0
  190.8510  177.1610  139.8700 C   0  0  0  0  0  0  0  0  0  0  0  0
  188.6230  177.3220  139.7770 C   0  0  0  0  0  3  0  0  0  0  0  0
  189.0120  177.7540  140.9970 N   0  0  0  0  0  0  0  0  0  0  0  0
  190.3570  177.6620  141.0720 C   0  0  0  0  0  0  0  0  0  0  0  0
  189.3390  177.5390  136.7090 C   0  0  0  0  0  1  0  0  0  0  0  0
  189.7500  176.9380  139.0730 C   0  0  0  0  0  0  0  0  0  0  0  0
  188.1440  178.2910  142.0420 C   0  0  1  0  0  3  0  0  0  0  0  0
  187.0420  179.1550  141.4420 C   0  0  0  0  0  1  0  0  0  0  0  0
  186.2190  177.4790  143.5060 C   0  0  0  0  0  2  0  0  0  0  0  0
  187.6200  177.1940  142.9820 C   0  0  2  0  0  3  0  0  0  0  0  0
  187.6800  176.9200  145.3000 C   0  0  1  0  0  3  0  0  0  0  0  0
  186.3710  177.6140  144.9960 C   0  0  0  0  0  2  0  0  0  0  0  0
  188.5230  177.0330  144.1170 N   0  0  0  0  0  2  0  0  0  0  0  0
  187.4430  178.1510  147.3280 F   0  0  0  0  0  0  0  0  0  0  0  0
  188.9980  176.5270  147.2380 F   0  0  0  0  0  0  0  0  0  0  0  0
  188.3750  177.5290  146.5160 C   0  0  0  0  0  0  0  0  0  0  0  0
  189.3230  178.4570  146.1190 F   0  0  0  0  0  0  0  0  0  0  0  0
  191.0650  178.0420  142.2190 O   0  0  0  0  0  0  0  0  0  0  0  0
  191.9210  177.1760  142.9430 C   0  0  0  0  0  2  0  0  0  0  0  0
  191.9930  175.2010  145.0540 O   0  0  0  0  0  0  0  0  0  0  0  0
  191.9040  177.5420  144.3480 N   0  0  0  0  0  2  0  0  0  0  0  0
  191.9460  176.5530  145.3750 C   0  0  0  0  0  0  0  0  0  0  0  0
  191.9400  176.9070  146.5820 O   0  0  0  0  0  1  0  0  0  0  0  0
  1  7  1  0  0  0  0
  1  4  2  0  0  0  0
  2 11  1  6  0  0  0
  2 12  1  0  0  0  0
  3  6  2  0  0  0  0
  5  1  1  0  0  0  0
  6  2  1  0  0  0  0
  6  5  1  0  0  0  0
  7 10  2  0  0  0  0
  8  9  1  0  0  0  0
  9 10  1  0  0  0  0
  9 13  1  0  0  0  0
 10 24  1  0  0  0  0
 12  8  2  0  0  0  0
 12  7  1  0  0  0  0
 13 14  1  6  0  0  0
 15 18  1  0  0  0  0
 16 13  1  6  0  0  0
 16 15  1  0  0  0  0
 16 19  1  0  0  0  0
 17 22  1  1  0  0  0
 18 17  1  0  0  0  0
 19 17  1  0  0  0  0
 22 21  1  0  0  0  0
 22 20  1  0  0  0  0
 23 22  1  0  0  0  0
 24 25  1  0  0  0  0
 25 27  1  0  0  0  0
 26 28  2  0  0  0  0
 27 28  1  0  0  0  0
 28 29  1  0  0  0  0
M  END
>  <MODEL>
7

>  <REMARK>
 VINA RESULT:      -7.5      2.994      4.594
  Name = 
  6 active torsions:
  status: ('A' for Active; 'I' for Inactive)
    1  A    between atoms: C_8  and  C_12
    2  A    between atoms: N_10  and  C_14
    3  A    between atoms: C_11  and  C_13
    4  A    between atoms: C_13  and  N_25
    5  A    between atoms: C_14  and  O_18
    6  A    between atoms: O_18  and  C_26
                            x       y       z     vdW  Elec       q    Type
                         _______ _______ _______ _____ _____    ______ ____

>  <TORSDO>
F 6

$$$$
=
 OpenBabel10222422093D

 29 31  0  0  1  0  0  0  0  0999 V2000
  188.5580  177.2870  145.8320 C   0  0  0  0  0  0  0  0  0  0  0  0
  191.2460  177.2400  144.5400 C   0  0  2  0  0  3  0  0  0  0  0  0
  192.0310  176.7350  146.7460 O   0  0  0  0  0  0  0  0  0  0  0  0
  187.4510  177.4780  146.3980 O   0  0  0  0  0  0  0  0  0  0  0  0
  189.7370  177.1110  146.6220 N   0  0  0  0  0  2  0  0  0  0  0  0
  191.0370  177.0060  146.0210 C   0  0  0  0  0  0  0  0  0  0  0  0
  188.6980  177.2740  144.3690 C   0  0  0  0  0  0  0  0  0  0  0  0
  189.7820  177.3430  142.4150 C   0  0  0  0  0  3  0  0  0  0  0  0
  188.4580  177.3880  142.1490 N   0  0  0  0  0  0  0  0  0  0  0  0
  187.7860  177.3450  143.3190 C   0  0  0  0  0  0  0  0  0  0  0  0
  191.9820  178.5520  144.3310 C   0  0  0  0  0  1  0  0  0  0  0  0
  189.9460  177.2580  143.7860 C   0  0  0  0  0  0  0  0  0  0  0  0
  187.8450  177.5240  140.8290 C   0  0  1  0  0  3  0  0  0  0  0  0
  187.0040  178.7920  140.7490 C   0  0  0  0  0  1  0  0  0  0  0  0
  189.3540  178.7470  139.1750 C   0  0  0  0  0  2  0  0  0  0  0  0
  188.8750  177.3990  139.6960 C   0  0  2  0  0  3  0  0  0  0  0  0
  188.6850  177.3490  137.3680 C   0  0  1  0  0  3  0  0  0  0  0  0
  188.9160  178.7970  137.7370 C   0  0  0  0  0  2  0  0  0  0  0  0
  188.3090  176.6400  138.5850 N   0  0  0  0  0  2  0  0  0  0  0  0
  187.6010  178.3090  135.4750 F   0  0  0  0  0  0  0  0  0  0  0  0
  187.8570  176.0740  135.5410 F   0  0  0  0  0  0  0  0  0  0  0  0
  187.6010  177.2000  136.3030 C   0  0  0  0  0  0  0  0  0  0  0  0
  186.3550  177.0740  136.8930 F   0  0  0  0  0  0  0  0  0  0  0  0
  186.3870  177.3800  143.3750 O   0  0  0  0  0  0  0  0  0  0  0  0
  185.6460  178.4290  143.9710 C   0  0  0  0  0  2  0  0  0  0  0  0
  183.3610  179.1620  145.5850 O   0  0  0  0  0  1  0  0  0  0  0  0
  184.2910  178.4220  143.4460 N   0  0  0  0  0  2  0  0  0  0  0  0
  183.1780  178.7920  144.2570 C   0  0  0  0  0  0  0  0  0  0  0  0
  182.0190  178.7850  143.7670 O   0  0  0  0  0  0  0  0  0  0  0  0
  1  4  2  0  0  0  0
  1  5  1  0  0  0  0
  2 11  1  1  0  0  0
  2  6  1  0  0  0  0
  6  5  1  0  0  0  0
  6  3  2  0  0  0  0
  7  1  1  0  0  0  0
  8 12  2  0  0  0  0
  9  8  1  0  0  0  0
  9 10  1  0  0  0  0
 10 24  1  0  0  0  0
 10  7  2  0  0  0  0
 12  7  1  0  0  0  0
 12  2  1  0  0  0  0
 13 14  1  1  0  0  0
 13  9  1  0  0  0  0
 15 16  1  0  0  0  0
 16 13  1  1  0  0  0
 17 22  1  6  0  0  0
 17 18  1  0  0  0  0
 17 19  1  0  0  0  0
 18 15  1  0  0  0  0
 19 16  1  0  0  0  0
 20 22  1  0  0  0  0
 21 22  1  0  0  0  0
 22 23  1  0  0  0  0
 24 25  1  0  0  0  0
 27 25  1  0  0  0  0
 27 28  1  0  0  0  0
 28 26  1  0  0  0  0
 29 28  2  0  0  0  0
M  END
>  <MODEL>
8

>  <REMARK>
 VINA RESULT:      -7.3      4.167      6.978
  Name = 
  6 active torsions:
  status: ('A' for Active; 'I' for Inactive)
    1  A    between atoms: C_8  and  C_12
    2  A    between atoms: N_10  and  C_14
    3  A    between atoms: C_11  and  C_13
    4  A    between atoms: C_13  and  N_25
    5  A    between atoms: C_14  and  O_18
    6  A    between atoms: O_18  and  C_26
                            x       y       z     vdW  Elec       q    Type
                         _______ _______ _______ _____ _____    ______ ____

>  <TORSDO>
F 6

$$$$
=
 OpenBabel10222422093D

 29 31  0  0  1  0  0  0  0  0999 V2000
  191.0240  177.7560  143.6940 C   0  0  0  0  0  0  0  0  0  0  0  0
  188.9620  176.9600  141.6910 C   0  0  2  0  0  3  0  0  0  0  0  0
  190.8480  176.4030  140.3260 O   0  0  0  0  0  0  0  0  0  0  0  0
  191.8810  178.2520  144.4690 O   0  0  0  0  0  0  0  0  0  0  0  0
  191.4120  177.3360  142.3830 N   0  0  0  0  0  2  0  0  0  0  0  0
  190.4490  176.8720  141.4240 C   0  0  0  0  0  0  0  0  0  0  0  0
  189.6100  177.6240  144.0710 C   0  0  0  0  0  0  0  0  0  0  0  0
  187.4220  177.3060  143.7360 C   0  0  0  0  0  3  0  0  0  0  0  0
  187.5890  177.6660  145.0280 N   0  0  0  0  0  0  0  0  0  0  0  0
  188.9060  177.8610  145.2490 C   0  0  0  0  0  0  0  0  0  0  0  0
  188.3470  178.0310  140.8050 C   0  0  0  0  0  1  0  0  0  0  0  0
  188.6670  177.2620  143.1340 C   0  0  0  0  0  0  0  0  0  0  0  0
  186.5290  177.8750  146.0110 C   0  0  1  0  0  3  0  0  0  0  0  0
  187.1090  178.0280  147.4120 C   0  0  0  0  0  1  0  0  0  0  0  0
  184.1290  178.7410  145.9680 C   0  0  0  0  0  2  0  0  0  0  0  0
  185.5830  179.0190  145.6110 C   0  0  2  0  0  3  0  0  0  0  0  0
  184.3100  179.4380  143.6990 C   0  0  1  0  0  3  0  0  0  0  0  0
  183.3970  178.7020  144.6540 C   0  0  0  0  0  2  0  0  0  0  0  0
  185.6760  179.2680  144.1760 N   0  0  0  0  0  2  0  0  0  0  0  0
  182.8910  179.1640  141.8020 F   0  0  0  0  0  0  0  0  0  0  0  0
  185.0760  179.5730  141.4530 F   0  0  0  0  0  0  0  0  0  0  0  0
  184.1700  178.9190  142.2690 C   0  0  0  0  0  0  0  0  0  0  0  0
  184.4180  177.5580  142.2210 F   0  0  0  0  0  0  0  0  0  0  0  0
  189.4010  178.2490  146.5010 O   0  0  0  0  0  0  0  0  0  0  0  0
  189.8720  177.3420  147.4810 C   0  0  0  0  0  2  0  0  0  0  0  0
  192.5430  176.6630  148.3550 O   0  0  0  0  0  1  0  0  0  0  0  0
  190.6570  176.3020  146.8390 N   0  0  0  0  0  2  0  0  0  0  0  0
  191.9710  175.9790  147.2890 C   0  0  0  0  0  0  0  0  0  0  0  0
  192.6200  175.0650  146.7160 O   0  0  0  0  0  0  0  0  0  0  0  0
  1  7  1  0  0  0  0
  1  4  2  0  0  0  0
  2 11  1  6  0  0  0
  2 12  1  0  0  0  0
  3  6  2  0  0  0  0
  5  1  1  0  0  0  0
  6  2  1  0  0  0  0
  6  5  1  0  0  0  0
  7 10  2  0  0  0  0
  8  9  1  0  0  0  0
  9 10  1  0  0  0  0
  9 13  1  0  0  0  0
 10 24  1  0  0  0  0
 12  8  2  0  0  0  0
 12  7  1  0  0  0  0
 13 14  1  1  0  0  0
 16 15  1  0  0  0  0
 16 13  1  6  0  0  0
 17 22  1  6  0  0  0
 17 19  1  0  0  0  0
 17 18  1  0  0  0  0
 18 15  1  0  0  0  0
 19 16  1  0  0  0  0
 20 22  1  0  0  0  0
 21 22  1  0  0  0  0
 23 22  1  0  0  0  0
 24 25  1  0  0  0  0
 27 28  1  0  0  0  0
 27 25  1  0  0  0  0
 28 26  1  0  0  0  0
 29 28  2  0  0  0  0
M  END
>  <MODEL>
9

>  <REMARK>
 VINA RESULT:      -7.2      3.601      6.052
  Name = 
  6 active torsions:
  status: ('A' for Active; 'I' for Inactive)
    1  A    between atoms: C_8  and  C_12
    2  A    between atoms: N_10  and  C_14
    3  A    between atoms: C_11  and  C_13
    4  A    between atoms: C_13  and  N_25
    5  A    between atoms: C_14  and  O_18
    6  A    between atoms: O_18  and  C_26
                            x       y       z     vdW  Elec       q    Type
                         _______ _______ _______ _____ _____    ______ ____

>  <TORSDO>
F 6

$$$$
